data_PCOD9489686
_publ_section_title
;
Structure prediction by ZEFSAII (Michael W. Deem and Ramdas Pophale) SiO2 
 PCOD9489686
Probable space group: C M M M
;
_chemical_formula_sum "Si O2"
_cell_formula_units_Z 96
_cell_length_a 8.730458
_cell_length_b 29.425405
_cell_length_c 20.876503
_cell_angle_alpha 90.000000
_cell_angle_beta 90.000000
_cell_angle_gamma 90.000000
_cell_volume 5363.116471
_symmetry_space_group_name_H-M "C M M M"
_symmetry_group_IT_number 65
_symmetry_cell_setting 'orthorhombic'
loop_
_space_group_symop_operation_xyz
x,y,z
-x,-y,z
x,-y,-z
-x,y,-z
-x,-y,-z
x,y,-z
-x,y,z
x,-y,z
1/2+x,1/2+y,z
1/2-x,1/2-y,z
1/2+x,1/2-y,-z
1/2-x,1/2+y,-z
1/2-x,1/2-y,-z
1/2+x,1/2+y,-z
1/2-x,1/2+y,z
1/2+x,1/2-y,z
loop_
_atom_site_type_symbol
_atom_site_label
_atom_site_fract_x
_atom_site_fract_y
_atom_site_fract_z
Si Si1 0.681839 0.854887 0.928349
Si Si2 0.683227 0.299558 0.425878
Si Si3 0.317396 0.300574 0.809294
Si Si4 0.816841 0.644670 0.688550
Si Si5 0.317883 0.448622 0.890734
Si Si6 0.181941 0.449129 0.250305
O O1 0.500000 0.851124 0.917391
O O2 0.768348 0.827715 0.872979
O O3 0.730571 0.907587 0.924144
O O4 0.716883 0.837919 0.000000
O O5 0.725388 0.308778 0.500000
O O6 0.500000 0.297806 0.421296
O O7 0.750000 0.250000 0.408877
O O8 0.748147 0.336109 0.376750
O O9 0.500000 0.298966 0.804293
O O10 0.250000 0.250000 0.811645
O O11 0.249433 0.326675 0.747956
O O12 0.779829 0.591978 0.702670
O O13 0.000000 0.649755 0.687556
O O14 0.500000 0.443448 0.899690
O O15 0.274903 0.500000 0.910988
O O16 0.275751 0.444792 0.815478
O O17 0.207292 0.500000 0.276111
O O18 0.000000 0.445152 0.234384
#
# Coordination Sequence:
#
# PCOD9489686 Si02
#       6
#    16  16  16  16  16  16
#     4  11  24  41  59  80 109 146 188 233 285 342
#     4  10  21  37  57  83 117 154 192 233 280 333
#     4  12  25  41  61  83 111 144 185 234 282 337
#     4  11  21  35  59  88 118 149 187 231 278 332
#     4  10  20  34  55  83 113 145 183 230 283 337
#     4   9  18  33  55  82 113 148 185 228 277 330
#
# _framework density 17.900040000000001
#
# number of rings (size 3 to 8) (size 9 to 14) (size 15 to 20)
#    0.000    1.500    1.667    4.000    0.000    4.667 
#    0.000    1.667    0.000    0.500    0.000    3.500 
#    0.000    0.000    0.000    0.000    0.000    0.000 
#
# Total GULP energy -268225.435547 kJ/mol
# GULP energy per Si atom -5588.029907 kJ/mol
# Density = 1.785930 g / cm^3
# Si number density = 17.900040 Si / 1000 Ang^3
#
#
#
# Elastic Constant Matrix: (Units=GPa)
#
#
# Indices 1 2 3 4 5 6 
#
# 1 58.3556 32.2858 30.4403 0.0000 0.0000 0.0000
# 2 32.2858 108.5054 50.6938 0.0000 0.0000 0.0000
# 3 30.4403 50.6938 79.1076 0.0000 0.0000 0.0000
# 4 0.0000 0.0000 0.0000 -37.8303 0.0000 0.0000
# 5 0.0000 0.0000 0.0000 0.0000 16.3890 0.0000
# 6 0.0000 0.0000 0.0000 0.0000 0.0000 27.7512
#
#
#
# Elastic Compliance Matrix: (Units=1/GPa)
#
#
# Indices 1 2 3 4 5 6 
#
# 1 0.022475 -0.003778 -0.006227 0.000000 0.000000 0.000000
# 2 -0.003778 0.013790 -0.007383 0.000000 0.000000 0.000000
# 3 -0.006227 -0.007383 0.019768 0.000000 0.000000 0.000000
# 4 0.000000 0.000000 0.000000 -0.026434 0.000000 0.000000
# 5 0.000000 0.000000 0.000000 0.000000 0.061017 0.000000
# 6 0.000000 0.000000 0.000000 0.000000 0.000000 0.036034
#
#
# Mechanical properties :
#
#
# Convention : Reuss Voigt Hill
#
# Bulk Modulus (GPa) = 47.04438 52.53428 49.78933
# Shear Modulus (GPa) = 29.67155 10.09857 19.88506
#
# Velocity S-wave (km/s) = 4.07581 2.37779 3.33662
# Velocity P-wave (km/s) = 6.96336 6.07873 6.53603
#
# Compressibility (1/GPa) = 0.02125652
#
# Stress axis : x y z
#
# Youngs Moduli (GPa) = 44.49415 72.51853 50.58602
#
# Poissons Ratio (x) = 0.27398 0.31501
# Poissons Ratio (y) = 0.16810 0.37347
# Poissons Ratio (z) = 0.27707 0.53539
#
# Static dielectric constant tensor:
#      x y z
#    x 1.599060 0.000000 0.000000 
#    y 0.000000 1.611880 0.000000 
#    z 0.000000 0.000000 1.594140 
# 
# From -- ./inp_files/60199.got.cif
#   From: 2010.05.17/outbox.cif.g08.bks.cpg/sg65_31_cif.got.tgz:60199.got - 2010.06.03 17:01:31.
