data_PCOD9489184
_publ_section_title
;
Structure prediction by ZEFSAII (Michael W. Deem and Ramdas Pophale) SiO2 
 PCOD9489184
Probable space group: C M M M
;
_chemical_formula_sum "Si O2"
_cell_formula_units_Z 96
_cell_length_a 7.900629
_cell_length_b 30.493636
_cell_length_c 19.462837
_cell_angle_alpha 90.000000
_cell_angle_beta 90.000000
_cell_angle_gamma 90.000000
_cell_volume 4688.965376
_symmetry_space_group_name_H-M "C M M M"
_symmetry_group_IT_number 65
_symmetry_cell_setting 'orthorhombic'
loop_
_space_group_symop_operation_xyz
x,y,z
-x,-y,z
x,-y,-z
-x,y,-z
-x,-y,-z
x,y,-z
-x,y,z
x,-y,z
1/2+x,1/2+y,z
1/2-x,1/2-y,z
1/2+x,1/2-y,-z
1/2-x,1/2+y,-z
1/2-x,1/2-y,-z
1/2+x,1/2+y,-z
1/2-x,1/2+y,z
1/2+x,1/2-y,z
loop_
_atom_site_type_symbol
_atom_site_label
_atom_site_fract_x
_atom_site_fract_y
_atom_site_fract_z
Si Si1 0.298007 0.201023 0.225072
Si Si2 0.293670 0.049653 0.580121
Si Si3 0.805513 0.047487 0.220343
Si Si4 0.807231 0.620709 0.687514
Si Si5 0.196622 0.568218 0.075426
Si Si6 0.298493 0.331567 0.924424
O O1 0.500000 0.196093 0.224819
O O2 0.250000 0.250000 0.245895
O O3 0.229122 0.164500 0.278814
O O4 0.241537 0.193388 0.146074
O O5 0.252899 0.056356 0.500000
O O6 0.500000 0.049169 0.586199
O O7 0.231545 0.090127 0.626942
O O8 0.235807 0.000000 0.598741
O O9 0.694780 0.086441 0.249622
O O10 0.797722 0.049373 0.138613
O O11 0.000000 0.053395 0.242230
O O12 0.743140 0.000000 0.243493
O O13 0.000000 0.631353 0.666562
O O14 0.211335 0.620973 0.079308
O O15 0.000000 0.555798 0.082111
O O16 0.257511 0.555126 0.000000
O O17 0.500000 0.338751 0.924923
O O18 0.252580 0.311954 0.000000
#
# Coordination Sequence:
#
# PCOD9489184 Si02
#       6
#    16  16  16  16  16  16
#     4  11  23  37  55  79 106 141 185 231 280 332
#     4   8  14  27  52  87 120 145 173 215 266 317
#     4  11  23  35  50  75 106 142 181 220 269 326
#     4  10  20  35  56  81 108 141 180 223 271 322
#     4  10  20  34  52  73  99 135 179 225 271 321
#     4  10  20  35  56  79 104 136 175 226 286 339
#
# _framework density 20.473600000000001
#
# number of rings (size 3 to 8) (size 9 to 14) (size 15 to 20)
#    0.000    2.000    1.667    3.000    0.000    5.333 
#    0.000    1.667    0.000    1.000    0.000    2.333 
#    0.000    0.000    0.000    0.000    0.000    0.167 
#
# Total GULP energy -267774.692815 kJ/mol
# GULP energy per Si atom -5578.639434 kJ/mol
# Density = 2.042700 g / cm^3
# Si number density = 20.473600 Si / 1000 Ang^3
#
#
#
# Elastic Constant Matrix: (Units=GPa)
#
#
# Indices 1 2 3 4 5 6 
#
# 1 38.9684 4.7073 4.6368 0.0000 0.0000 0.0000
# 2 4.7073 145.3106 66.1308 0.0000 0.0000 0.0000
# 3 4.6368 66.1308 135.3811 0.0000 0.0000 0.0000
# 4 0.0000 0.0000 0.0000 5.5287 0.0000 0.0000
# 5 0.0000 0.0000 0.0000 0.0000 1.0427 0.0000
# 6 0.0000 0.0000 0.0000 0.0000 0.0000 -3.5546
#
#
#
# Elastic Compliance Matrix: (Units=1/GPa)
#
#
# Indices 1 2 3 4 5 6 
#
# 1 0.025802 -0.000558 -0.000611 0.000000 0.000000 0.000000
# 2 -0.000558 0.008861 -0.004309 0.000000 0.000000 0.000000
# 3 -0.000611 -0.004309 0.009513 0.000000 0.000000 0.000000
# 4 0.000000 0.000000 0.000000 0.180875 0.000000 0.000000
# 5 0.000000 0.000000 0.000000 0.000000 0.959076 0.000000
# 6 0.000000 0.000000 0.000000 0.000000 0.000000 -0.281326
#
#
# Mechanical properties :
#
#
# Convention : Reuss Voigt Hill
#
# Bulk Modulus (GPa) = 30.10337 52.29001 41.19669
# Shear Modulus (GPa) = 5.40640 16.88236 11.14438
#
# Velocity S-wave (km/s) = 1.62678 2.87469 2.33562
# Velocity P-wave (km/s) = 4.27364 6.05096 5.23823
#
# Compressibility (1/GPa) = 0.03321887
#
# Stress axis : x y z
#
# Youngs Moduli (GPa) = 38.75684 112.85341 105.12464
#
# Poissons Ratio (x) = 0.06293 0.06427
# Poissons Ratio (y) = 0.02161 0.45302
# Poissons Ratio (z) = 0.02369 0.48632
#
# Static dielectric constant tensor:
#      x y z
#    x 1.754540 0.000000 0.000000 
#    y 0.000000 1.738130 0.000000 
#    z 0.000000 0.000000 1.757610 
# 
# From -- ./inp_files/60156.got.cif
#   From: 2010.05.17/outbox.cif.g08.bks.cpg/sg65_31_cif.got.tgz:60156.got - 2010.06.03 17:01:31.
