data_PCOD9489416
_publ_section_title
;
Structure prediction by ZEFSAII (Michael W. Deem and Ramdas Pophale) SiO2 
 PCOD9489416
Probable space group: C M M M
;
_chemical_formula_sum "Si O2"
_cell_formula_units_Z 88
_cell_length_a 17.490127
_cell_length_b 17.323226
_cell_length_c 16.265023
_cell_angle_alpha 90.000000
_cell_angle_beta 90.000000
_cell_angle_gamma 90.000000
_cell_volume 4928.064870
_symmetry_space_group_name_H-M "C M M M"
_symmetry_group_IT_number 65
_symmetry_cell_setting 'orthorhombic'
loop_
_space_group_symop_operation_xyz
x,y,z
-x,-y,z
x,-y,-z
-x,y,-z
-x,-y,-z
x,y,-z
-x,y,z
x,-y,z
1/2+x,1/2+y,z
1/2-x,1/2-y,z
1/2+x,1/2-y,-z
1/2-x,1/2+y,-z
1/2-x,1/2-y,-z
1/2+x,1/2+y,-z
1/2-x,1/2+y,z
1/2+x,1/2-y,z
loop_
_atom_site_type_symbol
_atom_site_label
_atom_site_fract_x
_atom_site_fract_y
_atom_site_fract_z
Si Si1 0.672684 0.589163 0.094999
Si Si2 0.591806 0.735349 0.500000
Si Si3 0.675647 0.136462 0.185162
Si Si4 0.085768 0.237814 0.903465
Si Si5 0.793623 0.092024 0.500000
Si Si6 0.193171 0.678644 0.632550
Si Si7 0.909143 0.500000 0.905660
O O1 0.653203 0.500000 0.107359
O O2 0.739537 0.614162 0.156368
O O3 0.602249 0.647099 0.104107
O O4 0.700358 0.598131 0.000000
O O5 0.500000 0.730473 0.500000
O O6 0.633373 0.650808 0.500000
O O7 0.625798 0.783228 0.422117
O O8 0.649135 0.217474 0.147505
O O9 0.667857 0.140479 0.282767
O O10 0.621631 0.073911 0.142125
O O11 0.000000 0.257440 0.876511
O O12 0.092743 0.258524 0.000000
O O13 0.741680 0.118603 0.577514
O O14 0.809583 0.000000 0.500000
O O15 0.250000 0.750000 0.652201
O O16 0.000000 0.500000 0.907741
O O17 0.880537 0.500000 0.000000
#
# Coordination Sequence:
#
# PCOD9489416 Si02
#       7
#    16   8  16  16   8  16   8
#     4  10  20  34  53  79 108 141 185 236 285 333
#     4   9  19  38  60  86 117 147 180 222 274 333
#     4  12  21  35  58  80 107 146 195 235 277 333
#     4  10  21  35  52  76 108 146 185 231 287 341
#     4   9  19  36  62  86 117 147 176 222 274 335
#     4   9  20  37  57  83 111 148 186 222 273 331
#     4  11  24  38  52  77 116 152 187 241 298 338
#
# _framework density 17.856908000000001
#
# number of rings (size 3 to 8) (size 9 to 14) (size 15 to 20)
#    0.000    1.909    0.909    4.909    1.273    4.909 
#    0.000    1.818    0.000    1.091    0.000    5.091 
#    0.000    0.000    0.000    0.000    0.000    0.000 
#
# Total GULP energy -245515.615831 kJ/mol
# GULP energy per Si atom -5579.900360 kJ/mol
# Density = 1.781626 g / cm^3
# Si number density = 17.856908 Si / 1000 Ang^3
#
#
#
# Elastic Constant Matrix: (Units=GPa)
#
#
# Indices 1 2 3 4 5 6 
#
# 1 66.4310 19.1209 30.3806 0.0000 0.0000 0.0000
# 2 19.1209 96.8811 46.8589 0.0000 0.0000 0.0000
# 3 30.3806 46.8589 116.4249 0.0000 0.0000 0.0000
# 4 0.0000 0.0000 0.0000 53.8566 0.0000 0.0000
# 5 0.0000 0.0000 0.0000 0.0000 -60.1439 0.0000
# 6 0.0000 0.0000 0.0000 0.0000 0.0000 26.0429
#
#
#
# Elastic Compliance Matrix: (Units=1/GPa)
#
#
# Indices 1 2 3 4 5 6 
#
# 1 0.017273 -0.001526 -0.003893 0.000000 0.000000 0.000000
# 2 -0.001526 0.012952 -0.004815 0.000000 0.000000 0.000000
# 3 -0.003893 -0.004815 0.011543 0.000000 0.000000 0.000000
# 4 0.000000 0.000000 0.000000 0.018568 0.000000 0.000000
# 5 0.000000 0.000000 0.000000 0.000000 -0.016627 0.000000
# 6 0.000000 0.000000 0.000000 0.000000 0.000000 0.038398
#
#
# Mechanical properties :
#
#
# Convention : Reuss Voigt Hill
#
# Bulk Modulus (GPa) = 46.94829 52.49531 49.72180
# Shear Modulus (GPa) = 45.58950 16.17625 30.88287
#
# Velocity S-wave (km/s) = 5.05825 3.01305 4.16319
# Velocity P-wave (km/s) = 7.77579 6.44719 7.14245
#
# Compressibility (1/GPa) = 0.02130003
#
# Stress axis : x y z
#
# Youngs Moduli (GPa) = 57.89431 77.20907 86.63318
#
# Poissons Ratio (x) = 0.11783 0.33727
# Poissons Ratio (y) = 0.08835 0.41711
# Poissons Ratio (z) = 0.22539 0.37174
#
# Static dielectric constant tensor:
#      x y z
#    x 1.587810 0.000000 0.000000 
#    y 0.000000 1.647700 0.000000 
#    z 0.000000 0.000000 1.606780 
# 
# From -- ./inp_files/42558.got.cif
#   From: 2010.05.17/outbox.cif.g08.bks.cpg/sg65_22_cif.got.tgz:42558.got - 2010.06.03 17:01:31.
