data_PCOD9489471
_publ_section_title
;
Structure prediction by ZEFSAII (Michael W. Deem and Ramdas Pophale) SiO2 
 PCOD9489471
Probable space group: C M M M
;
_chemical_formula_sum "Si O2"
_cell_formula_units_Z 104
_cell_length_a 29.342646
_cell_length_b 7.616049
_cell_length_c 21.531454
_cell_angle_alpha 90.000000
_cell_angle_beta 90.000000
_cell_angle_gamma 90.000000
_cell_volume 4811.742323
_symmetry_space_group_name_H-M "C M M M"
_symmetry_group_IT_number 65
_symmetry_cell_setting 'orthorhombic'
loop_
_space_group_symop_operation_xyz
x,y,z
-x,-y,z
x,-y,-z
-x,y,-z
-x,-y,-z
x,y,-z
-x,y,z
x,-y,z
1/2+x,1/2+y,z
1/2-x,1/2-y,z
1/2+x,1/2-y,-z
1/2-x,1/2+y,-z
1/2-x,1/2-y,-z
1/2+x,1/2+y,-z
1/2-x,1/2+y,z
1/2+x,1/2-y,z
loop_
_atom_site_type_symbol
_atom_site_label
_atom_site_fract_x
_atom_site_fract_y
_atom_site_fract_z
Si Si1 0.450187 0.789185 0.100371
Si Si2 0.349832 0.294984 0.066654
Si Si3 0.000000 0.700305 0.575295
Si Si4 0.449774 0.788925 0.248096
Si Si5 0.143764 0.798599 0.690787
Si Si6 0.397918 0.707849 0.429996
Si Si7 0.303179 0.711452 0.191608
O O1 0.500000 0.727757 0.078100
O O2 0.404492 0.715331 0.071285
O O3 0.448143 0.754145 0.174292
O O4 0.448915 0.000000 0.092045
O O5 0.336781 0.500000 0.065766
O O6 0.328630 0.219271 0.129909
O O7 0.335577 0.217302 0.000000
O O8 0.950619 0.775036 0.591733
O O9 0.000000 0.500000 0.596358
O O10 0.000000 0.708422 0.500000
O O11 0.500000 0.734177 0.270914
O O12 0.406624 0.702114 0.279358
O O13 0.446242 0.000000 0.256178
O O14 0.135455 0.717451 0.622770
O O15 0.175716 0.718077 0.743914
O O16 0.158959 0.000000 0.681461
O O17 0.393886 0.781235 0.500000
O O18 0.389235 0.500000 0.433772
O O19 0.310372 0.500000 0.192958
O O20 0.250000 0.750000 0.187515
#
# Coordination Sequence:
#
# PCOD9489471 Si02
#       7
#    16  16   8  16  16  16  16
#     4   9  18  33  52  76 109 146 181 215 251 298
#     4  10  21  37  56  79 108 139 172 213 259 307
#     4   9  17  29  45  69 105 147 184 215 250 294
#     4   9  18  31  48  74 107 140 175 214 256 302
#     4  10  20  34  54  78 102 134 176 216 258 307
#     4   9  18  32  49  71 103 141 178 214 252 299
#     4  10  22  40  59  80 103 128 166 217 269 322
#
# _framework density 21.613792
#
# number of rings (size 3 to 8) (size 9 to 14) (size 15 to 20)
#    0.000    2.538    1.538    1.154    1.077    4.308 
#    0.000    3.077    0.000    0.462    0.000    0.000 
#    0.000    0.000    0.000    0.000    0.000    0.000 
#
# Total GULP energy -290145.667438 kJ/mol
# GULP energy per Si atom -5579.724374 kJ/mol
# Density = 2.156460 g / cm^3
# Si number density = 21.613792 Si / 1000 Ang^3
#
#
#
# Elastic Constant Matrix: (Units=GPa)
#
#
# Indices 1 2 3 4 5 6 
#
# 1 98.0002 -7.7850 70.6418 0.0000 0.0000 0.0000
# 2 -7.7850 41.0926 8.9223 0.0000 0.0000 0.0000
# 3 70.6418 8.9223 161.2748 0.0000 0.0000 0.0000
# 4 0.0000 0.0000 0.0000 -3.7970 0.0000 0.0000
# 5 0.0000 0.0000 0.0000 0.0000 23.3956 0.0000
# 6 0.0000 0.0000 0.0000 0.0000 0.0000 15.8317
#
#
#
# Elastic Compliance Matrix: (Units=1/GPa)
#
#
# Indices 1 2 3 4 5 6 
#
# 1 0.015701 0.004522 -0.007128 0.000000 0.000000 0.000000
# 2 0.004522 0.025934 -0.003416 0.000000 0.000000 0.000000
# 3 -0.007128 -0.003416 0.009512 0.000000 0.000000 0.000000
# 4 0.000000 0.000000 0.000000 -0.263369 0.000000 0.000000
# 5 0.000000 0.000000 0.000000 0.000000 0.042743 0.000000
# 6 0.000000 0.000000 0.000000 0.000000 0.000000 0.063164
#
#
# Mechanical properties :
#
#
# Convention : Reuss Voigt Hill
#
# Bulk Modulus (GPa) = 25.57258 49.32509 37.44884
# Shear Modulus (GPa) = -61.54756 22.32530 -19.61113
#
# Velocity S-wave (km/s) = -5.34209 3.21739 -3.01548
# Velocity P-wave (km/s) = 5.11793 6.05581 2.28906
#
# Compressibility (1/GPa) = 0.03910439
#
# Stress axis : x y z
#
# Youngs Moduli (GPa) = 63.68974 38.55997 105.13470
#
# Poissons Ratio (x) = -0.17438 0.74936
# Poissons Ratio (y) = -0.28802 0.35909
# Poissons Ratio (z) = 0.45396 0.13170
#
# Static dielectric constant tensor:
#      x y z
#    x 1.738700 0.000000 0.000000 
#    y 0.000000 1.791560 0.000000 
#    z 0.000000 0.000000 1.875760 
# 
# From -- ./inp_files/71818.got.cif
#   From: 2010.05.17/outbox.cif.g08.bks.cpg/sg65_36_cif.got.tgz:71818.got - 2010.06.03 17:01:31.
