data_PCOD9489738
_publ_section_title
;
Structure prediction by ZEFSAII (Michael W. Deem and Ramdas Pophale) SiO2 
 PCOD9489738
Probable space group: C M M M
;
_chemical_formula_sum "Si O2"
_cell_formula_units_Z 88
_cell_length_a 8.449180
_cell_length_b 22.261923
_cell_length_c 25.194082
_cell_angle_alpha 90.000000
_cell_angle_beta 90.000000
_cell_angle_gamma 90.000000
_cell_volume 4738.880717
_symmetry_space_group_name_H-M "C M M M"
_symmetry_group_IT_number 65
_symmetry_cell_setting 'orthorhombic'
loop_
_space_group_symop_operation_xyz
x,y,z
-x,-y,z
x,-y,-z
-x,y,-z
-x,-y,-z
x,y,-z
-x,y,z
x,-y,z
1/2+x,1/2+y,z
1/2-x,1/2-y,z
1/2+x,1/2-y,-z
1/2-x,1/2+y,-z
1/2-x,1/2-y,-z
1/2+x,1/2+y,-z
1/2-x,1/2+y,z
1/2+x,1/2-y,z
loop_
_atom_site_type_symbol
_atom_site_label
_atom_site_fract_x
_atom_site_fract_y
_atom_site_fract_z
Si Si1 0.690095 0.318581 0.942408
Si Si2 0.689933 0.000000 0.439927
Si Si3 0.689773 0.068474 0.244036
Si Si4 0.189786 0.682754 0.558260
Si Si5 0.310753 0.819380 0.171828
Si Si6 0.186251 0.098145 0.360056
O O1 0.500000 0.319130 0.937982
O O2 0.750000 0.250000 0.944726
O O3 0.763657 0.340766 0.887558
O O4 0.732970 0.346360 0.000000
O O5 0.752638 0.055306 0.406550
O O6 0.500000 0.000000 0.439942
O O7 0.746445 0.000000 0.500000
O O8 0.500000 0.067096 0.237580
O O9 0.747273 0.127023 0.210805
O O10 0.730108 0.081533 0.305296
O O11 0.747460 0.000000 0.230680
O O12 0.230609 0.653649 0.500000
O O13 0.250000 0.750000 0.553412
O O14 0.268185 0.660343 0.612677
O O15 0.000000 0.678240 0.562959
O O16 0.500000 0.815531 0.175807
O O17 0.250000 0.750000 0.180218
O O18 0.000000 0.092018 0.352163
#
# Coordination Sequence:
#
# PCOD9489738 Si02
#       6
#    16   8  16  16  16  16
#     4   9  16  27  47  77 113 150 185 227 280 333
#     4  11  23  39  59  81 107 139 174 219 274 327
#     4  10  22  41  61  78 107 151 195 238 285 340
#     4  10  21  38  59  82 110 144 178 217 271 332
#     4  10  20  34  56  85 113 147 189 235 287 336
#     4  12  24  37  57  84 109 138 179 225 275 332
#
# _framework density 18.569786000000001
#
# number of rings (size 3 to 8) (size 9 to 14) (size 15 to 20)
#    0.000    1.727    0.909    5.182    0.000    7.273 
#    0.000    1.818    0.000    0.545    0.000    3.818 
#    0.000    0.000    0.000    0.000    0.000    0.000 
#
# Total GULP energy -245032.441195 kJ/mol
# GULP energy per Si atom -5568.919118 kJ/mol
# Density = 1.852752 g / cm^3
# Si number density = 18.569786 Si / 1000 Ang^3
#
#
#
# Elastic Constant Matrix: (Units=GPa)
#
#
# Indices 1 2 3 4 5 6 
#
# 1 25.5344 10.6942 3.4854 0.0000 0.0000 0.0000
# 2 10.6942 94.0826 62.8327 0.0000 0.0000 0.0000
# 3 3.4854 62.8327 128.9012 0.0000 0.0000 0.0000
# 4 0.0000 0.0000 0.0000 39.8095 0.0000 0.0000
# 5 0.0000 0.0000 0.0000 0.0000 20.6240 0.0000
# 6 0.0000 0.0000 0.0000 0.0000 0.0000 16.6675
#
#
#
# Elastic Compliance Matrix: (Units=1/GPa)
#
#
# Indices 1 2 3 4 5 6 
#
# 1 0.041382 -0.005866 0.001741 0.000000 0.000000 0.000000
# 2 -0.005866 0.016591 -0.007929 0.000000 0.000000 0.000000
# 3 0.001741 -0.007929 0.011576 0.000000 0.000000 0.000000
# 4 0.000000 0.000000 0.000000 0.025120 0.000000 0.000000
# 5 0.000000 0.000000 0.000000 0.000000 0.048487 0.000000
# 6 0.000000 0.000000 0.000000 0.000000 0.000000 0.059997
#
#
# Mechanical properties :
#
#
# Convention : Reuss Voigt Hill
#
# Bulk Modulus (GPa) = 22.00699 44.72696 33.36697
# Shear Modulus (GPa) = 20.62643 26.85393 23.74018
#
# Velocity S-wave (km/s) = 3.33641 3.80690 3.57939
# Velocity P-wave (km/s) = 5.16903 6.59253 5.92370
#
# Compressibility (1/GPa) = 0.04544012
#
# Stress axis : x y z
#
# Youngs Moduli (GPa) = 24.16497 60.27433 86.38885
#
# Poissons Ratio (x) = 0.35358 -0.15036
# Poissons Ratio (y) = 0.14176 0.68494
# Poissons Ratio (z) = -0.04206 0.47789
#
# Static dielectric constant tensor:
#      x y z
#    x 1.638410 0.000000 0.000000 
#    y 0.000000 2.071400 0.000000 
#    z 0.000000 0.000000 1.659460 
# 
# From -- ./inp_files/67601.got.cif
#   From: 2010.05.17/outbox.cif.g08.bks.cpg/sg65_34_cif.got.tgz:67601.got - 2010.06.03 17:01:31.
