data_PCOD9489999
_publ_section_title
;
Structure prediction by ZEFSAII (Michael W. Deem and Ramdas Pophale) SiO2 
 PCOD9489999
Probable space group: C M M M
;
_chemical_formula_sum "Si O2"
_cell_formula_units_Z 80
_cell_length_a 17.215832
_cell_length_b 28.565250
_cell_length_c 7.609788
_cell_angle_alpha 90.000000
_cell_angle_beta 90.000000
_cell_angle_gamma 90.000000
_cell_volume 3742.300032
_symmetry_space_group_name_H-M "C M M M"
_symmetry_group_IT_number 65
_symmetry_cell_setting 'orthorhombic'
loop_
_space_group_symop_operation_xyz
x,y,z
-x,-y,z
x,-y,-z
-x,y,-z
-x,-y,-z
x,y,-z
-x,y,z
x,-y,z
1/2+x,1/2+y,z
1/2-x,1/2-y,z
1/2+x,1/2-y,-z
1/2-x,1/2+y,-z
1/2-x,1/2-y,-z
1/2+x,1/2+y,-z
1/2-x,1/2+y,z
1/2+x,1/2-y,z
loop_
_atom_site_type_symbol
_atom_site_label
_atom_site_fract_x
_atom_site_fract_y
_atom_site_fract_z
Si Si1 0.409975 0.500000 0.784515
Si Si2 0.910622 0.711389 0.289378
Si Si3 0.824311 0.906710 0.209067
Si Si4 0.000000 0.553880 0.285023
Si Si5 0.149324 0.386956 0.711988
Si Si6 0.589096 0.685168 0.789195
O O1 0.500000 0.500000 0.733213
O O2 0.366602 0.546873 0.722896
O O3 0.408048 0.500000 0.000000
O O4 0.914361 0.707624 0.500000
O O5 0.863325 0.666456 0.224813
O O6 0.879297 0.763018 0.249627
O O7 0.000000 0.708874 0.223278
O O8 0.732526 0.906792 0.237297
O O9 0.861089 0.858346 0.279169
O O10 0.837963 0.906492 0.000000
O O11 0.076993 0.581531 0.227993
O O12 0.000000 0.500000 0.228851
O O13 0.000000 0.554210 0.500000
O O14 0.146629 0.386382 0.500000
O O15 0.500000 0.682876 0.722784
O O16 0.585717 0.681553 0.000000
#
# Coordination Sequence:
#
# PCOD9489999 Si02
#       6
#     8  16  16   8  16  16
#     4   9  18  36  61  80 101 140 180 211 255 313
#     4   9  17  32  53  75 102 138 178 217 255 304
#     4  10  21  35  53  80 109 134 170 220 264 309
#     4   9  18  34  57  79 101 139 183 216 251 306
#     4  10  20  35  55  79 107 138 176 216 258 310
#     4   9  18  33  53  76 103 137 177 216 258 310
#
# _framework density 21.377227999999999
#
# number of rings (size 3 to 8) (size 9 to 14) (size 15 to 20)
#    0.000    2.600    1.000    0.600    1.400    4.800 
#    0.000    4.500    0.000    3.000    0.000    0.000 
#    0.000    0.000    0.000    0.000    0.000    0.000 
#
# Total GULP energy -223348.535415 kJ/mol
# GULP energy per Si atom -5583.713385 kJ/mol
# Density = 2.132857 g / cm^3
# Si number density = 21.377228 Si / 1000 Ang^3
#
#
#
# Elastic Constant Matrix: (Units=GPa)
#
#
# Indices 1 2 3 4 5 6 
#
# 1 142.0951 120.6441 -5.2112 0.0000 0.0000 0.0000
# 2 120.6441 228.2984 7.3186 0.0000 0.0000 0.0000
# 3 -5.2112 7.3186 42.3500 0.0000 0.0000 0.0000
# 4 0.0000 0.0000 0.0000 16.5739 0.0000 0.0000
# 5 0.0000 0.0000 0.0000 0.0000 42.6210 0.0000
# 6 0.0000 0.0000 0.0000 0.0000 0.0000 -55.1838
#
#
#
# Elastic Compliance Matrix: (Units=1/GPa)
#
#
# Indices 1 2 3 4 5 6 
#
# 1 0.013092 -0.007009 0.002822 0.000000 0.000000 0.000000
# 2 -0.007009 0.008157 -0.002272 0.000000 0.000000 0.000000
# 3 0.002822 -0.002272 0.024353 0.000000 0.000000 0.000000
# 4 0.000000 0.000000 0.000000 0.060336 0.000000 0.000000
# 5 0.000000 0.000000 0.000000 0.000000 0.023463 0.000000
# 6 0.000000 0.000000 0.000000 0.000000 0.000000 -0.018121
#
#
# Mechanical properties :
#
#
# Convention : Reuss Voigt Hill
#
# Bulk Modulus (GPa) = 30.59606 73.13850 51.86728
# Shear Modulus (GPa) = 37.01223 20.13503 28.57363
#
# Velocity S-wave (km/s) = 4.16551 3.07235 3.65997
# Velocity P-wave (km/s) = 6.12199 6.84641 6.49431
#
# Compressibility (1/GPa) = 0.03268395
#
# Stress axis : x y z
#
# Youngs Moduli (GPa) = 76.38375 122.59606 41.06325
#
# Poissons Ratio (x) = 0.85925 -0.11589
# Poissons Ratio (y) = 0.53536 0.09330
# Poissons Ratio (z) = -0.21557 0.27855
#
# Static dielectric constant tensor:
#      x y z
#    x 1.732290 0.000000 0.000000 
#    y 0.000000 1.772270 0.000000 
#    z 0.000000 0.000000 1.819590 
# 
# From -- ./inp_files/9684.got.cif
#   From: 2010.05.17/outbox.cif.g08.bks.cpg/sg65_5_cif.got.tgz:9684.got - 2010.06.03 17:01:31.
