data_PCOD9489499
_publ_section_title
;
Structure prediction by ZEFSAII (Michael W. Deem and Ramdas Pophale) SiO2 
 PCOD9489499
Probable space group: C M M M
;
_chemical_formula_sum "Si O2"
_cell_formula_units_Z 112
_cell_length_a 14.830901
_cell_length_b 17.241801
_cell_length_c 24.022213
_cell_angle_alpha 90.000000
_cell_angle_beta 90.000000
_cell_angle_gamma 90.000000
_cell_volume 6142.754767
_symmetry_space_group_name_H-M "C M M M"
_symmetry_group_IT_number 65
_symmetry_cell_setting 'orthorhombic'
loop_
_space_group_symop_operation_xyz
x,y,z
-x,-y,z
x,-y,-z
-x,y,-z
-x,-y,-z
x,y,-z
-x,y,z
x,-y,z
1/2+x,1/2+y,z
1/2-x,1/2-y,z
1/2+x,1/2-y,-z
1/2-x,1/2+y,-z
1/2-x,1/2-y,-z
1/2+x,1/2+y,-z
1/2-x,1/2+y,z
1/2+x,1/2-y,z
loop_
_atom_site_type_symbol
_atom_site_label
_atom_site_fract_x
_atom_site_fract_y
_atom_site_fract_z
Si Si1 0.606159 0.173810 0.660849
Si Si2 0.237598 0.343744 0.562497
Si Si3 0.393759 0.587561 0.240883
Si Si4 0.265570 0.340007 0.155192
Si Si5 0.395283 0.356756 0.639244
Si Si6 0.398538 0.593271 0.064866
Si Si7 0.393551 0.907766 0.222849
O O1 0.500000 0.158630 0.653508
O O2 0.662190 0.140659 0.609038
O O3 0.619105 0.267014 0.658485
O O4 0.632293 0.137710 0.720334
O O5 0.217711 0.370704 0.500000
O O6 0.250000 0.250000 0.559877
O O7 0.330659 0.374520 0.588086
O O8 0.500000 0.604069 0.233827
O O9 0.376062 0.500000 0.220578
O O10 0.332964 0.645982 0.206910
O O11 0.374755 0.593215 0.306315
O O12 0.250000 0.250000 0.146144
O O13 0.318979 0.375076 0.102954
O O14 0.172333 0.380609 0.173585
O O15 0.500000 0.365489 0.624703
O O16 0.500000 0.617857 0.083416
O O17 0.397217 0.500000 0.067700
O O18 0.388445 0.615203 0.000000
O O19 0.500000 0.892281 0.212022
O O20 0.383032 0.000000 0.231683
#
# Coordination Sequence:
#
# PCOD9489499 Si02
#       7
#    16  16  16  16  16  16  16
#     4   9  17  30  48  68  92 124 164 212 261 303
#     4   9  17  28  43  65  91 120 159 205 253 308
#     4  10  20  34  54  79 105 134 172 219 268 317
#     4  12  23  33  53  82 114 145 174 213 260 309
#     4   9  17  29  46  69  96 124 157 202 258 316
#     4   9  19  38  63  87 111 142 181 223 263 302
#     4  10  21  36  53  74 103 140 179 215 254 307
#
# _framework density 18.232862000000001
#
# number of rings (size 3 to 8) (size 9 to 14) (size 15 to 20)
#    0.000    2.286    0.000    3.857    0.000    5.429 
#    0.000    2.857    0.000    2.143    0.000    6.000 
#    0.000    0.000    0.000    0.000    0.000    0.000 
#
# Total GULP energy -312498.477501 kJ/mol
# GULP energy per Si atom -5580.329955 kJ/mol
# Density = 1.819136 g / cm^3
# Si number density = 18.232862 Si / 1000 Ang^3
#
#
#
# Elastic Constant Matrix: (Units=GPa)
#
#
# Indices 1 2 3 4 5 6 
#
# 1 89.3742 33.2525 69.7185 0.0000 0.0000 0.0000
# 2 33.2525 34.6891 26.8265 0.0000 0.0000 0.0000
# 3 69.7185 26.8265 102.3081 0.0000 0.0000 0.0000
# 4 0.0000 0.0000 0.0000 19.0106 0.0000 0.0000
# 5 0.0000 0.0000 0.0000 0.0000 22.0265 0.0000
# 6 0.0000 0.0000 0.0000 0.0000 0.0000 19.1381
#
#
#
# Elastic Compliance Matrix: (Units=1/GPa)
#
#
# Indices 1 2 3 4 5 6 
#
# 1 0.029622 -0.016036 -0.015981 0.000000 0.000000 0.000000
# 2 -0.016036 0.044841 -0.000830 0.000000 0.000000 0.000000
# 3 -0.015981 -0.000830 0.020882 0.000000 0.000000 0.000000
# 4 0.000000 0.000000 0.000000 0.052602 0.000000 0.000000
# 5 0.000000 0.000000 0.000000 0.000000 0.045400 0.000000
# 6 0.000000 0.000000 0.000000 0.000000 0.000000 0.052252
#
#
# Mechanical properties :
#
#
# Convention : Reuss Voigt Hill
#
# Bulk Modulus (GPa) = 33.72557 53.99628 43.86092
# Shear Modulus (GPa) = 15.56772 18.47330 17.02051
#
# Velocity S-wave (km/s) = 2.92520 3.18651 3.05865
# Velocity P-wave (km/s) = 5.47233 6.57401 6.04830
#
# Compressibility (1/GPa) = 0.02965109
#
# Stress axis : x y z
#
# Youngs Moduli (GPa) = 33.75910 22.30081 47.88723
#
# Poissons Ratio (x) = 0.35762 0.76529
# Poissons Ratio (y) = 0.54137 0.03975
# Poissons Ratio (z) = 0.53950 0.01851
#
# Static dielectric constant tensor:
#      x y z
#    x 1.639470 0.000000 0.000000 
#    y 0.000000 1.646760 0.000000 
#    z 0.000000 0.000000 1.615800 
# 
# From -- ./inp_files/70028.got.cif
#   From: 2010.05.17/outbox.cif.g08.bks.cpg/sg65_36_cif.got.tgz:70028.got - 2010.06.03 17:01:31.
