data_PCOD9489540
_publ_section_title
;
Structure prediction by ZEFSAII (Michael W. Deem and Ramdas Pophale) SiO2 
 PCOD9489540
Probable space group: C M M M
;
_chemical_formula_sum "Si O2"
_cell_formula_units_Z 104
_cell_length_a 20.435008
_cell_length_b 8.843499
_cell_length_c 33.606468
_cell_angle_alpha 90.000000
_cell_angle_beta 90.000000
_cell_angle_gamma 90.000000
_cell_volume 6073.259164
_symmetry_space_group_name_H-M "C M M M"
_symmetry_group_IT_number 65
_symmetry_cell_setting 'orthorhombic'
loop_
_space_group_symop_operation_xyz
x,y,z
-x,-y,z
x,-y,-z
-x,y,-z
-x,-y,-z
x,y,-z
-x,y,z
x,-y,z
1/2+x,1/2+y,z
1/2-x,1/2-y,z
1/2+x,1/2-y,-z
1/2-x,1/2+y,-z
1/2-x,1/2-y,-z
1/2+x,1/2+y,-z
1/2-x,1/2+y,z
1/2+x,1/2-y,z
loop_
_atom_site_type_symbol
_atom_site_label
_atom_site_fract_x
_atom_site_fract_y
_atom_site_fract_z
Si Si1 0.079332 0.173529 0.500000
Si Si2 0.820404 0.819557 0.262054
Si Si3 0.923636 0.681977 0.201692
Si Si4 0.679068 0.318766 0.645218
Si Si5 0.425363 0.184205 0.889065
Si Si6 0.678652 0.817411 0.045542
Si Si7 0.423052 0.818976 0.416152
O O1 0.098244 0.257309 0.540568
O O2 0.000000 0.172547 0.500000
O O3 0.102010 0.000000 0.500000
O O4 0.750000 0.750000 0.251374
O O5 0.876081 0.756968 0.233296
O O6 0.833505 0.780151 0.308359
O O7 0.816867 0.000000 0.259121
O O8 0.917407 0.500000 0.204076
O O9 0.907871 0.728066 0.156144
O O10 0.000000 0.719056 0.208816
O O11 0.681398 0.500000 0.641525
O O12 0.750000 0.250000 0.634718
O O13 0.622779 0.252378 0.617339
O O14 0.500000 0.232694 0.897185
O O15 0.374355 0.235199 0.922286
O O16 0.425666 0.000000 0.889616
O O17 0.750000 0.750000 0.053840
O O18 0.682380 0.000000 0.047449
O O19 0.660687 0.776810 0.000000
O O20 0.500000 0.778870 0.410339
O O21 0.418142 0.000000 0.415537
#
# Coordination Sequence:
#
# PCOD9489540 Si02
#       7
#     8  16  16  16  16  16  16
#     4   9  17  31  52  77 106 139 174 213 255 297
#     4  10  21  36  54  75 100 131 168 209 250 298
#     4   9  18  33  52  73 100 132 163 201 250 300
#     4  10  21  37  55  75 102 135 169 208 255 302
#     4   8  15  29  48  70  95 123 158 199 241 286
#     4   9  17  29  46  68  94 124 158 198 242 287
#     4  10  20  34  54  80 108 138 173 211 251 299
#
# _framework density 17.124248999999999
#
# number of rings (size 3 to 8) (size 9 to 14) (size 15 to 20)
#    0.000    2.692    0.000    2.538    0.000    5.538 
#    0.000    7.308    0.000    1.385    0.000    2.154 
#    0.000    0.000    0.000    0.000    0.000    0.000 
#
# Total GULP energy -289972.320698 kJ/mol
# GULP energy per Si atom -5576.390783 kJ/mol
# Density = 1.708527 g / cm^3
# Si number density = 17.124249 Si / 1000 Ang^3
#
#
#
# Elastic Constant Matrix: (Units=GPa)
#
#
# Indices 1 2 3 4 5 6 
#
# 1 121.1855 48.6062 115.5936 0.0000 0.0000 0.0000
# 2 48.6062 39.8980 49.8717 0.0000 0.0000 0.0000
# 3 115.5936 49.8717 140.8492 0.0000 0.0000 0.0000
# 4 0.0000 0.0000 0.0000 22.7005 0.0000 0.0000
# 5 0.0000 0.0000 0.0000 0.0000 86.5551 0.0000
# 6 0.0000 0.0000 0.0000 0.0000 0.0000 30.5116
#
#
#
# Elastic Compliance Matrix: (Units=1/GPa)
#
#
# Indices 1 2 3 4 5 6 
#
# 1 0.042249 -0.014584 -0.029510 0.000000 0.000000 0.000000
# 2 -0.014584 0.050000 -0.005735 0.000000 0.000000 0.000000
# 3 -0.029510 -0.005735 0.033349 0.000000 0.000000 0.000000
# 4 0.000000 0.000000 0.000000 0.044052 0.000000 0.000000
# 5 0.000000 0.000000 0.000000 0.000000 0.011553 0.000000
# 6 0.000000 0.000000 0.000000 0.000000 0.000000 0.032774
#
#
# Mechanical properties :
#
#
# Convention : Reuss Voigt Hill
#
# Bulk Modulus (GPa) = 38.54987 81.11950 59.83468
# Shear Modulus (GPa) = 15.51440 33.81085 24.66263
#
# Velocity S-wave (km/s) = 3.01323 4.44829 3.79914
# Velocity P-wave (km/s) = 5.88785 8.59401 7.36627
#
# Compressibility (1/GPa) = 0.02594043
#
# Stress axis : x y z
#
# Youngs Moduli (GPa) = 23.66898 20.00017 29.98624
#
# Poissons Ratio (x) = 0.29169 0.88488
# Poissons Ratio (y) = 0.34519 0.17196
# Poissons Ratio (z) = 0.69846 0.11469
#
# Static dielectric constant tensor:
#      x y z
#    x 1.551590 0.000000 0.000000 
#    y 0.000000 1.576650 0.000000 
#    z 0.000000 0.000000 1.572820 
# 
# From -- ./inp_files/75482.got.cif
#   From: 2010.05.17/outbox.cif.g08.bks.cpg/sg65_38_cif.got.tgz:75482.got - 2010.06.03 17:01:31.
