data_PCOD9489056
_publ_section_title
;
Structure prediction by ZEFSAII (Michael W. Deem and Ramdas Pophale) SiO2 
 PCOD9489056
Probable space group: C M M M
;
_chemical_formula_sum "Si O2"
_cell_formula_units_Z 104
_cell_length_a 8.036663
_cell_length_b 28.140536
_cell_length_c 29.081333
_cell_angle_alpha 90.000000
_cell_angle_beta 90.000000
_cell_angle_gamma 90.000000
_cell_volume 6576.918076
_symmetry_space_group_name_H-M "C M M M"
_symmetry_group_IT_number 65
_symmetry_cell_setting 'orthorhombic'
loop_
_space_group_symop_operation_xyz
x,y,z
-x,-y,z
x,-y,-z
-x,y,-z
-x,-y,-z
x,y,-z
-x,y,z
x,-y,z
1/2+x,1/2+y,z
1/2-x,1/2-y,z
1/2+x,1/2-y,-z
1/2-x,1/2+y,-z
1/2-x,1/2-y,-z
1/2+x,1/2+y,-z
1/2-x,1/2+y,z
1/2+x,1/2-y,z
loop_
_atom_site_type_symbol
_atom_site_label
_atom_site_fract_x
_atom_site_fract_y
_atom_site_fract_z
Si Si1 0.201229 0.944288 0.214656
Si Si2 0.200870 0.350751 0.448768
Si Si3 0.000000 0.057991 0.946923
Si Si4 0.314463 0.057811 0.113487
Si Si5 0.299838 0.947378 0.598003
Si Si6 0.798408 0.898166 0.690642
Si Si7 0.802504 0.802607 0.356533
O O1 0.277695 0.928495 0.166226
O O2 0.256655 0.914993 0.259185
O O3 0.000000 0.941250 0.210599
O O4 0.241941 0.000000 0.221722
O O5 0.260486 0.339126 0.500000
O O6 0.260791 0.403229 0.432856
O O7 0.250263 0.314618 0.408721
O O8 0.000000 0.352078 0.449692
O O9 0.834589 0.073513 0.919694
O O10 0.000000 0.000000 0.946385
O O11 0.000000 0.072834 0.000000
O O12 0.500000 0.072812 0.099550
O O13 0.311160 0.000000 0.113027
O O14 0.500000 0.948214 0.593664
O O15 0.256763 0.933996 0.650452
O O16 0.236639 0.000000 0.586227
O O17 0.737677 0.846004 0.674954
O O18 0.000000 0.898201 0.691021
O O19 0.750000 0.750000 0.342924
O O20 0.000000 0.804847 0.354656
#
# Coordination Sequence:
#
# PCOD9489056 Si02
#       7
#    16  16   8  16  16  16  16
#     4   9  15  25  41  59  83 112 139 174 217 256
#     4   9  18  32  48  65  84 107 136 168 205 249
#     4   9  16  26  38  52  76 112 154 198 235 263
#     4   9  16  25  37  55  79 109 148 191 230 265
#     4   9  17  28  42  62  88 112 134 165 203 245
#     4   9  18  30  45  64  83 108 141 172 205 255
#     4  10  20  34  50  66  84 106 134 171 212 256
#
# _framework density 15.812878
#
# number of rings (size 3 to 8) (size 9 to 14) (size 15 to 20)
#    0.000    2.846    0.769    0.923    0.000    3.385 
#    0.000    4.615    0.000    0.000    0.000    4.308 
#    0.000    0.000    0.000    0.000    0.000    0.769 
#
# Total GULP energy -289753.234867 kJ/mol
# GULP energy per Si atom -5572.177594 kJ/mol
# Density = 1.577689 g / cm^3
# Si number density = 15.812878 Si / 1000 Ang^3
#
#
#
# Elastic Constant Matrix: (Units=GPa)
#
#
# Indices 1 2 3 4 5 6 
#
# 1 46.1485 8.7203 34.8315 0.0000 0.0000 0.0000
# 2 8.7203 49.5625 11.9726 0.0000 0.0000 0.0000
# 3 34.8315 11.9726 96.9055 0.0000 0.0000 0.0000
# 4 0.0000 0.0000 0.0000 8.7834 0.0000 0.0000
# 5 0.0000 0.0000 0.0000 0.0000 2.1975 0.0000
# 6 0.0000 0.0000 0.0000 0.0000 0.0000 10.0846
#
#
#
# Elastic Compliance Matrix: (Units=1/GPa)
#
#
# Indices 1 2 3 4 5 6 
#
# 1 0.030100 -0.002765 -0.010477 0.000000 0.000000 0.000000
# 2 -0.002765 0.021051 -0.001607 0.000000 0.000000 0.000000
# 3 -0.010477 -0.001607 0.014284 0.000000 0.000000 0.000000
# 4 0.000000 0.000000 0.000000 0.113851 0.000000 0.000000
# 5 0.000000 0.000000 0.000000 0.000000 0.455055 0.000000
# 6 0.000000 0.000000 0.000000 0.000000 0.000000 0.099161
#
#
# Mechanical properties :
#
#
# Convention : Reuss Voigt Hill
#
# Bulk Modulus (GPa) = 27.98290 33.74057 30.86174
# Shear Modulus (GPa) = 6.45068 13.35259 9.90164
#
# Velocity S-wave (km/s) = 2.02194 2.90903 2.50506
# Velocity P-wave (km/s) = 4.81515 5.71550 5.28454
#
# Compressibility (1/GPa) = 0.03573610
#
# Stress axis : x y z
#
# Youngs Moduli (GPa) = 33.22300 47.50317 70.00929
#
# Poissons Ratio (x) = 0.13134 0.73351
# Poissons Ratio (y) = 0.09186 0.11251
# Poissons Ratio (z) = 0.34809 0.07634
#
# Static dielectric constant tensor:
#      x y z
#    x 1.561880 0.000000 0.000000 
#    y 0.000000 1.524160 0.000000 
#    z 0.000000 0.000000 1.520690 
# 
# From -- ./inp_files/73782.got.cif
#   From: 2010.05.17/outbox.cif.g08.bks.cpg/sg65_37_cif.got.tgz:73782.got - 2010.06.03 17:01:31.
