data_PCOD9489902
_publ_section_title
;
Structure prediction by ZEFSAII (Michael W. Deem and Ramdas Pophale) SiO2 
 PCOD9489902
Probable space group: C M M M
;
_chemical_formula_sum "Si O2"
_cell_formula_units_Z 104
_cell_length_a 8.595072
_cell_length_b 28.018611
_cell_length_c 27.483802
_cell_angle_alpha 90.000000
_cell_angle_beta 90.000000
_cell_angle_gamma 90.000000
_cell_volume 6618.703585
_symmetry_space_group_name_H-M "C M M M"
_symmetry_group_IT_number 65
_symmetry_cell_setting 'orthorhombic'
loop_
_space_group_symop_operation_xyz
x,y,z
-x,-y,z
x,-y,-z
-x,y,-z
-x,-y,-z
x,y,-z
-x,y,z
x,-y,z
1/2+x,1/2+y,z
1/2-x,1/2-y,z
1/2+x,1/2-y,-z
1/2-x,1/2+y,-z
1/2-x,1/2-y,-z
1/2+x,1/2+y,-z
1/2-x,1/2+y,z
1/2+x,1/2-y,z
loop_
_atom_site_type_symbol
_atom_site_label
_atom_site_fract_x
_atom_site_fract_y
_atom_site_fract_z
Si Si1 0.814602 0.801898 0.804806
Si Si2 0.814546 0.803829 0.000000
Si Si3 0.188468 0.606828 0.753361
Si Si4 0.187349 0.350112 0.098050
Si Si5 0.812719 0.555221 0.344788
Si Si6 0.311085 0.053451 0.147983
Si Si7 0.185945 0.942904 0.552891
O O1 0.750000 0.750000 0.792060
O O2 0.760079 0.842327 0.767007
O O3 0.744689 0.817941 0.856910
O O4 0.000000 0.800879 0.808112
O O5 0.750000 0.750000 0.000000
O O6 0.754996 0.830812 0.047994
O O7 0.000000 0.802082 0.000000
O O8 0.238852 0.585562 0.701740
O O9 0.230565 0.571076 0.797673
O O10 0.000000 0.610928 0.753695
O O11 0.236733 0.404375 0.111360
O O12 0.000000 0.348455 0.096475
O O13 0.758742 0.500000 0.339975
O O14 0.758973 0.574967 0.397010
O O15 0.000000 0.554295 0.344216
O O16 0.500000 0.052135 0.146484
O O17 0.253877 0.000000 0.137992
O O18 0.240604 0.924269 0.500000
O O19 0.000000 0.936819 0.555015
O O20 0.216812 0.000000 0.552465
#
# Coordination Sequence:
#
# PCOD9489902 Si02
#       7
#    16   8  16  16  16  16  16
#     4  11  21  34  51  70  93 120 150 183 225 272
#     4  12  24  38  55  74  97 121 150 189 233 276
#     4   9  17  29  45  67  94 121 152 188 225 267
#     4  10  20  35  54  76  99 122 152 186 222 266
#     4   9  16  25  40  63  90 120 154 192 229 265
#     4   8  14  27  49  72  93 121 155 186 214 253
#     4   8  14  24  36  51  77 116 157 193 230 271
#
# _framework density 15.713047
#
# number of rings (size 3 to 8) (size 9 to 14) (size 15 to 20)
#    0.000    2.615    0.000    4.846    0.000    2.769 
#    0.000    1.923    0.000   17.538    0.000    0.000 
#    0.000    0.615    0.000    2.000    0.000    2.923 
#
# Total GULP energy -289800.870276 kJ/mol
# GULP energy per Si atom -5573.093659 kJ/mol
# Density = 1.567728 g / cm^3
# Si number density = 15.713047 Si / 1000 Ang^3
#
#
#
# Elastic Constant Matrix: (Units=GPa)
#
#
# Indices 1 2 3 4 5 6 
#
# 1 50.2421 29.2302 38.0987 0.0000 0.0000 0.0000
# 2 29.2302 112.0363 71.9650 0.0000 0.0000 0.0000
# 3 38.0987 71.9650 158.0277 0.0000 0.0000 0.0000
# 4 0.0000 0.0000 0.0000 15.8447 0.0000 0.0000
# 5 0.0000 0.0000 0.0000 0.0000 25.3423 0.0000
# 6 0.0000 0.0000 0.0000 0.0000 0.0000 18.2489
#
#
#
# Elastic Compliance Matrix: (Units=1/GPa)
#
#
# Indices 1 2 3 4 5 6 
#
# 1 0.025461 -0.003816 -0.004400 0.000000 0.000000 0.000000
# 2 -0.003816 0.013188 -0.005086 0.000000 0.000000 0.000000
# 3 -0.004400 -0.005086 0.009705 0.000000 0.000000 0.000000
# 4 0.000000 0.000000 0.000000 0.063113 0.000000 0.000000
# 5 0.000000 0.000000 0.000000 0.000000 0.039460 0.000000
# 6 0.000000 0.000000 0.000000 0.000000 0.000000 0.054798
#
#
# Mechanical properties :
#
#
# Convention : Reuss Voigt Hill
#
# Bulk Modulus (GPa) = 45.97902 66.54377 56.26139
# Shear Modulus (GPa) = 20.87003 23.95467 22.41235
#
# Velocity S-wave (km/s) = 3.64840 3.90873 3.78081
# Velocity P-wave (km/s) = 6.86097 7.92542 7.41233
#
# Compressibility (1/GPa) = 0.02174905
#
# Stress axis : x y z
#
# Youngs Moduli (GPa) = 39.27623 75.82613 103.04052
#
# Poissons Ratio (x) = 0.28936 0.45342
# Poissons Ratio (y) = 0.14988 0.52404
# Poissons Ratio (z) = 0.17283 0.38563
#
# Static dielectric constant tensor:
#      x y z
#    x 1.535030 0.000000 0.000000 
#    y 0.000000 1.517370 0.000000 
#    z 0.000000 0.000000 1.445980 
# 
# From -- ./inp_files/73796.got.cif
#   From: 2010.05.17/outbox.cif.g08.bks.cpg/sg65_37_cif.got.tgz:73796.got - 2010.06.03 17:01:31.
