data_PCOD9489298
_publ_section_title
;
Structure prediction by ZEFSAII (Michael W. Deem and Ramdas Pophale) SiO2 
 PCOD9489298
Probable space group: C M M M
;
_chemical_formula_sum "Si O2"
_cell_formula_units_Z 80
_cell_length_a 9.246812
_cell_length_b 20.159906
_cell_length_c 26.057314
_cell_angle_alpha 90.000000
_cell_angle_beta 90.000000
_cell_angle_gamma 90.000000
_cell_volume 4857.470560
_symmetry_space_group_name_H-M "C M M M"
_symmetry_group_IT_number 65
_symmetry_cell_setting 'orthorhombic'
loop_
_space_group_symop_operation_xyz
x,y,z
-x,-y,z
x,-y,-z
-x,y,-z
-x,-y,-z
x,y,-z
-x,y,z
x,-y,z
1/2+x,1/2+y,z
1/2-x,1/2-y,z
1/2+x,1/2-y,-z
1/2-x,1/2+y,-z
1/2-x,1/2-y,-z
1/2+x,1/2+y,-z
1/2-x,1/2+y,z
1/2+x,1/2-y,z
loop_
_atom_site_type_symbol
_atom_site_label
_atom_site_fract_x
_atom_site_fract_y
_atom_site_fract_z
Si Si1 0.672707 0.320073 0.634121
Si Si2 0.326851 0.680496 0.753301
Si Si3 0.171689 0.421976 0.560111
Si Si4 0.831014 0.580486 0.943375
Si Si5 0.326064 0.577118 0.840267
O O1 0.500000 0.313758 0.628266
O O2 0.750000 0.250000 0.623232
O O3 0.704091 0.336785 0.693891
O O4 0.736158 0.375620 0.596880
O O5 0.500000 0.688967 0.757576
O O6 0.250000 0.750000 0.764919
O O7 0.281959 0.623431 0.792933
O O8 0.201637 0.408390 0.500000
O O9 0.200230 0.500000 0.569130
O O10 0.000000 0.410890 0.568377
O O11 0.823252 0.500000 0.944025
O O12 0.741429 0.601708 0.893850
O O13 0.000000 0.598026 0.937842
O O14 0.780884 0.603189 0.000000
O O15 0.500000 0.578606 0.844150
O O16 0.283286 0.500000 0.832266
#
# Coordination Sequence:
#
# PCOD9489298 Si02
#       5
#    16  16  16  16  16
#     4  10  20  34  53  75  99 129 166 205 243 287
#     4   9  19  34  50  69  95 127 159 194 237 281
#     4   9  19  36  55  75 102 133 162 197 243 290
#     4   8  14  25  41  63  92 122 151 187 231 276
#     4   9  17  29  46  69  95 121 152 191 234 280
#
# _framework density 16.469477000000001
#
# number of rings (size 3 to 8) (size 9 to 14) (size 15 to 20)
#    0.000    3.000    0.000    1.800    0.000    4.000 
#    0.000    5.000    0.000    3.000    0.000    0.000 
#    0.000    0.000    0.000    0.000    0.000    0.000 
#
# Total GULP energy -222834.398012 kJ/mol
# GULP energy per Si atom -5570.859950 kJ/mol
# Density = 1.643199 g / cm^3
# Si number density = 16.469477 Si / 1000 Ang^3
#
#
#
# Elastic Constant Matrix: (Units=GPa)
#
#
# Indices 1 2 3 4 5 6 
#
# 1 43.4197 50.0279 66.9929 0.0000 0.0000 0.0000
# 2 50.0279 81.6139 93.6296 0.0000 0.0000 0.0000
# 3 66.9929 93.6296 135.9371 0.0000 0.0000 0.0000
# 4 0.0000 0.0000 0.0000 -26.9956 0.0000 0.0000
# 5 0.0000 0.0000 0.0000 0.0000 29.0251 0.0000
# 6 0.0000 0.0000 0.0000 0.0000 0.0000 25.9893
#
#
#
# Elastic Compliance Matrix: (Units=1/GPa)
#
#
# Indices 1 2 3 4 5 6 
#
# 1 0.105013 -0.023825 -0.035343 0.000000 0.000000 0.000000
# 2 -0.023825 0.063801 -0.032203 0.000000 0.000000 0.000000
# 3 -0.035343 -0.032203 0.046954 0.000000 0.000000 0.000000
# 4 0.000000 0.000000 0.000000 -0.037043 0.000000 0.000000
# 5 0.000000 0.000000 0.000000 0.000000 0.034453 0.000000
# 6 0.000000 0.000000 0.000000 0.000000 0.000000 0.038477
#
#
# Mechanical properties :
#
#
# Convention : Reuss Voigt Hill
#
# Bulk Modulus (GPa) = 30.27805 75.80794 53.04300
# Shear Modulus (GPa) = 11.22570 8.95844 10.09207
#
# Velocity S-wave (km/s) = 2.61359 2.33479 2.47811
# Velocity P-wave (km/s) = 5.24710 7.30737 6.36120
#
# Compressibility (1/GPa) = 0.03302722
#
# Stress axis : x y z
#
# Youngs Moduli (GPa) = 9.52262 15.67370 21.29727
#
# Poissons Ratio (x) = 0.37343 0.75270
# Poissons Ratio (y) = 0.22688 0.68583
# Poissons Ratio (z) = 0.33656 0.50474
#
# Static dielectric constant tensor:
#      x y z
#    x 1.547010 0.000000 0.000000 
#    y 0.000000 1.530670 0.000000 
#    z 0.000000 0.000000 1.557000 
# 
# From -- ./inp_files/72756.got.cif
#   From: 2010.05.17/outbox.cif.g08.bks.cpg/sg65_37_cif.got.tgz:72756.got - 2010.06.03 17:01:31.
