data_PCOD9489503
_publ_section_title
;
Structure prediction by ZEFSAII (Michael W. Deem and Ramdas Pophale) SiO2 
 PCOD9489503
Probable space group: C M M M
;
_chemical_formula_sum "Si O2"
_cell_formula_units_Z 80
_cell_length_a 19.700719
_cell_length_b 9.085254
_cell_length_c 26.267417
_cell_angle_alpha 90.000000
_cell_angle_beta 90.000000
_cell_angle_gamma 90.000000
_cell_volume 4701.500847
_symmetry_space_group_name_H-M "C M M M"
_symmetry_group_IT_number 65
_symmetry_cell_setting 'orthorhombic'
loop_
_space_group_symop_operation_xyz
x,y,z
-x,-y,z
x,-y,-z
-x,y,-z
-x,-y,-z
x,y,-z
-x,y,z
x,-y,z
1/2+x,1/2+y,z
1/2-x,1/2-y,z
1/2+x,1/2-y,-z
1/2-x,1/2+y,-z
1/2-x,1/2-y,-z
1/2+x,1/2+y,-z
1/2-x,1/2+y,z
1/2+x,1/2-y,z
loop_
_atom_site_type_symbol
_atom_site_label
_atom_site_fract_x
_atom_site_fract_y
_atom_site_fract_z
Si Si1 0.581051 0.174630 0.141029
Si Si2 0.677052 0.177126 0.557792
Si Si3 0.582514 0.669366 0.245760
Si Si4 0.177202 0.175242 0.059599
Si Si5 0.079687 0.323299 0.350135
O O1 0.500000 0.199144 0.135598
O O2 0.602830 0.241424 0.195500
O O3 0.621657 0.254193 0.096345
O O4 0.593083 0.000000 0.140032
O O5 0.655474 0.215856 0.500000
O O6 0.750000 0.250000 0.566943
O O7 0.623601 0.220755 0.600983
O O8 0.683956 0.000000 0.559793
O O9 0.500000 0.671092 0.246291
O O10 0.604645 0.500000 0.242844
O O11 0.603772 0.744867 0.298490
O O12 0.250000 0.250000 0.069577
O O13 0.181633 0.000000 0.067578
O O14 0.160724 0.201204 0.000000
O O15 0.084823 0.500000 0.343599
O O16 0.000000 0.288916 0.357937
#
# Coordination Sequence:
#
# PCOD9489503 Si02
#       5
#    16  16  16  16  16
#     4  10  20  34  54  79 106 136 171 211 253 299
#     4   9  18  32  49  69  95 128 162 197 241 291
#     4   9  17  30  49  73 101 131 163 202 250 300
#     4  10  21  37  56  77 104 138 173 210 254 303
#     4   9  17  30  49  72  97 125 160 202 245 291
#
# _framework density 17.015843
#
# number of rings (size 3 to 8) (size 9 to 14) (size 15 to 20)
#    0.000    2.600    0.000    1.800    0.000    6.400 
#    0.000    5.000    0.000    2.400    0.000    5.600 
#    0.000    0.000    0.000    0.000    0.000    0.000 
#
# Total GULP energy -223059.100672 kJ/mol
# GULP energy per Si atom -5576.477517 kJ/mol
# Density = 1.697711 g / cm^3
# Si number density = 17.015843 Si / 1000 Ang^3
#
#
#
# Elastic Constant Matrix: (Units=GPa)
#
#
# Indices 1 2 3 4 5 6 
#
# 1 59.0857 54.6744 84.6269 0.0000 0.0000 0.0000
# 2 54.6744 82.8859 88.8320 0.0000 0.0000 0.0000
# 3 84.6269 88.8320 165.7734 0.0000 0.0000 0.0000
# 4 0.0000 0.0000 0.0000 30.8199 0.0000 0.0000
# 5 0.0000 0.0000 0.0000 0.0000 -31.8174 0.0000
# 6 0.0000 0.0000 0.0000 0.0000 0.0000 26.2827
#
#
#
# Elastic Compliance Matrix: (Units=1/GPa)
#
#
# Indices 1 2 3 4 5 6 
#
# 1 0.074521 -0.019697 -0.027488 0.000000 0.000000 0.000000
# 2 -0.019697 0.033547 -0.007922 0.000000 0.000000 0.000000
# 3 -0.027488 -0.007922 0.024310 0.000000 0.000000 0.000000
# 4 0.000000 0.000000 0.000000 0.032447 0.000000 0.000000
# 5 0.000000 0.000000 0.000000 0.000000 -0.031429 0.000000
# 6 0.000000 0.000000 0.000000 0.000000 0.000000 0.038048
#
#
# Mechanical properties :
#
#
# Convention : Reuss Voigt Hill
#
# Bulk Modulus (GPa) = 45.11528 84.89018 65.00273
# Shear Modulus (GPa) = 17.29829 10.36448 13.83138
#
# Velocity S-wave (km/s) = 3.19187 2.47069 2.85415
# Velocity P-wave (km/s) = 6.33682 7.62471 7.01041
#
# Compressibility (1/GPa) = 0.02216544
#
# Stress axis : x y z
#
# Youngs Moduli (GPa) = 13.41896 29.80851 41.13535
#
# Poissons Ratio (x) = 0.58713 1.13074
# Poissons Ratio (y) = 0.26431 0.32586
# Poissons Ratio (z) = 0.36886 0.23613
#
# Static dielectric constant tensor:
#      x y z
#    x 1.549110 0.000000 0.000000 
#    y 0.000000 1.569320 0.000000 
#    z 0.000000 0.000000 1.565540 
# 
# From -- ./inp_files/72718.got.cif
#   From: 2010.05.17/outbox.cif.g08.bks.cpg/sg65_37_cif.got.tgz:72718.got - 2010.06.03 17:01:31.
