data_PCOD9489341
_publ_section_title
;
Structure prediction by ZEFSAII (Michael W. Deem and Ramdas Pophale) SiO2 
 PCOD9489341
Probable space group: C M M M
;
_chemical_formula_sum "Si O2"
_cell_formula_units_Z 88
_cell_length_a 9.304394
_cell_length_b 15.350170
_cell_length_c 29.628035
_cell_angle_alpha 90.000000
_cell_angle_beta 90.000000
_cell_angle_gamma 90.000000
_cell_volume 4231.595349
_symmetry_space_group_name_H-M "C M M M"
_symmetry_group_IT_number 65
_symmetry_cell_setting 'orthorhombic'
loop_
_space_group_symop_operation_xyz
x,y,z
-x,-y,z
x,-y,-z
-x,y,-z
-x,-y,-z
x,y,-z
-x,y,z
x,-y,z
1/2+x,1/2+y,z
1/2-x,1/2-y,z
1/2+x,1/2-y,-z
1/2-x,1/2+y,-z
1/2-x,1/2-y,-z
1/2+x,1/2+y,-z
1/2-x,1/2+y,z
1/2+x,1/2-y,z
loop_
_atom_site_type_symbol
_atom_site_label
_atom_site_fract_x
_atom_site_fract_y
_atom_site_fract_z
Si Si1 0.326158 0.342444 0.763531
Si Si2 0.834553 0.393548 0.500000
Si Si3 0.337949 0.604603 0.864114
Si Si4 0.832975 0.606356 0.049176
Si Si5 0.161683 0.601929 0.323239
Si Si6 0.334383 0.606943 0.410005
O O1 0.500000 0.341256 0.760108
O O2 0.250000 0.250000 0.759818
O O3 0.286824 0.376455 0.813491
O O4 0.255752 0.392951 0.721993
O O5 0.836763 0.500000 0.500000
O O6 0.749835 0.366692 0.455092
O O7 0.000000 0.364285 0.500000
O O8 0.500000 0.638939 0.867863
O O9 0.342662 0.500000 0.868138
O O10 0.246367 0.638073 0.906146
O O11 0.827752 0.500000 0.049695
O O12 0.000000 0.630608 0.051130
O O13 0.773463 0.633444 0.000000
O O14 0.144523 0.500000 0.333289
O O15 0.249554 0.638509 0.365688
O O16 0.000000 0.639293 0.317676
O O17 0.500000 0.635522 0.410050
O O18 0.336745 0.500000 0.409487
#
# Coordination Sequence:
#
# PCOD9489341 Si02
#       6
#    16   8  16  16  16  16
#     4  11  23  38  54  73 100 133 170 212 258 307
#     4   9  15  23  37  61  96 133 166 203 248 297
#     4   9  18  32  51  75 101 130 164 203 248 297
#     4   8  14  25  43  70 102 131 159 195 240 289
#     4  10  20  34  53  77 103 132 169 211 255 304
#     4   9  16  26  42  66  97 132 167 204 249 299
#
# _framework density 20.795939000000001
#
# number of rings (size 3 to 8) (size 9 to 14) (size 15 to 20)
#    0.000    2.636    0.000    3.000    0.000    6.909 
#    0.000    3.636    0.000    0.545    0.000    0.636 
#    0.000    0.000    0.000    0.000    0.000    0.000 
#
# Total GULP energy -245429.980750 kJ/mol
# GULP energy per Si atom -5577.954108 kJ/mol
# Density = 2.074861 g / cm^3
# Si number density = 20.795939 Si / 1000 Ang^3
#
#
#
# Elastic Constant Matrix: (Units=GPa)
#
#
# Indices 1 2 3 4 5 6 
#
# 1 144.7568 10.1043 108.9513 0.0000 0.0000 0.0000
# 2 10.1043 17.8978 4.6007 0.0000 0.0000 0.0000
# 3 108.9513 4.6007 209.0454 0.0000 0.0000 0.0000
# 4 0.0000 0.0000 0.0000 -42.6452 0.0000 0.0000
# 5 0.0000 0.0000 0.0000 0.0000 30.4648 0.0000
# 6 0.0000 0.0000 0.0000 0.0000 0.0000 10.2041
#
#
#
# Elastic Compliance Matrix: (Units=1/GPa)
#
#
# Indices 1 2 3 4 5 6 
#
# 1 0.011815 -0.005116 -0.006045 0.000000 0.000000 0.000000
# 2 -0.005116 0.058406 0.001381 0.000000 0.000000 0.000000
# 3 -0.006045 0.001381 0.007904 0.000000 0.000000 0.000000
# 4 0.000000 0.000000 0.000000 -0.023449 0.000000 0.000000
# 5 0.000000 0.000000 0.000000 0.000000 0.032825 0.000000
# 6 0.000000 0.000000 0.000000 0.000000 0.000000 0.097999
#
#
# Mechanical properties :
#
#
# Convention : Reuss Voigt Hill
#
# Bulk Modulus (GPa) = 17.07523 68.77918 42.92721
# Shear Modulus (GPa) = 22.26347 16.14100 19.20224
#
# Velocity S-wave (km/s) = 3.27550 2.78899 3.04199
# Velocity P-wave (km/s) = 4.74699 6.59670 5.74675
#
# Compressibility (1/GPa) = 0.05856435
#
# Stress axis : x y z
#
# Youngs Moduli (GPa) = 84.63587 17.12146 126.51820
#
# Poissons Ratio (x) = 0.08760 0.76485
# Poissons Ratio (y) = 0.43303 -0.17475
# Poissons Ratio (z) = 0.51165 -0.02365
#
# Static dielectric constant tensor:
#      x y z
#    x 1.732670 0.000000 0.000000 
#    y 0.000000 1.822470 0.000000 
#    z 0.000000 0.000000 1.781290 
# 
# From -- ./inp_files/76540.got.cif
#   From: 2010.05.17/outbox.cif.g08.bks.cpg/sg65_39_cif.got.tgz:76540.got - 2010.06.03 17:01:31.
