data_PCOD9489799
_publ_section_title
;
Structure prediction by ZEFSAII (Michael W. Deem and Ramdas Pophale) SiO2 
 PCOD9489799
Probable space group: C M M M
;
_chemical_formula_sum "Si O2"
_cell_formula_units_Z 104
_cell_length_a 26.407169
_cell_length_b 7.572499
_cell_length_c 25.066631
_cell_angle_alpha 90.000000
_cell_angle_beta 90.000000
_cell_angle_gamma 90.000000
_cell_volume 5012.530606
_symmetry_space_group_name_H-M "C M M M"
_symmetry_group_IT_number 65
_symmetry_cell_setting 'orthorhombic'
loop_
_space_group_symop_operation_xyz
x,y,z
-x,-y,z
x,-y,-z
-x,y,-z
-x,-y,-z
x,y,-z
-x,y,z
x,-y,z
1/2+x,1/2+y,z
1/2-x,1/2-y,z
1/2+x,1/2-y,-z
1/2-x,1/2+y,-z
1/2-x,1/2-y,-z
1/2+x,1/2+y,-z
1/2-x,1/2+y,z
1/2+x,1/2-y,z
loop_
_atom_site_type_symbol
_atom_site_label
_atom_site_fract_x
_atom_site_fract_y
_atom_site_fract_z
Si Si1 0.885443 0.283503 0.404466
Si Si2 0.500000 0.214278 0.562811
Si Si3 0.892790 0.204090 0.891044
Si Si4 0.941064 0.782688 0.000000
Si Si5 0.194366 0.208572 0.185759
Si Si6 0.689130 0.788028 0.500000
Si Si7 0.554455 0.213179 0.789287
Si Si8 0.641246 0.208617 0.712610
O O1 0.886424 0.500000 0.406374
O O2 0.844667 0.227111 0.449286
O O3 0.863570 0.223293 0.347180
O O4 0.944659 0.228941 0.413765
O O5 0.500000 0.259738 0.500000
O O6 0.500000 0.000000 0.567123
O O7 0.846862 0.284236 0.855940
O O8 0.937931 0.213452 0.848271
O O9 0.879371 0.000000 0.901608
O O10 0.911738 0.278445 0.946931
O O11 0.000000 0.728826 0.000000
O O12 0.941496 0.000000 0.000000
O O13 0.250000 0.250000 0.166234
O O14 0.188028 0.271526 0.246965
O O15 0.186601 0.000000 0.187661
O O16 0.750000 0.750000 0.500000
O O17 0.686677 0.000000 0.500000
O O18 0.500000 0.257005 0.767232
O O19 0.596639 0.282931 0.749593
O O20 0.558656 0.000000 0.793083
O O21 0.632722 0.000000 0.707151
#
# Coordination Sequence:
#
# PCOD9489799 Si02
#       8
#    16   8  16   8  16   8  16  16
#     4   9  17  29  48  75 104 130 165 208 254 301
#     4   9  14  24  46  76 106 134 162 207 256 299
#     4   9  18  32  50  72  96 126 165 204 239 283
#     4   9  16  28  50  77 101 127 161 199 236 281
#     4  10  20  35  54  73  96 129 167 207 252 296
#     4  10  20  35  51  71  97 128 165 208 254 300
#     4   9  17  28  43  67 100 132 159 192 237 285
#     4   9  18  31  48  73 102 129 160 200 242 293
#
# _framework density 20.748002
#
# number of rings (size 3 to 8) (size 9 to 14) (size 15 to 20)
#    0.000    2.769    0.769    0.923    1.077    2.154 
#    0.000    3.077    0.000    1.385    0.000    2.154 
#    0.000    0.000    0.000    0.000    0.000    0.000 
#
# Total GULP energy -289560.663703 kJ/mol
# GULP energy per Si atom -5568.474302 kJ/mol
# Density = 2.070078 g / cm^3
# Si number density = 20.748002 Si / 1000 Ang^3
#
#
#
# Elastic Constant Matrix: (Units=GPa)
#
#
# Indices 1 2 3 4 5 6 
#
# 1 138.8915 2.0844 64.6874 0.0000 0.0000 0.0000
# 2 2.0844 44.7745 11.1475 0.0000 0.0000 0.0000
# 3 64.6874 11.1475 182.0385 0.0000 0.0000 0.0000
# 4 0.0000 0.0000 0.0000 7.8565 0.0000 0.0000
# 5 0.0000 0.0000 0.0000 0.0000 11.7532 0.0000
# 6 0.0000 0.0000 0.0000 0.0000 0.0000 -10.0784
#
#
#
# Elastic Compliance Matrix: (Units=1/GPa)
#
#
# Indices 1 2 3 4 5 6 
#
# 1 0.008634 0.000368 -0.003090 0.000000 0.000000 0.000000
# 2 0.000368 0.022696 -0.001520 0.000000 0.000000 0.000000
# 3 -0.003090 -0.001520 0.006685 0.000000 0.000000 0.000000
# 4 0.000000 0.000000 0.000000 0.127284 0.000000 0.000000
# 5 0.000000 0.000000 0.000000 0.000000 0.085083 0.000000
# 6 0.000000 0.000000 0.000000 0.000000 0.000000 -0.099223
#
#
# Mechanical properties :
#
#
# Convention : Reuss Voigt Hill
#
# Bulk Modulus (GPa) = 33.86715 57.94924 45.90820
# Shear Modulus (GPa) = 29.50069 21.09194 25.29631
#
# Velocity S-wave (km/s) = 3.77484 3.19184 3.49552
# Velocity P-wave (km/s) = 5.94624 6.44783 6.20211
#
# Compressibility (1/GPa) = 0.02952714
#
# Stress axis : x y z
#
# Youngs Moduli (GPa) = 115.82492 44.06151 149.59635
#
# Poissons Ratio (x) = -0.01619 0.46233
# Poissons Ratio (y) = -0.04257 0.22745
# Poissons Ratio (z) = 0.35796 0.06699
#
# Static dielectric constant tensor:
#      x y z
#    x 1.745760 0.000000 0.000000 
#    y 0.000000 1.796730 0.000000 
#    z 0.000000 0.000000 1.752270 
# 
# From -- ./inp_files/71931.got.cif
#   From: 2010.05.17/outbox.cif.g08.bks.cpg/sg65_36_cif.got.tgz:71931.got - 2010.06.03 17:01:31.
