data_PCOD9489694
_publ_section_title
;
Structure prediction by ZEFSAII (Michael W. Deem and Ramdas Pophale) SiO2 
 PCOD9489694
Probable space group: C M M M
;
_chemical_formula_sum "Si O2"
_cell_formula_units_Z 88
_cell_length_a 7.964335
_cell_length_b 19.461481
_cell_length_c 31.405950
_cell_angle_alpha 90.000000
_cell_angle_beta 90.000000
_cell_angle_gamma 90.000000
_cell_volume 4867.851721
_symmetry_space_group_name_H-M "C M M M"
_symmetry_group_IT_number 65
_symmetry_cell_setting 'orthorhombic'
loop_
_space_group_symop_operation_xyz
x,y,z
-x,-y,z
x,-y,-z
-x,y,-z
-x,-y,-z
x,y,-z
-x,y,z
x,-y,z
1/2+x,1/2+y,z
1/2-x,1/2-y,z
1/2+x,1/2-y,-z
1/2-x,1/2+y,-z
1/2-x,1/2-y,-z
1/2+x,1/2+y,-z
1/2-x,1/2+y,z
1/2+x,1/2-y,z
loop_
_atom_site_type_symbol
_atom_site_label
_atom_site_fract_x
_atom_site_fract_y
_atom_site_fract_z
Si Si1 0.800474 0.583323 0.454214
Si Si2 0.000000 0.916511 0.951384
Si Si3 0.690244 0.082024 0.108135
Si Si4 0.298085 0.921728 0.637727
Si Si5 0.300236 0.671305 0.283400
Si Si6 0.702130 0.670321 0.812137
O O1 0.728699 0.606562 0.500000
O O2 0.787150 0.500000 0.453325
O O3 0.733455 0.606163 0.408123
O O4 0.000000 0.599007 0.455256
O O5 0.833491 0.896277 0.925328
O O6 0.000000 0.000000 0.952726
O O7 0.000000 0.891810 0.000000
O O8 0.500000 0.094055 0.092744
O O9 0.719527 0.122542 0.151874
O O10 0.709289 0.000000 0.115328
O O11 0.500000 0.924973 0.633815
O O12 0.258673 0.876178 0.678324
O O13 0.236438 0.000000 0.643606
O O14 0.500000 0.667754 0.281878
O O15 0.250000 0.750000 0.291148
O O16 0.239012 0.652065 0.235859
O O17 0.500000 0.663866 0.814223
O O18 0.750000 0.750000 0.819137
#
# Coordination Sequence:
#
# PCOD9489694 Si02
#       6
#    16   8  16  16  16  16
#     4   7  10  19  38  64  91 119 154 195 240 294
#     4   9  18  34  56  82 114 148 181 221 264 310
#     4  10  20  34  55  84 113 143 181 222 264 310
#     4   9  17  29  47  72 100 128 159 201 252 301
#     4  10  21  35  51  70  97 132 170 209 250 304
#     4  10  20  35  54  76 101 135 176 217 263 314
#
# _framework density 18.077788999999999
#
# number of rings (size 3 to 8) (size 9 to 14) (size 15 to 20)
#    0.000    2.818    0.909    2.727    0.000    3.636 
#    0.000    5.455    0.000    1.636    0.000    2.545 
#    0.000    0.000    0.000    0.000    0.000    0.000 
#
# Total GULP energy -245079.284341 kJ/mol
# GULP energy per Si atom -5569.983735 kJ/mol
# Density = 1.803664 g / cm^3
# Si number density = 18.077789 Si / 1000 Ang^3
#
#
#
# Elastic Constant Matrix: (Units=GPa)
#
#
# Indices 1 2 3 4 5 6 
#
# 1 69.5822 22.8497 54.9527 0.0000 0.0000 0.0000
# 2 22.8497 33.9064 65.8756 0.0000 0.0000 0.0000
# 3 54.9527 65.8756 194.4472 0.0000 0.0000 0.0000
# 4 0.0000 0.0000 0.0000 -19.9669 0.0000 0.0000
# 5 0.0000 0.0000 0.0000 0.0000 6.6643 0.0000
# 6 0.0000 0.0000 0.0000 0.0000 0.0000 16.8832
#
#
#
# Elastic Compliance Matrix: (Units=1/GPa)
#
#
# Indices 1 2 3 4 5 6 
#
# 1 0.019045 -0.006956 -0.003026 0.000000 0.000000 0.000000
# 2 -0.006956 0.088831 -0.028129 0.000000 0.000000 0.000000
# 3 -0.003026 -0.028129 0.015527 0.000000 0.000000 0.000000
# 4 0.000000 0.000000 0.000000 -0.050083 0.000000 0.000000
# 5 0.000000 0.000000 0.000000 0.000000 0.150054 0.000000
# 6 0.000000 0.000000 0.000000 0.000000 0.000000 0.059230
#
#
# Mechanical properties :
#
#
# Convention : Reuss Voigt Hill
#
# Bulk Modulus (GPa) = 21.19417 65.03244 43.11330
# Shear Modulus (GPa) = 13.34921 10.99997 12.17459
#
# Velocity S-wave (km/s) = 2.72036 2.46941 2.59792
# Velocity P-wave (km/s) = 4.64935 6.64699 5.73580
#
# Compressibility (1/GPa) = 0.04718280
#
# Stress axis : x y z
#
# Youngs Moduli (GPa) = 52.50615 11.25731 64.40196
#
# Poissons Ratio (x) = 0.07831 0.19487
# Poissons Ratio (y) = 0.36524 1.81155
# Poissons Ratio (z) = 0.15887 0.31665
#
# Static dielectric constant tensor:
#      x y z
#    x 1.652640 0.000000 0.000000 
#    y 0.000000 1.575610 0.000000 
#    z 0.000000 0.000000 1.656250 
# 
# From -- ./inp_files/76480.got.cif
#   From: 2010.05.17/outbox.cif.g08.bks.cpg/sg65_39_cif.got.tgz:76480.got - 2010.06.03 17:01:31.
