data_PCOD9489638
_publ_section_title
;
Structure prediction by ZEFSAII (Michael W. Deem and Ramdas Pophale) SiO2 
 PCOD9489638
Probable space group: C M M M
;
_chemical_formula_sum "Si O2"
_cell_formula_units_Z 96
_cell_length_a 13.463521
_cell_length_b 23.234556
_cell_length_c 14.351874
_cell_angle_alpha 90.000000
_cell_angle_beta 90.000000
_cell_angle_gamma 90.000000
_cell_volume 4489.537906
_symmetry_space_group_name_H-M "C M M M"
_symmetry_group_IT_number 65
_symmetry_cell_setting 'orthorhombic'
loop_
_space_group_symop_operation_xyz
x,y,z
-x,-y,z
x,-y,-z
-x,y,-z
-x,-y,-z
x,y,-z
-x,y,z
x,-y,z
1/2+x,1/2+y,z
1/2-x,1/2-y,z
1/2+x,1/2-y,-z
1/2-x,1/2+y,-z
1/2-x,1/2-y,-z
1/2+x,1/2+y,-z
1/2-x,1/2+y,z
1/2+x,1/2-y,z
loop_
_atom_site_type_symbol
_atom_site_label
_atom_site_fract_x
_atom_site_fract_y
_atom_site_fract_z
Si Si1 0.379432 0.216261 0.696041
Si Si2 0.618141 0.903017 0.393642
Si Si3 0.884022 0.132649 0.107855
Si Si4 0.119192 0.834991 0.605924
Si Si5 0.792793 0.065448 0.272893
Si Si6 0.118622 0.729346 0.101621
O O1 0.500000 0.219634 0.701044
O O2 0.359661 0.164673 0.624911
O O3 0.345829 0.279046 0.662910
O O4 0.344801 0.202890 0.801390
O O5 0.644959 0.919101 0.500000
O O6 0.500000 0.911691 0.383576
O O7 0.681133 0.933778 0.313674
O O8 0.813408 0.096564 0.174936
O O9 0.868148 0.201683 0.111243
O O10 0.000000 0.123736 0.136573
O O11 0.874324 0.115536 0.000000
O O12 0.153780 0.831223 0.500000
O O13 0.150842 0.893931 0.653521
O O14 0.000000 0.832596 0.605439
O O15 0.828584 0.000000 0.269698
O O16 0.000000 0.719654 0.098070
O O17 0.158310 0.710514 0.000000
#
# Coordination Sequence:
#
# PCOD9489638 Si02
#       6
#    16  16  16  16  16  16
#     4   9  16  32  58  85 115 149 188 238 298 359
#     4  10  23  43  64  84 108 149 209 266 308 349
#     4   9  18  36  62  91 125 163 197 229 276 349
#     4  10  20  34  54  83 119 154 184 224 291 371
#     4  12  25  39  57  83 117 154 198 252 300 343
#     4   8  13  25  51  85 119 153 184 218 271 344
#
# _framework density 21.383046
#
# number of rings (size 3 to 8) (size 9 to 14) (size 15 to 20)
#    0.000    2.333    1.667    2.500    0.000    6.000 
#    0.000    5.000    0.000    3.500    0.000    1.167 
#    0.000    0.000    0.000    0.000    0.000    0.000 
#
# Total GULP energy -268233.864477 kJ/mol
# GULP energy per Si atom -5588.205510 kJ/mol
# Density = 2.133438 g / cm^3
# Si number density = 21.383046 Si / 1000 Ang^3
#
#
#
# Elastic Constant Matrix: (Units=GPa)
#
#
# Indices 1 2 3 4 5 6 
#
# 1 79.8701 -0.1642 24.8458 0.0000 0.0000 0.0000
# 2 -0.1642 69.0315 17.1672 0.0000 0.0000 0.0000
# 3 24.8458 17.1672 133.2172 0.0000 0.0000 0.0000
# 4 0.0000 0.0000 0.0000 -0.3741 0.0000 0.0000
# 5 0.0000 0.0000 0.0000 0.0000 32.0285 0.0000
# 6 0.0000 0.0000 0.0000 0.0000 0.0000 14.5388
#
#
#
# Elastic Compliance Matrix: (Units=1/GPa)
#
#
# Indices 1 2 3 4 5 6 
#
# 1 0.013321 0.000671 -0.002571 0.000000 0.000000 0.000000
# 2 0.000671 0.015000 -0.002058 0.000000 0.000000 0.000000
# 3 -0.002571 -0.002058 0.008251 0.000000 0.000000 0.000000
# 4 0.000000 0.000000 0.000000 -2.673246 0.000000 0.000000
# 5 0.000000 0.000000 0.000000 0.000000 0.031222 0.000000
# 6 0.000000 0.000000 0.000000 0.000000 0.000000 0.068781
#
#
# Mechanical properties :
#
#
# Convention : Reuss Voigt Hill
#
# Bulk Modulus (GPa) = 34.89643 40.64625 37.77134
# Shear Modulus (GPa) = -1.98476 25.25666 11.63595
#
# Velocity S-wave (km/s) = -0.96447 3.44052 2.33527
# Velocity P-wave (km/s) = 3.88778 5.90193 4.99738
#
# Compressibility (1/GPa) = 0.02865622
#
# Stress axis : x y z
#
# Youngs Moduli (GPa) = 75.06668 66.66866 121.19352
#
# Poissons Ratio (x) = -0.04474 0.31159
# Poissons Ratio (y) = -0.05037 0.24943
# Poissons Ratio (z) = 0.19300 0.13721
#
# Static dielectric constant tensor:
#      x y z
#    x 1.874590 0.000000 0.000000 
#    y 0.000000 1.725080 0.000000 
#    z 0.000000 0.000000 1.775240 
# 
# From -- ./inp_files/40398.got.cif
#   From: 2010.05.17/outbox.cif.g08.bks.cpg/sg65_21_cif.got.tgz:40398.got - 2010.06.03 17:01:31.
