data_PCOD9489504
_publ_section_title
;
Structure prediction by ZEFSAII (Michael W. Deem and Ramdas Pophale) SiO2 
 PCOD9489504
Probable space group: C M M M
;
_chemical_formula_sum "Si O2"
_cell_formula_units_Z 96
_cell_length_a 19.267685
_cell_length_b 8.446141
_cell_length_c 31.774158
_cell_angle_alpha 90.000000
_cell_angle_beta 90.000000
_cell_angle_gamma 90.000000
_cell_volume 5170.849715
_symmetry_space_group_name_H-M "C M M M"
_symmetry_group_IT_number 65
_symmetry_cell_setting 'orthorhombic'
loop_
_space_group_symop_operation_xyz
x,y,z
-x,-y,z
x,-y,-z
-x,y,-z
-x,-y,-z
x,y,-z
-x,y,z
x,-y,z
1/2+x,1/2+y,z
1/2-x,1/2-y,z
1/2+x,1/2-y,-z
1/2-x,1/2+y,-z
1/2-x,1/2-y,-z
1/2+x,1/2+y,-z
1/2-x,1/2+y,z
1/2+x,1/2-y,z
loop_
_atom_site_type_symbol
_atom_site_label
_atom_site_fract_x
_atom_site_fract_y
_atom_site_fract_z
Si Si1 0.328115 0.191314 0.782507
Si Si2 0.080080 0.308188 0.703837
Si Si3 0.672419 0.810919 0.877276
Si Si4 0.919377 0.190787 0.953499
Si Si5 0.920512 0.807164 0.452179
Si Si6 0.671432 0.309908 0.374132
O O1 0.250000 0.250000 0.773564
O O2 0.381800 0.243706 0.746823
O O3 0.347509 0.243294 0.829936
O O4 0.326736 0.000000 0.782098
O O5 0.080347 0.500000 0.703170
O O6 0.125065 0.247846 0.664786
O O7 0.000000 0.255495 0.701650
O O8 0.750000 0.750000 0.884909
O O9 0.623389 0.753313 0.914365
O O10 0.672794 0.000000 0.877041
O O11 0.000000 0.237678 0.949905
O O12 0.916723 0.000000 0.952960
O O13 0.894110 0.242987 0.000000
O O14 0.904456 0.756452 0.500000
O O15 0.866333 0.753889 0.417062
O O16 0.000000 0.759148 0.442198
O O17 0.920047 0.000000 0.452109
O O18 0.672305 0.500000 0.374142
O O19 0.750000 0.250000 0.371020
#
# Coordination Sequence:
#
# PCOD9489504 Si02
#       6
#    16  16  16  16  16  16
#     4   9  19  35  54  76 103 136 171 209 255 306
#     4  10  21  37  56  78 106 138 171 211 261 313
#     4  10  20  34  54  79 106 136 172 213 255 303
#     4   9  19  36  55  75 103 138 173 212 260 310
#     4   8  15  30  52  76 102 134 172 214 260 308
#     4  11  22  35  53  78 107 139 177 218 259 306
#
# _framework density 18.565614
#
# number of rings (size 3 to 8) (size 9 to 14) (size 15 to 20)
#    0.000    2.500    0.000    3.000    0.000    5.667 
#    0.000    2.500    0.000    1.500    0.000    5.833 
#    0.000    0.000    0.000    0.000    0.000    0.000 
#
# Total GULP energy -267813.152601 kJ/mol
# GULP energy per Si atom -5579.440679 kJ/mol
# Density = 1.852336 g / cm^3
# Si number density = 18.565614 Si / 1000 Ang^3
#
#
#
# Elastic Constant Matrix: (Units=GPa)
#
#
# Indices 1 2 3 4 5 6 
#
# 1 155.5326 26.2062 135.7619 0.0000 0.0000 0.0000
# 2 26.2062 14.3026 30.0343 0.0000 0.0000 0.0000
# 3 135.7619 30.0343 184.9104 0.0000 0.0000 0.0000
# 4 0.0000 0.0000 0.0000 4.0933 0.0000 0.0000
# 5 0.0000 0.0000 0.0000 0.0000 53.1720 0.0000
# 6 0.0000 0.0000 0.0000 0.0000 0.0000 17.4750
#
#
#
# Elastic Compliance Matrix: (Units=1/GPa)
#
#
# Indices 1 2 3 4 5 6 
#
# 1 0.018510 -0.008161 -0.012265 0.000000 0.000000 0.000000
# 2 -0.008161 0.109707 -0.011828 0.000000 0.000000 0.000000
# 3 -0.012265 -0.011828 0.016334 0.000000 0.000000 0.000000
# 4 0.000000 0.000000 0.000000 0.244301 0.000000 0.000000
# 5 0.000000 0.000000 0.000000 0.000000 0.018807 0.000000
# 6 0.000000 0.000000 0.000000 0.000000 0.000000 0.057225
#
#
# Mechanical properties :
#
#
# Convention : Reuss Voigt Hill
#
# Bulk Modulus (GPa) = 12.49303 82.08337 47.28820
# Shear Modulus (GPa) = 8.99165 25.79762 17.39463
#
# Velocity S-wave (km/s) = 2.20311 3.73169 3.06425
# Velocity P-wave (km/s) = 3.63529 7.92944 6.16811
#
# Compressibility (1/GPa) = 0.08004465
#
# Stress axis : x y z
#
# Youngs Moduli (GPa) = 54.02397 9.11523 61.22201
#
# Poissons Ratio (x) = 0.07439 0.75088
# Poissons Ratio (y) = 0.44087 0.72411
# Poissons Ratio (z) = 0.66259 0.10781
#
# Static dielectric constant tensor:
#      x y z
#    x 1.604860 0.000000 0.000000 
#    y 0.000000 1.639090 0.000000 
#    z 0.000000 0.000000 1.650040 
# 
# From -- ./inp_files/73170.got.cif
#   From: 2010.05.17/outbox.cif.g08.bks.cpg/sg65_37_cif.got.tgz:73170.got - 2010.06.03 17:01:31.
