data_PCOD9489029
_publ_section_title
;
Structure prediction by ZEFSAII (Michael W. Deem and Ramdas Pophale) SiO2 
 PCOD9489029
Probable space group: C M M M
;
_chemical_formula_sum "Si O2"
_cell_formula_units_Z 84
_cell_length_a 11.977007
_cell_length_b 15.920111
_cell_length_c 23.120633
_cell_angle_alpha 90.000000
_cell_angle_beta 90.000000
_cell_angle_gamma 90.000000
_cell_volume 4408.533192
_symmetry_space_group_name_H-M "C M M M"
_symmetry_group_IT_number 65
_symmetry_cell_setting 'orthorhombic'
loop_
_space_group_symop_operation_xyz
x,y,z
-x,-y,z
x,-y,-z
-x,y,-z
-x,-y,-z
x,y,-z
-x,y,z
x,-y,z
1/2+x,1/2+y,z
1/2-x,1/2-y,z
1/2+x,1/2-y,-z
1/2-x,1/2+y,-z
1/2-x,1/2-y,-z
1/2+x,1/2+y,-z
1/2-x,1/2+y,z
1/2+x,1/2-y,z
loop_
_atom_site_type_symbol
_atom_site_label
_atom_site_fract_x
_atom_site_fract_y
_atom_site_fract_z
Si Si1 0.000000 0.859320 0.694720
Si Si2 0.000000 0.000000 0.596660
Si Si3 0.132654 0.400203 0.758533
Si Si4 0.242029 0.844892 0.128714
Si Si5 0.000000 0.099262 0.831105
Si Si6 0.257870 0.660589 0.647324
Si Si7 0.630879 0.000000 0.930819
Si Si8 0.258545 0.500000 0.564355
O O1 0.000000 0.885655 0.761729
O O2 0.124140 0.825552 0.681715
O O3 0.000000 0.925672 0.642507
O O4 0.108613 0.000000 0.559353
O O5 0.163687 0.500000 0.760901
O O6 0.194680 0.351914 0.809761
O O7 0.171340 0.362046 0.697969
O O8 0.000000 0.393591 0.765306
O O9 0.250000 0.750000 0.105485
O O10 0.303334 0.917479 0.091600
O O11 0.112570 0.864910 0.140848
O O12 0.000000 0.000000 0.840035
O O13 0.250000 0.750000 0.615958
O O14 0.240966 0.583739 0.602772
O O15 0.500000 0.000000 0.910314
O O16 0.629459 0.000000 0.000000
O O17 0.207244 0.500000 0.500000
#
# Coordination Sequence:
#
# PCOD9489029 Si02
#       8
#     8   4  16  16   8  16   8   8
#     4  10  20  33  56  89 123 156 194 232 306 380
#     4   8  17  32  58  82 108 148 187 254 290 352
#     4  11  22  38  62  93 131 168 204 251 304 383
#     4  12  26  41  67 103 137 169 215 263 324 383
#     4  12  22  38  63  99 139 172 198 262 329 387
#     4  11  23  37  58  88 119 155 199 249 312 372
#     4  11  26  51  75  91 126 182 231 268 312 376
#     4  10  21  39  59  80 110 151 204 256 305 363
#
# _framework density 19.053957
#
# number of rings (size 3 to 8) (size 9 to 14) (size 15 to 20)
#    0.000    1.048    5.238    1.286    4.000    0.762 
#    0.000    0.952    0.000    1.143    0.000    0.000 
#    0.000    0.000    0.000    0.000    0.000    0.000 
#
# Total GULP energy -233978.011976 kJ/mol
# GULP energy per Si atom -5570.905047 kJ/mol
# Density = 1.901059 g / cm^3
# Si number density = 19.053957 Si / 1000 Ang^3
#
#
#
# Elastic Constant Matrix: (Units=GPa)
#
#
# Indices 1 2 3 4 5 6 
#
# 1 102.5011 43.4821 29.8464 0.0000 0.0000 0.0000
# 2 43.4821 153.5951 40.6918 0.0000 0.0000 0.0000
# 3 29.8464 40.6918 91.9073 0.0000 0.0000 0.0000
# 4 0.0000 0.0000 0.0000 -3.9462 0.0000 0.0000
# 5 0.0000 0.0000 0.0000 0.0000 22.3858 0.0000
# 6 0.0000 0.0000 0.0000 0.0000 0.0000 4.2400
#
#
#
# Elastic Compliance Matrix: (Units=1/GPa)
#
#
# Indices 1 2 3 4 5 6 
#
# 1 0.011621 -0.002594 -0.002625 0.000000 0.000000 0.000000
# 2 -0.002594 0.007955 -0.002680 0.000000 0.000000 0.000000
# 3 -0.002625 -0.002680 0.012919 0.000000 0.000000 0.000000
# 4 0.000000 0.000000 0.000000 -0.253411 0.000000 0.000000
# 5 0.000000 0.000000 0.000000 0.000000 0.044671 0.000000
# 6 0.000000 0.000000 0.000000 0.000000 0.000000 0.235852
#
#
# Mechanical properties :
#
#
# Convention : Reuss Voigt Hill
#
# Bulk Modulus (GPa) = 59.89049 64.00489 61.94769
# Shear Modulus (GPa) = 61.75008 20.13479 40.94244
#
# Velocity S-wave (km/s) = 5.69898 3.25426 4.64050
# Velocity P-wave (km/s) = 8.64898 6.91264 7.82909
#
# Compressibility (1/GPa) = 0.01669714
#
# Stress axis : x y z
#
# Youngs Moduli (GPa) = 86.05151 125.70770 77.40285
#
# Poissons Ratio (x) = 0.32613 0.20320
# Poissons Ratio (y) = 0.22325 0.20740
# Poissons Ratio (z) = 0.22590 0.33684
#
# Static dielectric constant tensor:
#      x y z
#    x 1.747830 0.000000 0.000000 
#    y 0.000000 1.737950 0.000000 
#    z 0.000000 0.000000 1.615990 
# 
# From -- ./inp_files/68987.got.cif
#   From: 2010.05.17/outbox.cif.g08.bks.cpg/sg65_35_cif.got.tgz:68987.got - 2010.06.03 17:01:31.
