data_PCOD9489408
_publ_section_title
;
Structure prediction by ZEFSAII (Michael W. Deem and Ramdas Pophale) SiO2 
 PCOD9489408
Probable space group: C M M M
;
_chemical_formula_sum "Si O2"
_cell_formula_units_Z 120
_cell_length_a 29.267290
_cell_length_b 25.465874
_cell_length_c 8.065277
_cell_angle_alpha 90.000000
_cell_angle_beta 90.000000
_cell_angle_gamma 90.000000
_cell_volume 6011.189021
_symmetry_space_group_name_H-M "C M M M"
_symmetry_group_IT_number 65
_symmetry_cell_setting 'orthorhombic'
loop_
_space_group_symop_operation_xyz
x,y,z
-x,-y,z
x,-y,-z
-x,y,-z
-x,-y,-z
x,y,-z
-x,y,z
x,-y,z
1/2+x,1/2+y,z
1/2-x,1/2-y,z
1/2+x,1/2-y,-z
1/2-x,1/2+y,-z
1/2-x,1/2-y,-z
1/2+x,1/2+y,-z
1/2-x,1/2+y,z
1/2+x,1/2-y,z
loop_
_atom_site_type_symbol
_atom_site_label
_atom_site_fract_x
_atom_site_fract_y
_atom_site_fract_z
Si Si1 0.000000 0.940637 0.196177
Si Si2 0.101850 0.246587 0.298750
Si Si3 0.701978 0.275883 0.700024
Si Si4 0.413767 0.372301 0.304472
Si Si5 0.947643 0.648300 0.296587
Si Si6 0.877674 0.559878 0.302390
Si Si7 0.721738 0.062809 0.808047
Si Si8 0.185272 0.107847 0.191417
O O1 0.955173 0.907405 0.241902
O O2 0.000000 0.000000 0.268510
O O3 0.000000 0.945683 0.000000
O O4 0.098204 0.245188 0.500000
O O5 0.155549 0.255684 0.261786
O O6 0.088108 0.188073 0.237818
O O7 0.071484 0.295126 0.240848
O O8 0.701878 0.285424 0.500000
O O9 0.750000 0.250000 0.743259
O O10 0.696299 0.330738 0.791902
O O11 0.419346 0.367461 0.500000
O O12 0.364534 0.398520 0.270017
O O13 0.946418 0.648476 0.500000
O O14 0.914658 0.601361 0.238788
O O15 0.000000 0.640724 0.246797
O O16 0.883853 0.556568 0.500000
O O17 0.882194 0.500000 0.235663
O O18 0.825976 0.579592 0.271960
O O19 0.769867 0.080796 0.732481
O O20 0.721595 0.000000 0.804329
O O21 0.720976 0.080450 0.000000
O O22 0.181525 0.091194 0.000000
#
# Coordination Sequence:
#
# PCOD9489408 Si02
#       8
#     8  16  16  16  16  16  16  16
#     4  11  25  43  63  87 115 149 186 223 276 338
#     4   8  16  30  48  76 106 137 178 220 269 323
#     4   9  18  31  49  74 104 140 180 225 275 329
#     4  10  21  38  60  84 112 145 185 232 273 321
#     4   9  17  28  47  76 106 137 176 221 272 328
#     4   9  18  31  49  76 106 136 176 227 275 319
#     4   9  19  35  53  73 101 141 181 215 262 324
#     4  10  20  34  53  78 109 143 180 222 274 335
#
# _framework density 19.962772999999999
#
# number of rings (size 3 to 8) (size 9 to 14) (size 15 to 20)
#    0.000    2.733    0.000    1.800    2.800    2.667 
#    0.000    2.667    0.000    1.200    0.000    1.867 
#    0.000    0.000    0.000    0.000    0.000    0.000 
#
# Total GULP energy -334453.978803 kJ/mol
# GULP energy per Si atom -5574.232980 kJ/mol
# Density = 1.991734 g / cm^3
# Si number density = 19.962773 Si / 1000 Ang^3
#
#
#
# Elastic Constant Matrix: (Units=GPa)
#
#
# Indices 1 2 3 4 5 6 
#
# 1 202.2496 101.8088 15.3558 0.0000 0.0000 0.0000
# 2 101.8088 91.4852 10.9371 0.0000 0.0000 0.0000
# 3 15.3558 10.9371 14.5122 0.0000 0.0000 0.0000
# 4 0.0000 0.0000 0.0000 13.4058 0.0000 0.0000
# 5 0.0000 0.0000 0.0000 0.0000 66.9707 0.0000
# 6 0.0000 0.0000 0.0000 0.0000 0.0000 41.8574
#
#
#
# Elastic Compliance Matrix: (Units=1/GPa)
#
#
# Indices 1 2 3 4 5 6 
#
# 1 0.011340 -0.012293 -0.002735 0.000000 0.000000 0.000000
# 2 -0.012293 0.025338 -0.006089 0.000000 0.000000 0.000000
# 3 -0.002735 -0.006089 0.076390 0.000000 0.000000 0.000000
# 4 0.000000 0.000000 0.000000 0.074594 0.000000 0.000000
# 5 0.000000 0.000000 0.000000 0.000000 0.014932 0.000000
# 6 0.000000 0.000000 0.000000 0.000000 0.000000 0.023891
#
#
# Mechanical properties :
#
#
# Convention : Reuss Voigt Hill
#
# Bulk Modulus (GPa) = 14.11718 62.71670 38.41694
# Shear Modulus (GPa) = 17.10394 36.45647 26.78020
#
# Velocity S-wave (km/s) = 2.93028 4.27807 3.66663
# Velocity P-wave (km/s) = 4.30532 7.47580 6.10014
#
# Compressibility (1/GPa) = 0.07083566
#
# Stress axis : x y z
#
# Youngs Moduli (GPa) = 88.18412 39.46571 13.09068
#
# Poissons Ratio (x) = 0.48514 0.03580
# Poissons Ratio (y) = 1.08401 0.07971
# Poissons Ratio (z) = 0.24117 0.24031
#
# Static dielectric constant tensor:
#      x y z
#    x 1.711770 0.000000 0.000000 
#    y 0.000000 1.718300 0.000000 
#    z 0.000000 0.000000 1.723680 
# 
# From -- ./inp_files/17058.got.cif
#   From: 2010.05.17/outbox.cif.g08.bks.cpg/sg65_9_cif.got.tgz:17058.got - 2010.06.03 17:01:31.
