data_PCOD9489433
_publ_section_title
;
Structure prediction by ZEFSAII (Michael W. Deem and Ramdas Pophale) SiO2 
 PCOD9489433
Probable space group: C M M M
;
_chemical_formula_sum "Si O2"
_cell_formula_units_Z 104
_cell_length_a 27.573770
_cell_length_b 22.817737
_cell_length_c 8.296719
_cell_angle_alpha 90.000000
_cell_angle_beta 90.000000
_cell_angle_gamma 90.000000
_cell_volume 5220.055255
_symmetry_space_group_name_H-M "C M M M"
_symmetry_group_IT_number 65
_symmetry_cell_setting 'orthorhombic'
loop_
_space_group_symop_operation_xyz
x,y,z
-x,-y,z
x,-y,-z
-x,y,-z
-x,-y,-z
x,y,-z
-x,y,z
x,-y,z
1/2+x,1/2+y,z
1/2-x,1/2-y,z
1/2+x,1/2-y,-z
1/2-x,1/2+y,-z
1/2-x,1/2-y,-z
1/2+x,1/2+y,-z
1/2-x,1/2+y,z
1/2+x,1/2-y,z
loop_
_atom_site_type_symbol
_atom_site_label
_atom_site_fract_x
_atom_site_fract_y
_atom_site_fract_z
Si Si1 0.945045 0.114040 0.828226
Si Si2 0.945454 0.362357 0.194718
Si Si3 0.773378 0.335878 0.308136
Si Si4 0.151479 0.431873 0.804686
Si Si5 0.943596 0.930693 0.500000
Si Si6 0.574117 0.268587 0.684541
Si Si7 0.679347 0.716327 0.810680
O O1 0.920630 0.090751 0.666267
O O2 0.948602 0.183528 0.802419
O O3 0.000000 0.089573 0.831708
O O4 0.921795 0.100441 0.000000
O O5 0.900340 0.403275 0.244321
O O6 0.937350 0.297579 0.265588
O O7 0.000000 0.382722 0.239027
O O8 0.943790 0.358153 0.000000
O O9 0.774940 0.325832 0.500000
O O10 0.804721 0.392853 0.264668
O O11 0.717868 0.331942 0.248699
O O12 0.797621 0.280595 0.217587
O O13 0.154081 0.500000 0.757405
O O14 0.153889 0.428852 0.000000
O O15 0.000000 0.908821 0.500000
O O16 0.944828 0.000000 0.500000
O O17 0.559205 0.278442 0.500000
O O18 0.630958 0.281249 0.706497
O O19 0.668538 0.708991 0.000000
#
# Coordination Sequence:
#
# PCOD9489433 Si02
#       7
#    16  16  16  16   8  16  16
#     4  10  20  34  53  80 114 153 196 240 289 348
#     4  10  21  36  55  82 118 161 208 256 305 359
#     4  11  21  36  57  86 116 145 185 236 295 353
#     4  10  21  38  60  84 115 159 207 251 298 358
#     4   9  18  34  54  78 108 143 187 237 283 336
#     4  12  22  34  54  84 120 157 194 243 304 364
#     4  11  21  35  58  85 115 146 182 236 292 353
#
# _framework density 19.923161
#
# number of rings (size 3 to 8) (size 9 to 14) (size 15 to 20)
#    0.000    1.462    2.308    5.538    0.000    3.077 
#    0.000    3.077    0.000    0.923    0.000    2.154 
#    0.000    0.000    0.000    0.000    0.000    0.000 
#
# Total GULP energy -290227.185549 kJ/mol
# GULP energy per Si atom -5581.292030 kJ/mol
# Density = 1.987782 g / cm^3
# Si number density = 19.923161 Si / 1000 Ang^3
#
#
#
# Elastic Constant Matrix: (Units=GPa)
#
#
# Indices 1 2 3 4 5 6 
#
# 1 97.2444 31.1496 6.2932 0.0000 0.0000 0.0000
# 2 31.1496 95.6193 28.9742 0.0000 0.0000 0.0000
# 3 6.2932 28.9742 113.3031 0.0000 0.0000 0.0000
# 4 0.0000 0.0000 0.0000 19.5579 0.0000 0.0000
# 5 0.0000 0.0000 0.0000 0.0000 -0.8189 0.0000
# 6 0.0000 0.0000 0.0000 0.0000 0.0000 19.6070
#
#
#
# Elastic Compliance Matrix: (Units=1/GPa)
#
#
# Indices 1 2 3 4 5 6 
#
# 1 0.011494 -0.003849 0.000346 0.000000 0.000000 0.000000
# 2 -0.003849 0.012626 -0.003015 0.000000 0.000000 0.000000
# 3 0.000346 -0.003015 0.009578 0.000000 0.000000 0.000000
# 4 0.000000 0.000000 0.000000 0.051130 0.000000 0.000000
# 5 0.000000 0.000000 0.000000 0.000000 -1.221096 0.000000
# 6 0.000000 0.000000 0.000000 0.000000 0.000000 0.051002
#
#
# Mechanical properties :
#
#
# Convention : Reuss Voigt Hill
#
# Bulk Modulus (GPa) = 48.40042 48.77787 48.58915
# Shear Modulus (GPa) = -4.69332 23.65250 9.47959
#
# Velocity S-wave (km/s) = -1.53650 3.44929 2.18367
# Velocity P-wave (km/s) = 4.60418 6.35607 5.54969
#
# Compressibility (1/GPa) = 0.02066098
#
# Stress axis : x y z
#
# Youngs Moduli (GPa) = 87.00224 79.20405 104.40979
#
# Poissons Ratio (x) = 0.30487 -0.03612
# Poissons Ratio (y) = 0.33489 0.31478
# Poissons Ratio (z) = -0.03009 0.23879
#
# Static dielectric constant tensor:
#      x y z
#    x 1.778850 0.000000 0.000000 
#    y 0.000000 1.680860 0.000000 
#    z 0.000000 0.000000 1.729010 
# 
# From -- ./inp_files/18612.got.cif
#   From: 2010.05.17/outbox.cif.g08.bks.cpg/sg65_10_cif.got.tgz:18612.got - 2010.06.03 17:01:31.
