data_PCOD9489967
_publ_section_title
;
Structure prediction by ZEFSAII (Michael W. Deem and Ramdas Pophale) SiO2 
 PCOD9489967
Probable space group: C M M M
;
_chemical_formula_sum "Si O2"
_cell_formula_units_Z 88
_cell_length_a 22.966341
_cell_length_b 25.134078
_cell_length_c 8.892649
_cell_angle_alpha 90.000000
_cell_angle_beta 90.000000
_cell_angle_gamma 90.000000
_cell_volume 5133.173199
_symmetry_space_group_name_H-M "C M M M"
_symmetry_group_IT_number 65
_symmetry_cell_setting 'orthorhombic'
loop_
_space_group_symop_operation_xyz
x,y,z
-x,-y,z
x,-y,-z
-x,y,-z
-x,-y,-z
x,y,-z
-x,y,z
x,-y,z
1/2+x,1/2+y,z
1/2-x,1/2-y,z
1/2+x,1/2-y,-z
1/2-x,1/2+y,-z
1/2-x,1/2-y,-z
1/2+x,1/2+y,-z
1/2-x,1/2+y,z
1/2+x,1/2-y,z
loop_
_atom_site_type_symbol
_atom_site_label
_atom_site_fract_x
_atom_site_fract_y
_atom_site_fract_z
Si Si1 0.714970 0.438418 0.319462
Si Si2 0.000000 0.061061 0.182853
Si Si3 0.850785 0.438678 0.319182
Si Si4 0.886984 0.129151 0.819657
Si Si5 0.931238 0.764118 0.320511
Si Si6 0.068122 0.349289 0.820473
O O1 0.708805 0.433307 0.500000
O O2 0.701591 0.500000 0.280130
O O3 0.782794 0.428787 0.282607
O O4 0.671181 0.399119 0.237705
O O5 0.942221 0.092861 0.229135
O O6 0.000000 0.000000 0.235618
O O7 0.000000 0.059934 0.000000
O O8 0.856598 0.434299 0.500000
O O9 0.864103 0.500000 0.278156
O O10 0.892497 0.396818 0.240426
O O11 0.896135 0.187401 0.751096
O O12 0.887342 0.132235 0.000000
O O13 0.924799 0.763805 0.500000
O O14 0.914600 0.706884 0.253677
O O15 0.000000 0.772249 0.284730
O O16 0.000000 0.358599 0.782283
O O17 0.072825 0.345147 0.000000
#
# Coordination Sequence:
#
# PCOD9489967 Si02
#       6
#    16   8  16  16  16  16
#     4   9  19  36  55  76 106 143 182 223 266 315
#     4   9  18  30  45  71 107 141 174 217 266 313
#     4   9  19  37  59  81 108 143 179 216 262 317
#     4  11  20  32  52  77 108 143 181 224 270 319
#     4  10  20  35  55  77 105 142 183 222 266 320
#     4  10  21  36  56  83 113 140 171 216 269 320
#
# _framework density 17.143391000000001
#
# number of rings (size 3 to 8) (size 9 to 14) (size 15 to 20)
#    0.000    2.273    0.909    3.273    0.000    4.364 
#    0.000    4.545    0.000    7.636    0.000    0.000 
#    0.000    0.000    0.000    0.000    0.000    0.000 
#
# Total GULP energy -245598.721281 kJ/mol
# GULP energy per Si atom -5581.789120 kJ/mol
# Density = 1.710437 g / cm^3
# Si number density = 17.143391 Si / 1000 Ang^3
#
#
#
# Elastic Constant Matrix: (Units=GPa)
#
#
# Indices 1 2 3 4 5 6 
#
# 1 88.2349 101.1367 48.8586 0.0000 0.0000 0.0000
# 2 101.1367 173.3309 65.4018 0.0000 0.0000 0.0000
# 3 48.8586 65.4018 47.7167 0.0000 0.0000 0.0000
# 4 0.0000 0.0000 0.0000 25.9488 0.0000 0.0000
# 5 0.0000 0.0000 0.0000 0.0000 28.7730 0.0000
# 6 0.0000 0.0000 0.0000 0.0000 0.0000 25.7138
#
#
#
# Elastic Compliance Matrix: (Units=1/GPa)
#
#
# Indices 1 2 3 4 5 6 
#
# 1 0.041227 -0.016833 -0.019142 0.000000 0.000000 0.000000
# 2 -0.016833 0.018822 -0.008562 0.000000 0.000000 0.000000
# 3 -0.019142 -0.008562 0.052293 0.000000 0.000000 0.000000
# 4 0.000000 0.000000 0.000000 0.038537 0.000000 0.000000
# 5 0.000000 0.000000 0.000000 0.000000 0.034755 0.000000
# 6 0.000000 0.000000 0.000000 0.000000 0.000000 0.038890
#
#
# Mechanical properties :
#
#
# Convention : Reuss Voigt Hill
#
# Bulk Modulus (GPa) = 42.97849 82.23074 62.60462
# Shear Modulus (GPa) = 15.55921 22.34614 18.95268
#
# Velocity S-wave (km/s) = 3.01590 3.61430 3.32857
# Velocity P-wave (km/s) = 6.10344 8.09247 7.16729
#
# Compressibility (1/GPa) = 0.02326745
#
# Stress axis : x y z
#
# Youngs Moduli (GPa) = 24.25586 53.13040 19.12316
#
# Poissons Ratio (x) = 0.89433 0.36606
# Poissons Ratio (y) = 0.40829 0.16373
# Poissons Ratio (z) = 0.46431 0.45490
#
# Static dielectric constant tensor:
#      x y z
#    x 1.562210 0.000000 0.000000 
#    y 0.000000 1.556500 0.000000 
#    z 0.000000 0.000000 1.568430 
# 
# From -- ./inp_files/11701.got.cif
#   From: 2010.05.17/outbox.cif.g08.bks.cpg/sg65_6_cif.got.tgz:11701.got - 2010.06.03 17:01:31.
