data_PCOD9489994
_publ_section_title
;
Structure prediction by ZEFSAII (Michael W. Deem and Ramdas Pophale) SiO2 
 PCOD9489994
Probable space group: C M M M
;
_chemical_formula_sum "Si O2"
_cell_formula_units_Z 80
_cell_length_a 14.620883
_cell_length_b 15.498796
_cell_length_c 17.157630
_cell_angle_alpha 90.000000
_cell_angle_beta 90.000000
_cell_angle_gamma 90.000000
_cell_volume 3888.023327
_symmetry_space_group_name_H-M "C M M M"
_symmetry_group_IT_number 65
_symmetry_cell_setting 'orthorhombic'
loop_
_space_group_symop_operation_xyz
x,y,z
-x,-y,z
x,-y,-z
-x,y,-z
-x,-y,-z
x,y,-z
-x,y,z
x,-y,z
1/2+x,1/2+y,z
1/2-x,1/2-y,z
1/2+x,1/2-y,-z
1/2-x,1/2+y,-z
1/2-x,1/2-y,-z
1/2+x,1/2+y,-z
1/2-x,1/2+y,z
1/2+x,1/2-y,z
loop_
_atom_site_type_symbol
_atom_site_label
_atom_site_fract_x
_atom_site_fract_y
_atom_site_fract_z
Si Si1 0.311919 0.000000 0.091486
Si Si2 0.610664 0.717634 0.415781
Si Si3 0.394419 0.092516 0.379568
Si Si4 0.098757 0.000000 0.853313
Si Si5 0.357763 0.665785 0.757217
Si Si6 0.643862 0.144933 0.208500
O O1 0.357246 0.083117 0.133961
O O2 0.199928 0.000000 0.105298
O O3 0.328080 0.000000 0.000000
O O4 0.639100 0.682113 0.500000
O O5 0.500000 0.722388 0.415584
O O6 0.646078 0.816691 0.408069
O O7 0.633692 0.669236 0.336161
O O8 0.500000 0.091144 0.405951
O O9 0.394786 0.099866 0.285710
O O10 0.352062 0.000000 0.401376
O O11 0.098988 0.084118 0.798616
O O12 0.000000 0.000000 0.897298
O O13 0.392653 0.757098 0.792076
O O14 0.251004 0.656952 0.774733
#
# Coordination Sequence:
#
# PCOD9489994 Si02
#       6
#     8  16  16   8  16  16
#     4  10  20  35  59  85 109 132 160 209 266 317
#     4   9  17  29  46  71 103 135 171 216 261 300
#     4   9  16  27  47  71  96 132 169 205 249 304
#     4  10  20  35  55  79 105 139 182 217 250 305
#     4   9  18  32  52  75 100 139 180 215 251 298
#     4   9  17  33  52  77 102 132 171 208 253 312
#
# _framework density 20.576008999999999
#
# number of rings (size 3 to 8) (size 9 to 14) (size 15 to 20)
#    0.000    2.800    1.000    0.600    0.000    1.400 
#    0.000   18.500    0.000    3.000    0.000    0.000 
#    0.000    0.000    0.000    0.000    0.000    0.000 
#
# Total GULP energy -222843.490279 kJ/mol
# GULP energy per Si atom -5571.087257 kJ/mol
# Density = 2.052918 g / cm^3
# Si number density = 20.576009 Si / 1000 Ang^3
#
#
#
# Elastic Constant Matrix: (Units=GPa)
#
#
# Indices 1 2 3 4 5 6 
#
# 1 43.5064 5.3587 0.2525 0.0000 0.0000 0.0000
# 2 5.3587 100.6013 46.4377 0.0000 0.0000 0.0000
# 3 0.2525 46.4377 156.8085 0.0000 0.0000 0.0000
# 4 0.0000 0.0000 0.0000 3.5867 0.0000 0.0000
# 5 0.0000 0.0000 0.0000 0.0000 4.6546 0.0000
# 6 0.0000 0.0000 0.0000 0.0000 0.0000 -6.3153
#
#
#
# Elastic Compliance Matrix: (Units=1/GPa)
#
#
# Indices 1 2 3 4 5 6 
#
# 1 0.023156 -0.001409 0.000380 0.000000 0.000000 0.000000
# 2 -0.001409 0.011600 -0.003433 0.000000 0.000000 0.000000
# 3 0.000380 -0.003433 0.007393 0.000000 0.000000 0.000000
# 4 0.000000 0.000000 0.000000 0.278809 0.000000 0.000000
# 5 0.000000 0.000000 0.000000 0.000000 0.214841 0.000000
# 6 0.000000 0.000000 0.000000 0.000000 0.000000 -0.158346
#
#
# Mechanical properties :
#
#
# Convention : Reuss Voigt Hill
#
# Bulk Modulus (GPa) = 30.09703 45.00157 37.54930
# Shear Modulus (GPa) = 12.58010 16.97635 14.77823
#
# Velocity S-wave (km/s) = 2.47533 2.87549 2.68288
# Velocity P-wave (km/s) = 4.77793 5.73960 5.28070
#
# Compressibility (1/GPa) = 0.03322588
#
# Stress axis : x y z
#
# Youngs Moduli (GPa) = 43.18447 86.20735 135.25866
#
# Poissons Ratio (x) = 0.12145 -0.05139
# Poissons Ratio (y) = 0.06084 0.46434
# Poissons Ratio (z) = -0.01641 0.29595
#
# Static dielectric constant tensor:
#      x y z
#    x 1.797900 0.000000 0.000000 
#    y 0.000000 1.783500 0.000000 
#    z 0.000000 0.000000 1.701500 
# 
# From -- ./inp_files/54242.got.cif
#   From: 2010.05.17/outbox.cif.g08.bks.cpg/sg65_28_cif.got.tgz:54242.got - 2010.06.03 17:01:31.
