data_PCOD9489102
_publ_section_title
;
Structure prediction by ZEFSAII (Michael W. Deem and Ramdas Pophale) SiO2 
 PCOD9489102
Probable space group: C M M M
;
_chemical_formula_sum "Si O2"
_cell_formula_units_Z 104
_cell_length_a 7.750674
_cell_length_b 27.365098
_cell_length_c 23.344580
_cell_angle_alpha 90.000000
_cell_angle_beta 90.000000
_cell_angle_gamma 90.000000
_cell_volume 4951.337645
_symmetry_space_group_name_H-M "C M M M"
_symmetry_group_IT_number 65
_symmetry_cell_setting 'orthorhombic'
loop_
_space_group_symop_operation_xyz
x,y,z
-x,-y,z
x,-y,-z
-x,y,-z
-x,-y,-z
x,y,-z
-x,y,z
x,-y,z
1/2+x,1/2+y,z
1/2-x,1/2-y,z
1/2+x,1/2-y,-z
1/2-x,1/2+y,-z
1/2-x,1/2-y,-z
1/2+x,1/2+y,-z
1/2-x,1/2+y,z
1/2+x,1/2-y,z
loop_
_atom_site_type_symbol
_atom_site_label
_atom_site_fract_x
_atom_site_fract_y
_atom_site_fract_z
Si Si1 0.711355 0.597471 0.867811
Si Si2 0.289108 0.500000 0.065656
Si Si3 0.296802 0.302936 0.319921
Si Si4 0.707538 0.694913 0.933985
Si Si5 0.209231 0.901268 0.262754
Si Si6 0.294230 0.052891 0.380088
Si Si7 0.207244 0.347280 0.436499
O O1 0.500000 0.598336 0.868180
O O2 0.765833 0.549957 0.903534
O O3 0.768078 0.649063 0.895767
O O4 0.766717 0.590885 0.802039
O O5 0.500000 0.500000 0.066675
O O6 0.234068 0.500000 0.000000
O O7 0.500000 0.307638 0.317150
O O8 0.250000 0.250000 0.297544
O O9 0.224404 0.348515 0.284624
O O10 0.246267 0.309473 0.386174
O O11 0.500000 0.691692 0.935615
O O12 0.750000 0.750000 0.913598
O O13 0.770664 0.690460 0.000000
O O14 0.264338 0.938217 0.312573
O O15 0.000000 0.901675 0.262277
O O16 0.500000 0.052295 0.389633
O O17 0.225530 0.100042 0.414062
O O18 0.224136 0.000000 0.397288
O O19 0.272361 0.335590 0.500000
O O20 0.000000 0.350521 0.439471
#
# Coordination Sequence:
#
# PCOD9489102 Si02
#       7
#    16   8  16  16  16  16  16
#     4   9  17  29  46  71 100 129 164 206 248 293
#     4   9  16  26  44  72 103 133 164 203 252 298
#     4  10  20  34  51  71  97 130 164 201 246 294
#     4   9  17  30  48  70  97 127 160 201 247 294
#     4   9  19  33  49  71  97 126 163 203 243 288
#     4   9  18  32  50  72  99 129 159 196 241 288
#     4   9  18  33  52  74  99 127 162 201 241 289
#
# _framework density 21.004425000000001
#
# number of rings (size 3 to 8) (size 9 to 14) (size 15 to 20)
#    0.000    2.846    0.000    0.923    1.077    4.308 
#    0.000    2.308    0.000    0.000    0.000    4.308 
#    0.000    3.692    0.000    0.000    0.000    0.000 
#
# Total GULP energy -290058.170830 kJ/mol
# GULP energy per Si atom -5578.041747 kJ/mol
# Density = 2.095662 g / cm^3
# Si number density = 21.004425 Si / 1000 Ang^3
#
#
#
# Elastic Constant Matrix: (Units=GPa)
#
#
# Indices 1 2 3 4 5 6 
#
# 1 28.4303 -0.5969 -0.7324 0.0000 0.0000 0.0000
# 2 -0.5969 84.1897 -0.2470 0.0000 0.0000 0.0000
# 3 -0.7324 -0.2470 65.0693 0.0000 0.0000 0.0000
# 4 0.0000 0.0000 0.0000 2.1219 0.0000 0.0000
# 5 0.0000 0.0000 0.0000 0.0000 26.9311 0.0000
# 6 0.0000 0.0000 0.0000 0.0000 0.0000 8.8676
#
#
#
# Elastic Compliance Matrix: (Units=1/GPa)
#
#
# Indices 1 2 3 4 5 6 
#
# 1 0.035189 0.000251 0.000397 0.000000 0.000000 0.000000
# 2 0.000251 0.011880 0.000048 0.000000 0.000000 0.000000
# 3 0.000397 0.000048 0.015373 0.000000 0.000000 0.000000
# 4 0.000000 0.000000 0.000000 0.471266 0.000000 0.000000
# 5 0.000000 0.000000 0.000000 0.000000 0.037132 0.000000
# 6 0.000000 0.000000 0.000000 0.000000 0.000000 0.112770
#
#
# Mechanical properties :
#
#
# Convention : Reuss Voigt Hill
#
# Bulk Modulus (GPa) = 15.66585 19.39297 17.52941
# Shear Modulus (GPa) = 7.10736 19.53517 13.32127
#
# Velocity S-wave (km/s) = 1.84149 3.05298 2.52109
# Velocity P-wave (km/s) = 3.46352 4.65623 4.10344
#
# Compressibility (1/GPa) = 0.06383313
#
# Stress axis : x y z
#
# Youngs Moduli (GPa) = 28.41780 84.17615 65.04959
#
# Poissons Ratio (x) = -0.02110 -0.02583
# Poissons Ratio (y) = -0.00712 -0.00312
# Poissons Ratio (z) = -0.01128 -0.00403
#
# Static dielectric constant tensor:
#      x y z
#    x 1.776550 0.000000 0.000000 
#    y 0.000000 1.735630 0.000000 
#    z 0.000000 0.000000 1.753210 
# 
# From -- ./inp_files/68158.got.cif
#   From: 2010.05.17/outbox.cif.g08.bks.cpg/sg65_35_cif.got.tgz:68158.got - 2010.06.03 17:01:31.
