data_PCOD9489866
_publ_section_title
;
Structure prediction by ZEFSAII (Michael W. Deem and Ramdas Pophale) SiO2 
 PCOD9489866
Probable space group: C M M M
;
_chemical_formula_sum "Si O2"
_cell_formula_units_Z 88
_cell_length_a 7.759301
_cell_length_b 28.405202
_cell_length_c 19.556537
_cell_angle_alpha 90.000000
_cell_angle_beta 90.000000
_cell_angle_gamma 90.000000
_cell_volume 4310.348999
_symmetry_space_group_name_H-M "C M M M"
_symmetry_group_IT_number 65
_symmetry_cell_setting 'orthorhombic'
loop_
_space_group_symop_operation_xyz
x,y,z
-x,-y,z
x,-y,-z
-x,y,-z
-x,-y,-z
x,y,-z
-x,y,z
x,-y,z
1/2+x,1/2+y,z
1/2-x,1/2-y,z
1/2+x,1/2-y,-z
1/2-x,1/2+y,-z
1/2-x,1/2-y,-z
1/2+x,1/2+y,-z
1/2-x,1/2+y,z
1/2+x,1/2-y,z
loop_
_atom_site_type_symbol
_atom_site_label
_atom_site_fract_x
_atom_site_fract_y
_atom_site_fract_z
Si Si1 0.209225 0.895114 0.577850
Si Si2 0.211504 0.603939 0.077781
Si Si3 0.196103 0.500000 0.916916
Si Si4 0.701857 0.302770 0.655664
Si Si5 0.707718 0.855478 0.214162
Si Si6 0.705025 0.948564 0.291187
O O1 0.267040 0.900624 0.500000
O O2 0.276062 0.845734 0.610515
O O3 0.265436 0.935911 0.629590
O O4 0.000000 0.894606 0.577811
O O5 0.271051 0.551188 0.099564
O O6 0.263327 0.641249 0.135385
O O7 0.000000 0.601705 0.076649
O O8 0.266823 0.613343 0.000000
O O9 0.000000 0.500000 0.889318
O O10 0.186833 0.500000 0.000000
O O11 0.500000 0.306252 0.646703
O O12 0.750000 0.250000 0.636424
O O13 0.741048 0.313872 0.735091
O O14 0.500000 0.856266 0.214486
O O15 0.773346 0.903757 0.249586
O O16 0.500000 0.949688 0.278732
O O17 0.775450 0.000000 0.273375
#
# Coordination Sequence:
#
# PCOD9489866 Si02
#       6
#    16  16   8  16  16  16
#     4   9  19  35  52  71  95 122 154 191 231 280
#     4   8  13  21  37  64  96 127 159 196 235 272
#     4   7  10  16  28  54  91 123 150 183 224 264
#     4  10  20  35  54  73  94 118 149 190 238 289
#     4   9  17  29  47  70  97 128 161 196 235 278
#     4   9  18  30  44  67  99 133 166 197 229 266
#
# _framework density 20.415980000000001
#
# number of rings (size 3 to 8) (size 9 to 14) (size 15 to 20)
#    0.000    3.182    0.000    1.636    1.273    2.182 
#    0.000    1.818    0.000    1.091    0.000    0.000 
#    0.000    2.182    0.000    0.000    0.000    0.000 
#
# Total GULP energy -245174.809858 kJ/mol
# GULP energy per Si atom -5572.154769 kJ/mol
# Density = 2.036951 g / cm^3
# Si number density = 20.415980 Si / 1000 Ang^3
#
#
#
# Elastic Constant Matrix: (Units=GPa)
#
#
# Indices 1 2 3 4 5 6 
#
# 1 25.7445 0.4558 -5.8244 0.0000 0.0000 0.0000
# 2 0.4558 37.0620 -14.7983 0.0000 0.0000 0.0000
# 3 -5.8244 -14.7983 56.4382 0.0000 0.0000 0.0000
# 4 0.0000 0.0000 0.0000 -75.7990 0.0000 0.0000
# 5 0.0000 0.0000 0.0000 0.0000 -203.5240 0.0000
# 6 0.0000 0.0000 0.0000 0.0000 0.0000 -3.6181
#
#
#
# Elastic Compliance Matrix: (Units=1/GPa)
#
#
# Indices 1 2 3 4 5 6 
#
# 1 0.039827 0.001286 0.004447 0.000000 0.000000 0.000000
# 2 0.001286 0.030179 0.008046 0.000000 0.000000 0.000000
# 3 0.004447 0.008046 0.020287 0.000000 0.000000 0.000000
# 4 0.000000 0.000000 0.000000 -0.013193 0.000000 0.000000
# 5 0.000000 0.000000 0.000000 0.000000 -0.004913 0.000000
# 6 0.000000 0.000000 0.000000 0.000000 0.000000 -0.276388
#
#
# Mechanical properties :
#
#
# Convention : Reuss Voigt Hill
#
# Bulk Modulus (GPa) = 8.48538 8.76788 8.62663
# Shear Modulus (GPa) = -25.97722 -47.29411 -36.63566
#
# Velocity S-wave (km/s) = -3.57094 -4.81825 -4.24070
# Velocity P-wave (km/s) = 3.58286 5.16237 4.44336
#
# Compressibility (1/GPa) = 0.11784980
#
# Stress axis : x y z
#
# Youngs Moduli (GPa) = 25.10887 33.13614 49.29252
#
# Poissons Ratio (x) = -0.04261 -0.21922
# Poissons Ratio (y) = -0.03229 -0.39659
# Poissons Ratio (z) = -0.11167 -0.26660
#
# Static dielectric constant tensor:
#      x y z
#    x 1.764030 0.000000 0.000000 
#    y 0.000000 1.804050 0.000000 
#    z 0.000000 0.000000 1.754910 
# 
# From -- ./inp_files/60728.got.cif
#   From: 2010.05.17/outbox.cif.g08.bks.cpg/sg65_31_cif.got.tgz:60728.got - 2010.06.03 17:01:31.
