data_PCOD9489906
_publ_section_title
;
Structure prediction by ZEFSAII (Michael W. Deem and Ramdas Pophale) SiO2 
 PCOD9489906
Probable space group: C M M M
;
_chemical_formula_sum "Si O2"
_cell_formula_units_Z 72
_cell_length_a 8.471230
_cell_length_b 14.751133
_cell_length_c 31.989020
_cell_angle_alpha 90.000000
_cell_angle_beta 90.000000
_cell_angle_gamma 90.000000
_cell_volume 3997.355629
_symmetry_space_group_name_H-M "C M M M"
_symmetry_group_IT_number 65
_symmetry_cell_setting 'orthorhombic'
loop_
_space_group_symop_operation_xyz
x,y,z
-x,-y,z
x,-y,-z
-x,y,-z
-x,-y,-z
x,y,-z
-x,y,z
x,-y,z
1/2+x,1/2+y,z
1/2-x,1/2-y,z
1/2+x,1/2-y,-z
1/2-x,1/2+y,-z
1/2-x,1/2-y,-z
1/2+x,1/2+y,-z
1/2-x,1/2+y,z
1/2+x,1/2-y,z
loop_
_atom_site_type_symbol
_atom_site_label
_atom_site_fract_x
_atom_site_fract_y
_atom_site_fract_z
Si Si1 0.310214 0.500000 0.792200
Si Si2 0.309509 0.647731 0.500000
Si Si3 0.689470 0.852606 0.271788
Si Si4 0.190476 0.148236 0.953498
Si Si5 0.690053 0.000000 0.339098
Si Si6 0.309668 0.500000 0.433129
Si Si7 0.807020 0.000000 0.888117
O O1 0.500000 0.500000 0.791317
O O2 0.249943 0.588406 0.767408
O O3 0.255248 0.500000 0.840238
O O4 0.500000 0.649386 0.500000
O O5 0.250000 0.750000 0.500000
O O6 0.258782 0.588504 0.459665
O O7 0.500000 0.851804 0.270789
O O8 0.750000 0.750000 0.272176
O O9 0.740213 0.911428 0.312464
O O10 0.250000 0.250000 0.948796
O O11 0.000000 0.147600 0.953114
O O12 0.244894 0.085961 0.915496
O O13 0.239371 0.115655 0.000000
O O14 0.500000 0.000000 0.339977
O O15 0.751204 0.000000 0.386003
O O16 0.500000 0.500000 0.433014
O O17 0.000000 0.000000 0.887438
#
# Coordination Sequence:
#
# PCOD9489906 Si02
#       7
#     8   8  16  16   8   8   8
#     4  10  20  35  54  77 105 135 170 213 259 309
#     4   9  19  35  52  74 104 141 179 213 252 300
#     4  10  21  38  57  78 105 137 173 214 261 314
#     4   9  17  31  50  71  97 129 164 202 244 292
#     4   9  20  36  54  79 107 132 169 217 260 307
#     4   9  19  35  53  74 106 141 173 211 256 305
#     4   9  18  32  51  74  98 129 167 202 244 300
#
# _framework density 18.011906
#
# number of rings (size 3 to 8) (size 9 to 14) (size 15 to 20)
#    0.000    2.667    0.000    2.667    0.000    6.667 
#    0.000   10.556    0.000    2.667    0.000    0.000 
#    0.000    0.000    0.000    0.000    0.000    0.000 
#
# Total GULP energy -200750.196737 kJ/mol
# GULP energy per Si atom -5576.394354 kJ/mol
# Density = 1.797091 g / cm^3
# Si number density = 18.011906 Si / 1000 Ang^3
#
#
#
# Elastic Constant Matrix: (Units=GPa)
#
#
# Indices 1 2 3 4 5 6 
#
# 1 23.3568 31.1135 32.2548 0.0000 0.0000 0.0000
# 2 31.1135 180.7849 115.1323 0.0000 0.0000 0.0000
# 3 32.2548 115.1323 211.5076 0.0000 0.0000 0.0000
# 4 0.0000 0.0000 0.0000 11.7179 0.0000 0.0000
# 5 0.0000 0.0000 0.0000 0.0000 22.8863 0.0000
# 6 0.0000 0.0000 0.0000 0.0000 0.0000 27.7404
#
#
#
# Elastic Compliance Matrix: (Units=1/GPa)
#
#
# Indices 1 2 3 4 5 6 
#
# 1 0.059234 -0.006798 -0.005333 0.000000 0.000000 0.000000
# 2 -0.006798 0.009247 -0.003997 0.000000 0.000000 0.000000
# 3 -0.005333 -0.003997 0.007717 0.000000 0.000000 0.000000
# 4 0.000000 0.000000 0.000000 0.085339 0.000000 0.000000
# 5 0.000000 0.000000 0.000000 0.000000 0.043694 0.000000
# 6 0.000000 0.000000 0.000000 0.000000 0.000000 0.036048
#
#
# Mechanical properties :
#
#
# Convention : Reuss Voigt Hill
#
# Bulk Modulus (GPa) = 22.75700 85.85004 54.30352
# Shear Modulus (GPa) = 17.35015 28.27884 22.81450
#
# Velocity S-wave (km/s) = 3.10701 3.96663 3.56284
# Velocity P-wave (km/s) = 5.05304 8.29128 6.86580
#
# Compressibility (1/GPa) = 0.04394251
#
# Stress axis : x y z
#
# Youngs Moduli (GPa) = 16.88217 108.14717 129.58919
#
# Poissons Ratio (x) = 0.73521 0.69104
# Poissons Ratio (y) = 0.11477 0.51792
# Poissons Ratio (z) = 0.09003 0.43222
#
# Static dielectric constant tensor:
#      x y z
#    x 1.617780 0.000000 0.000000 
#    y 0.000000 1.597900 0.000000 
#    z 0.000000 0.000000 1.611410 
# 
# From -- ./inp_files/76396.got.cif
#   From: 2010.05.17/outbox.cif.g08.bks.cpg/sg65_39_cif.got.tgz:76396.got - 2010.06.03 17:01:31.
