data_PCOD9489525
_publ_section_title
;
Structure prediction by ZEFSAII (Michael W. Deem and Ramdas Pophale) SiO2 
 PCOD9489525
Probable space group: C M M M
;
_chemical_formula_sum "Si O2"
_cell_formula_units_Z 72
_cell_length_a 16.417066
_cell_length_b 27.859412
_cell_length_c 8.570023
_cell_angle_alpha 90.000000
_cell_angle_beta 90.000000
_cell_angle_gamma 90.000000
_cell_volume 3919.669753
_symmetry_space_group_name_H-M "C M M M"
_symmetry_group_IT_number 65
_symmetry_cell_setting 'orthorhombic'
loop_
_space_group_symop_operation_xyz
x,y,z
-x,-y,z
x,-y,-z
-x,y,-z
-x,-y,-z
x,y,-z
-x,y,z
x,-y,z
1/2+x,1/2+y,z
1/2-x,1/2-y,z
1/2+x,1/2-y,-z
1/2-x,1/2+y,-z
1/2-x,1/2-y,-z
1/2+x,1/2+y,-z
1/2-x,1/2+y,z
1/2+x,1/2-y,z
loop_
_atom_site_type_symbol
_atom_site_label
_atom_site_fract_x
_atom_site_fract_y
_atom_site_fract_z
Si Si1 0.750157 0.194883 0.314533
Si Si2 0.165165 0.896165 0.813840
Si Si3 0.000000 0.943384 0.687775
Si Si4 0.171674 0.444393 0.313628
Si Si5 0.908307 0.354646 0.814893
O O1 0.764422 0.193553 0.500000
O O2 0.750000 0.250000 0.261134
O O3 0.814471 0.158718 0.234977
O O4 0.661173 0.173966 0.275813
O O5 0.080231 0.916745 0.751353
O O6 0.238946 0.927058 0.740307
O O7 0.168091 0.900027 0.000000
O O8 0.000000 0.941383 0.500000
O O9 0.000000 0.000000 0.733293
O O10 0.165373 0.437779 0.500000
O O11 0.160220 0.500000 0.276877
O O12 0.107971 0.409952 0.228453
O O13 0.000000 0.340552 0.773453
O O14 0.896535 0.348136 0.000000
#
# Coordination Sequence:
#
# PCOD9489525 Si02
#       5
#    16  16   8  16  16
#     4  10  21  39  62  84 108 145 187 230 281 336
#     4  11  22  36  57  84 114 148 187 234 285 337
#     4  11  23  39  59  83 117 157 195 239 286 339
#     4  10  20  34  54  79 109 148 188 225 270 325
#     4  10  21  36  55  81 111 143 179 225 276 325
#
# _framework density 18.368894000000001
#
# number of rings (size 3 to 8) (size 9 to 14) (size 15 to 20)
#    0.000    1.667    0.000    7.667    0.000    9.333 
#    2.000    2.222    0.000    0.000    0.000    0.000 
#    0.000    0.000    0.000    0.000    0.000    0.000 
#
# Total GULP energy -201073.496703 kJ/mol
# GULP energy per Si atom -5585.374908 kJ/mol
# Density = 1.832709 g / cm^3
# Si number density = 18.368894 Si / 1000 Ang^3
#
#
#
# Elastic Constant Matrix: (Units=GPa)
#
#
# Indices 1 2 3 4 5 6 
#
# 1 76.0278 22.5160 -2.5199 0.0000 0.0000 0.0000
# 2 22.5160 111.7869 6.5711 0.0000 0.0000 0.0000
# 3 -2.5199 6.5711 27.2109 0.0000 0.0000 0.0000
# 4 0.0000 0.0000 0.000021986.4067 0.0000 0.0000
# 5 0.0000 0.0000 0.0000 0.0000 32.1741 0.0000
# 6 0.0000 0.0000 0.0000 0.0000 0.0000 11.2786
#
#
#
# Elastic Compliance Matrix: (Units=1/GPa)
#
#
# Indices 1 2 3 4 5 6 
#
# 1 0.014096 -0.002958 0.002020 0.000000 0.000000 0.000000
# 2 -0.002958 0.009695 -0.002615 0.000000 0.000000 0.000000
# 3 0.002020 -0.002615 0.037569 0.000000 0.000000 0.000000
# 4 0.000000 0.000000 0.000000 0.000045 0.000000 0.000000
# 5 0.000000 0.000000 0.000000 0.000000 0.031081 0.000000
# 6 0.000000 0.000000 0.000000 0.000000 0.000000 0.088664
#
#
# Mechanical properties :
#
#
# Convention : Reuss Voigt Hill
#
# Bulk Modulus (GPa) = 18.43223 29.79558 24.11390
# Shear Modulus (GPa) = 24.23176 4418.53578 2221.38377
#
# Velocity S-wave (km/s) = 3.63598 49.09854 34.81298
# Velocity P-wave (km/s) = 5.26150 56.83730 40.36187
#
# Compressibility (1/GPa) = 0.05425280
#
# Stress axis : x y z
#
# Youngs Moduli (GPa) = 70.94193 103.14489 26.61803
#
# Poissons Ratio (x) = 0.30510 -0.05376
# Poissons Ratio (y) = 0.20984 0.06961
# Poissons Ratio (z) = -0.14328 0.26974
#
# Static dielectric constant tensor:
#      x y z
#    x 1.607060 0.000000 0.000000 
#    y 0.000000 1.639730 0.000000 
#    z 0.000000 0.000000 1.614420 
# 
# From -- ./inp_files/7244.got.cif
#   From: 2010.05.17/outbox.cif.g08.bks.cpg/sg65_4_cif.got.tgz:7244.got - 2010.06.03 17:01:31.
