data_PCOD9489824
_publ_section_title
;
Structure prediction by ZEFSAII (Michael W. Deem and Ramdas Pophale) SiO2 
 PCOD9489824
Probable space group: C M M M
;
_chemical_formula_sum "Si O2"
_cell_formula_units_Z 80
_cell_length_a 8.778857
_cell_length_b 19.563705
_cell_length_c 26.703597
_cell_angle_alpha 90.000000
_cell_angle_beta 90.000000
_cell_angle_gamma 90.000000
_cell_volume 4586.261835
_symmetry_space_group_name_H-M "C M M M"
_symmetry_group_IT_number 65
_symmetry_cell_setting 'orthorhombic'
loop_
_space_group_symop_operation_xyz
x,y,z
-x,-y,z
x,-y,-z
-x,y,-z
-x,-y,-z
x,y,-z
-x,y,z
x,-y,z
1/2+x,1/2+y,z
1/2-x,1/2-y,z
1/2+x,1/2-y,-z
1/2-x,1/2+y,-z
1/2-x,1/2-y,-z
1/2+x,1/2+y,-z
1/2-x,1/2+y,z
1/2+x,1/2-y,z
loop_
_atom_site_type_symbol
_atom_site_label
_atom_site_fract_x
_atom_site_fract_y
_atom_site_fract_z
Si Si1 0.682061 0.919191 0.057567
Si Si2 0.683657 0.174196 0.248932
Si Si3 0.683180 0.078946 0.658738
Si Si4 0.319300 0.417556 0.554555
Si Si5 0.181329 0.825441 0.857305
O O1 0.500000 0.908770 0.063583
O O2 0.770388 0.874588 0.097745
O O3 0.711452 0.000000 0.064293
O O4 0.721157 0.901527 0.000000
O O5 0.500000 0.177205 0.246583
O O6 0.750000 0.250000 0.257030
O O7 0.730190 0.124875 0.294324
O O8 0.747845 0.149987 0.195435
O O9 0.500000 0.078207 0.657443
O O10 0.741352 0.106768 0.605381
O O11 0.735309 0.000000 0.664548
O O12 0.263834 0.392198 0.500000
O O13 0.500000 0.404942 0.557353
O O14 0.298112 0.500000 0.554074
O O15 0.250000 0.750000 0.866199
O O16 0.000000 0.820646 0.852799
#
# Coordination Sequence:
#
# PCOD9489824 Si02
#       5
#    16  16  16  16  16
#     4   9  19  37  59  81 107 139 171 205 251 303
#     4  10  20  35  53  72  98 132 168 206 250 300
#     4   9  18  31  48  72  98 125 160 201 245 293
#     4   8  14  25  42  66  96 127 157 193 240 290
#     4  11  22  36  55  78 104 135 173 214 254 299
#
# _framework density 17.4434
#
# number of rings (size 3 to 8) (size 9 to 14) (size 15 to 20)
#    0.000    2.600    0.000    4.800    0.000    4.000 
#    0.000    5.000    0.000    0.600    0.000    0.000 
#    0.000    0.000    0.000    0.000    0.000    0.000 
#
# Total GULP energy -223001.085206 kJ/mol
# GULP energy per Si atom -5575.027130 kJ/mol
# Density = 1.740370 g / cm^3
# Si number density = 17.443400 Si / 1000 Ang^3
#
#
#
# Elastic Constant Matrix: (Units=GPa)
#
#
# Indices 1 2 3 4 5 6 
#
# 1 59.3854 30.7428 63.4803 0.0000 0.0000 0.0000
# 2 30.7428 41.1660 72.7927 0.0000 0.0000 0.0000
# 3 63.4803 72.7927 181.1610 0.0000 0.0000 0.0000
# 4 0.0000 0.0000 0.0000 -112.9995 0.0000 0.0000
# 5 0.0000 0.0000 0.0000 0.0000 33.9133 0.0000
# 6 0.0000 0.0000 0.0000 0.0000 0.0000 22.5818
#
#
#
# Elastic Compliance Matrix: (Units=1/GPa)
#
#
# Indices 1 2 3 4 5 6 
#
# 1 0.028702 -0.012610 -0.004991 0.000000 0.000000 0.000000
# 2 -0.012610 0.089454 -0.031525 0.000000 0.000000 0.000000
# 3 -0.004991 -0.031525 0.019936 0.000000 0.000000 0.000000
# 4 0.000000 0.000000 0.000000 -0.008850 0.000000 0.000000
# 5 0.000000 0.000000 0.000000 0.000000 0.029487 0.000000
# 6 0.000000 0.000000 0.000000 0.000000 0.000000 0.044283
#
#
# Mechanical properties :
#
#
# Convention : Reuss Voigt Hill
#
# Bulk Modulus (GPa) = 25.10006 68.41600 46.75803
# Shear Modulus (GPa) = 15.89607 -3.65444 6.12081
#
# Velocity S-wave (km/s) = 3.02204 -1.44899 1.87525
# Velocity P-wave (km/s) = 5.15729 6.04214 5.61716
#
# Compressibility (1/GPa) = 0.03984054
#
# Stress axis : x y z
#
# Youngs Moduli (GPa) = 34.84118 11.17895 50.16090
#
# Poissons Ratio (x) = 0.14096 0.25033
# Poissons Ratio (y) = 0.43934 1.58133
# Poissons Ratio (z) = 0.17388 0.35242
#
# Static dielectric constant tensor:
#      x y z
#    x 1.586940 0.000000 0.000000 
#    y 0.000000 1.575590 0.000000 
#    z 0.000000 0.000000 1.607440 
# 
# From -- ./inp_files/72725.got.cif
#   From: 2010.05.17/outbox.cif.g08.bks.cpg/sg65_37_cif.got.tgz:72725.got - 2010.06.03 17:01:31.
