data_PCOD9489579
_publ_section_title
;
Structure prediction by ZEFSAII (Michael W. Deem and Ramdas Pophale) SiO2 
 PCOD9489579
Probable space group: C M M M
;
_chemical_formula_sum "Si O2"
_cell_formula_units_Z 80
_cell_length_a 20.947722
_cell_length_b 18.416734
_cell_length_c 11.434389
_cell_angle_alpha 90.000000
_cell_angle_beta 90.000000
_cell_angle_gamma 90.000000
_cell_volume 4411.257198
_symmetry_space_group_name_H-M "C M M M"
_symmetry_group_IT_number 65
_symmetry_cell_setting 'orthorhombic'
loop_
_space_group_symop_operation_xyz
x,y,z
-x,-y,z
x,-y,-z
-x,y,-z
-x,-y,-z
x,y,-z
-x,y,z
x,-y,z
1/2+x,1/2+y,z
1/2-x,1/2-y,z
1/2+x,1/2-y,-z
1/2-x,1/2+y,-z
1/2-x,1/2-y,-z
1/2+x,1/2+y,-z
1/2-x,1/2+y,z
1/2+x,1/2-y,z
loop_
_atom_site_type_symbol
_atom_site_label
_atom_site_fract_x
_atom_site_fract_y
_atom_site_fract_z
Si Si1 0.573564 0.811493 0.237485
Si Si2 0.828508 0.412710 0.636697
Si Si3 0.928884 0.161552 0.361834
Si Si4 0.923569 0.226826 0.000000
Si Si5 0.805416 0.914842 0.740874
Si Si6 0.161523 0.083941 0.000000
O O1 0.500000 0.836306 0.225782
O O2 0.620119 0.873739 0.281653
O O3 0.574958 0.746604 0.332171
O O4 0.592976 0.773072 0.115613
O O5 0.839538 0.396177 0.500000
O O6 0.831380 0.500000 0.650817
O O7 0.757513 0.387992 0.674616
O O8 0.924215 0.149077 0.500000
O O9 0.870453 0.123249 0.298067
O O10 0.000000 0.137224 0.321835
O O11 0.890412 0.148218 0.000000
O O12 0.000000 0.216604 0.000000
O O13 0.812032 0.000000 0.713260
O O14 0.798897 0.907511 0.880629
O O15 0.136363 0.000000 0.000000
#
# Coordination Sequence:
#
# PCOD9489579 Si02
#       6
#    16  16  16   8  16   8
#     4  10  21  38  59  85 115 146 189 242 292 342
#     4  10  22  40  61  84 113 152 194 239 292 346
#     4  10  20  34  54  80 113 152 189 232 287 343
#     4  10  20  38  60  85 119 155 189 236 290 340
#     4  10  21  37  56  83 117 150 191 239 283 337
#     4  10  20  36  59  84 115 157 197 236 281 330
#
# _framework density 18.135418999999999
#
# number of rings (size 3 to 8) (size 9 to 14) (size 15 to 20)
#    0.000    2.000    2.000    1.200    0.000    5.000 
#    0.000    8.500    0.000    1.800    0.000    0.000 
#    0.000    0.000    0.000    0.000    0.000    0.000 
#
# Total GULP energy -223126.276294 kJ/mol
# GULP energy per Si atom -5578.156907 kJ/mol
# Density = 1.809414 g / cm^3
# Si number density = 18.135419 Si / 1000 Ang^3
#
#
#
# Elastic Constant Matrix: (Units=GPa)
#
#
# Indices 1 2 3 4 5 6 
#
# 1 91.5841 45.0472 37.8578 0.0000 0.0000 0.0000
# 2 45.0472 50.2418 38.1018 0.0000 0.0000 0.0000
# 3 37.8578 38.1018 85.1748 0.0000 0.0000 0.0000
# 4 0.0000 0.0000 0.0000 27.0387 0.0000 0.0000
# 5 0.0000 0.0000 0.0000 0.0000 26.6595 0.0000
# 6 0.0000 0.0000 0.0000 0.0000 0.0000 35.1350
#
#
#
# Elastic Compliance Matrix: (Units=1/GPa)
#
#
# Indices 1 2 3 4 5 6 
#
# 1 0.019626 -0.016620 -0.001289 0.000000 0.000000 0.000000
# 2 -0.016620 0.044197 -0.012384 0.000000 0.000000 0.000000
# 3 -0.001289 -0.012384 0.017853 0.000000 0.000000 0.000000
# 4 0.000000 0.000000 0.000000 0.036984 0.000000 0.000000
# 5 0.000000 0.000000 0.000000 0.000000 0.037510 0.000000
# 6 0.000000 0.000000 0.000000 0.000000 0.000000 0.028462
#
#
# Mechanical properties :
#
#
# Convention : Reuss Voigt Hill
#
# Bulk Modulus (GPa) = 47.41239 52.11270 49.76255
# Shear Modulus (GPa) = 19.82182 24.83290 22.32736
#
# Velocity S-wave (km/s) = 3.30963 3.70443 3.51258
# Velocity P-wave (km/s) = 6.38789 6.86256 6.62947
#
# Compressibility (1/GPa) = 0.02109153
#
# Stress axis : x y z
#
# Youngs Moduli (GPa) = 50.95165 22.62609 56.01290
#
# Poissons Ratio (x) = 0.37604 0.07218
# Poissons Ratio (y) = 0.84681 0.69365
# Poissons Ratio (z) = 0.06566 0.28019
#
# Static dielectric constant tensor:
#      x y z
#    x 1.613250 0.000000 0.000000 
#    y 0.000000 1.600520 0.000000 
#    z 0.000000 0.000000 1.629320 
# 
# From -- ./inp_files/28575.got.cif
#   From: 2010.05.17/outbox.cif.g08.bks.cpg/sg65_15_cif.got.tgz:28575.got - 2010.06.03 17:01:31.
