data_PCOD9489488
_publ_section_title
;
Structure prediction by ZEFSAII (Michael W. Deem and Ramdas Pophale) SiO2 
 PCOD9489488
Probable space group: C M M M
;
_chemical_formula_sum "Si O2"
_cell_formula_units_Z 104
_cell_length_a 17.091494
_cell_length_b 28.077735
_cell_length_c 11.841546
_cell_angle_alpha 90.000000
_cell_angle_beta 90.000000
_cell_angle_gamma 90.000000
_cell_volume 5682.644712
_symmetry_space_group_name_H-M "C M M M"
_symmetry_group_IT_number 65
_symmetry_cell_setting 'orthorhombic'
loop_
_space_group_symop_operation_xyz
x,y,z
-x,-y,z
x,-y,-z
-x,y,-z
-x,-y,-z
x,y,-z
-x,y,z
x,-y,z
1/2+x,1/2+y,z
1/2-x,1/2-y,z
1/2+x,1/2-y,-z
1/2-x,1/2+y,-z
1/2-x,1/2-y,-z
1/2+x,1/2+y,-z
1/2-x,1/2+y,z
1/2+x,1/2-y,z
loop_
_atom_site_type_symbol
_atom_site_label
_atom_site_fract_x
_atom_site_fract_y
_atom_site_fract_z
Si Si1 0.904742 0.394668 0.000000
Si Si2 0.182423 0.676068 0.629088
Si Si3 0.869185 0.842927 0.627975
Si Si4 0.093903 0.718747 0.000000
Si Si5 0.909623 0.245955 0.756755
Si Si6 0.409378 0.000000 0.622236
Si Si7 0.318703 0.555052 0.367198
Si Si8 0.836967 0.582721 0.760725
O O1 0.863567 0.416574 0.110272
O O2 0.888749 0.337599 0.000000
O O3 0.000000 0.401209 0.000000
O O4 0.158328 0.667668 0.500000
O O5 0.276379 0.670267 0.632205
O O6 0.147020 0.725357 0.672474
O O7 0.150997 0.635359 0.711609
O O8 0.896488 0.832270 0.500000
O O9 0.907598 0.808919 0.719755
O O10 0.876284 0.899784 0.647035
O O11 0.119766 0.743557 0.883728
O O12 0.000000 0.723083 0.000000
O O13 0.000000 0.263066 0.747215
O O14 0.388555 0.046205 0.691705
O O15 0.500000 0.000000 0.606710
O O16 0.368544 0.000000 0.500000
O O17 0.291859 0.559973 0.500000
O O18 0.345157 0.500000 0.354649
O O19 0.249877 0.565636 0.277104
#
# Coordination Sequence:
#
# PCOD9489488 Si02
#       8
#     8  16  16   8  16   8  16  16
#     4  11  22  37  51  67 103 150 186 219 266 317
#     4  10  20  34  54  78 106 139 173 217 273 324
#     4   9  19  34  53  82 114 138 170 219 270 322
#     4   9  20  38  53  69 100 146 189 220 252 310
#     4  11  21  35  55  77 106 143 181 221 265 318
#     4  11  22  33  47  71 101 128 166 226 273 306
#     4   9  17  34  60  81 102 136 175 218 268 321
#     4  11  20  34  53  71  98 134 183 222 256 308
#
# _framework density 18.301338000000001
#
# number of rings (size 3 to 8) (size 9 to 14) (size 15 to 20)
#    0.000    1.923    2.308    3.692    0.000    3.385 
#    0.000    5.385    0.000    0.462    0.000    2.154 
#    0.000    1.846    0.000    0.000    0.000    0.000 
#
# Total GULP energy -289780.082595 kJ/mol
# GULP energy per Si atom -5572.693896 kJ/mol
# Density = 1.825968 g / cm^3
# Si number density = 18.301338 Si / 1000 Ang^3
#
#
#
# Elastic Constant Matrix: (Units=GPa)
#
#
# Indices 1 2 3 4 5 6 
#
# 1 15.5145 5.5644 13.1839 0.0000 0.0000 0.0000
# 2 5.5644 102.3557 30.4651 0.0000 0.0000 0.0000
# 3 13.1839 30.4651 129.6651 0.0000 0.0000 0.0000
# 4 0.0000 0.0000 0.0000 33.7809 0.0000 0.0000
# 5 0.0000 0.0000 0.0000 0.0000 16.9470 0.0000
# 6 0.0000 0.0000 0.0000 0.0000 0.0000 34.8659
#
#
#
# Elastic Compliance Matrix: (Units=1/GPa)
#
#
# Indices 1 2 3 4 5 6 
#
# 1 0.070871 -0.001836 -0.006775 0.000000 0.000000 0.000000
# 2 -0.001836 0.010552 -0.002293 0.000000 0.000000 0.000000
# 3 -0.006775 -0.002293 0.008940 0.000000 0.000000 0.000000
# 4 0.000000 0.000000 0.000000 0.029603 0.000000 0.000000
# 5 0.000000 0.000000 0.000000 0.000000 0.059008 0.000000
# 6 0.000000 0.000000 0.000000 0.000000 0.000000 0.028681
#
#
# Mechanical properties :
#
#
# Convention : Reuss Voigt Hill
#
# Bulk Modulus (GPa) = 14.58657 38.44024 26.51341
# Shear Modulus (GPa) = 19.81661 30.34020 25.07841
#
# Velocity S-wave (km/s) = 3.29416 4.07604 3.70578
# Velocity P-wave (km/s) = 4.73879 6.57281 5.72966
#
# Compressibility (1/GPa) = 0.06855621
#
# Stress axis : x y z
#
# Youngs Moduli (GPa) = 14.11005 94.76855 111.86165
#
# Poissons Ratio (x) = 0.17404 0.75781
# Poissons Ratio (y) = 0.02591 0.25644
# Poissons Ratio (z) = 0.09559 0.21726
#
# Static dielectric constant tensor:
#      x y z
#    x 1.650800 0.000000 0.000000 
#    y 0.000000 1.660210 0.000000 
#    z 0.000000 0.000000 1.648800 
# 
# From -- ./inp_files/27563.got.cif
#   From: 2010.05.17/outbox.cif.g08.bks.cpg/sg65_14_cif.got.tgz:27563.got - 2010.06.03 17:01:31.
