data_PCOD9489271
_publ_section_title
;
Structure prediction by ZEFSAII (Michael W. Deem and Ramdas Pophale) SiO2 
 PCOD9489271
Probable space group: C M M M
;
_chemical_formula_sum "Si O2"
_cell_formula_units_Z 96
_cell_length_a 14.626841
_cell_length_b 16.352113
_cell_length_c 21.433300
_cell_angle_alpha 90.000000
_cell_angle_beta 90.000000
_cell_angle_gamma 90.000000
_cell_volume 5126.411483
_symmetry_space_group_name_H-M "C M M M"
_symmetry_group_IT_number 65
_symmetry_cell_setting 'orthorhombic'
loop_
_space_group_symop_operation_xyz
x,y,z
-x,-y,z
x,-y,-z
-x,y,-z
-x,-y,-z
x,y,-z
-x,y,z
x,-y,z
1/2+x,1/2+y,z
1/2-x,1/2-y,z
1/2+x,1/2-y,-z
1/2-x,1/2+y,-z
1/2-x,1/2-y,-z
1/2+x,1/2+y,-z
1/2-x,1/2+y,z
1/2+x,1/2-y,z
loop_
_atom_site_type_symbol
_atom_site_label
_atom_site_fract_x
_atom_site_fract_y
_atom_site_fract_z
Si Si1 0.393993 0.839880 0.136701
Si Si2 0.602930 0.500000 0.891458
Si Si3 0.693183 0.000000 0.929190
Si Si4 0.106791 0.169307 0.815829
Si Si5 0.393121 0.401731 0.432031
Si Si6 0.216714 0.159461 0.685643
Si Si7 0.401300 0.905681 0.725106
O O1 0.500000 0.844137 0.115197
O O2 0.363942 0.744034 0.137728
O O3 0.392006 0.856885 0.210770
O O4 0.340559 0.915473 0.104455
O O5 0.500000 0.500000 0.920263
O O6 0.696474 0.500000 0.930030
O O7 0.609175 0.582162 0.850041
O O8 0.657955 0.000000 0.000000
O O9 0.166207 0.161131 0.752943
O O10 0.000000 0.185865 0.799600
O O11 0.356186 0.374147 0.500000
O O12 0.500000 0.380377 0.430162
O O13 0.386598 0.500000 0.430810
O O14 0.346329 0.368905 0.370373
O O15 0.250000 0.250000 0.673381
O O16 0.309589 0.107396 0.687265
O O17 0.500000 0.883974 0.695652
O O18 0.405231 0.000000 0.743252
#
# Coordination Sequence:
#
# PCOD9489271 Si02
#       7
#    16   8   8  16  16  16  16
#     4  10  20  38  60  85 123 155 187 240 302 356
#     4  10  24  42  61  84 119 163 202 245 305 357
#     4  12  25  39  64  93 119 157 207 248 285 348
#     4  10  22  39  60  89 122 155 192 246 307 365
#     4   9  20  39  59  80 113 157 202 248 296 347
#     4  12  22  31  56  88 118 151 192 242 294 362
#     4  10  20  34  52  78 113 154 189 231 293 351
#
# _framework density 18.726548999999999
#
# number of rings (size 3 to 8) (size 9 to 14) (size 15 to 20)
#    0.000    1.667    2.500    2.750    2.333    1.833 
#    0.000    1.667    0.000    3.500    0.000    2.333 
#    0.000    0.000    0.000    0.000    0.000    0.000 
#
# Total GULP energy -267472.842166 kJ/mol
# GULP energy per Si atom -5572.350878 kJ/mol
# Density = 1.868393 g / cm^3
# Si number density = 18.726549 Si / 1000 Ang^3
#
#
#
# Elastic Constant Matrix: (Units=GPa)
#
#
# Indices 1 2 3 4 5 6 
#
# 1 98.6941 32.6460 37.2638 0.0000 0.0000 0.0000
# 2 32.6460 116.1700 30.2552 0.0000 0.0000 0.0000
# 3 37.2638 30.2552 69.1147 0.0000 0.0000 0.0000
# 4 0.0000 0.0000 0.0000 10.4344 0.0000 0.0000
# 5 0.0000 0.0000 0.0000 0.0000 15.2556 0.0000
# 6 0.0000 0.0000 0.0000 0.0000 0.0000 16.8231
#
#
#
# Elastic Compliance Matrix: (Units=1/GPa)
#
#
# Indices 1 2 3 4 5 6 
#
# 1 0.013156 -0.002088 -0.006179 0.000000 0.000000 0.000000
# 2 -0.002088 0.010047 -0.003272 0.000000 0.000000 0.000000
# 3 -0.006179 -0.003272 0.019233 0.000000 0.000000 0.000000
# 4 0.000000 0.000000 0.000000 0.095837 0.000000 0.000000
# 5 0.000000 0.000000 0.000000 0.000000 0.065550 0.000000
# 6 0.000000 0.000000 0.000000 0.000000 0.000000 0.059442
#
#
# Mechanical properties :
#
#
# Convention : Reuss Voigt Hill
#
# Bulk Modulus (GPa) = 51.66123 53.81210 52.73667
# Shear Modulus (GPa) = 17.07674 20.75688 18.91681
#
# Velocity S-wave (km/s) = 3.02304 3.33291 3.18175
# Velocity P-wave (km/s) = 6.31127 6.60372 6.45915
#
# Compressibility (1/GPa) = 0.01935687
#
# Stress axis : x y z
#
# Youngs Moduli (GPa) = 76.01098 99.53152 51.99444
#
# Poissons Ratio (x) = 0.20780 0.32129
# Poissons Ratio (y) = 0.15869 0.17015
# Poissons Ratio (z) = 0.46969 0.32572
#
# Static dielectric constant tensor:
#      x y z
#    x 1.697730 0.000000 0.000000 
#    y 0.000000 1.650650 0.000000 
#    z 0.000000 0.000000 1.569280 
# 
# From -- ./inp_files/62682.got.cif
#   From: 2010.05.17/outbox.cif.g08.bks.cpg/sg65_32_cif.got.tgz:62682.got - 2010.06.03 17:01:31.
