data_PCOD9489914
_publ_section_title
;
Structure prediction by ZEFSAII (Michael W. Deem and Ramdas Pophale) SiO2 
 PCOD9489914
Probable space group: C M M M
;
_chemical_formula_sum "Si O2"
_cell_formula_units_Z 64
_cell_length_a 7.515810
_cell_length_b 22.280621
_cell_length_c 17.505945
_cell_angle_alpha 90.000000
_cell_angle_beta 90.000000
_cell_angle_gamma 90.000000
_cell_volume 2931.491528
_symmetry_space_group_name_H-M "C M M M"
_symmetry_group_IT_number 65
_symmetry_cell_setting 'orthorhombic'
loop_
_space_group_symop_operation_xyz
x,y,z
-x,-y,z
x,-y,-z
-x,y,-z
-x,-y,-z
x,y,-z
-x,y,z
x,-y,z
1/2+x,1/2+y,z
1/2-x,1/2-y,z
1/2+x,1/2-y,-z
1/2-x,1/2+y,-z
1/2-x,1/2-y,-z
1/2+x,1/2+y,-z
1/2-x,1/2+y,z
1/2+x,1/2-y,z
loop_
_atom_site_type_symbol
_atom_site_label
_atom_site_fract_x
_atom_site_fract_y
_atom_site_fract_z
Si Si1 0.783344 0.066891 0.910893
Si Si2 0.780533 0.000000 0.590009
Si Si3 0.795323 0.877953 0.342186
Si Si4 0.709930 0.819265 0.500000
Si Si5 0.213364 0.180430 0.188751
O O1 0.721956 0.126026 0.865568
O O2 0.000000 0.066950 0.907792
O O3 0.727775 0.000000 0.882708
O O4 0.733319 0.071312 0.000000
O O5 0.716429 0.057780 0.636459
O O6 0.727925 0.000000 0.500000
O O7 0.000000 0.000000 0.588281
O O8 0.790412 0.845029 0.422878
O O9 0.720747 0.837522 0.273891
O O10 0.000000 0.889825 0.320281
O O11 0.500000 0.831655 0.500000
O O12 0.750000 0.750000 0.500000
O O13 0.250000 0.250000 0.169462
O O14 0.000000 0.177450 0.187228
#
# Coordination Sequence:
#
# PCOD9489914 Si02
#       5
#    16   8  16   8  16
#     4   8  15  30  53  82 112 139 174 222 269 312
#     4   9  16  30  54  78  99 127 171 220 265 313
#     4  10  20  35  54  78 106 137 175 221 268 317
#     4  12  24  37  54  73  99 138 180 220 267 322
#     4  10  21  34  53  80 110 143 180 220 266 318
#
# _framework density 21.831889
#
# number of rings (size 3 to 8) (size 9 to 14) (size 15 to 20)
#    0.000    2.375    1.250    2.625    1.750    3.500 
#    0.000    1.250    0.000    0.750    0.000    1.750 
#    0.000    0.000    0.000    0.000    0.000    0.000 
#
# Total GULP energy -178458.001463 kJ/mol
# GULP energy per Si atom -5576.812546 kJ/mol
# Density = 2.178220 g / cm^3
# Si number density = 21.831889 Si / 1000 Ang^3
#
#
#
# Elastic Constant Matrix: (Units=GPa)
#
#
# Indices 1 2 3 4 5 6 
#
# 1 62.9585 -2.3406 -0.9094 0.0000 0.0000 0.0000
# 2 -2.3406 243.0538 93.5991 0.0000 0.0000 0.0000
# 3 -0.9094 93.5991 106.8118 0.0000 0.0000 0.0000
# 4 0.0000 0.0000 0.0000 77.0474 0.0000 0.0000
# 5 0.0000 0.0000 0.0000 0.0000-1931.4103 0.0000
# 6 0.0000 0.0000 0.0000 0.0000 0.0000 10.1631
#
#
#
# Elastic Compliance Matrix: (Units=1/GPa)
#
#
# Indices 1 2 3 4 5 6 
#
# 1 0.015889 0.000152 0.000002 0.000000 0.000000 0.000000
# 2 0.000152 0.006211 -0.005442 0.000000 0.000000 0.000000
# 3 0.000002 -0.005442 0.014131 0.000000 0.000000 0.000000
# 4 0.000000 0.000000 0.000000 0.012979 0.000000 0.000000
# 5 0.000000 0.000000 0.000000 0.000000 -0.000518 0.000000
# 6 0.000000 0.000000 0.000000 0.000000 0.000000 0.098395
#
#
# Mechanical properties :
#
#
# Convention : Reuss Voigt Hill
#
# Bulk Modulus (GPa) = 38.97696 65.94695 52.46195
# Shear Modulus (GPa) = 30.08158 -347.34163 -158.63003
#
# Velocity S-wave (km/s) = 3.71600 -12.62710 -8.53332
# Velocity P-wave (km/s) = 6.02524 13.50257 8.54447
#
# Compressibility (1/GPa) = 0.02565618
#
# Stress axis : x y z
#
# Youngs Moduli (GPa) = 62.93594 160.99503 70.76713
#
# Poissons Ratio (x) = -0.02452 -0.00013
# Poissons Ratio (y) = -0.00959 0.38510
# Poissons Ratio (z) = -0.00011 0.87609
#
# Static dielectric constant tensor:
#      x y z
#    x 1.880020 0.000000 0.000000 
#    y 0.000000 1.864070 0.000000 
#    z 0.000000 0.000000 1.565430 
# 
# From -- ./inp_files/36048.got.cif
#   From: 2010.05.17/outbox.cif.g08.bks.cpg/sg65_19_cif.got.tgz:36048.got - 2010.06.03 17:01:31.
