data_PCOD9489115
_publ_section_title
;
Structure prediction by ZEFSAII (Michael W. Deem and Ramdas Pophale) SiO2 
 PCOD9489115
Probable space group: C M M M
;
_chemical_formula_sum "Si O2"
_cell_formula_units_Z 88
_cell_length_a 26.540171
_cell_length_b 20.531542
_cell_length_c 8.984411
_cell_angle_alpha 90.000000
_cell_angle_beta 90.000000
_cell_angle_gamma 90.000000
_cell_volume 4895.701108
_symmetry_space_group_name_H-M "C M M M"
_symmetry_group_IT_number 65
_symmetry_cell_setting 'orthorhombic'
loop_
_space_group_symop_operation_xyz
x,y,z
-x,-y,z
x,-y,-z
-x,y,-z
-x,-y,-z
x,y,-z
-x,y,z
x,-y,z
1/2+x,1/2+y,z
1/2-x,1/2-y,z
1/2+x,1/2-y,-z
1/2-x,1/2+y,-z
1/2-x,1/2-y,-z
1/2+x,1/2+y,-z
1/2-x,1/2+y,z
1/2+x,1/2-y,z
loop_
_atom_site_type_symbol
_atom_site_label
_atom_site_fract_x
_atom_site_fract_y
_atom_site_fract_z
Si Si1 0.336579 0.000000 0.328403
Si Si2 0.439664 0.635155 0.175489
Si Si3 0.438846 0.500000 0.328778
Si Si4 0.137335 0.231493 0.677547
Si Si5 0.336092 0.135210 0.175820
Si Si6 0.785824 0.000000 0.671786
Si Si7 0.215066 0.135433 0.175836
O O1 0.351777 0.934067 0.244580
O O2 0.275341 0.000000 0.328021
O O3 0.352999 0.000000 0.500000
O O4 0.500000 0.641354 0.193241
O O5 0.423883 0.565652 0.244335
O O6 0.410238 0.691717 0.259976
O O7 0.428192 0.636763 0.000000
O O8 0.500000 0.500000 0.329777
O O9 0.421975 0.500000 0.500000
O O10 0.138022 0.231401 0.500000
O O11 0.139063 0.304254 0.741067
O O12 0.185652 0.192467 0.740971
O O13 0.275342 0.141430 0.194760
O O14 0.346424 0.137244 0.000000
O O15 0.800901 0.934124 0.755800
O O16 0.802233 0.000000 0.500000
O O17 0.204150 0.137785 0.000000
#
# Coordination Sequence:
#
# PCOD9489115 Si02
#       7
#     8  16   8  16  16   8  16
#     4   9  17  31  52  76 102 133 170 211 253 300
#     4  10  21  38  58  78 102 134 173 215 258 306
#     4   9  17  32  55  80 105 133 168 212 259 304
#     4  12  24  35  51  76 105 136 171 213 261 309
#     4  10  20  35  54  76 104 138 174 211 253 303
#     4   9  17  30  48  71 100 135 175 216 257 299
#     4  10  20  34  51  72 102 139 177 215 254 301
#
# _framework density 17.974952999999999
#
# number of rings (size 3 to 8) (size 9 to 14) (size 15 to 20)
#    0.000    1.909    0.000    4.636    0.000    9.455 
#    0.000    3.636    0.000    0.000    0.000    0.636 
#    0.000    5.091    0.000    0.000    0.000    0.000 
#
# Total GULP energy -245914.347678 kJ/mol
# GULP energy per Si atom -5588.962447 kJ/mol
# Density = 1.793404 g / cm^3
# Si number density = 17.974953 Si / 1000 Ang^3
#
#
#
# Elastic Constant Matrix: (Units=GPa)
#
#
# Indices 1 2 3 4 5 6 
#
# 1 40.7422 39.6291 41.4627 0.0000 0.0000 0.0000
# 2 39.6291 189.9422 106.1181 0.0000 0.0000 0.0000
# 3 41.4627 106.1181 181.9145 0.0000 0.0000 0.0000
# 4 0.0000 0.0000 0.0000 38.9770 0.0000 0.0000
# 5 0.0000 0.0000 0.0000 0.0000 19.4075 0.0000
# 6 0.0000 0.0000 0.0000 0.0000 0.0000 43.7478
#
#
#
# Elastic Compliance Matrix: (Units=1/GPa)
#
#
# Indices 1 2 3 4 5 6 
#
# 1 0.033980 -0.004098 -0.005354 0.000000 0.000000 0.000000
# 2 -0.004098 0.008304 -0.003910 0.000000 0.000000 0.000000
# 3 -0.005354 -0.003910 0.008998 0.000000 0.000000 0.000000
# 4 0.000000 0.000000 0.000000 0.025656 0.000000 0.000000
# 5 0.000000 0.000000 0.000000 0.000000 0.051527 0.000000
# 6 0.000000 0.000000 0.000000 0.000000 0.000000 0.022858
#
#
# Mechanical properties :
#
#
# Convention : Reuss Voigt Hill
#
# Bulk Modulus (GPa) = 40.72102 87.44655 64.08379
# Shear Modulus (GPa) = 26.84794 35.45240 31.15017
#
# Velocity S-wave (km/s) = 3.86894 4.44590 4.16742
# Velocity P-wave (km/s) = 6.53160 8.66657 7.67370
#
# Compressibility (1/GPa) = 0.02455734
#
# Stress axis : x y z
#
# Youngs Moduli (GPa) = 29.42947 120.41862 111.13068
#
# Poissons Ratio (x) = 0.49349 0.59501
# Poissons Ratio (y) = 0.12061 0.43454
# Poissons Ratio (z) = 0.15757 0.47086
#
# Static dielectric constant tensor:
#      x y z
#    x 1.625500 0.000000 0.000000 
#    y 0.000000 1.592480 0.000000 
#    z 0.000000 0.000000 1.593900 
# 
# From -- ./inp_files/18369.got.cif
#   From: 2010.05.17/outbox.cif.g08.bks.cpg/sg65_10_cif.got.tgz:18369.got - 2010.06.03 17:01:31.
