data_PCOD9489421
_publ_section_title
;
Structure prediction by ZEFSAII (Michael W. Deem and Ramdas Pophale) SiO2 
 PCOD9489421
Probable space group: C M M M
;
_chemical_formula_sum "Si O2"
_cell_formula_units_Z 128
_cell_length_a 20.829874
_cell_length_b 18.916845
_cell_length_c 18.531190
_cell_angle_alpha 90.000000
_cell_angle_beta 90.000000
_cell_angle_gamma 90.000000
_cell_volume 7301.946677
_symmetry_space_group_name_H-M "C M M M"
_symmetry_group_IT_number 65
_symmetry_cell_setting 'orthorhombic'
loop_
_space_group_symop_operation_xyz
x,y,z
-x,-y,z
x,-y,-z
-x,y,-z
-x,-y,-z
x,y,-z
-x,y,z
x,-y,z
1/2+x,1/2+y,z
1/2-x,1/2-y,z
1/2+x,1/2-y,-z
1/2-x,1/2+y,-z
1/2-x,1/2-y,-z
1/2+x,1/2+y,-z
1/2-x,1/2+y,z
1/2+x,1/2-y,z
loop_
_atom_site_type_symbol
_atom_site_label
_atom_site_fract_x
_atom_site_fract_y
_atom_site_fract_z
Si Si1 0.791736 0.421494 0.414166
Si Si2 0.241848 0.918459 0.831153
Si Si3 0.807310 0.695143 0.915710
Si Si4 0.213836 0.824781 0.691279
Si Si5 0.429096 0.137376 0.415267
Si Si6 0.572189 0.725583 0.686593
Si Si7 0.890895 0.079850 0.085922
Si Si8 0.430101 0.727487 0.142530
O O1 0.782282 0.415758 0.500000
O O2 0.772137 0.500000 0.390697
O O3 0.752031 0.362572 0.372811
O O4 0.867610 0.410696 0.400362
O O5 0.298652 0.874364 0.867784
O O6 0.220183 0.874941 0.760972
O O7 0.182912 0.917405 0.887984
O O8 0.256805 0.000000 0.814751
O O9 0.750000 0.750000 0.897305
O O10 0.873000 0.734747 0.898850
O O11 0.801765 0.678236 0.000000
O O12 0.250000 0.750000 0.705584
O O13 0.138626 0.815520 0.672338
O O14 0.424681 0.158828 0.500000
O O15 0.500000 0.104560 0.405623
O O16 0.425374 0.204880 0.363087
O O17 0.500000 0.693697 0.674938
O O18 0.575998 0.741649 0.772108
O O19 0.924782 0.143615 0.127344
O O20 0.914511 0.000000 0.101484
O O21 0.895530 0.091408 0.000000
O O22 0.500000 0.751991 0.118042
#
# Coordination Sequence:
#
# PCOD9489421 Si02
#       8
#    16  16  16  16  16  16  16  16
#     4  10  22  37  55  86 123 154 187 232 284 337
#     4  11  22  36  57  83 110 144 187 235 288 339
#     4  11  21  35  56  82 110 143 187 235 280 336
#     4  12  21  36  60  85 113 149 191 236 284 335
#     4   9  18  34  57  85 116 152 191 229 276 336
#     4  10  20  35  55  81 114 148 188 238 284 331
#     4  10  20  34  53  79 111 146 185 232 287 343
#     4  11  22  37  56  81 115 150 188 235 286 336
#
# _framework density 17.529572000000002
#
# number of rings (size 3 to 8) (size 9 to 14) (size 15 to 20)
#    0.000    1.500    3.750    2.250    0.000    3.000 
#    0.000    1.875    0.000    1.875    0.000    1.750 
#    0.000    0.000    0.000    0.000    0.000    0.000 
#
# Total GULP energy -357025.353673 kJ/mol
# GULP energy per Si atom -5578.521151 kJ/mol
# Density = 1.748967 g / cm^3
# Si number density = 17.529572 Si / 1000 Ang^3
#
#
#
# Elastic Constant Matrix: (Units=GPa)
#
#
# Indices 1 2 3 4 5 6 
#
# 1 110.3150 37.3392 15.7972 0.0000 0.0000 0.0000
# 2 37.3392 94.8176 29.3569 0.0000 0.0000 0.0000
# 3 15.7972 29.3569 44.7782 0.0000 0.0000 0.0000
# 4 0.0000 0.0000 0.0000 24.0394 0.0000 0.0000
# 5 0.0000 0.0000 0.0000 0.0000 2.1596 0.0000
# 6 0.0000 0.0000 0.0000 0.0000 0.0000 12.7925
#
#
#
# Elastic Compliance Matrix: (Units=1/GPa)
#
#
# Indices 1 2 3 4 5 6 
#
# 1 0.010514 -0.003754 -0.001248 0.000000 0.000000 0.000000
# 2 -0.003754 0.014573 -0.008230 0.000000 0.000000 0.000000
# 3 -0.001248 -0.008230 0.028168 0.000000 0.000000 0.000000
# 4 0.000000 0.000000 0.000000 0.041598 0.000000 0.000000
# 5 0.000000 0.000000 0.000000 0.000000 0.463051 0.000000
# 6 0.000000 0.000000 0.000000 0.000000 0.000000 0.078171
#
#
# Mechanical properties :
#
#
# Convention : Reuss Voigt Hill
#
# Bulk Modulus (GPa) = 37.32526 46.09971 41.71249
# Shear Modulus (GPa) = 7.44635 18.95947 13.20291
#
# Velocity S-wave (km/s) = 2.06327 3.29229 2.74739
# Velocity P-wave (km/s) = 5.19760 6.38808 5.82335
#
# Compressibility (1/GPa) = 0.02679151
#
# Stress axis : x y z
#
# Youngs Moduli (GPa) = 95.10792 68.62005 35.50110
#
# Poissons Ratio (x) = 0.25761 0.04431
# Poissons Ratio (y) = 0.35705 0.29217
# Poissons Ratio (z) = 0.11870 0.56473
#
# Static dielectric constant tensor:
#      x y z
#    x 1.619440 0.000000 0.000000 
#    y 0.000000 1.586370 0.000000 
#    z 0.000000 0.000000 1.582660 
# 
# From -- ./inp_files/56242.got.cif
#   From: 2010.05.17/outbox.cif.g08.bks.cpg/sg65_29_cif.got.tgz:56242.got - 2010.06.03 17:01:31.
