data_PCOD9489699
_publ_section_title
;
Structure prediction by ZEFSAII (Michael W. Deem and Ramdas Pophale) SiO2 
 PCOD9489699
Probable space group: C M M M
;
_chemical_formula_sum "Si O2"
_cell_formula_units_Z 88
_cell_length_a 19.630038
_cell_length_b 7.980160
_cell_length_c 30.360993
_cell_angle_alpha 90.000000
_cell_angle_beta 90.000000
_cell_angle_gamma 90.000000
_cell_volume 4756.075180
_symmetry_space_group_name_H-M "C M M M"
_symmetry_group_IT_number 65
_symmetry_cell_setting 'orthorhombic'
loop_
_space_group_symop_operation_xyz
x,y,z
-x,-y,z
x,-y,-z
-x,y,-z
-x,-y,-z
x,y,-z
-x,y,z
x,-y,z
1/2+x,1/2+y,z
1/2-x,1/2-y,z
1/2+x,1/2-y,-z
1/2-x,1/2+y,-z
1/2-x,1/2-y,-z
1/2+x,1/2+y,-z
1/2-x,1/2+y,z
1/2+x,1/2-y,z
loop_
_atom_site_type_symbol
_atom_site_label
_atom_site_fract_x
_atom_site_fract_y
_atom_site_fract_z
Si Si1 0.672789 0.300069 0.707540
Si Si2 0.081356 0.310210 0.111561
Si Si3 0.422989 0.200999 0.628088
Si Si4 0.827223 0.297700 0.550005
Si Si5 0.672159 0.298521 0.808017
Si Si6 0.417213 0.500000 0.949689
O O1 0.669639 0.500000 0.708008
O O2 0.750000 0.250000 0.695517
O O3 0.619163 0.236074 0.672198
O O4 0.659550 0.240974 0.757645
O O5 0.093819 0.500000 0.095694
O O6 0.121172 0.280281 0.156907
O O7 0.102910 0.166424 0.077161
O O8 0.000000 0.292226 0.118696
O O9 0.500000 0.266866 0.629910
O O10 0.380257 0.265846 0.586196
O O11 0.426775 0.000000 0.623307
O O12 0.840244 0.237791 0.500000
O O13 0.830797 0.500000 0.549360
O O14 0.750000 0.250000 0.561998
O O15 0.665429 0.500000 0.809726
O O16 0.750000 0.250000 0.818645
O O17 0.500000 0.500000 0.950999
O O18 0.392844 0.500000 0.000000
#
# Coordination Sequence:
#
# PCOD9489699 Si02
#       6
#    16  16  16  16  16   8
#     4  10  21  36  55  77 104 138 178 220 262 318
#     4  10  20  34  55  84 114 147 188 232 280 331
#     4  10  21  35  51  74 105 139 173 215 268 319
#     4   9  18  33  53  75  98 129 172 218 265 318
#     4  10  20  35  55  80 108 142 182 225 275 328
#     4   9  18  34  56  82 114 150 189 235 280 328
#
# _framework density 18.502651
#
# number of rings (size 3 to 8) (size 9 to 14) (size 15 to 20)
#    0.000    2.273    0.909    1.636    0.000    6.182 
#    0.000    7.273    0.000    0.545    0.000    3.818 
#    0.000    0.000    0.000    0.000    0.000    0.000 
#
# Total GULP energy -245549.260268 kJ/mol
# GULP energy per Si atom -5580.665006 kJ/mol
# Density = 1.846054 g / cm^3
# Si number density = 18.502651 Si / 1000 Ang^3
#
#
#
# Elastic Constant Matrix: (Units=GPa)
#
#
# Indices 1 2 3 4 5 6 
#
# 1 104.2569 34.9965 95.4191 0.0000 0.0000 0.0000
# 2 34.9965 68.3508 41.3736 0.0000 0.0000 0.0000
# 3 95.4191 41.3736 133.8225 0.0000 0.0000 0.0000
# 4 0.0000 0.0000 0.0000 10.6899 0.0000 0.0000
# 5 0.0000 0.0000 0.0000 0.0000 29.7221 0.0000
# 6 0.0000 0.0000 0.0000 0.0000 0.0000 24.5968
#
#
#
# Elastic Compliance Matrix: (Units=1/GPa)
#
#
# Indices 1 2 3 4 5 6 
#
# 1 0.028029 -0.002773 -0.019129 0.000000 0.000000 0.000000
# 2 -0.002773 0.018273 -0.003672 0.000000 0.000000 0.000000
# 3 -0.019129 -0.003672 0.022247 0.000000 0.000000 0.000000
# 4 0.000000 0.000000 0.000000 0.093546 0.000000 0.000000
# 5 0.000000 0.000000 0.000000 0.000000 0.033645 0.000000
# 6 0.000000 0.000000 0.000000 0.000000 0.000000 0.040656
#
#
# Mechanical properties :
#
#
# Convention : Reuss Voigt Hill
#
# Bulk Modulus (GPa) = 57.46364 72.22318 64.84341
# Shear Modulus (GPa) = 17.04479 21.97781 19.51130
#
# Velocity S-wave (km/s) = 3.03843 3.45022 3.25085
# Velocity P-wave (km/s) = 6.59044 7.41557 7.01514
#
# Compressibility (1/GPa) = 0.01740231
#
# Stress axis : x y z
#
# Youngs Moduli (GPa) = 35.67670 54.72545 44.94955
#
# Poissons Ratio (x) = 0.15174 0.85982
# Poissons Ratio (y) = 0.09892 0.16507
# Poissons Ratio (z) = 0.68244 0.20097
#
# Static dielectric constant tensor:
#      x y z
#    x 1.602490 0.000000 0.000000 
#    y 0.000000 1.682920 0.000000 
#    z 0.000000 0.000000 1.631680 
# 
# From -- ./inp_files/77844.got.cif
#   From: 2010.05.17/outbox.cif.g08.bks.cpg/sg65_39_cif.got.tgz:77844.got - 2010.06.03 17:01:31.
