data_PCOD9489230
_publ_section_title
;
Structure prediction by ZEFSAII (Michael W. Deem and Ramdas Pophale) SiO2 
 PCOD9489230
Probable space group: C M M M
;
_chemical_formula_sum "Si O2"
_cell_formula_units_Z 88
_cell_length_a 19.463059
_cell_length_b 26.497313
_cell_length_c 8.233616
_cell_angle_alpha 90.000000
_cell_angle_beta 90.000000
_cell_angle_gamma 90.000000
_cell_volume 4246.230285
_symmetry_space_group_name_H-M "C M M M"
_symmetry_group_IT_number 65
_symmetry_cell_setting 'orthorhombic'
loop_
_space_group_symop_operation_xyz
x,y,z
-x,-y,z
x,-y,-z
-x,y,-z
-x,-y,-z
x,y,-z
-x,y,z
x,-y,z
1/2+x,1/2+y,z
1/2-x,1/2-y,z
1/2+x,1/2-y,-z
1/2-x,1/2+y,-z
1/2-x,1/2-y,-z
1/2+x,1/2+y,-z
1/2-x,1/2+y,z
1/2+x,1/2-y,z
loop_
_atom_site_type_symbol
_atom_site_label
_atom_site_fract_x
_atom_site_fract_y
_atom_site_fract_z
Si Si1 0.079590 0.938217 0.500000
Si Si2 0.421587 0.852384 0.194474
Si Si3 0.713108 0.900860 0.315049
Si Si4 0.155903 0.940957 0.176663
Si Si5 0.421470 0.262943 0.693341
Si Si6 0.784129 0.803494 0.189263
O O1 0.117295 0.920315 0.335927
O O2 0.000000 0.923464 0.500000
O O3 0.082776 0.000000 0.500000
O O4 0.500000 0.866533 0.237228
O O5 0.364164 0.890728 0.257494
O O6 0.409270 0.796194 0.264758
O O7 0.416251 0.848725 0.000000
O O8 0.714530 0.918524 0.500000
O O9 0.762738 0.935416 0.207398
O O10 0.750641 0.846703 0.296531
O O11 0.138306 0.000000 0.170435
O O12 0.138450 0.918456 0.000000
O O13 0.414591 0.269488 0.500000
O O14 0.500000 0.274327 0.740888
O O15 0.364703 0.296178 0.782048
O O16 0.750000 0.750000 0.229628
O O17 0.769015 0.814493 0.000000
#
# Coordination Sequence:
#
# PCOD9489230 Si02
#       6
#     8  16  16  16  16  16
#     4   9  18  36  62  92 122 151 191 239 289 347
#     4  10  20  34  53  79 111 147 190 237 284 339
#     4  12  23  36  59  85 114 150 191 240 288 343
#     4  10  21  39  63  91 122 155 194 239 290 346
#     4  10  20  34  52  75 105 142 184 232 286 339
#     4  11  22  35  53  78 108 145 189 234 281 339
#
# _framework density 20.724264999999999
#
# number of rings (size 3 to 8) (size 9 to 14) (size 15 to 20)
#    0.000    1.545    2.727    3.273    0.000    3.273 
#    0.000    2.727    0.000    2.727    0.000    3.818 
#    0.000    0.000    0.000    0.000    0.000    0.000 
#
# Total GULP energy -245870.041839 kJ/mol
# GULP energy per Si atom -5587.955496 kJ/mol
# Density = 2.067710 g / cm^3
# Si number density = 20.724265 Si / 1000 Ang^3
#
#
#
# Elastic Constant Matrix: (Units=GPa)
#
#
# Indices 1 2 3 4 5 6 
#
# 1 124.4063 -1.0864 40.7411 0.0000 0.0000 0.0000
# 2 -1.0864 18.8982 5.2138 0.0000 0.0000 0.0000
# 3 40.7411 5.2138 108.3375 0.0000 0.0000 0.0000
# 4 0.0000 0.0000 0.0000 6.3708 0.0000 0.0000
# 5 0.0000 0.0000 0.0000 0.0000 23.3602 0.0000
# 6 0.0000 0.0000 0.0000 0.0000 0.0000 27.4782
#
#
#
# Elastic Compliance Matrix: (Units=1/GPa)
#
#
# Indices 1 2 3 4 5 6 
#
# 1 0.009209 0.001505 -0.003536 0.000000 0.000000 0.000000
# 2 0.001505 0.053873 -0.003159 0.000000 0.000000 0.000000
# 3 -0.003536 -0.003159 0.010712 0.000000 0.000000 0.000000
# 4 0.000000 0.000000 0.000000 0.156966 0.000000 0.000000
# 5 0.000000 0.000000 0.000000 0.000000 0.042808 0.000000
# 6 0.000000 0.000000 0.000000 0.000000 0.000000 0.036392
#
#
# Mechanical properties :
#
#
# Convention : Reuss Voigt Hill
#
# Bulk Modulus (GPa) = 15.76903 37.93099 26.85001
# Shear Modulus (GPa) = 14.64226 25.22676 19.93451
#
# Velocity S-wave (km/s) = 2.66094 3.49271 3.10480
# Velocity P-wave (km/s) = 4.13114 5.88284 5.08301
#
# Compressibility (1/GPa) = 0.06341545
#
# Stress axis : x y z
#
# Youngs Moduli (GPa) = 108.58741 18.56220 93.35322
#
# Poissons Ratio (x) = -0.02793 0.33006
# Poissons Ratio (y) = -0.16341 0.29486
# Poissons Ratio (z) = 0.38392 0.05863
#
# Static dielectric constant tensor:
#      x y z
#    x 1.744150 0.000000 0.000000 
#    y 0.000000 1.738490 0.000000 
#    z 0.000000 0.000000 1.740550 
# 
# From -- ./inp_files/10001.got.cif
#   From: 2010.05.17/outbox.cif.g08.bks.cpg/sg65_6_cif.got.tgz:10001.got - 2010.06.03 17:01:31.
