data_PCOD9489646
_publ_section_title
;
Structure prediction by ZEFSAII (Michael W. Deem and Ramdas Pophale) SiO2 
 PCOD9489646
Probable space group: C M M M
;
_chemical_formula_sum "Si O2"
_cell_formula_units_Z 64
_cell_length_a 18.513935
_cell_length_b 25.937725
_cell_length_c 7.507952
_cell_angle_alpha 90.000000
_cell_angle_beta 90.000000
_cell_angle_gamma 90.000000
_cell_volume 3605.388785
_symmetry_space_group_name_H-M "C M M M"
_symmetry_group_IT_number 65
_symmetry_cell_setting 'orthorhombic'
loop_
_space_group_symop_operation_xyz
x,y,z
-x,-y,z
x,-y,-z
-x,y,-z
-x,-y,-z
x,y,-z
-x,y,z
x,-y,z
1/2+x,1/2+y,z
1/2-x,1/2-y,z
1/2+x,1/2-y,-z
1/2-x,1/2+y,-z
1/2-x,1/2-y,-z
1/2+x,1/2+y,-z
1/2-x,1/2+y,z
1/2+x,1/2-y,z
loop_
_atom_site_type_symbol
_atom_site_label
_atom_site_fract_x
_atom_site_fract_y
_atom_site_fract_z
Si Si1 0.582609 0.146188 0.216988
Si Si2 0.695657 0.940935 0.211368
Si Si3 0.587950 0.260568 0.796814
Si Si4 0.412924 0.341073 0.500000
Si Si5 0.180891 0.058879 0.500000
O O1 0.500000 0.138274 0.277248
O O2 0.636004 0.100588 0.268617
O O3 0.608450 0.203424 0.270197
O O4 0.580636 0.147238 0.000000
O O5 0.767172 0.934830 0.328652
O O6 0.669992 0.000000 0.237789
O O7 0.709583 0.934287 0.000000
O O8 0.500000 0.259568 0.798846
O O9 0.610061 0.306950 0.670105
O O10 0.612652 0.267467 0.000000
O O11 0.500000 0.344275 0.500000
O O12 0.378652 0.397129 0.500000
O O13 0.152990 0.000000 0.500000
#
# Coordination Sequence:
#
# PCOD9489646 Si02
#       5
#    16  16  16   8   8
#     4   8  14  27  49  75 102 133 167 199 228 263
#     4   9  18  33  51  70  98 136 168 195 234 279
#     4   8  15  29  48  72 102 128 151 189 240 286
#     4  10  20  34  55  76  89 115 159 199 244 300
#     4  10  22  38  52  69  95 123 155 199 249 298
#
# _framework density 17.751207000000001
#
# number of rings (size 3 to 8) (size 9 to 14) (size 15 to 20)
#    0.000    3.250    0.000    1.500    0.000    2.750 
#    0.000    6.875    0.000    6.750    0.000    7.000 
#    0.000    0.000    0.000    0.000    0.000    0.000 
#
# Total GULP energy -178324.062657 kJ/mol
# GULP energy per Si atom -5572.626958 kJ/mol
# Density = 1.771080 g / cm^3
# Si number density = 17.751207 Si / 1000 Ang^3
#
#
#
# Elastic Constant Matrix: (Units=GPa)
#
#
# Indices 1 2 3 4 5 6 
#
# 1 33.5283 62.5797 25.6119 0.0000 0.0000 0.0000
# 2 62.5797 167.6536 59.0744 0.0000 0.0000 0.0000
# 3 25.6119 59.0744 76.5332 0.0000 0.0000 0.0000
# 4 0.0000 0.0000 0.0000 18.1898 0.0000 0.0000
# 5 0.0000 0.0000 0.0000 0.0000 12.2517 0.0000
# 6 0.0000 0.0000 0.0000 0.0000 0.0000 863.7580
#
#
#
# Elastic Compliance Matrix: (Units=1/GPa)
#
#
# Indices 1 2 3 4 5 6 
#
# 1 0.100587 -0.035280 -0.006429 0.000000 0.000000 0.000000
# 2 -0.035280 0.020567 -0.004069 0.000000 0.000000 0.000000
# 3 -0.006429 -0.004069 0.018359 0.000000 0.000000 0.000000
# 4 0.000000 0.000000 0.000000 0.054976 0.000000 0.000000
# 5 0.000000 0.000000 0.000000 0.000000 0.081621 0.000000
# 6 0.000000 0.000000 0.000000 0.000000 0.000000 0.001158
#
#
# Mechanical properties :
#
#
# Convention : Reuss Voigt Hill
#
# Bulk Modulus (GPa) = 20.85268 63.58300 42.21784
# Shear Modulus (GPa) = 12.99344 187.53651 100.26497
#
# Velocity S-wave (km/s) = 2.70844 10.28963 7.52370
# Velocity P-wave (km/s) = 4.64258 13.30659 9.96542
#
# Compressibility (1/GPa) = 0.04795546
#
# Stress axis : x y z
#
# Youngs Moduli (GPa) = 9.94169 48.62062 54.47060
#
# Poissons Ratio (x) = 1.71535 0.35021
# Poissons Ratio (y) = 0.35075 0.22164
# Poissons Ratio (z) = 0.06392 0.19784
#
# Static dielectric constant tensor:
#      x y z
#    x 1.570080 0.000000 0.000000 
#    y 0.000000 1.603430 0.000000 
#    z 0.000000 0.000000 1.630670 
# 
# From -- ./inp_files/6775.got.cif
#   From: 2010.05.17/outbox.cif.g08.bks.cpg/sg65_4_cif.got.tgz:6775.got - 2010.06.03 17:01:31.
