data_PCOD9489688
_publ_section_title
;
Structure prediction by ZEFSAII (Michael W. Deem and Ramdas Pophale) SiO2 
 PCOD9489688
Probable space group: C M M M
;
_chemical_formula_sum "Si O2"
_cell_formula_units_Z 104
_cell_length_a 8.862630
_cell_length_b 29.024779
_cell_length_c 23.368179
_cell_angle_alpha 90.000000
_cell_angle_beta 90.000000
_cell_angle_gamma 90.000000
_cell_volume 6011.134021
_symmetry_space_group_name_H-M "C M M M"
_symmetry_group_IT_number 65
_symmetry_cell_setting 'orthorhombic'
loop_
_space_group_symop_operation_xyz
x,y,z
-x,-y,z
x,-y,-z
-x,y,-z
-x,-y,-z
x,y,-z
-x,y,z
x,-y,z
1/2+x,1/2+y,z
1/2-x,1/2-y,z
1/2+x,1/2-y,-z
1/2-x,1/2+y,-z
1/2-x,1/2-y,-z
1/2+x,1/2+y,-z
1/2-x,1/2+y,z
1/2+x,1/2-y,z
loop_
_atom_site_type_symbol
_atom_site_label
_atom_site_fract_x
_atom_site_fract_y
_atom_site_fract_z
Si Si1 0.678986 0.446986 0.721773
Si Si2 0.818853 0.855667 0.885594
Si Si3 0.680115 0.860663 0.664814
Si Si4 0.680722 0.199055 0.778296
Si Si5 0.181475 0.800741 0.000000
Si Si6 0.819597 0.552665 0.151952
Si Si7 0.819993 0.799958 0.433014
O O1 0.500000 0.439460 0.728857
O O2 0.702567 0.500000 0.703643
O O3 0.747560 0.409897 0.678946
O O4 0.758924 0.441294 0.783311
O O5 0.749735 0.829415 0.831003
O O6 0.756988 0.907638 0.885086
O O7 0.000000 0.856074 0.880967
O O8 0.774886 0.828560 0.943034
O O9 0.500000 0.864549 0.660197
O O10 0.714154 0.827778 0.719340
O O11 0.748477 0.837369 0.608703
O O12 0.500000 0.201677 0.784781
O O13 0.750000 0.250000 0.777055
O O14 0.250000 0.750000 0.000000
O O15 0.000000 0.796862 0.000000
O O16 0.784060 0.500000 0.134559
O O17 0.000000 0.558319 0.151924
O O18 0.788400 0.809383 0.500000
O O19 0.750000 0.750000 0.419315
O O20 0.000000 0.798115 0.425260
#
# Coordination Sequence:
#
# PCOD9489688 Si02
#       7
#    16  16  16  16   8  16  16
#     4  10  20  34  55  83 114 148 185 226 276 333
#     4  11  22  38  59  81 109 144 185 231 278 333
#     4  11  22  35  55  83 115 148 185 230 278 332
#     4  11  23  36  52  79 112 144 181 226 278 330
#     4  10  24  42  59  82 107 143 190 231 275 332
#     4  10  20  35  56  83 114 145 181 226 276 332
#     4  10  21  37  57  81 112 151 194 236 277 328
#
# _framework density 17.301226
#
# number of rings (size 3 to 8) (size 9 to 14) (size 15 to 20)
#    0.000    1.538    1.538    3.692    0.000    8.308 
#    0.000    0.385    0.000    2.769    0.000    3.231 
#    0.000    0.000    0.000    0.000    0.000    0.000 
#
# Total GULP energy -290591.723561 kJ/mol
# GULP energy per Si atom -5588.302376 kJ/mol
# Density = 1.726185 g / cm^3
# Si number density = 17.301226 Si / 1000 Ang^3
#
#
#
# Elastic Constant Matrix: (Units=GPa)
#
#
# Indices 1 2 3 4 5 6 
#
# 1 66.5539 62.5694 47.3939 0.0000 0.0000 0.0000
# 2 62.5694 150.9871 68.6779 0.0000 0.0000 0.0000
# 3 47.3939 68.6779 83.6336 0.0000 0.0000 0.0000
# 4 0.0000 0.0000 0.0000 33.6510 0.0000 0.0000
# 5 0.0000 0.0000 0.0000 0.0000 18.7109 0.0000
# 6 0.0000 0.0000 0.0000 0.0000 0.0000 36.3890
#
#
#
# Elastic Compliance Matrix: (Units=1/GPa)
#
#
# Indices 1 2 3 4 5 6 
#
# 1 0.029601 -0.007401 -0.010697 0.000000 0.000000 0.000000
# 2 -0.007401 0.012422 -0.006007 0.000000 0.000000 0.000000
# 3 -0.010697 -0.006007 0.022951 0.000000 0.000000 0.000000
# 4 0.000000 0.000000 0.000000 0.029717 0.000000 0.000000
# 5 0.000000 0.000000 0.000000 0.000000 0.053445 0.000000
# 6 0.000000 0.000000 0.000000 0.000000 0.000000 0.027481
#
#
# Mechanical properties :
#
#
# Convention : Reuss Voigt Hill
#
# Bulk Modulus (GPa) = 59.64789 73.16190 66.40490
# Shear Modulus (GPa) = 21.79463 25.91906 23.85684
#
# Velocity S-wave (km/s) = 3.55310 3.87474 3.71740
# Velocity P-wave (km/s) = 7.16824 7.89918 7.54257
#
# Compressibility (1/GPa) = 0.01676505
#
# Stress axis : x y z
#
# Youngs Moduli (GPa) = 33.78306 80.49969 43.57065
#
# Poissons Ratio (x) = 0.59579 0.46606
# Poissons Ratio (y) = 0.25003 0.26172
# Poissons Ratio (z) = 0.36136 0.48355
#
# Static dielectric constant tensor:
#      x y z
#    x 1.576240 0.000000 0.000000 
#    y 0.000000 1.580120 0.000000 
#    z 0.000000 0.000000 1.560930 
# 
# From -- ./inp_files/60376.got.cif
#   From: 2010.05.17/outbox.cif.g08.bks.cpg/sg65_31_cif.got.tgz:60376.got - 2010.06.03 17:01:31.
