data_PCOD9489768
_publ_section_title
;
Structure prediction by ZEFSAII (Michael W. Deem and Ramdas Pophale) SiO2 
 PCOD9489768
Probable space group: C M M M
;
_chemical_formula_sum "Si O2"
_cell_formula_units_Z 64
_cell_length_a 7.727902
_cell_length_b 29.134470
_cell_length_c 13.581723
_cell_angle_alpha 90.000000
_cell_angle_beta 90.000000
_cell_angle_gamma 90.000000
_cell_volume 3057.902238
_symmetry_space_group_name_H-M "C M M M"
_symmetry_group_IT_number 65
_symmetry_cell_setting 'orthorhombic'
loop_
_space_group_symop_operation_xyz
x,y,z
-x,-y,z
x,-y,-z
-x,y,-z
-x,-y,-z
x,y,-z
-x,y,z
x,-y,z
1/2+x,1/2+y,z
1/2-x,1/2-y,z
1/2+x,1/2-y,-z
1/2-x,1/2+y,-z
1/2-x,1/2-y,-z
1/2+x,1/2+y,-z
1/2-x,1/2+y,z
1/2+x,1/2-y,z
loop_
_atom_site_type_symbol
_atom_site_label
_atom_site_fract_x
_atom_site_fract_y
_atom_site_fract_z
Si Si1 0.291843 0.393913 0.302876
Si Si2 0.789153 0.053844 0.108202
Si Si3 0.204599 0.551593 0.500000
Si Si4 0.707370 0.304175 0.000000
Si Si5 0.291850 0.303220 0.783545
O O1 0.500000 0.393474 0.296682
O O2 0.227207 0.420136 0.205094
O O3 0.250209 0.420466 0.402084
O O4 0.231773 0.341066 0.294520
O O5 0.000000 0.056482 0.108318
O O6 0.744130 0.000000 0.114647
O O7 0.733163 0.071283 0.000000
O O8 0.281385 0.500000 0.500000
O O9 0.000000 0.546990 0.500000
O O10 0.750000 0.250000 0.000000
O O11 0.771858 0.319006 0.107440
O O12 0.500000 0.311890 0.000000
O O13 0.500000 0.304845 0.787625
O O14 0.250000 0.250000 0.765685
#
# Coordination Sequence:
#
# PCOD9489768 Si02
#       5
#    16  16   8   8  16
#     4  10  20  34  57  84 108 139 184 230 271 317
#     4   8  14  25  45  77 111 136 163 210 272 327
#     4  11  25  43  60  79 106 141 180 225 278 333
#     4   8  14  26  44  70 107 146 179 213 256 307
#     4   9  18  31  50  78 112 148 183 221 265 316
#
# _framework density 20.929380999999999
#
# number of rings (size 3 to 8) (size 9 to 14) (size 15 to 20)
#    0.000    2.875    0.000    1.875    1.750    3.000 
#    0.000    0.625    0.000    0.750    0.000    3.500 
#    0.000    0.000    0.000    0.000    0.000    0.000 
#
# Total GULP energy -178409.653610 kJ/mol
# GULP energy per Si atom -5575.301675 kJ/mol
# Density = 2.088174 g / cm^3
# Si number density = 20.929381 Si / 1000 Ang^3
#
#
#
# Elastic Constant Matrix: (Units=GPa)
#
#
# Indices 1 2 3 4 5 6 
#
# 1 32.9075 12.8353 9.6609 0.0000 0.0000 0.0000
# 2 12.8353 159.8510 122.7471 0.0000 0.0000 0.0000
# 3 9.6609 122.7471 179.5109 0.0000 0.0000 0.0000
# 4 0.0000 0.0000 0.0000 40.9552 0.0000 0.0000
# 5 0.0000 0.0000 0.0000 0.0000 -15.7361 0.0000
# 6 0.0000 0.0000 0.0000 0.0000 0.0000 12.8190
#
#
#
# Elastic Compliance Matrix: (Units=1/GPa)
#
#
# Indices 1 2 3 4 5 6 
#
# 1 0.031371 -0.002574 0.000072 0.000000 0.000000 0.000000
# 2 -0.002574 0.013383 -0.009013 0.000000 0.000000 0.000000
# 3 0.000072 -0.009013 0.011730 0.000000 0.000000 0.000000
# 4 0.000000 0.000000 0.000000 0.024417 0.000000 0.000000
# 5 0.000000 0.000000 0.000000 0.000000 -0.063548 0.000000
# 6 0.000000 0.000000 0.000000 0.000000 0.000000 0.078009
#
#
# Mechanical properties :
#
#
# Convention : Reuss Voigt Hill
#
# Bulk Modulus (GPa) = 29.89189 73.63955 51.76572
# Shear Modulus (GPa) = 38.59712 22.74270 30.66991
#
# Velocity S-wave (km/s) = 4.29903 3.30000 3.83221
# Velocity P-wave (km/s) = 6.24143 7.05558 6.66095
#
# Compressibility (1/GPa) = 0.03345389
#
# Stress axis : x y z
#
# Youngs Moduli (GPa) = 31.87648 74.72011 85.25413
#
# Poissons Ratio (x) = 0.19234 -0.00612
# Poissons Ratio (y) = 0.08205 0.76838
# Poissons Ratio (z) = -0.00229 0.67344
#
# Static dielectric constant tensor:
#      x y z
#    x 1.786680 0.000000 0.000000 
#    y 0.000000 1.783740 0.000000 
#    z 0.000000 0.000000 1.760070 
# 
# From -- ./inp_files/21033.got.cif
#   From: 2010.05.17/outbox.cif.g08.bks.cpg/sg65_11_cif.got.tgz:21033.got - 2010.06.03 17:01:31.
