data_PCOD9489266
_publ_section_title
;
Structure prediction by ZEFSAII (Michael W. Deem and Ramdas Pophale) SiO2 
 PCOD9489266
Probable space group: C M M M
;
_chemical_formula_sum "Si O2"
_cell_formula_units_Z 72
_cell_length_a 8.471866
_cell_length_b 27.909421
_cell_length_c 14.963389
_cell_angle_alpha 90.000000
_cell_angle_beta 90.000000
_cell_angle_gamma 90.000000
_cell_volume 3538.016639
_symmetry_space_group_name_H-M "C M M M"
_symmetry_group_IT_number 65
_symmetry_cell_setting 'orthorhombic'
loop_
_space_group_symop_operation_xyz
x,y,z
-x,-y,z
x,-y,-z
-x,y,-z
-x,-y,-z
x,y,-z
-x,y,z
x,-y,z
1/2+x,1/2+y,z
1/2-x,1/2-y,z
1/2+x,1/2-y,-z
1/2-x,1/2+y,-z
1/2-x,1/2-y,-z
1/2+x,1/2+y,-z
1/2-x,1/2+y,z
1/2+x,1/2-y,z
loop_
_atom_site_type_symbol
_atom_site_label
_atom_site_fract_x
_atom_site_fract_y
_atom_site_fract_z
Si Si1 0.180015 0.885181 0.833147
Si Si2 0.323682 0.057254 0.686752
Si Si3 0.191391 0.195542 0.699755
Si Si4 0.678860 0.442145 0.500000
Si Si5 0.312558 0.944020 0.000000
Si Si6 0.309804 0.695433 0.500000
O O1 0.193188 0.922893 0.752658
O O2 0.245629 0.837657 0.782791
O O3 0.000000 0.875659 0.859725
O O4 0.263019 0.912218 0.914677
O O5 0.500000 0.074597 0.710403
O O6 0.275351 0.070718 0.587264
O O7 0.326372 0.000000 0.692326
O O8 0.250000 0.250000 0.709370
O O9 0.240169 0.177634 0.599458
O O10 0.000000 0.194605 0.701239
O O11 0.666259 0.500000 0.500000
O O12 0.500000 0.422570 0.500000
O O13 0.500000 0.948224 0.000000
O O14 0.250800 0.000000 0.000000
O O15 0.500000 0.694395 0.500000
O O16 0.250000 0.750000 0.500000
#
# Coordination Sequence:
#
# PCOD9489266 Si02
#       6
#    16  16  16   8   8   8
#     4  11  23  38  59  87 114 145 190 240 292 351
#     4  10  20  34  52  77 111 149 188 231 281 341
#     4   9  19  35  57  86 120 157 195 236 281 334
#     4   9  17  30  49  74 107 148 190 232 281 336
#     4  11  25  45  66  87 112 145 188 241 302 363
#     4   8  14  29  52  79 114 153 189 226 270 320
#
# _framework density 20.350384999999999
#
# number of rings (size 3 to 8) (size 9 to 14) (size 15 to 20)
#    0.000    2.222    0.000    2.667    0.000    8.889 
#    0.000    2.778    0.000    2.667    0.000    0.000 
#    0.000    0.000    0.000    0.000    0.000    0.000 
#
# Total GULP energy -200636.303339 kJ/mol
# GULP energy per Si atom -5573.230648 kJ/mol
# Density = 2.030407 g / cm^3
# Si number density = 20.350385 Si / 1000 Ang^3
#
#
#
# Elastic Constant Matrix: (Units=GPa)
#
#
# Indices 1 2 3 4 5 6 
#
# 1 29.0302 21.2058 5.1246 0.0000 0.0000 0.0000
# 2 21.2058 135.1784 60.0719 0.0000 0.0000 0.0000
# 3 5.1246 60.0719 142.4059 0.0000 0.0000 0.0000
# 4 0.0000 0.0000 0.0000 17.8492 0.0000 0.0000
# 5 0.0000 0.0000 0.0000 0.0000 17.8250 0.0000
# 6 0.0000 0.0000 0.0000 0.0000 0.0000 17.7473
#
#
#
# Elastic Compliance Matrix: (Units=1/GPa)
#
#
# Indices 1 2 3 4 5 6 
#
# 1 0.039148 -0.006788 0.001454 0.000000 0.000000 0.000000
# 2 -0.006788 0.010281 -0.004093 0.000000 0.000000 0.000000
# 3 0.001454 -0.004093 0.008696 0.000000 0.000000 0.000000
# 4 0.000000 0.000000 0.000000 0.056025 0.000000 0.000000
# 5 0.000000 0.000000 0.000000 0.000000 0.056101 0.000000
# 6 0.000000 0.000000 0.000000 0.000000 0.000000 0.056347
#
#
# Mechanical properties :
#
#
# Convention : Reuss Voigt Hill
#
# Bulk Modulus (GPa) = 25.46211 53.26878 39.36545
# Shear Modulus (GPa) = 19.33926 25.36511 22.35219
#
# Velocity S-wave (km/s) = 3.08606 3.53430 3.31776
# Velocity P-wave (km/s) = 5.02368 6.54887 5.83631
#
# Compressibility (1/GPa) = 0.03927404
#
# Stress axis : x y z
#
# Youngs Moduli (GPa) = 25.54389 97.26503 114.99155
#
# Poissons Ratio (x) = 0.66020 -0.16725
# Poissons Ratio (y) = 0.17338 0.47063
# Poissons Ratio (z) = -0.03715 0.39808
#
# Static dielectric constant tensor:
#      x y z
#    x 1.775740 0.000000 0.000000 
#    y 0.000000 1.790110 0.000000 
#    z 0.000000 0.000000 1.731610 
# 
# From -- ./inp_files/36636.got.cif
#   From: 2010.05.17/outbox.cif.g08.bks.cpg/sg65_19_cif.got.tgz:36636.got - 2010.06.03 17:01:31.
