data_PCOD9489702
_publ_section_title
;
Structure prediction by ZEFSAII (Michael W. Deem and Ramdas Pophale) SiO2 
 PCOD9489702
Probable space group: C M M M
;
_chemical_formula_sum "Si O2"
_cell_formula_units_Z 64
_cell_length_a 19.403442
_cell_length_b 8.104665
_cell_length_c 22.547016
_cell_angle_alpha 90.000000
_cell_angle_beta 90.000000
_cell_angle_gamma 90.000000
_cell_volume 3545.707599
_symmetry_space_group_name_H-M "C M M M"
_symmetry_group_IT_number 65
_symmetry_cell_setting 'orthorhombic'
loop_
_space_group_symop_operation_xyz
x,y,z
-x,-y,z
x,-y,-z
-x,y,-z
-x,-y,-z
x,y,-z
-x,y,z
x,-y,z
1/2+x,1/2+y,z
1/2-x,1/2-y,z
1/2+x,1/2-y,-z
1/2-x,1/2+y,-z
1/2-x,1/2-y,-z
1/2+x,1/2+y,-z
1/2-x,1/2+y,z
1/2+x,1/2-y,z
loop_
_atom_site_type_symbol
_atom_site_label
_atom_site_fract_x
_atom_site_fract_y
_atom_site_fract_z
Si Si1 0.077397 0.196226 0.500000
Si Si2 0.082732 0.187389 0.147715
Si Si3 0.916236 0.500000 0.067895
Si Si4 0.328839 0.801028 0.257346
Si Si5 0.327750 0.196479 0.392150
O O1 0.119272 0.246544 0.441632
O O2 0.000000 0.266123 0.500000
O O3 0.073176 0.000000 0.500000
O O4 0.104272 0.333724 0.102880
O O5 0.120722 0.221081 0.209644
O O6 0.000000 0.199884 0.155346
O O7 0.097850 0.000000 0.127221
O O8 0.000000 0.500000 0.066754
O O9 0.892081 0.500000 0.000000
O O10 0.250000 0.750000 0.244612
O O11 0.343506 0.745513 0.325063
O O12 0.334896 0.000000 0.254104
O O13 0.250000 0.250000 0.407329
O O14 0.328565 0.000000 0.390591
#
# Coordination Sequence:
#
# PCOD9489702 Si02
#       5
#     8  16   8  16  16
#     4  11  24  39  54  75 107 145 182 227 282 331
#     4  10  20  34  55  84 115 148 187 231 281 331
#     4   9  18  34  56  82 114 149 188 232 273 327
#     4  10  20  35  56  83 111 144 184 229 280 332
#     4  10  21  37  58  80 106 140 183 228 272 330
#
# _framework density 18.049994000000002
#
# number of rings (size 3 to 8) (size 9 to 14) (size 15 to 20)
#    0.000    2.000    1.250    2.250    0.000    5.500 
#    0.000    7.500    0.000    0.750    0.000    0.000 
#    0.000    0.000    0.000    0.000    0.000    0.000 
#
# Total GULP energy -178584.992144 kJ/mol
# GULP energy per Si atom -5580.781004 kJ/mol
# Density = 1.800891 g / cm^3
# Si number density = 18.049994 Si / 1000 Ang^3
#
#
#
# Elastic Constant Matrix: (Units=GPa)
#
#
# Indices 1 2 3 4 5 6 
#
# 1 65.9455 41.6937 76.7050 0.0000 0.0000 0.0000
# 2 41.6937 110.4229 62.8397 0.0000 0.0000 0.0000
# 3 76.7050 62.8397 137.4857 0.0000 0.0000 0.0000
# 4 0.0000 0.0000 0.0000 -25.9388 0.0000 0.0000
# 5 0.0000 0.0000 0.0000 0.0000 38.7425 0.0000
# 6 0.0000 0.0000 0.0000 0.0000 0.0000 25.7644
#
#
#
# Elastic Compliance Matrix: (Units=1/GPa)
#
#
# Indices 1 2 3 4 5 6 
#
# 1 0.044224 -0.003591 -0.023032 0.000000 0.000000 0.000000
# 2 -0.003591 0.012531 -0.003724 0.000000 0.000000 0.000000
# 3 -0.023032 -0.003724 0.021825 0.000000 0.000000 0.000000
# 4 0.000000 0.000000 0.000000 -0.038552 0.000000 0.000000
# 5 0.000000 0.000000 0.000000 0.000000 0.025811 0.000000
# 6 0.000000 0.000000 0.000000 0.000000 0.000000 0.038813
#
#
# Mechanical properties :
#
#
# Convention : Reuss Voigt Hill
#
# Bulk Modulus (GPa) = 55.90736 75.14787 65.52762
# Shear Modulus (GPa) = 29.18692 16.55467 22.87079
#
# Velocity S-wave (km/s) = 4.02556 3.03174 3.56347
# Velocity P-wave (km/s) = 7.25588 7.34703 7.30160
#
# Compressibility (1/GPa) = 0.01788673
#
# Stress axis : x y z
#
# Youngs Moduli (GPa) = 22.61206 79.79981 45.81837
#
# Poissons Ratio (x) = 0.28658 1.05528
# Poissons Ratio (y) = 0.08121 0.17063
# Poissons Ratio (z) = 0.52080 0.29718
#
# Static dielectric constant tensor:
#      x y z
#    x 1.622100 0.000000 0.000000 
#    y 0.000000 1.635030 0.000000 
#    z 0.000000 0.000000 1.618380 
# 
# From -- ./inp_files/63267.got.cif
#   From: 2010.05.17/outbox.cif.g08.bks.cpg/sg65_32_cif.got.tgz:63267.got - 2010.06.03 17:01:31.
