data_PCOD9489369
_publ_section_title
;
Structure prediction by ZEFSAII (Michael W. Deem and Ramdas Pophale) SiO2 
 PCOD9489369
Probable space group: C M M M
;
_chemical_formula_sum "Si O2"
_cell_formula_units_Z 88
_cell_length_a 8.381324
_cell_length_b 32.046442
_cell_length_c 17.529579
_cell_angle_alpha 90.000000
_cell_angle_beta 90.000000
_cell_angle_gamma 90.000000
_cell_volume 4708.297907
_symmetry_space_group_name_H-M "C M M M"
_symmetry_group_IT_number 65
_symmetry_cell_setting 'orthorhombic'
loop_
_space_group_symop_operation_xyz
x,y,z
-x,-y,z
x,-y,-z
-x,y,-z
-x,-y,-z
x,y,-z
-x,y,z
x,-y,z
1/2+x,1/2+y,z
1/2-x,1/2-y,z
1/2+x,1/2-y,-z
1/2-x,1/2+y,-z
1/2-x,1/2-y,-z
1/2+x,1/2+y,-z
1/2-x,1/2+y,z
1/2+x,1/2-y,z
loop_
_atom_site_type_symbol
_atom_site_label
_atom_site_fract_x
_atom_site_fract_y
_atom_site_fract_z
Si Si1 0.191004 0.295566 0.661745
Si Si2 0.306152 0.575302 0.500000
Si Si3 0.191369 0.172277 0.500000
Si Si4 0.306819 0.453700 0.333373
Si Si5 0.308540 0.090108 0.913787
Si Si6 0.319703 0.500000 0.092554
Si Si7 0.192646 0.373816 0.760650
O O1 0.250000 0.250000 0.684995
O O2 0.247980 0.305719 0.576247
O O3 0.250599 0.332810 0.716497
O O4 0.000000 0.295871 0.662410
O O5 0.500000 0.574843 0.500000
O O6 0.255430 0.623762 0.500000
O O7 0.256501 0.553540 0.578518
O O8 0.000000 0.172887 0.500000
O O9 0.500000 0.452269 0.330911
O O10 0.256531 0.500000 0.307629
O O11 0.242688 0.415313 0.284595
O O12 0.500000 0.092764 0.917532
O O13 0.265009 0.043158 0.887819
O O14 0.250840 0.121081 0.847895
O O15 0.246067 0.096789 0.000000
O O16 0.500000 0.500000 0.122658
O O17 0.325082 0.500000 0.000000
O O18 0.000000 0.372275 0.761530
#
# Coordination Sequence:
#
# PCOD9489369 Si02
#       7
#    16   8   8  16  16   8  16
#     4  11  23  39  58  81 108 137 173 219 272 322
#     4   9  17  32  53  74 103 141 181 217 251 301
#     4  11  20  35  59  82 107 142 178 215 263 315
#     4  10  20  34  53  77 106 144 185 220 258 307
#     4   9  18  34  54  74 101 141 181 214 257 313
#     4   9  17  29  47  75 107 136 171 216 259 301
#     4  10  22  37  54  78 107 137 175 224 267 311
#
# _framework density 18.690407
#
# number of rings (size 3 to 8) (size 9 to 14) (size 15 to 20)
#    0.000    2.091    1.818    1.636    1.273    4.000 
#    0.000    0.455    0.000    1.636    0.000    0.000 
#    0.000    0.000    0.000    0.000    0.000    0.182 
#
# Total GULP energy -245624.846322 kJ/mol
# GULP energy per Si atom -5582.382871 kJ/mol
# Density = 1.864787 g / cm^3
# Si number density = 18.690407 Si / 1000 Ang^3
#
#
#
# Elastic Constant Matrix: (Units=GPa)
#
#
# Indices 1 2 3 4 5 6 
#
# 1 15.2259 16.0909 14.2939 0.0000 0.0000 0.0000
# 2 16.0909 154.1842 75.9267 0.0000 0.0000 0.0000
# 3 14.2939 75.9267 134.2889 0.0000 0.0000 0.0000
# 4 0.0000 0.0000 0.0000 3.8632 0.0000 0.0000
# 5 0.0000 0.0000 0.0000 0.0000 9.2739 0.0000
# 6 0.0000 0.0000 0.0000 0.0000 0.0000 21.5503
#
#
#
# Elastic Compliance Matrix: (Units=1/GPa)
#
#
# Indices 1 2 3 4 5 6 
#
# 1 0.076174 -0.005484 -0.005008 0.000000 0.000000 0.000000
# 2 -0.005484 0.009383 -0.004721 0.000000 0.000000 0.000000
# 3 -0.005008 -0.004721 0.010649 0.000000 0.000000 0.000000
# 4 0.000000 0.000000 0.000000 0.258852 0.000000 0.000000
# 5 0.000000 0.000000 0.000000 0.000000 0.107830 0.000000
# 6 0.000000 0.000000 0.000000 0.000000 0.000000 0.046403
#
#
# Mechanical properties :
#
#
# Convention : Reuss Voigt Hill
#
# Bulk Modulus (GPa) = 15.20209 57.36912 36.28560
# Shear Modulus (GPa) = 8.90245 20.09664 14.49955
#
# Velocity S-wave (km/s) = 2.18482 3.28264 2.78830
# Velocity P-wave (km/s) = 3.80997 6.71779 5.46098
#
# Compressibility (1/GPa) = 0.06578044
#
# Stress axis : x y z
#
# Youngs Moduli (GPa) = 13.12790 106.57463 93.90405
#
# Poissons Ratio (x) = 0.58442 0.47023
# Poissons Ratio (y) = 0.07199 0.44337
# Poissons Ratio (z) = 0.06574 0.50319
#
# Static dielectric constant tensor:
#      x y z
#    x 1.645760 0.000000 0.000000 
#    y 0.000000 1.634110 0.000000 
#    z 0.000000 0.000000 1.679620 
# 
# From -- ./inp_files/50481.got.cif
#   From: 2010.05.17/outbox.cif.g08.bks.cpg/sg65_26_cif.got.tgz:50481.got - 2010.06.03 17:01:31.
