data_PCOD9489468
_publ_section_title
;
Structure prediction by ZEFSAII (Michael W. Deem and Ramdas Pophale) SiO2 
 PCOD9489468
Probable space group: C M M M
;
_chemical_formula_sum "Si O2"
_cell_formula_units_Z 88
_cell_length_a 7.666454
_cell_length_b 18.465777
_cell_length_c 29.945955
_cell_angle_alpha 90.000000
_cell_angle_beta 90.000000
_cell_angle_gamma 90.000000
_cell_volume 4239.359908
_symmetry_space_group_name_H-M "C M M M"
_symmetry_group_IT_number 65
_symmetry_cell_setting 'orthorhombic'
loop_
_space_group_symop_operation_xyz
x,y,z
-x,-y,z
x,-y,-z
-x,y,-z
-x,-y,-z
x,y,-z
-x,y,z
x,-y,z
1/2+x,1/2+y,z
1/2-x,1/2-y,z
1/2+x,1/2-y,-z
1/2-x,1/2+y,-z
1/2-x,1/2-y,-z
1/2+x,1/2+y,-z
1/2-x,1/2+y,z
1/2+x,1/2-y,z
loop_
_atom_site_type_symbol
_atom_site_label
_atom_site_fract_x
_atom_site_fract_y
_atom_site_fract_z
Si Si1 0.213664 0.583635 0.266201
Si Si2 0.709765 0.835976 0.547979
Si Si3 0.709953 0.164670 0.645150
Si Si4 0.705360 0.334690 0.000000
Si Si5 0.709802 0.165341 0.177230
Si Si6 0.292506 0.918274 0.909890
O O1 0.265715 0.500000 0.263525
O O2 0.274175 0.620909 0.312031
O O3 0.272919 0.627826 0.222732
O O4 0.000000 0.585285 0.266456
O O5 0.775412 0.864908 0.500000
O O6 0.500000 0.844711 0.547829
O O7 0.750000 0.750000 0.547941
O O8 0.774998 0.861803 0.596383
O O9 0.500000 0.157845 0.644435
O O10 0.750000 0.250000 0.649898
O O11 0.750000 0.250000 0.000000
O O12 0.769514 0.374063 0.044630
O O13 0.500000 0.341499 0.000000
O O14 0.500000 0.158452 0.177326
O O15 0.750000 0.250000 0.176104
O O16 0.777785 0.124857 0.133012
O O17 0.500000 0.924355 0.903098
O O18 0.221851 0.000000 0.913405
#
# Coordination Sequence:
#
# PCOD9489468 Si02
#       6
#    16  16  16   8  16  16
#     4   9  17  30  48  69  93 123 160 197 235 286
#     4   8  13  21  34  55  83 112 144 184 229 276
#     4   9  16  26  43  65  88 117 152 192 236 280
#     4  12  25  40  59  83 111 143 179 216 253 292
#     4  10  20  34  54  78 102 130 164 203 245 290
#     4  10  21  38  59  82 109 140 172 207 251 301
#
# _framework density 20.757852
#
# number of rings (size 3 to 8) (size 9 to 14) (size 15 to 20)
#    0.000    2.545    0.000    2.727    0.000    5.818 
#    0.000    0.000    0.000    3.818    0.000    3.818 
#    0.000    0.000    0.000   29.455    0.000   13.818 
#
# Total GULP energy -245480.654345 kJ/mol
# GULP energy per Si atom -5579.105781 kJ/mol
# Density = 2.071061 g / cm^3
# Si number density = 20.757852 Si / 1000 Ang^3
#
#
#
# Elastic Constant Matrix: (Units=GPa)
#
#
# Indices 1 2 3 4 5 6 
#
# 1 40.2565 -0.9444 5.3225 0.0000 0.0000 0.0000
# 2 -0.9444 153.5859 124.7474 0.0000 0.0000 0.0000
# 3 5.3225 124.7474 266.5402 0.0000 0.0000 0.0000
# 4 0.0000 0.0000 0.0000 -8.9704 0.0000 0.0000
# 5 0.0000 0.0000 0.0000 0.0000 -94.4143 0.0000
# 6 0.0000 0.0000 0.0000 0.0000 0.0000 18.4776
#
#
#
# Elastic Compliance Matrix: (Units=1/GPa)
#
#
# Indices 1 2 3 4 5 6 
#
# 1 0.024984 0.000902 -0.000921 0.000000 0.000000 0.000000
# 2 0.000902 0.010537 -0.004949 0.000000 0.000000 0.000000
# 3 -0.000921 -0.004949 0.006087 0.000000 0.000000 0.000000
# 4 0.000000 0.000000 0.000000 -0.111478 0.000000 0.000000
# 5 0.000000 0.000000 0.000000 0.000000 -0.010592 0.000000
# 6 0.000000 0.000000 0.000000 0.000000 0.000000 0.054120
#
#
# Mechanical properties :
#
#
# Convention : Reuss Voigt Hill
#
# Bulk Modulus (GPa) = 31.57613 79.84817 55.71215
# Shear Modulus (GPa) = -854.84978 5.10238 -424.87370
#
# Velocity S-wave (km/s) = -20.31536 1.56952 -14.32220
# Velocity P-wave (km/s) = 23.13095 6.46796 15.70360
#
# Compressibility (1/GPa) = 0.03166949
#
# Stress axis : x y z
#
# Youngs Moduli (GPa) = 40.02623 94.90707 164.29506
#
# Poissons Ratio (x) = -0.08557 0.15129
# Poissons Ratio (y) = -0.03609 0.81316
# Poissons Ratio (z) = 0.03686 0.46973
#
# Static dielectric constant tensor:
#      x y z
#    x 1.774860 0.000000 0.000000 
#    y 0.000000 1.730500 0.000000 
#    z 0.000000 0.000000 1.834140 
# 
# From -- ./inp_files/76453.got.cif
#   From: 2010.05.17/outbox.cif.g08.bks.cpg/sg65_39_cif.got.tgz:76453.got - 2010.06.03 17:01:31.
