data_PCOD9489720
_publ_section_title
;
Structure prediction by ZEFSAII (Michael W. Deem and Ramdas Pophale) SiO2 
 PCOD9489720
Probable space group: C M M M
;
_chemical_formula_sum "Si O2"
_cell_formula_units_Z 58
_cell_length_a 34.052707
_cell_length_b 8.942188
_cell_length_c 10.488393
_cell_angle_alpha 90.000000
_cell_angle_beta 90.000000
_cell_angle_gamma 90.000000
_cell_volume 3193.775535
_symmetry_space_group_name_H-M "C M M M"
_symmetry_group_IT_number 65
_symmetry_cell_setting 'orthorhombic'
loop_
_space_group_symop_operation_xyz
x,y,z
-x,-y,z
x,-y,-z
-x,y,-z
-x,-y,-z
x,y,-z
-x,y,z
x,-y,z
1/2+x,1/2+y,z
1/2-x,1/2-y,z
1/2+x,1/2-y,-z
1/2-x,1/2+y,-z
1/2-x,1/2-y,-z
1/2+x,1/2+y,-z
1/2-x,1/2+y,z
1/2+x,1/2-y,z
loop_
_atom_site_type_symbol
_atom_site_label
_atom_site_fract_x
_atom_site_fract_y
_atom_site_fract_z
Si Si1 0.342377 0.680312 0.750804
Si Si2 0.792742 0.179531 0.000000
Si Si3 0.079983 0.678919 0.850891
Si Si4 0.293314 0.680362 0.500000
Si Si5 0.500000 0.500000 0.500000
Si Si6 0.000000 0.834645 0.234696
O O1 0.347214 0.500000 0.749997
O O2 0.384688 0.754568 0.767142
O O3 0.318299 0.723076 0.624815
O O4 0.316746 0.722909 0.874177
O O5 0.750000 0.250000 0.000000
O O6 0.789121 0.000000 0.000000
O O7 0.079237 0.500000 0.841239
O O8 0.038791 0.747147 0.806603
O O9 0.086804 0.718703 0.000000
O O10 0.289301 0.500000 0.500000
O O11 0.250000 0.750000 0.500000
O O12 0.500000 0.372035 0.385381
O O13 0.000000 0.000000 0.172061
#
# Coordination Sequence:
#
# PCOD9489720 Si02
#       6
#    16   8  16   8   2   8
#     4  10  21  38  58  86 122 162 208 256 306 372
#     4  10  20  34  56  81 114 157 204 256 313 364
#     4  11  23  39  62  95 129 159 203 257 315 369
#     4  10  22  39  60  87 119 160 207 259 313 379
#     4   8  24  44  60  92 116 160 222 234 300 360
#     4  10  22  42  66  88 125 163 205 250 295 367
#
# _framework density 18.160325
#
# number of rings (size 3 to 8) (size 9 to 14) (size 15 to 20)
#    0.414    1.379    1.379    2.483    0.000    6.621 
#    2.483    2.759    0.000    0.000    0.000    0.000 
#    0.000    0.000    0.000    0.000    0.000    0.000 
#
# Total GULP energy -161645.275395 kJ/mol
# GULP energy per Si atom -5573.975014 kJ/mol
# Density = 1.811899 g / cm^3
# Si number density = 18.160325 Si / 1000 Ang^3
#
#
#
# Elastic Constant Matrix: (Units=GPa)
#
#
# Indices 1 2 3 4 5 6 
#
# 1 201.1510 57.7729 85.8962 0.0000 0.0000 0.0000
# 2 57.7729 38.2647 43.1995 0.0000 0.0000 0.0000
# 3 85.8962 43.1995 153.2690 0.0000 0.0000 0.0000
# 4 0.0000 0.0000 0.0000 18.8089 0.0000 0.0000
# 5 0.0000 0.0000 0.0000 0.0000 18.3643 0.0000
# 6 0.0000 0.0000 0.0000 0.0000 0.0000 39.7530
#
#
#
# Elastic Compliance Matrix: (Units=1/GPa)
#
#
# Indices 1 2 3 4 5 6 
#
# 1 0.009105 -0.011713 -0.001801 0.000000 0.000000 0.000000
# 2 -0.011713 0.053399 -0.008487 0.000000 0.000000 0.000000
# 3 -0.001801 -0.008487 0.009926 0.000000 0.000000 0.000000
# 4 0.000000 0.000000 0.000000 0.053166 0.000000 0.000000
# 5 0.000000 0.000000 0.000000 0.000000 0.054453 0.000000
# 6 0.000000 0.000000 0.000000 0.000000 0.000000 0.025155
#
#
# Mechanical properties :
#
#
# Convention : Reuss Voigt Hill
#
# Bulk Modulus (GPa) = 35.17609 85.15801 60.16705
# Shear Modulus (GPa) = 19.32875 29.10632 24.21753
#
# Velocity S-wave (km/s) = 3.26596 4.00777 3.65573
# Velocity P-wave (km/s) = 5.79947 8.27106 7.14298
#
# Compressibility (1/GPa) = 0.02842840
#
# Stress axis : x y z
#
# Youngs Moduli (GPa) = 109.83462 18.72691 100.74702
#
# Poissons Ratio (x) = 0.21935 0.18146
# Poissons Ratio (y) = 1.28648 0.85499
# Poissons Ratio (z) = 0.19783 0.15893
#
# Static dielectric constant tensor:
#      x y z
#    x 1.586530 0.000000 0.000000 
#    y 0.000000 1.612440 0.000000 
#    z 0.000000 0.000000 1.617580 
# 
# From -- ./inp_files/33175.got.cif
#   From: 2010.05.17/outbox.cif.g08.bks.cpg/sg65_17_cif.got.tgz:33175.got - 2010.06.03 17:01:31.
