data_PCOD9489710
_publ_section_title
;
Structure prediction by ZEFSAII (Michael W. Deem and Ramdas Pophale) SiO2 
 PCOD9489710
Probable space group: C M M M
;
_chemical_formula_sum "Si O2"
_cell_formula_units_Z 88
_cell_length_a 29.294198
_cell_length_b 8.671940
_cell_length_c 18.494913
_cell_angle_alpha 90.000000
_cell_angle_beta 90.000000
_cell_angle_gamma 90.000000
_cell_volume 4698.401968
_symmetry_space_group_name_H-M "C M M M"
_symmetry_group_IT_number 65
_symmetry_cell_setting 'orthorhombic'
loop_
_space_group_symop_operation_xyz
x,y,z
-x,-y,z
x,-y,-z
-x,y,-z
-x,-y,-z
x,y,-z
-x,y,z
x,-y,z
1/2+x,1/2+y,z
1/2-x,1/2-y,z
1/2+x,1/2-y,-z
1/2-x,1/2+y,-z
1/2-x,1/2-y,-z
1/2+x,1/2+y,-z
1/2-x,1/2+y,z
1/2+x,1/2-y,z
loop_
_atom_site_type_symbol
_atom_site_label
_atom_site_fract_x
_atom_site_fract_y
_atom_site_fract_z
Si Si1 0.448159 0.315928 0.135524
Si Si2 0.301277 0.186881 0.500000
Si Si3 0.146802 0.313899 0.354821
Si Si4 0.551044 0.185419 0.297113
Si Si5 0.199131 0.183379 0.784369
Si Si6 0.355985 0.816302 0.081106
O O1 0.500000 0.275793 0.113366
O O2 0.442694 0.500000 0.129461
O O3 0.443185 0.266255 0.219430
O O4 0.408563 0.232216 0.091882
O O5 0.250000 0.250000 0.500000
O O6 0.328436 0.236731 0.428146
O O7 0.299504 0.000000 0.500000
O O8 0.149655 0.500000 0.351986
O O9 0.093343 0.272011 0.348009
O O10 0.172249 0.247868 0.284947
O O11 0.500000 0.222002 0.324298
O O12 0.553102 0.000000 0.285371
O O13 0.250000 0.250000 0.784491
O O14 0.172997 0.235104 0.856669
O O15 0.200624 0.000000 0.780480
O O16 0.351903 0.000000 0.089872
O O17 0.341107 0.774240 0.000000
#
# Coordination Sequence:
#
# PCOD9489710 Si02
#       6
#    16   8  16  16  16  16
#     4  10  20  34  55  85 119 154 194 240 289 343
#     4  10  22  38  57  85 119 157 196 246 298 345
#     4  10  20  37  60  87 121 155 195 241 289 346
#     4   9  17  31  55  84 115 154 195 235 283 342
#     4  12  25  41  63  87 113 149 194 242 296 354
#     4  11  24  41  60  84 116 153 195 243 293 348
#
# _framework density 18.729773000000002
#
# number of rings (size 3 to 8) (size 9 to 14) (size 15 to 20)
#    0.000    1.636    1.818    3.273    0.000    5.455 
#    0.000    2.273    0.000    2.727    0.000    0.000 
#    0.000    5.091    0.000    0.000    0.000    0.000 
#
# Total GULP energy -245814.744588 kJ/mol
# GULP energy per Si atom -5586.698741 kJ/mol
# Density = 1.868714 g / cm^3
# Si number density = 18.729773 Si / 1000 Ang^3
#
#
#
# Elastic Constant Matrix: (Units=GPa)
#
#
# Indices 1 2 3 4 5 6 
#
# 1 136.5204 31.9972 78.0419 0.0000 0.0000 0.0000
# 2 31.9972 30.8704 34.4033 0.0000 0.0000 0.0000
# 3 78.0419 34.4033 132.8996 0.0000 0.0000 0.0000
# 4 0.0000 0.0000 0.0000 -2.5808 0.0000 0.0000
# 5 0.0000 0.0000 0.0000 0.0000 1.5357 0.0000
# 6 0.0000 0.0000 0.0000 0.0000 0.0000 28.0503
#
#
#
# Elastic Compliance Matrix: (Units=1/GPa)
#
#
# Indices 1 2 3 4 5 6 
#
# 1 0.011854 -0.006366 -0.005313 0.000000 0.000000 0.000000
# 2 -0.006366 0.048946 -0.008933 0.000000 0.000000 0.000000
# 3 -0.005313 -0.008933 0.012957 0.000000 0.000000 0.000000
# 4 0.000000 0.000000 0.000000 -0.387474 0.000000 0.000000
# 5 0.000000 0.000000 0.000000 0.000000 0.651176 0.000000
# 6 0.000000 0.000000 0.000000 0.000000 0.000000 0.035650
#
#
# Mechanical properties :
#
#
# Convention : Reuss Voigt Hill
#
# Bulk Modulus (GPa) = 30.73646 65.46392 48.10019
# Shear Modulus (GPa) = 11.75980 15.79088 13.77534
#
# Velocity S-wave (km/s) = 2.50845 2.90675 2.71491
# Velocity P-wave (km/s) = 4.98356 6.80392 5.96360
#
# Compressibility (1/GPa) = 0.03253465
#
# Stress axis : x y z
#
# Youngs Moduli (GPa) = 84.35861 20.43051 77.17909
#
# Poissons Ratio (x) = 0.13005 0.41007
# Poissons Ratio (y) = 0.53699 0.68941
# Poissons Ratio (z) = 0.44821 0.18250
#
# Static dielectric constant tensor:
#      x y z
#    x 1.653980 0.000000 0.000000 
#    y 0.000000 1.628940 0.000000 
#    z 0.000000 0.000000 1.625910 
# 
# From -- ./inp_files/58039.got.cif
#   From: 2010.05.17/outbox.cif.g08.bks.cpg/sg65_30_cif.got.tgz:58039.got - 2010.06.03 17:01:31.
