data_PCOD9489234
_publ_section_title
;
Structure prediction by ZEFSAII (Michael W. Deem and Ramdas Pophale) SiO2 
 PCOD9489234
Probable space group: C M M M
;
_chemical_formula_sum "Si O2"
_cell_formula_units_Z 96
_cell_length_a 29.304572
_cell_length_b 19.096199
_cell_length_c 8.494350
_cell_angle_alpha 90.000000
_cell_angle_beta 90.000000
_cell_angle_gamma 90.000000
_cell_volume 4753.488704
_symmetry_space_group_name_H-M "C M M M"
_symmetry_group_IT_number 65
_symmetry_cell_setting 'orthorhombic'
loop_
_space_group_symop_operation_xyz
x,y,z
-x,-y,z
x,-y,-z
-x,y,-z
-x,-y,-z
x,y,-z
-x,y,z
x,-y,z
1/2+x,1/2+y,z
1/2-x,1/2-y,z
1/2+x,1/2-y,-z
1/2-x,1/2+y,-z
1/2-x,1/2-y,-z
1/2+x,1/2+y,-z
1/2-x,1/2+y,z
1/2+x,1/2-y,z
loop_
_atom_site_type_symbol
_atom_site_label
_atom_site_fract_x
_atom_site_fract_y
_atom_site_fract_z
Si Si1 0.051591 0.388404 0.182906
Si Si2 0.147441 0.818353 0.188852
Si Si3 0.448417 0.731977 0.312181
Si Si4 0.140663 0.577875 0.674823
Si Si5 0.297955 0.180976 0.820276
Si Si6 0.219566 0.080482 0.688026
O O1 0.053891 0.305474 0.219686
O O2 0.087087 0.423606 0.298583
O O3 0.000000 0.411077 0.210593
O O4 0.062554 0.401907 0.000000
O O5 0.096813 0.809940 0.260334
O O6 0.181468 0.754321 0.241290
O O7 0.173071 0.888925 0.238934
O O8 0.144157 0.813001 0.000000
O O9 0.445364 0.745127 0.500000
O O10 0.500000 0.702582 0.282564
O O11 0.151722 0.605019 0.500000
O O12 0.159858 0.500000 0.687821
O O13 0.159546 0.628783 0.806102
O O14 0.258782 0.136476 0.734343
O O15 0.283466 0.190659 0.000000
O O16 0.216148 0.079937 0.500000
O O17 0.228700 0.000000 0.740163
#
# Coordination Sequence:
#
# PCOD9489234 Si02
#       6
#    16  16  16  16  16  16
#     4  10  20  34  52  75 106 146 193 245 300 355
#     4  11  23  39  63  94 124 158 201 247 297 356
#     4  10  20  35  59  90 122 157 197 244 298 353
#     4  11  23  36  52  76 109 152 200 248 299 354
#     4  11  23  39  60  88 119 155 200 248 296 351
#     4  11  25  43  63  89 122 160 201 247 301 358
#
# _framework density 20.195692000000001
#
# number of rings (size 3 to 8) (size 9 to 14) (size 15 to 20)
#    0.000    1.333    1.667    4.000    0.000   11.000 
#    0.000    1.667    0.000    0.500    0.000    3.500 
#    0.000    0.000    0.000    0.000    0.000    0.000 
#
# Total GULP energy -267957.553020 kJ/mol
# GULP energy per Si atom -5582.449021 kJ/mol
# Density = 2.014973 g / cm^3
# Si number density = 20.195692 Si / 1000 Ang^3
#
#
#
# Elastic Constant Matrix: (Units=GPa)
#
#
# Indices 1 2 3 4 5 6 
#
# 1 121.1067 57.0637 27.6066 0.0000 0.0000 0.0000
# 2 57.0637 60.1603 26.2733 0.0000 0.0000 0.0000
# 3 27.6066 26.2733 56.4064 0.0000 0.0000 0.0000
# 4 0.0000 0.0000 0.0000 20.1756 0.0000 0.0000
# 5 0.0000 0.0000 0.0000 0.0000 31.4647 0.0000
# 6 0.0000 0.0000 0.0000 0.0000 0.0000 -119.5810
#
#
#
# Elastic Compliance Matrix: (Units=1/GPa)
#
#
# Indices 1 2 3 4 5 6 
#
# 1 0.014966 -0.013805 -0.000895 0.000000 0.000000 0.000000
# 2 -0.013805 0.033601 -0.008894 0.000000 0.000000 0.000000
# 3 -0.000895 -0.008894 0.022309 0.000000 0.000000 0.000000
# 4 0.000000 0.000000 0.000000 0.049565 0.000000 0.000000
# 5 0.000000 0.000000 0.000000 0.000000 0.031782 0.000000
# 6 0.000000 0.000000 0.000000 0.000000 0.000000 -0.008363
#
#
# Mechanical properties :
#
#
# Convention : Reuss Voigt Hill
#
# Bulk Modulus (GPa) = 42.21485 51.06230 46.63858
# Shear Modulus (GPa) = 25.13286 -5.13948 9.99669
#
# Velocity S-wave (km/s) = 3.53153 -1.59699 2.22725
# Velocity P-wave (km/s) = 6.13002 4.68382 5.45506
#
# Compressibility (1/GPa) = 0.02368835
#
# Stress axis : x y z
#
# Youngs Moduli (GPa) = 66.81971 29.76127 44.82461
#
# Poissons Ratio (x) = 0.41084 0.04010
# Poissons Ratio (y) = 0.92242 0.39869
# Poissons Ratio (z) = 0.05977 0.26471
#
# Static dielectric constant tensor:
#      x y z
#    x 1.774780 0.000000 0.000000 
#    y 0.000000 1.715630 0.000000 
#    z 0.000000 0.000000 1.682590 
# 
# From -- ./inp_files/16348.got.cif
#   From: 2010.05.17/outbox.cif.g08.bks.cpg/sg65_9_cif.got.tgz:16348.got - 2010.06.03 17:01:31.
