data_PCOD9489155
_publ_section_title
;
Structure prediction by ZEFSAII (Michael W. Deem and Ramdas Pophale) SiO2 
 PCOD9489155
Probable space group: C M M M
;
_chemical_formula_sum "Si O2"
_cell_formula_units_Z 88
_cell_length_a 18.294107
_cell_length_b 31.588641
_cell_length_c 8.649145
_cell_angle_alpha 90.000000
_cell_angle_beta 90.000000
_cell_angle_gamma 90.000000
_cell_volume 4998.219621
_symmetry_space_group_name_H-M "C M M M"
_symmetry_group_IT_number 65
_symmetry_cell_setting 'orthorhombic'
loop_
_space_group_symop_operation_xyz
x,y,z
-x,-y,z
x,-y,-z
-x,y,-z
-x,-y,-z
x,y,-z
-x,y,z
x,-y,z
1/2+x,1/2+y,z
1/2-x,1/2-y,z
1/2+x,1/2-y,-z
1/2-x,1/2+y,-z
1/2-x,1/2-y,-z
1/2+x,1/2+y,-z
1/2-x,1/2+y,z
1/2+x,1/2-y,z
loop_
_atom_site_type_symbol
_atom_site_label
_atom_site_fract_x
_atom_site_fract_y
_atom_site_fract_z
Si Si1 0.263133 0.701320 0.312770
Si Si2 0.652056 0.415429 0.317280
Si Si3 0.086836 0.000000 0.182531
Si Si4 0.914009 0.451680 0.686517
Si Si5 0.697247 0.117932 0.817143
Si Si6 0.579039 0.329278 0.314180
O O1 0.261595 0.697563 0.500000
O O2 0.250000 0.750000 0.271662
O O3 0.207227 0.665697 0.250136
O O4 0.345650 0.691036 0.257152
O O5 0.668567 0.415240 0.500000
O O6 0.621242 0.459335 0.261578
O O7 0.725821 0.403602 0.228589
O O8 0.592005 0.379070 0.289181
O O9 0.000000 0.000000 0.203798
O O10 0.102477 0.000000 0.000000
O O11 0.908477 0.450630 0.500000
O O12 0.891777 0.500000 0.735018
O O13 0.865353 0.413349 0.751735
O O14 0.000000 0.446684 0.726617
O O15 0.688905 0.120788 0.000000
O O16 0.577808 0.322271 0.500000
O O17 0.500000 0.315643 0.252091
#
# Coordination Sequence:
#
# PCOD9489155 Si02
#       6
#    16  16   8  16  16  16
#     4   9  18  34  55  78 106 140 182 230 277 331
#     4  10  20  34  52  72  98 137 183 224 259 308
#     4  11  23  35  47  71 108 141 172 217 269 311
#     4   9  19  37  60  83 108 142 186 233 278 328
#     4  11  22  35  54  80 111 143 177 222 277 336
#     4   8  14  27  49  74  96 123 168 221 265 305
#
# _framework density 17.606269000000001
#
# number of rings (size 3 to 8) (size 9 to 14) (size 15 to 20)
#    0.000    2.455    0.000    4.636    1.273    2.545 
#    0.000    1.818    0.000    8.182    0.000    0.000 
#    0.000    0.000    0.000    0.000    0.000    0.000 
#
# Total GULP energy -245180.357346 kJ/mol
# GULP energy per Si atom -5572.280849 kJ/mol
# Density = 1.756620 g / cm^3
# Si number density = 17.606269 Si / 1000 Ang^3
#
#
#
# Elastic Constant Matrix: (Units=GPa)
#
#
# Indices 1 2 3 4 5 6 
#
# 1 88.5362 65.3522 29.6031 0.0000 0.0000 0.0000
# 2 65.3522 155.5762 43.9753 0.0000 0.0000 0.0000
# 3 29.6031 43.9753 36.9700 0.0000 0.0000 0.0000
# 4 0.0000 0.0000 0.0000 11.9251 0.0000 0.0000
# 5 0.0000 0.0000 0.0000 0.0000 11.0398 0.0000
# 6 0.0000 0.0000 0.0000 0.0000 0.0000 -63.9034
#
#
#
# Elastic Compliance Matrix: (Units=1/GPa)
#
#
# Indices 1 2 3 4 5 6 
#
# 1 0.017846 -0.005208 -0.008094 0.000000 0.000000 0.000000
# 2 -0.005208 0.011204 -0.009156 0.000000 0.000000 0.000000
# 3 -0.008094 -0.009156 0.044421 0.000000 0.000000 0.000000
# 4 0.000000 0.000000 0.000000 0.083857 0.000000 0.000000
# 5 0.000000 0.000000 0.000000 0.000000 0.090581 0.000000
# 6 0.000000 0.000000 0.000000 0.000000 0.000000 -0.015649
#
#
# Mechanical properties :
#
#
# Convention : Reuss Voigt Hill
#
# Bulk Modulus (GPa) = 35.02236 62.10481 48.56358
# Shear Modulus (GPa) = 17.44009 1.28909 9.36459
#
# Velocity S-wave (km/s) = 3.15073 0.85660 2.30878
# Velocity P-wave (km/s) = 5.75946 6.02737 5.89494
#
# Compressibility (1/GPa) = 0.02855319
#
# Stress axis : x y z
#
# Youngs Moduli (GPa) = 56.03552 89.25655 22.51169
#
# Poissons Ratio (x) = 0.46489 0.18222
# Poissons Ratio (y) = 0.29186 0.20612
# Poissons Ratio (z) = 0.45357 0.81723
#
# Static dielectric constant tensor:
#      x y z
#    x 1.603360 0.000000 0.000000 
#    y 0.000000 1.592320 0.000000 
#    z 0.000000 0.000000 1.595890 
# 
# From -- ./inp_files/10039.got.cif
#   From: 2010.05.17/outbox.cif.g08.bks.cpg/sg65_6_cif.got.tgz:10039.got - 2010.06.03 17:01:31.
