data_PCOD9489320
_publ_section_title
;
Structure prediction by ZEFSAII (Michael W. Deem and Ramdas Pophale) SiO2 
 PCOD9489320
Probable space group: C M M M
;
_chemical_formula_sum "Si O2"
_cell_formula_units_Z 88
_cell_length_a 18.469376
_cell_length_b 27.914033
_cell_length_c 7.578017
_cell_angle_alpha 90.000000
_cell_angle_beta 90.000000
_cell_angle_gamma 90.000000
_cell_volume 3906.882820
_symmetry_space_group_name_H-M "C M M M"
_symmetry_group_IT_number 65
_symmetry_cell_setting 'orthorhombic'
loop_
_space_group_symop_operation_xyz
x,y,z
-x,-y,z
x,-y,-z
-x,y,-z
-x,-y,-z
x,y,-z
-x,y,z
x,-y,z
1/2+x,1/2+y,z
1/2-x,1/2-y,z
1/2+x,1/2-y,-z
1/2-x,1/2+y,-z
1/2-x,1/2-y,-z
1/2+x,1/2+y,-z
1/2-x,1/2+y,z
1/2+x,1/2-y,z
loop_
_atom_site_type_symbol
_atom_site_label
_atom_site_fract_x
_atom_site_fract_y
_atom_site_fract_z
Si Si1 0.259821 0.449223 0.706103
Si Si2 0.671393 0.229504 0.284230
Si Si3 0.500000 0.943237 0.715054
Si Si4 0.360383 0.121483 0.715712
Si Si5 0.919538 0.073704 0.799523
Si Si6 0.084487 0.180818 0.699115
O O1 0.241013 0.450746 0.500000
O O2 0.237719 0.500000 0.787075
O O3 0.213220 0.405203 0.775553
O O4 0.346331 0.445323 0.715891
O O5 0.669722 0.227733 0.500000
O O6 0.750000 0.250000 0.234513
O O7 0.646590 0.176768 0.224614
O O8 0.619209 0.271949 0.224540
O O9 0.500000 0.944701 0.500000
O O10 0.571022 0.911822 0.768052
O O11 0.500000 0.000000 0.770817
O O12 0.363291 0.123656 0.500000
O O13 0.908657 0.130941 0.797839
O O14 0.000000 0.064119 0.721147
O O15 0.921133 0.056609 0.000000
O O16 0.114711 0.172452 0.500000
O O17 0.000000 0.190103 0.683947
#
# Coordination Sequence:
#
# PCOD9489320 Si02
#       6
#    16  16   8  16  16  16
#     4  10  20  34  53  76 102 134 173 214 257 306
#     4   9  16  25  41  67  99 132 165 203 248 297
#     4   9  16  26  42  68 105 143 175 213 264 315
#     4   9  17  28  46  72 106 140 171 211 261 311
#     4  10  21  36  53  74 101 134 171 211 260 314
#     4   9  17  29  48  72  99 130 166 204 244 294
#
# _framework density 22.524352
#
# number of rings (size 3 to 8) (size 9 to 14) (size 15 to 20)
#    0.000    2.636    0.000    2.182    1.273    6.909 
#    0.000    1.818    0.000    4.909    0.000    0.636 
#    0.000    2.182    0.000    0.000    0.000    0.000 
#
# Total GULP energy -245297.092780 kJ/mol
# GULP energy per Si atom -5574.933927 kJ/mol
# Density = 2.247309 g / cm^3
# Si number density = 22.524352 Si / 1000 Ang^3
#
#
#
# Elastic Constant Matrix: (Units=GPa)
#
#
# Indices 1 2 3 4 5 6 
#
# 1 89.3101 71.9051 -0.6297 0.0000 0.0000 0.0000
# 2 71.9051 181.2693 5.1259 0.0000 0.0000 0.0000
# 3 -0.6297 5.1259 47.9140 0.0000 0.0000 0.0000
# 4 0.0000 0.0000 0.0000 59.4307 0.0000 0.0000
# 5 0.0000 0.0000 0.0000 0.0000 -56.9550 0.0000
# 6 0.0000 0.0000 0.0000 0.0000 0.0000 -6.4283
#
#
#
# Elastic Compliance Matrix: (Units=1/GPa)
#
#
# Indices 1 2 3 4 5 6 
#
# 1 0.016491 -0.006568 0.000919 0.000000 0.000000 0.000000
# 2 -0.006568 0.008149 -0.000958 0.000000 0.000000 0.000000
# 3 0.000919 -0.000958 0.020985 0.000000 0.000000 0.000000
# 4 0.000000 0.000000 0.000000 0.016826 0.000000 0.000000
# 5 0.000000 0.000000 0.000000 0.000000 -0.017558 0.000000
# 6 0.000000 0.000000 0.000000 0.000000 0.000000 -0.155561
#
#
# Mechanical properties :
#
#
# Convention : Reuss Voigt Hill
#
# Bulk Modulus (GPa) = 30.85219 52.36622 41.60920
# Shear Modulus (GPa) = -57.70333 15.34896 -21.17719
#
# Velocity S-wave (km/s) = -5.06693 2.61327 -3.06958
# Velocity P-wave (km/s) = 4.52822 5.69252 2.43926
#
# Compressibility (1/GPa) = 0.03241261
#
# Stress axis : x y z
#
# Youngs Moduli (GPa) = 60.63869 122.71509 47.65243
#
# Poissons Ratio (x) = 0.80595 -0.04381
# Poissons Ratio (y) = 0.39825 0.04566
# Poissons Ratio (z) = -0.05575 0.11757
#
# Static dielectric constant tensor:
#      x y z
#    x 1.861550 0.000000 0.000000 
#    y 0.000000 1.970440 0.000000 
#    z 0.000000 0.000000 2.011910 
# 
# From -- ./inp_files/10082.got.cif
#   From: 2010.05.17/outbox.cif.g08.bks.cpg/sg65_6_cif.got.tgz:10082.got - 2010.06.03 17:01:31.
