data_PCOD9489684
_publ_section_title
;
Structure prediction by ZEFSAII (Michael W. Deem and Ramdas Pophale) SiO2 
 PCOD9489684
Probable space group: C M M M
;
_chemical_formula_sum "Si O2"
_cell_formula_units_Z 104
_cell_length_a 29.106324
_cell_length_b 8.747421
_cell_length_c 21.386302
_cell_angle_alpha 90.000000
_cell_angle_beta 90.000000
_cell_angle_gamma 90.000000
_cell_volume 5445.065191
_symmetry_space_group_name_H-M "C M M M"
_symmetry_group_IT_number 65
_symmetry_cell_setting 'orthorhombic'
loop_
_space_group_symop_operation_xyz
x,y,z
-x,-y,z
x,-y,-z
-x,y,-z
-x,-y,-z
x,y,-z
-x,y,z
x,-y,z
1/2+x,1/2+y,z
1/2-x,1/2-y,z
1/2+x,1/2-y,-z
1/2-x,1/2+y,-z
1/2-x,1/2-y,-z
1/2+x,1/2+y,-z
1/2-x,1/2+y,z
1/2+x,1/2-y,z
loop_
_atom_site_type_symbol
_atom_site_label
_atom_site_fract_x
_atom_site_fract_y
_atom_site_fract_z
Si Si1 0.553372 0.683023 0.000000
Si Si2 0.800727 0.683664 0.821655
Si Si3 0.555048 0.321636 0.763659
Si Si4 0.106099 0.682077 0.881466
Si Si5 0.300898 0.315666 0.687282
Si Si6 0.638877 0.683978 0.431564
Si Si7 0.447131 0.817371 0.372310
O O1 0.580511 0.740320 0.060805
O O2 0.552578 0.500000 0.000000
O O3 0.500000 0.736427 0.000000
O O4 0.797623 0.500000 0.816998
O O5 0.750000 0.750000 0.834785
O O6 0.840218 0.723519 0.871576
O O7 0.816304 0.749757 0.754240
O O8 0.500000 0.311911 0.773388
O O9 0.568372 0.500000 0.764930
O O10 0.580344 0.231961 0.818273
O O11 0.564645 0.252955 0.695474
O O12 0.103445 0.500000 0.888896
O O13 0.300086 0.500000 0.690802
O O14 0.250000 0.250000 0.678118
O O15 0.331177 0.267029 0.628047
O O16 0.657226 0.729066 0.500000
O O17 0.636745 0.500000 0.429608
O O18 0.588407 0.750965 0.421547
O O19 0.500000 0.776797 0.386193
O O20 0.443593 0.000000 0.369151
#
# Coordination Sequence:
#
# PCOD9489684 Si02
#       7
#     8  16  16  16  16  16  16
#     4  11  25  43  62  87 120 159 200 233 268 325
#     4  10  21  37  59  87 115 144 183 229 278 332
#     4  10  20  34  55  83 112 144 184 228 277 335
#     4  11  23  38  59  87 118 152 190 233 280 327
#     4  10  20  35  57  83 111 143 180 226 279 333
#     4  10  22  38  54  75 105 143 186 228 275 337
#     4  10  21  36  54  78 107 139 180 231 284 335
#
# _framework density 19.099862999999999
#
# number of rings (size 3 to 8) (size 9 to 14) (size 15 to 20)
#    0.000    1.769    0.000    4.846    0.000   11.385 
#    0.000    1.923    0.000    0.000    0.000    0.000 
#    0.000    0.000    0.000    0.000    0.000    0.000 
#
# Total GULP energy -290531.816971 kJ/mol
# GULP energy per Si atom -5587.150326 kJ/mol
# Density = 1.905639 g / cm^3
# Si number density = 19.099863 Si / 1000 Ang^3
#
#
#
# Elastic Constant Matrix: (Units=GPa)
#
#
# Indices 1 2 3 4 5 6 
#
# 1 99.8872 38.1198 77.3117 0.0000 0.0000 0.0000
# 2 38.1198 43.3307 30.5059 0.0000 0.0000 0.0000
# 3 77.3117 30.5059 92.2264 0.0000 0.0000 0.0000
# 4 0.0000 0.0000 0.0000 17.9138 0.0000 0.0000
# 5 0.0000 0.0000 0.0000 0.0000 22.2050 0.0000
# 6 0.0000 0.0000 0.0000 0.0000 0.0000 28.3415
#
#
#
# Elastic Compliance Matrix: (Units=1/GPa)
#
#
# Indices 1 2 3 4 5 6 
#
# 1 0.032957 -0.012441 -0.023513 0.000000 0.000000 0.000000
# 2 -0.012441 0.034780 -0.001076 0.000000 0.000000 0.000000
# 3 -0.023513 -0.001076 0.030909 0.000000 0.000000 0.000000
# 4 0.000000 0.000000 0.000000 0.055823 0.000000 0.000000
# 5 0.000000 0.000000 0.000000 0.000000 0.045035 0.000000
# 6 0.000000 0.000000 0.000000 0.000000 0.000000 0.035284
#
#
# Mechanical properties :
#
#
# Convention : Reuss Voigt Hill
#
# Bulk Modulus (GPa) = 40.66892 58.59102 49.62997
# Shear Modulus (GPa) = 15.77078 19.65919 17.71498
#
# Velocity S-wave (km/s) = 2.87662 3.21173 3.04878
# Velocity P-wave (km/s) = 5.68966 6.67056 6.19954
#
# Compressibility (1/GPa) = 0.02458880
#
# Stress axis : x y z
#
# Youngs Moduli (GPa) = 30.34212 28.75214 32.35317
#
# Poissons Ratio (x) = 0.35769 0.76071
# Poissons Ratio (y) = 0.37747 0.03480
# Poissons Ratio (z) = 0.71342 0.03093
#
# Static dielectric constant tensor:
#      x y z
#    x 1.681150 0.000000 0.000000 
#    y 0.000000 1.637580 0.000000 
#    z 0.000000 0.000000 1.654380 
# 
# From -- ./inp_files/65938.got.cif
#   From: 2010.05.17/outbox.cif.g08.bks.cpg/sg65_33_cif.got.tgz:65938.got - 2010.06.03 17:01:31.
