data_PCOD9489191
_publ_section_title
;
Structure prediction by ZEFSAII (Michael W. Deem and Ramdas Pophale) SiO2 
 PCOD9489191
Probable space group: C M M M
;
_chemical_formula_sum "Si O2"
_cell_formula_units_Z 56
_cell_length_a 9.075118
_cell_length_b 15.158292
_cell_length_c 19.244070
_cell_angle_alpha 90.000000
_cell_angle_beta 90.000000
_cell_angle_gamma 90.000000
_cell_volume 2647.277555
_symmetry_space_group_name_H-M "C M M M"
_symmetry_group_IT_number 65
_symmetry_cell_setting 'orthorhombic'
loop_
_space_group_symop_operation_xyz
x,y,z
-x,-y,z
x,-y,-z
-x,y,-z
-x,-y,-z
x,y,-z
-x,y,z
x,-y,z
1/2+x,1/2+y,z
1/2-x,1/2-y,z
1/2+x,1/2-y,-z
1/2-x,1/2+y,-z
1/2-x,1/2-y,-z
1/2+x,1/2+y,-z
1/2-x,1/2+y,z
1/2+x,1/2-y,z
loop_
_atom_site_type_symbol
_atom_site_label
_atom_site_fract_x
_atom_site_fract_y
_atom_site_fract_z
Si Si1 0.171768 0.391715 0.725403
Si Si2 0.324962 0.155338 0.000000
Si Si3 0.163753 0.895728 0.861705
Si Si4 0.678054 0.105515 0.425475
O O1 0.174311 0.500000 0.724726
O O2 0.263147 0.359743 0.791534
O O3 0.230901 0.361964 0.649738
O O4 0.000000 0.367054 0.732673
O O5 0.250000 0.250000 0.000000
O O6 0.264852 0.113240 0.070820
O O7 0.500000 0.157337 0.000000
O O8 0.000000 0.858241 0.874561
O O9 0.148707 0.000000 0.850081
O O10 0.733269 0.140909 0.500000
O O11 0.500000 0.115610 0.424528
O O12 0.705589 0.000000 0.426444
#
# Coordination Sequence:
#
# PCOD9489191 Si02
#       4
#    16   8  16  16
#     4   8  13  22  38  61  88 120 160 200 236 277
#     4  12  25  40  57  75  97 123 155 196 243 294
#     4  10  20  34  52  74 101 131 163 199 239 283
#     4   7   9  14  27  50  81 116 153 193 234 273
#
# _framework density 21.153807
#
# number of rings (size 3 to 8) (size 9 to 14) (size 15 to 20)
#    0.000    3.143    0.000    5.143    0.000    3.429 
#    0.000    0.000    0.000    0.857    0.000    6.000 
#    0.000    1.143    0.000    3.143    0.000    8.000 
#
# Total GULP energy -155981.842881 kJ/mol
# GULP energy per Si atom -5570.780103 kJ/mol
# Density = 2.110566 g / cm^3
# Si number density = 21.153807 Si / 1000 Ang^3
#
#
#
# Elastic Constant Matrix: (Units=GPa)
#
#
# Indices 1 2 3 4 5 6 
#
# 1 116.2050 3.3905 92.7135 0.0000 0.0000 0.0000
# 2 3.3905 29.6763 5.3166 0.0000 0.0000 0.0000
# 3 92.7135 5.3166 245.5409 0.0000 0.0000 0.0000
# 4 0.0000 0.0000 0.0000 -49.3128 0.0000 0.0000
# 5 0.0000 0.0000 0.0000 0.0000 265.2071 0.0000
# 6 0.0000 0.0000 0.0000 0.0000 0.0000 8.4778
#
#
#
# Elastic Compliance Matrix: (Units=1/GPa)
#
#
# Indices 1 2 3 4 5 6 
#
# 1 0.012325 -0.000577 -0.004641 0.000000 0.000000 0.000000
# 2 -0.000577 0.033855 -0.000515 0.000000 0.000000 0.000000
# 3 -0.004641 -0.000515 0.005836 0.000000 0.000000 0.000000
# 4 0.000000 0.000000 0.000000 -0.020279 0.000000 0.000000
# 5 0.000000 0.000000 0.000000 0.000000 0.003771 0.000000
# 6 0.000000 0.000000 0.000000 0.000000 0.000000 0.117955
#
#
# Mechanical properties :
#
#
# Convention : Reuss Voigt Hill
#
# Bulk Modulus (GPa) = 24.66087 66.02927 45.34507
# Shear Modulus (GPa) = 28.01947 64.20785 46.11366
#
# Velocity S-wave (km/s) = 3.64340 5.51532 4.67403
# Velocity P-wave (km/s) = 5.42055 8.47585 7.11415
#
# Compressibility (1/GPa) = 0.04055006
#
# Stress axis : x y z
#
# Youngs Moduli (GPa) = 81.13270 29.53765 171.33937
#
# Poissons Ratio (x) = 0.01703 0.79527
# Poissons Ratio (y) = 0.04678 0.08829
# Poissons Ratio (z) = 0.37658 0.01522
#
# Static dielectric constant tensor:
#      x y z
#    x 1.734710 0.000000 0.000000 
#    y 0.000000 2.065880 0.000000 
#    z 0.000000 0.000000 1.883130 
# 
# From -- ./inp_files/53898.got.cif
#   From: 2010.05.17/outbox.cif.g08.bks.cpg/sg65_27_cif.got.tgz:53898.got - 2010.06.03 17:01:31.
