data_PCOD9489413
_publ_section_title
;
Structure prediction by ZEFSAII (Michael W. Deem and Ramdas Pophale) SiO2 
 PCOD9489413
Probable space group: C M M M
;
_chemical_formula_sum "Si O2"
_cell_formula_units_Z 120
_cell_length_a 23.219261
_cell_length_b 28.320674
_cell_length_c 9.904753
_cell_angle_alpha 90.000000
_cell_angle_beta 90.000000
_cell_angle_gamma 90.000000
_cell_volume 6513.218203
_symmetry_space_group_name_H-M "C M M M"
_symmetry_group_IT_number 65
_symmetry_cell_setting 'orthorhombic'
loop_
_space_group_symop_operation_xyz
x,y,z
-x,-y,z
x,-y,-z
-x,y,-z
-x,-y,-z
x,y,-z
-x,y,z
x,-y,z
1/2+x,1/2+y,z
1/2-x,1/2-y,z
1/2+x,1/2-y,-z
1/2-x,1/2+y,-z
1/2-x,1/2-y,-z
1/2+x,1/2+y,-z
1/2-x,1/2+y,z
1/2+x,1/2-y,z
loop_
_atom_site_type_symbol
_atom_site_label
_atom_site_fract_x
_atom_site_fract_y
_atom_site_fract_z
Si Si1 0.755099 0.696154 0.656624
Si Si2 0.854409 0.127351 0.340713
Si Si3 0.815285 0.372613 0.146947
Si Si4 0.930620 0.552748 0.500000
Si Si5 0.931688 0.270327 0.351857
Si Si6 0.569561 0.689000 0.844292
Si Si7 0.214239 0.055846 0.158275
Si Si8 0.933185 0.621977 0.742834
O O1 0.772541 0.696651 0.500000
O O2 0.750000 0.750000 0.702773
O O3 0.695193 0.667680 0.666281
O O4 0.799906 0.666307 0.742883
O O5 0.866908 0.119261 0.500000
O O6 0.906721 0.147835 0.252346
O O7 0.827946 0.082315 0.262500
O O8 0.776377 0.418758 0.174146
O O9 0.883010 0.382034 0.149148
O O10 0.797324 0.354658 0.000000
O O11 0.906340 0.500000 0.500000
O O12 0.916950 0.583397 0.630683
O O13 0.000000 0.549357 0.500000
O O14 0.906073 0.259079 0.500000
O O15 0.910743 0.237548 0.229768
O O16 0.928737 0.325742 0.321273
O O17 0.000000 0.259948 0.360702
O O18 0.500000 0.688072 0.848115
O O19 0.589913 0.685850 0.000000
O O20 0.217188 0.000000 0.182306
O O21 0.197044 0.063137 0.000000
O O22 0.000000 0.615563 0.784950
#
# Coordination Sequence:
#
# PCOD9489413 Si02
#       8
#    16  16  16   8  16  16  16  16
#     4   9  20  37  55  76 106 146 188 234 283 330
#     4  10  20  35  57  86 115 146 186 233 283 334
#     4  10  22  36  54  82 111 145 188 231 281 339
#     4   9  18  34  54  76 101 136 188 242 289 338
#     4   9  17  31  50  71 101 146 193 230 271 321
#     4  10  21  35  53  82 120 158 192 225 265 325
#     4   9  19  39  63  82 107 145 187 234 288 345
#     4  10  20  34  53  78 112 149 188 236 286 339
#
# _framework density 18.424073
#
# number of rings (size 3 to 8) (size 9 to 14) (size 15 to 20)
#    0.000    2.467    0.667    0.800    2.800    3.200 
#    0.000    1.333    0.000    0.400    0.000    6.533 
#    0.000    0.000    0.000    0.000    0.000    0.000 
#
# Total GULP energy -334455.869380 kJ/mol
# GULP energy per Si atom -5574.264490 kJ/mol
# Density = 1.838214 g / cm^3
# Si number density = 18.424073 Si / 1000 Ang^3
#
#
#
# Elastic Constant Matrix: (Units=GPa)
#
#
# Indices 1 2 3 4 5 6 
#
# 1 46.8576 26.8001 38.1672 0.0000 0.0000 0.0000
# 2 26.8001 124.9893 68.9218 0.0000 0.0000 0.0000
# 3 38.1672 68.9218 121.2844 0.0000 0.0000 0.0000
# 4 0.0000 0.0000 0.0000 21.2249 0.0000 0.0000
# 5 0.0000 0.0000 0.0000 0.0000 0.5026 0.0000
# 6 0.0000 0.0000 0.0000 0.0000 0.0000 12.7221
#
#
#
# Elastic Compliance Matrix: (Units=1/GPa)
#
#
# Indices 1 2 3 4 5 6 
#
# 1 0.028950 -0.001724 -0.008131 0.000000 0.000000 0.000000
# 2 -0.001724 0.011755 -0.006137 0.000000 0.000000 0.000000
# 3 -0.008131 -0.006137 0.014291 0.000000 0.000000 0.000000
# 4 0.000000 0.000000 0.000000 0.047114 0.000000 0.000000
# 5 0.000000 0.000000 0.000000 0.000000 1.989645 0.000000
# 6 0.000000 0.000000 0.000000 0.000000 0.000000 0.078604
#
#
# Mechanical properties :
#
#
# Convention : Reuss Voigt Hill
#
# Bulk Modulus (GPa) = 43.45527 62.32326 52.88927
# Shear Modulus (GPa) = 2.26243 17.50607 9.88425
#
# Velocity S-wave (km/s) = 1.10934 3.08583 2.31873
# Velocity P-wave (km/s) = 5.02774 6.82620 5.99480
#
# Compressibility (1/GPa) = 0.02301217
#
# Stress axis : x y z
#
# Youngs Moduli (GPa) = 34.54233 85.07373 69.97294
#
# Poissons Ratio (x) = 0.14667 0.56892
# Poissons Ratio (y) = 0.05955 0.42943
# Poissons Ratio (z) = 0.28085 0.52211
#
# Static dielectric constant tensor:
#      x y z
#    x 1.664300 0.000000 0.000000 
#    y 0.000000 1.613820 0.000000 
#    z 0.000000 0.000000 1.666730 
# 
# From -- ./inp_files/17097.got.cif
#   From: 2010.05.17/outbox.cif.g08.bks.cpg/sg65_9_cif.got.tgz:17097.got - 2010.06.03 17:01:31.
