data_PCOD9489208
_publ_section_title
;
Structure prediction by ZEFSAII (Michael W. Deem and Ramdas Pophale) SiO2 
 PCOD9489208
Probable space group: C M M M
;
_chemical_formula_sum "Si O2"
_cell_formula_units_Z 88
_cell_length_a 7.836980
_cell_length_b 32.247304
_cell_length_c 17.564705
_cell_angle_alpha 90.000000
_cell_angle_beta 90.000000
_cell_angle_gamma 90.000000
_cell_volume 4438.978182
_symmetry_space_group_name_H-M "C M M M"
_symmetry_group_IT_number 65
_symmetry_cell_setting 'orthorhombic'
loop_
_space_group_symop_operation_xyz
x,y,z
-x,-y,z
x,-y,-z
-x,y,-z
-x,-y,-z
x,y,-z
-x,y,z
x,-y,z
1/2+x,1/2+y,z
1/2-x,1/2-y,z
1/2+x,1/2-y,-z
1/2-x,1/2+y,-z
1/2-x,1/2-y,-z
1/2+x,1/2+y,-z
1/2-x,1/2+y,z
1/2+x,1/2-y,z
loop_
_atom_site_type_symbol
_atom_site_label
_atom_site_fract_x
_atom_site_fract_y
_atom_site_fract_z
Si Si1 0.706345 0.045837 0.333858
Si Si2 0.295901 0.372626 0.761419
Si Si3 0.291513 0.924493 0.500000
Si Si4 0.701882 0.703532 0.663621
Si Si5 0.694204 0.500000 0.092516
Si Si6 0.702320 0.829347 0.500000
Si Si7 0.709883 0.409492 0.913140
O O1 0.500000 0.045926 0.332829
O O2 0.764063 0.084711 0.283892
O O3 0.760954 0.053834 0.421465
O O4 0.764268 0.000000 0.308311
O O5 0.500000 0.367740 0.766059
O O6 0.223593 0.333455 0.715467
O O7 0.233870 0.378164 0.847881
O O8 0.500000 0.924576 0.500000
O O9 0.230426 0.876678 0.500000
O O10 0.500000 0.700725 0.668941
O O11 0.750000 0.750000 0.685760
O O12 0.747405 0.694307 0.576265
O O13 0.500000 0.500000 0.122141
O O14 0.772181 0.544417 0.111141
O O15 0.684804 0.500000 0.000000
O O16 0.500000 0.832870 0.500000
O O17 0.500000 0.411327 0.913870
O O18 0.762184 0.400888 0.000000
#
# Coordination Sequence:
#
# PCOD9489208 Si02
#       7
#    16  16   8  16   8   8  16
#     4  10  20  34  52  74 103 142 182 213 246 298
#     4  10  21  34  52  79 106 131 168 220 264 301
#     4   9  17  32  53  72  97 137 181 211 239 289
#     4  11  23  38  55  78 106 134 168 212 265 316
#     4   7  10  18  36  64  95 126 159 192 232 287
#     4  11  20  35  59  80 101 136 174 211 259 305
#     4   8  14  26  45  71 102 134 167 205 251 299
#
# _framework density 19.824382
#
# number of rings (size 3 to 8) (size 9 to 14) (size 15 to 20)
#    0.000    2.455    1.818    2.455    1.273    2.182 
#    0.000    0.455    0.000    2.182    0.000    1.273 
#    0.000    0.000    0.000    0.000    0.000    0.182 
#
# Total GULP energy -245509.237291 kJ/mol
# GULP energy per Si atom -5579.755393 kJ/mol
# Density = 1.977926 g / cm^3
# Si number density = 19.824382 Si / 1000 Ang^3
#
#
#
# Elastic Constant Matrix: (Units=GPa)
#
#
# Indices 1 2 3 4 5 6 
#
# 1 26.4379 6.5629 4.5656 0.0000 0.0000 0.0000
# 2 6.5629 152.9518 78.5992 0.0000 0.0000 0.0000
# 3 4.5656 78.5992 140.5587 0.0000 0.0000 0.0000
# 4 0.0000 0.0000 0.0000 2.2468 0.0000 0.0000
# 5 0.0000 0.0000 0.0000 0.0000 -3.9989 0.0000
# 6 0.0000 0.0000 0.0000 0.0000 0.0000 16.2943
#
#
#
# Elastic Compliance Matrix: (Units=1/GPa)
#
#
# Indices 1 2 3 4 5 6 
#
# 1 0.038252 -0.001407 -0.000456 0.000000 0.000000 0.000000
# 2 -0.001407 0.009226 -0.005113 0.000000 0.000000 0.000000
# 3 -0.000456 -0.005113 0.009989 0.000000 0.000000 0.000000
# 4 0.000000 0.000000 0.000000 0.445072 0.000000 0.000000
# 5 0.000000 0.000000 0.000000 0.000000 -0.250066 0.000000
# 6 0.000000 0.000000 0.000000 0.000000 0.000000 0.061371
#
#
# Mechanical properties :
#
#
# Convention : Reuss Voigt Hill
#
# Bulk Modulus (GPa) = 22.98076 55.48930 39.23503
# Shear Modulus (GPa) = 14.60703 18.25651 16.43177
#
# Velocity S-wave (km/s) = 2.71739 3.03795 2.88213
# Velocity P-wave (km/s) = 4.63281 6.35269 5.55966
#
# Compressibility (1/GPa) = 0.04351466
#
# Stress axis : x y z
#
# Youngs Moduli (GPa) = 26.14214 108.38831 100.11363
#
# Poissons Ratio (x) = 0.15253 0.04561
# Poissons Ratio (y) = 0.03679 0.51192
# Poissons Ratio (z) = 0.01191 0.55424
#
# Static dielectric constant tensor:
#      x y z
#    x 1.719340 0.000000 0.000000 
#    y 0.000000 1.849420 0.000000 
#    z 0.000000 0.000000 1.672490 
# 
# From -- ./inp_files/50513.got.cif
#   From: 2010.05.17/outbox.cif.g08.bks.cpg/sg65_26_cif.got.tgz:50513.got - 2010.06.03 17:01:31.
