data_PCOD9489846
_publ_section_title
;
Structure prediction by ZEFSAII (Michael W. Deem and Ramdas Pophale) SiO2 
 PCOD9489846
Probable space group: C M M M
;
_chemical_formula_sum "Si O2"
_cell_formula_units_Z 64
_cell_length_a 7.867331
_cell_length_b 14.744314
_cell_length_c 26.213156
_cell_angle_alpha 90.000000
_cell_angle_beta 90.000000
_cell_angle_gamma 90.000000
_cell_volume 3040.684118
_symmetry_space_group_name_H-M "C M M M"
_symmetry_group_IT_number 65
_symmetry_cell_setting 'orthorhombic'
loop_
_space_group_symop_operation_xyz
x,y,z
-x,-y,z
x,-y,-z
-x,y,-z
-x,-y,-z
x,y,-z
-x,y,z
x,-y,z
1/2+x,1/2+y,z
1/2-x,1/2-y,z
1/2+x,1/2-y,-z
1/2-x,1/2+y,-z
1/2-x,1/2-y,-z
1/2+x,1/2+y,-z
1/2-x,1/2+y,z
1/2+x,1/2-y,z
loop_
_atom_site_type_symbol
_atom_site_label
_atom_site_fract_x
_atom_site_fract_y
_atom_site_fract_z
Si Si1 0.699688 0.000000 0.697085
Si Si2 0.208644 0.500000 0.417724
Si Si3 0.205453 0.857283 0.000000
Si Si4 0.797854 0.144925 0.779582
Si Si5 0.294802 0.357054 0.890219
Si Si6 0.296084 0.145005 0.500000
O O1 0.743360 0.913733 0.731675
O O2 0.500000 0.000000 0.689998
O O3 0.773956 0.000000 0.640106
O O4 0.262127 0.411818 0.450373
O O5 0.000000 0.500000 0.417284
O O6 0.250000 0.750000 0.000000
O O7 0.267561 0.893139 0.945079
O O8 0.000000 0.866535 0.000000
O O9 0.750000 0.250000 0.773943
O O10 0.731220 0.110338 0.834972
O O11 0.000000 0.138657 0.782466
O O12 0.500000 0.367512 0.890669
O O13 0.250000 0.250000 0.890101
O O14 0.500000 0.139891 0.500000
O O15 0.250000 0.250000 0.500000
#
# Coordination Sequence:
#
# PCOD9489846 Si02
#       6
#     8   8   8  16  16   8
#     4  11  22  37  56  79 107 144 184 223 262 304
#     4   8  18  36  56  78 109 143 175 209 254 307
#     4   8  12  20  36  61  88 117 154 202 256 313
#     4  10  20  35  53  76 105 140 179 222 269 321
#     4   8  14  24  41  64  92 123 161 207 259 315
#     4   9  17  35  60  84 110 141 171 207 254 304
#
# _framework density 21.047895
#
# number of rings (size 3 to 8) (size 9 to 14) (size 15 to 20)
#    0.000    3.000    0.000    1.875    0.000    2.000 
#    0.000    6.250    0.000    0.750    0.000    5.250 
#    0.000    0.000    0.000    0.000    0.000    0.000 
#
# Total GULP energy -178317.662480 kJ/mol
# GULP energy per Si atom -5572.426952 kJ/mol
# Density = 2.099999 g / cm^3
# Si number density = 21.047895 Si / 1000 Ang^3
#
#
#
# Elastic Constant Matrix: (Units=GPa)
#
#
# Indices 1 2 3 4 5 6 
#
# 1 26.9874 0.8591 17.5531 0.0000 0.0000 0.0000
# 2 0.8591 127.4442 96.4596 0.0000 0.0000 0.0000
# 3 17.5531 96.4596 276.5969 0.0000 0.0000 0.0000
# 4 0.0000 0.0000 0.0000 20.7844 0.0000 0.0000
# 5 0.0000 0.0000 0.0000 0.0000 16.3957 0.0000
# 6 0.0000 0.0000 0.0000 0.0000 0.0000 18.5306
#
#
#
# Elastic Compliance Matrix: (Units=1/GPa)
#
#
# Indices 1 2 3 4 5 6 
#
# 1 0.039096 0.002193 -0.003246 0.000000 0.000000 0.000000
# 2 0.002193 0.010783 -0.003900 0.000000 0.000000 0.000000
# 3 -0.003246 -0.003900 0.005181 0.000000 0.000000 0.000000
# 4 0.000000 0.000000 0.000000 0.048113 0.000000 0.000000
# 5 0.000000 0.000000 0.000000 0.000000 0.060992 0.000000
# 6 0.000000 0.000000 0.000000 0.000000 0.000000 0.053965
#
#
# Mechanical properties :
#
#
# Convention : Reuss Voigt Hill
#
# Bulk Modulus (GPa) = 22.14570 73.41912 47.78241
# Shear Modulus (GPa) = 20.56881 32.21927 26.39404
#
# Velocity S-wave (km/s) = 3.12947 3.91674 3.54503
# Velocity P-wave (km/s) = 4.85825 7.44393 6.28548
#
# Compressibility (1/GPa) = 0.04515549
#
# Stress axis : x y z
#
# Youngs Moduli (GPa) = 25.57830 92.73495 193.00003
#
# Poissons Ratio (x) = -0.20339 0.62646
# Poissons Ratio (y) = -0.05610 0.75265
# Poissons Ratio (z) = 0.08302 0.36164
#
# Static dielectric constant tensor:
#      x y z
#    x 1.779300 0.000000 0.000000 
#    y 0.000000 1.788520 0.000000 
#    z 0.000000 0.000000 1.830210 
# 
# From -- ./inp_files/66888.got.cif
#   From: 2010.05.17/outbox.cif.g08.bks.cpg/sg65_34_cif.got.tgz:66888.got - 2010.06.03 17:01:31.
