data_PCOD9489084
_publ_section_title
;
Structure prediction by ZEFSAII (Michael W. Deem and Ramdas Pophale) SiO2 
 PCOD9489084
Probable space group: C M M M
;
_chemical_formula_sum "Si O2"
_cell_formula_units_Z 88
_cell_length_a 8.963534
_cell_length_b 27.953651
_cell_length_c 22.013765
_cell_angle_alpha 90.000000
_cell_angle_beta 90.000000
_cell_angle_gamma 90.000000
_cell_volume 5515.846032
_symmetry_space_group_name_H-M "C M M M"
_symmetry_group_IT_number 65
_symmetry_cell_setting 'orthorhombic'
loop_
_space_group_symop_operation_xyz
x,y,z
-x,-y,z
x,-y,-z
-x,y,-z
-x,-y,-z
x,y,-z
-x,y,z
x,-y,z
1/2+x,1/2+y,z
1/2-x,1/2-y,z
1/2+x,1/2-y,-z
1/2-x,1/2+y,-z
1/2-x,1/2-y,-z
1/2+x,1/2+y,-z
1/2-x,1/2+y,z
1/2+x,1/2-y,z
loop_
_atom_site_type_symbol
_atom_site_label
_atom_site_fract_x
_atom_site_fract_y
_atom_site_fract_z
Si Si1 0.320865 0.891257 0.748539
Si Si2 0.672534 0.558099 0.500000
Si Si3 0.821072 0.554563 0.872670
Si Si4 0.321084 0.698820 0.810295
Si Si5 0.820443 0.854640 0.067666
Si Si6 0.679551 0.055876 0.374418
O O1 0.500000 0.883589 0.747850
O O2 0.290089 0.928317 0.803586
O O3 0.239215 0.842252 0.765577
O O4 0.275516 0.913708 0.684304
O O5 0.681334 0.500000 0.500000
O O6 0.500000 0.571917 0.500000
O O7 0.751320 0.573410 0.562293
O O8 0.772389 0.500000 0.882391
O O9 0.744921 0.593462 0.915756
O O10 0.000000 0.556661 0.881006
O O11 0.500000 0.701271 0.807635
O O12 0.250000 0.750000 0.797448
O O13 0.275429 0.681031 0.878139
O O14 0.000000 0.857478 0.068921
O O15 0.773275 0.839934 0.000000
O O16 0.500000 0.057395 0.378994
O O17 0.721576 0.000000 0.365485
#
# Coordination Sequence:
#
# PCOD9489084 Si02
#       6
#    16   8  16  16  16  16
#     4   9  17  30  48  69  92 119 152 189 228 269
#     4   9  17  27  39  61  96 133 164 193 223 255
#     4   9  17  29  45  66  92 120 151 187 224 263
#     4  10  20  34  51  69  89 113 144 186 234 280
#     4   9  19  34  48  64  88 117 149 184 224 273
#     4   9  16  27  45  68  95 128 162 191 220 258
#
# _framework density 15.954034999999999
#
# number of rings (size 3 to 8) (size 9 to 14) (size 15 to 20)
#    0.000    2.818    0.000    1.364    0.000    6.182 
#    0.000    1.818    0.000    3.273    0.000    0.636 
#    0.000    0.000    0.000    0.000    0.000    0.000 
#
# Total GULP energy -245243.775593 kJ/mol
# GULP energy per Si atom -5573.722173 kJ/mol
# Density = 1.591772 g / cm^3
# Si number density = 15.954035 Si / 1000 Ang^3
#
#
#
# Elastic Constant Matrix: (Units=GPa)
#
#
# Indices 1 2 3 4 5 6 
#
# 1 19.1528 22.9122 29.9535 0.0000 0.0000 0.0000
# 2 22.9122 76.6965 32.2654 0.0000 0.0000 0.0000
# 3 29.9535 32.2654 118.7076 0.0000 0.0000 0.0000
# 4 0.0000 0.0000 0.0000 10.6706 0.0000 0.0000
# 5 0.0000 0.0000 0.0000 0.0000 20.9901 0.0000
# 6 0.0000 0.0000 0.0000 0.0000 0.0000 23.0667
#
#
#
# Elastic Compliance Matrix: (Units=1/GPa)
#
#
# Indices 1 2 3 4 5 6 
#
# 1 0.119293 -0.025940 -0.023051 0.000000 0.000000 0.000000
# 2 -0.025940 0.020363 0.001011 0.000000 0.000000 0.000000
# 3 -0.023051 0.001011 0.013966 0.000000 0.000000 0.000000
# 4 0.000000 0.000000 0.000000 0.093716 0.000000 0.000000
# 5 0.000000 0.000000 0.000000 0.000000 0.047642 0.000000
# 6 0.000000 0.000000 0.000000 0.000000 0.000000 0.043352
#
#
# Mechanical properties :
#
#
# Convention : Reuss Voigt Hill
#
# Bulk Modulus (GPa) = 17.34265 42.75767 30.05016
# Shear Modulus (GPa) = 11.02507 19.57386 15.29947
#
# Velocity S-wave (km/s) = 2.63164 3.50650 3.10009
# Velocity P-wave (km/s) = 4.48643 6.57668 5.62942
#
# Compressibility (1/GPa) = 0.05766133
#
# Stress axis : x y z
#
# Youngs Moduli (GPa) = 8.38270 49.10984 71.60422
#
# Poissons Ratio (x) = 1.27393 1.65052
# Poissons Ratio (y) = 0.21745 -0.07238
# Poissons Ratio (z) = 0.19323 -0.04965
#
# Static dielectric constant tensor:
#      x y z
#    x 1.533330 0.000000 0.000000 
#    y 0.000000 1.503280 0.000000 
#    z 0.000000 0.000000 1.536150 
# 
# From -- ./inp_files/59783.got.cif
#   From: 2010.05.17/outbox.cif.g08.bks.cpg/sg65_30_cif.got.tgz:59783.got - 2010.06.03 17:01:31.
