data_PCOD9489625
_publ_section_title
;
Structure prediction by ZEFSAII (Michael W. Deem and Ramdas Pophale) SiO2 
 PCOD9489625
Probable space group: C M M M
;
_chemical_formula_sum "Si O2"
_cell_formula_units_Z 116
_cell_length_a 7.626311
_cell_length_b 26.736515
_cell_length_c 26.682433
_cell_angle_alpha 90.000000
_cell_angle_beta 90.000000
_cell_angle_gamma 90.000000
_cell_volume 5440.574196
_symmetry_space_group_name_H-M "C M M M"
_symmetry_group_IT_number 65
_symmetry_cell_setting 'orthorhombic'
loop_
_space_group_symop_operation_xyz
x,y,z
-x,-y,z
x,-y,-z
-x,y,-z
-x,-y,-z
x,y,-z
-x,y,z
x,-y,z
1/2+x,1/2+y,z
1/2-x,1/2-y,z
1/2+x,1/2-y,-z
1/2-x,1/2+y,-z
1/2-x,1/2-y,-z
1/2+x,1/2+y,-z
1/2-x,1/2+y,z
1/2+x,1/2-y,z
loop_
_atom_site_type_symbol
_atom_site_label
_atom_site_fract_x
_atom_site_fract_y
_atom_site_fract_z
Si Si1 0.206069 0.445733 0.939586
Si Si2 0.209214 0.196047 0.705938
Si Si3 0.703385 0.337213 0.188358
Si Si4 0.750000 0.250000 0.000000
Si Si5 0.202536 0.665005 0.078428
Si Si6 0.286872 0.406827 0.337866
Si Si7 0.712052 0.440915 0.553921
Si Si8 0.793590 0.444975 0.771138
O O1 0.278218 0.500000 0.922357
O O2 0.279190 0.391488 0.924873
O O3 0.000000 0.445198 0.924325
O O4 0.212051 0.446425 0.000000
O O5 0.250000 0.250000 0.685087
O O6 0.279213 0.189616 0.762407
O O7 0.271016 0.149607 0.673593
O O8 0.000000 0.190574 0.709910
O O9 0.500000 0.324076 0.182217
O O10 0.794777 0.323186 0.136999
O O11 0.714368 0.396556 0.201600
O O12 0.714372 0.292813 0.043760
O O13 0.000000 0.663080 0.060188
O O14 0.500000 0.409991 0.338216
O O15 0.222228 0.421783 0.392681
O O16 0.229793 0.437855 0.288899
O O17 0.775387 0.420343 0.500000
O O18 0.500000 0.434259 0.554266
O O19 0.745457 0.500000 0.553538
O O20 0.725022 0.500000 0.785275
O O21 0.000000 0.443692 0.782426
#
# Coordination Sequence:
#
# PCOD9489625 Si02
#       8
#    16  16  16   4  16  16  16  16
#     4   8  14  29  55  82 104 128 165 212 255 300
#     4   9  19  34  51  72  96 128 172 219 270 325
#     4  10  23  40  57  81 109 138 175 219 272 328
#     4  12  26  40  58  88 118 150 184 220 264 320
#     4  11  23  40  61  86 114 145 182 223 271 324
#     4   9  17  30  49  75 106 141 182 229 277 321
#     4   8  13  22  41  72 106 139 177 220 267 320
#     4  10  20  34  54  82 114 147 183 219 263 326
#
# _framework density 21.321280000000002
#
# number of rings (size 3 to 8) (size 9 to 14) (size 15 to 20)
#    0.000    2.621    0.690    3.103    0.966    6.069 
#    0.000    1.379    0.000    0.828    0.000    2.897 
#    0.000    0.000    0.000    0.000    0.000    0.276 
#
# Total GULP energy -323034.130831 kJ/mol
# GULP energy per Si atom -5569.553980 kJ/mol
# Density = 2.127275 g / cm^3
# Si number density = 21.321280 Si / 1000 Ang^3
#
#
#
# Elastic Constant Matrix: (Units=GPa)
#
#
# Indices 1 2 3 4 5 6 
#
# 1 46.5162 -1.6752 3.6178 0.0000 0.0000 0.0000
# 2 -1.6752 97.3468 23.1047 0.0000 0.0000 0.0000
# 3 3.6178 23.1047 137.7739 0.0000 0.0000 0.0000
# 4 0.0000 0.0000 0.0000 -17.1104 0.0000 0.0000
# 5 0.0000 0.0000 0.0000 0.0000 -6.4762 0.0000
# 6 0.0000 0.0000 0.0000 0.0000 0.0000 4.2069
#
#
#
# Elastic Compliance Matrix: (Units=1/GPa)
#
#
# Indices 1 2 3 4 5 6 
#
# 1 0.021568 0.000527 -0.000655 0.000000 0.000000 0.000000
# 2 0.000527 0.010711 -0.001810 0.000000 0.000000 0.000000
# 3 -0.000655 -0.001810 0.007579 0.000000 0.000000 0.000000
# 4 0.000000 0.000000 0.000000 -0.058444 0.000000 0.000000
# 5 0.000000 0.000000 0.000000 0.000000 -0.154412 0.000000
# 6 0.000000 0.000000 0.000000 0.000000 0.000000 0.237704
#
#
# Mechanical properties :
#
#
# Convention : Reuss Voigt Hill
#
# Bulk Modulus (GPa) = 27.79200 36.85904 32.32552
# Shear Modulus (GPa) = 62.05301 13.23006 37.64153
#
# Velocity S-wave (km/s) = 5.40065 2.49371 4.20628
# Velocity P-wave (km/s) = 7.20781 5.06126 6.22771
#
# Compressibility (1/GPa) = 0.03598157
#
# Stress axis : x y z
#
# Youngs Moduli (GPa) = 46.36554 93.35998 131.94334
#
# Poissons Ratio (x) = -0.04916 0.08638
# Poissons Ratio (y) = -0.02441 0.23883
# Poissons Ratio (z) = 0.03035 0.16899
#
# Static dielectric constant tensor:
#      x y z
#    x 1.840160 0.000000 0.000000 
#    y 0.000000 1.809240 0.000000 
#    z 0.000000 0.000000 1.776950 
# 
# From -- ./inp_files/73956.got.cif
#   From: 2010.05.17/outbox.cif.g08.bks.cpg/sg65_37_cif.got.tgz:73956.got - 2010.06.03 17:01:31.
