data_PCOD9489319
_publ_section_title
;
Structure prediction by ZEFSAII (Michael W. Deem and Ramdas Pophale) SiO2 
 PCOD9489319
Probable space group: C M M M
;
_chemical_formula_sum "Si O2"
_cell_formula_units_Z 104
_cell_length_a 9.156620
_cell_length_b 20.414190
_cell_length_c 33.108898
_cell_angle_alpha 90.000000
_cell_angle_beta 90.000000
_cell_angle_gamma 90.000000
_cell_volume 6188.880111
_symmetry_space_group_name_H-M "C M M M"
_symmetry_group_IT_number 65
_symmetry_cell_setting 'orthorhombic'
loop_
_space_group_symop_operation_xyz
x,y,z
-x,-y,z
x,-y,-z
-x,y,-z
-x,-y,-z
x,y,-z
-x,y,z
x,-y,z
1/2+x,1/2+y,z
1/2-x,1/2-y,z
1/2+x,1/2-y,-z
1/2-x,1/2+y,-z
1/2-x,1/2-y,-z
1/2+x,1/2+y,-z
1/2-x,1/2+y,z
1/2+x,1/2-y,z
loop_
_atom_site_type_symbol
_atom_site_label
_atom_site_fract_x
_atom_site_fract_y
_atom_site_fract_z
Si Si1 0.673632 0.180957 0.547429
Si Si2 0.674290 0.576406 0.395758
Si Si3 0.825741 0.923441 0.301162
Si Si4 0.674996 0.818816 0.149833
Si Si5 0.825334 0.319363 0.243797
Si Si6 0.824314 0.423589 0.082630
Si Si7 0.832362 0.079553 0.000000
O O1 0.702441 0.167102 0.500000
O O2 0.500000 0.186623 0.552862
O O3 0.750000 0.250000 0.557199
O O4 0.738816 0.124455 0.575299
O O5 0.500000 0.585142 0.401410
O O6 0.707825 0.500000 0.403742
O O7 0.706110 0.589224 0.348473
O O8 0.737529 0.875444 0.272425
O O9 0.000000 0.914237 0.295464
O O10 0.793187 0.000000 0.293194
O O11 0.500000 0.811128 0.147051
O O12 0.750000 0.750000 0.139372
O O13 0.709348 0.833971 0.196675
O O14 0.718618 0.876721 0.119527
O O15 0.750000 0.250000 0.253634
O O16 0.000000 0.314015 0.247831
O O17 0.785624 0.500000 0.090013
O O18 0.000000 0.420867 0.078071
O O19 0.749934 0.401170 0.040962
O O20 0.000000 0.101596 0.000000
O O21 0.831404 0.000000 0.000000
#
# Coordination Sequence:
#
# PCOD9489319 Si02
#       7
#    16  16  16  16  16  16   8
#     4  10  21  36  54  77 105 136 171 212 255 299
#     4   9  19  36  56  77 103 136 171 207 251 303
#     4   9  19  36  55  76 104 135 168 209 254 299
#     4   9  19  34  51  72  99 130 163 202 245 291
#     4  10  20  34  53  76 102 134 171 209 251 300
#     4   9  17  31  51  72  95 126 162 198 240 290
#     4   9  17  29  46  71 100 125 155 199 244 285
#
# _framework density 16.804331999999999
#
# number of rings (size 3 to 8) (size 9 to 14) (size 15 to 20)
#    0.000    2.692    0.000    2.077    0.000    5.846 
#    0.000    5.000    0.000    1.846    0.000    0.000 
#    0.000    0.000    0.000    0.000    0.000    0.000 
#
# Total GULP energy -290001.865748 kJ/mol
# GULP energy per Si atom -5576.958957 kJ/mol
# Density = 1.676608 g / cm^3
# Si number density = 16.804332 Si / 1000 Ang^3
#
#
#
# Elastic Constant Matrix: (Units=GPa)
#
#
# Indices 1 2 3 4 5 6 
#
# 1 56.7852 70.0117 69.9542 0.0000 0.0000 0.0000
# 2 70.0117 123.8965 107.6319 0.0000 0.0000 0.0000
# 3 69.9542 107.6319 114.6183 0.0000 0.0000 0.0000
# 4 0.0000 0.0000 0.0000 61.3434 0.0000 0.0000
# 5 0.0000 0.0000 0.0000 0.0000 25.0335 0.0000
# 6 0.0000 0.0000 0.0000 0.0000 0.0000 32.5738
#
#
#
# Elastic Compliance Matrix: (Units=1/GPa)
#
#
# Indices 1 2 3 4 5 6 
#
# 1 0.075345 -0.014265 -0.032589 0.000000 0.000000 0.000000
# 2 -0.014265 0.046512 -0.034971 0.000000 0.000000 0.000000
# 3 -0.032589 -0.034971 0.061453 0.000000 0.000000 0.000000
# 4 0.000000 0.000000 0.000000 0.016302 0.000000 0.000000
# 5 0.000000 0.000000 0.000000 0.000000 0.039946 0.000000
# 6 0.000000 0.000000 0.000000 0.000000 0.000000 0.030700
#
#
# Mechanical properties :
#
#
# Convention : Reuss Voigt Hill
#
# Bulk Modulus (GPa) = 50.86292 87.83285 69.34788
# Shear Modulus (GPa) = 11.35177 26.97030 19.16103
#
# Velocity S-wave (km/s) = 2.60191 4.01054 3.38041
# Velocity P-wave (km/s) = 6.27376 8.59229 7.52288
#
# Compressibility (1/GPa) = 0.01966069
#
# Stress axis : x y z
#
# Youngs Moduli (GPa) = 13.27237 21.49984 16.27253
#
# Poissons Ratio (x) = 0.30670 0.53030
# Poissons Ratio (y) = 0.18933 0.56906
# Poissons Ratio (z) = 0.43253 0.75186
#
# Static dielectric constant tensor:
#      x y z
#    x 1.557520 0.000000 0.000000 
#    y 0.000000 1.540040 0.000000 
#    z 0.000000 0.000000 1.552900 
# 
# From -- ./inp_files/76878.got.cif
#   From: 2010.05.17/outbox.cif.g08.bks.cpg/sg65_39_cif.got.tgz:76878.got - 2010.06.03 17:01:31.
