data_PCOD9489118
_publ_section_title
;
Structure prediction by ZEFSAII (Michael W. Deem and Ramdas Pophale) SiO2 
 PCOD9489118
Probable space group: C M M M
;
_chemical_formula_sum "Si O2"
_cell_formula_units_Z 104
_cell_length_a 24.228805
_cell_length_b 7.870906
_cell_length_c 30.750966
_cell_angle_alpha 90.000000
_cell_angle_beta 90.000000
_cell_angle_gamma 90.000000
_cell_volume 5864.290603
_symmetry_space_group_name_H-M "C M M M"
_symmetry_group_IT_number 65
_symmetry_cell_setting 'orthorhombic'
loop_
_space_group_symop_operation_xyz
x,y,z
-x,-y,z
x,-y,-z
-x,y,-z
-x,-y,-z
x,y,-z
-x,y,z
x,-y,z
1/2+x,1/2+y,z
1/2-x,1/2-y,z
1/2+x,1/2-y,-z
1/2-x,1/2+y,-z
1/2-x,1/2-y,-z
1/2+x,1/2+y,-z
1/2-x,1/2+y,z
1/2+x,1/2-y,z
loop_
_atom_site_type_symbol
_atom_site_label
_atom_site_fract_x
_atom_site_fract_y
_atom_site_fract_z
Si Si1 0.813743 0.295232 0.048545
Si Si2 0.384080 0.201799 0.130052
Si Si3 0.113542 0.801884 0.293615
Si Si4 0.066689 0.500000 0.450676
Si Si5 0.185879 0.203812 0.784741
Si Si6 0.000000 0.810563 0.839556
Si Si7 0.000000 0.691975 0.746270
Si Si8 0.933809 0.203338 0.384462
O O1 0.817605 0.500000 0.048199
O O2 0.750000 0.250000 0.056252
O O3 0.850896 0.232321 0.088155
O O4 0.828822 0.233565 0.000000
O O5 0.348909 0.232966 0.173856
O O6 0.444089 0.283142 0.134284
O O7 0.391475 0.000000 0.125586
O O8 0.158769 0.728576 0.260302
O O9 0.055068 0.783245 0.269405
O O10 0.101136 0.738949 0.342243
O O11 0.126889 0.000000 0.299023
O O12 0.088099 0.500000 0.500000
O O13 0.080780 0.670981 0.423918
O O14 0.000000 0.500000 0.452952
O O15 0.250000 0.250000 0.788387
O O16 0.180719 0.000000 0.784681
O O17 0.000000 0.688633 0.798187
O O18 0.000000 0.000000 0.820925
O O19 0.000000 0.500000 0.728855
O O20 0.000000 0.222695 0.375260
O O21 0.925416 0.000000 0.392373
#
# Coordination Sequence:
#
# PCOD9489118 Si02
#       8
#    16  16  16   8  16   8   8  16
#     4   9  19  36  58  82 106 133 169 217 267 316
#     4  11  22  37  57  80 105 135 178 218 260 318
#     4  10  20  34  51  72 104 142 177 218 261 309
#     4   9  18  30  44  68 104 140 178 218 261 316
#     4  11  23  37  53  74 107 144 175 213 262 314
#     4  12  24  38  53  75 108 141 175 215 266 312
#     4  12  22  30  52  79 101 135 179 219 257 301
#     4   9  17  29  47  70  99 136 177 217 263 315
#
# _framework density 17.734456999999999
#
# number of rings (size 3 to 8) (size 9 to 14) (size 15 to 20)
#    0.000    1.769    2.308    2.769    1.077    3.385 
#    0.000    1.923    0.000    2.308    0.000    0.000 
#    0.000    0.615    0.308    0.000    0.000    0.000 
#
# Total GULP energy -290067.285953 kJ/mol
# GULP energy per Si atom -5578.217038 kJ/mol
# Density = 1.769409 g / cm^3
# Si number density = 17.734457 Si / 1000 Ang^3
#
#
#
# Elastic Constant Matrix: (Units=GPa)
#
#
# Indices 1 2 3 4 5 6 
#
# 1 94.3806 9.0892 61.5341 0.0000 0.0000 0.0000
# 2 9.0892 50.3941 28.7205 0.0000 0.0000 0.0000
# 3 61.5341 28.7205 152.5760 0.0000 0.0000 0.0000
# 4 0.0000 0.0000 0.0000 16.9314 0.0000 0.0000
# 5 0.0000 0.0000 0.0000 0.0000 19.8409 0.0000
# 6 0.0000 0.0000 0.0000 0.0000 0.0000 9.2292
#
#
#
# Elastic Compliance Matrix: (Units=1/GPa)
#
#
# Indices 1 2 3 4 5 6 
#
# 1 0.014404 0.000798 -0.005959 0.000000 0.000000 0.000000
# 2 0.000798 0.022272 -0.004515 0.000000 0.000000 0.000000
# 3 -0.005959 -0.004515 0.009807 0.000000 0.000000 0.000000
# 4 0.000000 0.000000 0.000000 0.059062 0.000000 0.000000
# 5 0.000000 0.000000 0.000000 0.000000 0.050401 0.000000
# 6 0.000000 0.000000 0.000000 0.000000 0.000000 0.108352
#
#
# Mechanical properties :
#
#
# Convention : Reuss Voigt Hill
#
# Bulk Modulus (GPa) = 36.85578 55.11536 45.98557
# Shear Modulus (GPa) = 17.08274 22.40078 19.74176
#
# Velocity S-wave (km/s) = 3.10700 3.55790 3.34006
# Velocity P-wave (km/s) = 5.80503 6.92992 6.39227
#
# Compressibility (1/GPa) = 0.02713278
#
# Stress axis : x y z
#
# Youngs Moduli (GPa) = 69.42553 44.89844 101.96423
#
# Poissons Ratio (x) = -0.03585 0.60765
# Poissons Ratio (y) = -0.05543 0.46032
# Poissons Ratio (z) = 0.41374 0.20270
#
# Static dielectric constant tensor:
#      x y z
#    x 1.585620 0.000000 0.000000 
#    y 0.000000 1.641080 0.000000 
#    z 0.000000 0.000000 1.624270 
# 
# From -- ./inp_files/75821.got.cif
#   From: 2010.05.17/outbox.cif.g08.bks.cpg/sg65_38_cif.got.tgz:75821.got - 2010.06.03 17:01:31.
