data_PCOD9489167
_publ_section_title
;
Structure prediction by ZEFSAII (Michael W. Deem and Ramdas Pophale) SiO2 
 PCOD9489167
Probable space group: C M M M
;
_chemical_formula_sum "Si O2"
_cell_formula_units_Z 72
_cell_length_a 8.826152
_cell_length_b 15.187270
_cell_length_c 26.753096
_cell_angle_alpha 90.000000
_cell_angle_beta 90.000000
_cell_angle_gamma 90.000000
_cell_volume 3586.122860
_symmetry_space_group_name_H-M "C M M M"
_symmetry_group_IT_number 65
_symmetry_cell_setting 'orthorhombic'
loop_
_space_group_symop_operation_xyz
x,y,z
-x,-y,z
x,-y,-z
-x,y,-z
-x,-y,-z
x,y,-z
-x,y,z
x,-y,z
1/2+x,1/2+y,z
1/2-x,1/2-y,z
1/2+x,1/2-y,-z
1/2-x,1/2+y,-z
1/2-x,1/2-y,-z
1/2+x,1/2+y,-z
1/2-x,1/2+y,z
1/2+x,1/2-y,z
loop_
_atom_site_type_symbol
_atom_site_label
_atom_site_fract_x
_atom_site_fract_y
_atom_site_fract_z
Si Si1 0.683520 0.847878 0.235759
Si Si2 0.815949 0.000000 0.056883
Si Si3 0.182640 0.848261 0.866927
Si Si4 0.823457 0.892612 0.446167
Si Si5 0.669320 0.104856 0.345628
O O1 0.500000 0.851283 0.232889
O O2 0.750000 0.750000 0.234971
O O3 0.752892 0.887370 0.185210
O O4 0.733356 0.883096 0.289972
O O5 0.773226 0.913207 0.088153
O O6 0.000000 0.000000 0.055412
O O7 0.760127 0.000000 0.000000
O O8 0.250000 0.750000 0.873702
O O9 0.000000 0.842561 0.863704
O O10 0.756261 0.864360 0.500000
O O11 0.752104 0.860026 0.394655
O O12 0.000000 0.869744 0.445908
O O13 0.815025 0.000000 0.445792
O O14 0.500000 0.142741 0.344781
O O15 0.659626 0.000000 0.352464
#
# Coordination Sequence:
#
# PCOD9489167 Si02
#       5
#    16   8  16  16  16
#     4  10  20  34  52  73 102 136 170 211 260 312
#     4   9  20  38  59  85 117 151 186 225 270 321
#     4  10  20  36  58  83 111 147 187 226 272 324
#     4   8  14  25  41  63  92 124 158 200 250 302
#     4   9  18  30  45  69  96 125 161 203 255 307
#
# _framework density 20.077393000000001
#
# number of rings (size 3 to 8) (size 9 to 14) (size 15 to 20)
#    0.000    2.778    0.000    3.333    1.556    2.667 
#    0.000    3.889    0.000    5.333    0.000    0.000 
#    0.000    0.000    0.000    0.000    0.000    0.000 
#
# Total GULP energy -200523.972430 kJ/mol
# GULP energy per Si atom -5570.110345 kJ/mol
# Density = 2.003170 g / cm^3
# Si number density = 20.077393 Si / 1000 Ang^3
#
#
#
# Elastic Constant Matrix: (Units=GPa)
#
#
# Indices 1 2 3 4 5 6 
#
# 1 48.9843 18.6075 61.1820 0.0000 0.0000 0.0000
# 2 18.6075 55.5739 52.2882 0.0000 0.0000 0.0000
# 3 61.1820 52.2882 248.9569 0.0000 0.0000 0.0000
# 4 0.0000 0.0000 0.0000 72.6874 0.0000 0.0000
# 5 0.0000 0.0000 0.0000 0.0000 26.7055 0.0000
# 6 0.0000 0.0000 0.0000 0.0000 0.0000 8.5754
#
#
#
# Elastic Compliance Matrix: (Units=1/GPa)
#
#
# Indices 1 2 3 4 5 6 
#
# 1 0.030116 -0.003888 -0.006584 0.000000 0.000000 0.000000
# 2 -0.003888 0.022928 -0.003860 0.000000 0.000000 0.000000
# 3 -0.006584 -0.003860 0.006446 0.000000 0.000000 0.000000
# 4 0.000000 0.000000 0.000000 0.013758 0.000000 0.000000
# 5 0.000000 0.000000 0.000000 0.000000 0.037445 0.000000
# 6 0.000000 0.000000 0.000000 0.000000 0.000000 0.116613
#
#
# Mechanical properties :
#
#
# Convention : Reuss Voigt Hill
#
# Bulk Modulus (GPa) = 32.44261 68.63007 50.53634
# Shear Modulus (GPa) = 18.77970 36.35614 27.56792
#
# Velocity S-wave (km/s) = 3.06169 4.25997 3.70953
# Velocity P-wave (km/s) = 5.35654 7.64548 6.60098
#
# Compressibility (1/GPa) = 0.03082366
#
# Stress axis : x y z
#
# Youngs Moduli (GPa) = 33.20522 43.61544 155.14509
#
# Poissons Ratio (x) = 0.16959 1.02153
# Poissons Ratio (y) = 0.12912 0.59884
# Poissons Ratio (z) = 0.21864 0.16835
#
# Static dielectric constant tensor:
#      x y z
#    x 1.708390 0.000000 0.000000 
#    y 0.000000 1.108580 0.000000 
#    z 0.000000 0.000000 1.772260 
# 
# From -- ./inp_files/72553.got.cif
#   From: 2010.05.17/outbox.cif.g08.bks.cpg/sg65_37_cif.got.tgz:72553.got - 2010.06.03 17:01:31.
