data_PCOD9489156
_publ_section_title
;
Structure prediction by ZEFSAII (Michael W. Deem and Ramdas Pophale) SiO2 
 PCOD9489156
Probable space group: C M M M
;
_chemical_formula_sum "Si O2"
_cell_formula_units_Z 88
_cell_length_a 31.232354
_cell_length_b 8.705643
_cell_length_c 17.923071
_cell_angle_alpha 90.000000
_cell_angle_beta 90.000000
_cell_angle_gamma 90.000000
_cell_volume 4873.242212
_symmetry_space_group_name_H-M "C M M M"
_symmetry_group_IT_number 65
_symmetry_cell_setting 'orthorhombic'
loop_
_space_group_symop_operation_xyz
x,y,z
-x,-y,z
x,-y,-z
-x,y,-z
-x,-y,-z
x,y,-z
-x,y,z
x,-y,z
1/2+x,1/2+y,z
1/2-x,1/2-y,z
1/2+x,1/2-y,-z
1/2-x,1/2+y,-z
1/2-x,1/2-y,-z
1/2+x,1/2+y,-z
1/2-x,1/2+y,z
1/2+x,1/2-y,z
loop_
_atom_site_type_symbol
_atom_site_label
_atom_site_fract_x
_atom_site_fract_y
_atom_site_fract_z
Si Si1 0.951713 0.184561 0.411765
Si Si2 0.822620 0.184934 0.918744
Si Si3 0.795102 0.184535 0.754358
Si Si4 0.586671 0.317671 0.852850
Si Si5 0.382089 0.181592 0.301069
Si Si6 0.000000 0.675332 0.911158
O O1 0.948027 0.217363 0.500000
O O2 0.913366 0.259022 0.365788
O O3 0.000000 0.233048 0.387676
O O4 0.949609 0.000000 0.402507
O O5 0.801916 0.239688 0.840931
O O6 0.873319 0.213478 0.907621
O O7 0.816717 0.000000 0.919935
O O8 0.808320 0.245466 0.000000
O O9 0.750000 0.250000 0.727776
O O10 0.835285 0.241239 0.705768
O O11 0.794971 0.000000 0.754936
O O12 0.586817 0.500000 0.837774
O O13 0.595617 0.229110 0.776501
O O14 0.542132 0.263479 0.885418
O O15 0.376975 0.000000 0.306241
O O16 0.000000 0.500000 0.882310
O O17 0.000000 0.669578 0.000000
#
# Coordination Sequence:
#
# PCOD9489156 Si02
#       6
#    16  16  16  16  16   8
#     4   9  19  37  61  88 118 151 185 220 262 319
#     4   8  15  29  49  72  98 130 173 225 277 328
#     4  10  20  35  55  79 108 143 186 232 282 337
#     4  10  20  34  52  72  98 139 187 230 271 325
#     4  11  22  36  56  82 114 147 182 227 277 327
#     4  11  23  35  47  69 102 137 178 231 285 333
#
# _framework density 18.057794000000001
#
# number of rings (size 3 to 8) (size 9 to 14) (size 15 to 20)
#    0.000    2.273    0.000    5.182    1.273    2.545 
#    0.000    0.909    0.000   10.909    0.000    0.000 
#    0.000    0.000    0.000    0.000    0.000    0.000 
#
# Total GULP energy -245469.656153 kJ/mol
# GULP energy per Si atom -5578.855822 kJ/mol
# Density = 1.801669 g / cm^3
# Si number density = 18.057794 Si / 1000 Ang^3
#
#
#
# Elastic Constant Matrix: (Units=GPa)
#
#
# Indices 1 2 3 4 5 6 
#
# 1 147.5771 45.3242 49.5002 0.0000 0.0000 0.0000
# 2 45.3242 66.3476 33.3364 0.0000 0.0000 0.0000
# 3 49.5002 33.3364 62.6198 0.0000 0.0000 0.0000
# 4 0.0000 0.0000 0.0000 15.7955 0.0000 0.0000
# 5 0.0000 0.0000 0.0000 0.0000 11.9694 0.0000
# 6 0.0000 0.0000 0.0000 0.0000 0.0000 46.4309
#
#
#
# Elastic Compliance Matrix: (Units=1/GPa)
#
#
# Indices 1 2 3 4 5 6 
#
# 1 0.009897 -0.003863 -0.005767 0.000000 0.000000 0.000000
# 2 -0.003863 0.022084 -0.008703 0.000000 0.000000 0.000000
# 3 -0.005767 -0.008703 0.025161 0.000000 0.000000 0.000000
# 4 0.000000 0.000000 0.000000 0.063309 0.000000 0.000000
# 5 0.000000 0.000000 0.000000 0.000000 0.083547 0.000000
# 6 0.000000 0.000000 0.000000 0.000000 0.000000 0.021537
#
#
# Mechanical properties :
#
#
# Convention : Reuss Voigt Hill
#
# Bulk Modulus (GPa) = 48.83711 59.20733 54.02222
# Shear Modulus (GPa) = 18.58557 24.73140 21.65848
#
# Velocity S-wave (km/s) = 3.21164 3.70478 3.46699
# Velocity P-wave (km/s) = 6.39190 7.15258 6.78291
#
# Compressibility (1/GPa) = 0.02047623
#
# Stress axis : x y z
#
# Youngs Moduli (GPa) = 101.04166 45.28147 39.74428
#
# Poissons Ratio (x) = 0.17494 0.22919
# Poissons Ratio (y) = 0.39037 0.34588
# Poissons Ratio (z) = 0.58267 0.39407
#
# Static dielectric constant tensor:
#      x y z
#    x 1.610640 0.000000 0.000000 
#    y 0.000000 1.611970 0.000000 
#    z 0.000000 0.000000 1.615210 
# 
# From -- ./inp_files/50363.got.cif
#   From: 2010.05.17/outbox.cif.g08.bks.cpg/sg65_26_cif.got.tgz:50363.got - 2010.06.03 17:01:31.
