data_PCOD9489313
_publ_section_title
;
Structure prediction by ZEFSAII (Michael W. Deem and Ramdas Pophale) SiO2 
 PCOD9489313
Probable space group: C M M M
;
_chemical_formula_sum "Si O2"
_cell_formula_units_Z 104
_cell_length_a 20.391843
_cell_length_b 8.084967
_cell_length_c 34.457009
_cell_angle_alpha 90.000000
_cell_angle_beta 90.000000
_cell_angle_gamma 90.000000
_cell_volume 5680.836718
_symmetry_space_group_name_H-M "C M M M"
_symmetry_group_IT_number 65
_symmetry_cell_setting 'orthorhombic'
loop_
_space_group_symop_operation_xyz
x,y,z
-x,-y,z
x,-y,-z
-x,y,-z
-x,-y,-z
x,y,-z
-x,y,z
x,-y,z
1/2+x,1/2+y,z
1/2-x,1/2-y,z
1/2+x,1/2-y,-z
1/2-x,1/2+y,-z
1/2-x,1/2-y,-z
1/2+x,1/2+y,-z
1/2-x,1/2+y,z
1/2+x,1/2-y,z
loop_
_atom_site_type_symbol
_atom_site_label
_atom_site_fract_x
_atom_site_fract_y
_atom_site_fract_z
Si Si1 0.173855 0.799729 0.414989
Si Si2 0.826155 0.800915 0.500000
Si Si3 0.074564 0.800861 0.043569
Si Si4 0.575145 0.300398 0.651451
Si Si5 0.824292 0.300036 0.196492
Si Si6 0.574891 0.800219 0.738429
Si Si7 0.823809 0.696834 0.108865
O O1 0.250000 0.750000 0.409864
O O2 0.149395 0.742899 0.457825
O O3 0.126375 0.739894 0.380790
O O4 0.172370 0.000000 0.414876
O O5 0.750000 0.750000 0.500000
O O6 0.831463 0.000000 0.500000
O O7 0.124583 0.750695 0.076740
O O8 0.000000 0.743354 0.051340
O O9 0.073122 0.000000 0.042588
O O10 0.093183 0.743828 0.000000
O O11 0.500000 0.242264 0.644971
O O12 0.574180 0.500000 0.649549
O O13 0.594625 0.250993 0.695033
O O14 0.827406 0.500000 0.196123
O O15 0.750000 0.250000 0.206094
O O16 0.875749 0.239600 0.228468
O O17 0.838383 0.239694 0.152569
O O18 0.500000 0.742460 0.744797
O O19 0.574381 0.000000 0.739799
O O20 0.824962 0.500000 0.110767
O O21 0.750000 0.750000 0.098732
#
# Coordination Sequence:
#
# PCOD9489313 Si02
#       7
#    16   8  16  16  16  16  16
#     4   9  17  29  46  67  90 117 150 188 227 270
#     4   8  14  26  43  63  87 115 147 182 224 270
#     4   9  19  36  55  75 102 134 166 203 246 289
#     4   9  18  32  47  65  92 122 151 187 230 273
#     4   9  19  34  51  72  98 126 156 195 239 280
#     4   9  18  33  51  69  91 122 158 192 229 276
#     4  10  20  34  53  76 102 132 165 202 244 290
#
# _framework density 18.307161000000001
#
# number of rings (size 3 to 8) (size 9 to 14) (size 15 to 20)
#    0.000    2.923    0.000    0.923    0.000    4.000 
#    0.000    5.769    0.000    4.154    0.000    0.000 
#    0.000    8.615    0.000    0.000    0.000    0.000 
#
# Total GULP energy -289757.310640 kJ/mol
# GULP energy per Si atom -5572.255974 kJ/mol
# Density = 1.826549 g / cm^3
# Si number density = 18.307161 Si / 1000 Ang^3
#
#
#
# Elastic Constant Matrix: (Units=GPa)
#
#
# Indices 1 2 3 4 5 6 
#
# 1 116.1646 10.5661 135.4509 0.0000 0.0000 0.0000
# 2 10.5661 11.0890 14.6331 0.0000 0.0000 0.0000
# 3 135.4509 14.6331 196.4809 0.0000 0.0000 0.0000
# 4 0.0000 0.0000 0.0000 23.2859 0.0000 0.0000
# 5 0.0000 0.0000 0.0000 0.0000 125.2233 0.0000
# 6 0.0000 0.0000 0.0000 0.0000 0.0000 21.3912
#
#
#
# Elastic Compliance Matrix: (Units=1/GPa)
#
#
# Indices 1 2 3 4 5 6 
#
# 1 0.043929 -0.002101 -0.030128 0.000000 0.000000 0.000000
# 2 -0.002101 0.100108 -0.006007 0.000000 0.000000 0.000000
# 3 -0.030128 -0.006007 0.026307 0.000000 0.000000 0.000000
# 4 0.000000 0.000000 0.000000 0.042944 0.000000 0.000000
# 5 0.000000 0.000000 0.000000 0.000000 0.007986 0.000000
# 6 0.000000 0.000000 0.000000 0.000000 0.000000 0.046748
#
#
# Mechanical properties :
#
#
# Convention : Reuss Voigt Hill
#
# Bulk Modulus (GPa) = 10.65278 71.67052 41.16165
# Shear Modulus (GPa) = 13.30547 44.85238 29.07892
#
# Velocity S-wave (km/s) = 2.69883 4.95511 3.98979
# Velocity P-wave (km/s) = 3.94248 8.48359 6.61493
#
# Compressibility (1/GPa) = 0.09387220
#
# Stress axis : x y z
#
# Youngs Moduli (GPa) = 22.76386 9.98918 38.01338
#
# Poissons Ratio (x) = 0.02099 1.14526
# Poissons Ratio (y) = 0.04783 0.22835
# Poissons Ratio (z) = 0.68582 0.06001
#
# Static dielectric constant tensor:
#      x y z
#    x 1.581790 0.000000 0.000000 
#    y 0.000000 1.658850 0.000000 
#    z 0.000000 0.000000 1.649480 
# 
# From -- ./inp_files/75487.got.cif
#   From: 2010.05.17/outbox.cif.g08.bks.cpg/sg65_38_cif.got.tgz:75487.got - 2010.06.03 17:01:31.
