data_PCOD9489185
_publ_section_title
;
Structure prediction by ZEFSAII (Michael W. Deem and Ramdas Pophale) SiO2 
 PCOD9489185
Probable space group: C M M M
;
_chemical_formula_sum "Si O2"
_cell_formula_units_Z 88
_cell_length_a 9.408516
_cell_length_b 18.745294
_cell_length_c 28.827770
_cell_angle_alpha 90.000000
_cell_angle_beta 90.000000
_cell_angle_gamma 90.000000
_cell_volume 5084.221145
_symmetry_space_group_name_H-M "C M M M"
_symmetry_group_IT_number 65
_symmetry_cell_setting 'orthorhombic'
loop_
_space_group_symop_operation_xyz
x,y,z
-x,-y,z
x,-y,-z
-x,y,-z
-x,-y,-z
x,y,-z
-x,y,z
x,-y,z
1/2+x,1/2+y,z
1/2-x,1/2-y,z
1/2+x,1/2-y,-z
1/2-x,1/2+y,-z
1/2-x,1/2-y,-z
1/2+x,1/2+y,-z
1/2-x,1/2+y,z
1/2+x,1/2-y,z
loop_
_atom_site_type_symbol
_atom_site_label
_atom_site_fract_x
_atom_site_fract_y
_atom_site_fract_z
Si Si1 0.167480 0.916063 0.626672
Si Si2 0.673120 0.417804 0.192982
Si Si3 0.163212 0.412852 0.000000
Si Si4 0.836058 0.086926 0.909821
Si Si5 0.332624 0.823401 0.554943
Si Si6 0.329601 0.324602 0.718854
O O1 0.263069 0.884569 0.585841
O O2 0.197886 0.873282 0.673881
O O3 0.000000 0.905484 0.615612
O O4 0.190769 0.000000 0.633497
O O5 0.500000 0.419202 0.192201
O O6 0.719100 0.500000 0.200276
O O7 0.717009 0.392675 0.141530
O O8 0.716257 0.367133 0.234932
O O9 0.243054 0.389443 0.953302
O O10 0.166583 0.500000 0.000000
O O11 0.000000 0.390620 0.000000
O O12 0.000000 0.109354 0.915676
O O13 0.836425 0.000000 0.909514
O O14 0.315834 0.837586 0.500000
O O15 0.500000 0.815281 0.564690
O O16 0.250000 0.750000 0.565563
O O17 0.500000 0.313431 0.721416
O O18 0.250000 0.250000 0.714827
#
# Coordination Sequence:
#
# PCOD9489185 Si02
#       6
#    16  16   8  16  16  16
#     4  10  21  36  55  79 106 137 172 211 255 302
#     4   8  14  27  48  70  91 120 160 202 239 279
#     4   9  15  21  31  53  88 123 148 177 227 285
#     4   8  13  22  38  59  82 112 152 193 229 270
#     4  10  21  37  57  80 107 140 176 213 253 298
#     4  10  20  34  52  74 100 129 163 202 246 297
#
# _framework density 17.308451999999999
#
# number of rings (size 3 to 8) (size 9 to 14) (size 15 to 20)
#    0.000    2.818    0.000    3.000    0.000    7.273 
#    0.000    2.727    0.000    2.727    0.000    0.636 
#    0.000    0.000    0.000    0.000    0.000    0.000 
#
# Total GULP energy -245292.554306 kJ/mol
# GULP energy per Si atom -5574.830780 kJ/mol
# Density = 1.726906 g / cm^3
# Si number density = 17.308452 Si / 1000 Ang^3
#
#
#
# Elastic Constant Matrix: (Units=GPa)
#
#
# Indices 1 2 3 4 5 6 
#
# 1 70.2389 53.6851 73.4327 0.0000 0.0000 0.0000
# 2 53.6851 89.9994 70.5830 0.0000 0.0000 0.0000
# 3 73.4327 70.5830 110.9095 0.0000 0.0000 0.0000
# 4 0.0000 0.0000 0.0000 -17.2207 0.0000 0.0000
# 5 0.0000 0.0000 0.0000 0.0000 -1.1700 0.0000
# 6 0.0000 0.0000 0.0000 0.0000 0.0000 22.8906
#
#
#
# Elastic Compliance Matrix: (Units=1/GPa)
#
#
# Indices 1 2 3 4 5 6 
#
# 1 0.048668 -0.007506 -0.027446 0.000000 0.000000 0.000000
# 2 -0.007506 0.023340 -0.009884 0.000000 0.000000 0.000000
# 3 -0.027446 -0.009884 0.033479 0.000000 0.000000 0.000000
# 4 0.000000 0.000000 0.000000 -0.058070 0.000000 0.000000
# 5 0.000000 0.000000 0.000000 0.000000 -0.854704 0.000000
# 6 0.000000 0.000000 0.000000 0.000000 0.000000 0.043686
#
#
# Mechanical properties :
#
#
# Convention : Reuss Voigt Hill
#
# Bulk Modulus (GPa) = 63.23269 74.06104 68.64686
# Shear Modulus (GPa) = -7.47768 5.79645 -0.84061
#
# Velocity S-wave (km/s) = -2.08078 1.83199 -0.69765
# Velocity P-wave (km/s) = 5.55332 6.88162 6.25284
#
# Compressibility (1/GPa) = 0.01581461
#
# Stress axis : x y z
#
# Youngs Moduli (GPa) = 20.54725 42.84456 29.86963
#
# Poissons Ratio (x) = 0.32158 0.81981
# Poissons Ratio (y) = 0.15422 0.29524
# Poissons Ratio (z) = 0.56395 0.42348
#
# Static dielectric constant tensor:
#      x y z
#    x 1.575460 0.000000 0.000000 
#    y 0.000000 1.563110 0.000000 
#    z 0.000000 0.000000 1.596470 
# 
# From -- ./inp_files/76517.got.cif
#   From: 2010.05.17/outbox.cif.g08.bks.cpg/sg65_39_cif.got.tgz:76517.got - 2010.06.03 17:01:31.
