data_PCOD9489265
_publ_section_title
;
Structure prediction by ZEFSAII (Michael W. Deem and Ramdas Pophale) SiO2 
 PCOD9489265
Probable space group: C M M M
;
_chemical_formula_sum "Si O2"
_cell_formula_units_Z 104
_cell_length_a 17.983477
_cell_length_b 17.598586
_cell_length_c 18.652507
_cell_angle_alpha 90.000000
_cell_angle_beta 90.000000
_cell_angle_gamma 90.000000
_cell_volume 5903.215671
_symmetry_space_group_name_H-M "C M M M"
_symmetry_group_IT_number 65
_symmetry_cell_setting 'orthorhombic'
loop_
_space_group_symop_operation_xyz
x,y,z
-x,-y,z
x,-y,-z
-x,y,-z
-x,-y,-z
x,y,-z
-x,y,z
x,-y,z
1/2+x,1/2+y,z
1/2-x,1/2-y,z
1/2+x,1/2-y,-z
1/2-x,1/2+y,-z
1/2-x,1/2-y,-z
1/2+x,1/2+y,-z
1/2-x,1/2+y,z
1/2+x,1/2-y,z
loop_
_atom_site_type_symbol
_atom_site_label
_atom_site_fract_x
_atom_site_fract_y
_atom_site_fract_z
Si Si1 0.239985 0.591654 0.417876
Si Si2 0.909531 0.000000 0.082584
Si Si3 0.911698 0.152991 0.834768
Si Si4 0.918584 0.592008 0.643967
Si Si5 0.788168 0.832702 0.720840
Si Si6 0.588800 0.191815 0.082361
Si Si7 0.151357 0.410175 0.793744
O O1 0.257985 0.608885 0.500000
O O2 0.244456 0.500000 0.407790
O O3 0.154270 0.615052 0.400507
O O4 0.289821 0.633671 0.359097
O O5 0.887856 0.075421 0.125842
O O6 0.000000 0.000000 0.079738
O O7 0.883339 0.000000 0.000000
O O8 0.865316 0.167796 0.762946
O O9 0.898482 0.223274 0.888350
O O10 0.000000 0.148823 0.820538
O O11 0.920052 0.500000 0.639782
O O12 0.902724 0.611368 0.727096
O O13 0.000000 0.619997 0.621178
O O14 0.750000 0.750000 0.719968
O O15 0.732351 0.886778 0.765529
O O16 0.500000 0.177724 0.086072
O O17 0.629637 0.134785 0.135591
O O18 0.612224 0.184590 0.000000
O O19 0.146236 0.500000 0.804336
#
# Coordination Sequence:
#
# PCOD9489265 Si02
#       7
#    16   8  16  16  16  16  16
#     4   9  19  34  53  80 111 142 174 217 273 328
#     4   9  18  34  58  84 107 137 184 241 291 325
#     4  10  21  37  58  82 108 142 187 235 279 324
#     4   8  14  26  47  74 104 141 181 218 256 305
#     4  11  21  37  58  80 106 144 185 223 271 328
#     4  10  20  35  55  79 111 149 185 224 273 329
#     4  10  20  34  52  77 111 148 187 227 269 323
#
# _framework density 17.617518
#
# number of rings (size 3 to 8) (size 9 to 14) (size 15 to 20)
#    0.000    2.385    1.538    2.308    2.154    3.692 
#    0.000    4.615    0.000    0.462    0.000    1.077 
#    0.000    0.000    0.000    0.000    0.000    0.000 
#
# Total GULP energy -290032.634156 kJ/mol
# GULP energy per Si atom -5577.550657 kJ/mol
# Density = 1.757742 g / cm^3
# Si number density = 17.617518 Si / 1000 Ang^3
#
#
#
# Elastic Constant Matrix: (Units=GPa)
#
#
# Indices 1 2 3 4 5 6 
#
# 1 21.6493 17.2096 32.7878 0.0000 0.0000 0.0000
# 2 17.2096 85.8833 59.6983 0.0000 0.0000 0.0000
# 3 32.7878 59.6983 148.8389 0.0000 0.0000 0.0000
# 4 0.0000 0.0000 0.0000 25.9082 0.0000 0.0000
# 5 0.0000 0.0000 0.0000 0.0000 11.7908 0.0000
# 6 0.0000 0.0000 0.0000 0.0000 0.0000 18.5774
#
#
#
# Elastic Compliance Matrix: (Units=1/GPa)
#
#
# Indices 1 2 3 4 5 6 
#
# 1 0.070619 -0.004627 -0.013701 0.000000 0.000000 0.000000
# 2 -0.004627 0.016448 -0.005578 0.000000 0.000000 0.000000
# 3 -0.013701 -0.005578 0.011974 0.000000 0.000000 0.000000
# 4 0.000000 0.000000 0.000000 0.038598 0.000000 0.000000
# 5 0.000000 0.000000 0.000000 0.000000 0.084812 0.000000
# 6 0.000000 0.000000 0.000000 0.000000 0.000000 0.053829
#
#
# Mechanical properties :
#
#
# Convention : Reuss Voigt Hill
#
# Bulk Modulus (GPa) = 19.52007 52.86255 36.19131
# Shear Modulus (GPa) = 14.65553 21.03366 17.84460
#
# Velocity S-wave (km/s) = 2.88735 3.45904 3.18605
# Velocity P-wave (km/s) = 4.71378 6.78411 5.84140
#
# Compressibility (1/GPa) = 0.05122933
#
# Stress axis : x y z
#
# Youngs Moduli (GPa) = 14.16047 60.79681 83.51381
#
# Poissons Ratio (x) = 0.28134 1.14420
# Poissons Ratio (y) = 0.06553 0.46583
# Poissons Ratio (z) = 0.19401 0.33912
#
# Static dielectric constant tensor:
#      x y z
#    x 1.612770 0.000000 0.000000 
#    y 0.000000 1.601270 0.000000 
#    z 0.000000 0.000000 1.589330 
# 
# From -- ./inp_files/54595.got.cif
#   From: 2010.05.17/outbox.cif.g08.bks.cpg/sg65_28_cif.got.tgz:54595.got - 2010.06.03 17:01:31.
