data_PCOD9489273
_publ_section_title
;
Structure prediction by ZEFSAII (Michael W. Deem and Ramdas Pophale) SiO2 
 PCOD9489273
Probable space group: C M M M
;
_chemical_formula_sum "Si O2"
_cell_formula_units_Z 104
_cell_length_a 17.142711
_cell_length_b 19.757893
_cell_length_c 13.507659
_cell_angle_alpha 90.000000
_cell_angle_beta 90.000000
_cell_angle_gamma 90.000000
_cell_volume 4575.096103
_symmetry_space_group_name_H-M "C M M M"
_symmetry_group_IT_number 65
_symmetry_cell_setting 'orthorhombic'
loop_
_space_group_symop_operation_xyz
x,y,z
-x,-y,z
x,-y,-z
-x,y,-z
-x,-y,-z
x,y,-z
-x,y,z
x,-y,z
1/2+x,1/2+y,z
1/2-x,1/2-y,z
1/2+x,1/2-y,-z
1/2-x,1/2+y,-z
1/2-x,1/2-y,-z
1/2+x,1/2+y,-z
1/2-x,1/2+y,z
1/2+x,1/2-y,z
loop_
_atom_site_type_symbol
_atom_site_label
_atom_site_fract_x
_atom_site_fract_y
_atom_site_fract_z
Si Si1 0.691326 0.695135 0.611407
Si Si2 0.151865 0.577710 0.759444
Si Si3 0.500000 0.080751 0.891311
Si Si4 0.091383 0.703500 0.307609
Si Si5 0.093330 0.211269 0.888534
Si Si6 0.087291 0.078778 0.379728
Si Si7 0.690969 0.424014 0.884043
O O1 0.719887 0.682646 0.500000
O O2 0.750000 0.750000 0.659809
O O3 0.612551 0.739710 0.613109
O O4 0.659819 0.624579 0.654142
O O5 0.144358 0.500000 0.725448
O O6 0.141655 0.635438 0.677655
O O7 0.230897 0.584171 0.820507
O O8 0.078599 0.594374 0.831370
O O9 0.500000 0.000000 0.902555
O O10 0.500000 0.113307 0.000000
O O11 0.112435 0.738271 0.201356
O O12 0.000000 0.688602 0.310123
O O13 0.132020 0.138096 0.870985
O O14 0.000000 0.204472 0.887833
O O15 0.116921 0.234127 0.000000
O O16 0.086351 0.083689 0.500000
O O17 0.000000 0.099267 0.344638
O O18 0.098309 0.000000 0.355541
O O19 0.658488 0.500000 0.865118
O O20 0.713927 0.422689 0.000000
#
# Coordination Sequence:
#
# PCOD9489273 Si02
#       7
#    16  16   8  16  16  16  16
#     4  10  22  39  60  87 119 153 190 239 298 356
#     4  10  20  34  52  79 110 145 190 240 289 335
#     4   9  16  28  48  74 107 143 182 235 289 331
#     4  11  23  38  58  83 111 152 194 235 285 343
#     4   9  20  37  55  81 116 152 189 228 276 340
#     4   8  14  29  57  89 117 146 182 231 291 348
#     4   9  18  33  54  80 110 148 194 237 280 335
#
# _framework density 22.731763000000001
#
# number of rings (size 3 to 8) (size 9 to 14) (size 15 to 20)
#    0.000    2.538    0.769    1.385    2.154    4.308 
#    0.000    4.615    0.000    2.308    0.000    1.077 
#    0.000    0.000    0.000    0.000    0.000    0.000 
#
# Total GULP energy -290218.265185 kJ/mol
# GULP energy per Si atom -5581.120484 kJ/mol
# Density = 2.268002 g / cm^3
# Si number density = 22.731763 Si / 1000 Ang^3
#
#
#
# Elastic Constant Matrix: (Units=GPa)
#
#
# Indices 1 2 3 4 5 6 
#
# 1 75.7644 50.7737 14.6391 0.0000 0.0000 0.0000
# 2 50.7737 123.2465 -2.0165 0.0000 0.0000 0.0000
# 3 14.6391 -2.0165 64.7447 0.0000 0.0000 0.0000
# 4 0.0000 0.0000 0.0000 19.6890 0.0000 0.0000
# 5 0.0000 0.0000 0.0000 0.0000 13.1548 0.0000
# 6 0.0000 0.0000 0.0000 0.0000 0.0000 49.5526
#
#
#
# Elastic Compliance Matrix: (Units=1/GPa)
#
#
# Indices 1 2 3 4 5 6 
#
# 1 0.019551 -0.008131 -0.004674 0.000000 0.000000 0.000000
# 2 -0.008131 0.011499 0.002197 0.000000 0.000000 0.000000
# 3 -0.004674 0.002197 0.016570 0.000000 0.000000 0.000000
# 4 0.000000 0.000000 0.000000 0.050790 0.000000 0.000000
# 5 0.000000 0.000000 0.000000 0.000000 0.076018 0.000000
# 6 0.000000 0.000000 0.000000 0.000000 0.000000 0.020181
#
#
# Mechanical properties :
#
#
# Convention : Reuss Voigt Hill
#
# Bulk Modulus (GPa) = 37.87212 43.39425 40.63319
# Shear Modulus (GPa) = 22.25923 29.83657 26.04790
#
# Velocity S-wave (km/s) = 3.13263 3.62684 3.38876
# Velocity P-wave (km/s) = 5.45721 6.05556 5.76415
#
# Compressibility (1/GPa) = 0.02640464
#
# Stress axis : x y z
#
# Youngs Moduli (GPa) = 51.14909 86.96130 60.34840
#
# Poissons Ratio (x) = 0.70706 0.28205
# Poissons Ratio (y) = 0.41588 -0.13256
# Poissons Ratio (z) = 0.23906 -0.19102
#
# Static dielectric constant tensor:
#      x y z
#    x 1.859080 0.000000 0.000000 
#    y 0.000000 1.898430 0.000000 
#    z 0.000000 0.000000 1.878970 
# 
# From -- ./inp_files/54564.got.cif
#   From: 2010.05.17/outbox.cif.g08.bks.cpg/sg65_28_cif.got.tgz:54564.got - 2010.06.03 17:01:31.
