data_PCOD9489251
_publ_section_title
;
Structure prediction by ZEFSAII (Michael W. Deem and Ramdas Pophale) SiO2 
 PCOD9489251
Probable space group: C M M M
;
_chemical_formula_sum "Si O2"
_cell_formula_units_Z 104
_cell_length_a 16.852895
_cell_length_b 19.314900
_cell_length_c 17.545163
_cell_angle_alpha 90.000000
_cell_angle_beta 90.000000
_cell_angle_gamma 90.000000
_cell_volume 5711.160776
_symmetry_space_group_name_H-M "C M M M"
_symmetry_group_IT_number 65
_symmetry_cell_setting 'orthorhombic'
loop_
_space_group_symop_operation_xyz
x,y,z
-x,-y,z
x,-y,-z
-x,y,-z
-x,-y,-z
x,y,-z
-x,y,z
x,-y,z
1/2+x,1/2+y,z
1/2-x,1/2-y,z
1/2+x,1/2-y,-z
1/2-x,1/2+y,-z
1/2-x,1/2-y,-z
1/2+x,1/2+y,-z
1/2-x,1/2+y,z
1/2+x,1/2-y,z
loop_
_atom_site_type_symbol
_atom_site_label
_atom_site_fract_x
_atom_site_fract_y
_atom_site_fract_z
Si Si1 0.644456 0.077973 0.800866
Si Si2 0.257111 0.168391 0.411421
Si Si3 0.904828 0.158169 0.848870
Si Si4 0.596914 0.578852 0.000000
Si Si5 0.684404 0.580518 0.720550
Si Si6 0.909732 0.581991 0.367038
Si Si7 0.403784 0.196587 0.911397
O O1 0.733967 0.081501 0.769218
O O2 0.593651 0.092642 0.724472
O O3 0.628882 0.130158 0.868579
O O4 0.626941 0.000000 0.825566
O O5 0.234842 0.163063 0.500000
O O6 0.250000 0.250000 0.389974
O O7 0.202563 0.121806 0.356703
O O8 0.344990 0.134380 0.401369
O O9 0.876644 0.115915 0.923072
O O10 0.877192 0.121495 0.772505
O O11 0.877724 0.236514 0.862869
O O12 0.000000 0.158389 0.850744
O O13 0.622701 0.500000 0.000000
O O14 0.500000 0.580522 0.000000
O O15 0.663491 0.500000 0.707759
O O16 0.888117 0.500000 0.380020
O O17 0.000000 0.592178 0.394035
O O18 0.500000 0.194337 0.910507
O O19 0.379994 0.202873 0.000000
#
# Coordination Sequence:
#
# PCOD9489251 Si02
#       7
#    16  16  16   8  16  16  16
#     4   9  19  35  52  76 112 148 184 225 273 330
#     4  10  22  39  58  84 119 153 182 220 277 343
#     4  10  20  35  55  82 109 138 185 238 281 325
#     4   9  16  30  52  73 101 137 172 229 295 325
#     4  10  22  38  58  83 108 143 187 226 273 335
#     4   9  18  34  60  90 114 144 190 240 285 328
#     4  10  20  34  52  76 107 145 187 227 275 334
#
# _framework density 18.209958
#
# number of rings (size 3 to 8) (size 9 to 14) (size 15 to 20)
#    0.000    2.385    0.769    2.308    4.308    3.692 
#    1.385    2.308    0.000    1.385    0.000    1.077 
#    0.000    0.000    0.000    0.000    0.000    0.000 
#
# Total GULP energy -290033.763309 kJ/mol
# GULP energy per Si atom -5577.572371 kJ/mol
# Density = 1.816851 g / cm^3
# Si number density = 18.209958 Si / 1000 Ang^3
#
#
#
# Elastic Constant Matrix: (Units=GPa)
#
#
# Indices 1 2 3 4 5 6 
#
# 1 22.0097 24.9645 17.1503 0.0000 0.0000 0.0000
# 2 24.9645 152.7681 79.8128 0.0000 0.0000 0.0000
# 3 17.1503 79.8128 92.4878 0.0000 0.0000 0.0000
# 4 0.0000 0.0000 0.0000 24.7014 0.0000 0.0000
# 5 0.0000 0.0000 0.0000 0.0000 12.8535 0.0000
# 6 0.0000 0.0000 0.0000 0.0000 0.0000 23.3798
#
#
#
# Elastic Compliance Matrix: (Units=1/GPa)
#
#
# Indices 1 2 3 4 5 6 
#
# 1 0.056825 -0.006885 -0.004596 0.000000 0.000000 0.000000
# 2 -0.006885 0.012754 -0.009730 0.000000 0.000000 0.000000
# 3 -0.004596 -0.009730 0.020061 0.000000 0.000000 0.000000
# 4 0.000000 0.000000 0.000000 0.040484 0.000000 0.000000
# 5 0.000000 0.000000 0.000000 0.000000 0.077800 0.000000
# 6 0.000000 0.000000 0.000000 0.000000 0.000000 0.042772
#
#
# Mechanical properties :
#
#
# Convention : Reuss Voigt Hill
#
# Bulk Modulus (GPa) = 21.17791 56.79119 38.98455
# Shear Modulus (GPa) = 16.18882 21.87613 19.03247
#
# Velocity S-wave (km/s) = 2.98486 3.46978 3.23641
# Velocity P-wave (km/s) = 4.85122 6.87801 5.95153
#
# Compressibility (1/GPa) = 0.04721900
#
# Stress axis : x y z
#
# Youngs Moduli (GPa) = 17.59792 78.40615 49.84898
#
# Poissons Ratio (x) = 0.53982 0.22910
# Poissons Ratio (y) = 0.12116 0.48501
# Poissons Ratio (z) = 0.08088 0.76285
#
# Static dielectric constant tensor:
#      x y z
#    x 1.652160 0.000000 0.000000 
#    y 0.000000 1.633820 0.000000 
#    z 0.000000 0.000000 1.609490 
# 
# From -- ./inp_files/54626.got.cif
#   From: 2010.05.17/outbox.cif.g08.bks.cpg/sg65_28_cif.got.tgz:54626.got - 2010.06.03 17:01:31.
