data_PCOD9489375
_publ_section_title
;
Structure prediction by ZEFSAII (Michael W. Deem and Ramdas Pophale) SiO2 
 PCOD9489375
Probable space group: C M M M
;
_chemical_formula_sum "Si O2"
_cell_formula_units_Z 88
_cell_length_a 25.416457
_cell_length_b 20.353691
_cell_length_c 7.703718
_cell_angle_alpha 90.000000
_cell_angle_beta 90.000000
_cell_angle_gamma 90.000000
_cell_volume 3985.277474
_symmetry_space_group_name_H-M "C M M M"
_symmetry_group_IT_number 65
_symmetry_cell_setting 'orthorhombic'
loop_
_space_group_symop_operation_xyz
x,y,z
-x,-y,z
x,-y,-z
-x,y,-z
-x,-y,-z
x,y,-z
-x,y,z
x,-y,z
1/2+x,1/2+y,z
1/2-x,1/2-y,z
1/2+x,1/2-y,-z
1/2-x,1/2+y,-z
1/2-x,1/2-y,-z
1/2+x,1/2+y,-z
1/2-x,1/2+y,z
1/2+x,1/2-y,z
loop_
_atom_site_type_symbol
_atom_site_label
_atom_site_fract_x
_atom_site_fract_y
_atom_site_fract_z
Si Si1 0.442603 0.392318 0.704747
Si Si2 0.866995 0.622411 0.698060
Si Si3 0.670544 0.428749 0.712002
Si Si4 0.256421 0.174459 0.713317
Si Si5 0.940593 0.260364 0.791840
Si Si6 0.940346 0.500000 0.203089
O O1 0.444406 0.408358 0.500000
O O2 0.500000 0.410044 0.779207
O O3 0.389323 0.422889 0.775948
O O4 0.436270 0.313767 0.724324
O O5 0.856219 0.604804 0.500000
O O6 0.809889 0.639082 0.776738
O O7 0.899122 0.690174 0.712078
O O8 0.905054 0.564409 0.760918
O O9 0.668865 0.425872 0.500000
O O10 0.692619 0.500000 0.759718
O O11 0.706773 0.368942 0.768424
O O12 0.257962 0.175432 0.500000
O O13 0.250000 0.250000 0.768599
O O14 0.000000 0.283474 0.752420
O O15 0.934433 0.259686 0.000000
O O16 0.000000 0.500000 0.282865
O O17 0.948181 0.500000 0.000000
#
# Coordination Sequence:
#
# PCOD9489375 Si02
#       6
#    16  16  16  16  16   8
#     4   9  17  30  51  80 109 137 177 227 272 317
#     4  11  22  35  58  86 110 141 189 241 282 327
#     4   9  17  29  49  77 110 144 177 222 279 332
#     4   9  18  32  52  81 113 143 181 229 282 337
#     4  10  20  34  53  77 107 144 181 219 274 338
#     4  11  25  43  59  79 115 159 194 229 288 360
#
# _framework density 22.081274000000001
#
# number of rings (size 3 to 8) (size 9 to 14) (size 15 to 20)
#    0.000    2.273    0.000    3.000    1.273    7.273 
#    0.000    1.818    0.000   10.364    0.000    2.545 
#    0.000    0.000    0.000    0.000    0.000    0.000 
#
# Total GULP energy -245619.278186 kJ/mol
# GULP energy per Si atom -5582.256322 kJ/mol
# Density = 2.203102 g / cm^3
# Si number density = 22.081274 Si / 1000 Ang^3
#
#
#
# Elastic Constant Matrix: (Units=GPa)
#
#
# Indices 1 2 3 4 5 6 
#
# 1 169.4049 87.3249 9.8755 0.0000 0.0000 0.0000
# 2 87.3249 129.3291 0.2113 0.0000 0.0000 0.0000
# 3 9.8755 0.2113 36.9883 0.0000 0.0000 0.0000
# 4 0.0000 0.0000 0.0000 9.2510 0.0000 0.0000
# 5 0.0000 0.0000 0.0000 0.0000 216.2217 0.0000
# 6 0.0000 0.0000 0.0000 0.0000 0.0000 850.8696
#
#
#
# Elastic Compliance Matrix: (Units=1/GPa)
#
#
# Indices 1 2 3 4 5 6 
#
# 1 0.009269 -0.006255 -0.002439 0.000000 0.000000 0.000000
# 2 -0.006255 0.011953 0.001602 0.000000 0.000000 0.000000
# 3 -0.002439 0.001602 0.027678 0.000000 0.000000 0.000000
# 4 0.000000 0.000000 0.000000 0.108097 0.000000 0.000000
# 5 0.000000 0.000000 0.000000 0.000000 0.004625 0.000000
# 6 0.000000 0.000000 0.000000 0.000000 0.000000 0.001175
#
#
# Mechanical properties :
#
#
# Convention : Reuss Voigt Hill
#
# Bulk Modulus (GPa) = 28.80559 58.94951 43.87755
# Shear Modulus (GPa) = 26.51765 231.15583 128.83674
#
# Velocity S-wave (km/s) = 3.46918 10.24262 7.64678
# Velocity P-wave (km/s) = 5.39634 12.90877 9.89335
#
# Compressibility (1/GPa) = 0.03471549
#
# Stress axis : x y z
#
# Youngs Moduli (GPa) = 107.88080 83.66105 36.13026
#
# Poissons Ratio (x) = 0.52329 0.08813
# Poissons Ratio (y) = 0.67478 -0.05787
# Poissons Ratio (z) = 0.26314 -0.13400
#
# Static dielectric constant tensor:
#      x y z
#    x 1.841450 0.000000 0.000000 
#    y 0.000000 1.765430 0.000000 
#    z 0.000000 0.000000 1.812460 
# 
# From -- ./inp_files/11744.got.cif
#   From: 2010.05.17/outbox.cif.g08.bks.cpg/sg65_6_cif.got.tgz:11744.got - 2010.06.03 17:01:31.
