data_PCOD9489997
_publ_section_title
;
Structure prediction by ZEFSAII (Michael W. Deem and Ramdas Pophale) SiO2 
 PCOD9489997
Probable space group: C M M M
;
_chemical_formula_sum "Si O2"
_cell_formula_units_Z 80
_cell_length_a 18.743980
_cell_length_b 8.230378
_cell_length_c 28.074644
_cell_angle_alpha 90.000000
_cell_angle_beta 90.000000
_cell_angle_gamma 90.000000
_cell_volume 4331.076470
_symmetry_space_group_name_H-M "C M M M"
_symmetry_group_IT_number 65
_symmetry_cell_setting 'orthorhombic'
loop_
_space_group_symop_operation_xyz
x,y,z
-x,-y,z
x,-y,-z
-x,y,-z
-x,-y,-z
x,y,-z
-x,y,z
x,-y,z
1/2+x,1/2+y,z
1/2-x,1/2-y,z
1/2+x,1/2-y,-z
1/2-x,1/2+y,-z
1/2-x,1/2-y,-z
1/2+x,1/2+y,-z
1/2-x,1/2+y,z
1/2+x,1/2-y,z
loop_
_atom_site_type_symbol
_atom_site_label
_atom_site_fract_x
_atom_site_fract_y
_atom_site_fract_z
Si Si1 0.167889 0.808943 0.705272
Si Si2 0.414081 0.816652 0.615384
Si Si3 0.916844 0.305833 0.000000
Si Si4 0.082944 0.805981 0.101718
Si Si5 0.413185 0.500000 0.554741
Si Si6 0.330611 0.808946 0.807590
O O1 0.250000 0.750000 0.703011
O O2 0.121846 0.714052 0.666433
O O3 0.142857 0.777122 0.759350
O O4 0.164395 0.000000 0.694983
O O5 0.500000 0.808334 0.619711
O O6 0.391399 0.666082 0.581668
O O7 0.396219 0.000000 0.598381
O O8 0.886428 0.243408 0.950003
O O9 0.915462 0.500000 0.000000
O O10 0.000000 0.249563 0.000000
O O11 0.123767 0.729994 0.145992
O O12 0.000000 0.752797 0.103168
O O13 0.085354 0.000000 0.105722
O O14 0.500000 0.500000 0.554692
O O15 0.389292 0.500000 0.500000
O O16 0.250000 0.750000 0.816097
O O17 0.329555 0.000000 0.798099
#
# Coordination Sequence:
#
# PCOD9489997 Si02
#       6
#    16  16   8  16   8  16
#     4  11  21  36  57  81 109 146 187 225 275 334
#     4  10  20  35  56  85 116 147 188 233 276 325
#     4   9  17  31  52  77 104 135 174 217 263 321
#     4  10  20  35  55  79 106 139 177 219 269 321
#     4   9  18  34  56  84 116 150 187 228 278 328
#     4  11  22  37  55  77 108 141 180 223 271 328
#
# _framework density 18.471159
#
# number of rings (size 3 to 8) (size 9 to 14) (size 15 to 20)
#    0.000    1.800    1.000    5.700    0.000    3.600 
#    0.000    2.500    0.000    0.600    0.000    0.000 
#    0.000    0.000    0.000    0.000    0.000    0.000 
#
# Total GULP energy -223243.910116 kJ/mol
# GULP energy per Si atom -5581.097753 kJ/mol
# Density = 1.842912 g / cm^3
# Si number density = 18.471159 Si / 1000 Ang^3
#
#
#
# Elastic Constant Matrix: (Units=GPa)
#
#
# Indices 1 2 3 4 5 6 
#
# 1 18.9788 19.2444 32.3013 0.0000 0.0000 0.0000
# 2 19.2444 117.1011 40.0265 0.0000 0.0000 0.0000
# 3 32.3013 40.0265 127.5087 0.0000 0.0000 0.0000
# 4 0.0000 0.0000 0.0000 29.4038 0.0000 0.0000
# 5 0.0000 0.0000 0.0000 0.0000 -53.7033 0.0000
# 6 0.0000 0.0000 0.0000 0.0000 0.0000 21.2761
#
#
#
# Elastic Compliance Matrix: (Units=1/GPa)
#
#
# Indices 1 2 3 4 5 6 
#
# 1 0.099970 -0.008707 -0.022592 0.000000 0.000000 0.000000
# 2 -0.008707 0.010324 -0.001035 0.000000 0.000000 0.000000
# 3 -0.022592 -0.001035 0.013891 0.000000 0.000000 0.000000
# 4 0.000000 0.000000 0.000000 0.034009 0.000000 0.000000
# 5 0.000000 0.000000 0.000000 0.000000 -0.018621 0.000000
# 6 0.000000 0.000000 0.000000 0.000000 0.000000 0.047001
#
#
# Mechanical properties :
#
#
# Convention : Reuss Voigt Hill
#
# Bulk Modulus (GPa) = 16.80195 49.63700 33.21947
# Shear Modulus (GPa) = 18.44467 10.86309 14.65388
#
# Velocity S-wave (km/s) = 3.16344 2.42773 2.81968
# Velocity P-wave (km/s) = 4.73911 5.89827 5.35017
#
# Compressibility (1/GPa) = 0.05951691
#
# Stress axis : x y z
#
# Youngs Moduli (GPa) = 10.00303 96.85798 71.99092
#
# Poissons Ratio (x) = 0.84334 1.62640
# Poissons Ratio (y) = 0.08710 0.07453
# Poissons Ratio (z) = 0.22599 0.10027
#
# Static dielectric constant tensor:
#      x y z
#    x 1.613820 0.000000 0.000000 
#    y 0.000000 1.643790 0.000000 
#    z 0.000000 0.000000 1.628520 
# 
# From -- ./inp_files/70820.got.cif
#   From: 2010.05.17/outbox.cif.g08.bks.cpg/sg65_36_cif.got.tgz:70820.got - 2010.06.03 17:01:31.
