data_PCOD9489612
_publ_section_title
;
Structure prediction by ZEFSAII (Michael W. Deem and Ramdas Pophale) SiO2 
 PCOD9489612
Probable space group: C M M M
;
_chemical_formula_sum "Si O2"
_cell_formula_units_Z 116
_cell_length_a 23.592793
_cell_length_b 17.977759
_cell_length_c 12.841094
_cell_angle_alpha 90.000000
_cell_angle_beta 90.000000
_cell_angle_gamma 90.000000
_cell_volume 5446.492835
_symmetry_space_group_name_H-M "C M M M"
_symmetry_group_IT_number 65
_symmetry_cell_setting 'orthorhombic'
loop_
_space_group_symop_operation_xyz
x,y,z
-x,-y,z
x,-y,-z
-x,y,-z
-x,-y,-z
x,y,-z
-x,y,z
x,-y,z
1/2+x,1/2+y,z
1/2-x,1/2-y,z
1/2+x,1/2-y,-z
1/2-x,1/2+y,-z
1/2-x,1/2-y,-z
1/2+x,1/2+y,-z
1/2-x,1/2+y,z
1/2+x,1/2-y,z
loop_
_atom_site_type_symbol
_atom_site_label
_atom_site_fract_x
_atom_site_fract_y
_atom_site_fract_z
Si Si1 0.112910 0.739164 0.615427
Si Si2 0.385774 0.500000 0.500000
Si Si3 0.436947 0.391764 0.663237
Si Si4 0.064113 0.589362 0.114246
Si Si5 0.247956 0.585471 0.381660
Si Si6 0.199308 0.199467 0.218699
Si Si7 0.115034 0.416056 0.670535
Si Si8 0.381911 0.414700 0.117310
O O1 0.138237 0.749031 0.500000
O O2 0.069375 0.805161 0.636961
O O3 0.158770 0.750444 0.707512
O O4 0.087735 0.656317 0.619478
O O5 0.392926 0.435668 0.591448
O O6 0.500000 0.417213 0.635869
O O7 0.424158 0.405269 0.784875
O O8 0.060327 0.500000 0.106075
O O9 0.107597 0.600550 0.206884
O O10 0.000000 0.615813 0.139625
O O11 0.080046 0.618681 0.000000
O O12 0.260010 0.608653 0.500000
O O13 0.268053 0.500000 0.371650
O O14 0.274993 0.639188 0.298465
O O15 0.180207 0.584214 0.365061
O O16 0.250000 0.250000 0.175805
O O17 0.164055 0.150184 0.137234
O O18 0.092662 0.500000 0.650363
O O19 0.359179 0.500000 0.124430
O O20 0.405615 0.406910 0.000000
#
# Coordination Sequence:
#
# PCOD9489612 Si02
#       8
#    16   4  16  16  16  16  16  16
#     4  11  23  37  57  88 125 162 200 251 303 361
#     4  12  21  40  70 102 132 162 202 254 306 370
#     4  11  23  40  66  98 131 164 203 252 311 372
#     4   8  15  31  55  79 102 134 184 245 297 340
#     4  10  20  35  56  83 115 151 195 246 299 363
#     4  11  22  38  60  85 115 158 203 254 307 362
#     4  10  20  34  54  81 115 154 199 244 297 358
#     4  10  23  43  65  92 127 163 206 255 308 376
#
# _framework density 21.298110000000001
#
# number of rings (size 3 to 8) (size 9 to 14) (size 15 to 20)
#    0.000    1.793    2.759    2.276    0.000    2.483 
#    0.000    4.138    0.000    3.724    0.000    9.655 
#    0.000    0.000    0.000    0.000    0.000    0.000 
#
# Total GULP energy -323102.298798 kJ/mol
# GULP energy per Si atom -5570.729290 kJ/mol
# Density = 2.124963 g / cm^3
# Si number density = 21.298110 Si / 1000 Ang^3
#
#
#
# Elastic Constant Matrix: (Units=GPa)
#
#
# Indices 1 2 3 4 5 6 
#
# 1 32.9796 12.8629 6.9792 0.0000 0.0000 0.0000
# 2 12.8629 132.7672 33.0357 0.0000 0.0000 0.0000
# 3 6.9792 33.0357 115.8956 0.0000 0.0000 0.0000
# 4 0.0000 0.0000 0.0000 8.2966 0.0000 0.0000
# 5 0.0000 0.0000 0.0000 0.0000 168.2295 0.0000
# 6 0.0000 0.0000 0.0000 0.0000 0.0000 -14.7160
#
#
#
# Elastic Compliance Matrix: (Units=1/GPa)
#
#
# Indices 1 2 3 4 5 6 
#
# 1 0.031645 -0.002790 -0.001111 0.000000 0.000000 0.000000
# 2 -0.002790 0.008353 -0.002213 0.000000 0.000000 0.000000
# 3 -0.001111 -0.002213 0.009326 0.000000 0.000000 0.000000
# 4 0.000000 0.000000 0.000000 0.120531 0.000000 0.000000
# 5 0.000000 0.000000 0.000000 0.000000 0.005944 0.000000
# 6 0.000000 0.000000 0.000000 0.000000 0.000000 -0.067953
#
#
# Mechanical properties :
#
#
# Convention : Reuss Voigt Hill
#
# Bulk Modulus (GPa) = 26.95580 43.04425 35.00002
# Shear Modulus (GPa) = 37.75360 47.61299 42.68329
#
# Velocity S-wave (km/s) = 4.21482 4.73329 4.48156
# Velocity P-wave (km/s) = 6.03077 7.07999 6.57634
#
# Compressibility (1/GPa) = 0.03709777
#
# Stress axis : x y z
#
# Youngs Moduli (GPa) = 31.60077 119.71914 107.22556
#
# Poissons Ratio (x) = 0.33396 0.11907
# Poissons Ratio (y) = 0.08815 0.23729
# Poissons Ratio (z) = 0.03509 0.26494
#
# Static dielectric constant tensor:
#      x y z
#    x 1.800490 0.000000 0.000000 
#    y 0.000000 1.806740 0.000000 
#    z 0.000000 0.000000 1.768740 
# 
# From -- ./inp_files/32633.got.cif
#   From: 2010.05.17/outbox.cif.g08.bks.cpg/sg65_17_cif.got.tgz:32633.got - 2010.06.03 17:01:31.
