data_PCOD9489733
_publ_section_title
;
Structure prediction by ZEFSAII (Michael W. Deem and Ramdas Pophale) SiO2 
 PCOD9489733
Probable space group: C M M M
;
_chemical_formula_sum "Si O2"
_cell_formula_units_Z 74
_cell_length_a 31.845219
_cell_length_b 14.513060
_cell_length_c 7.430962
_cell_angle_alpha 90.000000
_cell_angle_beta 90.000000
_cell_angle_gamma 90.000000
_cell_volume 3434.379404
_symmetry_space_group_name_H-M "C M M M"
_symmetry_group_IT_number 65
_symmetry_cell_setting 'orthorhombic'
loop_
_space_group_symop_operation_xyz
x,y,z
-x,-y,z
x,-y,-z
-x,y,-z
-x,-y,-z
x,y,-z
-x,y,z
x,-y,z
1/2+x,1/2+y,z
1/2-x,1/2-y,z
1/2+x,1/2-y,-z
1/2-x,1/2+y,-z
1/2-x,1/2-y,-z
1/2+x,1/2+y,-z
1/2-x,1/2+y,z
1/2+x,1/2-y,z
loop_
_atom_site_type_symbol
_atom_site_label
_atom_site_fract_x
_atom_site_fract_y
_atom_site_fract_z
Si Si1 0.876439 0.191207 0.218739
Si Si2 0.079916 0.500000 0.283808
Si Si3 0.920120 0.000000 0.781565
Si Si4 0.293278 0.793776 0.214704
Si Si5 0.500000 0.500000 0.500000
Si Si6 0.954716 0.696855 0.789935
Si Si7 0.823497 0.500000 0.287068
O O1 0.833035 0.235132 0.284412
O O2 0.914818 0.252610 0.289035
O O3 0.890793 0.088126 0.258335
O O4 0.874802 0.198471 0.000000
O O5 0.080666 0.500000 0.500000
O O6 0.055198 0.589560 0.221766
O O7 0.128287 0.500000 0.215908
O O8 0.962159 0.000000 0.659673
O O9 0.929770 0.000000 0.000000
O O10 0.250000 0.750000 0.285261
O O11 0.300742 0.903456 0.240806
O O12 0.292548 0.781118 0.000000
O O13 0.000000 0.719542 0.709710
O O14 0.956477 0.723105 0.000000
O O15 0.827201 0.500000 0.500000
#
# Coordination Sequence:
#
# PCOD9489733 Si02
#       7
#    16   8   8  16   2  16   8
#     4   9  19  38  63  89 122 163 202 259 330 380
#     4  11  22  36  52  81 117 160 196 239 294 350
#     4  10  23  44  66  91 133 174 221 280 332 403
#     4  10  21  39  68  99 122 157 214 270 319 380
#     4  12  26  44  64 106 120 174 234 276 340 390
#     4  10  20  34  56  84 113 155 205 242 293 364
#     4  11  23  39  59  89 127 169 201 240 311 382
#
# _framework density 21.546832999999999
#
# number of rings (size 3 to 8) (size 9 to 14) (size 15 to 20)
#    0.000    1.946    2.162    1.135    1.514    3.892 
#    3.892    3.243    2.378    0.000    0.000    0.000 
#    0.000    0.000    0.000    0.000    0.000    0.000 
#
# Total GULP energy -206264.037784 kJ/mol
# GULP energy per Si atom -5574.703724 kJ/mol
# Density = 2.149779 g / cm^3
# Si number density = 21.546833 Si / 1000 Ang^3
#
#
#
# Elastic Constant Matrix: (Units=GPa)
#
#
# Indices 1 2 3 4 5 6 
#
# 1 242.9660 104.1095 28.3789 0.0000 0.0000 0.0000
# 2 104.1095 133.7786 4.2500 0.0000 0.0000 0.0000
# 3 28.3789 4.2500 92.4137 0.0000 0.0000 0.0000
# 4 0.0000 0.0000 0.0000 25.8955 0.0000 0.0000
# 5 0.0000 0.0000 0.0000 0.0000 5.9019 0.0000
# 6 0.0000 0.0000 0.0000 0.0000 0.0000 29.4145
#
#
#
# Elastic Compliance Matrix: (Units=1/GPa)
#
#
# Indices 1 2 3 4 5 6 
#
# 1 0.006446 -0.004961 -0.001751 0.000000 0.000000 0.000000
# 2 -0.004961 0.011304 0.001004 0.000000 0.000000 0.000000
# 3 -0.001751 0.001004 0.011313 0.000000 0.000000 0.000000
# 4 0.000000 0.000000 0.000000 0.038617 0.000000 0.000000
# 5 0.000000 0.000000 0.000000 0.000000 0.169437 0.000000
# 6 0.000000 0.000000 0.000000 0.000000 0.000000 0.033997
#
#
# Mechanical properties :
#
#
# Convention : Reuss Voigt Hill
#
# Bulk Modulus (GPa) = 56.67276 82.51501 69.59389
# Shear Modulus (GPa) = 17.33631 34.40370 25.87000
#
# Velocity S-wave (km/s) = 2.83960 4.00020 3.46879
# Velocity P-wave (km/s) = 6.09183 7.72750 6.95790
#
# Compressibility (1/GPa) = 0.01764516
#
# Stress axis : x y z
#
# Youngs Moduli (GPa) = 155.13389 88.46605 88.39723
#
# Poissons Ratio (x) = 0.43886 0.15481
# Poissons Ratio (y) = 0.76959 -0.08871
# Poissons Ratio (z) = 0.27169 -0.08878
#
# Static dielectric constant tensor:
#      x y z
#    x 1.788720 0.000000 0.000000 
#    y 0.000000 1.865390 0.000000 
#    z 0.000000 0.000000 1.819240 
# 
# From -- ./inp_files/15869.got.cif
#   From: 2010.05.17/outbox.cif.g08.bks.cpg/sg65_8_cif.got.tgz:15869.got - 2010.06.03 17:01:31.
