data_PCOD9489293
_publ_section_title
;
Structure prediction by ZEFSAII (Michael W. Deem and Ramdas Pophale) SiO2 
 PCOD9489293
Probable space group: C M M M
;
_chemical_formula_sum "Si O2"
_cell_formula_units_Z 56
_cell_length_a 9.360013
_cell_length_b 18.483742
_cell_length_c 19.653793
_cell_angle_alpha 90.000000
_cell_angle_beta 90.000000
_cell_angle_gamma 90.000000
_cell_volume 3400.264705
_symmetry_space_group_name_H-M "C M M M"
_symmetry_group_IT_number 65
_symmetry_cell_setting 'orthorhombic'
loop_
_space_group_symop_operation_xyz
x,y,z
-x,-y,z
x,-y,-z
-x,y,-z
-x,-y,-z
x,y,-z
-x,y,z
x,-y,z
1/2+x,1/2+y,z
1/2-x,1/2-y,z
1/2+x,1/2-y,-z
1/2-x,1/2+y,-z
1/2-x,1/2-y,-z
1/2+x,1/2+y,-z
1/2-x,1/2+y,z
1/2+x,1/2-y,z
loop_
_atom_site_type_symbol
_atom_site_label
_atom_site_fract_x
_atom_site_fract_y
_atom_site_fract_z
Si Si1 0.831314 0.674852 0.580707
Si Si2 0.338924 0.320975 0.180557
Si Si3 0.671744 0.584511 0.690356
Si Si4 0.500000 0.585191 0.080806
O O1 0.815865 0.660928 0.500000
O O2 0.750000 0.750000 0.595982
O O3 0.756709 0.613623 0.625513
O O4 0.000000 0.681256 0.595744
O O5 0.500000 0.296464 0.199054
O O6 0.250000 0.250000 0.165186
O O7 0.285054 0.367129 0.244610
O O8 0.366390 0.374850 0.117084
O O9 0.500000 0.592600 0.680803
O O10 0.699173 0.500000 0.702896
O O11 0.500000 0.500000 0.097289
O O12 0.500000 0.594170 0.000000
#
# Coordination Sequence:
#
# PCOD9489293 Si02
#       4
#    16  16  16   8
#     4  10  21  36  53  74 101 135 178 226 275 326
#     4   9  19  33  53  81 109 138 178 221 263 310
#     4  10  20  34  53  75 105 141 177 221 270 325
#     4   9  18  34  58  82 108 146 182 213 262 324
#
# _framework density 16.469306
#
# number of rings (size 3 to 8) (size 9 to 14) (size 15 to 20)
#    0.857    1.571    0.000    2.571    0.000    6.857 
#    0.000    2.857    0.000    2.571    0.000    2.000 
#    0.000    0.000    0.000    0.000    0.000    0.000 
#
# Total GULP energy -155930.593015 kJ/mol
# GULP energy per Si atom -5568.949751 kJ/mol
# Density = 1.643182 g / cm^3
# Si number density = 16.469306 Si / 1000 Ang^3
#
#
#
# Elastic Constant Matrix: (Units=GPa)
#
#
# Indices 1 2 3 4 5 6 
#
# 1 42.6808 58.0258 37.2911 0.0000 0.0000 0.0000
# 2 58.0258 137.8117 64.5713 0.0000 0.0000 0.0000
# 3 37.2911 64.5713 68.2297 0.0000 0.0000 0.0000
# 4 0.0000 0.0000 0.0000 29.6241 0.0000 0.0000
# 5 0.0000 0.0000 0.0000 0.0000 9.0636 0.0000
# 6 0.0000 0.0000 0.0000 0.0000 0.0000 34.7266
#
#
#
# Elastic Compliance Matrix: (Units=1/GPa)
#
#
# Indices 1 2 3 4 5 6 
#
# 1 0.064263 -0.019047 -0.017097 0.000000 0.000000 0.000000
# 2 -0.019047 0.018683 -0.007271 0.000000 0.000000 0.000000
# 3 -0.017097 -0.007271 0.030882 0.000000 0.000000 0.000000
# 4 0.000000 0.000000 0.000000 0.033756 0.000000 0.000000
# 5 0.000000 0.000000 0.000000 0.000000 0.110332 0.000000
# 6 0.000000 0.000000 0.000000 0.000000 0.000000 0.028796
#
#
# Mechanical properties :
#
#
# Convention : Reuss Voigt Hill
#
# Bulk Modulus (GPa) = 37.04059 63.16650 50.10354
# Shear Modulus (GPa) = 13.07044 20.60512 16.83778
#
# Velocity S-wave (km/s) = 2.82019 3.54096 3.20093
# Velocity P-wave (km/s) = 5.75709 7.42665 6.64452
#
# Compressibility (1/GPa) = 0.02699741
#
# Stress axis : x y z
#
# Youngs Moduli (GPa) = 15.56096 53.52491 32.38155
#
# Poissons Ratio (x) = 1.01951 0.55363
# Poissons Ratio (y) = 0.29639 0.23544
# Poissons Ratio (z) = 0.26605 0.38917
#
# Static dielectric constant tensor:
#      x y z
#    x 1.553280 0.000000 0.000000 
#    y 0.000000 1.539400 0.000000 
#    z 0.000000 0.000000 1.547830 
# 
# From -- ./inp_files/53911.got.cif
#   From: 2010.05.17/outbox.cif.g08.bks.cpg/sg65_27_cif.got.tgz:53911.got - 2010.06.03 17:01:31.
