data_PCOD9489256
_publ_section_title
;
Structure prediction by ZEFSAII (Michael W. Deem and Ramdas Pophale) SiO2 
 PCOD9489256
Probable space group: C M M M
;
_chemical_formula_sum "Si O2"
_cell_formula_units_Z 72
_cell_length_a 28.236048
_cell_length_b 8.140369
_cell_length_c 18.668190
_cell_angle_alpha 90.000000
_cell_angle_beta 90.000000
_cell_angle_gamma 90.000000
_cell_volume 4290.918004
_symmetry_space_group_name_H-M "C M M M"
_symmetry_group_IT_number 65
_symmetry_cell_setting 'orthorhombic'
loop_
_space_group_symop_operation_xyz
x,y,z
-x,-y,z
x,-y,-z
-x,y,-z
-x,-y,-z
x,y,-z
-x,y,z
x,-y,z
1/2+x,1/2+y,z
1/2-x,1/2-y,z
1/2+x,1/2-y,-z
1/2-x,1/2+y,-z
1/2-x,1/2-y,-z
1/2+x,1/2+y,-z
1/2-x,1/2+y,z
1/2+x,1/2-y,z
loop_
_atom_site_type_symbol
_atom_site_label
_atom_site_fract_x
_atom_site_fract_y
_atom_site_fract_z
Si Si1 0.443697 0.684981 0.418027
Si Si2 0.881101 0.317271 0.306135
Si Si3 0.056096 0.811971 0.819662
Si Si4 0.304296 0.696434 0.581128
Si Si5 0.056886 0.500000 0.919276
O O1 0.429811 0.709490 0.500000
O O2 0.500000 0.686423 0.414438
O O3 0.427673 0.500000 0.397042
O O4 0.421601 0.815601 0.366465
O O5 0.872133 0.500000 0.278274
O O6 0.905730 0.210609 0.243938
O O7 0.836309 0.257218 0.352779
O O8 0.067652 0.667333 0.875968
O O9 0.000000 0.788736 0.796837
O O10 0.058948 0.000000 0.846762
O O11 0.318366 0.754549 0.500000
O O12 0.306996 0.500000 0.580149
O O13 0.250000 0.750000 0.591117
O O14 0.000000 0.500000 0.924622
O O15 0.076541 0.500000 0.000000
#
# Coordination Sequence:
#
# PCOD9489256 Si02
#       5
#    16  16  16  16   8
#     4   9  18  31  44  60  86 123 168 212 252 296
#     4  12  22  31  47  70  98 132 169 215 258 309
#     4  10  20  34  52  76 108 144 177 213 259 306
#     4  10  21  37  54  71  94 128 172 222 273 321
#     4   9  18  34  54  78 109 141 175 211 248 304
#
# _framework density 16.779626
#
# number of rings (size 3 to 8) (size 9 to 14) (size 15 to 20)
#    0.000    1.889    1.111    4.667    0.000    8.000 
#    0.000    3.333    0.000    0.000    0.000    0.000 
#    0.000    0.889    0.444    0.000    0.000    0.000 
#
# Total GULP energy -200533.174506 kJ/mol
# GULP energy per Si atom -5570.365958 kJ/mol
# Density = 1.674144 g / cm^3
# Si number density = 16.779626 Si / 1000 Ang^3
#
#
#
# Elastic Constant Matrix: (Units=GPa)
#
#
# Indices 1 2 3 4 5 6 
#
# 1 74.1491 22.6442 39.9170 0.0000 0.0000 0.0000
# 2 22.6442 100.1413 46.7985 0.0000 0.0000 0.0000
# 3 39.9170 46.7985 86.5198 0.0000 0.0000 0.0000
# 4 0.0000 0.0000 0.0000 14.2396 0.0000 0.0000
# 5 0.0000 0.0000 0.0000 0.0000 17.5133 0.0000
# 6 0.0000 0.0000 0.0000 0.0000 0.0000 23.1887
#
#
#
# Elastic Compliance Matrix: (Units=1/GPa)
#
#
# Indices 1 2 3 4 5 6 
#
# 1 0.017948 -0.000253 -0.008144 0.000000 0.000000 0.000000
# 2 -0.000253 0.013368 -0.007114 0.000000 0.000000 0.000000
# 3 -0.008144 -0.007114 0.019163 0.000000 0.000000 0.000000
# 4 0.000000 0.000000 0.000000 0.070227 0.000000 0.000000
# 5 0.000000 0.000000 0.000000 0.000000 0.057100 0.000000
# 6 0.000000 0.000000 0.000000 0.000000 0.000000 0.043124
#
#
# Mechanical properties :
#
#
# Convention : Reuss Voigt Hill
#
# Bulk Modulus (GPa) = 51.39339 53.28107 52.33723
# Shear Modulus (GPa) = 19.34721 21.08502 20.21612
#
# Velocity S-wave (km/s) = 3.39930 3.54868 3.47479
# Velocity P-wave (km/s) = 6.78984 6.97232 6.88168
#
# Compressibility (1/GPa) = 0.01945775
#
# Stress axis : x y z
#
# Youngs Moduli (GPa) = 55.71806 74.80807 52.18337
#
# Poissons Ratio (x) = 0.01890 0.42497
# Poissons Ratio (y) = 0.01407 0.37123
# Poissons Ratio (z) = 0.45375 0.53218
#
# Static dielectric constant tensor:
#      x y z
#    x 1.574300 0.000000 0.000000 
#    y 0.000000 1.635850 0.000000 
#    z 0.000000 0.000000 1.570940 
# 
# From -- ./inp_files/57134.got.cif
#   From: 2010.05.17/outbox.cif.g08.bks.cpg/sg65_29_cif.got.tgz:57134.got - 2010.06.03 17:01:31.
