data_PCOD9489124
_publ_section_title
;
Structure prediction by ZEFSAII (Michael W. Deem and Ramdas Pophale) SiO2 
 PCOD9489124
Probable space group: C M M M
;
_chemical_formula_sum "Si O2"
_cell_formula_units_Z 80
_cell_length_a 14.593691
_cell_length_b 8.502723
_cell_length_c 29.031010
_cell_angle_alpha 90.000000
_cell_angle_beta 90.000000
_cell_angle_gamma 90.000000
_cell_volume 3602.345162
_symmetry_space_group_name_H-M "C M M M"
_symmetry_group_IT_number 65
_symmetry_cell_setting 'orthorhombic'
loop_
_space_group_symop_operation_xyz
x,y,z
-x,-y,z
x,-y,-z
-x,y,-z
-x,-y,-z
x,y,-z
-x,y,z
x,-y,z
1/2+x,1/2+y,z
1/2-x,1/2-y,z
1/2+x,1/2-y,-z
1/2-x,1/2+y,-z
1/2-x,1/2-y,-z
1/2+x,1/2+y,-z
1/2-x,1/2+y,z
1/2+x,1/2-y,z
loop_
_atom_site_type_symbol
_atom_site_label
_atom_site_fract_x
_atom_site_fract_y
_atom_site_fract_z
Si Si1 0.112475 0.681630 0.808708
Si Si2 0.887483 0.316899 0.392597
Si Si3 0.149076 0.683685 0.000000
Si Si4 0.605266 0.190723 0.289643
Si Si5 0.107525 0.830132 0.903254
Si Si6 0.888109 0.000000 0.553262
O O1 0.139599 0.500000 0.811169
O O2 0.143180 0.750671 0.759242
O O3 0.144461 0.759746 0.855894
O O4 0.000000 0.684752 0.807323
O O5 0.860486 0.500000 0.404184
O O6 0.856301 0.278530 0.340224
O O7 0.000000 0.320326 0.392863
O O8 0.859269 0.166166 0.423240
O O9 0.250000 0.750000 0.000000
O O10 0.110473 0.739551 0.951187
O O11 0.145185 0.500000 0.000000
O O12 0.500000 0.246485 0.291676
O O13 0.603525 0.000000 0.285872
O O14 0.000000 0.846391 0.893751
O O15 0.151092 0.000000 0.911665
O O16 0.860057 0.000000 0.500000
O O17 0.000000 0.000000 0.555189
#
# Coordination Sequence:
#
# PCOD9489124 Si02
#       6
#    16  16   8  16  16   8
#     4   8  13  23  40  61  84 109 136 167 208 263
#     4   8  13  21  30  39  54  79 110 149 199 249
#     4  12  25  40  57  73  91 121 159 194 231 276
#     4   7  10  18  32  48  67  91 119 152 195 251
#     4  10  20  34  51  74 102 125 149 186 229 274
#     4   9  16  22  26  36  52  74 112 157 199 247
#
# _framework density 22.207756
#
# number of rings (size 3 to 8) (size 9 to 14) (size 15 to 20)
#    0.000    3.300    0.000    4.200    0.000    2.800 
#    1.800    2.000    0.000    0.000    0.000    0.000 
#    0.000    0.000    0.000    0.000    0.000    0.000 
#
# Total GULP energy -222706.223448 kJ/mol
# GULP energy per Si atom -5567.655586 kJ/mol
# Density = 2.215721 g / cm^3
# Si number density = 22.207756 Si / 1000 Ang^3
#
#
#
# Elastic Constant Matrix: (Units=GPa)
#
#
# Indices 1 2 3 4 5 6 
#
# 1 50.6341 4.7842 6.2352 0.0000 0.0000 0.0000
# 2 4.7842 145.1927 128.1898 0.0000 0.0000 0.0000
# 3 6.2352 128.1898 237.3299 0.0000 0.0000 0.0000
# 4 0.0000 0.0000 0.0000 50.4283 0.0000 0.0000
# 5 0.0000 0.0000 0.0000 0.0000 60.1322 0.0000
# 6 0.0000 0.0000 0.0000 0.0000 0.0000 6.4805
#
#
#
# Elastic Compliance Matrix: (Units=1/GPa)
#
#
# Indices 1 2 3 4 5 6 
#
# 1 0.019824 -0.000370 -0.000321 0.000000 0.000000 0.000000
# 2 -0.000370 0.013173 -0.007105 0.000000 0.000000 0.000000
# 3 -0.000321 -0.007105 0.008060 0.000000 0.000000 0.000000
# 4 0.000000 0.000000 0.000000 0.019830 0.000000 0.000000
# 5 0.000000 0.000000 0.000000 0.000000 0.016630 0.000000
# 6 0.000000 0.000000 0.000000 0.000000 0.000000 0.154308
#
#
# Mechanical properties :
#
#
# Convention : Reuss Voigt Hill
#
# Bulk Modulus (GPa) = 39.27066 79.06390 59.16728
# Shear Modulus (GPa) = 19.53846 43.00470 31.27158
#
# Velocity S-wave (km/s) = 2.96937 4.40531 3.75659
# Velocity P-wave (km/s) = 5.42935 7.84569 6.74658
#
# Compressibility (1/GPa) = 0.02546431
#
# Stress axis : x y z
#
# Youngs Moduli (GPa) = 50.44386 75.91343 124.07178
#
# Poissons Ratio (x) = 0.02806 0.03985
# Poissons Ratio (y) = 0.01865 0.88158
# Poissons Ratio (z) = 0.01620 0.53940
#
# Static dielectric constant tensor:
#      x y z
#    x 1.854220 0.000000 0.000000 
#    y 0.000000 1.809080 0.000000 
#    z 0.000000 0.000000 1.943110 
# 
# From -- ./inp_files/75099.got.cif
#   From: 2010.05.17/outbox.cif.g08.bks.cpg/sg65_38_cif.got.tgz:75099.got - 2010.06.03 17:01:31.
