data_PCOD9489778
_publ_section_title
;
Structure prediction by ZEFSAII (Michael W. Deem and Ramdas Pophale) SiO2 
 PCOD9489778
Probable space group: C M M M
;
_chemical_formula_sum "Si O2"
_cell_formula_units_Z 88
_cell_length_a 25.007059
_cell_length_b 14.473385
_cell_length_c 12.216995
_cell_angle_alpha 90.000000
_cell_angle_beta 90.000000
_cell_angle_gamma 90.000000
_cell_volume 4421.779986
_symmetry_space_group_name_H-M "C M M M"
_symmetry_group_IT_number 65
_symmetry_cell_setting 'orthorhombic'
loop_
_space_group_symop_operation_xyz
x,y,z
-x,-y,z
x,-y,-z
-x,y,-z
-x,-y,-z
x,y,-z
-x,y,z
x,-y,z
1/2+x,1/2+y,z
1/2-x,1/2-y,z
1/2+x,1/2-y,-z
1/2-x,1/2+y,-z
1/2-x,1/2-y,-z
1/2+x,1/2+y,-z
1/2-x,1/2+y,z
1/2+x,1/2-y,z
loop_
_atom_site_type_symbol
_atom_site_label
_atom_site_fract_x
_atom_site_fract_y
_atom_site_fract_z
Si Si1 0.560684 0.173511 0.373680
Si Si2 0.238455 0.500000 0.691475
Si Si3 0.564023 0.292390 0.000000
Si Si4 0.624054 0.892856 0.000000
Si Si5 0.795606 0.318070 0.180704
Si Si6 0.112762 0.180907 0.236306
Si Si7 0.379142 0.000000 0.623899
Si Si8 0.858542 0.000000 0.372956
O O1 0.576291 0.194643 0.500000
O O2 0.500000 0.140282 0.374166
O O3 0.567305 0.261974 0.299005
O O4 0.597647 0.092608 0.325926
O O5 0.233223 0.403554 0.758442
O O6 0.184031 0.500000 0.622692
O O7 0.294026 0.500000 0.629259
O O8 0.576394 0.181819 0.000000
O O9 0.593763 0.329627 0.110031
O O10 0.500000 0.309804 0.000000
O O11 0.663191 0.868171 0.899917
O O12 0.608327 0.000000 0.000000
O O13 0.750000 0.250000 0.132307
O O14 0.834047 0.245551 0.244412
O O15 0.122761 0.088197 0.303153
O O16 0.400698 0.000000 0.500000
O O17 0.876548 0.000000 0.500000
#
# Coordination Sequence:
#
# PCOD9489778 Si02
#       8
#    16   8   8   8  16  16   8   8
#     4  10  20  36  60  89 124 167 213 266 327 392
#     4  12  21  38  62  93 133 168 217 264 321 391
#     4  10  24  45  70  97 129 170 218 273 338 400
#     4  10  21  36  63  96 134 172 215 272 320 382
#     4  11  21  38  59  90 130 178 221 264 318 384
#     4  11  23  43  65  92 131 169 218 273 330 394
#     4  10  20  34  57  90 124 164 213 262 319 390
#     4  12  27  45  66  97 131 170 222 280 334 393
#
# _framework density 19.901488000000001
#
# number of rings (size 3 to 8) (size 9 to 14) (size 15 to 20)
#    0.000    1.273    4.545    1.909    0.000    1.636 
#    0.000    4.091    0.000    3.273    0.000    0.000 
#    0.000    0.000    0.000    0.000    0.000    0.000 
#
# Total GULP energy -245305.229765 kJ/mol
# GULP energy per Si atom -5575.118858 kJ/mol
# Density = 1.985619 g / cm^3
# Si number density = 19.901488 Si / 1000 Ang^3
#
#
#
# Elastic Constant Matrix: (Units=GPa)
#
#
# Indices 1 2 3 4 5 6 
#
# 1 82.7689 34.8251 23.4669 0.0000 0.0000 0.0000
# 2 34.8251 142.2256 67.7804 0.0000 0.0000 0.0000
# 3 23.4669 67.7804 116.5654 0.0000 0.0000 0.0000
# 4 0.0000 0.0000 0.0000 21.0994 0.0000 0.0000
# 5 0.0000 0.0000 0.0000 0.0000 8.8237 0.0000
# 6 0.0000 0.0000 0.0000 0.0000 0.0000 -26.5494
#
#
#
# Elastic Compliance Matrix: (Units=1/GPa)
#
#
# Indices 1 2 3 4 5 6 
#
# 1 0.013572 -0.002796 -0.001107 0.000000 0.000000 0.000000
# 2 -0.002796 0.010302 -0.005428 0.000000 0.000000 0.000000
# 3 -0.001107 -0.005428 0.011958 0.000000 0.000000 0.000000
# 4 0.000000 0.000000 0.000000 0.047395 0.000000 0.000000
# 5 0.000000 0.000000 0.000000 0.000000 0.113331 0.000000
# 6 0.000000 0.000000 0.000000 0.000000 0.000000 -0.037666
#
#
# Mechanical properties :
#
#
# Convention : Reuss Voigt Hill
#
# Bulk Modulus (GPa) = 58.23523 65.96718 62.10121
# Shear Modulus (GPa) = 27.28121 15.04059 21.16090
#
# Velocity S-wave (km/s) = 3.70647 2.75208 3.26434
# Velocity P-wave (km/s) = 6.90235 6.58159 6.74388
#
# Compressibility (1/GPa) = 0.01717174
#
# Stress axis : x y z
#
# Youngs Moduli (GPa) = 73.68152 97.06497 83.62755
#
# Poissons Ratio (x) = 0.27138 0.09254
# Poissons Ratio (y) = 0.20600 0.45391
# Poissons Ratio (z) = 0.08153 0.52685
#
# Static dielectric constant tensor:
#      x y z
#    x 1.692200 0.000000 0.000000 
#    y 0.000000 1.717350 0.000000 
#    z 0.000000 0.000000 1.757920 
# 
# From -- ./inp_files/32300.got.cif
#   From: 2010.05.17/outbox.cif.g08.bks.cpg/sg65_17_cif.got.tgz:32300.got - 2010.06.03 17:01:31.
