data_PCOD9489669
_publ_section_title
;
Structure prediction by ZEFSAII (Michael W. Deem and Ramdas Pophale) SiO2 
 PCOD9489669
Probable space group: C M M M
;
_chemical_formula_sum "Si O2"
_cell_formula_units_Z 72
_cell_length_a 16.030988
_cell_length_b 27.596407
_cell_length_c 7.663876
_cell_angle_alpha 90.000000
_cell_angle_beta 90.000000
_cell_angle_gamma 90.000000
_cell_volume 3390.480881
_symmetry_space_group_name_H-M "C M M M"
_symmetry_group_IT_number 65
_symmetry_cell_setting 'orthorhombic'
loop_
_space_group_symop_operation_xyz
x,y,z
-x,-y,z
x,-y,-z
-x,y,-z
-x,-y,-z
x,y,-z
-x,y,z
x,-y,z
1/2+x,1/2+y,z
1/2-x,1/2-y,z
1/2+x,1/2-y,-z
1/2-x,1/2+y,-z
1/2-x,1/2-y,-z
1/2+x,1/2+y,-z
1/2-x,1/2+y,z
1/2+x,1/2-y,z
loop_
_atom_site_type_symbol
_atom_site_label
_atom_site_fract_x
_atom_site_fract_y
_atom_site_fract_z
Si Si1 0.165524 0.274524 0.208969
Si Si2 0.671621 0.445040 0.291264
Si Si3 0.165998 0.387957 0.710387
Si Si4 0.000000 0.780372 0.785600
Si Si5 0.000000 0.891282 0.207733
Si Si6 0.500000 0.056080 0.286474
O O1 0.250000 0.250000 0.278210
O O2 0.163586 0.331550 0.244001
O O3 0.082735 0.247605 0.273880
O O4 0.165820 0.268095 0.000000
O O5 0.681958 0.448079 0.500000
O O6 0.672091 0.500000 0.222346
O O7 0.749517 0.413584 0.223992
O O8 0.583518 0.419376 0.260021
O O9 0.166183 0.391107 0.500000
O O10 0.083305 0.416057 0.771475
O O11 0.000000 0.836040 0.726286
O O12 0.000000 0.780222 0.000000
O O13 0.000000 0.888578 0.000000
O O14 0.500000 0.056372 0.500000
O O15 0.500000 0.000000 0.232402
#
# Coordination Sequence:
#
# PCOD9489669 Si02
#       6
#    16  16  16   8   8   8
#     4  10  20  35  54  74 101 139 176 212 261 317
#     4  10  21  37  55  77 109 145 175 209 263 323
#     4  10  20  34  55  82 108 137 176 220 261 304
#     4   9  19  35  53  74 102 137 174 212 263 321
#     4  11  22  37  58  81 104 135 180 227 262 303
#     4   9  17  32  55  81 108 139 176 215 257 311
#
# _framework density 21.235925999999999
#
# number of rings (size 3 to 8) (size 9 to 14) (size 15 to 20)
#    0.000    2.111    0.000    3.333    0.000    7.556 
#    0.000    2.222    0.000    2.667    0.000    0.000 
#    0.000    0.000    0.000    0.000    0.000    0.000 
#
# Total GULP energy -201232.200665 kJ/mol
# GULP energy per Si atom -5589.783352 kJ/mol
# Density = 2.118759 g / cm^3
# Si number density = 21.235926 Si / 1000 Ang^3
#
#
#
# Elastic Constant Matrix: (Units=GPa)
#
#
# Indices 1 2 3 4 5 6 
#
# 1 176.6111 83.6405 0.2279 0.0000 0.0000 0.0000
# 2 83.6405 179.3851 -7.7584 0.0000 0.0000 0.0000
# 3 0.2279 -7.7584 37.0863 0.0000 0.0000 0.0000
# 4 0.0000 0.0000 0.0000 31.8687 0.0000 0.0000
# 5 0.0000 0.0000 0.0000 0.0000 -18.1121 0.0000
# 6 0.0000 0.0000 0.0000 0.0000 0.0000 45.2368
#
#
#
# Elastic Compliance Matrix: (Units=1/GPa)
#
#
# Indices 1 2 3 4 5 6 
#
# 1 0.007288 -0.003431 -0.000763 0.000000 0.000000 0.000000
# 2 -0.003431 0.007241 0.001536 0.000000 0.000000 0.000000
# 3 -0.000763 0.001536 0.027290 0.000000 0.000000 0.000000
# 4 0.000000 0.000000 0.000000 0.031379 0.000000 0.000000
# 5 0.000000 0.000000 0.000000 0.000000 -0.055212 0.000000
# 6 0.000000 0.000000 0.000000 0.000000 0.000000 0.022106
#
#
# Mechanical properties :
#
#
# Convention : Reuss Voigt Hill
#
# Bulk Modulus (GPa) = 27.39474 60.58916 43.99195
# Shear Modulus (GPa) = 86.84256 32.93018 59.88637
#
# Velocity S-wave (km/s) = 6.40179 3.94214 5.31618
# Velocity P-wave (km/s) = 8.22023 7.02240 7.64481
#
# Compressibility (1/GPa) = 0.03650336
#
# Stress axis : x y z
#
# Youngs Moduli (GPa) = 137.21030 138.10562 36.64325
#
# Poissons Ratio (x) = 0.47386 0.02794
# Poissons Ratio (y) = 0.47079 -0.05628
# Poissons Ratio (z) = 0.10463 -0.21211
#
# Static dielectric constant tensor:
#      x y z
#    x 1.723350 0.000000 0.000000 
#    y 0.000000 1.715330 0.000000 
#    z 0.000000 0.000000 1.791920 
# 
# From -- ./inp_files/7383.got.cif
#   From: 2010.05.17/outbox.cif.g08.bks.cpg/sg65_4_cif.got.tgz:7383.got - 2010.06.03 17:01:31.
