data_PCOD9489495
_publ_section_title
;
Structure prediction by ZEFSAII (Michael W. Deem and Ramdas Pophale) SiO2 
 PCOD9489495
Probable space group: C M M M
;
_chemical_formula_sum "Si O2"
_cell_formula_units_Z 104
_cell_length_a 17.932563
_cell_length_b 14.442778
_cell_length_c 23.352060
_cell_angle_alpha 90.000000
_cell_angle_beta 90.000000
_cell_angle_gamma 90.000000
_cell_volume 6048.090748
_symmetry_space_group_name_H-M "C M M M"
_symmetry_group_IT_number 65
_symmetry_cell_setting 'orthorhombic'
loop_
_space_group_symop_operation_xyz
x,y,z
-x,-y,z
x,-y,-z
-x,y,-z
-x,-y,-z
x,y,-z
-x,y,z
x,-y,z
1/2+x,1/2+y,z
1/2-x,1/2-y,z
1/2+x,1/2-y,-z
1/2-x,1/2+y,-z
1/2-x,1/2-y,-z
1/2+x,1/2+y,-z
1/2-x,1/2+y,z
1/2+x,1/2-y,z
loop_
_atom_site_type_symbol
_atom_site_label
_atom_site_fract_x
_atom_site_fract_y
_atom_site_fract_z
Si Si1 0.659047 0.249445 0.934763
Si Si2 0.841314 0.395244 0.839282
Si Si3 0.780300 0.391062 0.431836
Si Si4 0.500000 0.606905 0.431464
Si Si5 0.340446 0.748754 0.745505
Si Si6 0.159528 0.895499 0.841464
Si Si7 0.860620 0.779727 0.385703
O O1 0.750000 0.250000 0.936304
O O2 0.636005 0.162652 0.895422
O O3 0.636925 0.339635 0.898270
O O4 0.632632 0.247061 0.000000
O O5 0.868051 0.500000 0.839530
O O6 0.862657 0.338949 0.782225
O O7 0.750425 0.396226 0.840579
O O8 0.765036 0.385570 0.500000
O O9 0.791879 0.500000 0.417762
O O10 0.846179 0.319055 0.416635
O O11 0.711039 0.345801 0.397775
O O12 0.500000 0.500000 0.411225
O O13 0.500000 0.604746 0.500000
O O14 0.571096 0.663189 0.410181
O O15 0.250000 0.750000 0.741595
O O16 0.362732 0.662579 0.785599
O O17 0.369322 0.740180 0.681537
O O18 0.132719 0.000000 0.840820
#
# Coordination Sequence:
#
# PCOD9489495 Si02
#       7
#    16  16  16   8  16  16  16
#     4   8  13  20  29  44  71 108 154 195 227 276
#     4   8  14  23  35  52  80 113 147 193 242 284
#     4  10  20  34  54  79 102 127 164 206 246 290
#     4  11  24  40  57  77 103 135 165 198 250 310
#     4   9  16  28  41  65  90 115 155 200 244 285
#     4   8  14  22  33  50  77 111 146 191 242 283
#     4  11  20  35  54  76 103 133 165 206 250 297
#
# _framework density 17.195509000000001
#
# number of rings (size 3 to 8) (size 9 to 14) (size 15 to 20)
#    0.000    2.846    1.538    4.154    0.000    3.692 
#    0.000    3.462    0.000    1.385    0.000    0.000 
#    0.000    0.000    0.000   11.077    0.000   35.077 
#
# Total GULP energy -289577.197606 kJ/mol
# GULP energy per Si atom -5568.792262 kJ/mol
# Density = 1.715637 g / cm^3
# Si number density = 17.195509 Si / 1000 Ang^3
#
#
#
# Elastic Constant Matrix: (Units=GPa)
#
#
# Indices 1 2 3 4 5 6 
#
# 1 27.9046 27.3568 11.1311 0.0000 0.0000 0.0000
# 2 27.3568 186.9854 76.4705 0.0000 0.0000 0.0000
# 3 11.1311 76.4705 143.3207 0.0000 0.0000 0.0000
# 4 0.0000 0.0000 0.0000 5.3000 0.0000 0.0000
# 5 0.0000 0.0000 0.0000 0.0000 8.1067 0.0000
# 6 0.0000 0.0000 0.0000 0.0000 0.0000 4.1735
#
#
#
# Elastic Compliance Matrix: (Units=1/GPa)
#
#
# Indices 1 2 3 4 5 6 
#
# 1 0.041837 -0.006130 0.000021 0.000000 0.000000 0.000000
# 2 -0.006130 0.007739 -0.003653 0.000000 0.000000 0.000000
# 3 0.000021 -0.003653 0.008925 0.000000 0.000000 0.000000
# 4 0.000000 0.000000 0.000000 0.188679 0.000000 0.000000
# 5 0.000000 0.000000 0.000000 0.000000 0.123355 0.000000
# 6 0.000000 0.000000 0.000000 0.000000 0.000000 0.239605
#
#
# Mechanical properties :
#
#
# Convention : Reuss Voigt Hill
#
# Bulk Modulus (GPa) = 25.65557 65.34750 45.50153
# Shear Modulus (GPa) = 7.78022 19.73287 13.75654
#
# Velocity S-wave (km/s) = 2.12941 3.39124 2.83151
# Velocity P-wave (km/s) = 4.58238 7.30884 6.09989
#
# Compressibility (1/GPa) = 0.03897790
#
# Stress axis : x y z
#
# Youngs Moduli (GPa) = 23.90215 129.21935 112.04679
#
# Poissons Ratio (x) = 0.79207 -0.00238
# Poissons Ratio (y) = 0.14651 0.40931
# Poissons Ratio (z) = -0.00051 0.47205
#
# Static dielectric constant tensor:
#      x y z
#    x 1.567820 0.000000 0.000000 
#    y 0.000000 1.586710 0.000000 
#    z 0.000000 0.000000 1.571860 
# 
# From -- ./inp_files/64683.got.cif
#   From: 2010.05.17/outbox.cif.g08.bks.cpg/sg65_33_cif.got.tgz:64683.got - 2010.06.03 17:01:31.
