data_PCOD9489222
_publ_section_title
;
Structure prediction by ZEFSAII (Michael W. Deem and Ramdas Pophale) SiO2 
 PCOD9489222
Probable space group: C M M M
;
_chemical_formula_sum "Si O2"
_cell_formula_units_Z 72
_cell_length_a 7.902472
_cell_length_b 20.062960
_cell_length_c 25.593368
_cell_angle_alpha 90.000000
_cell_angle_beta 90.000000
_cell_angle_gamma 90.000000
_cell_volume 4057.751195
_symmetry_space_group_name_H-M "C M M M"
_symmetry_group_IT_number 65
_symmetry_cell_setting 'orthorhombic'
loop_
_space_group_symop_operation_xyz
x,y,z
-x,-y,z
x,-y,-z
-x,y,-z
-x,-y,-z
x,y,-z
-x,y,z
x,-y,z
1/2+x,1/2+y,z
1/2-x,1/2-y,z
1/2+x,1/2-y,-z
1/2-x,1/2+y,-z
1/2-x,1/2-y,-z
1/2+x,1/2+y,-z
1/2-x,1/2+y,z
1/2+x,1/2-y,z
loop_
_atom_site_type_symbol
_atom_site_label
_atom_site_fract_x
_atom_site_fract_y
_atom_site_fract_z
Si Si1 0.799141 0.174364 0.849875
Si Si2 0.000000 0.580723 0.559402
Si Si3 0.296715 0.924304 0.941987
Si Si4 0.200540 0.920272 0.362499
Si Si5 0.296723 0.673738 0.267101
O O1 0.750000 0.250000 0.862994
O O2 0.747432 0.124181 0.895064
O O3 0.729619 0.159429 0.791507
O O4 0.000000 0.171546 0.846150
O O5 0.170033 0.598745 0.591278
O O6 0.000000 0.500000 0.557128
O O7 0.000000 0.605949 0.500000
O O8 0.500000 0.926858 0.944195
O O9 0.235294 0.000000 0.932946
O O10 0.236835 0.902836 0.000000
O O11 0.254214 0.878680 0.311317
O O12 0.000000 0.907286 0.373555
O O13 0.215986 0.000000 0.353512
O O14 0.500000 0.670172 0.265081
O O15 0.250000 0.750000 0.280211
#
# Coordination Sequence:
#
# PCOD9489222 Si02
#       5
#    16   8  16  16  16
#     4  10  20  34  52  75 103 131 169 214 255 308
#     4   9  18  32  52  80 108 136 174 216 258 305
#     4   9  19  36  54  72  98 132 169 210 259 312
#     4   9  18  33  52  77 107 137 173 216 260 308
#     4   9  19  33  51  75 101 135 169 206 257 308
#
# _framework density 17.743818000000001
#
# number of rings (size 3 to 8) (size 9 to 14) (size 15 to 20)
#    0.000    2.778    0.000    1.333    1.556    3.556 
#    0.000    5.556    0.000    0.667    0.000    0.000 
#    0.000    0.000    0.000    0.000    0.000    0.000 
#
# Total GULP energy -200563.502906 kJ/mol
# GULP energy per Si atom -5571.208414 kJ/mol
# Density = 1.770343 g / cm^3
# Si number density = 17.743818 Si / 1000 Ang^3
#
#
#
# Elastic Constant Matrix: (Units=GPa)
#
#
# Indices 1 2 3 4 5 6 
#
# 1 53.3162 31.4999 54.6268 0.0000 0.0000 0.0000
# 2 31.4999 73.4031 99.4457 0.0000 0.0000 0.0000
# 3 54.6268 99.4457 178.3346 0.0000 0.0000 0.0000
# 4 0.0000 0.0000 0.0000 -53.1571 0.0000 0.0000
# 5 0.0000 0.0000 0.0000 0.0000 26.9363 0.0000
# 6 0.0000 0.0000 0.0000 0.0000 0.0000 17.7412
#
#
#
# Elastic Compliance Matrix: (Units=1/GPa)
#
#
# Indices 1 2 3 4 5 6 
#
# 1 0.027380 -0.001584 -0.007504 0.000000 0.000000 0.000000
# 2 -0.001584 0.055806 -0.030634 0.000000 0.000000 0.000000
# 3 -0.007504 -0.030634 0.024989 0.000000 0.000000 0.000000
# 4 0.000000 0.000000 0.000000 -0.018812 0.000000 0.000000
# 5 0.000000 0.000000 0.000000 0.000000 0.037125 0.000000
# 6 0.000000 0.000000 0.000000 0.000000 0.000000 0.056366
#
#
# Mechanical properties :
#
#
# Convention : Reuss Voigt Hill
#
# Bulk Modulus (GPa) = 34.80535 75.13320 54.96927
# Shear Modulus (GPa) = 18.39087 6.26952 12.33020
#
# Velocity S-wave (km/s) = 3.22291 1.88176 2.63896
# Velocity P-wave (km/s) = 5.78858 6.86707 6.35076
#
# Compressibility (1/GPa) = 0.02873121
#
# Stress axis : x y z
#
# Youngs Moduli (GPa) = 36.52308 17.91917 40.01787
#
# Poissons Ratio (x) = 0.02838 0.30029
# Poissons Ratio (y) = 0.05784 1.22592
# Poissons Ratio (z) = 0.27406 0.54894
#
# Static dielectric constant tensor:
#      x y z
#    x 1.629330 0.000000 0.000000 
#    y 0.000000 1.572670 0.000000 
#    z 0.000000 0.000000 1.629100 
# 
# From -- ./inp_files/59201.got.cif
#   From: 2010.05.17/outbox.cif.g08.bks.cpg/sg65_30_cif.got.tgz:59201.got - 2010.06.03 17:01:31.
