data_PCOD9489806
_publ_section_title
;
Structure prediction by ZEFSAII (Michael W. Deem and Ramdas Pophale) SiO2 
 PCOD9489806
Probable space group: C M M M
;
_chemical_formula_sum "Si O2"
_cell_formula_units_Z 72
_cell_length_a 17.223431
_cell_length_b 14.150137
_cell_length_c 15.736741
_cell_angle_alpha 90.000000
_cell_angle_beta 90.000000
_cell_angle_gamma 90.000000
_cell_volume 3835.262652
_symmetry_space_group_name_H-M "C M M M"
_symmetry_group_IT_number 65
_symmetry_cell_setting 'orthorhombic'
loop_
_space_group_symop_operation_xyz
x,y,z
-x,-y,z
x,-y,-z
-x,y,-z
-x,-y,-z
x,y,-z
-x,y,z
x,-y,z
1/2+x,1/2+y,z
1/2-x,1/2-y,z
1/2+x,1/2-y,-z
1/2-x,1/2+y,-z
1/2-x,1/2-y,-z
1/2+x,1/2+y,-z
1/2-x,1/2+y,z
1/2+x,1/2-y,z
loop_
_atom_site_type_symbol
_atom_site_label
_atom_site_fract_x
_atom_site_fract_y
_atom_site_fract_z
Si Si1 0.905796 0.107071 0.904058
Si Si2 0.312334 0.888539 0.663049
Si Si3 0.364128 0.612358 0.399970
Si Si4 0.586413 0.885569 0.500000
Si Si5 0.410953 0.741856 0.749974
O O1 0.885375 0.178821 0.830033
O O2 0.000000 0.104602 0.904747
O O3 0.879176 0.000000 0.885223
O O4 0.880956 0.132174 0.000000
O O5 0.224775 0.873154 0.631463
O O6 0.366192 0.861527 0.583217
O O7 0.347919 0.823897 0.736078
O O8 0.320700 0.000000 0.681116
O O9 0.372107 0.637373 0.500000
O O10 0.381457 0.500000 0.392907
O O11 0.411257 0.674095 0.332975
O O12 0.500000 0.846255 0.500000
O O13 0.581648 0.000000 0.500000
O O14 0.500000 0.776629 0.762075
#
# Coordination Sequence:
#
# PCOD9489806 Si02
#       5
#    16  16  16   8  16
#     4   8  15  31  54  77 102 132 167 210 260 313
#     4  10  20  35  52  70  99 142 183 216 248 294
#     4  10  21  37  53  70 101 144 182 211 250 311
#     4   9  16  28  47  68  90 124 177 227 248 264
#     4  11  22  32  51  82 108 130 166 219 268 311
#
# _framework density 18.773159
#
# number of rings (size 3 to 8) (size 9 to 14) (size 15 to 20)
#    0.000    2.333    1.111    2.667    1.556    4.000 
#    0.000    1.111    0.000    3.333    0.000    6.222 
#    0.000    0.000    0.000    0.000    0.000    0.000 
#
# Total GULP energy -200902.819603 kJ/mol
# GULP energy per Si atom -5580.633878 kJ/mol
# Density = 1.873043 g / cm^3
# Si number density = 18.773159 Si / 1000 Ang^3
#
#
#
# Elastic Constant Matrix: (Units=GPa)
#
#
# Indices 1 2 3 4 5 6 
#
# 1 43.2005 12.3150 10.4577 0.0000 0.0000 0.0000
# 2 12.3150 66.4815 60.3336 0.0000 0.0000 0.0000
# 3 10.4577 60.3336 105.5184 0.0000 0.0000 0.0000
# 4 0.0000 0.0000 0.0000 30.9193 0.0000 0.0000
# 5 0.0000 0.0000 0.0000 0.0000 2.5129 0.0000
# 6 0.0000 0.0000 0.0000 0.0000 0.0000 12.4905
#
#
#
# Elastic Compliance Matrix: (Units=1/GPa)
#
#
# Indices 1 2 3 4 5 6 
#
# 1 0.024444 -0.004842 0.000346 0.000000 0.000000 0.000000
# 2 -0.004842 0.032225 -0.017946 0.000000 0.000000 0.000000
# 3 0.000346 -0.017946 0.019704 0.000000 0.000000 0.000000
# 4 0.000000 0.000000 0.000000 0.032342 0.000000 0.000000
# 5 0.000000 0.000000 0.000000 0.000000 0.397954 0.000000
# 6 0.000000 0.000000 0.000000 0.000000 0.000000 0.080061
#
#
# Mechanical properties :
#
#
# Convention : Reuss Voigt Hill
#
# Bulk Modulus (GPa) = 31.75663 42.37922 37.06792
# Shear Modulus (GPa) = 7.78682 17.99080 12.88881
#
# Velocity S-wave (km/s) = 2.03884 3.09904 2.62306
# Velocity P-wave (km/s) = 4.74291 5.95221 5.38163
#
# Compressibility (1/GPa) = 0.03148949
#
# Stress axis : x y z
#
# Youngs Moduli (GPa) = 40.90908 31.03184 50.75162
#
# Poissons Ratio (x) = 0.15026 -0.01756
# Poissons Ratio (y) = 0.19808 0.91078
# Poissons Ratio (z) = -0.01415 0.55689
#
# Static dielectric constant tensor:
#      x y z
#    x 1.676520 0.000000 0.000000 
#    y 0.000000 1.682040 0.000000 
#    z 0.000000 0.000000 1.652260 
# 
# From -- ./inp_files/39753.got.cif
#   From: 2010.05.17/outbox.cif.g08.bks.cpg/sg65_20_cif.got.tgz:39753.got - 2010.06.03 17:01:31.
