data_PCOD9489040
_publ_section_title
;
Structure prediction by ZEFSAII (Michael W. Deem and Ramdas Pophale) SiO2 
 PCOD9489040
Probable space group: C M M M
;
_chemical_formula_sum "Si O2"
_cell_formula_units_Z 104
_cell_length_a 15.927316
_cell_length_b 18.287879
_cell_length_c 18.402943
_cell_angle_alpha 90.000000
_cell_angle_beta 90.000000
_cell_angle_gamma 90.000000
_cell_volume 5360.350859
_symmetry_space_group_name_H-M "C M M M"
_symmetry_group_IT_number 65
_symmetry_cell_setting 'orthorhombic'
loop_
_space_group_symop_operation_xyz
x,y,z
-x,-y,z
x,-y,-z
-x,y,-z
-x,-y,-z
x,y,-z
-x,y,z
x,-y,z
1/2+x,1/2+y,z
1/2-x,1/2-y,z
1/2+x,1/2-y,-z
1/2-x,1/2+y,-z
1/2-x,1/2-y,-z
1/2+x,1/2+y,-z
1/2-x,1/2+y,z
1/2+x,1/2-y,z
loop_
_atom_site_type_symbol
_atom_site_label
_atom_site_fract_x
_atom_site_fract_y
_atom_site_fract_z
Si Si1 0.600005 0.580848 0.365396
Si Si2 0.150280 0.309630 0.271327
Si Si3 0.901044 0.580709 0.844643
Si Si4 0.902799 0.410128 0.000000
Si Si5 0.340409 0.345587 0.774280
Si Si6 0.599837 0.587388 0.082264
Si Si7 0.601823 0.259329 0.581791
O O1 0.500000 0.578695 0.377155
O O2 0.633108 0.500000 0.386428
O O3 0.618564 0.596445 0.280647
O O4 0.629499 0.656163 0.403647
O O5 0.105494 0.373920 0.228568
O O6 0.246645 0.328636 0.253032
O O7 0.118115 0.233877 0.235535
O O8 0.137663 0.294036 0.356386
O O9 0.863723 0.500000 0.833916
O O10 0.000000 0.573298 0.858936
O O11 0.865496 0.612043 0.921388
O O12 0.901524 0.500000 0.000000
O O13 0.000000 0.385070 0.000000
O O14 0.348065 0.373231 0.855539
O O15 0.500000 0.601395 0.093705
O O16 0.611611 0.500000 0.087286
O O17 0.621080 0.609826 0.000000
O O18 0.624947 0.238523 0.500000
O O19 0.500000 0.258128 0.588033
#
# Coordination Sequence:
#
# PCOD9489040 Si02
#       7
#    16  16  16   8  16  16  16
#     4   9  17  30  52  80 106 134 170 215 264 314
#     4  10  21  35  49  73 105 140 177 218 263 313
#     4   9  17  31  51  72  95 126 166 215 266 314
#     4   7  12  26  46  67  90 114 148 197 252 305
#     4  10  20  34  48  72 105 143 181 211 255 310
#     4   9  18  34  56  80 107 141 181 223 264 311
#     4   9  18  34  57  81 105 136 174 217 266 323
#
# _framework density 19.401714999999999
#
# number of rings (size 3 to 8) (size 9 to 14) (size 15 to 20)
#    0.000    2.846    0.000    2.769    0.000    4.615 
#    2.769    8.462    0.000    0.462    0.000    2.154 
#    0.000    0.000    0.000    0.000    0.000    0.000 
#
# Total GULP energy -289489.881325 kJ/mol
# GULP energy per Si atom -5567.113102 kJ/mol
# Density = 1.935756 g / cm^3
# Si number density = 19.401715 Si / 1000 Ang^3
#
#
#
# Elastic Constant Matrix: (Units=GPa)
#
#
# Indices 1 2 3 4 5 6 
#
# 1 19.2069 13.8356 34.0408 0.0000 0.0000 0.0000
# 2 13.8356 65.0581 68.2955 0.0000 0.0000 0.0000
# 3 34.0408 68.2955 191.9665 0.0000 0.0000 0.0000
# 4 0.0000 0.0000 0.0000 -22.7398 0.0000 0.0000
# 5 0.0000 0.0000 0.0000 0.0000 34.0662 0.0000
# 6 0.0000 0.0000 0.0000 0.0000 0.0000 28.5312
#
#
#
# Elastic Compliance Matrix: (Units=1/GPa)
#
#
# Indices 1 2 3 4 5 6 
#
# 1 0.076350 -0.003231 -0.012389 0.000000 0.000000 0.000000
# 2 -0.003231 0.024670 -0.008204 0.000000 0.000000 0.000000
# 3 -0.012389 -0.008204 0.010325 0.000000 0.000000 0.000000
# 4 0.000000 0.000000 0.000000 -0.043976 0.000000 0.000000
# 5 0.000000 0.000000 0.000000 0.000000 0.029355 0.000000
# 6 0.000000 0.000000 0.000000 0.000000 0.000000 0.035049
#
#
# Mechanical properties :
#
#
# Convention : Reuss Voigt Hill
#
# Bulk Modulus (GPa) = 15.69951 56.50838 36.10394
# Shear Modulus (GPa) = 24.91853 18.64218 21.78036
#
# Velocity S-wave (km/s) = 3.58767 3.10312 3.35416
# Velocity P-wave (km/s) = 5.02705 6.48289 5.80082
#
# Compressibility (1/GPa) = 0.06369625
#
# Stress axis : x y z
#
# Youngs Moduli (GPa) = 13.09758 40.53487 96.85341
#
# Poissons Ratio (x) = 0.13097 1.19995
# Poissons Ratio (y) = 0.04232 0.79457
# Poissons Ratio (z) = 0.16227 0.33254
#
# Static dielectric constant tensor:
#      x y z
#    x 1.829030 0.000000 0.000000 
#    y 0.000000 1.712550 0.000000 
#    z 0.000000 0.000000 1.703280 
# 
# From -- ./inp_files/54629.got.cif
#   From: 2010.05.17/outbox.cif.g08.bks.cpg/sg65_28_cif.got.tgz:54629.got - 2010.06.03 17:01:31.
