data_PCOD9489548
_publ_section_title
;
Structure prediction by ZEFSAII (Michael W. Deem and Ramdas Pophale) SiO2 
 PCOD9489548
Probable space group: C M M M
;
_chemical_formula_sum "Si O2"
_cell_formula_units_Z 104
_cell_length_a 15.391888
_cell_length_b 17.208528
_cell_length_c 20.634839
_cell_angle_alpha 90.000000
_cell_angle_beta 90.000000
_cell_angle_gamma 90.000000
_cell_volume 5465.585620
_symmetry_space_group_name_H-M "C M M M"
_symmetry_group_IT_number 65
_symmetry_cell_setting 'orthorhombic'
loop_
_space_group_symop_operation_xyz
x,y,z
-x,-y,z
x,-y,-z
-x,y,-z
-x,-y,-z
x,y,-z
-x,y,z
x,-y,z
1/2+x,1/2+y,z
1/2-x,1/2-y,z
1/2+x,1/2-y,-z
1/2-x,1/2+y,-z
1/2-x,1/2-y,-z
1/2+x,1/2+y,-z
1/2-x,1/2+y,z
1/2+x,1/2-y,z
loop_
_atom_site_type_symbol
_atom_site_label
_atom_site_fract_x
_atom_site_fract_y
_atom_site_fract_z
Si Si1 0.269254 0.585906 0.877575
Si Si2 0.598433 0.416650 0.758234
Si Si3 0.100551 0.000000 0.578946
Si Si4 0.096608 0.661966 0.823528
Si Si5 0.605144 0.673927 0.574493
Si Si6 0.352006 0.253345 0.700386
Si Si7 0.902475 0.797453 0.928973
O O1 0.264273 0.500000 0.906356
O O2 0.332904 0.584004 0.815583
O O3 0.175877 0.611179 0.850138
O O4 0.320513 0.645793 0.922888
O O5 0.500000 0.416282 0.783325
O O6 0.609978 0.500000 0.722694
O O7 0.610631 0.337261 0.720444
O O8 0.137830 0.086393 0.593868
O O9 0.097767 0.000000 0.500000
O O10 0.000000 0.000000 0.601308
O O11 0.108092 0.689666 0.748939
O O12 0.101465 0.738530 0.869044
O O13 0.000000 0.628057 0.831534
O O14 0.630684 0.688417 0.500000
O O15 0.500000 0.669547 0.576540
O O16 0.632990 0.742399 0.623380
O O17 0.250000 0.250000 0.713691
O O18 0.000000 0.834347 0.926082
O O19 0.897950 0.758290 0.000000
#
# Coordination Sequence:
#
# PCOD9489548 Si02
#       7
#    16  16   8  16  16  16  16
#     4  11  22  37  56  82 113 144 183 232 279 328
#     4  10  20  34  54  80 109 139 174 221 277 335
#     4   7  12  26  46  70 102 134 166 212 268 327
#     4  11  22  39  58  79 110 149 195 233 269 325
#     4   9  18  31  48  74 107 142 182 226 277 337
#     4  12  21  34  53  78 111 148 185 232 282 332
#     4  10  21  38  61  87 116 149 182 223 278 336
#
# _framework density 19.028153
#
# number of rings (size 3 to 8) (size 9 to 14) (size 15 to 20)
#    0.000    1.769    3.077    3.231    1.077    3.077 
#    0.000    0.769    0.000    0.000    0.000    3.231 
#    0.000    0.000    0.000    5.231    0.000    0.000 
#
# Total GULP energy -289667.748016 kJ/mol
# GULP energy per Si atom -5570.533616 kJ/mol
# Density = 1.898484 g / cm^3
# Si number density = 19.028153 Si / 1000 Ang^3
#
#
#
# Elastic Constant Matrix: (Units=GPa)
#
#
# Indices 1 2 3 4 5 6 
#
# 1 122.7076 17.9314 8.8369 0.0000 0.0000 0.0000
# 2 17.9314 22.9607 -0.4875 0.0000 0.0000 0.0000
# 3 8.8369 -0.4875 72.3190 0.0000 0.0000 0.0000
# 4 0.0000 0.0000 0.0000 8.6073 0.0000 0.0000
# 5 0.0000 0.0000 0.0000 0.0000 21.7422 0.0000
# 6 0.0000 0.0000 0.0000 0.0000 0.0000 12.2175
#
#
#
# Elastic Compliance Matrix: (Units=1/GPa)
#
#
# Indices 1 2 3 4 5 6 
#
# 1 0.009300 -0.007288 -0.001186 0.000000 0.000000 0.000000
# 2 -0.007288 0.049270 0.001223 0.000000 0.000000 0.000000
# 3 -0.001186 0.001223 0.013981 0.000000 0.000000 0.000000
# 4 0.000000 0.000000 0.000000 0.116180 0.000000 0.000000
# 5 0.000000 0.000000 0.000000 0.000000 0.045993 0.000000
# 6 0.000000 0.000000 0.000000 0.000000 0.000000 0.081850
#
#
# Mechanical properties :
#
#
# Convention : Reuss Voigt Hill
#
# Bulk Modulus (GPa) = 17.22679 30.06099 23.64389
# Shear Modulus (GPa) = 14.26835 21.29383 17.78109
#
# Velocity S-wave (km/s) = 2.74132 3.34888 3.06021
# Velocity P-wave (km/s) = 4.36952 5.54849 4.99392
#
# Compressibility (1/GPa) = 0.05804912
#
# Stress axis : x y z
#
# Youngs Moduli (GPa) = 107.52886 20.29627 71.52704
#
# Poissons Ratio (x) = 0.14792 0.08480
# Poissons Ratio (y) = 0.78367 -0.08745
# Poissons Ratio (z) = 0.12748 -0.02482
#
# Static dielectric constant tensor:
#      x y z
#    x 1.657260 0.000000 0.000000 
#    y 0.000000 1.697450 0.000000 
#    z 0.000000 0.000000 1.735080 
# 
# From -- ./inp_files/62828.got.cif
#   From: 2010.05.17/outbox.cif.g08.bks.cpg/sg65_32_cif.got.tgz:62828.got - 2010.06.03 17:01:31.
