data_PCOD9489922
_publ_section_title
;
Structure prediction by ZEFSAII (Michael W. Deem and Ramdas Pophale) SiO2 
 PCOD9489922
Probable space group: C M M M
;
_chemical_formula_sum "Si O2"
_cell_formula_units_Z 100
_cell_length_a 7.745869
_cell_length_b 31.781520
_cell_length_c 21.106388
_cell_angle_alpha 90.000000
_cell_angle_beta 90.000000
_cell_angle_gamma 90.000000
_cell_volume 5195.875419
_symmetry_space_group_name_H-M "C M M M"
_symmetry_group_IT_number 65
_symmetry_cell_setting 'orthorhombic'
loop_
_space_group_symop_operation_xyz
x,y,z
-x,-y,z
x,-y,-z
-x,y,-z
-x,-y,-z
x,y,-z
-x,y,z
x,-y,z
1/2+x,1/2+y,z
1/2-x,1/2-y,z
1/2+x,1/2-y,-z
1/2-x,1/2+y,-z
1/2-x,1/2-y,-z
1/2+x,1/2+y,-z
1/2-x,1/2+y,z
1/2+x,1/2-y,z
loop_
_atom_site_type_symbol
_atom_site_label
_atom_site_fract_x
_atom_site_fract_y
_atom_site_fract_z
Si Si1 0.793389 0.062892 0.223954
Si Si2 0.500000 0.000000 0.180788
Si Si3 0.706505 0.546311 0.373074
Si Si4 0.797605 0.635392 0.570192
Si Si5 0.798923 0.203200 0.325013
Si Si6 0.709567 0.661002 0.800734
Si Si7 0.792090 0.799195 0.069897
O O1 0.761623 0.051801 0.297984
O O2 0.759814 0.112198 0.213711
O O3 0.000000 0.054810 0.211621
O O4 0.654931 0.036167 0.185170
O O5 0.500000 0.546569 0.381614
O O6 0.771946 0.500000 0.392649
O O7 0.774963 0.586991 0.409045
O O8 0.721695 0.641688 0.500000
O O9 0.728470 0.667218 0.622845
O O10 0.000000 0.644035 0.567056
O O11 0.750000 0.250000 0.345799
O O12 0.719639 0.188707 0.257734
O O13 0.000000 0.205262 0.313184
O O14 0.500000 0.665398 0.802608
O O15 0.774575 0.675775 0.869190
O O16 0.750000 0.750000 0.077861
O O17 0.000000 0.803417 0.068741
O O18 0.727520 0.812313 0.000000
#
# Coordination Sequence:
#
# PCOD9489922 Si02
#       7
#    16   4  16  16  16  16  16
#     4  10  20  35  54  83 118 150 190 242 287 345
#     4  12  22  32  56  90 114 156 194 230 304 354
#     4  10  20  36  58  81 110 145 180 226 286 345
#     4  11  25  41  57  79 108 141 184 237 286 340
#     4  11  22  38  59  81 106 142 183 230 284 337
#     4   9  18  34  55  81 116 150 185 233 282 332
#     4   9  17  31  52  80 116 156 191 227 279 340
#
# _framework density 19.246036
#
# number of rings (size 3 to 8) (size 9 to 14) (size 15 to 20)
#    0.000    1.920    2.400    1.680    1.120    2.240 
#    2.880    1.600    0.000    0.000    0.000    1.120 
#    0.000    3.840    0.000    0.000    0.000    0.000 
#
# Total GULP energy -278397.007109 kJ/mol
# GULP energy per Si atom -5567.940142 kJ/mol
# Density = 1.920223 g / cm^3
# Si number density = 19.246036 Si / 1000 Ang^3
#
#
#
# Elastic Constant Matrix: (Units=GPa)
#
#
# Indices 1 2 3 4 5 6 
#
# 1 44.2226 8.8585 1.4004 0.0000 0.0000 0.0000
# 2 8.8585 110.7494 51.2778 0.0000 0.0000 0.0000
# 3 1.4004 51.2778 90.7024 0.0000 0.0000 0.0000
# 4 0.0000 0.0000 0.0000 -21.1154 0.0000 0.0000
# 5 0.0000 0.0000 0.0000 0.0000 41.2797 0.0000
# 6 0.0000 0.0000 0.0000 0.0000 0.0000 36.2515
#
#
#
# Elastic Compliance Matrix: (Units=1/GPa)
#
#
# Indices 1 2 3 4 5 6 
#
# 1 0.023039 -0.002273 0.000929 0.000000 0.000000 0.000000
# 2 -0.002273 0.012455 -0.007006 0.000000 0.000000 0.000000
# 3 0.000929 -0.007006 0.014972 0.000000 0.000000 0.000000
# 4 0.000000 0.000000 0.000000 -0.047359 0.000000 0.000000
# 5 0.000000 0.000000 0.000000 0.000000 0.024225 0.000000
# 6 0.000000 0.000000 0.000000 0.000000 0.000000 0.027585
#
#
# Mechanical properties :
#
#
# Convention : Reuss Voigt Hill
#
# Bulk Modulus (GPa) = 29.61601 40.97197 35.29399
# Shear Modulus (GPa) = 60.33390 23.55902 41.94646
#
# Velocity S-wave (km/s) = 5.60507 3.50251 4.67356
# Velocity P-wave (km/s) = 7.57037 6.13934 6.89210
#
# Compressibility (1/GPa) = 0.03376552
#
# Stress axis : x y z
#
# Youngs Moduli (GPa) = 43.40509 80.28782 66.79273
#
# Poissons Ratio (x) = 0.18250 -0.06208
# Poissons Ratio (y) = 0.09866 0.46797
# Poissons Ratio (z) = -0.04034 0.56252
#
# Static dielectric constant tensor:
#      x y z
#    x 1.775170 0.000000 0.000000 
#    y 0.000000 1.659870 0.000000 
#    z 0.000000 0.000000 1.717510 
# 
# From -- ./inp_files/60812.got.cif
#   From: 2010.05.17/outbox.cif.g08.bks.cpg/sg65_31_cif.got.tgz:60812.got - 2010.06.03 17:01:31.
