data_PCOD9489353
_publ_section_title
;
Structure prediction by ZEFSAII (Michael W. Deem and Ramdas Pophale) SiO2 
 PCOD9489353
Probable space group: C M M M
;
_chemical_formula_sum "Si O2"
_cell_formula_units_Z 88
_cell_length_a 18.442198
_cell_length_b 8.948269
_cell_length_c 29.554000
_cell_angle_alpha 90.000000
_cell_angle_beta 90.000000
_cell_angle_gamma 90.000000
_cell_volume 4877.170976
_symmetry_space_group_name_H-M "C M M M"
_symmetry_group_IT_number 65
_symmetry_cell_setting 'orthorhombic'
loop_
_space_group_symop_operation_xyz
x,y,z
-x,-y,z
x,-y,-z
-x,y,-z
-x,-y,-z
x,y,-z
-x,y,z
x,-y,z
1/2+x,1/2+y,z
1/2-x,1/2-y,z
1/2+x,1/2-y,-z
1/2-x,1/2+y,-z
1/2-x,1/2-y,-z
1/2+x,1/2+y,-z
1/2-x,1/2+y,z
1/2+x,1/2-y,z
loop_
_atom_site_type_symbol
_atom_site_label
_atom_site_fract_x
_atom_site_fract_y
_atom_site_fract_z
Si Si1 0.088324 0.827661 0.500000
Si Si2 0.586992 0.324558 0.051625
Si Si3 0.412744 0.825274 0.406454
Si Si4 0.330557 0.320985 0.223408
Si Si5 0.170060 0.821566 0.323732
Si Si6 0.670009 0.177696 0.867013
O O1 0.111627 0.746265 0.454041
O O2 0.000000 0.824463 0.500000
O O3 0.111088 0.000000 0.500000
O O4 0.500000 0.310655 0.054536
O O5 0.604845 0.500000 0.059114
O O6 0.625004 0.225362 0.089207
O O7 0.608326 0.286362 0.000000
O O8 0.500000 0.811774 0.404268
O O9 0.377768 0.742997 0.363962
O O10 0.394073 0.000000 0.405510
O O11 0.326368 0.500000 0.217586
O O12 0.250000 0.250000 0.225062
O O13 0.361600 0.289435 0.273376
O O14 0.364496 0.246781 0.178918
O O15 0.250000 0.750000 0.326416
O O16 0.176508 0.000000 0.327625
O O17 0.750000 0.250000 0.871406
O O18 0.676007 0.000000 0.862784
#
# Coordination Sequence:
#
# PCOD9489353 Si02
#       6
#     8  16  16  16  16  16
#     4   9  17  31  52  75 100 133 172 211 253 305
#     4   9  19  37  58  77 101 135 171 208 255 309
#     4  10  20  34  53  77 105 136 171 212 256 302
#     4   9  17  31  51  74 101 134 171 210 253 303
#     4  10  20  34  54  78 104 136 172 210 255 306
#     4  11  21  33  53  79 106 135 170 213 255 298
#
# _framework density 18.043247999999998
#
# number of rings (size 3 to 8) (size 9 to 14) (size 15 to 20)
#    0.000    2.273    0.000    5.182    0.000    5.455 
#    0.000    2.273    0.000    1.091    0.000    0.000 
#    0.000    0.000    0.000    0.000    0.000    0.000 
#
# Total GULP energy -245409.904098 kJ/mol
# GULP energy per Si atom -5577.497820 kJ/mol
# Density = 1.800218 g / cm^3
# Si number density = 18.043248 Si / 1000 Ang^3
#
#
#
# Elastic Constant Matrix: (Units=GPa)
#
#
# Indices 1 2 3 4 5 6 
#
# 1 12.3855 30.3075 35.5612 0.0000 0.0000 0.0000
# 2 30.3075 137.6207 100.6440 0.0000 0.0000 0.0000
# 3 35.5612 100.6440 185.8946 0.0000 0.0000 0.0000
# 4 0.0000 0.0000 0.0000 33.5505 0.0000 0.0000
# 5 0.0000 0.0000 0.0000 0.0000 25.4607 0.0000
# 6 0.0000 0.0000 0.0000 0.0000 0.0000 23.4327
#
#
#
# Elastic Compliance Matrix: (Units=1/GPa)
#
#
# Indices 1 2 3 4 5 6 
#
# 1 0.243147 -0.032333 -0.029008 0.000000 0.000000 0.000000
# 2 -0.032333 0.016329 -0.002655 0.000000 0.000000 0.000000
# 3 -0.029008 -0.002655 0.012366 0.000000 0.000000 0.000000
# 4 0.000000 0.000000 0.000000 0.029806 0.000000 0.000000
# 5 0.000000 0.000000 0.000000 0.000000 0.039276 0.000000
# 6 0.000000 0.000000 0.000000 0.000000 0.000000 0.042675
#
#
# Mechanical properties :
#
#
# Convention : Reuss Voigt Hill
#
# Bulk Modulus (GPa) = 6.95173 74.32515 40.63844
# Shear Modulus (GPa) = 8.93588 27.78133 18.35861
#
# Velocity S-wave (km/s) = 2.22783 3.92817 3.19325
# Velocity P-wave (km/s) = 3.23710 7.86487 6.01394
#
# Compressibility (1/GPa) = 0.14384918
#
# Stress axis : x y z
#
# Youngs Moduli (GPa) = 4.11274 61.24224 80.86591
#
# Poissons Ratio (x) = 1.98013 2.34579
# Poissons Ratio (y) = 0.13298 0.21471
# Poissons Ratio (z) = 0.11930 0.16261
#
# Static dielectric constant tensor:
#      x y z
#    x 1.597300 0.000000 0.000000 
#    y 0.000000 1.599880 0.000000 
#    z 0.000000 0.000000 1.645540 
# 
# From -- ./inp_files/77927.got.cif
#   From: 2010.05.17/outbox.cif.g08.bks.cpg/sg65_39_cif.got.tgz:77927.got - 2010.06.03 17:01:31.
