data_PCOD9489031
_publ_section_title
;
Structure prediction by ZEFSAII (Michael W. Deem and Ramdas Pophale) SiO2 
 PCOD9489031
Probable space group: C M M M
;
_chemical_formula_sum "Si O2"
_cell_formula_units_Z 104
_cell_length_a 24.087073
_cell_length_b 9.313850
_cell_length_c 26.126478
_cell_angle_alpha 90.000000
_cell_angle_beta 90.000000
_cell_angle_gamma 90.000000
_cell_volume 5861.302509
_symmetry_space_group_name_H-M "C M M M"
_symmetry_group_IT_number 65
_symmetry_cell_setting 'orthorhombic'
loop_
_space_group_symop_operation_xyz
x,y,z
-x,-y,z
x,-y,-z
-x,y,-z
-x,-y,-z
x,y,-z
-x,y,z
x,-y,z
1/2+x,1/2+y,z
1/2-x,1/2-y,z
1/2+x,1/2-y,-z
1/2-x,1/2+y,-z
1/2-x,1/2-y,-z
1/2+x,1/2+y,-z
1/2-x,1/2+y,z
1/2+x,1/2-y,z
loop_
_atom_site_type_symbol
_atom_site_label
_atom_site_fract_x
_atom_site_fract_y
_atom_site_fract_z
Si Si1 0.379240 0.324575 0.058390
Si Si2 0.000000 0.836954 0.938009
Si Si3 0.690766 0.828057 0.500000
Si Si4 0.345825 0.158959 0.751627
Si Si5 0.191969 0.829160 0.155572
Si Si6 0.250000 0.750000 0.674482
Si Si7 0.434548 0.833296 0.335199
Si Si8 0.652465 0.664600 0.598826
O O1 0.382356 0.500000 0.057255
O O2 0.440606 0.270464 0.074331
O O3 0.336136 0.285531 0.102020
O O4 0.366491 0.279397 0.000000
O O5 0.000000 0.000000 0.917270
O O6 0.000000 0.847086 0.000000
O O7 0.750000 0.750000 0.500000
O O8 0.661825 0.769601 0.551101
O O9 0.695814 0.000000 0.500000
O O10 0.342380 0.277613 0.795249
O O11 0.293081 0.170344 0.712674
O O12 0.401454 0.174041 0.718332
O O13 0.344007 0.000000 0.775041
O O14 0.250000 0.750000 0.160534
O O15 0.198421 0.000000 0.156205
O O16 0.293370 0.671273 0.636343
O O17 0.500000 0.803320 0.331369
O O18 0.400880 0.724576 0.371104
O O19 0.428021 0.000000 0.352977
O O20 0.645569 0.500000 0.582410
#
# Coordination Sequence:
#
# PCOD9489031 Si02
#       8
#    16   8   8  16  16   8  16  16
#     4   8  15  29  49  73 100 132 172 218 269 325
#     4   7  10  22  46  70  93 123 161 209 261 310
#     4  12  24  38  57  86 125 158 190 230 280 334
#     4  10  20  35  56  79 107 143 183 223 270 328
#     4  11  22  34  50  75 107 141 176 220 272 327
#     4  10  20  33  58  82 111 142 184 228 282 328
#     4   9  20  40  62  83 111 149 191 230 275 334
#     4  11  22  36  59  89 120 150 188 235 283 328
#
# _framework density 17.743496
#
# number of rings (size 3 to 8) (size 9 to 14) (size 15 to 20)
#    0.000    2.231    1.538    3.000    0.000    4.308 
#    1.385    0.385    0.000    3.692    0.000    0.000 
#    0.000    7.385    0.000    0.000    0.000    0.000 
#
# Total GULP energy -289678.218424 kJ/mol
# GULP energy per Si atom -5570.734970 kJ/mol
# Density = 1.770311 g / cm^3
# Si number density = 17.743496 Si / 1000 Ang^3
#
#
#
# Elastic Constant Matrix: (Units=GPa)
#
#
# Indices 1 2 3 4 5 6 
#
# 1 100.3718 36.9621 29.9022 0.0000 0.0000 0.0000
# 2 36.9621 92.5980 38.5439 0.0000 0.0000 0.0000
# 3 29.9022 38.5439 79.8562 0.0000 0.0000 0.0000
# 4 0.0000 0.0000 0.0000 -15.1415 0.0000 0.0000
# 5 0.0000 0.0000 0.0000 0.0000 15.7519 0.0000
# 6 0.0000 0.0000 0.0000 0.0000 0.0000 12.6751
#
#
#
# Elastic Compliance Matrix: (Units=1/GPa)
#
#
# Indices 1 2 3 4 5 6 
#
# 1 0.012148 -0.003699 -0.002764 0.000000 0.000000 0.000000
# 2 -0.003699 0.014641 -0.005682 0.000000 0.000000 0.000000
# 3 -0.002764 -0.005682 0.016300 0.000000 0.000000 0.000000
# 4 0.000000 0.000000 0.000000 -0.066044 0.000000 0.000000
# 5 0.000000 0.000000 0.000000 0.000000 0.063484 0.000000
# 6 0.000000 0.000000 0.000000 0.000000 0.000000 0.078895
#
#
# Mechanical properties :
#
#
# Convention : Reuss Voigt Hill
#
# Bulk Modulus (GPa) = 53.18961 53.73803 53.46382
# Shear Modulus (GPa) = 33.33782 13.81827 23.57805
#
# Velocity S-wave (km/s) = 4.33930 2.79369 3.64926
# Velocity P-wave (km/s) = 7.42618 6.38420 6.92482
#
# Compressibility (1/GPa) = 0.01880066
#
# Stress axis : x y z
#
# Youngs Moduli (GPa) = 82.31531 68.30225 61.35089
#
# Poissons Ratio (x) = 0.25264 0.16955
# Poissons Ratio (y) = 0.30447 0.34857
# Poissons Ratio (z) = 0.22749 0.38807
#
# Static dielectric constant tensor:
#      x y z
#    x 1.614540 0.000000 0.000000 
#    y 0.000000 1.607690 0.000000 
#    z 0.000000 0.000000 1.607220 
# 
# From -- ./inp_files/75837.got.cif
#   From: 2010.05.17/outbox.cif.g08.bks.cpg/sg65_38_cif.got.tgz:75837.got - 2010.06.03 17:01:31.
