data_PCOD9489651
_publ_section_title
;
Structure prediction by ZEFSAII (Michael W. Deem and Ramdas Pophale) SiO2 
 PCOD9489651
Probable space group: C M M M
;
_chemical_formula_sum "Si O2"
_cell_formula_units_Z 104
_cell_length_a 18.530579
_cell_length_b 26.487070
_cell_length_c 12.793886
_cell_angle_alpha 90.000000
_cell_angle_beta 90.000000
_cell_angle_gamma 90.000000
_cell_volume 6279.504634
_symmetry_space_group_name_H-M "C M M M"
_symmetry_group_IT_number 65
_symmetry_cell_setting 'orthorhombic'
loop_
_space_group_symop_operation_xyz
x,y,z
-x,-y,z
x,-y,-z
-x,y,-z
-x,-y,-z
x,y,-z
-x,y,z
x,-y,z
1/2+x,1/2+y,z
1/2-x,1/2-y,z
1/2+x,1/2-y,-z
1/2-x,1/2+y,-z
1/2-x,1/2-y,-z
1/2+x,1/2+y,-z
1/2-x,1/2+y,z
1/2+x,1/2-y,z
loop_
_atom_site_type_symbol
_atom_site_label
_atom_site_fract_x
_atom_site_fract_y
_atom_site_fract_z
Si Si1 0.316046 0.289339 0.621563
Si Si2 0.813761 0.791269 0.000000
Si Si3 0.000000 0.559787 0.125870
Si Si4 0.795823 0.133544 0.805338
Si Si5 0.081983 0.940107 0.125047
Si Si6 0.413833 0.200942 0.000000
Si Si7 0.131024 0.629983 0.809024
Si Si8 0.414048 0.800952 0.621138
O O1 0.319711 0.304343 0.500000
O O2 0.250000 0.250000 0.633833
O O3 0.305030 0.335720 0.698209
O O4 0.385131 0.254782 0.648642
O O5 0.750000 0.750000 0.000000
O O6 0.807035 0.826119 0.898567
O O7 0.886176 0.758124 0.000000
O O8 0.071191 0.587015 0.171529
O O9 0.000000 0.500000 0.146300
O O10 0.000000 0.567429 0.000000
O O11 0.856332 0.091153 0.818146
O O12 0.714052 0.113164 0.815402
O O13 0.000000 0.924949 0.153919
O O14 0.088846 0.000000 0.143354
O O15 0.089508 0.932022 0.000000
O O16 0.383579 0.171745 0.101160
O O17 0.500000 0.197721 0.000000
O O18 0.118429 0.658008 0.699161
O O19 0.392795 0.809912 0.500000
O O20 0.500000 0.802978 0.629268
#
# Coordination Sequence:
#
# PCOD9489651 Si02
#       8
#    16   8   8  16  16   8  16  16
#     4  10  20  35  53  80 115 152 189 223 265 320
#     4  12  22  32  47  80 118 142 177 223 276 329
#     4  11  24  40  57  79 109 143 190 243 287 336
#     4  12  22  33  58  85 113 146 185 232 281 331
#     4   9  20  40  61  81 111 146 185 232 286 345
#     4  12  22  34  50  71 108 157 182 208 266 340
#     4  12  20  35  55  77 107 147 184 226 280 334
#     4  10  20  34  55  79 107 151 197 225 260 325
#
# _framework density 16.561816
#
# number of rings (size 3 to 8) (size 9 to 14) (size 15 to 20)
#    0.000    1.154    6.154    1.846    0.000    1.846 
#    0.000    1.538    0.000    1.385    0.000    3.231 
#    0.000    0.000    0.000    0.000    0.000    0.000 
#
# Total GULP energy -290372.124013 kJ/mol
# GULP energy per Si atom -5584.079308 kJ/mol
# Density = 1.652412 g / cm^3
# Si number density = 16.561816 Si / 1000 Ang^3
#
#
#
# Elastic Constant Matrix: (Units=GPa)
#
#
# Indices 1 2 3 4 5 6 
#
# 1 141.6087 64.2512 44.6126 0.0000 0.0000 0.0000
# 2 64.2512 78.0486 39.3981 0.0000 0.0000 0.0000
# 3 44.6126 39.3981 69.2483 0.0000 0.0000 0.0000
# 4 0.0000 0.0000 0.0000 12.8148 0.0000 0.0000
# 5 0.0000 0.0000 0.0000 0.0000 19.1927 0.0000
# 6 0.0000 0.0000 0.0000 0.0000 0.0000 30.6434
#
#
#
# Elastic Compliance Matrix: (Units=1/GPa)
#
#
# Indices 1 2 3 4 5 6 
#
# 1 0.011667 -0.008151 -0.002879 0.000000 0.000000 0.000000
# 2 -0.008151 0.023670 -0.008215 0.000000 0.000000 0.000000
# 3 -0.002879 -0.008215 0.020969 0.000000 0.000000 0.000000
# 4 0.000000 0.000000 0.000000 0.078035 0.000000 0.000000
# 5 0.000000 0.000000 0.000000 0.000000 0.052103 0.000000
# 6 0.000000 0.000000 0.000000 0.000000 0.000000 0.032633
#
#
# Mechanical properties :
#
#
# Convention : Reuss Voigt Hill
#
# Bulk Modulus (GPa) = 56.13086 65.04768 60.58927
# Shear Modulus (GPa) = 18.97478 21.90643 20.44061
#
# Velocity S-wave (km/s) = 3.38848 3.64085 3.51693
# Velocity P-wave (km/s) = 7.01957 7.55217 7.29074
#
# Compressibility (1/GPa) = 0.01781551
#
# Stress axis : x y z
#
# Youngs Moduli (GPa) = 85.71069 42.24761 47.68855
#
# Poissons Ratio (x) = 0.34438 0.13728
# Poissons Ratio (y) = 0.69867 0.39177
# Poissons Ratio (z) = 0.24674 0.34708
#
# Static dielectric constant tensor:
#      x y z
#    x 1.587210 0.000000 0.000000 
#    y 0.000000 1.526360 0.000000 
#    z 0.000000 0.000000 1.542750 
# 
# From -- ./inp_files/27527.got.cif
#   From: 2010.05.17/outbox.cif.g08.bks.cpg/sg65_14_cif.got.tgz:27527.got - 2010.06.03 17:01:31.
