data_PCOD9489715
_publ_section_title
;
Structure prediction by ZEFSAII (Michael W. Deem and Ramdas Pophale) SiO2 
 PCOD9489715
Probable space group: C M M M
;
_chemical_formula_sum "Si O2"
_cell_formula_units_Z 58
_cell_length_a 7.822457
_cell_length_b 16.200077
_cell_length_c 21.662995
_cell_angle_alpha 90.000000
_cell_angle_beta 90.000000
_cell_angle_gamma 90.000000
_cell_volume 2745.230168
_symmetry_space_group_name_H-M "C M M M"
_symmetry_group_IT_number 65
_symmetry_cell_setting 'orthorhombic'
loop_
_space_group_symop_operation_xyz
x,y,z
-x,-y,z
x,-y,-z
-x,y,-z
-x,-y,-z
x,y,-z
-x,y,z
x,-y,z
1/2+x,1/2+y,z
1/2-x,1/2-y,z
1/2+x,1/2-y,-z
1/2-x,1/2+y,-z
1/2-x,1/2-y,-z
1/2+x,1/2+y,-z
1/2-x,1/2+y,z
1/2+x,1/2-y,z
loop_
_atom_site_type_symbol
_atom_site_label
_atom_site_fract_x
_atom_site_fract_y
_atom_site_fract_z
Si Si1 0.794152 0.153264 0.566903
Si Si2 0.802817 0.341614 0.826915
Si Si3 0.689402 0.500000 0.899783
Si Si4 0.500000 0.000000 0.000000
Si Si5 0.706849 0.406151 0.300467
O O1 0.731697 0.121448 0.500000
O O2 0.750000 0.250000 0.569423
O O3 0.731696 0.113535 0.630358
O O4 0.000000 0.144038 0.566739
O O5 0.750000 0.250000 0.847353
O O6 0.703824 0.417315 0.858118
O O7 0.777594 0.348724 0.753206
O O8 0.000000 0.353585 0.842001
O O9 0.500000 0.500000 0.928154
O O10 0.847472 0.500000 0.946627
O O11 0.500000 0.399271 0.299921
O O12 0.753328 0.500000 0.285029
#
# Coordination Sequence:
#
# PCOD9489715 Si02
#       5
#    16  16   8   2  16
#     4   9  18  32  49  72 108 156 214 277 341 412
#     4  12  24  42  69 103 140 182 234 289 345 410
#     4  12  25  49  79 110 150 190 231 281 340 399
#     4  12  26  52  80 114 152 194 232 272 336 406
#     4  10  20  34  55  86 121 166 219 280 349 412
#
# _framework density 21.127555999999998
#
# number of rings (size 3 to 8) (size 9 to 14) (size 15 to 20)
#    0.000    1.379    2.759    3.517    0.000    3.862 
#    0.000    3.448    0.000    0.000    0.000    5.793 
#    0.000    0.000    0.000    0.000    0.000    0.000 
#
# Total GULP energy -161729.780452 kJ/mol
# GULP energy per Si atom -5576.888981 kJ/mol
# Density = 2.107947 g / cm^3
# Si number density = 21.127556 Si / 1000 Ang^3
#
#
#
# Elastic Constant Matrix: (Units=GPa)
#
#
# Indices 1 2 3 4 5 6 
#
# 1 102.6473 21.5924 28.7246 0.0000 0.0000 0.0000
# 2 21.5924 112.5799 36.7351 0.0000 0.0000 0.0000
# 3 28.7246 36.7351 113.5163 0.0000 0.0000 0.0000
# 4 0.0000 0.0000 0.0000 -25.2093 0.0000 0.0000
# 5 0.0000 0.0000 0.0000 0.0000 26.2978 0.0000
# 6 0.0000 0.0000 0.0000 0.0000 0.0000 19.7077
#
#
#
# Elastic Compliance Matrix: (Units=1/GPa)
#
#
# Indices 1 2 3 4 5 6 
#
# 1 0.010652 -0.001301 -0.002275 0.000000 0.000000 0.000000
# 2 -0.001301 0.010090 -0.002936 0.000000 0.000000 0.000000
# 3 -0.002275 -0.002936 0.010335 0.000000 0.000000 0.000000
# 4 0.000000 0.000000 0.000000 -0.039668 0.000000 0.000000
# 5 0.000000 0.000000 0.000000 0.000000 0.038026 0.000000
# 6 0.000000 0.000000 0.000000 0.000000 0.000000 0.050742
#
#
# Mechanical properties :
#
#
# Convention : Reuss Voigt Hill
#
# Bulk Modulus (GPa) = 55.38809 55.87196 55.63002
# Shear Modulus (GPa) = 50.39396 20.27199 35.33298
#
# Velocity S-wave (km/s) = 4.88917 3.10095 4.09389
# Velocity P-wave (km/s) = 7.62529 6.27086 6.98100
#
# Compressibility (1/GPa) = 0.01805442
#
# Stress axis : x y z
#
# Youngs Moduli (GPa) = 93.87694 99.10662 96.75846
#
# Poissons Ratio (x) = 0.12893 0.22008
# Poissons Ratio (y) = 0.12212 0.28409
# Poissons Ratio (z) = 0.21352 0.29099
#
# Static dielectric constant tensor:
#      x y z
#    x 1.770270 0.000000 0.000000 
#    y 0.000000 1.747890 0.000000 
#    z 0.000000 0.000000 1.762730 
# 
# From -- ./inp_files/58629.got.cif
#   From: 2010.05.17/outbox.cif.g08.bks.cpg/sg65_30_cif.got.tgz:58629.got - 2010.06.03 17:01:31.
