data_PCOD9489547
_publ_section_title
;
Structure prediction by ZEFSAII (Michael W. Deem and Ramdas Pophale) SiO2 
 PCOD9489547
Probable space group: C M M M
;
_chemical_formula_sum "Si O2"
_cell_formula_units_Z 72
_cell_length_a 25.927574
_cell_length_b 8.880449
_cell_length_c 17.239788
_cell_angle_alpha 90.000000
_cell_angle_beta 90.000000
_cell_angle_gamma 90.000000
_cell_volume 3969.435303
_symmetry_space_group_name_H-M "C M M M"
_symmetry_group_IT_number 65
_symmetry_cell_setting 'orthorhombic'
loop_
_space_group_symop_operation_xyz
x,y,z
-x,-y,z
x,-y,-z
-x,y,-z
-x,-y,-z
x,y,-z
-x,y,z
x,-y,z
1/2+x,1/2+y,z
1/2-x,1/2-y,z
1/2+x,1/2-y,-z
1/2-x,1/2+y,-z
1/2-x,1/2-y,-z
1/2+x,1/2+y,-z
1/2-x,1/2+y,z
1/2+x,1/2-y,z
loop_
_atom_site_type_symbol
_atom_site_label
_atom_site_fract_x
_atom_site_fract_y
_atom_site_fract_z
Si Si1 0.668774 0.680370 0.084784
Si Si2 0.415278 0.179732 0.300278
Si Si3 0.556013 0.678542 0.862189
Si Si4 0.802592 0.679891 0.248781
Si Si5 0.500000 0.319960 0.409445
O O1 0.677177 0.500000 0.092037
O O2 0.607034 0.707714 0.088486
O O3 0.690883 0.761440 0.160327
O O4 0.687821 0.729490 0.000000
O O5 0.438270 0.230945 0.217593
O O6 0.354760 0.223284 0.294781
O O7 0.449571 0.255505 0.366313
O O8 0.418552 0.000000 0.307518
O O9 0.500000 0.710570 0.897931
O O10 0.557366 0.500000 0.843540
O O11 0.799275 0.500000 0.247740
O O12 0.750000 0.750000 0.280624
O O13 0.500000 0.500000 0.401970
O O14 0.500000 0.279541 0.500000
#
# Coordination Sequence:
#
# PCOD9489547 Si02
#       5
#    16  16  16  16   8
#     4   9  18  31  46  68 100 137 178 225 274 319
#     4  10  20  34  54  80 109 139 174 215 257 306
#     4   9  16  27  46  70  98 136 177 216 262 314
#     4  10  21  36  55  78 102 136 181 225 269 314
#     4  11  23  37  57  87 118 145 170 199 245 304
#
# _framework density 18.138598999999999
#
# number of rings (size 3 to 8) (size 9 to 14) (size 15 to 20)
#    0.000    2.333    1.111    1.667    0.000    4.889 
#    0.000    2.222    0.000    0.667    0.000    6.222 
#    0.000    0.000    0.000    0.000    0.000    0.000 
#
# Total GULP energy -200807.403720 kJ/mol
# GULP energy per Si atom -5577.983437 kJ/mol
# Density = 1.809731 g / cm^3
# Si number density = 18.138599 Si / 1000 Ang^3
#
#
#
# Elastic Constant Matrix: (Units=GPa)
#
#
# Indices 1 2 3 4 5 6 
#
# 1 153.4004 43.5797 44.6071 0.0000 0.0000 0.0000
# 2 43.5797 34.8911 37.5857 0.0000 0.0000 0.0000
# 3 44.6071 37.5857 99.0999 0.0000 0.0000 0.0000
# 4 0.0000 0.0000 0.0000 -0.7172 0.0000 0.0000
# 5 0.0000 0.0000 0.0000 0.0000 16.7028 0.0000
# 6 0.0000 0.0000 0.0000 0.0000 0.0000 27.3679
#
#
#
# Elastic Compliance Matrix: (Units=1/GPa)
#
#
# Indices 1 2 3 4 5 6 
#
# 1 0.010114 -0.013067 0.000403 0.000000 0.000000 0.000000
# 2 -0.013067 0.065342 -0.018901 0.000000 0.000000 0.000000
# 3 0.000403 -0.018901 0.017078 0.000000 0.000000 0.000000
# 4 0.000000 0.000000 0.000000 -1.394327 0.000000 0.000000
# 5 0.000000 0.000000 0.000000 0.000000 0.059870 0.000000
# 6 0.000000 0.000000 0.000000 0.000000 0.000000 0.036539
#
#
# Mechanical properties :
#
#
# Convention : Reuss Voigt Hill
#
# Bulk Modulus (GPa) = 34.00763 59.88182 46.94472
# Shear Modulus (GPa) = -4.41519 19.44531 7.51506
#
# Velocity S-wave (km/s) = -1.56187 3.27775 2.03768
# Velocity P-wave (km/s) = 3.94169 6.88550 5.61012
#
# Compressibility (1/GPa) = 0.02940516
#
# Stress axis : x y z
#
# Youngs Moduli (GPa) = 98.87531 15.30417 58.55614
#
# Poissons Ratio (x) = 0.19998 -0.02363
# Poissons Ratio (y) = 1.29200 1.10674
# Poissons Ratio (z) = -0.03989 0.28926
#
# Static dielectric constant tensor:
#      x y z
#    x 1.672500 0.000000 0.000000 
#    y 0.000000 1.605950 0.000000 
#    z 0.000000 0.000000 1.583540 
# 
# From -- ./inp_files/46499.got.cif
#   From: 2010.05.17/outbox.cif.g08.bks.cpg/sg65_24_cif.got.tgz:46499.got - 2010.06.03 17:01:31.
