data_PCOD9489120
_publ_section_title
;
Structure prediction by ZEFSAII (Michael W. Deem and Ramdas Pophale) SiO2 
 PCOD9489120
Probable space group: C M M M
;
_chemical_formula_sum "Si O2"
_cell_formula_units_Z 64
_cell_length_a 7.936509
_cell_length_b 27.615944
_cell_length_c 18.779335
_cell_angle_alpha 90.000000
_cell_angle_beta 90.000000
_cell_angle_gamma 90.000000
_cell_volume 4115.945502
_symmetry_space_group_name_H-M "C M M M"
_symmetry_group_IT_number 65
_symmetry_cell_setting 'orthorhombic'
loop_
_space_group_symop_operation_xyz
x,y,z
-x,-y,z
x,-y,-z
-x,y,-z
-x,-y,-z
x,y,-z
-x,y,z
x,-y,z
1/2+x,1/2+y,z
1/2-x,1/2-y,z
1/2+x,1/2-y,-z
1/2-x,1/2+y,-z
1/2-x,1/2-y,-z
1/2+x,1/2+y,-z
1/2-x,1/2+y,z
1/2+x,1/2-y,z
loop_
_atom_site_type_symbol
_atom_site_label
_atom_site_fract_x
_atom_site_fract_y
_atom_site_fract_z
Si Si1 0.000000 0.058604 0.580919
Si Si2 0.194426 0.557509 0.683809
Si Si3 0.798024 0.194209 0.917938
Si Si4 0.000000 0.057445 0.920115
Si Si5 0.190233 0.602545 0.162516
O O1 0.832579 0.071516 0.625251
O O2 0.000000 0.077035 0.500000
O O3 0.000000 0.000000 0.577277
O O4 0.219584 0.500000 0.701516
O O5 0.215740 0.589519 0.754688
O O6 0.000000 0.562327 0.659453
O O7 0.750000 0.250000 0.905821
O O8 0.713672 0.158035 0.861846
O O9 0.000000 0.189001 0.913002
O O10 0.747527 0.182340 0.000000
O O11 0.166475 0.074813 0.880487
O O12 0.000000 0.000000 0.922458
O O13 0.000000 0.077518 0.000000
O O14 0.000000 0.586922 0.144516
#
# Coordination Sequence:
#
# PCOD9489120 Si02
#       5
#     8  16  16   8  16
#     4   9  17  29  47  71  99 131 163 197 239 286
#     4   9  18  31  47  69  97 131 166 198 238 289
#     4  10  20  34  51  72  97 127 165 212 264 312
#     4  11  23  35  47  67  95 129 173 217 252 295
#     4  11  21  34  52  71  96 132 168 210 254 304
#
# _framework density 15.549283000000001
#
# number of rings (size 3 to 8) (size 9 to 14) (size 15 to 20)
#    0.000    2.000    1.250    3.000    0.000    6.000 
#    0.000    3.750    0.000    0.000    0.000    0.000 
#    0.000    1.000    0.500    0.000    0.000    0.000 
#
# Total GULP energy -178476.571893 kJ/mol
# GULP energy per Si atom -5577.392872 kJ/mol
# Density = 1.551389 g / cm^3
# Si number density = 15.549283 Si / 1000 Ang^3
#
#
#
# Elastic Constant Matrix: (Units=GPa)
#
#
# Indices 1 2 3 4 5 6 
#
# 1 126.5153 30.6454 87.7455 0.0000 0.0000 0.0000
# 2 30.6454 63.9116 43.1974 0.0000 0.0000 0.0000
# 3 87.7455 43.1974 115.3554 0.0000 0.0000 0.0000
# 4 0.0000 0.0000 0.0000 18.6514 0.0000 0.0000
# 5 0.0000 0.0000 0.0000 0.0000 26.3195 0.0000
# 6 0.0000 0.0000 0.0000 0.0000 0.0000 -91.8108
#
#
#
# Elastic Compliance Matrix: (Units=1/GPa)
#
#
# Indices 1 2 3 4 5 6 
#
# 1 0.016759 0.000777 -0.013039 0.000000 0.000000 0.000000
# 2 0.000777 0.020985 -0.008449 0.000000 0.000000 0.000000
# 3 -0.013039 -0.008449 0.021751 0.000000 0.000000 0.000000
# 4 0.000000 0.000000 0.000000 0.053615 0.000000 0.000000
# 5 0.000000 0.000000 0.000000 0.000000 0.037995 0.000000
# 6 0.000000 0.000000 0.000000 0.000000 0.000000 -0.010892
#
#
# Mechanical properties :
#
#
# Convention : Reuss Voigt Hill
#
# Bulk Modulus (GPa) = 55.33230 69.88433 62.60832
# Shear Modulus (GPa) = 26.64399 0.24494 13.44446
#
# Velocity S-wave (km/s) = 4.14396 0.39732 2.94366
# Velocity P-wave (km/s) = 7.65238 6.72695 7.20454
#
# Compressibility (1/GPa) = 0.01807263
#
# Stress axis : x y z
#
# Youngs Moduli (GPa) = 59.66878 47.65341 45.97507
#
# Poissons Ratio (x) = -0.03702 0.59946
# Poissons Ratio (y) = -0.04636 0.38845
# Poissons Ratio (z) = 0.77801 0.40263
#
# Static dielectric constant tensor:
#      x y z
#    x 1.537230 0.000000 0.000000 
#    y 0.000000 1.518290 0.000000 
#    z 0.000000 0.000000 1.501890 
# 
# From -- ./inp_files/36381.got.cif
#   From: 2010.05.17/outbox.cif.g08.bks.cpg/sg65_19_cif.got.tgz:36381.got - 2010.06.03 17:01:31.
