data_PCOD9489909
_publ_section_title
;
Structure prediction by ZEFSAII (Michael W. Deem and Ramdas Pophale) SiO2 
 PCOD9489909
Probable space group: C M M M
;
_chemical_formula_sum "Si O2"
_cell_formula_units_Z 80
_cell_length_a 7.786296
_cell_length_b 18.942168
_cell_length_c 28.507199
_cell_angle_alpha 90.000000
_cell_angle_beta 90.000000
_cell_angle_gamma 90.000000
_cell_volume 4204.507593
_symmetry_space_group_name_H-M "C M M M"
_symmetry_group_IT_number 65
_symmetry_cell_setting 'orthorhombic'
loop_
_space_group_symop_operation_xyz
x,y,z
-x,-y,z
x,-y,-z
-x,y,-z
-x,-y,-z
x,y,-z
-x,y,z
x,-y,z
1/2+x,1/2+y,z
1/2-x,1/2-y,z
1/2+x,1/2-y,-z
1/2-x,1/2+y,-z
1/2-x,1/2-y,-z
1/2+x,1/2+y,-z
1/2-x,1/2+y,z
1/2+x,1/2-y,z
loop_
_atom_site_type_symbol
_atom_site_label
_atom_site_fract_x
_atom_site_fract_y
_atom_site_fract_z
Si Si1 0.206089 0.168383 0.715755
Si Si2 0.798771 0.915154 0.375965
Si Si3 0.792768 0.667735 0.000000
Si Si4 0.000000 0.585881 0.553579
Si Si5 0.795107 0.168291 0.179579
Si Si6 0.704751 0.079720 0.910900
O O1 0.250000 0.250000 0.706713
O O2 0.262122 0.120110 0.672618
O O3 0.272424 0.150790 0.768048
O O4 0.000000 0.161766 0.717578
O O5 0.670147 0.893317 0.417468
O O6 0.000000 0.896554 0.384376
O O7 0.790868 0.000000 0.371500
O O8 0.750000 0.750000 0.000000
O O9 0.727770 0.627820 0.046526
O O10 0.000000 0.663397 0.000000
O O11 0.000000 0.500000 0.552316
O O12 0.000000 0.611040 0.500000
O O13 0.750000 0.250000 0.169768
O O14 0.732550 0.117795 0.138573
O O15 0.000000 0.163054 0.180687
O O16 0.500000 0.074797 0.917779
O O17 0.774557 0.000000 0.911638
#
# Coordination Sequence:
#
# PCOD9489909 Si02
#       6
#    16  16   8   8  16  16
#     4   9  19  33  52  77 103 139 176 212 262 316
#     4   9  18  33  52  77 107 139 178 223 271 321
#     4  10  21  37  57  77 101 136 177 220 266 316
#     4   9  18  32  52  80 108 138 179 224 272 322
#     4  10  20  35  54  77 107 138 175 218 262 317
#     4  10  21  37  55  77 105 138 175 217 268 320
#
# _framework density 19.027197000000001
#
# number of rings (size 3 to 8) (size 9 to 14) (size 15 to 20)
#    0.000    2.500    0.000    1.500    1.400    6.000 
#    0.000    4.000    0.000    2.400    0.000    0.000 
#    0.000    0.000    0.000    0.000    0.000    0.000 
#
# Total GULP energy -223122.119742 kJ/mol
# GULP energy per Si atom -5578.052994 kJ/mol
# Density = 1.898389 g / cm^3
# Si number density = 19.027197 Si / 1000 Ang^3
#
#
#
# Elastic Constant Matrix: (Units=GPa)
#
#
# Indices 1 2 3 4 5 6 
#
# 1 51.9088 24.8125 44.8114 0.0000 0.0000 0.0000
# 2 24.8125 92.2089 95.7506 0.0000 0.0000 0.0000
# 3 44.8114 95.7506 185.9495 0.0000 0.0000 0.0000
# 4 0.0000 0.0000 0.0000 27.5753 0.0000 0.0000
# 5 0.0000 0.0000 0.0000 0.0000 25.4008 0.0000
# 6 0.0000 0.0000 0.0000 0.0000 0.0000 17.8223
#
#
#
# Elastic Compliance Matrix: (Units=1/GPa)
#
#
# Indices 1 2 3 4 5 6 
#
# 1 0.024367 -0.000987 -0.005364 0.000000 0.000000 0.000000
# 2 -0.000987 0.023348 -0.011785 0.000000 0.000000 0.000000
# 3 -0.005364 -0.011785 0.012739 0.000000 0.000000 0.000000
# 4 0.000000 0.000000 0.000000 0.036264 0.000000 0.000000
# 5 0.000000 0.000000 0.000000 0.000000 0.039369 0.000000
# 6 0.000000 0.000000 0.000000 0.000000 0.000000 0.056110
#
#
# Mechanical properties :
#
#
# Convention : Reuss Voigt Hill
#
# Bulk Modulus (GPa) = 41.35251 73.42403 57.38827
# Shear Modulus (GPa) = 21.13921 25.13920 23.13920
#
# Velocity S-wave (km/s) = 3.33678 3.63881 3.49106
# Velocity P-wave (km/s) = 6.05195 7.50515 6.81738
#
# Compressibility (1/GPa) = 0.02418233
#
# Stress axis : x y z
#
# Youngs Moduli (GPa) = 41.03950 42.83075 78.50153
#
# Poissons Ratio (x) = 0.04227 0.42107
# Poissons Ratio (y) = 0.04051 0.92510
# Poissons Ratio (z) = 0.22013 0.50474
#
# Static dielectric constant tensor:
#      x y z
#    x 1.688910 0.000000 0.000000 
#    y 0.000000 1.633030 0.000000 
#    z 0.000000 0.000000 1.667800 
# 
# From -- ./inp_files/72894.got.cif
#   From: 2010.05.17/outbox.cif.g08.bks.cpg/sg65_37_cif.got.tgz:72894.got - 2010.06.03 17:01:31.
