data_PCOD9489221
_publ_section_title
;
Structure prediction by ZEFSAII (Michael W. Deem and Ramdas Pophale) SiO2 
 PCOD9489221
Probable space group: C M M M
;
_chemical_formula_sum "Si O2"
_cell_formula_units_Z 80
_cell_length_a 17.182315
_cell_length_b 9.135168
_cell_length_c 26.792655
_cell_angle_alpha 90.000000
_cell_angle_beta 90.000000
_cell_angle_gamma 90.000000
_cell_volume 4205.464460
_symmetry_space_group_name_H-M "C M M M"
_symmetry_group_IT_number 65
_symmetry_cell_setting 'orthorhombic'
loop_
_space_group_symop_operation_xyz
x,y,z
-x,-y,z
x,-y,-z
-x,y,-z
-x,-y,-z
x,y,-z
-x,y,z
x,-y,z
1/2+x,1/2+y,z
1/2-x,1/2-y,z
1/2+x,1/2-y,-z
1/2-x,1/2+y,-z
1/2-x,1/2-y,-z
1/2+x,1/2+y,-z
1/2-x,1/2+y,z
1/2+x,1/2-y,z
loop_
_atom_site_type_symbol
_atom_site_label
_atom_site_fract_x
_atom_site_fract_y
_atom_site_fract_z
Si Si1 0.595140 0.831034 0.298054
Si Si2 0.406426 0.667109 0.801997
Si Si3 0.088508 0.322360 0.000000
Si Si4 0.404913 0.668915 0.600934
Si Si5 0.166448 0.323780 0.104490
Si Si6 0.595105 0.831066 0.500000
O O1 0.500000 0.829786 0.297917
O O2 0.621224 0.742414 0.249229
O O3 0.620040 0.753884 0.349310
O O4 0.619543 0.000000 0.296001
O O5 0.500000 0.661787 0.799511
O O6 0.377558 0.500000 0.806479
O O7 0.383227 0.762607 0.849575
O O8 0.130477 0.278916 0.948947
O O9 0.086992 0.500000 0.000000
O O10 0.000000 0.269303 0.000000
O O11 0.500000 0.670122 0.600879
O O12 0.380487 0.500000 0.601905
O O13 0.379743 0.748822 0.550249
O O14 0.170552 0.500000 0.106390
O O15 0.250000 0.250000 0.108768
O O16 0.500000 0.829633 0.500000
O O17 0.619433 0.000000 0.500000
#
# Coordination Sequence:
#
# PCOD9489221 Si02
#       6
#    16  16   8  16  16   8
#     4   9  16  26  41  61  85 116 156 201 249 301
#     4  10  20  34  52  75 102 132 170 215 260 308
#     4   9  19  36  59  85 110 139 176 215 254 300
#     4   9  15  22  32  48  73 107 148 195 246 298
#     4  11  22  37  57  80 109 142 175 212 256 306
#     4   9  15  21  29  43  67 103 148 195 242 297
#
# _framework density 19.022867999999999
#
# number of rings (size 3 to 8) (size 9 to 14) (size 15 to 20)
#    0.000    2.400    0.000    3.600    0.000    8.000 
#    0.000    1.500    0.000    3.600    0.000    0.000 
#    0.000    0.000    0.000    0.900    0.000   13.600 
#
# Total GULP energy -223235.000091 kJ/mol
# GULP energy per Si atom -5580.875002 kJ/mol
# Density = 1.897957 g / cm^3
# Si number density = 19.022868 Si / 1000 Ang^3
#
#
#
# Elastic Constant Matrix: (Units=GPa)
#
#
# Indices 1 2 3 4 5 6 
#
# 1 9.3414 14.6305 12.1309 0.0000 0.0000 0.0000
# 2 14.6305 151.5256 90.1524 0.0000 0.0000 0.0000
# 3 12.1309 90.1524 192.0820 0.0000 0.0000 0.0000
# 4 0.0000 0.0000 0.0000 47.5979 0.0000 0.0000
# 5 0.0000 0.0000 0.0000 0.0000 -12.6148 0.0000
# 6 0.0000 0.0000 0.0000 0.0000 0.0000 11.1351
#
#
#
# Elastic Compliance Matrix: (Units=1/GPa)
#
#
# Indices 1 2 3 4 5 6 
#
# 1 0.127486 -0.010432 -0.003155 0.000000 0.000000 0.000000
# 2 -0.010432 0.010010 -0.004039 0.000000 0.000000 0.000000
# 3 -0.003155 -0.004039 0.007301 0.000000 0.000000 0.000000
# 4 0.000000 0.000000 0.000000 0.021009 0.000000 0.000000
# 5 0.000000 0.000000 0.000000 0.000000 -0.079272 0.000000
# 6 0.000000 0.000000 0.000000 0.000000 0.000000 0.089806
#
#
# Mechanical properties :
#
#
# Convention : Reuss Voigt Hill
#
# Bulk Modulus (GPa) = 9.12873 65.19742 37.16307
# Shear Modulus (GPa) = 20.15240 24.95930 22.55585
#
# Velocity S-wave (km/s) = 3.25834 3.62618 3.44717
# Velocity P-wave (km/s) = 4.35487 7.20276 5.95167
#
# Compressibility (1/GPa) = 0.10954427
#
# Stress axis : x y z
#
# Youngs Moduli (GPa) = 7.84398 99.89935 136.96386
#
# Poissons Ratio (x) = 1.04217 0.43213
# Poissons Ratio (y) = 0.08183 0.55324
# Poissons Ratio (z) = 0.02475 0.40352
#
# Static dielectric constant tensor:
#      x y z
#    x 1.669850 0.000000 0.000000 
#    y 0.000000 1.643270 0.000000 
#    z 0.000000 0.000000 1.656680 
# 
# From -- ./inp_files/70776.got.cif
#   From: 2010.05.17/outbox.cif.g08.bks.cpg/sg65_36_cif.got.tgz:70776.got - 2010.06.03 17:01:31.
