data_PCOD9489336
_publ_section_title
;
Structure prediction by ZEFSAII (Michael W. Deem and Ramdas Pophale) SiO2 
 PCOD9489336
Probable space group: C M M M
;
_chemical_formula_sum "Si O2"
_cell_formula_units_Z 88
_cell_length_a 14.448311
_cell_length_b 9.443865
_cell_length_c 29.422257
_cell_angle_alpha 90.000000
_cell_angle_beta 90.000000
_cell_angle_gamma 90.000000
_cell_volume 4014.605139
_symmetry_space_group_name_H-M "C M M M"
_symmetry_group_IT_number 65
_symmetry_cell_setting 'orthorhombic'
loop_
_space_group_symop_operation_xyz
x,y,z
-x,-y,z
x,-y,-z
-x,y,-z
-x,-y,-z
x,y,-z
-x,y,z
x,-y,z
1/2+x,1/2+y,z
1/2-x,1/2-y,z
1/2+x,1/2-y,-z
1/2-x,1/2+y,-z
1/2-x,1/2-y,-z
1/2+x,1/2+y,-z
1/2-x,1/2+y,z
1/2+x,1/2-y,z
loop_
_atom_site_type_symbol
_atom_site_label
_atom_site_fract_x
_atom_site_fract_y
_atom_site_fract_z
Si Si1 0.152821 0.670355 0.000000
Si Si2 0.112759 0.337502 0.725231
Si Si3 0.386687 0.339233 0.361987
Si Si4 0.891934 0.842138 0.088363
Si Si5 0.112801 0.663267 0.550458
Si Si6 0.386822 0.163312 0.172721
O O1 0.250000 0.750000 0.000000
O O2 0.111113 0.734672 0.046099
O O3 0.153630 0.500000 0.000000
O O4 0.142135 0.500000 0.718186
O O5 0.142494 0.239464 0.683941
O O6 0.140006 0.292941 0.776170
O O7 0.000000 0.337909 0.724774
O O8 0.500000 0.339862 0.361989
O O9 0.354550 0.500000 0.362536
O O10 0.357475 0.257527 0.407351
O O11 0.853380 0.767565 0.133335
O O12 0.000000 0.861728 0.097445
O O13 0.852292 0.000000 0.078351
O O14 0.140231 0.713461 0.500000
O O15 0.141969 0.500000 0.555940
O O16 0.000000 0.662764 0.551017
O O17 0.500000 0.162126 0.171647
O O18 0.358081 0.000000 0.164942
#
# Coordination Sequence:
#
# PCOD9489336 Si02
#       6
#     8  16  16  16  16  16
#     4  12  25  40  57  75  99 129 161 196 233 274
#     4   8  13  21  32  45  64  90 118 149 187 236
#     4   9  15  19  24  36  53  73  99 135 182 234
#     4  10  20  34  53  77 103 128 156 191 230 274
#     4   8  13  20  27  32  40  60  93 132 175 226
#     4   8  14  25  41  61  83 108 139 172 208 252
#
# _framework density 21.919962999999999
#
# number of rings (size 3 to 8) (size 9 to 14) (size 15 to 20)
#    0.000    3.091    0.000    3.818    0.000    5.455 
#    0.000    5.455    0.000    0.000    0.000    0.000 
#    0.000    0.000    0.000    0.000    0.000    0.000 
#
# Total GULP energy -245561.489279 kJ/mol
# GULP energy per Si atom -5580.942938 kJ/mol
# Density = 2.187007 g / cm^3
# Si number density = 21.919963 Si / 1000 Ang^3
#
#
#
# Elastic Constant Matrix: (Units=GPa)
#
#
# Indices 1 2 3 4 5 6 
#
# 1 56.5352 11.1912 3.1399 0.0000 0.0000 0.0000
# 2 11.1912 176.6339 152.4112 0.0000 0.0000 0.0000
# 3 3.1399 152.4112 232.7981 0.0000 0.0000 0.0000
# 4 0.0000 0.0000 0.0000 55.1593 0.0000 0.0000
# 5 0.0000 0.0000 0.0000 0.0000 -75.1720 0.0000
# 6 0.0000 0.0000 0.0000 0.0000 0.0000 2.2745
#
#
#
# Elastic Compliance Matrix: (Units=1/GPa)
#
#
# Indices 1 2 3 4 5 6 
#
# 1 0.018048 -0.002145 0.001161 0.000000 0.000000 0.000000
# 2 -0.002145 0.013267 -0.008657 0.000000 0.000000 0.000000
# 3 0.001161 -0.008657 0.009948 0.000000 0.000000 0.000000
# 4 0.000000 0.000000 0.000000 0.018129 0.000000 0.000000
# 5 0.000000 0.000000 0.000000 0.000000 -0.013303 0.000000
# 6 0.000000 0.000000 0.000000 0.000000 0.000000 0.439658
#
#
# Mechanical properties :
#
#
# Convention : Reuss Voigt Hill
#
# Bulk Modulus (GPa) = 45.49481 88.82799 67.16140
# Shear Modulus (GPa) = 9.75882 16.40068 13.07975
#
# Velocity S-wave (km/s) = 2.11227 2.73831 2.44540
# Velocity P-wave (km/s) = 5.17194 7.11404 6.21926
#
# Compressibility (1/GPa) = 0.02198053
#
# Stress axis : x y z
#
# Youngs Moduli (GPa) = 55.40690 75.37403 100.52707
#
# Poissons Ratio (x) = 0.16171 -0.11673
# Poissons Ratio (y) = 0.11887 0.87026
# Poissons Ratio (z) = -0.06434 0.65251
#
# Static dielectric constant tensor:
#      x y z
#    x 2.189340 0.000000 0.000000 
#    y 0.000000 1.748250 0.000000 
#    z 0.000000 0.000000 1.831370 
# 
# From -- ./inp_files/77942.got.cif
#   From: 2010.05.17/outbox.cif.g08.bks.cpg/sg65_39_cif.got.tgz:77942.got - 2010.06.03 17:01:31.
