data_PCOD9489418
_publ_section_title
;
Structure prediction by ZEFSAII (Michael W. Deem and Ramdas Pophale) SiO2 
 PCOD9489418
Probable space group: C M M M
;
_chemical_formula_sum "Si O2"
_cell_formula_units_Z 58
_cell_length_a 19.779538
_cell_length_b 7.867999
_cell_length_c 18.246998
_cell_angle_alpha 90.000000
_cell_angle_beta 90.000000
_cell_angle_gamma 90.000000
_cell_volume 2839.696093
_symmetry_space_group_name_H-M "C M M M"
_symmetry_group_IT_number 65
_symmetry_cell_setting 'orthorhombic'
loop_
_space_group_symop_operation_xyz
x,y,z
-x,-y,z
x,-y,-z
-x,y,-z
-x,-y,-z
x,y,-z
-x,y,z
x,-y,z
1/2+x,1/2+y,z
1/2-x,1/2-y,z
1/2+x,1/2-y,-z
1/2-x,1/2+y,-z
1/2-x,1/2-y,-z
1/2+x,1/2+y,-z
1/2-x,1/2+y,z
1/2+x,1/2-y,z
loop_
_atom_site_type_symbol
_atom_site_label
_atom_site_fract_x
_atom_site_fract_y
_atom_site_fract_z
Si Si1 0.826042 0.702724 0.916721
Si Si2 0.359486 0.310753 0.500000
Si Si3 0.423701 0.703283 0.786476
Si Si4 0.325729 0.294330 0.659136
Si Si5 0.000000 0.000000 0.500000
O O1 0.830175 0.500000 0.918912
O O2 0.750000 0.750000 0.892891
O O3 0.881665 0.765778 0.860172
O O4 0.835229 0.768782 0.000000
O O5 0.325515 0.500000 0.500000
O O6 0.338941 0.228595 0.576773
O O7 0.439255 0.355015 0.500000
O O8 0.500000 0.771349 0.789508
O O9 0.428383 0.500000 0.777077
O O10 0.380251 0.769812 0.717795
O O11 0.332596 0.500000 0.656660
O O12 0.250000 0.250000 0.682457
#
# Coordination Sequence:
#
# PCOD9489418 Si02
#       5
#    16   8  16  16   2
#     4  10  21  38  60  83 108 140 179 222 270 326
#     4   8  17  29  53  79 105 135 178 222 267 310
#     4  10  22  36  54  80 111 145 182 225 272 323
#     4  10  20  34  53  79 109 141 181 226 269 317
#     4   8  16  28  56  84 102 136 176 236 262 316
#
# _framework density 20.424721999999999
#
# number of rings (size 3 to 8) (size 9 to 14) (size 15 to 20)
#    0.414    1.931    0.000    2.069    1.931    6.069 
#    0.000    2.759    0.000    0.000    0.000    0.966 
#    0.000    0.000    0.000    0.000    0.000    0.000 
#
# Total GULP energy -161525.265105 kJ/mol
# GULP energy per Si atom -5569.836728 kJ/mol
# Density = 2.037823 g / cm^3
# Si number density = 20.424722 Si / 1000 Ang^3
#
#
#
# Elastic Constant Matrix: (Units=GPa)
#
#
# Indices 1 2 3 4 5 6 
#
# 1 197.6658 4.3123 109.6333 0.0000 0.0000 0.0000
# 2 4.3123 24.0396 5.8213 0.0000 0.0000 0.0000
# 3 109.6333 5.8213 141.3192 0.0000 0.0000 0.0000
# 4 0.0000 0.0000 0.0000 65.4789 0.0000 0.0000
# 5 0.0000 0.0000 0.0000 0.0000 -14.4970 0.0000
# 6 0.0000 0.0000 0.0000 0.0000 0.0000 21.8436
#
#
#
# Elastic Compliance Matrix: (Units=1/GPa)
#
#
# Indices 1 2 3 4 5 6 
#
# 1 0.008880 0.000076 -0.006892 0.000000 0.000000 0.000000
# 2 0.000076 0.042018 -0.001790 0.000000 0.000000 0.000000
# 3 -0.006892 -0.001790 0.012497 0.000000 0.000000 0.000000
# 4 0.000000 0.000000 0.000000 0.015272 0.000000 0.000000
# 5 0.000000 0.000000 0.000000 0.000000 -0.068980 0.000000
# 6 0.000000 0.000000 0.000000 0.000000 0.000000 0.045780
#
#
# Mechanical properties :
#
#
# Convention : Reuss Voigt Hill
#
# Bulk Modulus (GPa) = 21.65309 66.95092 44.30201
# Shear Modulus (GPa) = 56.77110 30.78229 43.77670
#
# Velocity S-wave (km/s) = 5.27784 3.88636 4.63462
# Velocity P-wave (km/s) = 6.91124 7.27935 7.09768
#
# Compressibility (1/GPa) = 0.04618278
#
# Stress axis : x y z
#
# Youngs Moduli (GPa) = 112.61222 23.79943 80.02103
#
# Poissons Ratio (x) = -0.00181 0.55152
# Poissons Ratio (y) = -0.00856 0.14322
# Poissons Ratio (z) = 0.77614 0.04260
#
# Static dielectric constant tensor:
#      x y z
#    x 1.771540 0.000000 0.000000 
#    y 0.000000 1.241960 0.000000 
#    z 0.000000 0.000000 1.755020 
# 
# From -- ./inp_files/53943.got.cif
#   From: 2010.05.17/outbox.cif.g08.bks.cpg/sg65_27_cif.got.tgz:53943.got - 2010.06.03 17:01:31.
