data_PCOD9489603
_publ_section_title
;
Structure prediction by ZEFSAII (Michael W. Deem and Ramdas Pophale) SiO2 
 PCOD9489603
Probable space group: C M M M
;
_chemical_formula_sum "Si O2"
_cell_formula_units_Z 72
_cell_length_a 18.023775
_cell_length_b 9.025105
_cell_length_c 23.862915
_cell_angle_alpha 90.000000
_cell_angle_beta 90.000000
_cell_angle_gamma 90.000000
_cell_volume 3881.695953
_symmetry_space_group_name_H-M "C M M M"
_symmetry_group_IT_number 65
_symmetry_cell_setting 'orthorhombic'
loop_
_space_group_symop_operation_xyz
x,y,z
-x,-y,z
x,-y,-z
-x,y,-z
-x,-y,-z
x,y,-z
-x,y,z
x,-y,z
1/2+x,1/2+y,z
1/2-x,1/2-y,z
1/2+x,1/2-y,-z
1/2-x,1/2+y,-z
1/2-x,1/2-y,-z
1/2+x,1/2+y,-z
1/2-x,1/2+y,z
1/2+x,1/2-y,z
loop_
_atom_site_type_symbol
_atom_site_label
_atom_site_fract_x
_atom_site_fract_y
_atom_site_fract_z
Si Si1 0.410433 0.672861 0.823870
Si Si2 0.912029 0.176822 0.615384
Si Si3 0.169168 0.676540 0.719961
Si Si4 0.330610 0.678052 0.500000
Si Si5 0.409828 0.172604 0.062239
O O1 0.500000 0.687616 0.820414
O O2 0.392147 0.500000 0.816455
O O3 0.373214 0.768377 0.775396
O O4 0.385995 0.729943 0.885132
O O5 0.875445 0.265460 0.665993
O O6 0.875021 0.218572 0.556241
O O7 0.000000 0.201580 0.613377
O O8 0.899950 0.000000 0.624241
O O9 0.175050 0.500000 0.719239
O O10 0.250000 0.750000 0.718966
O O11 0.323306 0.500000 0.500000
O O12 0.250000 0.750000 0.500000
O O13 0.500000 0.177463 0.061634
O O14 0.389310 0.000000 0.070164
O O15 0.384924 0.220479 0.000000
#
# Coordination Sequence:
#
# PCOD9489603 Si02
#       5
#    16  16  16   8  16
#     4  10  20  34  54  81 112 145 183 228 277 330
#     4  10  21  39  62  87 116 149 187 230 276 327
#     4  12  25  40  58  80 109 145 186 231 281 336
#     4  10  21  37  59  87 119 156 191 226 272 324
#     4   8  14  26  46  74 108 144 182 225 272 322
#
# _framework density 18.548591999999999
#
# number of rings (size 3 to 8) (size 9 to 14) (size 15 to 20)
#    0.000    2.000    0.000    5.000    0.000    8.889 
#    0.000    2.222    0.000    2.667    0.000    0.000 
#    0.000    0.000    0.000    0.000    0.000    0.000 
#
# Total GULP energy -201064.482494 kJ/mol
# GULP energy per Si atom -5585.124514 kJ/mol
# Density = 1.850638 g / cm^3
# Si number density = 18.548592 Si / 1000 Ang^3
#
#
#
# Elastic Constant Matrix: (Units=GPa)
#
#
# Indices 1 2 3 4 5 6 
#
# 1 70.4229 64.8992 63.9119 0.0000 0.0000 0.0000
# 2 64.8992 114.8050 94.9039 0.0000 0.0000 0.0000
# 3 63.9119 94.9039 181.5200 0.0000 0.0000 0.0000
# 4 0.0000 0.0000 0.0000 470.4629 0.0000 0.0000
# 5 0.0000 0.0000 0.0000 0.0000 -40.9804 0.0000
# 6 0.0000 0.0000 0.0000 0.0000 0.0000 27.4681
#
#
#
# Elastic Compliance Matrix: (Units=1/GPa)
#
#
# Indices 1 2 3 4 5 6 
#
# 1 0.030568 -0.014764 -0.003044 0.000000 0.000000 0.000000
# 2 -0.014764 0.022471 -0.006550 0.000000 0.000000 0.000000
# 3 -0.003044 -0.006550 0.010005 0.000000 0.000000 0.000000
# 4 0.000000 0.000000 0.000000 0.002126 0.000000 0.000000
# 5 0.000000 0.000000 0.000000 0.000000 -0.024402 0.000000
# 6 0.000000 0.000000 0.000000 0.000000 0.000000 0.036406
#
#
# Mechanical properties :
#
#
# Convention : Reuss Voigt Hill
#
# Bulk Modulus (GPa) = 69.79001 90.46418 80.12709
# Shear Modulus (GPa) = 38.26503 100.92566 69.59535
#
# Velocity S-wave (km/s) = 4.54691 7.38442 6.13205
# Velocity P-wave (km/s) = 8.07917 11.02649 9.66583
#
# Compressibility (1/GPa) = 0.01432870
#
# Stress axis : x y z
#
# Youngs Moduli (GPa) = 32.71356 44.50090 99.94534
#
# Poissons Ratio (x) = 0.65702 0.30421
# Poissons Ratio (y) = 0.48299 0.65468
# Poissons Ratio (z) = 0.09957 0.29150
#
# Static dielectric constant tensor:
#      x y z
#    x 1.617810 0.000000 0.000000 
#    y 0.000000 1.620630 0.000000 
#    z 0.000000 0.000000 1.630600 
# 
# From -- ./inp_files/64374.got.cif
#   From: 2010.05.17/outbox.cif.g08.bks.cpg/sg65_33_cif.got.tgz:64374.got - 2010.06.03 17:01:31.
