data_PCOD9489825
_publ_section_title
;
Structure prediction by ZEFSAII (Michael W. Deem and Ramdas Pophale) SiO2 
 PCOD9489825
Probable space group: C M M M
;
_chemical_formula_sum "Si O2"
_cell_formula_units_Z 104
_cell_length_a 33.328503
_cell_length_b 20.862300
_cell_length_c 8.471693
_cell_angle_alpha 90.000000
_cell_angle_beta 90.000000
_cell_angle_gamma 90.000000
_cell_volume 5890.446321
_symmetry_space_group_name_H-M "C M M M"
_symmetry_group_IT_number 65
_symmetry_cell_setting 'orthorhombic'
loop_
_space_group_symop_operation_xyz
x,y,z
-x,-y,z
x,-y,-z
-x,y,-z
-x,-y,-z
x,y,-z
-x,y,z
x,-y,z
1/2+x,1/2+y,z
1/2-x,1/2-y,z
1/2+x,1/2-y,-z
1/2-x,1/2+y,-z
1/2-x,1/2-y,-z
1/2+x,1/2+y,-z
1/2-x,1/2+y,z
1/2+x,1/2-y,z
loop_
_atom_site_type_symbol
_atom_site_label
_atom_site_fract_x
_atom_site_fract_y
_atom_site_fract_z
Si Si1 0.816814 0.427549 0.308978
Si Si2 0.226416 0.926718 0.189014
Si Si3 0.340050 0.330876 0.688889
Si Si4 0.544133 0.235505 0.688596
Si Si5 0.047682 0.000000 0.678124
Si Si6 0.868902 0.692064 0.691996
Si Si7 0.074364 0.866404 0.184270
O O1 0.814290 0.424426 0.500000
O O2 0.829409 0.500000 0.266232
O O3 0.772342 0.417089 0.241522
O O4 0.847265 0.372560 0.254449
O O5 0.198320 0.871859 0.261003
O O6 0.214930 0.000000 0.238411
O O7 0.223625 0.923961 0.000000
O O8 0.344750 0.334703 0.500000
O O9 0.342699 0.255315 0.732279
O O10 0.379025 0.360492 0.771393
O O11 0.543545 0.226091 0.500000
O O12 0.500000 0.216155 0.750453
O O13 0.585154 0.202045 0.748817
O O14 0.551139 0.310674 0.722375
O O15 0.060470 0.936288 0.767088
O O16 0.064559 0.000000 0.500000
O O17 0.000000 0.000000 0.668182
O O18 0.870630 0.690225 0.500000
O O19 0.068217 0.855034 0.000000
#
# Coordination Sequence:
#
# PCOD9489825 Si02
#       7
#    16  16  16  16   8  16  16
#     4   9  17  32  54  76  99 131 170 206 248 305
#     4  10  21  35  50  71 102 134 168 211 257 301
#     4  10  20  35  53  72  98 133 173 209 249 303
#     4   9  17  32  53  73  97 132 170 204 245 302
#     4  11  23  37  51  67  91 129 175 213 251 305
#     4   8  16  31  51  76 101 128 167 212 251 294
#     4  11  22  34  49  71 100 129 163 212 263 299
#
# _framework density 17.655708000000001
#
# number of rings (size 3 to 8) (size 9 to 14) (size 15 to 20)
#    0.000    2.385    0.000    3.923    1.077    4.308 
#    0.000    6.923    0.000    0.462    0.000    3.231 
#    0.000    0.000    0.000    9.385    0.000   10.154 
#
# Total GULP energy -289951.947068 kJ/mol
# GULP energy per Si atom -5575.998982 kJ/mol
# Density = 1.761552 g / cm^3
# Si number density = 17.655708 Si / 1000 Ang^3
#
#
#
# Elastic Constant Matrix: (Units=GPa)
#
#
# Indices 1 2 3 4 5 6 
#
# 1 94.4864 74.2879 2.5370 0.0000 0.0000 0.0000
# 2 74.2879 110.6486 5.4990 0.0000 0.0000 0.0000
# 3 2.5370 5.4990 13.6973 0.0000 0.0000 0.0000
# 4 0.0000 0.0000 0.0000 2.2105 0.0000 0.0000
# 5 0.0000 0.0000 0.0000 0.0000 -28.3104 0.0000
# 6 0.0000 0.0000 0.0000 0.0000 0.0000 12.4442
#
#
#
# Elastic Compliance Matrix: (Units=1/GPa)
#
#
# Indices 1 2 3 4 5 6 
#
# 1 0.022466 -0.015180 0.001933 0.000000 0.000000 0.000000
# 2 -0.015180 0.019478 -0.005008 0.000000 0.000000 0.000000
# 3 0.001933 -0.005008 0.074660 0.000000 0.000000 0.000000
# 4 0.000000 0.000000 0.000000 0.452389 0.000000 0.000000
# 5 0.000000 0.000000 0.000000 0.000000 -0.035323 0.000000
# 6 0.000000 0.000000 0.000000 0.000000 0.000000 0.080359
#
#
# Mechanical properties :
#
#
# Convention : Reuss Voigt Hill
#
# Bulk Modulus (GPa) = 12.48531 42.60890 27.54711
# Shear Modulus (GPa) = 7.38294 6.36942 6.87618
#
# Velocity S-wave (km/s) = 2.04712 1.90142 1.97561
# Velocity P-wave (km/s) = 3.56013 5.38574 4.56512
#
# Compressibility (1/GPa) = 0.08009412
#
# Stress axis : x y z
#
# Youngs Moduli (GPa) = 44.51120 51.34031 13.39413
#
# Poissons Ratio (x) = 0.77932 -0.02589
# Poissons Ratio (y) = 0.67566 0.06708
# Poissons Ratio (z) = -0.08604 0.25712
#
# Static dielectric constant tensor:
#      x y z
#    x 1.602640 0.000000 0.000000 
#    y 0.000000 1.662850 0.000000 
#    z 0.000000 0.000000 1.607140 
# 
# From -- ./inp_files/18634.got.cif
#   From: 2010.05.17/outbox.cif.g08.bks.cpg/sg65_10_cif.got.tgz:18634.got - 2010.06.03 17:01:31.
