data_PCOD9489072
_publ_section_title
;
Structure prediction by ZEFSAII (Michael W. Deem and Ramdas Pophale) SiO2 
 PCOD9489072
Probable space group: C M M M
;
_chemical_formula_sum "Si O2"
_cell_formula_units_Z 96
_cell_length_a 19.728704
_cell_length_b 27.492488
_cell_length_c 9.614562
_cell_angle_alpha 90.000000
_cell_angle_beta 90.000000
_cell_angle_gamma 90.000000
_cell_volume 5214.853417
_symmetry_space_group_name_H-M "C M M M"
_symmetry_group_IT_number 65
_symmetry_cell_setting 'orthorhombic'
loop_
_space_group_symop_operation_xyz
x,y,z
-x,-y,z
x,-y,-z
-x,y,-z
-x,-y,-z
x,y,-z
-x,y,z
x,-y,z
1/2+x,1/2+y,z
1/2-x,1/2-y,z
1/2+x,1/2-y,-z
1/2-x,1/2+y,-z
1/2-x,1/2-y,-z
1/2+x,1/2+y,-z
1/2-x,1/2+y,z
1/2+x,1/2-y,z
loop_
_atom_site_type_symbol
_atom_site_label
_atom_site_fract_x
_atom_site_fract_y
_atom_site_fract_z
Si Si1 0.576791 0.222908 0.164471
Si Si2 0.195033 0.113135 0.660620
Si Si3 0.923217 0.440650 0.659209
Si Si4 0.797049 0.441693 0.157276
Si Si5 0.704500 0.204847 0.339306
Si Si6 0.579053 0.339752 0.838801
O O1 0.500000 0.209583 0.206985
O O2 0.636697 0.199116 0.251110
O O3 0.584098 0.281471 0.183105
O O4 0.583504 0.213093 0.000000
O O5 0.184677 0.099145 0.500000
O O6 0.232347 0.072593 0.751686
O O7 0.247774 0.158092 0.663908
O O8 0.127073 0.131754 0.734137
O O9 0.908165 0.425440 0.500000
O O10 0.923165 0.500000 0.659120
O O11 0.865167 0.424440 0.764204
O O12 0.000000 0.425475 0.694898
O O13 0.801393 0.500000 0.150446
O O14 0.792736 0.422407 0.000000
O O15 0.686333 0.215583 0.500000
O O16 0.750000 0.250000 0.286399
O O17 0.500000 0.352565 0.821959
O O18 0.598392 0.349157 0.000000
#
# Coordination Sequence:
#
# PCOD9489072 Si02
#       6
#    16  16  16  16  16  16
#     4   9  18  32  51  76 105 140 180 217 257 306
#     4  11  22  35  54  79 107 140 177 217 262 314
#     4   8  14  27  49  75 101 130 166 209 257 309
#     4  10  21  36  54  77 105 137 176 223 271 317
#     4  10  20  34  50  75 108 138 172 213 255 304
#     4   9  18  33  53  78 107 137 172 214 259 311
#
# _framework density 18.408956
#
# number of rings (size 3 to 8) (size 9 to 14) (size 15 to 20)
#    0.000    2.500    1.667    2.500    0.000    3.667 
#    0.000    4.167    0.000    1.500    0.000    3.500 
#    0.000    0.000    0.000    0.000    0.000    0.000 
#
# Total GULP energy -267853.409321 kJ/mol
# GULP energy per Si atom -5580.279361 kJ/mol
# Density = 1.836706 g / cm^3
# Si number density = 18.408956 Si / 1000 Ang^3
#
#
#
# Elastic Constant Matrix: (Units=GPa)
#
#
# Indices 1 2 3 4 5 6 
#
# 1 101.1977 9.2689 71.3775 0.0000 0.0000 0.0000
# 2 9.2689 18.1959 16.1352 0.0000 0.0000 0.0000
# 3 71.3775 16.1352 111.9477 0.0000 0.0000 0.0000
# 4 0.0000 0.0000 0.0000 16.9819 0.0000 0.0000
# 5 0.0000 0.0000 0.0000 0.0000 41.6869 0.0000
# 6 0.0000 0.0000 0.0000 0.0000 0.0000 21.2669
#
#
#
# Elastic Compliance Matrix: (Units=1/GPa)
#
#
# Indices 1 2 3 4 5 6 
#
# 1 0.017978 0.001154 -0.011629 0.000000 0.000000 0.000000
# 2 0.001154 0.063085 -0.009828 0.000000 0.000000 0.000000
# 3 -0.011629 -0.009828 0.017764 0.000000 0.000000 0.000000
# 4 0.000000 0.000000 0.000000 0.058886 0.000000 0.000000
# 5 0.000000 0.000000 0.000000 0.000000 0.023988 0.000000
# 6 0.000000 0.000000 0.000000 0.000000 0.000000 0.047021
#
#
# Mechanical properties :
#
#
# Convention : Reuss Voigt Hill
#
# Bulk Modulus (GPa) = 17.17615 47.21161 32.19388
# Shear Modulus (GPa) = 17.31677 24.95778 21.13728
#
# Velocity S-wave (km/s) = 3.07036 3.68603 3.39220
# Velocity P-wave (km/s) = 4.68189 6.61948 5.73313
#
# Compressibility (1/GPa) = 0.05822026
#
# Stress axis : x y z
#
# Youngs Moduli (GPa) = 55.62215 15.85167 56.29302
#
# Poissons Ratio (x) = -0.01830 0.65465
# Poissons Ratio (y) = -0.06420 0.55327
# Poissons Ratio (z) = 0.64685 0.15580
#
# Static dielectric constant tensor:
#      x y z
#    x 1.615310 0.000000 0.000000 
#    y 0.000000 1.659450 0.000000 
#    z 0.000000 0.000000 1.633840 
# 
# From -- ./inp_files/12213.got.cif
#   From: 2010.05.17/outbox.cif.g08.bks.cpg/sg65_7_cif.got.tgz:12213.got - 2010.06.03 17:01:31.
