data_PCOD9489207
_publ_section_title
;
Structure prediction by ZEFSAII (Michael W. Deem and Ramdas Pophale) SiO2 
 PCOD9489207
Probable space group: C M M M
;
_chemical_formula_sum "Si O2"
_cell_formula_units_Z 96
_cell_length_a 8.402072
_cell_length_b 30.230636
_cell_length_c 19.432835
_cell_angle_alpha 90.000000
_cell_angle_beta 90.000000
_cell_angle_gamma 90.000000
_cell_volume 4935.939707
_symmetry_space_group_name_H-M "C M M M"
_symmetry_group_IT_number 65
_symmetry_cell_setting 'orthorhombic'
loop_
_space_group_symop_operation_xyz
x,y,z
-x,-y,z
x,-y,-z
-x,y,-z
-x,-y,-z
x,y,-z
-x,y,z
x,-y,z
1/2+x,1/2+y,z
1/2-x,1/2-y,z
1/2+x,1/2-y,-z
1/2-x,1/2+y,-z
1/2-x,1/2-y,-z
1/2+x,1/2+y,-z
1/2-x,1/2+y,z
1/2+x,1/2-y,z
loop_
_atom_site_type_symbol
_atom_site_label
_atom_site_fract_x
_atom_site_fract_y
_atom_site_fract_z
Si Si1 0.191852 0.797982 0.776423
Si Si2 0.679524 0.049445 0.216085
Si Si3 0.191408 0.449919 0.579187
Si Si4 0.309283 0.830393 0.076725
Si Si5 0.186440 0.930126 0.923121
Si Si6 0.818167 0.881785 0.309584
O O1 0.250000 0.750000 0.753234
O O2 0.255671 0.805558 0.854255
O O3 0.248537 0.836482 0.723663
O O4 0.000000 0.800035 0.779189
O O5 0.500000 0.064207 0.233094
O O6 0.705502 0.049104 0.135034
O O7 0.803339 0.083447 0.247126
O O8 0.700036 0.000000 0.243169
O O9 0.241057 0.442337 0.500000
O O10 0.247939 0.500000 0.598379
O O11 0.241747 0.409754 0.628355
O O12 0.000000 0.451589 0.580839
O O13 0.500000 0.837075 0.080348
O O14 0.221678 0.877684 0.078911
O O15 0.274958 0.810878 0.000000
O O16 0.000000 0.938485 0.909519
O O17 0.222789 0.945477 0.000000
O O18 0.000000 0.873171 0.328396
#
# Coordination Sequence:
#
# PCOD9489207 Si02
#       6
#    16  16  16  16  16  16
#     4  11  24  40  59  84 113 149 194 243 296 352
#     4  11  23  36  53  78 108 147 192 233 279 340
#     4   9  19  37  62  93 127 161 195 228 268 327
#     4  10  20  35  57  82 108 143 188 240 299 358
#     4  10  20  34  52  74 103 141 185 235 289 342
#     4  11  23  38  58  86 118 151 187 233 288 339
#
# _framework density 19.449185
#
# number of rings (size 3 to 8) (size 9 to 14) (size 15 to 20)
#    0.000    1.667    1.667    3.500    0.000    8.667 
#    0.000    2.500    0.000    0.500    0.000    0.000 
#    0.000    0.000    0.000    0.000    0.000    0.000 
#
# Total GULP energy -267828.330210 kJ/mol
# GULP energy per Si atom -5579.756879 kJ/mol
# Density = 1.940492 g / cm^3
# Si number density = 19.449185 Si / 1000 Ang^3
#
#
#
# Elastic Constant Matrix: (Units=GPa)
#
#
# Indices 1 2 3 4 5 6 
#
# 1 31.8718 17.8611 20.8550 0.0000 0.0000 0.0000
# 2 17.8611 116.9095 60.0577 0.0000 0.0000 0.0000
# 3 20.8550 60.0577 125.4558 0.0000 0.0000 0.0000
# 4 0.0000 0.0000 0.0000 25.8820 0.0000 0.0000
# 5 0.0000 0.0000 0.0000 0.0000 25.0096 0.0000
# 6 0.0000 0.0000 0.0000 0.0000 0.0000 15.7802
#
#
#
# Elastic Compliance Matrix: (Units=1/GPa)
#
#
# Indices 1 2 3 4 5 6 
#
# 1 0.036100 -0.003226 -0.004457 0.000000 0.000000 0.000000
# 2 -0.003226 0.011631 -0.005032 0.000000 0.000000 0.000000
# 3 -0.004457 -0.005032 0.011121 0.000000 0.000000 0.000000
# 4 0.000000 0.000000 0.000000 0.038637 0.000000 0.000000
# 5 0.000000 0.000000 0.000000 0.000000 0.039985 0.000000
# 6 0.000000 0.000000 0.000000 0.000000 0.000000 0.063370
#
#
# Mechanical properties :
#
#
# Convention : Reuss Voigt Hill
#
# Bulk Modulus (GPa) = 29.91964 52.42055 41.17009
# Shear Modulus (GPa) = 21.06031 25.03191 23.04611
#
# Velocity S-wave (km/s) = 3.29422 3.59143 3.44603
# Velocity P-wave (km/s) = 5.46682 6.64898 6.08666
#
# Compressibility (1/GPa) = 0.03342286
#
# Stress axis : x y z
#
# Youngs Moduli (GPa) = 27.70111 85.97419 89.92268
#
# Poissons Ratio (x) = 0.27733 0.40077
# Poissons Ratio (y) = 0.08936 0.45248
# Poissons Ratio (z) = 0.12346 0.43261
#
# Static dielectric constant tensor:
#      x y z
#    x 1.674440 0.000000 0.000000 
#    y 0.000000 1.693460 0.000000 
#    z 0.000000 0.000000 1.707510 
# 
# From -- ./inp_files/60293.got.cif
#   From: 2010.05.17/outbox.cif.g08.bks.cpg/sg65_31_cif.got.tgz:60293.got - 2010.06.03 17:01:31.
