data_PCOD9489930
_publ_section_title
;
Structure prediction by ZEFSAII (Michael W. Deem and Ramdas Pophale) SiO2 
 PCOD9489930
Probable space group: C M M M
;
_chemical_formula_sum "Si O2"
_cell_formula_units_Z 72
_cell_length_a 19.814899
_cell_length_b 7.899566
_cell_length_c 24.295676
_cell_angle_alpha 90.000000
_cell_angle_beta 90.000000
_cell_angle_gamma 90.000000
_cell_volume 3802.980357
_symmetry_space_group_name_H-M "C M M M"
_symmetry_group_IT_number 65
_symmetry_cell_setting 'orthorhombic'
loop_
_space_group_symop_operation_xyz
x,y,z
-x,-y,z
x,-y,-z
-x,y,-z
-x,-y,-z
x,y,-z
-x,y,z
x,-y,z
1/2+x,1/2+y,z
1/2-x,1/2-y,z
1/2+x,1/2-y,-z
1/2-x,1/2+y,-z
1/2-x,1/2-y,-z
1/2+x,1/2+y,-z
1/2-x,1/2+y,z
1/2+x,1/2-y,z
loop_
_atom_site_type_symbol
_atom_site_label
_atom_site_fract_x
_atom_site_fract_y
_atom_site_fract_z
Si Si1 0.078432 0.792503 0.820909
Si Si2 0.326526 0.298814 0.598632
Si Si3 0.575886 0.200568 0.500000
Si Si4 0.326912 0.295813 0.277455
Si Si5 0.081423 0.202652 0.059127
O O1 0.122822 0.733589 0.769711
O O2 0.104472 0.733879 0.881113
O O3 0.000000 0.743997 0.814720
O O4 0.079755 0.000000 0.821743
O O5 0.327770 0.500000 0.601939
O O6 0.250000 0.250000 0.582761
O O7 0.380953 0.247374 0.553666
O O8 0.340324 0.231237 0.660417
O O9 0.500000 0.274234 0.500000
O O10 0.570031 0.000000 0.500000
O O11 0.332589 0.500000 0.278681
O O12 0.250000 0.250000 0.264023
O O13 0.000000 0.223484 0.059719
O O14 0.093655 0.000000 0.058359
O O15 0.106027 0.271634 0.000000
#
# Coordination Sequence:
#
# PCOD9489930 Si02
#       5
#    16  16   8  16  16
#     4   8  13  22  38  61  87 114 148 190 231 268
#     4  10  20  35  55  75  96 125 162 198 231 275
#     4  11  24  39  54  75 103 129 152 185 232 279
#     4   9  18  31  48  69  92 121 153 186 225 268
#     4   7   9  14  27  50  80 111 142 180 226 269
#
# _framework density 18.932518999999999
#
# number of rings (size 3 to 8) (size 9 to 14) (size 15 to 20)
#    0.000    3.222    0.000    3.333    0.000    2.667 
#    0.000    2.222    0.000    1.333    0.000    0.000 
#    0.000    0.000    0.000    5.556    0.000    4.444 
#
# Total GULP energy -200460.699149 kJ/mol
# GULP energy per Si atom -5568.352754 kJ/mol
# Density = 1.888943 g / cm^3
# Si number density = 18.932519 Si / 1000 Ang^3
#
#
#
# Elastic Constant Matrix: (Units=GPa)
#
#
# Indices 1 2 3 4 5 6 
#
# 1 103.1529 6.7919 119.6057 0.0000 0.0000 0.0000
# 2 6.7919 22.2711 12.5219 0.0000 0.0000 0.0000
# 3 119.6057 12.5219 194.4644 0.0000 0.0000 0.0000
# 4 0.0000 0.0000 0.0000 -17.7356 0.0000 0.0000
# 5 0.0000 0.0000 0.0000 0.0000 85.0944 0.0000
# 6 0.0000 0.0000 0.0000 0.0000 0.0000 12.9345
#
#
#
# Elastic Compliance Matrix: (Units=1/GPa)
#
#
# Indices 1 2 3 4 5 6 
#
# 1 0.033840 0.001434 -0.020906 0.000000 0.000000 0.000000
# 2 0.001434 0.046649 -0.003886 0.000000 0.000000 0.000000
# 3 -0.020906 -0.003886 0.018251 0.000000 0.000000 0.000000
# 4 0.000000 0.000000 0.000000 -0.056384 0.000000 0.000000
# 5 0.000000 0.000000 0.000000 0.000000 0.011752 0.000000
# 6 0.000000 0.000000 0.000000 0.000000 0.000000 0.077313
#
#
# Mechanical properties :
#
#
# Convention : Reuss Voigt Hill
#
# Bulk Modulus (GPa) = 19.22167 66.41415 42.81791
# Shear Modulus (GPa) = 25.57848 28.12325 26.85087
#
# Velocity S-wave (km/s) = 3.67963 3.85833 3.77004
# Velocity P-wave (km/s) = 5.31297 7.41650 6.45105
#
# Compressibility (1/GPa) = 0.05202462
#
# Stress axis : x y z
#
# Youngs Moduli (GPa) = 29.55063 21.43678 54.79235
#
# Poissons Ratio (x) = -0.03074 1.14548
# Poissons Ratio (y) = -0.04238 0.21292
# Poissons Ratio (z) = 0.61778 0.08330
#
# Static dielectric constant tensor:
#      x y z
#    x 1.695460 0.000000 0.000000 
#    y 0.000000 1.670300 0.000000 
#    z 0.000000 0.000000 1.736450 
# 
# From -- ./inp_files/64343.got.cif
#   From: 2010.05.17/outbox.cif.g08.bks.cpg/sg65_33_cif.got.tgz:64343.got - 2010.06.03 17:01:31.
