data_PCOD9489275
_publ_section_title
;
Structure prediction by ZEFSAII (Michael W. Deem and Ramdas Pophale) SiO2 
 PCOD9489275
Probable space group: C M M M
;
_chemical_formula_sum "Si O2"
_cell_formula_units_Z 72
_cell_length_a 8.153797
_cell_length_b 26.185943
_cell_length_c 17.494454
_cell_angle_alpha 90.000000
_cell_angle_beta 90.000000
_cell_angle_gamma 90.000000
_cell_volume 3735.325957
_symmetry_space_group_name_H-M "C M M M"
_symmetry_group_IT_number 65
_symmetry_cell_setting 'orthorhombic'
loop_
_space_group_symop_operation_xyz
x,y,z
-x,-y,z
x,-y,-z
-x,y,-z
-x,-y,-z
x,y,-z
-x,y,z
x,-y,z
1/2+x,1/2+y,z
1/2-x,1/2-y,z
1/2+x,1/2-y,-z
1/2-x,1/2+y,-z
1/2-x,1/2-y,-z
1/2+x,1/2+y,-z
1/2-x,1/2+y,z
1/2+x,1/2-y,z
loop_
_atom_site_type_symbol
_atom_site_label
_atom_site_fract_x
_atom_site_fract_y
_atom_site_fract_z
Si Si1 0.798708 0.500000 0.087816
Si Si2 0.197573 0.556345 0.376574
Si Si3 0.306989 0.805169 0.749559
Si Si4 0.301181 0.913799 0.796857
Si Si5 0.306950 0.666736 0.417655
O O1 0.743671 0.549917 0.135109
O O2 0.000000 0.500000 0.088657
O O3 0.746584 0.500000 0.000000
O O4 0.247461 0.500000 0.403345
O O5 0.231640 0.561061 0.285771
O O6 0.279235 0.605618 0.413550
O O7 0.000000 0.560849 0.386659
O O8 0.500000 0.807171 0.759395
O O9 0.250000 0.750000 0.776365
O O10 0.236963 0.855735 0.790921
O O11 0.271826 0.811141 0.658968
O O12 0.500000 0.911694 0.802937
O O13 0.241359 0.684789 0.500000
O O14 0.500000 0.677593 0.414196
#
# Coordination Sequence:
#
# PCOD9489275 Si02
#       5
#     8  16  16  16  16
#     4   9  14  22  44  78 110 133 154 190 239 285
#     4   9  16  28  47  66  91 130 170 207 244 289
#     4  10  20  34  53  72  93 126 167 209 247 290
#     4   8  14  26  44  69 100 129 159 197 238 281
#     4  10  21  34  46  65  95 126 160 207 257 302
#
# _framework density 19.275424999999998
#
# number of rings (size 3 to 8) (size 9 to 14) (size 15 to 20)
#    0.000    2.778    1.111    2.667    0.000    3.111 
#    0.000    2.222    0.000    0.667    0.000    0.000 
#    0.000   43.556    0.000    0.000    0.000    0.889 
#
# Total GULP energy -200735.771340 kJ/mol
# GULP energy per Si atom -5575.993648 kJ/mol
# Density = 1.923155 g / cm^3
# Si number density = 19.275425 Si / 1000 Ang^3
#
#
#
# Elastic Constant Matrix: (Units=GPa)
#
#
# Indices 1 2 3 4 5 6 
#
# 1 11.8609 6.1020 2.4405 0.0000 0.0000 0.0000
# 2 6.1020 145.4097 45.2171 0.0000 0.0000 0.0000
# 3 2.4405 45.2171 105.7834 0.0000 0.0000 0.0000
# 4 0.0000 0.0000 0.0000 829.2808 0.0000 0.0000
# 5 0.0000 0.0000 0.0000 0.0000 1484.2765 0.0000
# 6 0.0000 0.0000 0.0000 0.0000 0.0000 25.9327
#
#
#
# Elastic Compliance Matrix: (Units=1/GPa)
#
#
# Indices 1 2 3 4 5 6 
#
# 1 0.086195 -0.003458 -0.000510 0.000000 0.000000 0.000000
# 2 -0.003458 0.008070 -0.003370 0.000000 0.000000 0.000000
# 3 -0.000510 -0.003370 0.010905 0.000000 0.000000 0.000000
# 4 0.000000 0.000000 0.000000 0.001206 0.000000 0.000000
# 5 0.000000 0.000000 0.000000 0.000000 0.000674 0.000000
# 6 0.000000 0.000000 0.000000 0.000000 0.000000 0.038561
#
#
# Mechanical properties :
#
#
# Convention : Reuss Voigt Hill
#
# Bulk Modulus (GPa) = 11.05055 41.17481 26.11268
# Shear Modulus (GPa) = 26.25325 481.85094 254.05210
#
# Velocity S-wave (km/s) = 3.69454 15.82797 11.49292
# Velocity P-wave (km/s) = 4.89336 18.85313 13.77290
#
# Compressibility (1/GPa) = 0.09049325
#
# Stress axis : x y z
#
# Youngs Moduli (GPa) = 11.60165 123.91373 91.69707
#
# Poissons Ratio (x) = 0.42854 0.04680
# Poissons Ratio (y) = 0.04012 0.30900
# Poissons Ratio (z) = 0.00592 0.41756
#
# Static dielectric constant tensor:
#      x y z
#    x 1.685080 0.000000 0.000000 
#    y 0.000000 1.721000 0.000000 
#    z 0.000000 0.000000 1.664480 
# 
# From -- ./inp_files/49741.got.cif
#   From: 2010.05.17/outbox.cif.g08.bks.cpg/sg65_25_cif.got.tgz:49741.got - 2010.06.03 17:01:31.
