data_PCOD9489455
_publ_section_title
;
Structure prediction by ZEFSAII (Michael W. Deem and Ramdas Pophale) SiO2 
 PCOD9489455
Probable space group: C M M M
;
_chemical_formula_sum "Si O2"
_cell_formula_units_Z 104
_cell_length_a 26.930183
_cell_length_b 7.960058
_cell_length_c 22.955081
_cell_angle_alpha 90.000000
_cell_angle_beta 90.000000
_cell_angle_gamma 90.000000
_cell_volume 4920.784730
_symmetry_space_group_name_H-M "C M M M"
_symmetry_group_IT_number 65
_symmetry_cell_setting 'orthorhombic'
loop_
_space_group_symop_operation_xyz
x,y,z
-x,-y,z
x,-y,-z
-x,y,-z
-x,-y,-z
x,y,-z
-x,y,z
x,-y,z
1/2+x,1/2+y,z
1/2-x,1/2-y,z
1/2+x,1/2-y,-z
1/2-x,1/2+y,-z
1/2-x,1/2-y,-z
1/2+x,1/2+y,-z
1/2-x,1/2+y,z
1/2+x,1/2-y,z
loop_
_atom_site_type_symbol
_atom_site_label
_atom_site_fract_x
_atom_site_fract_y
_atom_site_fract_z
Si Si1 0.554132 0.801641 0.810738
Si Si2 0.107527 0.793478 0.432485
Si Si3 0.500000 0.305165 0.429022
Si Si4 0.195294 0.199111 0.350857
Si Si5 0.839384 0.702151 0.224487
Si Si6 0.804549 0.298904 0.098510
Si Si7 0.912390 0.802036 0.936645
O O1 0.500000 0.728741 0.796027
O O2 0.603775 0.732224 0.780107
O O3 0.564080 0.782490 0.879918
O O4 0.552564 0.000000 0.797672
O O5 0.114867 0.746311 0.500000
O O6 0.151628 0.732179 0.391723
O O7 0.053177 0.732165 0.411801
O O8 0.106093 0.000000 0.431534
O O9 0.500000 0.500000 0.410269
O O10 0.500000 0.305270 0.500000
O O11 0.250000 0.250000 0.370122
O O12 0.186167 0.249347 0.284205
O O13 0.192231 0.000000 0.353942
O O14 0.841292 0.500000 0.221793
O O15 0.810692 0.757348 0.166182
O O16 0.809290 0.500000 0.095369
O O17 0.750000 0.250000 0.077022
O O18 0.852824 0.223359 0.067547
O O19 0.923254 0.000000 0.932984
O O20 0.929211 0.739153 0.000000
#
# Coordination Sequence:
#
# PCOD9489455 Si02
#       7
#    16  16   8  16  16  16  16
#     4   9  19  37  59  79 101 134 174 213 258 315
#     4   8  15  29  49  74 104 138 176 217 263 314
#     4   7  10  22  46  70  95 129 165 207 256 301
#     4  11  22  34  51  77 107 141 178 219 264 316
#     4   9  19  36  55  75 101 133 171 213 258 311
#     4  10  20  34  54  76  98 132 174 217 263 313
#     4  10  21  35  51  75 107 139 171 210 257 309
#
# _framework density 21.134841000000002
#
# number of rings (size 3 to 8) (size 9 to 14) (size 15 to 20)
#    0.000    2.692    0.000    3.692    0.000    6.769 
#    1.385    1.538    0.000    1.385    0.000    0.000 
#    0.000    7.385    0.000    0.000    0.000    0.000 
#
# Total GULP energy -290148.682666 kJ/mol
# GULP energy per Si atom -5579.782359 kJ/mol
# Density = 2.108674 g / cm^3
# Si number density = 21.134841 Si / 1000 Ang^3
#
#
#
# Elastic Constant Matrix: (Units=GPa)
#
#
# Indices 1 2 3 4 5 6 
#
# 1 131.2165 -4.2475 24.0451 0.0000 0.0000 0.0000
# 2 -4.2475 18.5923 -4.0296 0.0000 0.0000 0.0000
# 3 24.0451 -4.0296 54.0871 0.0000 0.0000 0.0000
# 4 0.0000 0.0000 0.0000 5.5967 0.0000 0.0000
# 5 0.0000 0.0000 0.0000 0.0000 -7.7655 0.0000
# 6 0.0000 0.0000 0.0000 0.0000 0.0000 13.1862
#
#
#
# Elastic Compliance Matrix: (Units=1/GPa)
#
#
# Indices 1 2 3 4 5 6 
#
# 1 0.008320 0.001117 -0.003615 0.000000 0.000000 0.000000
# 2 0.001117 0.054818 0.003588 0.000000 0.000000 0.000000
# 3 -0.003615 0.003588 0.020363 0.000000 0.000000 0.000000
# 4 0.000000 0.000000 0.000000 0.178677 0.000000 0.000000
# 5 0.000000 0.000000 0.000000 0.000000 -0.128774 0.000000
# 6 0.000000 0.000000 0.000000 0.000000 0.000000 0.075837
#
#
# Mechanical properties :
#
#
# Convention : Reuss Voigt Hill
#
# Bulk Modulus (GPa) = 11.67138 26.15908 18.91523
# Shear Modulus (GPa) = 21.22035 14.74534 17.98285
#
# Velocity S-wave (km/s) = 3.17211 2.64423 2.92012
# Velocity P-wave (km/s) = 4.35324 4.66119 4.50984
#
# Compressibility (1/GPa) = 0.08567966
#
# Stress axis : x y z
#
# Youngs Moduli (GPa) = 120.19719 18.24208 49.10810
#
# Poissons Ratio (x) = -0.02038 0.17754
# Poissons Ratio (y) = -0.13427 -0.17618
# Poissons Ratio (z) = 0.43456 -0.06544
#
# Static dielectric constant tensor:
#      x y z
#    x 1.793910 0.000000 0.000000 
#    y 0.000000 1.764960 0.000000 
#    z 0.000000 0.000000 1.750990 
# 
# From -- ./inp_files/65925.got.cif
#   From: 2010.05.17/outbox.cif.g08.bks.cpg/sg65_33_cif.got.tgz:65925.got - 2010.06.03 17:01:31.
