data_PCOD9489061
_publ_section_title
;
Structure prediction by ZEFSAII (Michael W. Deem and Ramdas Pophale) SiO2 
 PCOD9489061
Probable space group: C M M M
;
_chemical_formula_sum "Si O2"
_cell_formula_units_Z 80
_cell_length_a 7.991298
_cell_length_b 28.699871
_cell_length_c 20.685577
_cell_angle_alpha 90.000000
_cell_angle_beta 90.000000
_cell_angle_gamma 90.000000
_cell_volume 4744.220986
_symmetry_space_group_name_H-M "C M M M"
_symmetry_group_IT_number 65
_symmetry_cell_setting 'orthorhombic'
loop_
_space_group_symop_operation_xyz
x,y,z
-x,-y,z
x,-y,-z
-x,y,-z
-x,-y,-z
x,y,-z
-x,y,z
x,-y,z
1/2+x,1/2+y,z
1/2-x,1/2-y,z
1/2+x,1/2-y,-z
1/2-x,1/2+y,-z
1/2-x,1/2-y,-z
1/2+x,1/2+y,-z
1/2-x,1/2+y,z
1/2+x,1/2-y,z
loop_
_atom_site_type_symbol
_atom_site_label
_atom_site_fract_x
_atom_site_fract_y
_atom_site_fract_z
Si Si1 0.000000 0.443495 0.073824
Si Si2 0.199778 0.303675 0.641660
Si Si3 0.302990 0.605516 0.299136
Si Si4 0.701054 0.053708 0.429358
Si Si5 0.798176 0.304539 0.500000
Si Si6 0.302044 0.556068 0.167872
O O1 0.169808 0.430506 0.112189
O O2 0.000000 0.500000 0.072064
O O3 0.000000 0.426588 0.000000
O O4 0.250000 0.250000 0.651397
O O5 0.260120 0.340088 0.694595
O O6 0.263483 0.320501 0.570367
O O7 0.000000 0.305461 0.639503
O O8 0.500000 0.599973 0.297493
O O9 0.243885 0.581359 0.365113
O O10 0.242224 0.580552 0.234139
O O11 0.759702 0.071917 0.500000
O O12 0.500000 0.053269 0.432356
O O13 0.758734 0.000000 0.423641
O O14 0.750000 0.250000 0.500000
O O15 0.000000 0.310368 0.500000
O O16 0.500000 0.567258 0.155158
O O17 0.294176 0.500000 0.176232
#
# Coordination Sequence:
#
# PCOD9489061 Si02
#       6
#     8  16  16  16   8  16
#     4   9  18  32  54  82 109 141 175 203 244 302
#     4  10  20  34  50  68  91 124 163 214 264 313
#     4  11  22  33  48  71  98 133 170 210 254 311
#     4   9  19  34  49  66  90 124 170 219 261 300
#     4   8  16  30  46  62  81 110 153 202 260 309
#     4   9  19  34  51  76 110 143 175 211 249 298
#
# _framework density 16.862618999999999
#
# number of rings (size 3 to 8) (size 9 to 14) (size 15 to 20)
#    0.000    2.500    0.000    2.400    4.200    2.800 
#    0.000    3.000    0.000    0.000    0.000    0.000 
#    0.000    0.800    0.400    0.000    0.000    0.000 
#
# Total GULP energy -222889.712175 kJ/mol
# GULP energy per Si atom -5572.242804 kJ/mol
# Density = 1.682424 g / cm^3
# Si number density = 16.862619 Si / 1000 Ang^3
#
#
#
# Elastic Constant Matrix: (Units=GPa)
#
#
# Indices 1 2 3 4 5 6 
#
# 1 41.6721 12.8593 48.2936 0.0000 0.0000 0.0000
# 2 12.8593 48.5379 51.8262 0.0000 0.0000 0.0000
# 3 48.2936 51.8262 139.4532 0.0000 0.0000 0.0000
# 4 0.0000 0.0000 0.0000 12.8895 0.0000 0.0000
# 5 0.0000 0.0000 0.0000 0.0000 -50.5569 0.0000
# 6 0.0000 0.0000 0.0000 0.0000 0.0000 19.8850
#
#
#
# Elastic Compliance Matrix: (Units=1/GPa)
#
#
# Indices 1 2 3 4 5 6 
#
# 1 0.041557 0.007223 -0.017076 0.000000 0.000000 0.000000
# 2 0.007223 0.035412 -0.015662 0.000000 0.000000 0.000000
# 3 -0.017076 -0.015662 0.018905 0.000000 0.000000 0.000000
# 4 0.000000 0.000000 0.000000 0.077583 0.000000 0.000000
# 5 0.000000 0.000000 0.000000 0.000000 -0.019780 0.000000
# 6 0.000000 0.000000 0.000000 0.000000 0.000000 0.050289
#
#
# Mechanical properties :
#
#
# Convention : Reuss Voigt Hill
#
# Bulk Modulus (GPa) = 22.29941 50.62460 36.46201
# Shear Modulus (GPa) = 18.52244 4.22247 11.37246
#
# Velocity S-wave (km/s) = 3.31786 1.58413 2.59977
# Velocity P-wave (km/s) = 5.28493 5.78212 5.53911
#
# Compressibility (1/GPa) = 0.04484423
#
# Stress axis : x y z
#
# Youngs Moduli (GPa) = 24.06333 28.23933 52.89667
#
# Poissons Ratio (x) = -0.20397 0.90325
# Poissons Ratio (y) = -0.17380 0.82845
# Poissons Ratio (z) = 0.41090 0.44227
#
# Static dielectric constant tensor:
#      x y z
#    x 1.613810 0.000000 0.000000 
#    y 0.000000 1.559680 0.000000 
#    z 0.000000 0.000000 1.600100 
# 
# From -- ./inp_files/49932.got.cif
#   From: 2010.05.17/outbox.cif.g08.bks.cpg/sg65_25_cif.got.tgz:49932.got - 2010.06.03 17:01:31.
