data_PCOD9489842
_publ_section_title
;
Structure prediction by ZEFSAII (Michael W. Deem and Ramdas Pophale) SiO2 
 PCOD9489842
Probable space group: C M M M
;
_chemical_formula_sum "Si O2"
_cell_formula_units_Z 64
_cell_length_a 8.386620
_cell_length_b 15.123586
_cell_length_c 27.193608
_cell_angle_alpha 90.000000
_cell_angle_beta 90.000000
_cell_angle_gamma 90.000000
_cell_volume 3449.122178
_symmetry_space_group_name_H-M "C M M M"
_symmetry_group_IT_number 65
_symmetry_cell_setting 'orthorhombic'
loop_
_space_group_symop_operation_xyz
x,y,z
-x,-y,z
x,-y,-z
-x,y,-z
-x,-y,-z
x,y,-z
-x,y,z
x,-y,z
1/2+x,1/2+y,z
1/2-x,1/2-y,z
1/2+x,1/2-y,-z
1/2-x,1/2+y,-z
1/2-x,1/2-y,-z
1/2+x,1/2+y,-z
1/2-x,1/2+y,z
1/2+x,1/2-y,z
loop_
_atom_site_type_symbol
_atom_site_label
_atom_site_fract_x
_atom_site_fract_y
_atom_site_fract_z
Si Si1 0.689800 0.648344 0.500000
Si Si2 0.692446 0.349418 0.130297
Si Si3 0.693704 0.500000 0.684622
Si Si4 0.304754 0.500000 0.056299
Si Si5 0.310671 0.000000 0.426583
Si Si6 0.192289 0.150568 0.759256
O O1 0.500000 0.651120 0.500000
O O2 0.750000 0.750000 0.500000
O O3 0.746120 0.588108 0.453888
O O4 0.500000 0.350498 0.130200
O O5 0.750000 0.250000 0.122241
O O6 0.747159 0.415106 0.087756
O O7 0.743941 0.376964 0.185526
O O8 0.500000 0.500000 0.681775
O O9 0.760941 0.500000 0.630060
O O10 0.745287 0.584631 0.716686
O O11 0.500000 0.500000 0.055606
O O12 0.250775 0.500000 0.000000
O O13 0.500000 0.000000 0.431831
O O14 0.250000 0.250000 0.751093
O O15 0.000000 0.149528 0.759341
#
# Coordination Sequence:
#
# PCOD9489842 Si02
#       6
#     8  16   8   8   8  16
#     4  11  22  41  66  88 112 147 188 229 270 314
#     4   9  17  31  50  71  95 127 167 209 254 306
#     4  10  20  35  53  75 106 142 175 214 263 311
#     4   9  17  29  47  70  95 126 165 205 250 310
#     4  11  23  39  58  86 118 148 184 224 268 319
#     4   9  18  32  51  73  99 132 171 212 256 309
#
# _framework density 18.555444999999999
#
# number of rings (size 3 to 8) (size 9 to 14) (size 15 to 20)
#    0.000    2.375    0.000    3.750    0.000    5.500 
#    0.000    3.125    0.000    6.750    0.000    0.000 
#    0.000    0.000    0.000    0.000    0.000    0.000 
#
# Total GULP energy -178536.752570 kJ/mol
# GULP energy per Si atom -5579.273518 kJ/mol
# Density = 1.851321 g / cm^3
# Si number density = 18.555445 Si / 1000 Ang^3
#
#
#
# Elastic Constant Matrix: (Units=GPa)
#
#
# Indices 1 2 3 4 5 6 
#
# 1 52.0067 36.5880 38.9709 0.0000 0.0000 0.0000
# 2 36.5880 148.8962 124.6225 0.0000 0.0000 0.0000
# 3 38.9709 124.6225 210.1024 0.0000 0.0000 0.0000
# 4 0.0000 0.0000 0.0000 45.8141 0.0000 0.0000
# 5 0.0000 0.0000 0.0000 0.0000 16.6262 0.0000
# 6 0.0000 0.0000 0.0000 0.0000 0.0000 28.7345
#
#
#
# Elastic Compliance Matrix: (Units=1/GPa)
#
#
# Indices 1 2 3 4 5 6 
#
# 1 0.023609 -0.004242 -0.001863 0.000000 0.000000 0.000000
# 2 -0.004242 0.014100 -0.007576 0.000000 0.000000 0.000000
# 3 -0.001863 -0.007576 0.009599 0.000000 0.000000 0.000000
# 4 0.000000 0.000000 0.000000 0.021827 0.000000 0.000000
# 5 0.000000 0.000000 0.000000 0.000000 0.060146 0.000000
# 6 0.000000 0.000000 0.000000 0.000000 0.000000 0.034801
#
#
# Mechanical properties :
#
#
# Convention : Reuss Voigt Hill
#
# Bulk Modulus (GPa) = 50.13875 90.15202 70.14538
# Shear Modulus (GPa) = 25.24063 32.28990 28.76527
#
# Velocity S-wave (km/s) = 3.69220 4.17608 3.94157
# Velocity P-wave (km/s) = 6.72727 8.48195 7.65505
#
# Compressibility (1/GPa) = 0.01994465
#
# Stress axis : x y z
#
# Youngs Moduli (GPa) = 42.35740 70.92280 104.17646
#
# Poissons Ratio (x) = 0.30087 0.19406
# Poissons Ratio (y) = 0.17969 0.78929
# Poissons Ratio (z) = 0.07890 0.53734
#
# Static dielectric constant tensor:
#      x y z
#    x 1.636570 0.000000 0.000000 
#    y 0.000000 1.622070 0.000000 
#    z 0.000000 0.000000 1.634080 
# 
# From -- ./inp_files/66868.got.cif
#   From: 2010.05.17/outbox.cif.g08.bks.cpg/sg65_34_cif.got.tgz:66868.got - 2010.06.03 17:01:31.
