data_PCOD9489663
_publ_section_title
;
Structure prediction by ZEFSAII (Michael W. Deem and Ramdas Pophale) SiO2 
 PCOD9489663
Probable space group: C M M M
;
_chemical_formula_sum "Si O2"
_cell_formula_units_Z 104
_cell_length_a 26.739246
_cell_length_b 9.189177
_cell_length_c 22.893852
_cell_angle_alpha 90.000000
_cell_angle_beta 90.000000
_cell_angle_gamma 90.000000
_cell_volume 5625.286478
_symmetry_space_group_name_H-M "C M M M"
_symmetry_group_IT_number 65
_symmetry_cell_setting 'orthorhombic'
loop_
_space_group_symop_operation_xyz
x,y,z
-x,-y,z
x,-y,-z
-x,y,-z
-x,-y,-z
x,y,-z
-x,y,z
x,-y,z
1/2+x,1/2+y,z
1/2-x,1/2-y,z
1/2+x,1/2-y,-z
1/2-x,1/2+y,-z
1/2-x,1/2-y,-z
1/2+x,1/2+y,-z
1/2-x,1/2+y,z
1/2+x,1/2-y,z
loop_
_atom_site_type_symbol
_atom_site_label
_atom_site_fract_x
_atom_site_fract_y
_atom_site_fract_z
Si Si1 0.555305 0.673449 0.375692
Si Si2 0.302322 0.325274 0.068648
Si Si3 0.202995 0.668855 0.322819
Si Si4 0.340659 0.325435 0.566155
Si Si5 0.095757 0.329965 0.262974
Si Si6 0.500000 0.676961 0.933657
Si Si7 0.097880 0.175976 0.139122
O O1 0.500000 0.706995 0.398939
O O2 0.557846 0.500000 0.364531
O O3 0.601178 0.707665 0.418755
O O4 0.564387 0.756268 0.314949
O O5 0.296802 0.500000 0.073060
O O6 0.250000 0.250000 0.085270
O O7 0.349871 0.282169 0.107944
O O8 0.312109 0.291359 0.000000
O O9 0.214396 0.500000 0.331622
O O10 0.250000 0.750000 0.295273
O O11 0.190939 0.744608 0.384635
O O12 0.153295 0.681449 0.284268
O O13 0.328677 0.282438 0.500000
O O14 0.334111 0.500000 0.571433
O O15 0.082957 0.500000 0.257423
O O16 0.091234 0.247456 0.202130
O O17 0.500000 0.500000 0.935121
O O18 0.449483 0.719393 0.900407
O O19 0.500000 0.729601 0.000000
O O20 0.097806 0.000000 0.144508
#
# Coordination Sequence:
#
# PCOD9489663 Si02
#       7
#    16  16  16  16  16   8  16
#     4   9  18  33  54  77 103 137 175 215 258 307
#     4   9  18  33  53  77 105 137 173 215 263 315
#     4  10  21  37  56  76 102 139 179 219 266 315
#     4   9  18  33  53  79 109 138 172 215 262 314
#     4  10  22  37  52  75 106 138 173 216 264 313
#     4   9  18  34  57  83 109 139 178 223 266 313
#     4  10  20  34  55  81 107 138 178 222 266 317
#
# _framework density 18.487947999999999
#
# number of rings (size 3 to 8) (size 9 to 14) (size 15 to 20)
#    0.000    2.538    0.000    1.385    1.077    6.154 
#    0.000    4.615    0.000    1.846    0.000    4.308 
#    0.000    0.000    0.000    0.000    0.000    0.000 
#
# Total GULP energy -290153.422815 kJ/mol
# GULP energy per Si atom -5579.873516 kJ/mol
# Density = 1.844587 g / cm^3
# Si number density = 18.487948 Si / 1000 Ang^3
#
#
#
# Elastic Constant Matrix: (Units=GPa)
#
#
# Indices 1 2 3 4 5 6 
#
# 1 61.4275 15.1493 -3.1944 0.0000 0.0000 0.0000
# 2 15.1493 24.9244 16.8330 0.0000 0.0000 0.0000
# 3 -3.1944 16.8330 74.8352 0.0000 0.0000 0.0000
# 4 0.0000 0.0000 0.0000 14.9570 0.0000 0.0000
# 5 0.0000 0.0000 0.0000 0.0000 -1.5210 0.0000
# 6 0.0000 0.0000 0.0000 0.0000 0.0000 24.7491
#
#
#
# Elastic Compliance Matrix: (Units=1/GPa)
#
#
# Indices 1 2 3 4 5 6 
#
# 1 0.020251 -0.015202 0.004284 0.000000 0.000000 0.000000
# 2 -0.015202 0.058720 -0.013857 0.000000 0.000000 0.000000
# 3 0.004284 -0.013857 0.016662 0.000000 0.000000 0.000000
# 4 0.000000 0.000000 0.000000 0.066858 0.000000 0.000000
# 5 0.000000 0.000000 0.000000 0.000000 -0.657458 0.000000
# 6 0.000000 0.000000 0.000000 0.000000 0.000000 0.040405
#
#
# Mechanical properties :
#
#
# Convention : Reuss Voigt Hill
#
# Bulk Modulus (GPa) = 21.69989 24.30698 23.00344
# Shear Modulus (GPa) = -12.83207 16.46364 1.81578
#
# Velocity S-wave (km/s) = -2.63739 2.98737 0.99211
# Velocity P-wave (km/s) = 1.57745 5.00752 3.71238
#
# Compressibility (1/GPa) = 0.04608318
#
# Stress axis : x y z
#
# Youngs Moduli (GPa) = 49.37954 17.02999 60.01508
#
# Poissons Ratio (x) = 0.25889 -0.25710
# Poissons Ratio (y) = 0.75068 0.83163
# Poissons Ratio (z) = -0.21154 0.23599
#
# Static dielectric constant tensor:
#      x y z
#    x 1.648000 0.000000 0.000000 
#    y 0.000000 1.617820 0.000000 
#    z 0.000000 0.000000 1.602890 
# 
# From -- ./inp_files/65844.got.cif
#   From: 2010.05.17/outbox.cif.g08.bks.cpg/sg65_33_cif.got.tgz:65844.got - 2010.06.03 17:01:31.
