data_PCOD9489860
_publ_section_title
;
Structure prediction by ZEFSAII (Michael W. Deem and Ramdas Pophale) SiO2 
 PCOD9489860
Probable space group: C M M M
;
_chemical_formula_sum "Si O2"
_cell_formula_units_Z 64
_cell_length_a 21.105034
_cell_length_b 12.958739
_cell_length_c 14.099462
_cell_angle_alpha 90.000000
_cell_angle_beta 90.000000
_cell_angle_gamma 90.000000
_cell_volume 3856.127103
_symmetry_space_group_name_H-M "C M M M"
_symmetry_group_IT_number 65
_symmetry_cell_setting 'orthorhombic'
loop_
_space_group_symop_operation_xyz
x,y,z
-x,-y,z
x,-y,-z
-x,y,-z
-x,-y,-z
x,y,-z
-x,y,z
x,-y,z
1/2+x,1/2+y,z
1/2-x,1/2-y,z
1/2+x,1/2-y,-z
1/2-x,1/2+y,-z
1/2-x,1/2-y,-z
1/2+x,1/2+y,-z
1/2-x,1/2+y,z
1/2+x,1/2-y,z
loop_
_atom_site_type_symbol
_atom_site_label
_atom_site_fract_x
_atom_site_fract_y
_atom_site_fract_z
Si Si1 0.305362 0.884234 0.887182
Si Si2 0.360667 0.374536 0.607926
Si Si3 0.924391 0.000000 0.886597
Si Si4 0.500000 0.616420 0.614155
Si Si5 0.168383 0.828848 0.191132
O O1 0.231044 0.868254 0.863177
O O2 0.340718 0.790031 0.836641
O O3 0.323884 0.000000 0.858096
O O4 0.313506 0.874667 0.000000
O O5 0.344524 0.342887 0.500000
O O6 0.362976 0.500000 0.607195
O O7 0.431835 0.335833 0.634179
O O8 0.319127 0.340500 0.696518
O O9 0.889594 0.098640 0.840322
O O10 0.000000 0.000000 0.872226
O O11 0.912776 0.000000 0.000000
O O12 0.500000 0.500000 0.654195
O O13 0.500000 0.606668 0.500000
#
# Coordination Sequence:
#
# PCOD9489860 Si02
#       5
#    16  16   8   8  16
#     4  10  20  35  54  71  94 132 178 218 243 293
#     4   9  16  26  42  68 101 132 163 199 242 299
#     4  11  22  32  47  79 115 133 153 209 277 316
#     4   7  12  22  38  60  91 128 161 191 228 284
#     4  11  19  31  52  75 102 132 169 206 257 304
#
# _framework density 16.596964
#
# number of rings (size 3 to 8) (size 9 to 14) (size 15 to 20)
#    0.000    2.250    2.500    4.500    1.750    0.000 
#    0.000    2.500    0.000    3.000    0.000    3.500 
#    0.000    3.000    0.000    0.000    0.000    0.000 
#
# Total GULP energy -178192.016640 kJ/mol
# GULP energy per Si atom -5568.500520 kJ/mol
# Density = 1.655919 g / cm^3
# Si number density = 16.596964 Si / 1000 Ang^3
#
#
#
# Elastic Constant Matrix: (Units=GPa)
#
#
# Indices 1 2 3 4 5 6 
#
# 1 39.2037 27.0923 9.8188 0.0000 0.0000 0.0000
# 2 27.0923 122.5110 46.8526 0.0000 0.0000 0.0000
# 3 9.8188 46.8526 109.3652 0.0000 0.0000 0.0000
# 4 0.0000 0.0000 0.0000 14.3468 0.0000 0.0000
# 5 0.0000 0.0000 0.0000 0.0000 6.5123 0.0000
# 6 0.0000 0.0000 0.0000 0.0000 0.0000 8.3867
#
#
#
# Elastic Compliance Matrix: (Units=1/GPa)
#
#
# Indices 1 2 3 4 5 6 
#
# 1 0.030112 -0.006727 0.000179 0.000000 0.000000 0.000000
# 2 -0.006727 0.011265 -0.004222 0.000000 0.000000 0.000000
# 3 0.000179 -0.004222 0.010936 0.000000 0.000000 0.000000
# 4 0.000000 0.000000 0.000000 0.069702 0.000000 0.000000
# 5 0.000000 0.000000 0.000000 0.000000 0.153556 0.000000
# 6 0.000000 0.000000 0.000000 0.000000 0.000000 0.119237
#
#
# Mechanical properties :
#
#
# Convention : Reuss Voigt Hill
#
# Bulk Modulus (GPa) = 32.49722 48.73414 40.61568
# Shear Modulus (GPa) = 11.72039 18.33689 15.02864
#
# Velocity S-wave (km/s) = 2.66028 3.32751 3.01243
# Velocity P-wave (km/s) = 5.39063 6.64757 6.05182
#
# Compressibility (1/GPa) = 0.03077186
#
# Stress axis : x y z
#
# Youngs Moduli (GPa) = 33.20926 88.77181 91.43826
#
# Poissons Ratio (x) = 0.59720 -0.01633
# Poissons Ratio (y) = 0.22341 0.38605
# Poissons Ratio (z) = -0.00593 0.37479
#
# Static dielectric constant tensor:
#      x y z
#    x 1.596460 0.000000 0.000000 
#    y 0.000000 1.565970 0.000000 
#    z 0.000000 0.000000 1.590640 
# 
# From -- ./inp_files/39949.got.cif
#   From: 2010.05.17/outbox.cif.g08.bks.cpg/sg65_20_cif.got.tgz:39949.got - 2010.06.03 17:01:31.
