data_PCOD9489888
_publ_section_title
;
Structure prediction by ZEFSAII (Michael W. Deem and Ramdas Pophale) SiO2 
 PCOD9489888
Probable space group: C M M M
;
_chemical_formula_sum "Si O2"
_cell_formula_units_Z 80
_cell_length_a 26.721256
_cell_length_b 8.866506
_cell_length_c 18.757510
_cell_angle_alpha 90.000000
_cell_angle_beta 90.000000
_cell_angle_gamma 90.000000
_cell_volume 4444.107613
_symmetry_space_group_name_H-M "C M M M"
_symmetry_group_IT_number 65
_symmetry_cell_setting 'orthorhombic'
loop_
_space_group_symop_operation_xyz
x,y,z
-x,-y,z
x,-y,-z
-x,y,-z
-x,-y,-z
x,y,-z
-x,y,z
x,-y,z
1/2+x,1/2+y,z
1/2-x,1/2-y,z
1/2+x,1/2-y,-z
1/2-x,1/2+y,-z
1/2-x,1/2-y,-z
1/2+x,1/2+y,-z
1/2-x,1/2+y,z
1/2+x,1/2-y,z
loop_
_atom_site_type_symbol
_atom_site_label
_atom_site_fract_x
_atom_site_fract_y
_atom_site_fract_z
Si Si1 0.302192 0.180195 0.337014
Si Si2 0.802020 0.818180 0.179264
Si Si3 0.000000 0.325672 0.413186
Si Si4 0.000000 0.674781 0.086588
Si Si5 0.604318 0.675103 0.413988
Si Si6 0.896437 0.818881 0.082536
O O1 0.250000 0.250000 0.365180
O O2 0.308712 0.248582 0.257809
O O3 0.349550 0.231816 0.382840
O O4 0.298222 0.000000 0.333839
O O5 0.750000 0.750000 0.150821
O O6 0.848866 0.777133 0.129887
O O7 0.798474 0.000000 0.184019
O O8 0.949141 0.242749 0.390514
O O9 0.000000 0.500000 0.390677
O O10 0.000000 0.323499 0.500000
O O11 0.051425 0.751700 0.110389
O O12 0.000000 0.500000 0.105699
O O13 0.000000 0.687727 0.000000
O O14 0.605697 0.681783 0.500000
O O15 0.608401 0.500000 0.392537
O O16 0.900587 0.000000 0.083049
O O17 0.889431 0.771084 0.000000
#
# Coordination Sequence:
#
# PCOD9489888 Si02
#       6
#    16  16   8   8  16  16
#     4  11  22  37  56  76 103 138 175 215 261 311
#     4  10  20  35  54  75 102 136 173 211 256 308
#     4   9  17  31  52  79 110 141 172 208 254 305
#     4   9  17  29  48  75 104 133 166 208 256 301
#     4  10  20  35  56  81 108 138 173 213 257 306
#     4   9  18  33  53  76 103 136 171 207 251 305
#
# _framework density 18.001363999999999
#
# number of rings (size 3 to 8) (size 9 to 14) (size 15 to 20)
#    0.000    2.200    0.000    4.800    0.000    6.000 
#    0.000    1.000    0.000    3.600    0.000    0.000 
#    0.000    0.000    0.000    0.000    0.000    0.000 
#
# Total GULP energy -223223.534693 kJ/mol
# GULP energy per Si atom -5580.588367 kJ/mol
# Density = 1.796039 g / cm^3
# Si number density = 18.001364 Si / 1000 Ang^3
#
#
#
# Elastic Constant Matrix: (Units=GPa)
#
#
# Indices 1 2 3 4 5 6 
#
# 1 185.4155 73.0932 43.4460 0.0000 0.0000 0.0000
# 2 73.0932 106.6861 25.8482 0.0000 0.0000 0.0000
# 3 43.4460 25.8482 18.6231 0.0000 0.0000 0.0000
# 4 0.0000 0.0000 0.0000 21.8286 0.0000 0.0000
# 5 0.0000 0.0000 0.0000 0.0000 242.0120 0.0000
# 6 0.0000 0.0000 0.0000 0.0000 0.0000 36.9934
#
#
#
# Elastic Compliance Matrix: (Units=1/GPa)
#
#
# Indices 1 2 3 4 5 6 
#
# 1 0.012233 -0.002210 -0.025470 0.000000 0.000000 0.000000
# 2 -0.002210 0.014522 -0.015000 0.000000 0.000000 0.000000
# 3 -0.025470 -0.015000 0.133937 0.000000 0.000000 0.000000
# 4 0.000000 0.000000 0.000000 0.045811 0.000000 0.000000
# 5 0.000000 0.000000 0.000000 0.000000 0.004132 0.000000
# 6 0.000000 0.000000 0.000000 0.000000 0.000000 0.027032
#
#
# Mechanical properties :
#
#
# Convention : Reuss Voigt Hill
#
# Bulk Modulus (GPa) = 13.27490 66.16662 39.72076
# Shear Modulus (GPa) = 14.36216 71.38928 42.87572
#
# Velocity S-wave (km/s) = 2.82767 6.30427 4.88567
# Velocity P-wave (km/s) = 4.24868 9.47776 7.34436
#
# Compressibility (1/GPa) = 0.07533012
#
# Stress axis : x y z
#
# Youngs Moduli (GPa) = 81.74908 68.86313 7.46621
#
# Poissons Ratio (x) = 0.15217 0.19017
# Poissons Ratio (y) = 0.18065 0.11199
# Poissons Ratio (z) = 2.08218 1.03296
#
# Static dielectric constant tensor:
#      x y z
#    x 1.607540 0.000000 0.000000 
#    y 0.000000 1.604900 0.000000 
#    z 0.000000 0.000000 1.606510 
# 
# From -- ./inp_files/65089.got.cif
#   From: 2010.05.17/outbox.cif.g08.bks.cpg/sg65_33_cif.got.tgz:65089.got - 2010.06.03 17:01:31.
