data_PCOD9489631
_publ_section_title
;
Structure prediction by ZEFSAII (Michael W. Deem and Ramdas Pophale) SiO2 
 PCOD9489631
Probable space group: C M M M
;
_chemical_formula_sum "Si O2"
_cell_formula_units_Z 88
_cell_length_a 17.885025
_cell_length_b 8.835334
_cell_length_c 29.084969
_cell_angle_alpha 90.000000
_cell_angle_beta 90.000000
_cell_angle_gamma 90.000000
_cell_volume 4596.011731
_symmetry_space_group_name_H-M "C M M M"
_symmetry_group_IT_number 65
_symmetry_cell_setting 'orthorhombic'
loop_
_space_group_symop_operation_xyz
x,y,z
-x,-y,z
x,-y,-z
-x,y,-z
-x,-y,-z
x,y,-z
-x,y,z
x,-y,z
1/2+x,1/2+y,z
1/2-x,1/2-y,z
1/2+x,1/2-y,-z
1/2-x,1/2+y,-z
1/2-x,1/2-y,-z
1/2+x,1/2+y,-z
1/2-x,1/2+y,z
1/2+x,1/2-y,z
loop_
_atom_site_type_symbol
_atom_site_label
_atom_site_fract_x
_atom_site_fract_y
_atom_site_fract_z
Si Si1 0.410671 0.321258 0.178408
Si Si2 0.589452 0.678733 0.000000
Si Si3 0.667136 0.818906 0.910711
Si Si4 0.090108 0.823314 0.645775
Si Si5 0.667440 0.819963 0.732932
Si Si6 0.409166 0.822993 0.449213
O O1 0.500000 0.305136 0.176601
O O2 0.392558 0.500000 0.176437
O O3 0.373640 0.237926 0.135286
O O4 0.379478 0.251551 0.225369
O O5 0.623241 0.756147 0.045124
O O6 0.608222 0.500000 0.000000
O O7 0.500000 0.693108 0.000000
O O8 0.750000 0.750000 0.911443
O O9 0.670311 0.000000 0.911808
O O10 0.128744 0.725544 0.685069
O O11 0.115109 0.771593 0.594935
O O12 0.000000 0.804477 0.648515
O O13 0.106947 0.000000 0.653130
O O14 0.750000 0.750000 0.734272
O O15 0.670870 0.000000 0.737868
O O16 0.383654 0.771727 0.500000
O O17 0.500000 0.816095 0.449773
O O18 0.389379 0.000000 0.443648
#
# Coordination Sequence:
#
# PCOD9489631 Si02
#       6
#    16   8  16  16  16  16
#     4  11  24  43  66  92 123 156 193 240 293 348
#     4  11  24  43  66  93 127 165 206 253 304 353
#     4  12  25  42  65  93 127 164 205 249 296 352
#     4  10  20  34  54  82 115 149 188 235 286 341
#     4  12  25  41  61  84 114 151 193 239 289 347
#     4   8  14  26  46  74 108 145 186 232 281 334
#
# _framework density 19.147034999999999
#
# number of rings (size 3 to 8) (size 9 to 14) (size 15 to 20)
#    0.000    1.364    0.000    7.091    0.000    8.000 
#    0.000    1.818    0.000    0.545    0.000    0.000 
#    0.000    0.000    0.000    0.000    0.000    0.000 
#
# Total GULP energy -246047.996982 kJ/mol
# GULP energy per Si atom -5591.999931 kJ/mol
# Density = 1.910346 g / cm^3
# Si number density = 19.147035 Si / 1000 Ang^3
#
#
#
# Elastic Constant Matrix: (Units=GPa)
#
#
# Indices 1 2 3 4 5 6 
#
# 1 63.5239 70.4803 48.0180 0.0000 0.0000 0.0000
# 2 70.4803 172.6668 76.6984 0.0000 0.0000 0.0000
# 3 48.0180 76.6984 154.1860 0.0000 0.0000 0.0000
# 4 0.0000 0.0000 0.0000 40.8616 0.0000 0.0000
# 5 0.0000 0.0000 0.0000 0.0000 130.1789 0.0000
# 6 0.0000 0.0000 0.0000 0.0000 0.0000 28.4783
#
#
#
# Elastic Compliance Matrix: (Units=1/GPa)
#
#
# Indices 1 2 3 4 5 6 
#
# 1 0.030836 -0.010681 -0.004290 0.000000 0.000000 0.000000
# 2 -0.010681 0.011134 -0.002212 0.000000 0.000000 0.000000
# 3 -0.004290 -0.002212 0.008922 0.000000 0.000000 0.000000
# 4 0.000000 0.000000 0.000000 0.024473 0.000000 0.000000
# 5 0.000000 0.000000 0.000000 0.000000 0.007682 0.000000
# 6 0.000000 0.000000 0.000000 0.000000 0.000000 0.035114
#
#
# Mechanical properties :
#
#
# Convention : Reuss Voigt Hill
#
# Bulk Modulus (GPa) = 60.51259 86.75221 73.63240
# Shear Modulus (GPa) = 31.63847 52.91575 42.27711
#
# Velocity S-wave (km/s) = 4.06938 5.26275 4.70406
# Velocity P-wave (km/s) = 7.33161 9.07389 8.24888
#
# Compressibility (1/GPa) = 0.01652549
#
# Stress axis : x y z
#
# Youngs Moduli (GPa) = 32.43001 89.81489 112.08187
#
# Poissons Ratio (x) = 0.95933 0.48082
# Poissons Ratio (y) = 0.34639 0.24794
# Poissons Ratio (z) = 0.13912 0.19868
#
# Static dielectric constant tensor:
#      x y z
#    x 1.642810 0.000000 0.000000 
#    y 0.000000 1.641050 0.000000 
#    z 0.000000 0.000000 1.645720 
# 
# From -- ./inp_files/77970.got.cif
#   From: 2010.05.17/outbox.cif.g08.bks.cpg/sg65_39_cif.got.tgz:77970.got - 2010.06.03 17:01:31.
