data_PCOD9489406
_publ_section_title
;
Structure prediction by ZEFSAII (Michael W. Deem and Ramdas Pophale) SiO2 
 PCOD9489406
Probable space group: C M M M
;
_chemical_formula_sum "Si O2"
_cell_formula_units_Z 112
_cell_length_a 15.617030
_cell_length_b 14.385459
_cell_length_c 24.682828
_cell_angle_alpha 90.000000
_cell_angle_beta 90.000000
_cell_angle_gamma 90.000000
_cell_volume 5545.198346
_symmetry_space_group_name_H-M "C M M M"
_symmetry_group_IT_number 65
_symmetry_cell_setting 'orthorhombic'
loop_
_space_group_symop_operation_xyz
x,y,z
-x,-y,z
x,-y,-z
-x,y,-z
-x,-y,-z
x,y,-z
-x,y,z
x,-y,z
1/2+x,1/2+y,z
1/2-x,1/2-y,z
1/2+x,1/2-y,-z
1/2-x,1/2+y,-z
1/2-x,1/2-y,-z
1/2+x,1/2+y,-z
1/2-x,1/2+y,z
1/2+x,1/2-y,z
loop_
_atom_site_type_symbol
_atom_site_label
_atom_site_fract_x
_atom_site_fract_y
_atom_site_fract_z
Si Si1 0.126889 0.605629 0.341942
Si Si2 0.095526 0.400476 0.104716
Si Si3 0.402736 0.243189 0.561175
Si Si4 0.772513 0.858652 0.058557
Si Si5 0.671046 0.394994 0.366510
Si Si6 0.402244 0.692372 0.851627
Si Si7 0.647748 0.730134 0.268372
O O1 0.096727 0.500000 0.336445
O O2 0.098140 0.658439 0.396365
O O3 0.229477 0.602342 0.350067
O O4 0.108830 0.672640 0.290617
O O5 0.096871 0.500000 0.135403
O O6 0.179455 0.402637 0.067681
O O7 0.105039 0.303753 0.136481
O O8 0.000000 0.395414 0.078800
O O9 0.380314 0.215087 0.500000
O O10 0.500000 0.279955 0.561021
O O11 0.342918 0.325085 0.583748
O O12 0.750000 0.750000 0.055784
O O13 0.837193 0.863647 0.109359
O O14 0.809202 0.886728 0.000000
O O15 0.641561 0.500000 0.376367
O O16 0.627973 0.343760 0.315563
O O17 0.500000 0.664960 0.862981
O O18 0.381964 0.688486 0.788296
O O19 0.750000 0.750000 0.264216
#
# Coordination Sequence:
#
# PCOD9489406 Si02
#       7
#    16  16  16  16  16  16  16
#     4   9  19  35  55  80 107 138 179 224 272 327
#     4   9  18  32  52  81 111 135 167 217 276 333
#     4  10  21  35  51  75 109 146 180 217 266 324
#     4   9  18  33  52  74 103 141 179 214 261 319
#     4   9  19  36  57  79 102 134 180 231 278 321
#     4  10  20  34  53  78 108 143 184 224 263 319
#     4   9  17  32  53  77 107 139 174 223 282 334
#
# _framework density 20.197654
#
# number of rings (size 3 to 8) (size 9 to 14) (size 15 to 20)
#    0.000    2.714    0.000    2.571    0.000    6.000 
#    0.000   10.000    0.000    1.286    0.000    1.000 
#    0.000    0.000    0.000    0.000    0.000    0.000 
#
# Total GULP energy -311785.516707 kJ/mol
# GULP energy per Si atom -5567.598513 kJ/mol
# Density = 2.015168 g / cm^3
# Si number density = 20.197654 Si / 1000 Ang^3
#
#
#
# Elastic Constant Matrix: (Units=GPa)
#
#
# Indices 1 2 3 4 5 6 
#
# 1 68.0884 25.6725 32.1256 0.0000 0.0000 0.0000
# 2 25.6725 80.0075 11.5912 0.0000 0.0000 0.0000
# 3 32.1256 11.5912 122.1324 0.0000 0.0000 0.0000
# 4 0.0000 0.0000 0.0000-1436.7703 0.0000 0.0000
# 5 0.0000 0.0000 0.0000 0.0000 -53.5089 0.0000
# 6 0.0000 0.0000 0.0000 0.0000 0.0000 3.7336
#
#
#
# Elastic Compliance Matrix: (Units=1/GPa)
#
#
# Indices 1 2 3 4 5 6 
#
# 1 0.018814 -0.005394 -0.004437 0.000000 0.000000 0.000000
# 2 -0.005394 0.014220 0.000069 0.000000 0.000000 0.000000
# 3 -0.004437 0.000069 0.009348 0.000000 0.000000 0.000000
# 4 0.000000 0.000000 0.000000 -0.000696 0.000000 0.000000
# 5 0.000000 0.000000 0.000000 0.000000 -0.018688 0.000000
# 6 0.000000 0.000000 0.000000 0.000000 0.000000 0.267839
#
#
# Mechanical properties :
#
#
# Convention : Reuss Voigt Hill
#
# Bulk Modulus (GPa) = 43.74726 45.44522 44.59624
# Shear Modulus (GPa) = 15.72426 -283.91986 -134.09780
#
# Velocity S-wave (km/s) = 2.79322 -11.86911 -8.15701
# Velocity P-wave (km/s) = 5.66651 12.85634 8.16015
#
# Compressibility (1/GPa) = 0.02285857
#
# Stress axis : x y z
#
# Youngs Moduli (GPa) = 53.15172 70.32518 106.97101
#
# Poissons Ratio (x) = 0.37935 0.47462
# Poissons Ratio (y) = 0.28671 -0.00742
# Poissons Ratio (z) = 0.23583 -0.00488
#
# Static dielectric constant tensor:
#      x y z
#    x 1.750590 0.000000 0.000000 
#    y 0.000000 1.738920 0.000000 
#    z 0.000000 0.000000 1.716600 
# 
# From -- ./inp_files/70008.got.cif
#   From: 2010.05.17/outbox.cif.g08.bks.cpg/sg65_36_cif.got.tgz:70008.got - 2010.06.03 17:01:31.
