data_PCOD9489578
_publ_section_title
;
Structure prediction by ZEFSAII (Michael W. Deem and Ramdas Pophale) SiO2 
 PCOD9489578
Probable space group: C M M M
;
_chemical_formula_sum "Si O2"
_cell_formula_units_Z 116
_cell_length_a 29.151484
_cell_length_b 27.774820
_cell_length_c 7.886158
_cell_angle_alpha 90.000000
_cell_angle_beta 90.000000
_cell_angle_gamma 90.000000
_cell_volume 6385.242492
_symmetry_space_group_name_H-M "C M M M"
_symmetry_group_IT_number 65
_symmetry_cell_setting 'orthorhombic'
loop_
_space_group_symop_operation_xyz
x,y,z
-x,-y,z
x,-y,-z
-x,y,-z
-x,-y,-z
x,y,-z
-x,y,z
x,-y,z
1/2+x,1/2+y,z
1/2-x,1/2-y,z
1/2+x,1/2-y,-z
1/2-x,1/2+y,-z
1/2-x,1/2-y,-z
1/2+x,1/2+y,-z
1/2-x,1/2+y,z
1/2+x,1/2-y,z
loop_
_atom_site_type_symbol
_atom_site_label
_atom_site_fract_x
_atom_site_fract_y
_atom_site_fract_z
Si Si1 0.449066 0.312686 0.800851
Si Si2 0.797326 0.054613 0.202833
Si Si3 0.856640 0.143926 0.699312
Si Si4 0.665643 0.000000 0.500000
Si Si5 0.448606 0.796091 0.697283
Si Si6 0.190441 0.575345 0.796067
Si Si7 0.202574 0.231385 0.694787
Si Si8 0.148393 0.680062 0.193593
O O1 0.500000 0.330114 0.750385
O O2 0.407512 0.348814 0.770100
O O3 0.440708 0.261452 0.711604
O O4 0.449947 0.301615 0.000000
O O5 0.833377 0.092643 0.273020
O O6 0.745110 0.071107 0.235808
O O7 0.802644 0.000000 0.267768
O O8 0.802807 0.053678 0.000000
O O9 0.860806 0.153365 0.500000
O O10 0.822884 0.185334 0.773156
O O11 0.667994 0.958528 0.346459
O O12 0.448138 0.809270 0.500000
O O13 0.500000 0.805272 0.765685
O O14 0.406302 0.822258 0.784822
O O15 0.172462 0.629477 0.770790
O O16 0.183238 0.563244 0.000000
O O17 0.213790 0.217603 0.500000
O O18 0.250000 0.250000 0.774670
O O19 0.168153 0.276358 0.696660
O O20 0.158792 0.693392 0.000000
#
# Coordination Sequence:
#
# PCOD9489578 Si02
#       8
#    16  16  16   4  16  16  16  16
#     4  10  20  35  55  78 107 146 188 228 280 343
#     4  10  21  39  58  78 113 147 188 244 283 330
#     4  11  22  33  53  82 110 147 188 231 282 336
#     4  12  22  36  68  82 111 166 187 248 290 344
#     4  10  20  34  54  80 113 148 187 233 278 334
#     4  10  23  39  57  89 118 148 198 245 288 342
#     4  10  21  35  49  74 114 152 188 223 265 337
#     4  11  22  35  55  82 116 150 185 232 281 341
#
# _framework density 18.166889999999999
#
# number of rings (size 3 to 8) (size 9 to 14) (size 15 to 20)
#    0.000    1.655    2.069    2.690    2.897    2.759 
#    0.000    0.000    0.000    0.414    0.000    3.862 
#    0.000    2.207    0.000    0.000    0.000    0.000 
#
# Total GULP energy -323056.319207 kJ/mol
# GULP energy per Si atom -5569.936538 kJ/mol
# Density = 1.812554 g / cm^3
# Si number density = 18.166890 Si / 1000 Ang^3
#
#
#
# Elastic Constant Matrix: (Units=GPa)
#
#
# Indices 1 2 3 4 5 6 
#
# 1 108.7026 60.2224 10.6057 0.0000 0.0000 0.0000
# 2 60.2224 94.6635 14.0162 0.0000 0.0000 0.0000
# 3 10.6057 14.0162 44.6711 0.0000 0.0000 0.0000
# 4 0.0000 0.0000 0.0000 15.5719 0.0000 0.0000
# 5 0.0000 0.0000 0.0000 0.0000 16.6749 0.0000
# 6 0.0000 0.0000 0.0000 0.0000 0.0000 -5.5252
#
#
#
# Elastic Compliance Matrix: (Units=1/GPa)
#
#
# Indices 1 2 3 4 5 6 
#
# 1 0.014220 -0.008963 -0.000564 0.000000 0.000000 0.000000
# 2 -0.008963 0.016728 -0.003121 0.000000 0.000000 0.000000
# 3 -0.000564 -0.003121 0.023499 0.000000 0.000000 0.000000
# 4 0.000000 0.000000 0.000000 0.064218 0.000000 0.000000
# 5 0.000000 0.000000 0.000000 0.000000 0.059970 0.000000
# 6 0.000000 0.000000 0.000000 0.000000 0.000000 -0.180989
#
#
# Mechanical properties :
#
#
# Convention : Reuss Voigt Hill
#
# Bulk Modulus (GPa) = 34.30314 46.41398 40.35856
# Shear Modulus (GPa) = 153.10178 16.22384 84.66281
#
# Velocity S-wave (km/s) = 9.19011 2.99163 6.83403
# Velocity P-wave (km/s) = 11.46883 6.12676 9.19433
#
# Compressibility (1/GPa) = 0.02915185
#
# Stress axis : x y z
#
# Youngs Moduli (GPa) = 70.32380 59.78101 42.55528
#
# Poissons Ratio (x) = 0.53581 0.02399
# Poissons Ratio (y) = 0.63030 0.13280
# Poissons Ratio (z) = 0.03965 0.18655
#
# Static dielectric constant tensor:
#      x y z
#    x 1.648080 0.000000 0.000000 
#    y 0.000000 1.603250 0.000000 
#    z 0.000000 0.000000 1.662800 
# 
# From -- ./inp_files/17065.got.cif
#   From: 2010.05.17/outbox.cif.g08.bks.cpg/sg65_9_cif.got.tgz:17065.got - 2010.06.03 17:01:31.
