data_PCOD9489296
_publ_section_title
;
Structure prediction by ZEFSAII (Michael W. Deem and Ramdas Pophale) SiO2 
 PCOD9489296
Probable space group: C M M M
;
_chemical_formula_sum "Si O2"
_cell_formula_units_Z 88
_cell_length_a 9.110832
_cell_length_b 20.221373
_cell_length_c 29.043393
_cell_angle_alpha 90.000000
_cell_angle_beta 90.000000
_cell_angle_gamma 90.000000
_cell_volume 5350.766880
_symmetry_space_group_name_H-M "C M M M"
_symmetry_group_IT_number 65
_symmetry_cell_setting 'orthorhombic'
loop_
_space_group_symop_operation_xyz
x,y,z
-x,-y,z
x,-y,-z
-x,y,-z
-x,-y,-z
x,y,-z
-x,y,z
x,-y,z
1/2+x,1/2+y,z
1/2-x,1/2-y,z
1/2+x,1/2-y,-z
1/2-x,1/2+y,-z
1/2-x,1/2-y,-z
1/2+x,1/2+y,-z
1/2-x,1/2+y,z
1/2+x,1/2-y,z
loop_
_atom_site_type_symbol
_atom_site_label
_atom_site_fract_x
_atom_site_fract_y
_atom_site_fract_z
Si Si1 0.176690 0.423527 0.306085
Si Si2 0.323694 0.820245 0.228517
Si Si3 0.824543 0.679367 0.878046
Si Si4 0.820887 0.923091 0.500000
Si Si5 0.670679 0.580565 0.599943
Si Si6 0.675390 0.422524 0.053580
O O1 0.223171 0.500000 0.298933
O O2 0.223752 0.376329 0.264444
O O3 0.239101 0.399981 0.355158
O O4 0.000000 0.422947 0.308000
O O5 0.500000 0.813438 0.231763
O O6 0.250000 0.750000 0.238960
O O7 0.289500 0.837397 0.175365
O O8 0.750000 0.750000 0.887960
O O9 0.761784 0.624567 0.912171
O O10 0.000000 0.684805 0.882415
O O11 0.775872 0.894809 0.549691
O O12 0.000000 0.922987 0.500000
O O13 0.774410 0.000000 0.500000
O O14 0.500000 0.598884 0.605598
O O15 0.675831 0.500000 0.597795
O O16 0.500000 0.413547 0.059418
O O17 0.707855 0.500000 0.061776
O O18 0.709909 0.408147 0.000000
#
# Coordination Sequence:
#
# PCOD9489296 Si02
#       6
#    16  16  16   8  16  16
#     4   9  17  29  44  64  92 121 147 181 228 276
#     4   9  19  34  50  68  92 123 156 191 231 274
#     4  10  20  34  53  75  98 126 162 202 240 281
#     4   7  10  18  33  53  80 113 144 177 219 263
#     4   8  13  22  37  58  84 114 148 183 219 263
#     4   9  19  36  55  75 102 133 161 193 236 282
#
# _framework density 16.446241000000001
#
# number of rings (size 3 to 8) (size 9 to 14) (size 15 to 20)
#    0.000    3.182    0.000    2.182    0.000    3.273 
#    0.000    3.182    0.000    4.909    0.000    0.636 
#    0.000    0.000    0.000    0.000    0.000    0.000 
#
# Total GULP energy -244959.863251 kJ/mol
# GULP energy per Si atom -5567.269619 kJ/mol
# Density = 1.640881 g / cm^3
# Si number density = 16.446241 Si / 1000 Ang^3
#
#
#
# Elastic Constant Matrix: (Units=GPa)
#
#
# Indices 1 2 3 4 5 6 
#
# 1 27.4798 37.6817 55.5783 0.0000 0.0000 0.0000
# 2 37.6817 73.6697 95.2603 0.0000 0.0000 0.0000
# 3 55.5783 95.2603 154.9354 0.0000 0.0000 0.0000
# 4 0.0000 0.0000 0.0000 -11.7142 0.0000 0.0000
# 5 0.0000 0.0000 0.0000 0.0000 29.7344 0.0000
# 6 0.0000 0.0000 0.0000 0.0000 0.0000 22.9174
#
#
#
# Elastic Compliance Matrix: (Units=1/GPa)
#
#
# Indices 1 2 3 4 5 6 
#
# 1 0.148657 -0.034556 -0.032080 0.000000 0.000000 0.000000
# 2 -0.034556 0.074258 -0.033261 0.000000 0.000000 0.000000
# 3 -0.032080 -0.033261 0.038412 0.000000 0.000000 0.000000
# 4 0.000000 0.000000 0.000000 -0.085366 0.000000 0.000000
# 5 0.000000 0.000000 0.000000 0.000000 0.033631 0.000000
# 6 0.000000 0.000000 0.000000 0.000000 0.000000 0.043635
#
#
# Mechanical properties :
#
#
# Convention : Reuss Voigt Hill
#
# Bulk Modulus (GPa) = 16.25120 70.34728 43.29924
# Shear Modulus (GPa) = 10.55899 12.69184 11.62541
#
# Velocity S-wave (km/s) = 2.53658 2.78099 2.66159
# Velocity P-wave (km/s) = 4.29905 7.29238 5.98584
#
# Compressibility (1/GPa) = 0.06153394
#
# Stress axis : x y z
#
# Youngs Moduli (GPa) = 6.72689 13.46661 26.03362
#
# Poissons Ratio (x) = 0.46535 0.83515
# Poissons Ratio (y) = 0.23245 0.86590
# Poissons Ratio (z) = 0.21580 0.44791
#
# Static dielectric constant tensor:
#      x y z
#    x 1.548750 0.000000 0.000000 
#    y 0.000000 1.528480 0.000000 
#    z 0.000000 0.000000 1.572240 
# 
# From -- ./inp_files/67547.got.cif
#   From: 2010.05.17/outbox.cif.g08.bks.cpg/sg65_34_cif.got.tgz:67547.got - 2010.06.03 17:01:31.
