data_PCOD9489007
_publ_section_title
;
Structure prediction by ZEFSAII (Michael W. Deem and Ramdas Pophale) SiO2 
 PCOD9489007
Probable space group: C M M M
;
_chemical_formula_sum "Si O2"
_cell_formula_units_Z 84
_cell_length_a 15.200266
_cell_length_b 26.845202
_cell_length_c 11.782215
_cell_angle_alpha 90.000000
_cell_angle_beta 90.000000
_cell_angle_gamma 90.000000
_cell_volume 4807.782448
_symmetry_space_group_name_H-M "C M M M"
_symmetry_group_IT_number 65
_symmetry_cell_setting 'orthorhombic'
loop_
_space_group_symop_operation_xyz
x,y,z
-x,-y,z
x,-y,-z
-x,y,-z
-x,-y,-z
x,y,-z
-x,y,z
x,-y,z
1/2+x,1/2+y,z
1/2-x,1/2-y,z
1/2+x,1/2-y,-z
1/2-x,1/2+y,-z
1/2-x,1/2-y,-z
1/2+x,1/2+y,-z
1/2-x,1/2+y,z
1/2+x,1/2-y,z
loop_
_atom_site_type_symbol
_atom_site_label
_atom_site_fract_x
_atom_site_fract_y
_atom_site_fract_z
Si Si1 0.678906 0.889362 0.865919
Si Si2 0.500000 0.325860 0.500000
Si Si3 0.861747 0.941733 0.133111
Si Si4 0.000000 0.127208 0.745914
Si Si5 0.665379 0.786187 0.747935
Si Si6 0.000000 0.234838 0.134777
Si Si7 0.854452 0.739579 0.500000
Si Si8 0.500000 0.056725 0.862076
O O1 0.759580 0.927434 0.854653
O O2 0.693428 0.839482 0.795336
O O3 0.587965 0.914529 0.828941
O O4 0.672254 0.876511 0.000000
O O5 0.500000 0.358971 0.613392
O O6 0.414930 0.289116 0.500000
O O7 0.917444 0.905508 0.212745
O O8 0.877024 0.000000 0.157126
O O9 0.885449 0.933121 0.000000
O O10 0.000000 0.180058 0.810367
O O11 0.750000 0.750000 0.751845
O O12 0.586613 0.763742 0.822842
O O13 0.630161 0.788205 0.618637
O O14 0.000000 0.231196 0.000000
O O15 0.750000 0.750000 0.500000
O O16 0.500000 0.000000 0.821366
O O17 0.500000 0.055124 0.000000
#
# Coordination Sequence:
#
# PCOD9489007 Si02
#       8
#    16   4  16   8  16   8   8   8
#     4  10  20  33  54  86 119 152 189 233 291 346
#     4  12  24  44  61  86 114 156 197 248 288 348
#     4  10  21  38  59  85 118 155 197 243 294 355
#     4  12  23  38  60  82 112 152 196 241 290 349
#     4  11  22  37  56  82 116 150 194 234 279 344
#     4  12  23  35  55  84 119 153 184 236 294 348
#     4  10  22  40  62  80 112 159 201 235 283 334
#     4   9  17  32  53  78 111 148 186 229 277 334
#
# _framework density 17.471672000000002
#
# number of rings (size 3 to 8) (size 9 to 14) (size 15 to 20)
#    0.000    1.429    1.905    4.000    2.667    6.857 
#    0.000    0.952    0.000    0.000    0.000    2.667 
#    0.000    0.000    0.000    0.000    0.000    0.000 
#
# Total GULP energy -234541.852079 kJ/mol
# GULP energy per Si atom -5584.329811 kJ/mol
# Density = 1.743191 g / cm^3
# Si number density = 17.471672 Si / 1000 Ang^3
#
#
#
# Elastic Constant Matrix: (Units=GPa)
#
#
# Indices 1 2 3 4 5 6 
#
# 1 87.5898 10.1461 18.0988 0.0000 0.0000 0.0000
# 2 10.1461 74.9643 27.0462 0.0000 0.0000 0.0000
# 3 18.0988 27.0462 109.6176 0.0000 0.0000 0.0000
# 4 0.0000 0.0000 0.0000 -6.0693 0.0000 0.0000
# 5 0.0000 0.0000 0.0000 0.0000 2828.9482 0.0000
# 6 0.0000 0.0000 0.0000 0.0000 0.0000 35.5901
#
#
#
# Elastic Compliance Matrix: (Units=1/GPa)
#
#
# Indices 1 2 3 4 5 6 
#
# 1 0.011887 -0.000989 -0.001719 0.000000 0.000000 0.000000
# 2 -0.000989 0.014725 -0.003470 0.000000 0.000000 0.000000
# 3 -0.001719 -0.003470 0.010263 0.000000 0.000000 0.000000
# 4 0.000000 0.000000 0.000000 -0.164764 0.000000 0.000000
# 5 0.000000 0.000000 0.000000 0.000000 0.000353 0.000000
# 6 0.000000 0.000000 0.000000 0.000000 0.000000 0.028098
#
#
# Mechanical properties :
#
#
# Convention : Reuss Voigt Hill
#
# Bulk Modulus (GPa) = 40.78337 42.52823 41.65580
# Shear Modulus (GPa) = -63.36274 586.15250 261.39488
#
# Velocity S-wave (km/s) = -6.02866 18.33618 12.24481
# Velocity P-wave (km/s) = 5.00663 21.74124 14.96020
#
# Compressibility (1/GPa) = 0.02451980
#
# Stress axis : x y z
#
# Youngs Moduli (GPa) = 84.12897 67.90969 97.44173
#
# Poissons Ratio (x) = 0.06714 0.16746
# Poissons Ratio (y) = 0.08318 0.33812
# Poissons Ratio (z) = 0.14459 0.23565
#
# Static dielectric constant tensor:
#      x y z
#    x 1.608690 0.000000 0.000000 
#    y 0.000000 1.459040 0.000000 
#    z 0.000000 0.000000 1.582600 
# 
# From -- ./inp_files/24911.got.cif
#   From: 2010.05.17/outbox.cif.g08.bks.cpg/sg65_13_cif.got.tgz:24911.got - 2010.06.03 17:01:31.
