data_PCOD9489679
_publ_section_title
;
Structure prediction by ZEFSAII (Michael W. Deem and Ramdas Pophale) SiO2 
 PCOD9489679
Probable space group: C M M M
;
_chemical_formula_sum "Si O2"
_cell_formula_units_Z 116
_cell_length_a 29.475076
_cell_length_b 7.982413
_cell_length_c 28.070539
_cell_angle_alpha 90.000000
_cell_angle_beta 90.000000
_cell_angle_gamma 90.000000
_cell_volume 6604.499009
_symmetry_space_group_name_H-M "C M M M"
_symmetry_group_IT_number 65
_symmetry_cell_setting 'orthorhombic'
loop_
_space_group_symop_operation_xyz
x,y,z
-x,-y,z
x,-y,-z
-x,y,-z
-x,-y,-z
x,y,-z
-x,y,z
x,-y,z
1/2+x,1/2+y,z
1/2-x,1/2-y,z
1/2+x,1/2-y,-z
1/2-x,1/2+y,-z
1/2-x,1/2-y,-z
1/2+x,1/2+y,-z
1/2-x,1/2+y,z
1/2+x,1/2-y,z
loop_
_atom_site_type_symbol
_atom_site_label
_atom_site_fract_x
_atom_site_fract_y
_atom_site_fract_z
Si Si1 0.147054 0.195842 0.448431
Si Si2 0.302640 0.802759 0.067491
Si Si3 0.697966 0.803209 0.353498
Si Si4 0.949186 0.302840 0.416494
Si Si5 0.642827 0.200431 0.262349
Si Si6 0.550984 0.700250 0.692708
Si Si7 0.200035 0.804877 0.826709
Si Si8 0.832044 0.000000 0.000000
O O1 0.160162 0.268912 0.500000
O O2 0.172252 0.268340 0.402747
O O3 0.093111 0.217578 0.441654
O O4 0.157744 0.000000 0.448780
O O5 0.250000 0.750000 0.058554
O O6 0.309959 0.790901 0.124251
O O7 0.329538 0.653437 0.040926
O O8 0.309007 0.000000 0.053615
O O9 0.750000 0.750000 0.355385
O O10 0.670857 0.730874 0.308153
O O11 0.697467 0.000000 0.346418
O O12 0.947611 0.500000 0.427557
O O13 0.942658 0.279702 0.359653
O O14 0.000000 0.239843 0.428060
O O15 0.590615 0.242697 0.272549
O O16 0.663760 0.273786 0.214406
O O17 0.647509 0.000000 0.259736
O O18 0.500000 0.743747 0.708857
O O19 0.553472 0.500000 0.686647
O O20 0.250000 0.750000 0.809120
O O21 0.202523 0.000000 0.838713
#
# Coordination Sequence:
#
# PCOD9489679 Si02
#       8
#    16  16  16  16  16  16  16   4
#     4  11  24  40  58  79 105 134 169 215 266 318
#     4  11  20  31  47  70 103 142 192 246 284 329
#     4  11  24  40  59  81 103 133 176 221 262 320
#     4  10  20  35  56  81 109 137 167 207 255 315
#     4  11  22  36  57  82 107 142 180 219 272 324
#     4  10  20  34  55  83 110 138 172 214 261 318
#     4  11  21  36  51  74 109 148 190 239 282 324
#     4  12  20  32  46  74 100 146 199 242 281 338
#
# _framework density 17.563783999999998
#
# number of rings (size 3 to 8) (size 9 to 14) (size 15 to 20)
#    0.000    1.241    2.759    4.966    0.000    6.069 
#    0.000    1.379    0.000    0.000    0.000    0.000 
#    0.000    0.000    0.000    1.241    0.000    5.379 
#
# Total GULP energy -323312.351424 kJ/mol
# GULP energy per Si atom -5574.350887 kJ/mol
# Density = 1.752381 g / cm^3
# Si number density = 17.563784 Si / 1000 Ang^3
#
#
#
# Elastic Constant Matrix: (Units=GPa)
#
#
# Indices 1 2 3 4 5 6 
#
# 1 70.9837 7.3207 38.9283 0.0000 0.0000 0.0000
# 2 7.3207 87.7884 13.5408 0.0000 0.0000 0.0000
# 3 38.9283 13.5408 93.1934 0.0000 0.0000 0.0000
# 4 0.0000 0.0000 0.0000 21.9885 0.0000 0.0000
# 5 0.0000 0.0000 0.0000 0.0000 64.1369 0.0000
# 6 0.0000 0.0000 0.0000 0.0000 0.0000 24.2718
#
#
#
# Elastic Compliance Matrix: (Units=1/GPa)
#
#
# Indices 1 2 3 4 5 6 
#
# 1 0.018285 -0.000355 -0.007586 0.000000 0.000000 0.000000
# 2 -0.000355 0.011659 -0.001546 0.000000 0.000000 0.000000
# 3 -0.007586 -0.001546 0.014124 0.000000 0.000000 0.000000
# 4 0.000000 0.000000 0.000000 0.045478 0.000000 0.000000
# 5 0.000000 0.000000 0.000000 0.000000 0.015592 0.000000
# 6 0.000000 0.000000 0.000000 0.000000 0.000000 0.041200
#
#
# Mechanical properties :
#
#
# Convention : Reuss Voigt Hill
#
# Bulk Modulus (GPa) = 39.85009 41.28278 40.56644
# Shear Modulus (GPa) = 28.78925 34.89116 31.84021
#
# Velocity S-wave (km/s) = 4.05300 4.46190 4.26236
# Velocity P-wave (km/s) = 6.68135 7.07815 6.88261
#
# Compressibility (1/GPa) = 0.02509404
#
# Stress axis : x y z
#
# Youngs Moduli (GPa) = 54.69045 85.77036 70.80204
#
# Poissons Ratio (x) = 0.03042 0.53712
# Poissons Ratio (y) = 0.01940 0.10945
# Poissons Ratio (z) = 0.41490 0.13259
#
# Static dielectric constant tensor:
#      x y z
#    x 1.576040 0.000000 0.000000 
#    y 0.000000 1.626650 0.000000 
#    z 0.000000 0.000000 1.622590 
# 
# From -- ./inp_files/76137.got.cif
#   From: 2010.05.17/outbox.cif.g08.bks.cpg/sg65_39_cif.got.tgz:76137.got - 2010.06.03 17:01:31.
