data_PCOD9489051
_publ_section_title
;
Structure prediction by ZEFSAII (Michael W. Deem and Ramdas Pophale) SiO2 
 PCOD9489051
Probable space group: C M M M
;
_chemical_formula_sum "Si O2"
_cell_formula_units_Z 104
_cell_length_a 7.488642
_cell_length_b 31.083508
_cell_length_c 24.295219
_cell_angle_alpha 90.000000
_cell_angle_beta 90.000000
_cell_angle_gamma 90.000000
_cell_volume 5655.277414
_symmetry_space_group_name_H-M "C M M M"
_symmetry_group_IT_number 65
_symmetry_cell_setting 'orthorhombic'
loop_
_space_group_symop_operation_xyz
x,y,z
-x,-y,z
x,-y,-z
-x,y,-z
-x,-y,-z
x,y,-z
-x,y,z
x,-y,z
1/2+x,1/2+y,z
1/2-x,1/2-y,z
1/2+x,1/2-y,-z
1/2-x,1/2+y,-z
1/2-x,1/2-y,-z
1/2+x,1/2+y,-z
1/2-x,1/2+y,z
1/2+x,1/2-y,z
loop_
_atom_site_type_symbol
_atom_site_label
_atom_site_fract_x
_atom_site_fract_y
_atom_site_fract_z
Si Si1 0.290456 0.387731 0.223012
Si Si2 0.213654 0.948323 0.440898
Si Si3 0.781058 0.949752 0.319617
Si Si4 0.795924 0.000000 0.934780
Si Si5 0.292474 0.816222 0.940255
Si Si6 0.211027 0.702331 0.818092
Si Si7 0.281765 0.591958 0.100558
O O1 0.500000 0.397696 0.221817
O O2 0.218816 0.416525 0.272856
O O3 0.273811 0.336052 0.221537
O O4 0.220530 0.400767 0.163064
O O5 0.284107 0.932005 0.500000
O O6 0.279567 0.935014 0.380641
O O7 0.000000 0.940661 0.441343
O O8 0.237899 0.000000 0.441140
O O9 0.000000 0.949825 0.320597
O O10 0.729827 0.000000 0.310013
O O11 0.717002 0.045283 0.917245
O O12 0.000000 0.000000 0.912244
O O13 0.804913 0.000000 0.000000
O O14 0.500000 0.802854 0.940747
O O15 0.213649 0.801429 0.881124
O O16 0.282715 0.867973 0.935258
O O17 0.215014 0.803312 0.000000
O O18 0.250000 0.750000 0.797545
O O19 0.000000 0.696464 0.823038
O O20 0.500000 0.593224 0.097505
#
# Coordination Sequence:
#
# PCOD9489051 Si02
#       7
#    16  16  16   8  16  16  16
#     4   9  17  28  43  63  86 111 141 174 209 247
#     4   7   9  14  25  45  78 118 152 178 206 237
#     4   8  13  20  34  58  87 119 152 182 207 236
#     4   9  16  24  35  53  75  99 132 172 206 233
#     4   9  18  32  47  62  81 102 124 157 204 255
#     4  10  20  34  50  65  83 105 132 167 211 259
#     4   9  17  27  40  57  78 106 137 170 205 241
#
# _framework density 18.389903
#
# number of rings (size 3 to 8) (size 9 to 14) (size 15 to 20)
#    0.000    3.308    0.000    2.308    1.077    1.846 
#    0.000    0.385    0.000    1.846    0.000    0.000 
#    0.000    1.231    0.000    4.923    0.000    4.615 
#
# Total GULP energy -289501.478150 kJ/mol
# GULP energy per Si atom -5567.336118 kJ/mol
# Density = 1.834805 g / cm^3
# Si number density = 18.389903 Si / 1000 Ang^3
#
#
#
# Elastic Constant Matrix: (Units=GPa)
#
#
# Indices 1 2 3 4 5 6 
#
# 1 49.9787 -11.2719 4.6012 0.0000 0.0000 0.0000
# 2 -11.2719 96.7132 44.5038 0.0000 0.0000 0.0000
# 3 4.6012 44.5038 127.2594 0.0000 0.0000 0.0000
# 4 0.0000 0.0000 0.0000 0.1803 0.0000 0.0000
# 5 0.0000 0.0000 0.0000 0.0000 -13.3690 0.0000
# 6 0.0000 0.0000 0.0000 0.0000 0.0000 5.8096
#
#
#
# Elastic Compliance Matrix: (Units=1/GPa)
#
#
# Indices 1 2 3 4 5 6 
#
# 1 0.020935 0.003323 -0.001919 0.000000 0.000000 0.000000
# 2 0.003323 0.012850 -0.004614 0.000000 0.000000 0.000000
# 3 -0.001919 -0.004614 0.009541 0.000000 0.000000 0.000000
# 4 0.000000 0.000000 0.000000 5.546671 0.000000 0.000000
# 5 0.000000 0.000000 0.000000 0.000000 -0.074800 0.000000
# 6 0.000000 0.000000 0.000000 0.000000 0.000000 0.172129
#
#
# Mechanical properties :
#
#
# Convention : Reuss Voigt Hill
#
# Bulk Modulus (GPa) = 27.09603 38.84639 32.97121
# Shear Modulus (GPa) = 0.87626 14.26540 7.57083
#
# Velocity S-wave (km/s) = 0.69103 2.78819 2.03120
# Velocity P-wave (km/s) = 3.92465 5.61560 4.84447
#
# Compressibility (1/GPa) = 0.03690578
#
# Stress axis : x y z
#
# Youngs Moduli (GPa) = 47.76777 77.81896 104.81174
#
# Poissons Ratio (x) = -0.25859 0.20113
# Poissons Ratio (y) = -0.15873 0.48360
# Poissons Ratio (z) = 0.09167 0.35906
#
# Static dielectric constant tensor:
#      x y z
#    x 1.742090 0.000000 0.000000 
#    y 0.000000 1.648480 0.000000 
#    z 0.000000 0.000000 1.663930 
# 
# From -- ./inp_files/68473.got.cif
#   From: 2010.05.17/outbox.cif.g08.bks.cpg/sg65_35_cif.got.tgz:68473.got - 2010.06.03 17:01:31.
