data_PCOD9489110
_publ_section_title
;
Structure prediction by ZEFSAII (Michael W. Deem and Ramdas Pophale) SiO2 
 PCOD9489110
Probable space group: C M M M
;
_chemical_formula_sum "Si O2"
_cell_formula_units_Z 72
_cell_length_a 8.718942
_cell_length_b 20.389652
_cell_length_c 23.516824
_cell_angle_alpha 90.000000
_cell_angle_beta 90.000000
_cell_angle_gamma 90.000000
_cell_volume 4180.731447
_symmetry_space_group_name_H-M "C M M M"
_symmetry_group_IT_number 65
_symmetry_cell_setting 'orthorhombic'
loop_
_space_group_symop_operation_xyz
x,y,z
-x,-y,z
x,-y,-z
-x,y,-z
-x,-y,-z
x,y,-z
-x,y,z
x,-y,z
1/2+x,1/2+y,z
1/2-x,1/2-y,z
1/2+x,1/2-y,-z
1/2-x,1/2+y,-z
1/2-x,1/2-y,-z
1/2+x,1/2+y,-z
1/2-x,1/2+y,z
1/2+x,1/2-y,z
loop_
_atom_site_type_symbol
_atom_site_label
_atom_site_fract_x
_atom_site_fract_y
_atom_site_fract_z
Si Si1 0.323897 0.420479 0.000000
Si Si2 0.186921 0.075206 0.564292
Si Si3 0.185123 0.821539 0.658165
Si Si4 0.183974 0.822085 0.789109
Si Si5 0.316465 0.923394 0.120591
O O1 0.241299 0.401192 0.058332
O O2 0.322722 0.500000 0.000000
O O3 0.500000 0.398348 0.000000
O O4 0.233730 0.093711 0.500000
O O5 0.239473 0.124763 0.612855
O O6 0.000000 0.075654 0.564974
O O7 0.234311 0.000000 0.574744
O O8 0.250000 0.750000 0.644322
O O9 0.228064 0.837015 0.723479
O O10 0.000000 0.819045 0.656032
O O11 0.250000 0.750000 0.802748
O O12 0.247257 0.876786 0.831458
O O13 0.000000 0.819986 0.792565
O O14 0.500000 0.920575 0.122085
O O15 0.270322 0.000000 0.128591
#
# Coordination Sequence:
#
# PCOD9489110 Si02
#       5
#     8  16  16  16  16
#     4   9  17  31  52  77 104 133 166 203 243 289
#     4   8  14  26  45  69  96 125 159 200 243 286
#     4   9  18  31  48  70  95 125 161 201 244 291
#     4  10  20  34  51  71  99 133 168 208 253 299
#     4  10  20  34  53  77 104 133 166 204 247 295
#
# _framework density 17.221865999999999
#
# number of rings (size 3 to 8) (size 9 to 14) (size 15 to 20)
#    0.000    2.778    0.000    2.333    0.000    4.889 
#    0.000    2.778    0.000    0.667    0.000    1.556 
#    0.000    0.000    0.000    0.000    0.000    0.000 
#
# Total GULP energy -200684.353945 kJ/mol
# GULP energy per Si atom -5574.565387 kJ/mol
# Density = 1.718267 g / cm^3
# Si number density = 17.221866 Si / 1000 Ang^3
#
#
#
# Elastic Constant Matrix: (Units=GPa)
#
#
# Indices 1 2 3 4 5 6 
#
# 1 34.9763 35.9361 40.1073 0.0000 0.0000 0.0000
# 2 35.9361 115.5544 119.9002 0.0000 0.0000 0.0000
# 3 40.1073 119.9002 160.0661 0.0000 0.0000 0.0000
# 4 0.0000 0.0000 0.0000 -147.1606 0.0000 0.0000
# 5 0.0000 0.0000 0.0000 0.0000 14.1997 0.0000
# 6 0.0000 0.0000 0.0000 0.0000 0.0000 26.0339
#
#
#
# Elastic Compliance Matrix: (Units=1/GPa)
#
#
# Indices 1 2 3 4 5 6 
#
# 1 0.042413 -0.009710 -0.003354 0.000000 0.000000 0.000000
# 2 -0.009710 0.041071 -0.028332 0.000000 0.000000 0.000000
# 3 -0.003354 -0.028332 0.028311 0.000000 0.000000 0.000000
# 4 0.000000 0.000000 0.000000 -0.006795 0.000000 0.000000
# 5 0.000000 0.000000 0.000000 0.000000 0.070424 0.000000
# 6 0.000000 0.000000 0.000000 0.000000 0.000000 0.038411
#
#
# Mechanical properties :
#
#
# Convention : Reuss Voigt Hill
#
# Bulk Modulus (GPa) = 34.47934 78.05378 56.26656
# Shear Modulus (GPa) = 16.32415 -13.74186 1.29115
#
# Velocity S-wave (km/s) = 3.08210 -2.82783 0.86680
# Velocity P-wave (km/s) = 5.72100 5.89565 5.80898
#
# Compressibility (1/GPa) = 0.02900288
#
# Stress axis : x y z
#
# Youngs Moduli (GPa) = 23.57762 24.34795 35.32257
#
# Poissons Ratio (x) = 0.23641 0.11847
# Poissons Ratio (y) = 0.22893 1.00076
# Poissons Ratio (z) = 0.07908 0.68983
#
# Static dielectric constant tensor:
#      x y z
#    x 1.579110 0.000000 0.000000 
#    y 0.000000 1.558210 0.000000 
#    z 0.000000 0.000000 1.580010 
# 
# From -- ./inp_files/59195.got.cif
#   From: 2010.05.17/outbox.cif.g08.bks.cpg/sg65_30_cif.got.tgz:59195.got - 2010.06.03 17:01:31.
