data_PCOD9489605
_publ_section_title
;
Structure prediction by ZEFSAII (Michael W. Deem and Ramdas Pophale) SiO2 
 PCOD9489605
Probable space group: C M M M
;
_chemical_formula_sum "Si O2"
_cell_formula_units_Z 96
_cell_length_a 29.797675
_cell_length_b 20.189816
_cell_length_c 8.742914
_cell_angle_alpha 90.000000
_cell_angle_beta 90.000000
_cell_angle_gamma 90.000000
_cell_volume 5259.820780
_symmetry_space_group_name_H-M "C M M M"
_symmetry_group_IT_number 65
_symmetry_cell_setting 'orthorhombic'
loop_
_space_group_symop_operation_xyz
x,y,z
-x,-y,z
x,-y,-z
-x,y,-z
-x,-y,-z
x,y,-z
-x,y,z
x,-y,z
1/2+x,1/2+y,z
1/2-x,1/2-y,z
1/2+x,1/2-y,-z
1/2-x,1/2+y,-z
1/2-x,1/2-y,-z
1/2+x,1/2+y,-z
1/2-x,1/2+y,z
1/2+x,1/2-y,z
loop_
_atom_site_type_symbol
_atom_site_label
_atom_site_fract_x
_atom_site_fract_y
_atom_site_fract_z
Si Si1 0.674352 0.424137 0.323017
Si Si2 0.553516 0.784731 0.317138
Si Si3 0.272278 0.075195 0.817938
Si Si4 0.053978 0.570714 0.316049
Si Si5 0.297604 0.787177 0.681129
Si Si6 0.126109 0.195251 0.179868
O O1 0.686445 0.410115 0.500000
O O2 0.658944 0.500000 0.312663
O O3 0.719595 0.418001 0.224049
O O4 0.638099 0.372321 0.266088
O O5 0.561753 0.780799 0.500000
O O6 0.500000 0.781386 0.294900
O O7 0.570054 0.857642 0.261160
O O8 0.579708 0.727295 0.232946
O O9 0.295492 0.136658 0.734298
O O10 0.285691 0.000000 0.770762
O O11 0.278199 0.080867 0.000000
O O12 0.060376 0.570645 0.500000
O O13 0.071699 0.500000 0.255858
O O14 0.000000 0.570439 0.292412
O O15 0.306526 0.783912 0.500000
O O16 0.250000 0.750000 0.709146
O O17 0.335481 0.747179 0.770369
O O18 0.127297 0.184496 0.000000
#
# Coordination Sequence:
#
# PCOD9489605 Si02
#       6
#    16  16  16  16  16  16
#     4  10  20  35  56  81 108 139 179 224 267 322
#     4   9  18  34  56  80 108 143 184 230 277 329
#     4  10  20  34  54  81 113 147 181 221 274 332
#     4   7  10  20  43  74 101 126 164 214 262 306
#     4  11  22  36  56  80 108 145 187 230 268 316
#     4  12  24  36  55  81 112 147 182 226 278 331
#
# _framework density 18.251571999999999
#
# number of rings (size 3 to 8) (size 9 to 14) (size 15 to 20)
#    0.000    2.167    1.667    4.500    0.000    3.000 
#    0.000    0.833    0.000    4.000    0.000    5.833 
#    0.000    0.000    0.000    0.000    0.000    0.000 
#
# Total GULP energy -267793.883630 kJ/mol
# GULP energy per Si atom -5579.039242 kJ/mol
# Density = 1.821003 g / cm^3
# Si number density = 18.251572 Si / 1000 Ang^3
#
#
#
# Elastic Constant Matrix: (Units=GPa)
#
#
# Indices 1 2 3 4 5 6 
#
# 1 10.9376 8.0575 7.0349 0.0000 0.0000 0.0000
# 2 8.0575 89.0951 12.3751 0.0000 0.0000 0.0000
# 3 7.0349 12.3751 26.8299 0.0000 0.0000 0.0000
# 4 0.0000 0.0000 0.0000 22.3332 0.0000 0.0000
# 5 0.0000 0.0000 0.0000 0.0000 24.5212 0.0000
# 6 0.0000 0.0000 0.0000 0.0000 0.0000 23.2016
#
#
#
# Elastic Compliance Matrix: (Units=1/GPa)
#
#
# Indices 1 2 3 4 5 6 
#
# 1 0.113440 -0.006547 -0.026725 0.000000 0.000000 0.000000
# 2 -0.006547 0.012370 -0.003989 0.000000 0.000000 0.000000
# 3 -0.026725 -0.003989 0.046119 0.000000 0.000000 0.000000
# 4 0.000000 0.000000 0.000000 0.044776 0.000000 0.000000
# 5 0.000000 0.000000 0.000000 0.000000 0.040781 0.000000
# 6 0.000000 0.000000 0.000000 0.000000 0.000000 0.043100
#
#
# Mechanical properties :
#
#
# Convention : Reuss Voigt Hill
#
# Bulk Modulus (GPa) = 10.26615 20.19975 15.23295
# Shear Modulus (GPa) = 12.26759 20.63754 16.45257
#
# Velocity S-wave (km/s) = 2.59538 3.36628 3.00564
# Velocity P-wave (km/s) = 3.82339 5.11864 4.51768
#
# Compressibility (1/GPa) = 0.09740749
#
# Stress axis : x y z
#
# Youngs Moduli (GPa) = 8.81523 80.83993 21.68303
#
# Poissons Ratio (x) = 0.52928 0.57947
# Poissons Ratio (y) = 0.05772 0.08649
# Poissons Ratio (z) = 0.23558 0.32246
#
# Static dielectric constant tensor:
#      x y z
#    x 1.622270 0.000000 0.000000 
#    y 0.000000 1.661060 0.000000 
#    z 0.000000 0.000000 1.611660 
# 
# From -- ./inp_files/16334.got.cif
#   From: 2010.05.17/outbox.cif.g08.bks.cpg/sg65_9_cif.got.tgz:16334.got - 2010.06.03 17:01:31.
