data_PCOD9489645
_publ_section_title
;
Structure prediction by ZEFSAII (Michael W. Deem and Ramdas Pophale) SiO2 
 PCOD9489645
Probable space group: C M M M
;
_chemical_formula_sum "Si O2"
_cell_formula_units_Z 84
_cell_length_a 15.372485
_cell_length_b 23.983993
_cell_length_c 11.515105
_cell_angle_alpha 90.000000
_cell_angle_beta 90.000000
_cell_angle_gamma 90.000000
_cell_volume 4245.545202
_symmetry_space_group_name_H-M "C M M M"
_symmetry_group_IT_number 65
_symmetry_cell_setting 'orthorhombic'
loop_
_space_group_symop_operation_xyz
x,y,z
-x,-y,z
x,-y,-z
-x,y,-z
-x,-y,-z
x,y,-z
-x,y,z
x,-y,z
1/2+x,1/2+y,z
1/2-x,1/2-y,z
1/2+x,1/2-y,-z
1/2-x,1/2+y,-z
1/2-x,1/2-y,-z
1/2+x,1/2+y,-z
1/2-x,1/2+y,z
1/2+x,1/2-y,z
loop_
_atom_site_type_symbol
_atom_site_label
_atom_site_fract_x
_atom_site_fract_y
_atom_site_fract_z
Si Si1 0.000000 0.317215 0.762806
Si Si2 0.000000 0.703060 0.500000
Si Si3 0.811466 0.564376 0.364786
Si Si4 0.337452 0.284903 0.500000
Si Si5 0.500000 0.062241 0.250282
Si Si6 0.149476 0.238660 0.863024
Si Si7 0.000000 0.933844 0.635152
Si Si8 0.159424 0.865322 0.721233
O O1 0.000000 0.379013 0.818891
O O2 0.083409 0.279953 0.797498
O O3 0.000000 0.327428 0.623718
O O4 0.083480 0.742406 0.500000
O O5 0.803753 0.582065 0.500000
O O6 0.780581 0.500000 0.357936
O O7 0.752238 0.603795 0.284798
O O8 0.911388 0.564231 0.325222
O O9 0.250000 0.250000 0.500000
O O10 0.342030 0.323057 0.387046
O O11 0.500000 0.000000 0.192973
O O12 0.250000 0.250000 0.831148
O O13 0.136788 0.174062 0.829181
O O14 0.138026 0.247444 0.000000
O O15 0.914963 0.910058 0.696835
O O16 0.000000 0.914987 0.500000
O O17 0.000000 0.000000 0.635900
#
# Coordination Sequence:
#
# PCOD9489645 Si02
#       8
#     8   4  16   8   8  16   8  16
#     4  12  24  39  63  91 123 162 200 245 303 367
#     4  12  26  36  57  92 133 160 196 238 304 372
#     4  10  20  34  54  84 122 165 202 237 288 356
#     4  12  24  36  54  89 130 163 196 249 305 372
#     4  10  23  38  55  82 124 164 198 237 289 360
#     4  11  25  44  64  88 119 161 210 256 306 363
#     4  11  22  37  59  90 125 163 201 239 294 368
#     4  12  21  37  60  86 122 157 200 250 304 361
#
# _framework density 19.785443999999998
#
# number of rings (size 3 to 8) (size 9 to 14) (size 15 to 20)
#    0.000    0.857    3.810    4.000    4.000    2.667 
#    0.000    0.000    0.000    4.000    0.000   10.667 
#    0.000    0.000    0.000    0.000    0.000    0.000 
#
# Total GULP energy -234711.445231 kJ/mol
# GULP energy per Si atom -5588.367744 kJ/mol
# Density = 1.974041 g / cm^3
# Si number density = 19.785444 Si / 1000 Ang^3
#
#
#
# Elastic Constant Matrix: (Units=GPa)
#
#
# Indices 1 2 3 4 5 6 
#
# 1 119.9515 54.5803 19.6301 0.0000 0.0000 0.0000
# 2 54.5803 118.0859 16.3501 0.0000 0.0000 0.0000
# 3 19.6301 16.3501 43.7492 0.0000 0.0000 0.0000
# 4 0.0000 0.0000 0.0000 12.6337 0.0000 0.0000
# 5 0.0000 0.0000 0.0000 0.0000 6.3641 0.0000
# 6 0.0000 0.0000 0.0000 0.0000 0.0000 31.2547
#
#
#
# Elastic Compliance Matrix: (Units=1/GPa)
#
#
# Indices 1 2 3 4 5 6 
#
# 1 0.010964 -0.004626 -0.003191 0.000000 0.000000 0.000000
# 2 -0.004626 0.010882 -0.001991 0.000000 0.000000 0.000000
# 3 -0.003191 -0.001991 0.025033 0.000000 0.000000 0.000000
# 4 0.000000 0.000000 0.000000 0.079154 0.000000 0.000000
# 5 0.000000 0.000000 0.000000 0.000000 0.157130 0.000000
# 6 0.000000 0.000000 0.000000 0.000000 0.000000 0.031995
#
#
# Mechanical properties :
#
#
# Convention : Reuss Voigt Hill
#
# Bulk Modulus (GPa) = 36.67865 51.43416 44.05640
# Shear Modulus (GPa) = 14.54072 22.79891 18.66981
#
# Velocity S-wave (km/s) = 2.71388 3.39825 3.07516
# Velocity P-wave (km/s) = 5.32904 6.43816 5.90967
#
# Compressibility (1/GPa) = 0.02726382
#
# Stress axis : x y z
#
# Youngs Moduli (GPa) = 91.21058 91.89336 39.94665
#
# Poissons Ratio (x) = 0.42507 0.12745
# Poissons Ratio (y) = 0.42191 0.07955
# Poissons Ratio (z) = 0.29102 0.18299
#
# Static dielectric constant tensor:
#      x y z
#    x 1.687880 0.000000 0.000000 
#    y 0.000000 1.710430 0.000000 
#    z 0.000000 0.000000 1.687800 
# 
# From -- ./inp_files/24907.got.cif
#   From: 2010.05.17/outbox.cif.g08.bks.cpg/sg65_13_cif.got.tgz:24907.got - 2010.06.03 17:01:31.
