data_PCOD9489066
_publ_section_title
;
Structure prediction by ZEFSAII (Michael W. Deem and Ramdas Pophale) SiO2 
 PCOD9489066
Probable space group: C M M M
;
_chemical_formula_sum "Si O2"
_cell_formula_units_Z 96
_cell_length_a 8.830260
_cell_length_b 28.184619
_cell_length_c 24.241798
_cell_angle_alpha 90.000000
_cell_angle_beta 90.000000
_cell_angle_gamma 90.000000
_cell_volume 6033.238416
_symmetry_space_group_name_H-M "C M M M"
_symmetry_group_IT_number 65
_symmetry_cell_setting 'orthorhombic'
loop_
_space_group_symop_operation_xyz
x,y,z
-x,-y,z
x,-y,-z
-x,y,-z
-x,-y,-z
x,y,-z
-x,y,z
x,-y,z
1/2+x,1/2+y,z
1/2-x,1/2-y,z
1/2+x,1/2-y,-z
1/2-x,1/2+y,-z
1/2-x,1/2-y,-z
1/2+x,1/2+y,-z
1/2-x,1/2+y,z
1/2+x,1/2-y,z
loop_
_atom_site_type_symbol
_atom_site_label
_atom_site_fract_x
_atom_site_fract_y
_atom_site_fract_z
Si Si1 0.182397 0.945066 0.278299
Si Si2 0.682065 0.698586 0.232572
Si Si3 0.680496 0.301852 0.564615
Si Si4 0.319336 0.856563 0.663749
Si Si5 0.681111 0.606607 0.165281
Si Si6 0.682407 0.054617 0.062707
O O1 0.262825 0.908931 0.319709
O O2 0.222855 0.927964 0.216357
O O3 0.000000 0.939452 0.283541
O O4 0.220628 0.000000 0.286462
O O5 0.500000 0.700711 0.237217
O O6 0.750000 0.750000 0.221130
O O7 0.749337 0.678131 0.289580
O O8 0.720930 0.659440 0.186033
O O9 0.708817 0.312099 0.500000
O O10 0.500000 0.300497 0.573476
O O11 0.750000 0.250000 0.576508
O O12 0.756272 0.339348 0.605269
O O13 0.500000 0.853820 0.665281
O O14 0.500000 0.604435 0.159275
O O15 0.755347 0.589106 0.109255
O O16 0.500000 0.055460 0.063937
O O17 0.730053 0.000000 0.073943
O O18 0.729949 0.066461 0.000000
#
# Coordination Sequence:
#
# PCOD9489066 Si02
#       6
#    16  16  16  16  16  16
#     4   9  18  33  51  71  98 129 160 197 240 284
#     4  10  20  34  50  70  97 126 159 197 238 284
#     4  10  20  34  52  73  98 128 161 197 239 285
#     4  11  21  32  49  73 101 130 160 195 236 283
#     4   9  18  31  48  71  96 122 154 194 237 280
#     4   9  18  31  46  67  96 127 157 191 232 278
#
# _framework density 15.911853000000001
#
# number of rings (size 3 to 8) (size 9 to 14) (size 15 to 20)
#    0.000    2.333    0.000    5.000    0.000    6.000 
#    0.000    0.833    0.000    1.000    0.000    3.500 
#    0.000    0.000    0.000    0.000    0.000    0.000 
#
# Total GULP energy -267810.526929 kJ/mol
# GULP energy per Si atom -5579.385978 kJ/mol
# Density = 1.587564 g / cm^3
# Si number density = 15.911853 Si / 1000 Ang^3
#
#
#
# Elastic Constant Matrix: (Units=GPa)
#
#
# Indices 1 2 3 4 5 6 
#
# 1 64.4052 61.2061 54.0234 0.0000 0.0000 0.0000
# 2 61.2061 137.1395 81.0862 0.0000 0.0000 0.0000
# 3 54.0234 81.0862 103.3003 0.0000 0.0000 0.0000
# 4 0.0000 0.0000 0.0000 22.2302 0.0000 0.0000
# 5 0.0000 0.0000 0.0000 0.0000 26.4204 0.0000
# 6 0.0000 0.0000 0.0000 0.0000 0.0000 27.8417
#
#
#
# Elastic Compliance Matrix: (Units=1/GPa)
#
#
# Indices 1 2 3 4 5 6 
#
# 1 0.031905 -0.008162 -0.010279 0.000000 0.000000 0.000000
# 2 -0.008162 0.015695 -0.008052 0.000000 0.000000 0.000000
# 3 -0.010279 -0.008052 0.021376 0.000000 0.000000 0.000000
# 4 0.000000 0.000000 0.000000 0.044984 0.000000 0.000000
# 5 0.000000 0.000000 0.000000 0.000000 0.037850 0.000000
# 6 0.000000 0.000000 0.000000 0.000000 0.000000 0.035917
#
#
# Mechanical properties :
#
#
# Convention : Reuss Voigt Hill
#
# Bulk Modulus (GPa) = 62.53160 77.49740 70.01450
# Shear Modulus (GPa) = 20.32170 22.53375 21.42773
#
# Velocity S-wave (km/s) = 3.57759 3.76727 3.67366
# Velocity P-wave (km/s) = 7.51329 8.23001 7.87981
#
# Compressibility (1/GPa) = 0.01599192
#
# Stress axis : x y z
#
# Youngs Moduli (GPa) = 31.34296 63.71382 46.78090
#
# Poissons Ratio (x) = 0.52002 0.48085
# Poissons Ratio (y) = 0.25582 0.37666
# Poissons Ratio (z) = 0.32217 0.51300
#
# Static dielectric constant tensor:
#      x y z
#    x 1.532800 0.000000 0.000000 
#    y 0.000000 1.519800 0.000000 
#    z 0.000000 0.000000 1.516340 
# 
# From -- ./inp_files/65765.got.cif
#   From: 2010.05.17/outbox.cif.g08.bks.cpg/sg65_33_cif.got.tgz:65765.got - 2010.06.03 17:01:31.
