data_PCOD9489316
_publ_section_title
;
Structure prediction by ZEFSAII (Michael W. Deem and Ramdas Pophale) SiO2 
 PCOD9489316
Probable space group: C M M M
;
_chemical_formula_sum "Si O2"
_cell_formula_units_Z 96
_cell_length_a 20.821414
_cell_length_b 8.328386
_cell_length_c 30.837750
_cell_angle_alpha 90.000000
_cell_angle_beta 90.000000
_cell_angle_gamma 90.000000
_cell_volume 5347.536385
_symmetry_space_group_name_H-M "C M M M"
_symmetry_group_IT_number 65
_symmetry_cell_setting 'orthorhombic'
loop_
_space_group_symop_operation_xyz
x,y,z
-x,-y,z
x,-y,-z
-x,y,-z
-x,-y,-z
x,y,-z
-x,y,z
x,-y,z
1/2+x,1/2+y,z
1/2-x,1/2-y,z
1/2+x,1/2-y,-z
1/2-x,1/2+y,-z
1/2-x,1/2-y,-z
1/2+x,1/2+y,-z
1/2-x,1/2+y,z
1/2+x,1/2-y,z
loop_
_atom_site_type_symbol
_atom_site_label
_atom_site_fract_x
_atom_site_fract_y
_atom_site_fract_z
Si Si1 0.426972 0.193695 0.049444
Si Si2 0.179106 0.191669 0.116612
Si Si3 0.073358 0.694078 0.381382
Si Si4 0.073339 0.194058 0.284586
Si Si5 0.178684 0.305936 0.549678
Si Si6 0.821202 0.805844 0.784266
O O1 0.500000 0.246170 0.059748
O O2 0.375271 0.252085 0.083743
O O3 0.426705 0.000000 0.049552
O O4 0.412296 0.245908 0.000000
O O5 0.250000 0.250000 0.103525
O O6 0.167379 0.249301 0.166128
O O7 0.179588 0.000000 0.117407
O O8 0.073524 0.500000 0.381933
O O9 0.090367 0.749895 0.332972
O O10 0.124325 0.750848 0.417031
O O11 0.000000 0.747378 0.390386
O O12 0.124235 0.250782 0.248893
O O13 0.000000 0.247430 0.275561
O O14 0.073526 0.000000 0.284111
O O15 0.166826 0.252493 0.500000
O O16 0.177951 0.500000 0.549779
O O17 0.250000 0.250000 0.562197
O O18 0.750000 0.750000 0.771425
O O19 0.821995 0.000000 0.784279
#
# Coordination Sequence:
#
# PCOD9489316 Si02
#       6
#    16  16  16  16  16  16
#     4   9  19  36  55  75 102 134 166 203 248 296
#     4  10  20  34  53  76 102 132 167 207 248 292
#     4   9  18  32  49  70  95 122 156 197 236 277
#     4   9  18  33  51  70  95 127 160 194 236 285
#     4   9  18  32  49  69  94 124 156 192 235 281
#     4   9  19  34  51  72  98 128 161 199 241 285
#
# _framework density 17.952193000000001
#
# number of rings (size 3 to 8) (size 9 to 14) (size 15 to 20)
#    0.000    2.833    0.000    1.000    0.000    4.667 
#    0.000    7.500    0.000    2.000    0.000    4.667 
#    0.000    0.000    0.000    0.000    0.000    0.000 
#
# Total GULP energy -267642.489547 kJ/mol
# GULP energy per Si atom -5575.885199 kJ/mol
# Density = 1.791133 g / cm^3
# Si number density = 17.952193 Si / 1000 Ang^3
#
#
#
# Elastic Constant Matrix: (Units=GPa)
#
#
# Indices 1 2 3 4 5 6 
#
# 1 167.6331 19.1664 136.9944 0.0000 0.0000 0.0000
# 2 19.1664 7.3266 17.0743 0.0000 0.0000 0.0000
# 3 136.9944 17.0743 135.1863 0.0000 0.0000 0.0000
# 4 0.0000 0.0000 0.0000 25.8645 0.0000 0.0000
# 5 0.0000 0.0000 0.0000 0.0000 44.0143 0.0000
# 6 0.0000 0.0000 0.0000 0.0000 0.0000 27.1450
#
#
#
# Elastic Compliance Matrix: (Units=1/GPa)
#
#
# Indices 1 2 3 4 5 6 
#
# 1 0.035543 -0.012813 -0.034400 0.000000 0.000000 0.000000
# 2 -0.012813 0.198038 -0.012028 0.000000 0.000000 0.000000
# 3 -0.034400 -0.012028 0.043777 0.000000 0.000000 0.000000
# 4 0.000000 0.000000 0.000000 0.038663 0.000000 0.000000
# 5 0.000000 0.000000 0.000000 0.000000 0.022720 0.000000
# 6 0.000000 0.000000 0.000000 0.000000 0.000000 0.036839
#
#
# Mechanical properties :
#
#
# Convention : Reuss Voigt Hill
#
# Bulk Modulus (GPa) = 6.29427 72.95735 39.62581
# Shear Modulus (GPa) = 9.14041 28.53217 18.83629
#
# Velocity S-wave (km/s) = 2.25889 3.99098 3.24272
# Velocity P-wave (km/s) = 3.21204 7.87180 6.01176
#
# Compressibility (1/GPa) = 0.15887469
#
# Stress axis : x y z
#
# Youngs Moduli (GPa) = 28.13468 5.04955 22.84309
#
# Poissons Ratio (x) = 0.06470 0.78581
# Poissons Ratio (y) = 0.36048 0.27477
# Poissons Ratio (z) = 0.96784 0.06074
#
# Static dielectric constant tensor:
#      x y z
#    x 1.597460 0.000000 0.000000 
#    y 0.000000 1.627290 0.000000 
#    z 0.000000 0.000000 1.604190 
# 
# From -- ./inp_files/73103.got.cif
#   From: 2010.05.17/outbox.cif.g08.bks.cpg/sg65_37_cif.got.tgz:73103.got - 2010.06.03 17:01:31.
