data_PCOD9489657
_publ_section_title
;
Structure prediction by ZEFSAII (Michael W. Deem and Ramdas Pophale) SiO2 
 PCOD9489657
Probable space group: C M M M
;
_chemical_formula_sum "Si O2"
_cell_formula_units_Z 112
_cell_length_a 29.982644
_cell_length_b 15.373299
_cell_length_c 14.201000
_cell_angle_alpha 90.000000
_cell_angle_beta 90.000000
_cell_angle_gamma 90.000000
_cell_volume 6545.697477
_symmetry_space_group_name_H-M "C M M M"
_symmetry_group_IT_number 65
_symmetry_cell_setting 'orthorhombic'
loop_
_space_group_symop_operation_xyz
x,y,z
-x,-y,z
x,-y,-z
-x,y,-z
-x,-y,-z
x,y,-z
-x,y,z
x,-y,z
1/2+x,1/2+y,z
1/2-x,1/2-y,z
1/2+x,1/2-y,-z
1/2-x,1/2+y,-z
1/2-x,1/2-y,-z
1/2+x,1/2+y,-z
1/2-x,1/2+y,z
1/2+x,1/2-y,z
loop_
_atom_site_type_symbol
_atom_site_label
_atom_site_fract_x
_atom_site_fract_y
_atom_site_fract_z
Si Si1 0.232646 0.105353 0.107382
Si Si2 0.798482 0.844708 0.302948
Si Si3 0.609610 0.403421 0.612323
Si Si4 0.948128 0.736265 0.613396
Si Si5 0.336845 0.894174 0.104688
Si Si6 0.616929 0.099435 0.292835
Si Si7 0.293615 0.150341 0.387501
O O1 0.205826 0.150954 0.190515
O O2 0.284936 0.128797 0.119510
O O3 0.228921 0.000000 0.117005
O O4 0.219915 0.127863 0.000000
O O5 0.843126 0.890559 0.337285
O O6 0.752575 0.885145 0.344334
O O7 0.799388 0.747478 0.345192
O O8 0.617606 0.395969 0.500000
O O9 0.591941 0.500000 0.631357
O O10 0.575609 0.327237 0.638612
O O11 0.945333 0.727070 0.500000
O O12 0.919818 0.660056 0.660725
O O13 0.000000 0.734985 0.639795
O O14 0.367600 0.865821 0.190537
O O15 0.337689 0.000000 0.105683
O O16 0.350250 0.865428 0.000000
O O17 0.662198 0.101169 0.354713
O O18 0.601521 0.000000 0.284498
O O19 0.290347 0.154168 0.500000
#
# Coordination Sequence:
#
# PCOD9489657 Si02
#       7
#    16  16  16  16  16  16  16
#     4   9  17  30  48  72 105 144 184 224 264 308
#     4  11  19  32  50  73 107 148 184 219 263 311
#     4  10  20  34  55  80 105 139 184 227 270 322
#     4  10  22  40  58  77 106 138 173 227 283 327
#     4   8  15  30  51  75 105 141 180 220 262 308
#     4  11  21  35  57  82 107 142 181 216 262 322
#     4  11  22  33  47  71 110 153 183 217 259 310
#
# _framework density 17.110475999999998
#
# number of rings (size 3 to 8) (size 9 to 14) (size 15 to 20)
#    0.000    2.000    2.857    3.429    0.000    2.286 
#    0.000    4.286    0.000    0.429    0.000    2.000 
#    0.000    0.000    0.000    4.286    0.000    0.286 
#
# Total GULP energy -312618.940377 kJ/mol
# GULP energy per Si atom -5582.481078 kJ/mol
# Density = 1.707153 g / cm^3
# Si number density = 17.110476 Si / 1000 Ang^3
#
#
#
# Elastic Constant Matrix: (Units=GPa)
#
#
# Indices 1 2 3 4 5 6 
#
# 1 104.6202 41.4173 42.3297 0.0000 0.0000 0.0000
# 2 41.4173 66.1749 33.9412 0.0000 0.0000 0.0000
# 3 42.3297 33.9412 101.0418 0.0000 0.0000 0.0000
# 4 0.0000 0.0000 0.0000 12.5943 0.0000 0.0000
# 5 0.0000 0.0000 0.0000 0.0000 17.3415 0.0000
# 6 0.0000 0.0000 0.0000 0.0000 0.0000 0.2687
#
#
#
# Elastic Compliance Matrix: (Units=1/GPa)
#
#
# Indices 1 2 3 4 5 6 
#
# 1 0.013627 -0.006767 -0.003436 0.000000 0.000000 0.000000
# 2 -0.006767 0.021617 -0.004427 0.000000 0.000000 0.000000
# 3 -0.003436 -0.004427 0.012823 0.000000 0.000000 0.000000
# 4 0.000000 0.000000 0.000000 0.079401 0.000000 0.000000
# 5 0.000000 0.000000 0.000000 0.000000 0.057665 0.000000
# 6 0.000000 0.000000 0.000000 0.000000 0.000000 3.721024
#
#
# Mechanical properties :
#
#
# Convention : Reuss Voigt Hill
#
# Bulk Modulus (GPa) = 53.16574 56.35703 54.76138
# Shear Modulus (GPa) = 1.26849 16.31750 8.79299
#
# Velocity S-wave (km/s) = 0.86195 3.09148 2.26939
# Velocity P-wave (km/s) = 5.66834 6.76400 6.24026
#
# Compressibility (1/GPa) = 0.01880911
#
# Stress axis : x y z
#
# Youngs Moduli (GPa) = 73.38152 46.25979 77.98328
#
# Poissons Ratio (x) = 0.31303 0.26794
# Poissons Ratio (y) = 0.49656 0.34520
# Poissons Ratio (z) = 0.25213 0.20477
#
# Static dielectric constant tensor:
#      x y z
#    x 1.550820 0.000000 0.000000 
#    y 0.000000 1.622760 0.000000 
#    z 0.000000 0.000000 1.590010 
# 
# From -- ./inp_files/47064.got.cif
#   From: 2010.05.17/outbox.cif.g08.bks.cpg/sg65_24_cif.got.tgz:47064.got - 2010.06.03 17:01:31.
