data_PCOD9489241
_publ_section_title
;
Structure prediction by ZEFSAII (Michael W. Deem and Ramdas Pophale) SiO2 
 PCOD9489241
Probable space group: C M M M
;
_chemical_formula_sum "Si O2"
_cell_formula_units_Z 96
_cell_length_a 8.492044
_cell_length_b 24.386346
_cell_length_c 26.001137
_cell_angle_alpha 90.000000
_cell_angle_beta 90.000000
_cell_angle_gamma 90.000000
_cell_volume 5384.573465
_symmetry_space_group_name_H-M "C M M M"
_symmetry_group_IT_number 65
_symmetry_cell_setting 'orthorhombic'
loop_
_space_group_symop_operation_xyz
x,y,z
-x,-y,z
x,-y,-z
-x,y,-z
-x,-y,-z
x,y,-z
-x,y,z
x,-y,z
1/2+x,1/2+y,z
1/2-x,1/2-y,z
1/2+x,1/2-y,-z
1/2-x,1/2+y,-z
1/2-x,1/2-y,-z
1/2+x,1/2+y,-z
1/2-x,1/2+y,z
1/2+x,1/2-y,z
loop_
_atom_site_type_symbol
_atom_site_label
_atom_site_fract_x
_atom_site_fract_y
_atom_site_fract_z
Si Si1 0.688285 0.190021 0.059045
Si Si2 0.809486 0.500000 0.307421
Si Si3 0.810002 0.117743 0.849901
Si Si4 0.809499 0.381939 0.345744
Si Si5 0.690328 0.810737 0.441338
Si Si6 0.310990 0.311880 0.249561
Si Si7 0.690660 0.500000 0.809693
O O1 0.500000 0.191359 0.059627
O O2 0.750000 0.250000 0.075405
O O3 0.747354 0.144030 0.097926
O O4 0.741590 0.181007 0.000000
O O5 0.756643 0.444175 0.335267
O O6 0.750934 0.500000 0.248750
O O7 0.000000 0.500000 0.306700
O O8 0.760374 0.155689 0.801798
O O9 0.000000 0.118197 0.851626
O O10 0.758401 0.055641 0.838094
O O11 0.756600 0.354927 0.399344
O O12 0.752127 0.344224 0.298969
O O13 0.000000 0.381844 0.345674
O O14 0.741844 0.822336 0.500000
O O15 0.500000 0.809666 0.441002
O O16 0.750000 0.750000 0.427342
O O17 0.500000 0.311688 0.251147
O O18 0.250000 0.250000 0.248918
O O19 0.500000 0.500000 0.807773
#
# Coordination Sequence:
#
# PCOD9489241 Si02
#       7
#    16   8  16  16  16  16   8
#     4  10  21  37  58  83 111 143 179 220 267 317
#     4  10  20  34  53  77 105 140 178 218 264 315
#     4  10  21  36  56  80 107 140 179 220 263 315
#     4  10  20  34  52  76 105 137 177 218 263 318
#     4   9  18  33  52  74 102 136 174 218 266 316
#     4  11  22  34  51  77 108 138 171 216 268 318
#     4  10  20  38  57  78 107 142 182 219 260 313
#
# _framework density 17.828710000000001
#
# number of rings (size 3 to 8) (size 9 to 14) (size 15 to 20)
#    0.000    2.000    1.667    2.000    0.000    6.333 
#    0.000    0.833    0.000    5.000    0.000    0.000 
#    0.000    4.667    0.000    0.000    0.000    0.000 
#
# Total GULP energy -267989.294201 kJ/mol
# GULP energy per Si atom -5583.110296 kJ/mol
# Density = 1.778813 g / cm^3
# Si number density = 17.828710 Si / 1000 Ang^3
#
#
#
# Elastic Constant Matrix: (Units=GPa)
#
#
# Indices 1 2 3 4 5 6 
#
# 1 7.9054 25.0598 18.9445 0.0000 0.0000 0.0000
# 2 25.0598 197.8656 105.2304 0.0000 0.0000 0.0000
# 3 18.9445 105.2304 124.0309 0.0000 0.0000 0.0000
# 4 0.0000 0.0000 0.0000 20.6089 0.0000 0.0000
# 5 0.0000 0.0000 0.0000 0.0000 21.7895 0.0000
# 6 0.0000 0.0000 0.0000 0.0000 0.0000 13.1940
#
#
#
# Elastic Compliance Matrix: (Units=1/GPa)
#
#
# Indices 1 2 3 4 5 6 
#
# 1 0.234299 -0.019391 -0.019335 0.000000 0.000000 0.000000
# 2 -0.019391 0.010814 -0.006213 0.000000 0.000000 0.000000
# 3 -0.019335 -0.006213 0.016287 0.000000 0.000000 0.000000
# 4 0.000000 0.000000 0.000000 0.048523 0.000000 0.000000
# 5 0.000000 0.000000 0.000000 0.000000 0.045894 0.000000
# 6 0.000000 0.000000 0.000000 0.000000 0.000000 0.075792
#
#
# Mechanical properties :
#
#
# Convention : Reuss Voigt Hill
#
# Bulk Modulus (GPa) = 5.83017 69.80792 37.81904
# Shear Modulus (GPa) = 8.64064 23.15630 15.89847
#
# Velocity S-wave (km/s) = 2.20386 3.60783 2.98943
# Velocity P-wave (km/s) = 3.12301 7.52296 5.75970
#
# Compressibility (1/GPa) = 0.17152165
#
# Stress axis : x y z
#
# Youngs Moduli (GPa) = 4.26805 92.47129 61.39834
#
# Poissons Ratio (x) = 1.79313 1.18713
# Poissons Ratio (y) = 0.08276 0.38148
# Poissons Ratio (z) = 0.08252 0.57454
#
# Static dielectric constant tensor:
#      x y z
#    x 1.621460 0.000000 0.000000 
#    y 0.000000 1.593780 0.000000 
#    z 0.000000 0.000000 1.596640 
# 
# From -- ./inp_files/67879.got.cif
#   From: 2010.05.17/outbox.cif.g08.bks.cpg/sg65_34_cif.got.tgz:67879.got - 2010.06.03 17:01:31.
