data_PCOD9489944
_publ_section_title
;
Structure prediction by ZEFSAII (Michael W. Deem and Ramdas Pophale) SiO2 
 PCOD9489944
Probable space group: C M M M
;
_chemical_formula_sum "Si O2"
_cell_formula_units_Z 104
_cell_length_a 7.717462
_cell_length_b 30.606351
_cell_length_c 20.581435
_cell_angle_alpha 90.000000
_cell_angle_beta 90.000000
_cell_angle_gamma 90.000000
_cell_volume 4861.403911
_symmetry_space_group_name_H-M "C M M M"
_symmetry_group_IT_number 65
_symmetry_cell_setting 'orthorhombic'
loop_
_space_group_symop_operation_xyz
x,y,z
-x,-y,z
x,-y,-z
-x,y,-z
-x,-y,-z
x,y,-z
-x,y,z
x,-y,z
1/2+x,1/2+y,z
1/2-x,1/2-y,z
1/2+x,1/2-y,-z
1/2-x,1/2+y,-z
1/2-x,1/2-y,-z
1/2+x,1/2+y,-z
1/2-x,1/2+y,z
1/2+x,1/2-y,z
loop_
_atom_site_type_symbol
_atom_site_label
_atom_site_fract_x
_atom_site_fract_y
_atom_site_fract_z
Si Si1 0.212234 0.949407 0.000000
Si Si2 0.288086 0.392086 0.123053
Si Si3 0.704386 0.701082 0.689543
Si Si4 0.791346 0.950622 0.242617
Si Si5 0.708514 0.299251 0.163080
Si Si6 0.291899 0.859571 0.569502
Si Si7 0.297088 0.047715 0.607829
O O1 0.267936 0.922227 0.063319
O O2 0.000000 0.950178 0.000000
O O3 0.268270 0.000000 0.000000
O O4 0.500000 0.392642 0.122218
O O5 0.234444 0.414985 0.190495
O O6 0.231990 0.341482 0.122588
O O7 0.500000 0.697631 0.696793
O O8 0.750000 0.750000 0.668231
O O9 0.777010 0.695378 0.762619
O O10 0.753816 0.667536 0.633844
O O11 0.714944 0.946042 0.314321
O O12 0.000000 0.947243 0.249285
O O13 0.752802 0.000000 0.219103
O O14 0.500000 0.301648 0.164745
O O15 0.750000 0.250000 0.140946
O O16 0.232472 0.840674 0.500000
O O17 0.500000 0.862255 0.567297
O O18 0.221716 0.908816 0.576654
O O19 0.500000 0.045897 0.589935
O O20 0.220543 0.000000 0.592576
#
# Coordination Sequence:
#
# PCOD9489944 Si02
#       7
#     8  16  16  16  16  16  16
#     4   9  16  26  43  70 103 135 165 195 230 277
#     4   9  16  27  44  68  99 131 160 194 238 282
#     4  10  20  35  55  76  98 125 158 199 247 295
#     4   9  16  27  46  71  96 121 153 197 247 294
#     4   9  18  32  50  72  97 124 157 198 241 283
#     4  10  21  35  50  70  97 129 164 200 240 290
#     4   9  18  32  49  70  96 126 162 203 245 289
#
# _framework density 21.392996
#
# number of rings (size 3 to 8) (size 9 to 14) (size 15 to 20)
#    0.000    2.692    0.000    1.846    0.000    5.231 
#    0.000    2.692    0.000    0.000    0.000    4.846 
#    0.000    4.923    0.000    0.000    0.000    0.000 
#
# Total GULP energy -290105.773921 kJ/mol
# GULP energy per Si atom -5578.957191 kJ/mol
# Density = 2.134430 g / cm^3
# Si number density = 21.392996 Si / 1000 Ang^3
#
#
#
# Elastic Constant Matrix: (Units=GPa)
#
#
# Indices 1 2 3 4 5 6 
#
# 1 32.7470 8.0934 2.8106 0.0000 0.0000 0.0000
# 2 8.0934 168.4714 62.1565 0.0000 0.0000 0.0000
# 3 2.8106 62.1565 54.1465 0.0000 0.0000 0.0000
# 4 0.0000 0.0000 0.0000 5.3653 0.0000 0.0000
# 5 0.0000 0.0000 0.0000 0.0000 3.5190 0.0000
# 6 0.0000 0.0000 0.0000 0.0000 0.0000 11.3979
#
#
#
# Elastic Compliance Matrix: (Units=1/GPa)
#
#
# Indices 1 2 3 4 5 6 
#
# 1 0.030905 -0.001549 0.000174 0.000000 0.000000 0.000000
# 2 -0.001549 0.010374 -0.011828 0.000000 0.000000 0.000000
# 3 0.000174 -0.011828 0.032038 0.000000 0.000000 0.000000
# 4 0.000000 0.000000 0.000000 0.186381 0.000000 0.000000
# 5 0.000000 0.000000 0.000000 0.000000 0.284168 0.000000
# 6 0.000000 0.000000 0.000000 0.000000 0.000000 0.087735
#
#
# Mechanical properties :
#
#
# Convention : Reuss Voigt Hill
#
# Bulk Modulus (GPa) = 21.31751 44.60954 32.96353
# Shear Modulus (GPa) = 7.42230 16.21009 11.81619
#
# Velocity S-wave (km/s) = 1.86468 2.75567 2.35274
# Velocity P-wave (km/s) = 3.82392 5.56980 4.77729
#
# Compressibility (1/GPa) = 0.04690980
#
# Stress axis : x y z
#
# Youngs Moduli (GPa) = 32.35720 96.39341 31.21332
#
# Poissons Ratio (x) = 0.14929 -0.00542
# Poissons Ratio (y) = 0.05011 0.36920
# Poissons Ratio (z) = -0.00562 1.14018
#
# Static dielectric constant tensor:
#      x y z
#    x 1.798130 0.000000 0.000000 
#    y 0.000000 1.778940 0.000000 
#    z 0.000000 0.000000 1.764000 
# 
# From -- ./inp_files/60796.got.cif
#   From: 2010.05.17/outbox.cif.g08.bks.cpg/sg65_31_cif.got.tgz:60796.got - 2010.06.03 17:01:31.
