data_PCOD9489609
_publ_section_title
;
Structure prediction by ZEFSAII (Michael W. Deem and Ramdas Pophale) SiO2 
 PCOD9489609
Probable space group: C M M M
;
_chemical_formula_sum "Si O2"
_cell_formula_units_Z 96
_cell_length_a 24.347923
_cell_length_b 25.514511
_cell_length_c 7.782326
_cell_angle_alpha 90.000000
_cell_angle_beta 90.000000
_cell_angle_gamma 90.000000
_cell_volume 4834.578187
_symmetry_space_group_name_H-M "C M M M"
_symmetry_group_IT_number 65
_symmetry_cell_setting 'orthorhombic'
loop_
_space_group_symop_operation_xyz
x,y,z
-x,-y,z
x,-y,-z
-x,y,-z
-x,-y,-z
x,y,-z
-x,y,z
x,-y,z
1/2+x,1/2+y,z
1/2-x,1/2-y,z
1/2+x,1/2-y,-z
1/2-x,1/2+y,-z
1/2-x,1/2-y,-z
1/2+x,1/2+y,-z
1/2-x,1/2+y,z
1/2+x,1/2-y,z
loop_
_atom_site_type_symbol
_atom_site_label
_atom_site_fract_x
_atom_site_fract_y
_atom_site_fract_z
Si Si1 0.935257 0.058027 0.791235
Si Si2 0.728275 0.636580 0.201476
Si Si3 0.855090 0.637276 0.805449
Si Si4 0.613263 0.668847 0.205764
Si Si5 0.270008 0.442521 0.500000
Si Si6 0.938272 0.276170 0.299455
Si Si7 0.362365 0.940669 0.500000
O O1 0.905109 0.110989 0.732982
O O2 0.000000 0.062506 0.749559
O O3 0.916415 0.000000 0.732142
O O4 0.930919 0.057624 0.000000
O O5 0.791399 0.652746 0.233051
O O6 0.678486 0.676339 0.237314
O O7 0.716535 0.588603 0.327706
O O8 0.723625 0.622223 0.000000
O O9 0.893903 0.687469 0.792289
O O10 0.874667 0.593865 0.668742
O O11 0.855811 0.616416 0.000000
O O12 0.578537 0.715652 0.283624
O O13 0.604649 0.670604 0.000000
O O14 0.293796 0.500000 0.500000
O O15 0.203723 0.445615 0.500000
O O16 0.937311 0.290708 0.500000
O O17 0.000000 0.283858 0.232807
O O18 0.385012 0.000000 0.500000
#
# Coordination Sequence:
#
# PCOD9489609 Si02
#       7
#    16  16  16  16   8  16   8
#     4   8  14  26  46  72 103 143 191 240 287 333
#     4   9  20  35  54  84 117 151 194 240 288 346
#     4  10  20  38  62  88 121 157 194 236 287 347
#     4  10  20  34  54  81 113 150 195 244 294 346
#     4   9  18  32  53  79 114 160 197 232 280 334
#     4  11  24  40  59  84 114 150 194 246 298 350
#     4   9  18  36  60  90 124 154 191 231 276 338
#
# _framework density 19.856954000000002
#
# number of rings (size 3 to 8) (size 9 to 14) (size 15 to 20)
#    0.000    2.500    0.833    1.500    1.167    4.000 
#    0.000    8.333    0.000    1.000    0.000    3.500 
#    0.000    0.000    0.000    0.000    0.000    0.000 
#
# Total GULP energy -267640.885188 kJ/mol
# GULP energy per Si atom -5575.851775 kJ/mol
# Density = 1.981176 g / cm^3
# Si number density = 19.856954 Si / 1000 Ang^3
#
#
#
# Elastic Constant Matrix: (Units=GPa)
#
#
# Indices 1 2 3 4 5 6 
#
# 1 98.0705 46.3372 28.0389 0.0000 0.0000 0.0000
# 2 46.3372 82.6791 14.0494 0.0000 0.0000 0.0000
# 3 28.0389 14.0494 43.0033 0.0000 0.0000 0.0000
# 4 0.0000 0.0000 0.0000 33.4835 0.0000 0.0000
# 5 0.0000 0.0000 0.0000 0.0000 10.8502 0.0000
# 6 0.0000 0.0000 0.0000 0.0000 0.0000 26.2671
#
#
#
# Elastic Compliance Matrix: (Units=1/GPa)
#
#
# Indices 1 2 3 4 5 6 
#
# 1 0.016106 -0.007668 -0.007996 0.000000 0.000000 0.000000
# 2 -0.007668 0.016456 -0.000377 0.000000 0.000000 0.000000
# 3 -0.007996 -0.000377 0.028591 0.000000 0.000000 0.000000
# 4 0.000000 0.000000 0.000000 0.029865 0.000000 0.000000
# 5 0.000000 0.000000 0.000000 0.000000 0.092164 0.000000
# 6 0.000000 0.000000 0.000000 0.000000 0.000000 0.038070
#
#
# Mechanical properties :
#
#
# Convention : Reuss Voigt Hill
#
# Bulk Modulus (GPa) = 34.39807 44.51153 39.45480
# Shear Modulus (GPa) = 19.00960 23.14199 21.07579
#
# Velocity S-wave (km/s) = 3.09743 3.41755 3.26142
# Velocity P-wave (km/s) = 5.49114 6.16746 5.83910
#
# Compressibility (1/GPa) = 0.02907140
#
# Stress axis : x y z
#
# Youngs Moduli (GPa) = 62.08950 60.76697 34.97628
#
# Poissons Ratio (x) = 0.46594 0.27968
# Poissons Ratio (y) = 0.47608 0.01318
# Poissons Ratio (z) = 0.49648 0.02290
#
# Static dielectric constant tensor:
#      x y z
#    x 1.706760 0.000000 0.000000 
#    y 0.000000 1.681960 0.000000 
#    z 0.000000 0.000000 1.818930 
# 
# From -- ./inp_files/14389.got.cif
#   From: 2010.05.17/outbox.cif.g08.bks.cpg/sg65_8_cif.got.tgz:14389.got - 2010.06.03 17:01:31.
