data_PCOD9489392
_publ_section_title
;
Structure prediction by ZEFSAII (Michael W. Deem and Ramdas Pophale) SiO2 
 PCOD9489392
Probable space group: C M M M
;
_chemical_formula_sum "Si O2"
_cell_formula_units_Z 88
_cell_length_a 20.023488
_cell_length_b 8.824374
_cell_length_c 28.307435
_cell_angle_alpha 90.000000
_cell_angle_beta 90.000000
_cell_angle_gamma 90.000000
_cell_volume 5001.775063
_symmetry_space_group_name_H-M "C M M M"
_symmetry_group_IT_number 65
_symmetry_cell_setting 'orthorhombic'
loop_
_space_group_symop_operation_xyz
x,y,z
-x,-y,z
x,-y,-z
-x,y,-z
-x,-y,-z
x,y,-z
-x,y,z
x,-y,z
1/2+x,1/2+y,z
1/2-x,1/2-y,z
1/2+x,1/2-y,-z
1/2-x,1/2+y,-z
1/2-x,1/2-y,-z
1/2+x,1/2+y,-z
1/2-x,1/2+y,z
1/2+x,1/2-y,z
loop_
_atom_site_type_symbol
_atom_site_label
_atom_site_fract_x
_atom_site_fract_y
_atom_site_fract_z
Si Si1 0.421600 0.318922 0.131458
Si Si2 0.578529 0.819107 0.766844
Si Si3 0.322970 0.818726 0.945181
Si Si4 0.322421 0.681747 0.690646
Si Si5 0.177880 0.182389 0.581207
Si Si6 0.423340 0.684899 0.500000
O O1 0.500000 0.283638 0.123594
O O2 0.414086 0.500000 0.132918
O O3 0.402660 0.249588 0.182250
O O4 0.376632 0.249950 0.090352
O O5 0.500000 0.785355 0.759295
O O6 0.622775 0.747710 0.725753
O O7 0.586952 0.000000 0.767854
O O8 0.250000 0.750000 0.935164
O O9 0.320540 0.000000 0.940305
O O10 0.339093 0.782715 0.000000
O O11 0.320395 0.500000 0.694122
O O12 0.250000 0.750000 0.702568
O O13 0.336192 0.722855 0.635790
O O14 0.250000 0.250000 0.568021
O O15 0.119452 0.231634 0.545823
O O16 0.182826 0.000000 0.578503
O O17 0.425134 0.500000 0.500000
O O18 0.500000 0.737384 0.500000
#
# Coordination Sequence:
#
# PCOD9489392 Si02
#       6
#    16  16  16  16  16   8
#     4  10  21  37  57  81 109 141 178 219 262 312
#     4  10  21  37  56  78 106 139 174 215 264 315
#     4  10  21  37  57  81 110 143 179 220 265 313
#     4  10  20  34  53  78 106 136 175 219 262 311
#     4   9  18  32  52  75 100 134 171 211 256 304
#     4   9  17  30  49  75 104 133 170 212 254 303
#
# _framework density 17.593753
#
# number of rings (size 3 to 8) (size 9 to 14) (size 15 to 20)
#    0.000    2.273    0.000    2.455    0.000    5.818 
#    0.000    7.273    0.000    1.091    0.000    0.000 
#    0.000    0.000    0.000    0.000    0.000    0.000 
#
# Total GULP energy -245629.320426 kJ/mol
# GULP energy per Si atom -5582.484555 kJ/mol
# Density = 1.755371 g / cm^3
# Si number density = 17.593753 Si / 1000 Ang^3
#
#
#
# Elastic Constant Matrix: (Units=GPa)
#
#
# Indices 1 2 3 4 5 6 
#
# 1 132.4845 52.3999 115.0758 0.0000 0.0000 0.0000
# 2 52.3999 46.9897 54.2686 0.0000 0.0000 0.0000
# 3 115.0758 54.2686 136.2354 0.0000 0.0000 0.0000
# 4 0.0000 0.0000 0.0000 20.0958 0.0000 0.0000
# 5 0.0000 0.0000 0.0000 0.0000 45.9202 0.0000
# 6 0.0000 0.0000 0.0000 0.0000 0.0000 31.8283
#
#
#
# Elastic Compliance Matrix: (Units=1/GPa)
#
#
# Indices 1 2 3 4 5 6 
#
# 1 0.029775 -0.007698 -0.022083 0.000000 0.000000 0.000000
# 2 -0.007698 0.041404 -0.009990 0.000000 0.000000 0.000000
# 3 -0.022083 -0.009990 0.029973 0.000000 0.000000 0.000000
# 4 0.000000 0.000000 0.000000 0.049762 0.000000 0.000000
# 5 0.000000 0.000000 0.000000 0.000000 0.021777 0.000000
# 6 0.000000 0.000000 0.000000 0.000000 0.000000 0.031419
#
#
# Mechanical properties :
#
#
# Convention : Reuss Voigt Hill
#
# Bulk Modulus (GPa) = 46.28036 84.35536 65.31786
# Shear Modulus (GPa) = 17.19068 25.83321 21.51195
#
# Velocity S-wave (km/s) = 3.12923 3.83602 3.50051
# Velocity P-wave (km/s) = 6.27840 8.22620 7.31740
#
# Compressibility (1/GPa) = 0.02160744
#
# Stress axis : x y z
#
# Youngs Moduli (GPa) = 33.58576 24.15239 33.36309
#
# Poissons Ratio (x) = 0.18594 0.73677
# Poissons Ratio (y) = 0.25856 0.33330
# Poissons Ratio (z) = 0.74169 0.24129
#
# Static dielectric constant tensor:
#      x y z
#    x 1.570330 0.000000 0.000000 
#    y 0.000000 1.585630 0.000000 
#    z 0.000000 0.000000 1.584750 
# 
# From -- ./inp_files/67490.got.cif
#   From: 2010.05.17/outbox.cif.g08.bks.cpg/sg65_34_cif.got.tgz:67490.got - 2010.06.03 17:01:31.
