data_PCOD9489870
_publ_section_title
;
Structure prediction by ZEFSAII (Michael W. Deem and Ramdas Pophale) SiO2 
 PCOD9489870
Probable space group: C M M M
;
_chemical_formula_sum "Si O2"
_cell_formula_units_Z 88
_cell_length_a 16.569201
_cell_length_b 29.172263
_cell_length_c 9.336244
_cell_angle_alpha 90.000000
_cell_angle_beta 90.000000
_cell_angle_gamma 90.000000
_cell_volume 4512.777070
_symmetry_space_group_name_H-M "C M M M"
_symmetry_group_IT_number 65
_symmetry_cell_setting 'orthorhombic'
loop_
_space_group_symop_operation_xyz
x,y,z
-x,-y,z
x,-y,-z
-x,y,-z
-x,-y,-z
x,y,-z
-x,y,z
x,-y,z
1/2+x,1/2+y,z
1/2-x,1/2-y,z
1/2+x,1/2-y,-z
1/2-x,1/2+y,-z
1/2-x,1/2-y,-z
1/2+x,1/2+y,-z
1/2-x,1/2+y,z
1/2+x,1/2-y,z
loop_
_atom_site_type_symbol
_atom_site_label
_atom_site_fract_x
_atom_site_fract_y
_atom_site_fract_z
Si Si1 0.651808 0.755534 0.839279
Si Si2 0.647823 0.667845 0.670112
Si Si3 0.592780 0.415036 0.840980
Si Si4 0.400474 0.500000 0.336402
Si Si5 0.405775 0.051171 0.826205
Si Si6 0.314848 0.855580 0.827715
O O1 0.750000 0.750000 0.842117
O O2 0.624913 0.718504 0.723988
O O3 0.633380 0.808741 0.809223
O O4 0.623401 0.743649 0.000000
O O5 0.645695 0.664415 0.500000
O O6 0.593687 0.630867 0.750123
O O7 0.735536 0.654071 0.734112
O O8 0.500000 0.428600 0.859138
O O9 0.630178 0.455688 0.748575
O O10 0.628540 0.409763 0.000000
O O11 0.500000 0.500000 0.340848
O O12 0.374062 0.500000 0.500000
O O13 0.500000 0.055993 0.784328
O O14 0.355995 0.096528 0.784821
O O15 0.377878 0.000000 0.779439
O O16 0.403974 0.050896 0.000000
O O17 0.296976 0.856686 0.000000
#
# Coordination Sequence:
#
# PCOD9489870 Si02
#       6
#    16  16  16   8  16  16
#     4   8  15  29  48  69  96 131 169 208 251 303
#     4  11  21  32  49  73 101 133 168 213 262 305
#     4  10  20  35  54  73  96 131 173 210 248 300
#     4   9  17  31  51  73  97 125 158 197 242 291
#     4   8  14  27  50  79 106 131 163 205 252 301
#     4   9  17  31  51  74 102 133 168 211 254 303
#
# _framework density 19.500188999999999
#
# number of rings (size 3 to 8) (size 9 to 14) (size 15 to 20)
#    0.000    2.818    0.000    4.091    0.000    5.455 
#    1.636    0.909    0.000    3.818    0.000    1.273 
#    0.000    0.000    0.000    0.000    0.000    0.000 
#
# Total GULP energy -245005.766432 kJ/mol
# GULP energy per Si atom -5568.312873 kJ/mol
# Density = 1.945581 g / cm^3
# Si number density = 19.500189 Si / 1000 Ang^3
#
#
#
# Elastic Constant Matrix: (Units=GPa)
#
#
# Indices 1 2 3 4 5 6 
#
# 1 12.4833 28.5732 15.1666 0.0000 0.0000 0.0000
# 2 28.5732 171.7245 67.9595 0.0000 0.0000 0.0000
# 3 15.1666 67.9595 136.5250 0.0000 0.0000 0.0000
# 4 0.0000 0.0000 0.0000 40.2426 0.0000 0.0000
# 5 0.0000 0.0000 0.0000 0.0000 9.5309 0.0000
# 6 0.0000 0.0000 0.0000 0.0000 0.0000 10.4280
#
#
#
# Elastic Compliance Matrix: (Units=1/GPa)
#
#
# Indices 1 2 3 4 5 6 
#
# 1 0.131698 -0.020079 -0.004636 0.000000 0.000000 0.000000
# 2 -0.020079 0.010313 -0.002903 0.000000 0.000000 0.000000
# 3 -0.004636 -0.002903 0.009285 0.000000 0.000000 0.000000
# 4 0.000000 0.000000 0.000000 0.024849 0.000000 0.000000
# 5 0.000000 0.000000 0.000000 0.000000 0.104922 0.000000
# 6 0.000000 0.000000 0.000000 0.000000 0.000000 0.095895
#
#
# Mechanical properties :
#
#
# Convention : Reuss Voigt Hill
#
# Bulk Modulus (GPa) = 10.41006 60.45904 35.43455
# Shear Modulus (GPa) = 10.77084 25.97587 18.37335
#
# Velocity S-wave (km/s) = 2.35275 3.65373 3.07288
# Velocity P-wave (km/s) = 3.56800 6.99080 5.54986
#
# Compressibility (1/GPa) = 0.09606088
#
# Stress axis : x y z
#
# Youngs Moduli (GPa) = 7.59315 96.96459 107.70355
#
# Poissons Ratio (x) = 1.94691 0.49927
# Poissons Ratio (y) = 0.15246 0.31267
# Poissons Ratio (z) = 0.03520 0.28150
#
# Static dielectric constant tensor:
#      x y z
#    x 1.754740 0.000000 0.000000 
#    y 0.000000 1.731810 0.000000 
#    z 0.000000 0.000000 1.662220 
# 
# From -- ./inp_files/10048.got.cif
#   From: 2010.05.17/outbox.cif.g08.bks.cpg/sg65_6_cif.got.tgz:10048.got - 2010.06.03 17:01:31.
