data_PCOD9489030
_publ_section_title
;
Structure prediction by ZEFSAII (Michael W. Deem and Ramdas Pophale) SiO2 
 PCOD9489030
Probable space group: C M M M
;
_chemical_formula_sum "Si O2"
_cell_formula_units_Z 88
_cell_length_a 12.454482
_cell_length_b 14.634246
_cell_length_c 26.511340
_cell_angle_alpha 90.000000
_cell_angle_beta 90.000000
_cell_angle_gamma 90.000000
_cell_volume 4832.008615
_symmetry_space_group_name_H-M "C M M M"
_symmetry_group_IT_number 65
_symmetry_cell_setting 'orthorhombic'
loop_
_space_group_symop_operation_xyz
x,y,z
-x,-y,z
x,-y,-z
-x,y,-z
-x,-y,-z
x,y,-z
-x,y,z
x,-y,z
1/2+x,1/2+y,z
1/2-x,1/2-y,z
1/2+x,1/2-y,-z
1/2-x,1/2+y,-z
1/2-x,1/2-y,-z
1/2+x,1/2+y,-z
1/2-x,1/2+y,z
1/2+x,1/2-y,z
loop_
_atom_site_type_symbol
_atom_site_label
_atom_site_fract_x
_atom_site_fract_y
_atom_site_fract_z
Si Si1 0.700895 0.655767 0.632100
Si Si2 0.871940 0.000000 0.823177
Si Si3 0.376458 0.000000 0.060348
Si Si4 0.714901 0.352857 0.899453
Si Si5 0.876042 0.205824 0.000000
Si Si6 0.370796 0.500000 0.707316
Si Si7 0.880561 0.391255 0.445676
Si Si8 0.000000 0.112784 0.438994
O O1 0.750000 0.750000 0.652658
O O2 0.669283 0.587801 0.676510
O O3 0.800331 0.623619 0.598794
O O4 0.602581 0.652977 0.591486
O O5 0.832349 0.911087 0.853675
O O6 0.834417 0.000000 0.765271
O O7 0.000000 0.000000 0.822939
O O8 0.316770 0.910567 0.080848
O O9 0.500000 0.000000 0.075028
O O10 0.368157 0.000000 0.000000
O O11 0.750000 0.250000 0.886139
O O12 0.633465 0.347501 0.947148
O O13 0.750000 0.250000 0.000000
O O14 0.000000 0.249096 0.000000
O O15 0.500000 0.500000 0.706132
O O16 0.841022 0.355701 0.500000
O O17 0.889562 0.500000 0.450023
O O18 0.000000 0.354162 0.437043
O O19 0.000000 0.130135 0.500000
O O20 0.000000 0.000000 0.433351
#
# Coordination Sequence:
#
# PCOD9489030 Si02
#       8
#    16   8   8  16   8   8  16   8
#     4  12  23  37  62  86 118 156 203 247 298 360
#     4  10  23  40  66  87 111 155 208 271 323 359
#     4  10  20  34  54  87 130 180 216 239 294 377
#     4  10  21  38  59  92 129 162 207 258 313 375
#     4  10  20  33  56  91 134 170 204 247 305 385
#     4  11  23  47  65  83 114 153 214 269 310 368
#     4   9  18  33  53  80 116 152 182 221 282 352
#     4  11  22  40  64  91 127 165 197 240 304 368
#
# _framework density 18.211887999999998
#
# number of rings (size 3 to 8) (size 9 to 14) (size 15 to 20)
#    0.000    1.636    3.636    1.636    1.273    7.273 
#    0.000    1.364    0.000    4.364    0.000    0.000 
#    0.000    0.000    0.000    0.000    0.000    0.000 
#
# Total GULP energy -245112.749061 kJ/mol
# GULP energy per Si atom -5570.744297 kJ/mol
# Density = 1.817044 g / cm^3
# Si number density = 18.211888 Si / 1000 Ang^3
#
#
#
# Elastic Constant Matrix: (Units=GPa)
#
#
# Indices 1 2 3 4 5 6 
#
# 1 93.0864 45.1654 55.7516 0.0000 0.0000 0.0000
# 2 45.1654 123.8086 57.9351 0.0000 0.0000 0.0000
# 3 55.7516 57.9351 156.6824 0.0000 0.0000 0.0000
# 4 0.0000 0.0000 0.0000 163.3686 0.0000 0.0000
# 5 0.0000 0.0000 0.0000 0.0000 23.9108 0.0000
# 6 0.0000 0.0000 0.0000 0.0000 0.0000 26.6537
#
#
#
# Elastic Compliance Matrix: (Units=1/GPa)
#
#
# Indices 1 2 3 4 5 6 
#
# 1 0.014845 -0.003560 -0.003966 0.000000 0.000000 0.000000
# 2 -0.003560 0.010620 -0.002660 0.000000 0.000000 0.000000
# 3 -0.003966 -0.002660 0.008777 0.000000 0.000000 0.000000
# 4 0.000000 0.000000 0.000000 0.006121 0.000000 0.000000
# 5 0.000000 0.000000 0.000000 0.000000 0.041822 0.000000
# 6 0.000000 0.000000 0.000000 0.000000 0.000000 0.037518
#
#
# Mechanical properties :
#
#
# Convention : Reuss Voigt Hill
#
# Bulk Modulus (GPa) = 72.09460 76.80906 74.45183
# Shear Modulus (GPa) = 34.55416 57.10165 45.82790
#
# Velocity S-wave (km/s) = 4.36057 5.60554 5.02179
# Velocity P-wave (km/s) = 8.06383 9.17404 8.63679
#
# Compressibility (1/GPa) = 0.01387066
#
# Stress axis : x y z
#
# Youngs Moduli (GPa) = 67.36171 94.15784 113.93028
#
# Poissons Ratio (x) = 0.33517 0.45186
# Poissons Ratio (y) = 0.23978 0.30310
# Poissons Ratio (z) = 0.26716 0.25050
#
# Static dielectric constant tensor:
#      x y z
#    x 1.644880 0.000000 0.000000 
#    y 0.000000 1.550980 0.000000 
#    z 0.000000 0.000000 1.628320 
# 
# From -- ./inp_files/74330.got.cif
#   From: 2010.05.17/outbox.cif.g08.bks.cpg/sg65_38_cif.got.tgz:74330.got - 2010.06.03 17:01:31.
