data_PCOD9489361
_publ_section_title
;
Structure prediction by ZEFSAII (Michael W. Deem and Ramdas Pophale) SiO2 
 PCOD9489361
Probable space group: C M M M
;
_chemical_formula_sum "Si O2"
_cell_formula_units_Z 72
_cell_length_a 17.830331
_cell_length_b 8.830447
_cell_length_c 24.475628
_cell_angle_alpha 90.000000
_cell_angle_beta 90.000000
_cell_angle_gamma 90.000000
_cell_volume 3853.682559
_symmetry_space_group_name_H-M "C M M M"
_symmetry_group_IT_number 65
_symmetry_cell_setting 'orthorhombic'
loop_
_space_group_symop_operation_xyz
x,y,z
-x,-y,z
x,-y,-z
-x,y,-z
-x,-y,-z
x,y,-z
-x,y,z
x,-y,z
1/2+x,1/2+y,z
1/2-x,1/2-y,z
1/2+x,1/2-y,-z
1/2-x,1/2+y,-z
1/2-x,1/2-y,-z
1/2+x,1/2+y,-z
1/2-x,1/2+y,z
1/2+x,1/2-y,z
loop_
_atom_site_type_symbol
_atom_site_label
_atom_site_fract_x
_atom_site_fract_y
_atom_site_fract_z
Si Si1 0.165962 0.680914 0.168859
Si Si2 0.166254 0.318509 0.289957
Si Si3 0.334366 0.318749 0.940196
Si Si4 0.332637 0.180316 0.500000
Si Si5 0.089490 0.176766 0.605284
O O1 0.170562 0.500000 0.162794
O O2 0.250000 0.750000 0.170719
O O3 0.134258 0.715183 0.229108
O O4 0.129190 0.750754 0.114524
O O5 0.170845 0.500000 0.295327
O O6 0.250000 0.250000 0.293367
O O7 0.118321 0.248834 0.338544
O O8 0.329356 0.500000 0.935110
O O9 0.250000 0.250000 0.941664
O O10 0.368392 0.283524 0.000000
O O11 0.250000 0.250000 0.500000
O O12 0.374741 0.238341 0.553924
O O13 0.328784 0.000000 0.500000
O O14 0.000000 0.186738 0.602133
O O15 0.111455 0.000000 0.603226
#
# Coordination Sequence:
#
# PCOD9489361 Si02
#       5
#    16  16  16   8  16
#     4   9  16  25  39  60  87 122 163 207 253 302
#     4  10  20  34  53  77 105 138 178 220 263 313
#     4   9  15  21  31  50  79 117 159 202 250 304
#     4  12  25  42  65  89 115 145 177 214 255 302
#     4  11  24  41  60  83 112 143 176 216 261 308
#
# _framework density 18.683426999999998
#
# number of rings (size 3 to 8) (size 9 to 14) (size 15 to 20)
#    0.000    2.000    0.000    6.000    0.000    7.111 
#    0.000    0.000    0.000    0.000    0.000    0.000 
#    0.000    0.889    0.000    9.778    0.000   10.889 
#
# Total GULP energy -200806.631897 kJ/mol
# GULP energy per Si atom -5577.961997 kJ/mol
# Density = 1.864090 g / cm^3
# Si number density = 18.683427 Si / 1000 Ang^3
#
#
#
# Elastic Constant Matrix: (Units=GPa)
#
#
# Indices 1 2 3 4 5 6 
#
# 1 25.7771 32.6541 40.7824 0.0000 0.0000 0.0000
# 2 32.6541 137.3341 98.8360 0.0000 0.0000 0.0000
# 3 40.7824 98.8360 224.1745 0.0000 0.0000 0.0000
# 4 0.0000 0.0000 0.0000 34.4020 0.0000 0.0000
# 5 0.0000 0.0000 0.0000 0.0000 -30.2755 0.0000
# 6 0.0000 0.0000 0.0000 0.0000 0.0000 17.7486
#
#
#
# Elastic Compliance Matrix: (Units=1/GPa)
#
#
# Indices 1 2 3 4 5 6 
#
# 1 0.062261 -0.009744 -0.007031 0.000000 0.000000 0.000000
# 2 -0.009744 0.012191 -0.003602 0.000000 0.000000 0.000000
# 3 -0.007031 -0.003602 0.007328 0.000000 0.000000 0.000000
# 4 0.000000 0.000000 0.000000 0.029068 0.000000 0.000000
# 5 0.000000 0.000000 0.000000 0.000000 -0.033030 0.000000
# 6 0.000000 0.000000 0.000000 0.000000 0.000000 0.056342
#
#
# Mechanical properties :
#
#
# Convention : Reuss Voigt Hill
#
# Bulk Modulus (GPa) = 24.37466 81.31451 52.84458
# Shear Modulus (GPa) = 26.51261 18.70924 22.61092
#
# Velocity S-wave (km/s) = 3.77111 3.16789 3.48259
# Velocity P-wave (km/s) = 5.66005 7.54967 6.67209
#
# Compressibility (1/GPa) = 0.04102622
#
# Stress axis : x y z
#
# Youngs Moduli (GPa) = 16.06135 82.02975 136.46382
#
# Poissons Ratio (x) = 0.79931 0.95943
# Poissons Ratio (y) = 0.15650 0.49155
# Poissons Ratio (z) = 0.11292 0.29548
#
# Static dielectric constant tensor:
#      x y z
#    x 1.581500 0.000000 0.000000 
#    y 0.000000 1.624630 0.000000 
#    z 0.000000 0.000000 1.706570 
# 
# From -- ./inp_files/70355.got.cif
#   From: 2010.05.17/outbox.cif.g08.bks.cpg/sg65_36_cif.got.tgz:70355.got - 2010.06.03 17:01:31.
