data_PCOD9489342
_publ_section_title
;
Structure prediction by ZEFSAII (Michael W. Deem and Ramdas Pophale) SiO2 
 PCOD9489342
Probable space group: C M M M
;
_chemical_formula_sum "Si O2"
_cell_formula_units_Z 88
_cell_length_a 8.528704
_cell_length_b 20.131595
_cell_length_c 28.628205
_cell_angle_alpha 90.000000
_cell_angle_beta 90.000000
_cell_angle_gamma 90.000000
_cell_volume 4915.360161
_symmetry_space_group_name_H-M "C M M M"
_symmetry_group_IT_number 65
_symmetry_cell_setting 'orthorhombic'
loop_
_space_group_symop_operation_xyz
x,y,z
-x,-y,z
x,-y,-z
-x,y,-z
-x,-y,-z
x,y,-z
-x,y,z
x,-y,z
1/2+x,1/2+y,z
1/2-x,1/2-y,z
1/2+x,1/2-y,-z
1/2-x,1/2+y,-z
1/2-x,1/2-y,-z
1/2+x,1/2+y,-z
1/2-x,1/2+y,z
1/2+x,1/2-y,z
loop_
_atom_site_type_symbol
_atom_site_label
_atom_site_fract_x
_atom_site_fract_y
_atom_site_fract_z
Si Si1 0.689260 0.676958 0.419589
Si Si2 0.308440 0.423510 0.500000
Si Si3 0.687781 0.322917 0.687740
Si Si4 0.812400 0.576716 0.764618
Si Si5 0.189498 0.076634 0.133920
Si Si6 0.810485 0.176057 0.946948
O O1 0.500000 0.679143 0.420688
O O2 0.750000 0.750000 0.433466
O O3 0.740742 0.619212 0.454798
O O4 0.738655 0.664323 0.365978
O O5 0.255329 0.500000 0.500000
O O6 0.500000 0.424934 0.500000
O O7 0.500000 0.322399 0.688696
O O8 0.750000 0.250000 0.700663
O O9 0.749479 0.377213 0.723593
O O10 0.761195 0.500000 0.758045
O O11 0.751073 0.598454 0.815485
O O12 0.000000 0.578529 0.764810
O O13 0.243131 0.123945 0.092009
O O14 0.000000 0.077843 0.134992
O O15 0.238816 0.000000 0.126609
O O16 0.750000 0.250000 0.936897
O O17 0.000000 0.176991 0.946259
O O18 0.761408 0.158532 0.000000
#
# Coordination Sequence:
#
# PCOD9489342 Si02
#       6
#    16   8  16  16  16  16
#     4   9  18  32  52  75  99 131 166 203 246 293
#     4   9  17  30  49  75 104 131 164 204 244 289
#     4  10  20  34  53  77 103 132 170 212 253 300
#     4  10  21  36  53  74 102 135 169 208 255 303
#     4   9  18  33  52  73  98 130 168 207 246 292
#     4   9  18  32  50  73 100 129 161 199 245 295
#
# _framework density 17.903061999999998
#
# number of rings (size 3 to 8) (size 9 to 14) (size 15 to 20)
#    0.000    2.636    0.000    1.364    0.000    4.364 
#    0.000    5.455    0.000    1.091    0.000    5.091 
#    0.000    0.000    0.000    0.000    0.000    0.000 
#
# Total GULP energy -245433.393916 kJ/mol
# GULP energy per Si atom -5578.031680 kJ/mol
# Density = 1.786231 g / cm^3
# Si number density = 17.903062 Si / 1000 Ang^3
#
#
#
# Elastic Constant Matrix: (Units=GPa)
#
#
# Indices 1 2 3 4 5 6 
#
# 1 11.2780 19.8831 23.0159 0.0000 0.0000 0.0000
# 2 19.8831 134.0423 118.1686 0.0000 0.0000 0.0000
# 3 23.0159 118.1686 146.2588 0.0000 0.0000 0.0000
# 4 0.0000 0.0000 0.0000 61.4033 0.0000 0.0000
# 5 0.0000 0.0000 0.0000 0.0000 15.5944 0.0000
# 6 0.0000 0.0000 0.0000 0.0000 0.0000 27.2536
#
#
#
# Elastic Compliance Matrix: (Units=1/GPa)
#
#
# Indices 1 2 3 4 5 6 
#
# 1 0.131351 -0.004385 -0.017127 0.000000 0.000000 0.000000
# 2 -0.004385 0.026074 -0.020376 0.000000 0.000000 0.000000
# 3 -0.017127 -0.020376 0.025995 0.000000 0.000000 0.000000
# 4 0.000000 0.000000 0.000000 0.016286 0.000000 0.000000
# 5 0.000000 0.000000 0.000000 0.000000 0.064125 0.000000
# 6 0.000000 0.000000 0.000000 0.000000 0.000000 0.036692
#
#
# Mechanical properties :
#
#
# Convention : Reuss Voigt Hill
#
# Bulk Modulus (GPa) = 10.03576 68.19049 39.11312
# Shear Modulus (GPa) = 11.97560 29.55104 20.76332
#
# Velocity S-wave (km/s) = 2.58914 4.06718 3.40922
# Velocity P-wave (km/s) = 3.81523 7.76063 6.11487
#
# Compressibility (1/GPa) = 0.09964368
#
# Stress axis : x y z
#
# Youngs Moduli (GPa) = 7.61317 38.35235 38.46866
#
# Poissons Ratio (x) = 0.16818 0.65885
# Poissons Ratio (y) = 0.03339 0.78385
# Poissons Ratio (z) = 0.13039 0.78148
#
# Static dielectric constant tensor:
#      x y z
#    x 1.609000 0.000000 0.000000 
#    y 0.000000 1.586740 0.000000 
#    z 0.000000 0.000000 1.607700 
# 
# From -- ./inp_files/67491.got.cif
#   From: 2010.05.17/outbox.cif.g08.bks.cpg/sg65_34_cif.got.tgz:67491.got - 2010.06.03 17:01:31.
