data_PCOD9489597
_publ_section_title
;
Structure prediction by ZEFSAII (Michael W. Deem and Ramdas Pophale) SiO2 
 PCOD9489597
Probable space group: C M M M
;
_chemical_formula_sum "Si O2"
_cell_formula_units_Z 80
_cell_length_a 25.054026
_cell_length_b 7.939314
_cell_length_c 20.654457
_cell_angle_alpha 90.000000
_cell_angle_beta 90.000000
_cell_angle_gamma 90.000000
_cell_volume 4108.414794
_symmetry_space_group_name_H-M "C M M M"
_symmetry_group_IT_number 65
_symmetry_cell_setting 'orthorhombic'
loop_
_space_group_symop_operation_xyz
x,y,z
-x,-y,z
x,-y,-z
-x,y,-z
-x,-y,-z
x,y,-z
-x,y,z
x,-y,z
1/2+x,1/2+y,z
1/2-x,1/2-y,z
1/2+x,1/2-y,-z
1/2-x,1/2+y,-z
1/2-x,1/2-y,-z
1/2+x,1/2+y,-z
1/2-x,1/2+y,z
1/2+x,1/2-y,z
loop_
_atom_site_type_symbol
_atom_site_label
_atom_site_fract_x
_atom_site_fract_y
_atom_site_fract_z
Si Si1 0.437807 0.705837 0.427819
Si Si2 0.500000 0.188742 0.227404
Si Si3 0.500000 0.757210 0.075536
Si Si4 0.115243 0.697607 0.071870
Si Si5 0.607240 0.300587 0.704849
Si Si6 0.311619 0.298240 0.190471
O O1 0.421311 0.759710 0.500000
O O2 0.500000 0.752605 0.418291
O O3 0.436707 0.500000 0.427201
O O4 0.403793 0.768236 0.366973
O O5 0.500000 0.176740 0.149768
O O6 0.446770 0.276652 0.253533
O O7 0.500000 0.000000 0.254067
O O8 0.438799 0.692467 0.076601
O O9 0.500000 0.825263 0.000000
O O10 0.097671 0.500000 0.077146
O O11 0.157204 0.733304 0.127429
O O12 0.138256 0.720550 0.000000
O O13 0.616176 0.500000 0.697385
O O14 0.656136 0.231521 0.746879
O O15 0.315653 0.500000 0.189732
O O16 0.250000 0.250000 0.190619
#
# Coordination Sequence:
#
# PCOD9489597 Si02
#       6
#    16   8   8  16  16  16
#     4   8  13  24  48  80 109 138 170 203 244 301
#     4  12  21  30  53  83 109 141 174 209 260 317
#     4  10  20  34  54  81 112 144 175 207 253 316
#     4  10  20  36  58  81 107 139 174 214 259 312
#     4  10  20  35  54  78 109 139 172 218 261 304
#     4  11  24  39  56  75 100 136 179 226 272 311
#
# _framework density 19.472231000000001
#
# number of rings (size 3 to 8) (size 9 to 14) (size 15 to 20)
#    0.000    2.000    3.000    2.400    0.000    3.800 
#    0.000    0.500    0.000    4.800    0.000    0.000 
#    0.000    0.000    0.000    0.000    0.000    0.200 
#
# Total GULP energy -222687.062925 kJ/mol
# GULP energy per Si atom -5567.176573 kJ/mol
# Density = 1.942791 g / cm^3
# Si number density = 19.472231 Si / 1000 Ang^3
#
#
#
# Elastic Constant Matrix: (Units=GPa)
#
#
# Indices 1 2 3 4 5 6 
#
# 1 145.2513 4.9373 94.3714 0.0000 0.0000 0.0000
# 2 4.9373 34.2909 15.3245 0.0000 0.0000 0.0000
# 3 94.3714 15.3245 210.4718 0.0000 0.0000 0.0000
# 4 0.0000 0.0000 0.0000 -22.0165 0.0000 0.0000
# 5 0.0000 0.0000 0.0000 0.0000 18.7955 0.0000
# 6 0.0000 0.0000 0.0000 0.0000 0.0000 -184.6225
#
#
#
# Elastic Compliance Matrix: (Units=1/GPa)
#
#
# Indices 1 2 3 4 5 6 
#
# 1 0.009725 0.000567 -0.004402 0.000000 0.000000 0.000000
# 2 0.000567 0.030176 -0.002451 0.000000 0.000000 0.000000
# 3 -0.004402 -0.002451 0.006903 0.000000 0.000000 0.000000
# 4 0.000000 0.000000 0.000000 -0.045420 0.000000 0.000000
# 5 0.000000 0.000000 0.000000 0.000000 0.053204 0.000000
# 6 0.000000 0.000000 0.000000 0.000000 0.000000 -0.005416
#
#
# Mechanical properties :
#
#
# Convention : Reuss Voigt Hill
#
# Bulk Modulus (GPa) = 29.21220 68.80894 49.01057
# Shear Modulus (GPa) = 68.34745 -19.20999 24.56873
#
# Velocity S-wave (km/s) = 5.93095 -3.14432 3.55594
# Velocity P-wave (km/s) = 7.86995 4.71501 6.48720
#
# Compressibility (1/GPa) = 0.03423228
#
# Stress axis : x y z
#
# Youngs Moduli (GPa) = 102.82424 33.13875 144.85504
#
# Poissons Ratio (x) = -0.01879 0.63764
# Poissons Ratio (y) = -0.05830 0.35509
# Poissons Ratio (z) = 0.45263 0.08123
#
# Static dielectric constant tensor:
#      x y z
#    x 1.651710 0.000000 0.000000 
#    y 0.000000 1.760230 0.000000 
#    z 0.000000 0.000000 1.700370 
# 
# From -- ./inp_files/65064.got.cif
#   From: 2010.05.17/outbox.cif.g08.bks.cpg/sg65_33_cif.got.tgz:65064.got - 2010.06.03 17:01:31.
