data_PCOD9489253
_publ_section_title
;
Structure prediction by ZEFSAII (Michael W. Deem and Ramdas Pophale) SiO2 
 PCOD9489253
Probable space group: C M M M
;
_chemical_formula_sum "Si O2"
_cell_formula_units_Z 116
_cell_length_a 30.084865
_cell_length_b 8.867516
_cell_length_c 25.110565
_cell_angle_alpha 90.000000
_cell_angle_beta 90.000000
_cell_angle_gamma 90.000000
_cell_volume 6698.946856
_symmetry_space_group_name_H-M "C M M M"
_symmetry_group_IT_number 65
_symmetry_cell_setting 'orthorhombic'
loop_
_space_group_symop_operation_xyz
x,y,z
-x,-y,z
x,-y,-z
-x,y,-z
-x,-y,-z
x,y,-z
-x,y,z
x,-y,z
1/2+x,1/2+y,z
1/2-x,1/2-y,z
1/2+x,1/2-y,-z
1/2-x,1/2+y,-z
1/2-x,1/2-y,-z
1/2+x,1/2+y,-z
1/2-x,1/2+y,z
1/2+x,1/2-y,z
loop_
_atom_site_type_symbol
_atom_site_label
_atom_site_fract_x
_atom_site_fract_y
_atom_site_fract_z
Si Si1 0.552215 0.321415 0.656830
Si Si2 0.948483 0.679784 0.228456
Si Si3 0.797806 0.680605 0.725589
Si Si4 0.113656 0.181784 0.558911
Si Si5 0.637567 0.320522 0.812500
Si Si6 0.202703 0.679838 0.600203
Si Si7 0.296577 0.166220 0.109938
Si Si8 0.695448 0.000000 0.000000
O O1 0.500000 0.304749 0.644153
O O2 0.560482 0.500000 0.666640
O O3 0.561170 0.231931 0.711029
O O4 0.581837 0.270431 0.607246
O O5 0.943976 0.500000 0.224436
O O6 0.912526 0.759645 0.191318
O O7 0.000000 0.720405 0.217278
O O8 0.797277 0.500000 0.730998
O O9 0.750000 0.750000 0.740937
O O10 0.835420 0.753021 0.762250
O O11 0.804738 0.715820 0.663034
O O12 0.096863 0.223013 0.500000
O O13 0.162037 0.250855 0.568089
O O14 0.116600 0.000000 0.561193
O O15 0.638349 0.500000 0.810532
O O16 0.663835 0.259527 0.863841
O O17 0.204139 0.500000 0.594402
O O18 0.250000 0.750000 0.584765
O O19 0.250000 0.250000 0.117682
O O20 0.294728 0.000000 0.136628
O O21 0.303452 0.128994 0.047770
#
# Coordination Sequence:
#
# PCOD9489253 Si02
#       8
#    16  16  16  16  16  16  16   4
#     4   9  18  34  56  80 106 138 174 212 262 327
#     4  10  21  37  57  81 110 143 178 220 274 333
#     4  10  20  34  52  76 108 142 176 217 269 329
#     4  10  21  35  51  73 101 133 172 219 266 313
#     4  12  23  34  52  82 116 148 183 226 272 322
#     4  10  21  36  54  73  95 130 173 216 267 325
#     4  10  20  36  56  83 114 154 195 233 270 310
#     4   8  22  36  62  80 115 162 195 240 264 312
#
# _framework density 17.316155999999999
#
# number of rings (size 3 to 8) (size 9 to 14) (size 15 to 20)
#    0.414    1.517    0.000    4.345    0.000    6.069 
#    0.000    1.379    0.000    0.000    0.000    3.862 
#    0.000    1.103    0.000    0.000    0.000    0.000 
#
# Total GULP energy -323260.204368 kJ/mol
# GULP energy per Si atom -5573.451799 kJ/mol
# Density = 1.727674 g / cm^3
# Si number density = 17.316156 Si / 1000 Ang^3
#
#
#
# Elastic Constant Matrix: (Units=GPa)
#
#
# Indices 1 2 3 4 5 6 
#
# 1 99.4914 47.4964 53.9713 0.0000 0.0000 0.0000
# 2 47.4964 74.5886 32.1140 0.0000 0.0000 0.0000
# 3 53.9713 32.1140 66.3810 0.0000 0.0000 0.0000
# 4 0.0000 0.0000 0.0000 22.0776 0.0000 0.0000
# 5 0.0000 0.0000 0.0000 0.0000 8.1809 0.0000
# 6 0.0000 0.0000 0.0000 0.0000 0.0000 27.7539
#
#
#
# Elastic Compliance Matrix: (Units=1/GPa)
#
#
# Indices 1 2 3 4 5 6 
#
# 1 0.020892 -0.007566 -0.013326 0.000000 0.000000 0.000000
# 2 -0.007566 0.019674 -0.003366 0.000000 0.000000 0.000000
# 3 -0.013326 -0.003366 0.027528 0.000000 0.000000 0.000000
# 4 0.000000 0.000000 0.000000 0.045295 0.000000 0.000000
# 5 0.000000 0.000000 0.000000 0.000000 0.122236 0.000000
# 6 0.000000 0.000000 0.000000 0.000000 0.000000 0.036031
#
#
# Mechanical properties :
#
#
# Convention : Reuss Voigt Hill
#
# Bulk Modulus (GPa) = 51.07993 56.40272 53.74133
# Shear Modulus (GPa) = 15.30461 18.72777 17.01619
#
# Velocity S-wave (km/s) = 2.97616 3.29221 3.13817
# Velocity P-wave (km/s) = 6.43215 6.86255 6.65083
#
# Compressibility (1/GPa) = 0.01957716
#
# Stress axis : x y z
#
# Youngs Moduli (GPa) = 47.86480 50.82794 36.32665
#
# Poissons Ratio (x) = 0.38457 0.48409
# Poissons Ratio (y) = 0.36215 0.12229
# Poissons Ratio (z) = 0.63785 0.17111
#
# Static dielectric constant tensor:
#      x y z
#    x 1.581690 0.000000 0.000000 
#    y 0.000000 1.583650 0.000000 
#    z 0.000000 0.000000 1.584340 
# 
# From -- ./inp_files/76293.got.cif
#   From: 2010.05.17/outbox.cif.g08.bks.cpg/sg65_39_cif.got.tgz:76293.got - 2010.06.03 17:01:31.
