data_PCOD9489064
_publ_section_title
;
Structure prediction by ZEFSAII (Michael W. Deem and Ramdas Pophale) SiO2 
 PCOD9489064
Probable space group: C M M M
;
_chemical_formula_sum "Si O2"
_cell_formula_units_Z 104
_cell_length_a 8.889615
_cell_length_b 26.381904
_cell_length_c 28.441250
_cell_angle_alpha 90.000000
_cell_angle_beta 90.000000
_cell_angle_gamma 90.000000
_cell_volume 6670.183290
_symmetry_space_group_name_H-M "C M M M"
_symmetry_group_IT_number 65
_symmetry_cell_setting 'orthorhombic'
loop_
_space_group_symop_operation_xyz
x,y,z
-x,-y,z
x,-y,-z
-x,y,-z
-x,-y,-z
x,y,-z
-x,y,z
x,-y,z
1/2+x,1/2+y,z
1/2-x,1/2-y,z
1/2+x,1/2-y,-z
1/2-x,1/2+y,-z
1/2-x,1/2-y,-z
1/2+x,1/2+y,-z
1/2-x,1/2+y,z
1/2+x,1/2-y,z
loop_
_atom_site_type_symbol
_atom_site_label
_atom_site_fract_x
_atom_site_fract_y
_atom_site_fract_z
Si Si1 0.680827 0.500000 0.390521
Si Si2 0.318367 0.094988 0.444961
Si Si3 0.319839 0.195730 0.281321
Si Si4 0.827233 0.558585 0.140131
Si Si5 0.319521 0.803732 0.391006
Si Si6 0.317414 0.500000 0.718284
Si Si7 0.000000 0.438341 0.053232
Si Si8 0.179405 0.898146 0.772888
O O1 0.500000 0.500000 0.391861
O O2 0.743413 0.549421 0.416620
O O3 0.730117 0.500000 0.335961
O O4 0.280188 0.092281 0.500000
O O5 0.500000 0.090767 0.440777
O O6 0.272590 0.148840 0.422682
O O7 0.500000 0.197813 0.277998
O O8 0.250000 0.250000 0.268102
O O9 0.278961 0.186659 0.336308
O O10 0.255965 0.150606 0.249922
O O11 0.774662 0.500000 0.141063
O O12 0.726513 0.592713 0.173216
O O13 0.000000 0.559108 0.159150
O O14 0.856444 0.575118 0.086019
O O15 0.500000 0.799631 0.393494
O O16 0.250000 0.750000 0.405320
O O17 0.500000 0.500000 0.719007
O O18 0.269719 0.550948 0.745155
O O19 0.000000 0.500000 0.052402
O O20 0.000000 0.419851 0.000000
O O21 0.000000 0.893826 0.768569
#
# Coordination Sequence:
#
# PCOD9489064 Si02
#       8
#     8  16  16  16  16   8   8  16
#     4  11  22  36  51  70  94 122 163 202 231 280
#     4  10  21  37  54  71  95 123 151 189 243 296
#     4  10  20  34  50  69  94 127 163 200 238 291
#     4   8  15  26  42  66  96 128 167 204 239 279
#     4   9  19  35  54  74  95 120 154 192 239 290
#     4   9  20  32  46  69  98 131 160 191 239 290
#     4   7  12  24  44  66  94 134 174 210 244 283
#     4  11  19  30  47  69 100 134 164 199 246 291
#
# _framework density 15.591775
#
# number of rings (size 3 to 8) (size 9 to 14) (size 15 to 20)
#    0.462    2.077    0.769    2.308    0.000    2.769 
#    0.000    2.308    0.000    0.462    0.000    2.154 
#    0.000    0.615    0.000    0.000    0.000    0.000 
#
# Total GULP energy -289689.092739 kJ/mol
# GULP energy per Si atom -5570.944091 kJ/mol
# Density = 1.555629 g / cm^3
# Si number density = 15.591775 Si / 1000 Ang^3
#
#
#
# Elastic Constant Matrix: (Units=GPa)
#
#
# Indices 1 2 3 4 5 6 
#
# 1 30.1509 28.3729 30.5729 0.0000 0.0000 0.0000
# 2 28.3729 100.5987 65.5339 0.0000 0.0000 0.0000
# 3 30.5729 65.5339 118.7369 0.0000 0.0000 0.0000
# 4 0.0000 0.0000 0.0000 -21.7195 0.0000 0.0000
# 5 0.0000 0.0000 0.0000 0.0000 18.5131 0.0000
# 6 0.0000 0.0000 0.0000 0.0000 0.0000 26.2745
#
#
#
# Elastic Compliance Matrix: (Units=1/GPa)
#
#
# Indices 1 2 3 4 5 6 
#
# 1 0.049440 -0.008824 -0.007860 0.000000 0.000000 0.000000
# 2 -0.008824 0.017096 -0.007164 0.000000 0.000000 0.000000
# 3 -0.007860 -0.007164 0.014400 0.000000 0.000000 0.000000
# 4 0.000000 0.000000 0.000000 -0.046042 0.000000 0.000000
# 5 0.000000 0.000000 0.000000 0.000000 0.054016 0.000000
# 6 0.000000 0.000000 0.000000 0.000000 0.000000 0.038060
#
#
# Mechanical properties :
#
#
# Convention : Reuss Voigt Hill
#
# Bulk Modulus (GPa) = 30.08372 55.38288 42.73330
# Shear Modulus (GPa) = 26.91878 12.94742 19.93310
#
# Velocity S-wave (km/s) = 4.15959 2.88479 3.57940
# Velocity P-wave (km/s) = 6.51200 6.83328 6.67457
#
# Compressibility (1/GPa) = 0.03324057
#
# Stress axis : x y z
#
# Youngs Moduli (GPa) = 20.22661 58.49390 69.44646
#
# Poissons Ratio (x) = 0.51614 0.54584
# Poissons Ratio (y) = 0.17847 0.49749
# Poissons Ratio (z) = 0.15898 0.41903
#
# Static dielectric constant tensor:
#      x y z
#    x 1.524530 0.000000 0.000000 
#    y 0.000000 1.497120 0.000000 
#    z 0.000000 0.000000 1.526590 
# 
# From -- ./inp_files/73816.got.cif
#   From: 2010.05.17/outbox.cif.g08.bks.cpg/sg65_37_cif.got.tgz:73816.got - 2010.06.03 17:01:31.
