data_PCOD9489703
_publ_section_title
;
Structure prediction by ZEFSAII (Michael W. Deem and Ramdas Pophale) SiO2 
 PCOD9489703
Probable space group: C M M M
;
_chemical_formula_sum "Si O2"
_cell_formula_units_Z 72
_cell_length_a 17.803289
_cell_length_b 10.067283
_cell_length_c 22.213127
_cell_angle_alpha 90.000000
_cell_angle_beta 90.000000
_cell_angle_gamma 90.000000
_cell_volume 3981.275383
_symmetry_space_group_name_H-M "C M M M"
_symmetry_group_IT_number 65
_symmetry_cell_setting 'orthorhombic'
loop_
_space_group_symop_operation_xyz
x,y,z
-x,-y,z
x,-y,-z
-x,y,-z
-x,-y,-z
x,y,-z
-x,y,z
x,-y,z
1/2+x,1/2+y,z
1/2-x,1/2-y,z
1/2+x,1/2-y,-z
1/2-x,1/2+y,-z
1/2-x,1/2-y,-z
1/2+x,1/2+y,-z
1/2-x,1/2+y,z
1/2+x,1/2-y,z
loop_
_atom_site_type_symbol
_atom_site_label
_atom_site_fract_x
_atom_site_fract_y
_atom_site_fract_z
Si Si1 0.177123 0.659012 0.880711
Si Si2 0.313054 0.500000 0.427681
Si Si3 0.087599 0.227588 0.631186
Si Si4 0.910548 0.346649 0.242797
Si Si5 0.134999 0.500000 0.571959
Si Si6 0.915237 0.660693 0.000000
O O1 0.193559 0.500000 0.884208
O O2 0.250000 0.750000 0.880247
O O3 0.131665 0.681877 0.819055
O O4 0.128311 0.696372 0.939238
O O5 0.320393 0.500000 0.500000
O O6 0.355905 0.626138 0.400077
O O7 0.224329 0.500000 0.413479
O O8 0.107414 0.251764 0.701275
O O9 0.097232 0.369320 0.599070
O O10 0.000000 0.185574 0.626975
O O11 0.893291 0.500000 0.260071
O O12 0.000000 0.339508 0.232720
O O13 0.127713 0.500000 0.500000
O O14 0.919246 0.500000 0.000000
O O15 0.000000 0.712671 0.000000
#
# Coordination Sequence:
#
# PCOD9489703 Si02
#       6
#    16   8  16  16   8   8
#     4  10  20  34  55  84 116 148 185 231 278 329
#     4  11  25  41  57  83 121 152 179 230 301 357
#     4  11  22  39  61  85 111 146 193 239 284 341
#     4   9  18  36  58  80 107 142 187 235 277 324
#     4  11  23  39  59  83 111 148 189 232 281 345
#     4   9  17  32  57  85 110 149 198 236 272 317
#
# _framework density 18.084657
#
# number of rings (size 3 to 8) (size 9 to 14) (size 15 to 20)
#    0.000    1.889    1.111    3.000    0.000    8.889 
#    2.000    0.000    0.000    2.667    0.000    0.000 
#    0.000    0.000    0.000    0.000    0.000    0.000 
#
# Total GULP energy -201016.646446 kJ/mol
# GULP energy per Si atom -5583.795735 kJ/mol
# Density = 1.804350 g / cm^3
# Si number density = 18.084657 Si / 1000 Ang^3
#
#
#
# Elastic Constant Matrix: (Units=GPa)
#
#
# Indices 1 2 3 4 5 6 
#
# 1 66.7893 16.2277 56.9096 0.0000 0.0000 0.0000
# 2 16.2277 45.3739 25.3453 0.0000 0.0000 0.0000
# 3 56.9096 25.3453 118.0404 0.0000 0.0000 0.0000
# 4 0.0000 0.0000 0.0000 19.3770 0.0000 0.0000
# 5 0.0000 0.0000 0.0000 0.0000 49.0675 0.0000
# 6 0.0000 0.0000 0.0000 0.0000 0.0000 33.5513
#
#
#
# Elastic Compliance Matrix: (Units=1/GPa)
#
#
# Indices 1 2 3 4 5 6 
#
# 1 0.025674 -0.002577 -0.011825 0.000000 0.000000 0.000000
# 2 -0.002577 0.025301 -0.004190 0.000000 0.000000 0.000000
# 3 -0.011825 -0.004190 0.015072 0.000000 0.000000 0.000000
# 4 0.000000 0.000000 0.000000 0.051608 0.000000 0.000000
# 5 0.000000 0.000000 0.000000 0.000000 0.020380 0.000000
# 6 0.000000 0.000000 0.000000 0.000000 0.000000 0.029805
#
#
# Mechanical properties :
#
#
# Convention : Reuss Voigt Hill
#
# Bulk Modulus (GPa) = 34.64532 47.46318 41.05425
# Shear Modulus (GPa) = 23.29423 29.18058 26.23740
#
# Velocity S-wave (km/s) = 3.59286 4.02127 3.81308
# Velocity P-wave (km/s) = 6.03410 6.91829 6.49127
#
# Compressibility (1/GPa) = 0.02886393
#
# Stress axis : x y z
#
# Youngs Moduli (GPa) = 38.94978 39.52361 66.34705
#
# Poissons Ratio (x) = 0.10186 0.78453
# Poissons Ratio (y) = 0.10038 0.27801
# Poissons Ratio (z) = 0.46057 0.16561
#
# Static dielectric constant tensor:
#      x y z
#    x 1.596980 0.000000 0.000000 
#    y 0.000000 1.628570 0.000000 
#    z 0.000000 0.000000 1.615590 
# 
# From -- ./inp_files/63496.got.cif
#   From: 2010.05.17/outbox.cif.g08.bks.cpg/sg65_32_cif.got.tgz:63496.got - 2010.06.03 17:01:31.
