data_PCOD9489334
_publ_section_title
;
Structure prediction by ZEFSAII (Michael W. Deem and Ramdas Pophale) SiO2 
 PCOD9489334
Probable space group: C M M M
;
_chemical_formula_sum "Si O2"
_cell_formula_units_Z 88
_cell_length_a 25.015128
_cell_length_b 7.612096
_cell_length_c 29.912977
_cell_angle_alpha 90.000000
_cell_angle_beta 90.000000
_cell_angle_gamma 90.000000
_cell_volume 5695.955967
_symmetry_space_group_name_H-M "C M M M"
_symmetry_group_IT_number 65
_symmetry_cell_setting 'orthorhombic'
loop_
_space_group_symop_operation_xyz
x,y,z
-x,-y,z
x,-y,-z
-x,y,-z
-x,-y,-z
x,y,-z
-x,y,z
x,-y,z
1/2+x,1/2+y,z
1/2-x,1/2-y,z
1/2+x,1/2-y,-z
1/2-x,1/2+y,-z
1/2-x,1/2-y,-z
1/2+x,1/2+y,-z
1/2-x,1/2+y,z
1/2+x,1/2-y,z
loop_
_atom_site_type_symbol
_atom_site_label
_atom_site_fract_x
_atom_site_fract_y
_atom_site_fract_z
Si Si1 0.904541 0.702206 0.115065
Si Si2 0.065117 0.000000 0.817700
Si Si3 0.000000 0.286788 0.050303
Si Si4 0.935084 0.000000 0.713962
Si Si5 0.934717 0.296959 0.645817
Si Si6 0.812632 0.209512 0.949950
Si Si7 0.937414 0.713818 0.548103
O O1 0.915971 0.500000 0.127160
O O2 0.848324 0.712977 0.089425
O O3 0.948020 0.763549 0.078309
O O4 0.911736 0.830524 0.156731
O O5 0.080447 0.000000 0.765627
O O6 0.000000 0.000000 0.821214
O O7 0.000000 0.500000 0.048039
O O8 0.000000 0.218923 0.000000
O O9 0.917797 0.829806 0.685688
O O10 0.000000 0.000000 0.713688
O O11 0.919087 0.500000 0.652355
O O12 0.915946 0.232458 0.596628
O O13 0.000000 0.294441 0.644212
O O14 0.750000 0.250000 0.944644
O O15 0.819746 0.000000 0.949098
O O16 0.828630 0.273077 0.000000
O O17 0.914076 0.770264 0.500000
O O18 0.936350 0.500000 0.548828
O O19 0.000000 0.764934 0.547379
#
# Coordination Sequence:
#
# PCOD9489334 Si02
#       7
#    16   8   8   8  16  16  16
#     4  11  21  35  52  70  94 120 148 182 219 262
#     4  11  22  36  48  65  88 117 156 193 230 268
#     4   9  18  31  49  71  92 117 145 174 211 255
#     4   9  18  28  39  52  71  96 134 182 219 256
#     4   8  13  22  34  48  66  91 125 165 214 263
#     4  10  20  34  53  77 102 125 147 172 207 258
#     4   7   9  14  26  43  63  87 115 152 203 261
#
# _framework density 15.449558
#
# number of rings (size 3 to 8) (size 9 to 14) (size 15 to 20)
#    0.000    2.818    1.818    2.727    0.000    2.545 
#    0.000    2.727    0.000    2.727    0.000    0.000 
#    0.000    0.000    0.000    0.000    0.000    0.000 
#
# Total GULP energy -245012.071600 kJ/mol
# GULP energy per Si atom -5568.456173 kJ/mol
# Density = 1.541439 g / cm^3
# Si number density = 15.449558 Si / 1000 Ang^3
#
#
#
# Elastic Constant Matrix: (Units=GPa)
#
#
# Indices 1 2 3 4 5 6 
#
# 1 26.1500 7.2579 25.3607 0.0000 0.0000 0.0000
# 2 7.2579 81.8001 63.3190 0.0000 0.0000 0.0000
# 3 25.3607 63.3190 172.8387 0.0000 0.0000 0.0000
# 4 0.0000 0.0000 0.0000 25.3346 0.0000 0.0000
# 5 0.0000 0.0000 0.0000 0.0000 3.8753 0.0000
# 6 0.0000 0.0000 0.0000 0.0000 0.0000 9.3074
#
#
#
# Elastic Compliance Matrix: (Units=1/GPa)
#
#
# Indices 1 2 3 4 5 6 
#
# 1 0.044726 0.001552 -0.007131 0.000000 0.000000 0.000000
# 2 0.001552 0.017118 -0.006499 0.000000 0.000000 0.000000
# 3 -0.007131 -0.006499 0.009213 0.000000 0.000000 0.000000
# 4 0.000000 0.000000 0.000000 0.039472 0.000000 0.000000
# 5 0.000000 0.000000 0.000000 0.000000 0.258042 0.000000
# 6 0.000000 0.000000 0.000000 0.000000 0.000000 0.107442
#
#
# Mechanical properties :
#
#
# Convention : Reuss Voigt Hill
#
# Bulk Modulus (GPa) = 21.32185 52.51822 36.92004
# Shear Modulus (GPa) = 9.69365 20.02687 14.86026
#
# Velocity S-wave (km/s) = 2.50759 3.60429 3.10475
# Velocity P-wave (km/s) = 4.71327 7.16857 6.06643
#
# Compressibility (1/GPa) = 0.04690024
#
# Stress axis : x y z
#
# Youngs Moduli (GPa) = 22.35829 58.41905 108.54382
#
# Poissons Ratio (x) = -0.09064 0.77404
# Poissons Ratio (y) = -0.03469 0.70539
# Poissons Ratio (z) = 0.15944 0.37965
#
# Static dielectric constant tensor:
#      x y z
#    x 1.484840 0.000000 0.000000 
#    y 0.000000 1.556880 0.000000 
#    z 0.000000 0.000000 1.539440 
# 
# From -- ./inp_files/78154.got.cif
#   From: 2010.05.17/outbox.cif.g08.bks.cpg/sg65_40_cif.got.tgz:78154.got - 2010.06.03 17:01:31.
