data_PCOD9489272
_publ_section_title
;
Structure prediction by ZEFSAII (Michael W. Deem and Ramdas Pophale) SiO2 
 PCOD9489272
Probable space group: C M M M
;
_chemical_formula_sum "Si O2"
_cell_formula_units_Z 72
_cell_length_a 27.361983
_cell_length_b 11.803281
_cell_length_c 12.980863
_cell_angle_alpha 90.000000
_cell_angle_beta 90.000000
_cell_angle_gamma 90.000000
_cell_volume 4192.314755
_symmetry_space_group_name_H-M "C M M M"
_symmetry_group_IT_number 65
_symmetry_cell_setting 'orthorhombic'
loop_
_space_group_symop_operation_xyz
x,y,z
-x,-y,z
x,-y,-z
-x,y,-z
-x,-y,-z
x,y,-z
-x,y,z
x,-y,z
1/2+x,1/2+y,z
1/2-x,1/2-y,z
1/2+x,1/2-y,-z
1/2-x,1/2+y,-z
1/2-x,1/2-y,-z
1/2+x,1/2+y,-z
1/2-x,1/2+y,z
1/2+x,1/2-y,z
loop_
_atom_site_type_symbol
_atom_site_label
_atom_site_fract_x
_atom_site_fract_y
_atom_site_fract_z
Si Si1 0.250000 0.750000 0.218908
Si Si2 0.000000 0.136183 0.376740
Si Si3 0.155303 0.364775 0.877968
Si Si4 0.445017 0.000000 0.621897
Si Si5 0.186350 0.130873 0.616068
Si Si6 0.595149 0.234664 0.301040
O O1 0.207807 0.688201 0.153776
O O2 0.225197 0.839924 0.296183
O O3 0.952353 0.188082 0.320882
O O4 0.000000 0.167942 0.500000
O O5 0.000000 0.000000 0.371598
O O6 0.153485 0.500000 0.852170
O O7 0.115282 0.293073 0.813377
O O8 0.148060 0.354245 0.000000
O O9 0.417769 0.887620 0.654833
O O10 0.500000 0.000000 0.666432
O O11 0.448811 0.000000 0.500000
O O12 0.205066 0.149900 0.500000
O O13 0.139674 0.208669 0.637633
O O14 0.171489 0.000000 0.623872
#
# Coordination Sequence:
#
# PCOD9489272 Si02
#       6
#     8   8  16   8  16  16
#     4  10  20  34  58  80 106 140 188 234 282 324
#     4  11  22  37  60  87 116 151 183 216 266 330
#     4  10  21  38  57  79 107 142 188 237 282 325
#     4  11  20  32  53  81 115 145 176 220 268 321
#     4  10  20  34  52  78 114 149 180 219 273 337
#     4  11  21  35  55  81 112 147 185 223 271 324
#
# _framework density 17.174284
#
# number of rings (size 3 to 8) (size 9 to 14) (size 15 to 20)
#    0.000    1.556    2.222    4.000    0.000    1.778 
#    0.000    0.556    0.000   16.000    0.000    0.000 
#    0.000    0.000    0.000    0.000    0.000    0.000 
#
# Total GULP energy -200814.501298 kJ/mol
# GULP energy per Si atom -5578.180592 kJ/mol
# Density = 1.713519 g / cm^3
# Si number density = 17.174284 Si / 1000 Ang^3
#
#
#
# Elastic Constant Matrix: (Units=GPa)
#
#
# Indices 1 2 3 4 5 6 
#
# 1 93.0529 43.6339 48.9514 0.0000 0.0000 0.0000
# 2 43.6339 115.6860 47.9646 0.0000 0.0000 0.0000
# 3 48.9514 47.9646 107.9833 0.0000 0.0000 0.0000
# 4 0.0000 0.0000 0.0000 6.8960 0.0000 0.0000
# 5 0.0000 0.0000 0.0000 0.0000 20.4603 0.0000
# 6 0.0000 0.0000 0.0000 0.0000 0.0000 88.7950
#
#
#
# Elastic Compliance Matrix: (Units=1/GPa)
#
#
# Indices 1 2 3 4 5 6 
#
# 1 0.015201 -0.003526 -0.005325 0.000000 0.000000 0.000000
# 2 -0.003526 0.011413 -0.003471 0.000000 0.000000 0.000000
# 3 -0.005325 -0.003471 0.013216 0.000000 0.000000 0.000000
# 4 0.000000 0.000000 0.000000 0.145012 0.000000 0.000000
# 5 0.000000 0.000000 0.000000 0.000000 0.048875 0.000000
# 6 0.000000 0.000000 0.000000 0.000000 0.000000 0.011262
#
#
# Mechanical properties :
#
#
# Convention : Reuss Voigt Hill
#
# Bulk Modulus (GPa) = 65.84628 66.42467 66.13548
# Shear Modulus (GPa) = 18.20265 34.97508 26.58886
#
# Velocity S-wave (km/s) = 3.25911 4.51763 3.93896
# Velocity P-wave (km/s) = 7.25160 8.12236 7.69930
#
# Compressibility (1/GPa) = 0.01518689
#
# Stress axis : x y z
#
# Youngs Moduli (GPa) = 65.78493 87.61851 75.66303
#
# Poissons Ratio (x) = 0.30892 0.40290
# Poissons Ratio (y) = 0.23194 0.26265
# Poissons Ratio (z) = 0.35030 0.30415
#
# Static dielectric constant tensor:
#      x y z
#    x 1.603420 0.000000 0.000000 
#    y 0.000000 1.566130 0.000000 
#    z 0.000000 0.000000 1.568140 
# 
# From -- ./inp_files/32005.got.cif
#   From: 2010.05.17/outbox.cif.g08.bks.cpg/sg65_17_cif.got.tgz:32005.got - 2010.06.03 17:01:31.
