data_PCOD9489728
_publ_section_title
;
Structure prediction by ZEFSAII (Michael W. Deem and Ramdas Pophale) SiO2 
 PCOD9489728
Probable space group: C M M M
;
_chemical_formula_sum "Si O2"
_cell_formula_units_Z 88
_cell_length_a 15.222482
_cell_length_b 18.460192
_cell_length_c 14.928298
_cell_angle_alpha 90.000000
_cell_angle_beta 90.000000
_cell_angle_gamma 90.000000
_cell_volume 4195.000132
_symmetry_space_group_name_H-M "C M M M"
_symmetry_group_IT_number 65
_symmetry_cell_setting 'orthorhombic'
loop_
_space_group_symop_operation_xyz
x,y,z
-x,-y,z
x,-y,-z
-x,y,-z
-x,-y,-z
x,y,-z
-x,y,z
x,-y,z
1/2+x,1/2+y,z
1/2-x,1/2-y,z
1/2+x,1/2-y,-z
1/2-x,1/2+y,-z
1/2-x,1/2-y,-z
1/2+x,1/2+y,-z
1/2-x,1/2+y,z
1/2+x,1/2-y,z
loop_
_atom_site_type_symbol
_atom_site_label
_atom_site_fract_x
_atom_site_fract_y
_atom_site_fract_z
Si Si1 0.694993 0.675231 0.900047
Si Si2 0.607612 0.500000 0.394470
Si Si3 0.601200 0.918820 0.705597
Si Si4 0.607932 0.217557 0.602568
Si Si5 0.633428 0.913640 0.904494
Si Si6 0.105692 0.856432 0.714043
O O1 0.750000 0.750000 0.885932
O O2 0.766140 0.610860 0.903280
O O3 0.634889 0.656211 0.816152
O O4 0.654086 0.681012 0.000000
O O5 0.500000 0.500000 0.396597
O O6 0.635094 0.500000 0.500000
O O7 0.635476 0.570919 0.337757
O O8 0.500000 0.926027 0.676817
O O9 0.642246 0.857045 0.644979
O O10 0.598547 0.890579 0.808072
O O11 0.640292 0.000000 0.702976
O O12 0.633135 0.224385 0.500000
O O13 0.500000 0.216415 0.606446
O O14 0.636709 0.286494 0.659005
O O15 0.621638 0.000000 0.905748
O O16 0.597778 0.885335 0.000000
O O17 0.000000 0.858200 0.712078
#
# Coordination Sequence:
#
# PCOD9489728 Si02
#       6
#    16   8  16  16  16  16
#     4  10  21  36  54  77 106 142 181 215 262 330
#     4   9  18  34  57  85 113 141 181 232 282 332
#     4   9  17  29  48  76 104 132 173 223 267 306
#     4   9  17  30  49  73 101 132 168 211 261 320
#     4   9  18  32  50  71  97 135 174 205 252 317
#     4  10  20  34  56  84 108 138 181 229 278 318
#
# _framework density 20.977353999999998
#
# number of rings (size 3 to 8) (size 9 to 14) (size 15 to 20)
#    0.000    2.636    0.000    1.636    1.273    3.273 
#    0.000    3.636    0.000   18.000    0.000    0.000 
#    0.000    0.000    0.000    0.000    0.000    0.000 
#
# Total GULP energy -245257.221634 kJ/mol
# GULP energy per Si atom -5574.027764 kJ/mol
# Density = 2.092961 g / cm^3
# Si number density = 20.977354 Si / 1000 Ang^3
#
#
#
# Elastic Constant Matrix: (Units=GPa)
#
#
# Indices 1 2 3 4 5 6 
#
# 1 19.5153 18.3156 24.2507 0.0000 0.0000 0.0000
# 2 18.3156 101.5133 90.2250 0.0000 0.0000 0.0000
# 3 24.2507 90.2250 180.2616 0.0000 0.0000 0.0000
# 4 0.0000 0.0000 0.0000 26.9461 0.0000 0.0000
# 5 0.0000 0.0000 0.0000 0.0000 39.7162 0.0000
# 6 0.0000 0.0000 0.0000 0.0000 0.0000 9.4135
#
#
#
# Elastic Compliance Matrix: (Units=1/GPa)
#
#
# Indices 1 2 3 4 5 6 
#
# 1 0.064203 -0.007038 -0.005115 0.000000 0.000000 0.000000
# 2 -0.007038 0.018517 -0.008321 0.000000 0.000000 0.000000
# 3 -0.005115 -0.008321 0.010400 0.000000 0.000000 0.000000
# 4 0.000000 0.000000 0.000000 0.037111 0.000000 0.000000
# 5 0.000000 0.000000 0.000000 0.000000 0.025179 0.000000
# 6 0.000000 0.000000 0.000000 0.000000 0.000000 0.106230
#
#
# Mechanical properties :
#
#
# Convention : Reuss Voigt Hill
#
# Bulk Modulus (GPa) = 19.16720 62.98586 41.07653
# Shear Modulus (GPa) = 15.62607 26.44842 21.03725
#
# Velocity S-wave (km/s) = 2.73225 3.55464 3.17022
# Velocity P-wave (km/s) = 4.37156 6.85114 5.74668
#
# Compressibility (1/GPa) = 0.05217247
#
# Stress axis : x y z
#
# Youngs Moduli (GPa) = 15.57562 54.00560 96.14946
#
# Poissons Ratio (x) = 0.38010 0.49176
# Poissons Ratio (y) = 0.10962 0.80007
# Poissons Ratio (z) = 0.07966 0.44939
#
# Static dielectric constant tensor:
#      x y z
#    x 1.771070 0.000000 0.000000 
#    y 0.000000 1.762460 0.000000 
#    z 0.000000 0.000000 1.773230 
# 
# From -- ./inp_files/28730.got.cif
#   From: 2010.05.17/outbox.cif.g08.bks.cpg/sg65_15_cif.got.tgz:28730.got - 2010.06.03 17:01:31.
