data_PCOD9489429
_publ_section_title
;
Structure prediction by ZEFSAII (Michael W. Deem and Ramdas Pophale) SiO2 
 PCOD9489429
Probable space group: C M M M
;
_chemical_formula_sum "Si O2"
_cell_formula_units_Z 116
_cell_length_a 23.231348
_cell_length_b 17.889199
_cell_length_c 15.680365
_cell_angle_alpha 90.000000
_cell_angle_beta 90.000000
_cell_angle_gamma 90.000000
_cell_volume 6516.606143
_symmetry_space_group_name_H-M "C M M M"
_symmetry_group_IT_number 65
_symmetry_cell_setting 'orthorhombic'
loop_
_space_group_symop_operation_xyz
x,y,z
-x,-y,z
x,-y,-z
-x,y,-z
-x,-y,-z
x,y,-z
-x,y,z
x,-y,z
1/2+x,1/2+y,z
1/2-x,1/2-y,z
1/2+x,1/2-y,-z
1/2-x,1/2+y,-z
1/2-x,1/2-y,-z
1/2+x,1/2+y,-z
1/2-x,1/2+y,z
1/2+x,1/2-y,z
loop_
_atom_site_type_symbol
_atom_site_label
_atom_site_fract_x
_atom_site_fract_y
_atom_site_fract_z
Si Si1 0.627429 0.368139 0.400895
Si Si2 0.568743 0.417015 0.232136
Si Si3 0.367281 0.913391 0.319521
Si Si4 0.573098 0.000000 0.000000
Si Si5 0.069477 0.207395 0.097075
Si Si6 0.566964 0.122019 0.848162
Si Si7 0.436637 0.783560 0.601105
Si Si8 0.259045 0.837447 0.400598
O O1 0.610360 0.384413 0.500000
O O2 0.597017 0.412567 0.325498
O O3 0.607984 0.282775 0.380941
O O4 0.696112 0.374267 0.395914
O O5 0.500000 0.407868 0.242761
O O6 0.579124 0.500000 0.195903
O O7 0.589889 0.352473 0.167540
O O8 0.387870 0.904061 0.222624
O O9 0.413250 0.862320 0.368688
O O10 0.305611 0.877731 0.342070
O O11 0.368144 0.000000 0.344047
O O12 0.570351 0.065407 0.926399
O O13 0.080595 0.292711 0.125026
O O14 0.000000 0.199973 0.094372
O O15 0.090519 0.194410 0.000000
O O16 0.500000 0.120395 0.817209
O O17 0.441176 0.785355 0.500000
O O18 0.500000 0.766165 0.637801
O O19 0.278945 0.840552 0.500000
O O20 0.250000 0.750000 0.379834
#
# Coordination Sequence:
#
# PCOD9489429 Si02
#       8
#    16  16  16   4  16  16  16  16
#     4  10  20  37  61  82 106 147 197 247 293 344
#     4  10  21  35  53  84 119 147 183 240 304 362
#     4  12  24  35  53  85 119 154 193 239 292 349
#     4  12  21  36  60  92 130 164 194 236 289 352
#     4   9  18  33  54  80 111 151 193 229 274 339
#     4  11  21  35  57  88 126 159 191 232 285 353
#     4  10  20  34  53  79 115 157 193 228 283 357
#     4  10  21  40  61  79 105 148 203 251 288 331
#
# _framework density 17.800678000000001
#
# number of rings (size 3 to 8) (size 9 to 14) (size 15 to 20)
#    0.000    1.655    2.759    2.690    0.000    4.966 
#    0.000    4.138    0.000    0.000    1.793    1.448 
#    0.000    0.000    0.000    0.000    0.000    0.000 
#
# Total GULP energy -323006.458981 kJ/mol
# GULP energy per Si atom -5569.076879 kJ/mol
# Density = 1.776016 g / cm^3
# Si number density = 17.800678 Si / 1000 Ang^3
#
#
#
# Elastic Constant Matrix: (Units=GPa)
#
#
# Indices 1 2 3 4 5 6 
#
# 1 72.1645 31.3475 41.0964 0.0000 0.0000 0.0000
# 2 31.3475 121.0272 55.2765 0.0000 0.0000 0.0000
# 3 41.0964 55.2765 69.8904 0.0000 0.0000 0.0000
# 4 0.0000 0.0000 0.0000 35.4507 0.0000 0.0000
# 5 0.0000 0.0000 0.0000 0.0000 -24.8858 0.0000
# 6 0.0000 0.0000 0.0000 0.0000 0.0000 10.1862
#
#
#
# Elastic Compliance Matrix: (Units=1/GPa)
#
#
# Indices 1 2 3 4 5 6 
#
# 1 0.020841 0.000312 -0.012501 0.000000 0.000000 0.000000
# 2 0.000312 0.012940 -0.010417 0.000000 0.000000 0.000000
# 3 -0.012501 -0.010417 0.029898 0.000000 0.000000 0.000000
# 4 0.000000 0.000000 0.000000 0.028208 0.000000 0.000000
# 5 0.000000 0.000000 0.000000 0.000000 -0.040184 0.000000
# 6 0.000000 0.000000 0.000000 0.000000 0.000000 0.098172
#
#
# Mechanical properties :
#
#
# Convention : Reuss Voigt Hill
#
# Bulk Modulus (GPa) = 54.15651 57.61365 55.88508
# Shear Modulus (GPa) = 24.84536 13.17432 19.00984
#
# Velocity S-wave (km/s) = 3.74003 2.72343 3.27146
# Velocity P-wave (km/s) = 7.01002 6.50582 6.76262
#
# Compressibility (1/GPa) = 0.01846500
#
# Stress axis : x y z
#
# Youngs Moduli (GPa) = 47.98204 77.28114 33.44703
#
# Poissons Ratio (x) = -0.02408 0.41813
# Poissons Ratio (y) = -0.01495 0.34843
# Poissons Ratio (z) = 0.59983 0.80506
#
# Static dielectric constant tensor:
#      x y z
#    x 1.603370 0.000000 0.000000 
#    y 0.000000 1.626670 0.000000 
#    z 0.000000 0.000000 1.620800 
# 
# From -- ./inp_files/46022.got.cif
#   From: 2010.05.17/outbox.cif.g08.bks.cpg/sg65_24_cif.got.tgz:46022.got - 2010.06.03 17:01:31.
