data_PCOD9489934
_publ_section_title
;
Structure prediction by ZEFSAII (Michael W. Deem and Ramdas Pophale) SiO2 
 PCOD9489934
Probable space group: C M M M
;
_chemical_formula_sum "Si O2"
_cell_formula_units_Z 72
_cell_length_a 26.740318
_cell_length_b 7.410799
_cell_length_c 14.272941
_cell_angle_alpha 90.000000
_cell_angle_beta 90.000000
_cell_angle_gamma 90.000000
_cell_volume 2828.427639
_symmetry_space_group_name_H-M "C M M M"
_symmetry_group_IT_number 65
_symmetry_cell_setting 'orthorhombic'
loop_
_space_group_symop_operation_xyz
x,y,z
-x,-y,z
x,-y,-z
-x,y,-z
-x,-y,-z
x,y,-z
-x,y,z
x,-y,z
1/2+x,1/2+y,z
1/2-x,1/2-y,z
1/2+x,1/2-y,-z
1/2-x,1/2+y,-z
1/2-x,1/2-y,-z
1/2+x,1/2+y,-z
1/2-x,1/2+y,z
1/2+x,1/2-y,z
loop_
_atom_site_type_symbol
_atom_site_label
_atom_site_fract_x
_atom_site_fract_y
_atom_site_fract_z
Si Si1 0.059485 0.716286 0.201723
Si Si2 0.808549 0.214385 0.693071
Si Si3 0.309946 0.284419 0.899273
Si Si4 0.404389 0.792818 0.399024
Si Si5 0.059769 0.281179 0.000000
O O1 0.068357 0.500000 0.201945
O O2 0.077209 0.790884 0.301422
O O3 0.079471 0.785480 0.100972
O O4 0.000000 0.742406 0.199271
O O5 0.750000 0.250000 0.680327
O O6 0.825253 0.285037 0.796537
O O7 0.844639 0.292768 0.614833
O O8 0.815055 0.000000 0.692858
O O9 0.316512 0.500000 0.899505
O O10 0.250000 0.250000 0.899545
O O11 0.328461 0.211230 0.000000
O O12 0.417741 0.712857 0.500000
O O13 0.422559 0.000000 0.399921
O O14 0.062861 0.500000 0.000000
O O15 0.000000 0.240246 0.000000
#
# Coordination Sequence:
#
# PCOD9489934 Si02
#       5
#    16  16  16  16   8
#     4   8  14  27  49  76 105 136 169 207 254 305
#     4  10  20  35  55  75  99 134 175 218 262 309
#     4   8  14  26  45  68  93 121 154 195 245 298
#     4  10  21  35  50  73 106 138 173 218 261 305
#     4   7  10  20  42  72 104 133 162 203 252 301
#
# _framework density 25.455839000000001
#
# number of rings (size 3 to 8) (size 9 to 14) (size 15 to 20)
#    0.000    3.222    0.000    2.000    0.000    2.222 
#    2.000    2.222    0.000    0.667    0.000    1.556 
#    0.000    2.667    0.000    0.000    0.000    0.000 
#
# Total GULP energy -201045.770652 kJ/mol
# GULP energy per Si atom -5584.604740 kJ/mol
# Density = 2.539790 g / cm^3
# Si number density = 25.455839 Si / 1000 Ang^3
#
#
#
# Elastic Constant Matrix: (Units=GPa)
#
#
# Indices 1 2 3 4 5 6 
#
# 1 56.6617 8.4187 43.7071 0.0000 0.0000 0.0000
# 2 8.4187 104.4438 15.7763 0.0000 0.0000 0.0000
# 3 43.7071 15.7763 274.0916 0.0000 0.0000 0.0000
# 4 0.0000 0.0000 0.0000 -0.0854 0.0000 0.0000
# 5 0.0000 0.0000 0.0000 0.0000 6.3395 0.0000
# 6 0.0000 0.0000 0.0000 0.0000 0.0000 4.8045
#
#
#
# Elastic Compliance Matrix: (Units=1/GPa)
#
#
# Indices 1 2 3 4 5 6 
#
# 1 0.020261 -0.001155 -0.003164 0.000000 0.000000 0.000000
# 2 -0.001155 0.009724 -0.000376 0.000000 0.000000 0.000000
# 3 -0.003164 -0.000376 0.004175 0.000000 0.000000 0.000000
# 4 0.000000 0.000000 0.000000-11.712445 0.000000 0.000000
# 5 0.000000 0.000000 0.000000 0.000000 0.157742 0.000000
# 6 0.000000 0.000000 0.000000 0.000000 0.000000 0.208137
#
#
# Mechanical properties :
#
#
# Convention : Reuss Voigt Hill
#
# Bulk Modulus (GPa) = 40.37140 63.44457 51.90799
# Shear Modulus (GPa) = -0.44268 26.69807 13.12769
#
# Velocity S-wave (km/s) = -0.41747 3.24203 2.27338
# Velocity P-wave (km/s) = 3.95745 6.24434 5.22749
#
# Compressibility (1/GPa) = 0.02477001
#
# Stress axis : x y z
#
# Youngs Moduli (GPa) = 49.35556 102.83450 239.54243
#
# Poissons Ratio (x) = 0.11879 0.75800
# Poissons Ratio (y) = 0.05701 0.08995
# Poissons Ratio (z) = 0.15618 0.03862
#
# Static dielectric constant tensor:
#      x y z
#    x 2.052300 0.000000 0.000000 
#    y 0.000000 1.792280 0.000000 
#    z 0.000000 0.000000 2.054590 
# 
# From -- ./inp_files/46519.got.cif
#   From: 2010.05.17/outbox.cif.g08.bks.cpg/sg65_24_cif.got.tgz:46519.got - 2010.06.03 17:01:31.
