data_PCOD9489729
_publ_section_title
;
Structure prediction by ZEFSAII (Michael W. Deem and Ramdas Pophale) SiO2 
 PCOD9489729
Probable space group: C M M M
;
_chemical_formula_sum "Si O2"
_cell_formula_units_Z 72
_cell_length_a 18.238006
_cell_length_b 24.200008
_cell_length_c 7.552233
_cell_angle_alpha 90.000000
_cell_angle_beta 90.000000
_cell_angle_gamma 90.000000
_cell_volume 3333.252734
_symmetry_space_group_name_H-M "C M M M"
_symmetry_group_IT_number 65
_symmetry_cell_setting 'orthorhombic'
loop_
_space_group_symop_operation_xyz
x,y,z
-x,-y,z
x,-y,-z
-x,y,-z
-x,-y,-z
x,y,-z
-x,y,z
x,-y,z
1/2+x,1/2+y,z
1/2-x,1/2-y,z
1/2+x,1/2-y,-z
1/2-x,1/2+y,-z
1/2-x,1/2-y,-z
1/2+x,1/2+y,-z
1/2-x,1/2+y,z
1/2+x,1/2-y,z
loop_
_atom_site_type_symbol
_atom_site_label
_atom_site_fract_x
_atom_site_fract_y
_atom_site_fract_z
Si Si1 0.832077 0.254897 0.291101
Si Si2 0.000000 0.936810 0.783549
Si Si3 0.917194 0.637820 0.712921
Si Si4 0.858396 0.131462 0.785951
Si Si5 0.281541 0.937347 0.212030
O O1 0.823808 0.266490 0.500000
O O2 0.750000 0.250000 0.213986
O O3 0.879939 0.305403 0.218731
O O4 0.866740 0.194694 0.270490
O O5 0.926949 0.905126 0.727171
O O6 0.000000 0.000000 0.725295
O O7 0.000000 0.937009 0.000000
O O8 0.921952 0.641957 0.500000
O O9 0.860763 0.588695 0.752133
O O10 0.000000 0.630228 0.779842
O O11 0.782306 0.103902 0.722010
O O12 0.857072 0.131250 0.000000
O O13 0.273973 0.000000 0.279851
O O14 0.272588 0.939891 0.000000
#
# Coordination Sequence:
#
# PCOD9489729 Si02
#       5
#    16   8  16  16  16
#     4  10  20  36  57  79 107 142 178 221 274 324
#     4   9  18  34  55  81 115 149 180 219 268 323
#     4  10  22  39  57  80 110 145 183 222 269 325
#     4  10  20  34  56  84 110 142 183 224 267 321
#     4  10  21  37  57  81 109 142 181 226 275 322
#
# _framework density 21.600522000000002
#
# number of rings (size 3 to 8) (size 9 to 14) (size 15 to 20)
#    0.000    2.111    2.222    0.667    1.556    5.333 
#    0.000    2.222    0.000    2.667    0.000    0.000 
#    0.000    0.000    0.000    0.000    0.000    0.000 
#
# Total GULP energy -201141.805569 kJ/mol
# GULP energy per Si atom -5587.272377 kJ/mol
# Density = 2.155136 g / cm^3
# Si number density = 21.600522 Si / 1000 Ang^3
#
#
#
# Elastic Constant Matrix: (Units=GPa)
#
#
# Indices 1 2 3 4 5 6 
#
# 1 96.0135 1.1820 -2.3898 0.0000 0.0000 0.0000
# 2 1.1820 84.3801 -13.5228 0.0000 0.0000 0.0000
# 3 -2.3898 -13.5228 50.3265 0.0000 0.0000 0.0000
# 4 0.0000 0.0000 0.0000 24.6926 0.0000 0.0000
# 5 0.0000 0.0000 0.0000 0.0000 14.8469 0.0000
# 6 0.0000 0.0000 0.0000 0.0000 0.0000 34.1833
#
#
#
# Elastic Compliance Matrix: (Units=1/GPa)
#
#
# Indices 1 2 3 4 5 6 
#
# 1 0.010428 -0.000070 0.000476 0.000000 0.000000 0.000000
# 2 -0.000070 0.012385 0.003325 0.000000 0.000000 0.000000
# 3 0.000476 0.003325 0.020786 0.000000 0.000000 0.000000
# 4 0.000000 0.000000 0.000000 0.040498 0.000000 0.000000
# 5 0.000000 0.000000 0.000000 0.000000 0.067354 0.000000
# 6 0.000000 0.000000 0.000000 0.000000 0.000000 0.029254
#
#
# Mechanical properties :
#
#
# Convention : Reuss Voigt Hill
#
# Bulk Modulus (GPa) = 19.58422 22.36209 20.97315
# Shear Modulus (GPa) = 26.27941 31.10795 28.69368
#
# Velocity S-wave (km/s) = 3.49178 3.79905 3.64865
# Velocity P-wave (km/s) = 5.03417 5.44231 5.24221
#
# Compressibility (1/GPa) = 0.05106153
#
# Stress axis : x y z
#
# Youngs Moduli (GPa) = 95.89645 80.74349 48.10890
#
# Poissons Ratio (x) = 0.00563 -0.02292
# Poissons Ratio (y) = 0.00669 -0.15994
# Poissons Ratio (z) = -0.04569 -0.26843
#
# Static dielectric constant tensor:
#      x y z
#    x 1.774420 0.000000 0.000000 
#    y 0.000000 1.750380 0.000000 
#    z 0.000000 0.000000 1.825760 
# 
# From -- ./inp_files/7231.got.cif
#   From: 2010.05.17/outbox.cif.g08.bks.cpg/sg65_4_cif.got.tgz:7231.got - 2010.06.03 17:01:31.
