data_PCOD9490133
_publ_section_title
;
Structure prediction by ZEFSAII (Michael W. Deem and Ramdas Pophale) SiO2 
 PCOD9490133
Probable space group: C M M M
;
_chemical_formula_sum "Si O2"
_cell_formula_units_Z 88
_cell_length_a 19.058527
_cell_length_b 8.880477
_cell_length_c 29.176273
_cell_angle_alpha 90.000000
_cell_angle_beta 90.000000
_cell_angle_gamma 90.000000
_cell_volume 4938.049505
_symmetry_space_group_name_H-M "C M M M"
_symmetry_group_IT_number 65
_symmetry_cell_setting 'orthorhombic'
loop_
_space_group_symop_operation_xyz
x,y,z
-x,-y,z
x,-y,-z
-x,y,-z
-x,-y,-z
x,y,-z
-x,y,z
x,-y,z
1/2+x,1/2+y,z
1/2-x,1/2-y,z
1/2+x,1/2-y,-z
1/2-x,1/2+y,-z
1/2-x,1/2-y,-z
1/2+x,1/2+y,-z
1/2-x,1/2+y,z
1/2+x,1/2-y,z
loop_
_atom_site_type_symbol
_atom_site_label
_atom_site_fract_x
_atom_site_fract_y
_atom_site_fract_z
Si Si1 0.080637 0.183258 0.734303
Si Si2 0.916015 0.822431 0.368346
Si Si3 0.085166 0.173294 0.000000
Si Si4 0.672536 0.681438 0.821378
Si Si5 0.673154 0.820387 0.551589
Si Si6 0.416537 0.179676 0.903740
O O1 0.102796 0.231008 0.683144
O O2 0.132159 0.229049 0.774847
O O3 0.000000 0.232002 0.742743
O O4 0.079325 0.000000 0.733477
O O5 0.877451 0.737100 0.408786
O O6 0.000000 0.807545 0.372145
O O7 0.899023 0.000000 0.371691
O O8 0.105838 0.257647 0.046535
O O9 0.000000 0.172609 0.000000
O O10 0.108955 0.000000 0.000000
O O11 0.675861 0.500000 0.822533
O O12 0.750000 0.750000 0.822671
O O13 0.627277 0.740617 0.864078
O O14 0.648942 0.777814 0.500000
O O15 0.750000 0.750000 0.558054
O O16 0.678566 0.000000 0.553443
O O17 0.500000 0.211165 0.898003
O O18 0.407071 0.000000 0.902053
#
# Coordination Sequence:
#
# PCOD9490133 Si02
#       6
#    16  16   8  16  16  16
#     4   8  16  33  56  79 103 135 175 217 261 311
#     4   9  18  34  56  81 108 137 171 213 262 315
#     4   9  17  31  54  83 110 139 178 217 257 311
#     4  11  22  36  54  77 108 143 179 218 262 313
#     4  10  21  36  53  74 103 139 178 219 262 311
#     4  10  20  35  56  82 111 141 176 220 266 310
#
# _framework density 17.820800999999999
#
# number of rings (size 3 to 8) (size 9 to 14) (size 15 to 20)
#    0.000    2.455    0.000    3.545    0.000    5.455 
#    0.000    5.909    0.000    2.182    0.000    0.000 
#    0.000    0.000    0.000    0.000    0.000    0.000 
#
# Total GULP energy -245492.628356 kJ/mol
# GULP energy per Si atom -5579.377917 kJ/mol
# Density = 1.778024 g / cm^3
# Si number density = 17.820801 Si / 1000 Ang^3
#
#
#
# Elastic Constant Matrix: (Units=GPa)
#
#
# Indices 1 2 3 4 5 6 
#
# 1 70.5789 48.6361 86.9973 0.0000 0.0000 0.0000
# 2 48.6361 67.3135 68.4513 0.0000 0.0000 0.0000
# 3 86.9973 68.4513 190.8289 0.0000 0.0000 0.0000
# 4 0.0000 0.0000 0.0000 22.4003 0.0000 0.0000
# 5 0.0000 0.0000 0.0000 0.0000 -29.1019 0.0000
# 6 0.0000 0.0000 0.0000 0.0000 0.0000 25.1698
#
#
#
# Elastic Compliance Matrix: (Units=1/GPa)
#
#
# Indices 1 2 3 4 5 6 
#
# 1 0.041994 -0.017118 -0.013005 0.000000 0.000000 0.000000
# 2 -0.017118 0.030364 -0.003088 0.000000 0.000000 0.000000
# 3 -0.013005 -0.003088 0.012277 0.000000 0.000000 0.000000
# 4 0.000000 0.000000 0.000000 0.044642 0.000000 0.000000
# 5 0.000000 0.000000 0.000000 0.000000 -0.034362 0.000000
# 6 0.000000 0.000000 0.000000 0.000000 0.000000 0.039730
#
#
# Mechanical properties :
#
#
# Convention : Reuss Voigt Hill
#
# Bulk Modulus (GPa) = 54.90150 81.87675 68.38913
# Shear Modulus (GPa) = 24.13865 12.00277 18.07071
#
# Velocity S-wave (km/s) = 3.68437 2.59805 3.18783
# Velocity P-wave (km/s) = 6.99814 7.41917 7.21173
#
# Compressibility (1/GPa) = 0.01821444
#
# Stress axis : x y z
#
# Youngs Moduli (GPa) = 23.81292 32.93369 81.45561
#
# Poissons Ratio (x) = 0.56375 1.05929
# Poissons Ratio (y) = 0.40762 0.25153
# Poissons Ratio (z) = 0.30968 0.10170
#
# Static dielectric constant tensor:
#      x y z
#    x 1.580270 0.000000 0.000000 
#    y 0.000000 1.596790 0.000000 
#    z 0.000000 0.000000 1.606440 
# 
# From -- ./inp_files/70969.got.cif
#   From: 2010.05.17/outbox.cif.g08.bks.cpg/sg65_36_cif.got.tgz:70969.got - 2010.06.03 17:01:31.
