data_PCOD9490699
_publ_section_title
;
Structure prediction by ZEFSAII (Michael W. Deem and Ramdas Pophale) SiO2 
 PCOD9490699
Probable space group: C M M M
;
_chemical_formula_sum "Si O2"
_cell_formula_units_Z 80
_cell_length_a 8.955648
_cell_length_b 24.364119
_cell_length_c 20.710012
_cell_angle_alpha 90.000000
_cell_angle_beta 90.000000
_cell_angle_gamma 90.000000
_cell_volume 4518.851586
_symmetry_space_group_name_H-M "C M M M"
_symmetry_group_IT_number 65
_symmetry_cell_setting 'orthorhombic'
loop_
_space_group_symop_operation_xyz
x,y,z
-x,-y,z
x,-y,-z
-x,y,-z
-x,-y,-z
x,y,-z
-x,y,z
x,-y,z
1/2+x,1/2+y,z
1/2-x,1/2-y,z
1/2+x,1/2-y,-z
1/2-x,1/2+y,-z
1/2-x,1/2-y,-z
1/2+x,1/2+y,-z
1/2-x,1/2+y,z
1/2+x,1/2-y,z
loop_
_atom_site_type_symbol
_atom_site_label
_atom_site_fract_x
_atom_site_fract_y
_atom_site_fract_z
Si Si1 0.321881 0.500000 0.622072
Si Si2 0.179140 0.388170 0.573407
Si Si3 0.820863 0.618742 0.816939
Si Si4 0.821917 0.191543 0.924544
Si Si5 0.320373 0.190095 0.690834
Si Si6 0.320470 0.000000 0.763936
O O1 0.500000 0.500000 0.620802
O O2 0.258358 0.445594 0.588228
O O3 0.261563 0.500000 0.695414
O O4 0.209959 0.370611 0.500000
O O5 0.224562 0.343574 0.626851
O O6 0.000000 0.396362 0.579907
O O7 0.741574 0.644635 0.878574
O O8 0.779410 0.654380 0.753735
O O9 0.784040 0.555486 0.802346
O O10 0.000000 0.622745 0.825003
O O11 0.750000 0.250000 0.905761
O O12 0.000000 0.195345 0.918338
O O13 0.785222 0.181853 0.000000
O O14 0.500000 0.195023 0.690275
O O15 0.250000 0.250000 0.693231
O O16 0.500000 0.000000 0.751591
#
# Coordination Sequence:
#
# PCOD9490699 Si02
#       6
#     8  16  16  16  16   8
#     4  12  23  35  56  86 115 141 178 236 291 330
#     4  10  21  39  60  78 105 150 193 228 276 340
#     4  10  20  36  60  85 111 145 187 235 277 325
#     4  10  21  37  58  85 118 153 189 229 273 326
#     4  10  21  36  55  81 110 143 185 230 278 332
#     4  10  20  39  62  83 112 149 188 227 272 332
#
# _framework density 17.703613000000001
#
# number of rings (size 3 to 8) (size 9 to 14) (size 15 to 20)
#    0.000    1.800    2.000    2.400    0.000    7.200 
#    0.000    0.500    0.000    3.000    0.000    0.000 
#    0.000    0.000    0.000    0.000    0.000    0.000 
#
# Total GULP energy -223448.177334 kJ/mol
# GULP energy per Si atom -5586.204433 kJ/mol
# Density = 1.766332 g / cm^3
# Si number density = 17.703613 Si / 1000 Ang^3
#
#
#
# Elastic Constant Matrix: (Units=GPa)
#
#
# Indices 1 2 3 4 5 6 
#
# 1 26.5221 41.5535 41.0868 0.0000 0.0000 0.0000
# 2 41.5535 153.7911 71.1037 0.0000 0.0000 0.0000
# 3 41.0868 71.1037 105.0607 0.0000 0.0000 0.0000
# 4 0.0000 0.0000 0.0000 40.3988 0.0000 0.0000
# 5 0.0000 0.0000 0.0000 0.0000 22.6351 0.0000
# 6 0.0000 0.0000 0.0000 0.0000 0.0000 27.9925
#
#
#
# Elastic Compliance Matrix: (Units=1/GPa)
#
#
# Indices 1 2 3 4 5 6 
#
# 1 0.115397 -0.015012 -0.034969 0.000000 0.000000 0.000000
# 2 -0.015012 0.011416 -0.001856 0.000000 0.000000 0.000000
# 3 -0.034969 -0.001856 0.024450 0.000000 0.000000 0.000000
# 4 0.000000 0.000000 0.000000 0.024753 0.000000 0.000000
# 5 0.000000 0.000000 0.000000 0.000000 0.044179 0.000000
# 6 0.000000 0.000000 0.000000 0.000000 0.000000 0.035724
#
#
# Mechanical properties :
#
#
# Convention : Reuss Voigt Hill
#
# Bulk Modulus (GPa) = 21.01302 65.87353 43.44327
# Shear Modulus (GPa) = 13.31716 26.98061 20.14889
#
# Velocity S-wave (km/s) = 2.74565 3.90810 3.37727
# Velocity P-wave (km/s) = 4.68472 7.59304 6.30876
#
# Compressibility (1/GPa) = 0.04758954
#
# Stress axis : x y z
#
# Youngs Moduli (GPa) = 8.66577 87.59318 40.90021
#
# Poissons Ratio (x) = 1.31494 1.43024
# Poissons Ratio (y) = 0.13009 0.07590
# Poissons Ratio (z) = 0.30303 0.16254
#
# Static dielectric constant tensor:
#      x y z
#    x 1.593620 0.000000 0.000000 
#    y 0.000000 1.572060 0.000000 
#    z 0.000000 0.000000 1.596510 
# 
# From -- ./inp_files/57314.got.cif
#   From: 2010.05.17/outbox.cif.g08.bks.cpg/sg65_29_cif.got.tgz:57314.got - 2010.06.03 17:01:31.
