data_PCOD9490662
_publ_section_title
;
Structure prediction by ZEFSAII (Michael W. Deem and Ramdas Pophale) SiO2 
 PCOD9490662
Probable space group: C M M M
;
_chemical_formula_sum "Si O2"
_cell_formula_units_Z 64
_cell_length_a 13.856768
_cell_length_b 18.199046
_cell_length_c 12.044953
_cell_angle_alpha 90.000000
_cell_angle_beta 90.000000
_cell_angle_gamma 90.000000
_cell_volume 3037.495745
_symmetry_space_group_name_H-M "C M M M"
_symmetry_group_IT_number 65
_symmetry_cell_setting 'orthorhombic'
loop_
_space_group_symop_operation_xyz
x,y,z
-x,-y,z
x,-y,-z
-x,y,-z
-x,-y,-z
x,y,-z
-x,y,z
x,-y,z
1/2+x,1/2+y,z
1/2-x,1/2-y,z
1/2+x,1/2-y,-z
1/2-x,1/2+y,-z
1/2-x,1/2-y,-z
1/2+x,1/2+y,-z
1/2-x,1/2+y,z
1/2+x,1/2-y,z
loop_
_atom_site_type_symbol
_atom_site_label
_atom_site_fract_x
_atom_site_fract_y
_atom_site_fract_z
Si Si1 0.617390 0.119849 0.500000
Si Si2 0.892437 0.865925 0.270373
Si Si3 0.182237 0.419639 0.254902
Si Si4 0.861272 0.725819 0.873973
Si Si5 0.884368 0.788348 0.500000
O O1 0.500000 0.115561 0.500000
O O2 0.656401 0.086102 0.614456
O O3 0.651831 0.205128 0.500000
O O4 0.798326 0.912006 0.236239
O O5 0.902722 0.794851 0.192011
O O6 0.862604 0.833242 0.389889
O O7 0.000000 0.900805 0.276950
O O8 0.150897 0.500000 0.214566
O O9 0.133379 0.350191 0.193775
O O10 0.750000 0.750000 0.879203
O O11 0.895273 0.717660 0.000000
O O12 0.000000 0.780193 0.500000
#
# Coordination Sequence:
#
# PCOD9490662 Si02
#       5
#     8  16  16  16   8
#     4  11  22  38  59  84 115 149 191 239 283 335
#     4  10  20  36  59  86 115 148 190 236 281 338
#     4  11  23  36  56  86 119 155 187 226 288 348
#     4   9  19  36  57  80 108 146 193 239 276 320
#     4   9  17  31  56  83 105 139 185 232 279 323
#
# _framework density 21.069987999999999
#
# number of rings (size 3 to 8) (size 9 to 14) (size 15 to 20)
#    0.000    2.000    2.500    1.125    0.000    3.500 
#    0.000    0.000    0.000    3.750    0.000   10.500 
#    0.000    0.000    0.000    0.000    0.000    0.000 
#
# Total GULP energy -178548.734179 kJ/mol
# GULP energy per Si atom -5579.647943 kJ/mol
# Density = 2.102203 g / cm^3
# Si number density = 21.069988 Si / 1000 Ang^3
#
#
#
# Elastic Constant Matrix: (Units=GPa)
#
#
# Indices 1 2 3 4 5 6 
#
# 1 107.8867 -1.4918 2.8708 0.0000 0.0000 0.0000
# 2 -1.4918 100.5938 30.1767 0.0000 0.0000 0.0000
# 3 2.8708 30.1767 124.2706 0.0000 0.0000 0.0000
# 4 0.0000 0.0000 0.0000 3.4874 0.0000 0.0000
# 5 0.0000 0.0000 0.0000 0.0000 40.9847 0.0000
# 6 0.0000 0.0000 0.0000 0.0000 0.0000 8.3323
#
#
#
# Elastic Compliance Matrix: (Units=1/GPa)
#
#
# Indices 1 2 3 4 5 6 
#
# 1 0.009279 0.000218 -0.000267 0.000000 0.000000 0.000000
# 2 0.000218 0.010727 -0.002610 0.000000 0.000000 0.000000
# 3 -0.000267 -0.002610 0.008687 0.000000 0.000000 0.000000
# 4 0.000000 0.000000 0.000000 0.286746 0.000000 0.000000
# 5 0.000000 0.000000 0.000000 0.000000 0.024399 0.000000
# 6 0.000000 0.000000 0.000000 0.000000 0.000000 0.120015
#
#
# Mechanical properties :
#
#
# Convention : Reuss Voigt Hill
#
# Bulk Modulus (GPa) = 42.78184 43.98470 43.38327
# Shear Modulus (GPa) = 10.57164 30.64059 20.60611
#
# Velocity S-wave (km/s) = 2.24238 3.81757 3.13067
# Velocity P-wave (km/s) = 5.20126 6.35237 5.80542
#
# Compressibility (1/GPa) = 0.02337440
#
# Stress axis : x y z
#
# Youngs Moduli (GPa) = 107.76902 93.22155 115.11598
#
# Poissons Ratio (x) = -0.02030 0.03076
# Poissons Ratio (y) = -0.02347 0.30044
# Poissons Ratio (z) = 0.02880 0.24330
#
# Static dielectric constant tensor:
#      x y z
#    x 1.828940 0.000000 0.000000 
#    y 0.000000 1.732730 0.000000 
#    z 0.000000 0.000000 1.737830 
# 
# From -- ./inp_files/23944.got.cif
#   From: 2010.05.17/outbox.cif.g08.bks.cpg/sg65_12_cif.got.tgz:23944.got - 2010.06.03 17:01:31.
