data_PCOD9490032
_publ_section_title
;
Structure prediction by ZEFSAII (Michael W. Deem and Ramdas Pophale) SiO2 
 PCOD9490032
Probable space group: C M M M
;
_chemical_formula_sum "Si O2"
_cell_formula_units_Z 100
_cell_length_a 9.287288
_cell_length_b 26.751365
_cell_length_c 23.476966
_cell_angle_alpha 90.000000
_cell_angle_beta 90.000000
_cell_angle_gamma 90.000000
_cell_volume 5832.796589
_symmetry_space_group_name_H-M "C M M M"
_symmetry_group_IT_number 65
_symmetry_cell_setting 'orthorhombic'
loop_
_space_group_symop_operation_xyz
x,y,z
-x,-y,z
x,-y,-z
-x,y,-z
-x,-y,-z
x,y,-z
-x,y,z
x,-y,z
1/2+x,1/2+y,z
1/2-x,1/2-y,z
1/2+x,1/2-y,-z
1/2-x,1/2+y,-z
1/2-x,1/2-y,-z
1/2+x,1/2+y,-z
1/2-x,1/2+y,z
1/2+x,1/2-y,z
loop_
_atom_site_type_symbol
_atom_site_label
_atom_site_fract_x
_atom_site_fract_y
_atom_site_fract_z
Si Si1 0.334214 0.701193 0.782201
Si Si2 0.832650 0.058197 0.179969
Si Si3 0.750000 0.250000 0.591877
Si Si4 0.171411 0.557575 0.301914
Si Si5 0.835250 0.150312 0.338256
Si Si6 0.000000 0.733428 0.500000
Si Si7 0.328506 0.803262 0.000000
Si Si8 0.672841 0.856790 0.881159
O O1 0.500000 0.711712 0.797952
O O2 0.250000 0.750000 0.762811
O O3 0.334313 0.664526 0.728543
O O4 0.245146 0.679447 0.834702
O O5 0.750601 0.061626 0.240589
O O6 0.747767 0.090784 0.133857
O O7 0.000000 0.074964 0.185650
O O8 0.833460 0.000000 0.164198
O O9 0.786465 0.200429 0.628950
O O10 0.622086 0.235438 0.550190
O O11 0.194486 0.500000 0.321693
O O12 0.237003 0.600797 0.342084
O O13 0.000000 0.565081 0.294767
O O14 0.000000 0.138941 0.355089
O O15 0.250000 0.750000 0.000000
O O16 0.294837 0.835036 0.943456
O O17 0.500000 0.794004 0.000000
O O18 0.500000 0.859446 0.874002
#
# Coordination Sequence:
#
# PCOD9490032 Si02
#       8
#    16  16   8  16  16   4   8  16
#     4  11  22  34  51  81 118 149 186 232 299 349
#     4  10  20  35  55  80 113 150 187 232 292 357
#     4  11  22  42  62  92 124 165 208 244 290 347
#     4  10  21  35  55  86 123 161 199 242 300 358
#     4  11  22  35  57  89 123 159 196 244 292 352
#     4  10  24  42  64  86 126 170 208 242 286 344
#     4  10  24  42  59  78 103 143 196 237 287 350
#     4  11  22  38  57  79 107 147 192 241 291 356
#
# _framework density 17.144435000000001
#
# number of rings (size 3 to 8) (size 9 to 14) (size 15 to 20)
#    0.000    1.440    3.200    2.400    1.120    5.120 
#    0.000    0.400    0.000    2.400    0.000    3.360 
#    0.000    0.000    0.000    0.000    0.000    0.000 
#
# Total GULP energy -278368.403926 kJ/mol
# GULP energy per Si atom -5567.368079 kJ/mol
# Density = 1.710541 g / cm^3
# Si number density = 17.144435 Si / 1000 Ang^3
#
#
#
# Elastic Constant Matrix: (Units=GPa)
#
#
# Indices 1 2 3 4 5 6 
#
# 1 134.0612 60.2331 38.7630 0.0000 0.0000 0.0000
# 2 60.2331 121.4839 34.8692 0.0000 0.0000 0.0000
# 3 38.7630 34.8692 70.5813 0.0000 0.0000 0.0000
# 4 0.0000 0.0000 0.0000 0.1965 0.0000 0.0000
# 5 0.0000 0.0000 0.0000 0.0000 32.1390 0.0000
# 6 0.0000 0.0000 0.0000 0.0000 0.0000 -436.1179
#
#
#
# Elastic Compliance Matrix: (Units=1/GPa)
#
#
# Indices 1 2 3 4 5 6 
#
# 1 0.010354 -0.004080 -0.003671 0.000000 0.000000 0.000000
# 2 -0.004080 0.011199 -0.003292 0.000000 0.000000 0.000000
# 3 -0.003671 -0.003292 0.017810 0.000000 0.000000 0.000000
# 4 0.000000 0.000000 0.000000 5.089101 0.000000 0.000000
# 5 0.000000 0.000000 0.000000 0.000000 0.031115 0.000000
# 6 0.000000 0.000000 0.000000 0.000000 0.000000 -0.002293
#
#
# Mechanical properties :
#
#
# Convention : Reuss Voigt Hill
#
# Bulk Modulus (GPa) = 57.87681 65.98413 61.93047
# Shear Modulus (GPa) = 0.96430 -67.93907 -33.48739
#
# Velocity S-wave (km/s) = 0.75078 -6.30187 -4.42435
# Velocity P-wave (km/s) = 5.88075 3.79217 3.17826
#
# Compressibility (1/GPa) = 0.01727808
#
# Stress axis : x y z
#
# Youngs Moduli (GPa) = 96.58379 89.29094 56.14711
#
# Poissons Ratio (x) = 0.36430 0.20609
# Poissons Ratio (y) = 0.39405 0.18484
# Poissons Ratio (z) = 0.35452 0.29396
#
# Static dielectric constant tensor:
#      x y z
#    x 1.587060 0.000000 0.000000 
#    y 0.000000 1.634660 0.000000 
#    z 0.000000 0.000000 1.547780 
# 
# From -- ./inp_files/60470.got.cif
#   From: 2010.05.17/outbox.cif.g08.bks.cpg/sg65_31_cif.got.tgz:60470.got - 2010.06.03 17:01:31.
