data_PCOD9490635
_publ_section_title
;
Structure prediction by ZEFSAII (Michael W. Deem and Ramdas Pophale) SiO2 
 PCOD9490635
Probable space group: C M M M
;
_chemical_formula_sum "Si O2"
_cell_formula_units_Z 80
_cell_length_a 14.867070
_cell_length_b 18.466514
_cell_length_c 12.958088
_cell_angle_alpha 90.000000
_cell_angle_beta 90.000000
_cell_angle_gamma 90.000000
_cell_volume 3557.551787
_symmetry_space_group_name_H-M "C M M M"
_symmetry_group_IT_number 65
_symmetry_cell_setting 'orthorhombic'
loop_
_space_group_symop_operation_xyz
x,y,z
-x,-y,z
x,-y,-z
-x,y,-z
-x,-y,-z
x,y,-z
-x,y,z
x,-y,z
1/2+x,1/2+y,z
1/2-x,1/2-y,z
1/2+x,1/2-y,-z
1/2-x,1/2+y,-z
1/2-x,1/2-y,-z
1/2+x,1/2+y,-z
1/2-x,1/2+y,z
1/2+x,1/2-y,z
loop_
_atom_site_type_symbol
_atom_site_label
_atom_site_fract_x
_atom_site_fract_y
_atom_site_fract_z
Si Si1 0.214555 0.420731 0.182689
Si Si2 0.394491 0.785341 0.112439
Si Si3 0.601482 0.890422 0.385711
Si Si4 0.353956 0.732833 0.664356
Si Si5 0.603062 0.419034 0.704784
O O1 0.195537 0.500000 0.138399
O O2 0.169680 0.355185 0.121615
O O3 0.167335 0.415017 0.295603
O O4 0.320309 0.414837 0.207056
O O5 0.500000 0.806807 0.120433
O O6 0.372672 0.738114 0.212533
O O7 0.381280 0.750745 0.000000
O O8 0.630409 0.912484 0.500000
O O9 0.500000 0.916260 0.366744
O O10 0.598220 0.802753 0.381844
O O11 0.250000 0.750000 0.645552
O O12 0.379754 0.651631 0.634088
O O13 0.500000 0.413593 0.742143
O O14 0.613105 0.500000 0.658094
#
# Coordination Sequence:
#
# PCOD9490635 Si02
#       5
#    16  16  16  16  16
#     4  10  20  37  57  83 118 155 195 239 286 341
#     4  10  21  36  57  87 117 148 189 237 294 354
#     4  10  21  36  57  87 117 148 189 237 294 354
#     4  11  19  37  61  85 112 150 192 240 293 348
#     4  10  20  36  59  83 112 154 198 239 288 345
#
# _framework density 22.487375
#
# number of rings (size 3 to 8) (size 9 to 14) (size 15 to 20)
#    0.000    1.800    4.000    3.600    0.000    3.200 
#    0.000    2.000    0.000    2.400    0.000   16.800 
#    0.000    0.000    0.000    0.000    0.000    0.000 
#
# Total GULP energy -223273.285885 kJ/mol
# GULP energy per Si atom -5581.832147 kJ/mol
# Density = 2.243619 g / cm^3
# Si number density = 22.487375 Si / 1000 Ang^3
#
#
#
# Elastic Constant Matrix: (Units=GPa)
#
#
# Indices 1 2 3 4 5 6 
#
# 1 137.1079 23.2797 7.3511 0.0000 0.0000 0.0000
# 2 23.2797 160.9579 -4.1472 0.0000 0.0000 0.0000
# 3 7.3511 -4.1472 82.5486 0.0000 0.0000 0.0000
# 4 0.0000 0.0000 0.0000 -15.6611 0.0000 0.0000
# 5 0.0000 0.0000 0.0000 0.0000 10.3606 0.0000
# 6 0.0000 0.0000 0.0000 0.0000 0.0000 9.1827
#
#
#
# Elastic Compliance Matrix: (Units=1/GPa)
#
#
# Indices 1 2 3 4 5 6 
#
# 1 0.007520 -0.001106 -0.000725 0.000000 0.000000 0.000000
# 2 -0.001106 0.006384 0.000419 0.000000 0.000000 0.000000
# 3 -0.000725 0.000419 0.012200 0.000000 0.000000 0.000000
# 4 0.000000 0.000000 0.000000 -0.063852 0.000000 0.000000
# 5 0.000000 0.000000 0.000000 0.000000 0.096519 0.000000
# 6 0.000000 0.000000 0.000000 0.000000 0.000000 0.108901
#
#
# Mechanical properties :
#
#
# Convention : Reuss Voigt Hill
#
# Bulk Modulus (GPa) = 42.95752 48.17572 45.56662
# Shear Modulus (GPa) = 28.04956 24.38516 26.21736
#
# Velocity S-wave (km/s) = 3.53561 3.29659 3.41819
# Velocity P-wave (km/s) = 5.98430 5.99666 5.99048
#
# Compressibility (1/GPa) = 0.02327881
#
# Stress axis : x y z
#
# Youngs Moduli (GPa) = 132.97411 156.65092 81.96907
#
# Poissons Ratio (x) = 0.17331 0.05945
# Poissons Ratio (y) = 0.14712 -0.03436
# Poissons Ratio (z) = 0.09644 -0.06567
#
# Static dielectric constant tensor:
#      x y z
#    x 1.837600 0.000000 0.000000 
#    y 0.000000 1.879690 0.000000 
#    z 0.000000 0.000000 1.818450 
# 
# From -- ./inp_files/40050.got.cif
#   From: 2010.05.17/outbox.cif.g08.bks.cpg/sg65_21_cif.got.tgz:40050.got - 2010.06.03 17:01:31.
