data_PCOD9490692
_publ_section_title
;
Structure prediction by ZEFSAII (Michael W. Deem and Ramdas Pophale) SiO2 
 PCOD9490692
Probable space group: C M M M
;
_chemical_formula_sum "Si O2"
_cell_formula_units_Z 84
_cell_length_a 12.065743
_cell_length_b 33.904212
_cell_length_c 11.745869
_cell_angle_alpha 90.000000
_cell_angle_beta 90.000000
_cell_angle_gamma 90.000000
_cell_volume 4804.994319
_symmetry_space_group_name_H-M "C M M M"
_symmetry_group_IT_number 65
_symmetry_cell_setting 'orthorhombic'
loop_
_space_group_symop_operation_xyz
x,y,z
-x,-y,z
x,-y,-z
-x,y,-z
-x,-y,-z
x,y,-z
-x,y,z
x,-y,z
1/2+x,1/2+y,z
1/2-x,1/2-y,z
1/2+x,1/2-y,-z
1/2-x,1/2+y,-z
1/2-x,1/2-y,-z
1/2+x,1/2+y,-z
1/2-x,1/2+y,z
1/2+x,1/2-y,z
loop_
_atom_site_type_symbol
_atom_site_label
_atom_site_fract_x
_atom_site_fract_y
_atom_site_fract_z
Si Si1 0.870152 0.577087 0.500000
Si Si2 0.000000 0.127183 0.874477
Si Si3 0.630383 0.500000 0.251891
Si Si4 0.741590 0.705189 0.368547
Si Si5 0.500000 0.331319 0.373079
Si Si6 0.222632 0.924209 0.872171
Si Si7 0.130992 0.369107 0.277466
Si Si8 0.784524 0.000000 0.500000
O O1 0.850215 0.604635 0.390786
O O2 0.792863 0.538882 0.500000
O O3 0.000000 0.565324 0.500000
O O4 0.000000 0.146917 0.749167
O O5 0.890507 0.100721 0.875455
O O6 0.000000 0.148935 0.000000
O O7 0.500000 0.500000 0.217809
O O8 0.694097 0.538078 0.203942
O O9 0.641885 0.500000 0.387274
O O10 0.783826 0.704104 0.500000
O O11 0.750000 0.750000 0.326610
O O12 0.612798 0.693427 0.371929
O O13 0.807370 0.672465 0.296840
O O14 0.500000 0.352488 0.500000
O O15 0.315200 0.895325 0.821442
O O16 0.250898 0.936925 0.000000
O O17 0.000000 0.363265 0.262657
#
# Coordination Sequence:
#
# PCOD9490692 Si02
#       8
#     8   8   8  16   8  16  16   4
#     4  10  21  37  58  83 112 159 201 237 295 359
#     4  10  20  37  62  85 113 158 200 242 294 360
#     4  12  24  39  58  91 122 152 193 243 303 360
#     4  10  21  35  56  90 126 155 193 242 300 365
#     4  10  20  36  59  89 121 155 193 248 305 352
#     4  11  23  40  61  84 115 157 202 245 293 352
#     4  11  22  38  61  85 117 159 200 246 298 358
#     4  12  22  38  60  86 128 152 190 244 302 352
#
# _framework density 17.481809999999999
#
# number of rings (size 3 to 8) (size 9 to 14) (size 15 to 20)
#    0.000    1.333    5.714    0.571    1.333    0.762 
#    1.714    0.476    0.000    3.429    0.000    0.000 
#    0.000    0.000    0.000    0.000    0.000    0.000 
#
# Total GULP energy -234174.813669 kJ/mol
# GULP energy per Si atom -5575.590802 kJ/mol
# Density = 1.744202 g / cm^3
# Si number density = 17.481810 Si / 1000 Ang^3
#
#
#
# Elastic Constant Matrix: (Units=GPa)
#
#
# Indices 1 2 3 4 5 6 
#
# 1 92.0315 51.3439 23.1365 0.0000 0.0000 0.0000
# 2 51.3439 112.6169 44.8599 0.0000 0.0000 0.0000
# 3 23.1365 44.8599 120.6278 0.0000 0.0000 0.0000
# 4 0.0000 0.0000 0.0000 -11.3049 0.0000 0.0000
# 5 0.0000 0.0000 0.0000 0.0000 32.3907 0.0000
# 6 0.0000 0.0000 0.0000 0.0000 0.0000 31.7999
#
#
#
# Elastic Compliance Matrix: (Units=1/GPa)
#
#
# Indices 1 2 3 4 5 6 
#
# 1 0.014587 -0.006499 -0.000381 0.000000 0.000000 0.000000
# 2 -0.006499 0.013319 -0.003707 0.000000 0.000000 0.000000
# 3 -0.000381 -0.003707 0.009742 0.000000 0.000000 0.000000
# 4 0.000000 0.000000 0.000000 -0.088457 0.000000 0.000000
# 5 0.000000 0.000000 0.000000 0.000000 0.030873 0.000000
# 6 0.000000 0.000000 0.000000 0.000000 0.000000 0.031447
#
#
# Mechanical properties :
#
#
# Convention : Reuss Voigt Hill
#
# Bulk Modulus (GPa) = 60.69876 62.66186 61.68031
# Shear Modulus (GPa) = 130.97399 24.30619 77.64009
#
# Velocity S-wave (km/s) = 8.66503 3.73281 6.67146
# Velocity P-wave (km/s) = 11.61494 7.38244 9.73158
#
# Compressibility (1/GPa) = 0.01647480
#
# Stress axis : x y z
#
# Youngs Moduli (GPa) = 68.55287 75.08011 102.65325
#
# Poissons Ratio (x) = 0.48793 0.03911
# Poissons Ratio (y) = 0.44551 0.38051
# Poissons Ratio (z) = 0.02612 0.27830
#
# Static dielectric constant tensor:
#      x y z
#    x 1.568260 0.000000 0.000000 
#    y 0.000000 1.572750 0.000000 
#    z 0.000000 0.000000 1.631820 
# 
# From -- ./inp_files/23076.got.cif
#   From: 2010.05.17/outbox.cif.g08.bks.cpg/sg65_12_cif.got.tgz:23076.got - 2010.06.03 17:01:31.
