data_PCOD9490071
_publ_section_title
;
Structure prediction by ZEFSAII (Michael W. Deem and Ramdas Pophale) SiO2 
 PCOD9490071
Probable space group: C M M M
;
_chemical_formula_sum "Si O2"
_cell_formula_units_Z 104
_cell_length_a 8.851665
_cell_length_b 27.928609
_cell_length_c 21.740947
_cell_angle_alpha 90.000000
_cell_angle_beta 90.000000
_cell_angle_gamma 90.000000
_cell_volume 5374.681490
_symmetry_space_group_name_H-M "C M M M"
_symmetry_group_IT_number 65
_symmetry_cell_setting 'orthorhombic'
loop_
_space_group_symop_operation_xyz
x,y,z
-x,-y,z
x,-y,-z
-x,y,-z
-x,-y,-z
x,y,-z
-x,y,z
x,-y,z
1/2+x,1/2+y,z
1/2-x,1/2-y,z
1/2+x,1/2-y,-z
1/2-x,1/2+y,-z
1/2-x,1/2-y,-z
1/2+x,1/2+y,-z
1/2-x,1/2+y,z
1/2+x,1/2-y,z
loop_
_atom_site_type_symbol
_atom_site_label
_atom_site_fract_x
_atom_site_fract_y
_atom_site_fract_z
Si Si1 0.678915 0.802118 0.000000
Si Si2 0.818044 0.053082 0.689344
Si Si3 0.680268 0.800044 0.373789
Si Si4 0.317501 0.653993 0.254645
Si Si5 0.181885 0.402188 0.430329
Si Si6 0.822034 0.555552 0.073299
Si Si7 0.178618 0.852840 0.117179
O O1 0.750000 0.750000 0.000000
O O2 0.735084 0.828575 0.938856
O O3 0.500000 0.800062 0.000000
O O4 0.771796 0.098926 0.730143
O O5 0.758240 0.065100 0.621174
O O6 0.000000 0.052899 0.688686
O O7 0.766408 0.000000 0.708954
O O8 0.500000 0.795928 0.372212
O O9 0.750000 0.750000 0.395254
O O10 0.742537 0.812749 0.305886
O O11 0.719771 0.846721 0.414535
O O12 0.500000 0.657102 0.260245
O O13 0.276169 0.665465 0.184575
O O14 0.226307 0.413711 0.500000
O O15 0.000000 0.406682 0.425219
O O16 0.795537 0.500000 0.087593
O O17 0.719083 0.591191 0.111485
O O18 0.000000 0.565974 0.083344
O O19 0.794002 0.562072 0.000000
O O20 0.000000 0.845717 0.109616
#
# Coordination Sequence:
#
# PCOD9490071 Si02
#       7
#     8  16  16  16  16  16  16
#     4  12  26  44  63  82 109 142 178 223 275 331
#     4   9  18  34  55  79 110 147 185 224 265 310
#     4  10  20  35  56  79 105 139 179 223 272 325
#     4   9  20  37  56  79 109 143 179 223 270 320
#     4   9  19  35  53  77 110 145 182 223 267 318
#     4   9  18  33  53  78 110 146 178 211 259 317
#     4  11  22  37  59  86 112 140 180 226 276 329
#
# _framework density 19.349983999999999
#
# number of rings (size 3 to 8) (size 9 to 14) (size 15 to 20)
#    0.000    2.308    0.769    2.077    0.000    4.615 
#    0.000    3.846    0.000    0.000    0.000    0.000 
#    0.000    0.000    0.000    0.000    0.000    0.000 
#
# Total GULP energy -290281.026669 kJ/mol
# GULP energy per Si atom -5582.327436 kJ/mol
# Density = 1.930594 g / cm^3
# Si number density = 19.349984 Si / 1000 Ang^3
#
#
#
# Elastic Constant Matrix: (Units=GPa)
#
#
# Indices 1 2 3 4 5 6 
#
# 1 27.2844 4.3213 14.1712 0.0000 0.0000 0.0000
# 2 4.3213 48.0847 -13.0467 0.0000 0.0000 0.0000
# 3 14.1712 -13.0467 67.7708 0.0000 0.0000 0.0000
# 4 0.0000 0.0000 0.0000 5.1339 0.0000 0.0000
# 5 0.0000 0.0000 0.0000 0.0000 15.3190 0.0000
# 6 0.0000 0.0000 0.0000 0.0000 0.0000 32.7984
#
#
#
# Elastic Compliance Matrix: (Units=1/GPa)
#
#
# Indices 1 2 3 4 5 6 
#
# 1 0.043047 -0.006659 -0.010283 0.000000 0.000000 0.000000
# 2 -0.006659 0.022973 0.005815 0.000000 0.000000 0.000000
# 3 -0.010283 0.005815 0.018025 0.000000 0.000000 0.000000
# 4 0.000000 0.000000 0.000000 0.194782 0.000000 0.000000
# 5 0.000000 0.000000 0.000000 0.000000 0.065279 0.000000
# 6 0.000000 0.000000 0.000000 0.000000 0.000000 0.030489
#
#
# Mechanical properties :
#
#
# Convention : Reuss Voigt Hill
#
# Bulk Modulus (GPa) = 16.18362 17.11463 16.64912
# Shear Modulus (GPa) = 11.97761 19.82986 15.90373
#
# Velocity S-wave (km/s) = 2.49067 3.20472 2.86999
# Velocity P-wave (km/s) = 4.08081 4.74949 4.42779
#
# Compressibility (1/GPa) = 0.06179086
#
# Stress axis : x y z
#
# Youngs Moduli (GPa) = 23.23068 43.52975 55.47751
#
# Poissons Ratio (x) = 0.28985 0.57048
# Poissons Ratio (y) = 0.15469 -0.32260
# Poissons Ratio (z) = 0.23888 -0.25312
#
# Static dielectric constant tensor:
#      x y z
#    x 1.644830 0.000000 0.000000 
#    y 0.000000 1.658230 0.000000 
#    z 0.000000 0.000000 1.671930 
# 
# From -- ./inp_files/60424.got.cif
#   From: 2010.05.17/outbox.cif.g08.bks.cpg/sg65_31_cif.got.tgz:60424.got - 2010.06.03 17:01:31.
