data_PCOD9490625
_publ_section_title
;
Structure prediction by ZEFSAII (Michael W. Deem and Ramdas Pophale) SiO2 
 PCOD9490625
Probable space group: C M M M
;
_chemical_formula_sum "Si O2"
_cell_formula_units_Z 72
_cell_length_a 32.148786
_cell_length_b 13.405690
_cell_length_c 8.577032
_cell_angle_alpha 90.000000
_cell_angle_beta 90.000000
_cell_angle_gamma 90.000000
_cell_volume 3696.500595
_symmetry_space_group_name_H-M "C M M M"
_symmetry_group_IT_number 65
_symmetry_cell_setting 'orthorhombic'
loop_
_space_group_symop_operation_xyz
x,y,z
-x,-y,z
x,-y,-z
-x,y,-z
-x,-y,-z
x,y,-z
-x,y,z
x,-y,z
1/2+x,1/2+y,z
1/2-x,1/2-y,z
1/2+x,1/2-y,-z
1/2-x,1/2+y,-z
1/2-x,1/2-y,-z
1/2+x,1/2+y,-z
1/2-x,1/2+y,z
1/2+x,1/2-y,z
loop_
_atom_site_type_symbol
_atom_site_label
_atom_site_fract_x
_atom_site_fract_y
_atom_site_fract_z
Si Si1 0.607158 0.388319 0.812019
Si Si2 0.047979 0.290713 0.187858
Si Si3 0.450224 0.000000 0.315573
Si Si4 0.782157 0.387146 0.814062
Si Si5 0.194374 0.819488 0.684012
O O1 0.592253 0.500000 0.775941
O O2 0.575488 0.302471 0.760387
O O3 0.651846 0.369853 0.736326
O O4 0.611652 0.380907 0.000000
O O5 0.065691 0.396607 0.244943
O O6 0.000000 0.280946 0.241558
O O7 0.047496 0.292029 0.000000
O O8 0.500000 0.000000 0.280880
O O9 0.444615 0.000000 0.500000
O O10 0.793565 0.500000 0.767904
O O11 0.806276 0.297485 0.730273
O O12 0.733799 0.367599 0.771835
O O13 0.787502 0.377375 0.000000
O O14 0.201109 0.829572 0.500000
#
# Coordination Sequence:
#
# PCOD9490625 Si02
#       5
#    16  16   8  16  16
#     4  10  21  37  56  79 110 147 186 228 275 329
#     4   9  18  34  57  83 109 141 183 229 276 325
#     4   9  17  31  53  79 107 139 175 217 269 329
#     4  10  20  36  59  82 106 140 181 225 273 325
#     4  11  22  35  54  80 111 145 181 223 270 324
#
# _framework density 19.477881
#
# number of rings (size 3 to 8) (size 9 to 14) (size 15 to 20)
#    0.000    2.111    0.000    5.000    0.000    7.556 
#    2.000    2.222    0.000    0.000    0.000    4.667 
#    0.000    0.000    0.000    0.000    0.000    0.000 
#
# Total GULP energy -201039.438640 kJ/mol
# GULP energy per Si atom -5584.428851 kJ/mol
# Density = 1.943355 g / cm^3
# Si number density = 19.477881 Si / 1000 Ang^3
#
#
#
# Elastic Constant Matrix: (Units=GPa)
#
#
# Indices 1 2 3 4 5 6 
#
# 1 30.2011 28.4151 -0.4087 0.0000 0.0000 0.0000
# 2 28.4151 137.1570 18.4236 0.0000 0.0000 0.0000
# 3 -0.4087 18.4236 8.6972 0.0000 0.0000 0.0000
# 4 0.0000 0.0000 0.0000 -19.8057 0.0000 0.0000
# 5 0.0000 0.0000 0.0000 0.0000 1.5155 0.0000
# 6 0.0000 0.0000 0.0000 0.0000 0.0000 17.6199
#
#
#
# Elastic Compliance Matrix: (Units=1/GPa)
#
#
# Indices 1 2 3 4 5 6 
#
# 1 0.046632 -0.013915 0.031667 0.000000 0.000000 0.000000
# 2 -0.013915 0.014343 -0.031036 0.000000 0.000000 0.000000
# 3 0.031667 -0.031036 0.182214 0.000000 0.000000 0.000000
# 4 0.000000 0.000000 0.000000 -0.050490 0.000000 0.000000
# 5 0.000000 0.000000 0.000000 0.000000 0.659846 0.000000
# 6 0.000000 0.000000 0.000000 0.000000 0.000000 0.056754
#
#
# Mechanical properties :
#
#
# Convention : Reuss Voigt Hill
#
# Bulk Modulus (GPa) = 4.61636 29.87948 17.24792
# Shear Modulus (GPa) = 4.95996 8.50762 6.73379
#
# Velocity S-wave (km/s) = 1.59749 2.09220 1.86136
# Velocity P-wave (km/s) = 2.40372 4.60543 3.67340
#
# Compressibility (1/GPa) = 0.21662077
#
# Stress axis : x y z
#
# Youngs Moduli (GPa) = 21.44465 69.72239 5.48805
#
# Poissons Ratio (x) = 0.97015 -0.17379
# Poissons Ratio (y) = 0.29839 0.17033
# Poissons Ratio (z) = -0.67909 2.16394
#
# Static dielectric constant tensor:
#      x y z
#    x 1.663760 0.000000 0.000000 
#    y 0.000000 1.701910 0.000000 
#    z 0.000000 0.000000 1.655480 
# 
# From -- ./inp_files/17996.got.cif
#   From: 2010.05.17/outbox.cif.g08.bks.cpg/sg65_9_cif.got.tgz:17996.got - 2010.06.03 17:01:31.
