data_PCOD9490009
_publ_section_title
;
Structure prediction by ZEFSAII (Michael W. Deem and Ramdas Pophale) SiO2 
 PCOD9490009
Probable space group: C M M M
;
_chemical_formula_sum "Si O2"
_cell_formula_units_Z 88
_cell_length_a 20.274159
_cell_length_b 8.710341
_cell_length_c 26.083339
_cell_angle_alpha 90.000000
_cell_angle_beta 90.000000
_cell_angle_gamma 90.000000
_cell_volume 4606.183035
_symmetry_space_group_name_H-M "C M M M"
_symmetry_group_IT_number 65
_symmetry_cell_setting 'orthorhombic'
loop_
_space_group_symop_operation_xyz
x,y,z
-x,-y,z
x,-y,-z
-x,y,-z
-x,-y,-z
x,y,-z
-x,y,z
x,-y,z
1/2+x,1/2+y,z
1/2-x,1/2-y,z
1/2+x,1/2-y,-z
1/2-x,1/2+y,-z
1/2-x,1/2-y,-z
1/2+x,1/2+y,-z
1/2-x,1/2+y,z
1/2+x,1/2-y,z
loop_
_atom_site_type_symbol
_atom_site_label
_atom_site_fract_x
_atom_site_fract_y
_atom_site_fract_z
Si Si1 0.824638 0.684151 0.732820
Si Si2 0.820626 0.818606 0.164790
Si Si3 0.320818 0.316641 0.439646
Si Si4 0.577070 0.185214 0.639687
Si Si5 0.639250 0.818256 0.941031
Si Si6 0.500000 0.326614 0.939307
O O1 0.817953 0.500000 0.735902
O O2 0.750000 0.750000 0.722153
O O3 0.857243 0.743732 0.786670
O O4 0.876445 0.725907 0.688284
O O5 0.750000 0.750000 0.176870
O O6 0.828832 0.770501 0.105807
O O7 0.824979 0.000000 0.168326
O O8 0.326888 0.278144 0.500000
O O9 0.318807 0.500000 0.434221
O O10 0.250000 0.250000 0.421538
O O11 0.382674 0.250955 0.408559
O O12 0.500000 0.235130 0.643074
O O13 0.576556 0.000000 0.636616
O O14 0.563575 0.775466 0.930083
O O15 0.651229 0.000000 0.937423
O O16 0.655363 0.770653 0.000000
O O17 0.500000 0.500000 0.915926
O O18 0.500000 0.350361 0.000000
#
# Coordination Sequence:
#
# PCOD9490009 Si02
#       6
#    16  16  16  16  16   8
#     4  10  20  37  60  82 109 145 192 240 288 347
#     4  11  22  37  57  80 108 140 180 228 280 337
#     4  10  21  37  59  88 121 159 203 247 290 341
#     4  10  22  39  59  86 120 157 196 241 294 348
#     4  10  20  35  55  79 108 143 181 221 272 333
#     4   9  17  31  51  75 103 135 173 215 258 311
#
# _framework density 19.104755999999998
#
# number of rings (size 3 to 8) (size 9 to 14) (size 15 to 20)
#    0.000    1.909    0.000    5.182    0.000    7.273 
#    1.636    1.818    0.000    0.000    0.000    0.000 
#    0.000    0.000    0.000    0.000    0.000    0.000 
#
# Total GULP energy -244939.979192 kJ/mol
# GULP energy per Si atom -5566.817709 kJ/mol
# Density = 1.906127 g / cm^3
# Si number density = 19.104756 Si / 1000 Ang^3
#
#
#
# Elastic Constant Matrix: (Units=GPa)
#
#
# Indices 1 2 3 4 5 6 
#
# 1 107.4195 28.2367 60.2604 0.0000 0.0000 0.0000
# 2 28.2367 65.6341 44.7245 0.0000 0.0000 0.0000
# 3 60.2604 44.7245 121.1053 0.0000 0.0000 0.0000
# 4 0.0000 0.0000 0.0000 33.9833 0.0000 0.0000
# 5 0.0000 0.0000 0.0000 0.0000 -26.7399 0.0000
# 6 0.0000 0.0000 0.0000 0.0000 0.0000 27.3049
#
#
#
# Elastic Compliance Matrix: (Units=1/GPa)
#
#
# Indices 1 2 3 4 5 6 
#
# 1 0.013037 -0.001588 -0.005901 0.000000 0.000000 0.000000
# 2 -0.001588 0.020553 -0.006800 0.000000 0.000000 0.000000
# 3 -0.005901 -0.006800 0.013705 0.000000 0.000000 0.000000
# 4 0.000000 0.000000 0.000000 0.029426 0.000000 0.000000
# 5 0.000000 0.000000 0.000000 0.000000 -0.037397 0.000000
# 6 0.000000 0.000000 0.000000 0.000000 0.000000 0.036623
#
#
# Mechanical properties :
#
#
# Convention : Reuss Voigt Hill
#
# Bulk Modulus (GPa) = 53.42677 62.28912 57.85795
# Shear Modulus (GPa) = 45.14163 17.63884 31.39023
#
# Velocity S-wave (km/s) = 4.86619 3.04183 4.05786
# Velocity P-wave (km/s) = 7.72003 6.70908 7.23224
#
# Compressibility (1/GPa) = 0.01871721
#
# Stress axis : x y z
#
# Youngs Moduli (GPa) = 76.70614 48.65512 72.96827
#
# Poissons Ratio (x) = 0.07726 0.43055
# Poissons Ratio (y) = 0.12180 0.49619
# Poissons Ratio (z) = 0.45261 0.33086
#
# Static dielectric constant tensor:
#      x y z
#    x 1.497190 0.000000 0.000000 
#    y 0.000000 1.645870 0.000000 
#    z 0.000000 0.000000 1.734440 
# 
# From -- ./inp_files/71003.got.cif
#   From: 2010.05.17/outbox.cif.g08.bks.cpg/sg65_36_cif.got.tgz:71003.got - 2010.06.03 17:01:31.
