data_PCOD9490642
_publ_section_title
;
Structure prediction by ZEFSAII (Michael W. Deem and Ramdas Pophale) SiO2 
 PCOD9490642
Probable space group: C M M M
;
_chemical_formula_sum "Si O2"
_cell_formula_units_Z 88
_cell_length_a 24.523882
_cell_length_b 8.488405
_cell_length_c 23.256579
_cell_angle_alpha 90.000000
_cell_angle_beta 90.000000
_cell_angle_gamma 90.000000
_cell_volume 4841.290482
_symmetry_space_group_name_H-M "C M M M"
_symmetry_group_IT_number 65
_symmetry_cell_setting 'orthorhombic'
loop_
_space_group_symop_operation_xyz
x,y,z
-x,-y,z
x,-y,-z
-x,y,-z
-x,-y,-z
x,y,-z
-x,y,z
x,-y,z
1/2+x,1/2+y,z
1/2-x,1/2-y,z
1/2+x,1/2-y,-z
1/2-x,1/2+y,-z
1/2-x,1/2-y,-z
1/2+x,1/2+y,-z
1/2-x,1/2+y,z
1/2+x,1/2-y,z
loop_
_atom_site_type_symbol
_atom_site_label
_atom_site_fract_x
_atom_site_fract_y
_atom_site_fract_z
Si Si1 0.688423 0.811583 0.716347
Si Si2 0.391443 0.312461 0.377535
Si Si3 0.500000 0.181740 0.815975
Si Si4 0.879941 0.690504 0.828404
Si Si5 0.688354 0.688821 0.064833
Si Si6 0.435959 0.307649 0.500000
Si Si7 0.000000 0.318618 0.321626
O O1 0.750000 0.750000 0.720303
O O2 0.658548 0.760545 0.657648
O O3 0.652021 0.755054 0.770918
O O4 0.689616 0.000000 0.718587
O O5 0.384403 0.500000 0.378511
O O6 0.404075 0.257783 0.442594
O O7 0.446329 0.267556 0.343576
O O8 0.441811 0.253415 0.832521
O O9 0.500000 0.177497 0.746937
O O10 0.500000 0.000000 0.837203
O O11 0.883055 0.500000 0.823897
O O12 0.847254 0.737545 0.884893
O O13 0.688115 0.500000 0.069839
O O14 0.750000 0.750000 0.070888
O O15 0.669787 0.730883 0.000000
O O16 0.437597 0.500000 0.500000
O O17 0.500000 0.257165 0.500000
O O18 0.000000 0.500000 0.342178
#
# Coordination Sequence:
#
# PCOD9490642 Si02
#       7
#    16  16   8  16  16   8   8
#     4  11  23  39  58  83 114 147 185 234 284 334
#     4  11  21  36  58  84 113 148 189 230 279 336
#     4   9  18  35  55  81 115 149 178 218 273 326
#     4  10  20  36  59  84 113 147 183 225 274 328
#     4  10  21  37  57  82 112 146 187 234 278 322
#     4   9  18  34  55  82 115 146 181 229 278 328
#     4  11  19  34  56  82 117 150 182 230 282 329
#
# _framework density 18.176971999999999
#
# number of rings (size 3 to 8) (size 9 to 14) (size 15 to 20)
#    0.000    1.727    2.727    2.455    0.000    4.000 
#    0.000    3.636    0.000    2.727    0.000    0.000 
#    0.000    0.000    0.000    0.000    0.000    0.000 
#
# Total GULP energy -245555.630466 kJ/mol
# GULP energy per Si atom -5580.809783 kJ/mol
# Density = 1.813560 g / cm^3
# Si number density = 18.176972 Si / 1000 Ang^3
#
#
#
# Elastic Constant Matrix: (Units=GPa)
#
#
# Indices 1 2 3 4 5 6 
#
# 1 146.4440 22.1389 76.4730 0.0000 0.0000 0.0000
# 2 22.1389 24.0439 15.1795 0.0000 0.0000 0.0000
# 3 76.4730 15.1795 122.5716 0.0000 0.0000 0.0000
# 4 0.0000 0.0000 0.0000 19.3844 0.0000 0.0000
# 5 0.0000 0.0000 0.0000 0.0000 63.2733 0.0000
# 6 0.0000 0.0000 0.0000 0.0000 0.0000 17.5392
#
#
#
# Elastic Compliance Matrix: (Units=1/GPa)
#
#
# Indices 1 2 3 4 5 6 
#
# 1 0.010930 -0.006247 -0.006046 0.000000 0.000000 0.000000
# 2 -0.006247 0.048689 -0.002132 0.000000 0.000000 0.000000
# 3 -0.006046 -0.002132 0.012194 0.000000 0.000000 0.000000
# 4 0.000000 0.000000 0.000000 0.051588 0.000000 0.000000
# 5 0.000000 0.000000 0.000000 0.000000 0.015804 0.000000
# 6 0.000000 0.000000 0.000000 0.000000 0.000000 0.057015
#
#
# Mechanical properties :
#
#
# Convention : Reuss Voigt Hill
#
# Bulk Modulus (GPa) = 23.27556 57.84913 40.56235
# Shear Modulus (GPa) = 20.88627 31.99058 26.43843
#
# Velocity S-wave (km/s) = 3.39344 4.19973 3.81793
# Velocity P-wave (km/s) = 5.30912 7.44389 6.46522
#
# Compressibility (1/GPa) = 0.04296352
#
# Stress axis : x y z
#
# Youngs Moduli (GPa) = 91.49119 20.53856 82.00481
#
# Poissons Ratio (x) = 0.12831 0.49577
# Poissons Ratio (y) = 0.57157 0.17483
# Poissons Ratio (z) = 0.55312 0.04379
#
# Static dielectric constant tensor:
#      x y z
#    x 1.609260 0.000000 0.000000 
#    y 0.000000 1.623330 0.000000 
#    z 0.000000 0.000000 1.617950 
# 
# From -- ./inp_files/71069.got.cif
#   From: 2010.05.17/outbox.cif.g08.bks.cpg/sg65_36_cif.got.tgz:71069.got - 2010.06.03 17:01:31.
