data_PCOD9490100
_publ_section_title
;
Structure prediction by ZEFSAII (Michael W. Deem and Ramdas Pophale) SiO2 
 PCOD9490100
Probable space group: C M M M
;
_chemical_formula_sum "Si O2"
_cell_formula_units_Z 112
_cell_length_a 15.264037
_cell_length_b 23.752700
_cell_length_c 15.507275
_cell_angle_alpha 90.000000
_cell_angle_beta 90.000000
_cell_angle_gamma 90.000000
_cell_volume 5622.350060
_symmetry_space_group_name_H-M "C M M M"
_symmetry_group_IT_number 65
_symmetry_cell_setting 'orthorhombic'
loop_
_space_group_symop_operation_xyz
x,y,z
-x,-y,z
x,-y,-z
-x,y,-z
-x,-y,-z
x,y,-z
-x,y,z
x,-y,z
1/2+x,1/2+y,z
1/2-x,1/2-y,z
1/2+x,1/2-y,-z
1/2-x,1/2+y,-z
1/2-x,1/2-y,-z
1/2+x,1/2+y,-z
1/2-x,1/2+y,z
1/2+x,1/2-y,z
loop_
_atom_site_type_symbol
_atom_site_label
_atom_site_fract_x
_atom_site_fract_y
_atom_site_fract_z
Si Si1 0.649023 0.767751 0.271202
Si Si2 0.784563 0.438893 0.869741
Si Si3 0.247979 0.936675 0.667080
Si Si4 0.401056 0.394076 0.094401
Si Si5 0.602778 0.171821 0.904646
Si Si6 0.096320 0.146074 0.714222
Si Si7 0.899352 0.632857 0.598163
O O1 0.750000 0.750000 0.272464
O O2 0.625269 0.787406 0.174618
O O3 0.600719 0.711990 0.303934
O O4 0.627666 0.819331 0.333923
O O5 0.819899 0.500000 0.896329
O O6 0.781082 0.436983 0.766073
O O7 0.683509 0.433837 0.900307
O O8 0.839199 0.384778 0.898597
O O9 0.170051 0.890980 0.668010
O O10 0.329333 0.916672 0.610357
O O11 0.218419 0.000000 0.646062
O O12 0.500000 0.419331 0.099328
O O13 0.391432 0.357878 0.181414
O O14 0.396712 0.365403 0.000000
O O15 0.500000 0.157258 0.897391
O O16 0.617387 0.197078 0.000000
O O17 0.000000 0.123320 0.694451
O O18 0.894315 0.654027 0.500000
O O19 0.000000 0.615572 0.614807
#
# Coordination Sequence:
#
# PCOD9490100 Si02
#       7
#    16  16  16  16  16  16  16
#     4  12  22  41  66  91 128 167 207 260 313 366
#     4  10  20  35  56  80 114 165 217 259 308 372
#     4  10  21  40  63  91 124 161 205 256 313 371
#     4   9  18  32  50  78 117 157 206 267 319 362
#     4  11  24  39  57  87 127 169 212 258 307 361
#     4  10  20  36  60  89 122 167 213 255 312 375
#     4  11  24  43  69  99 129 162 202 253 313 374
#
# _framework density 19.920496
#
# number of rings (size 3 to 8) (size 9 to 14) (size 15 to 20)
#    0.000    1.571    2.857    2.571    0.000    3.714 
#    0.000    7.857    0.000    0.429    0.000    1.000 
#    0.000    0.000    0.000    0.000    0.000    0.000 
#
# Total GULP energy -312371.370008 kJ/mol
# GULP energy per Si atom -5578.060179 kJ/mol
# Density = 1.987516 g / cm^3
# Si number density = 19.920496 Si / 1000 Ang^3
#
#
#
# Elastic Constant Matrix: (Units=GPa)
#
#
# Indices 1 2 3 4 5 6 
#
# 1 122.4661 33.2511 31.3589 0.0000 0.0000 0.0000
# 2 33.2511 91.5114 12.0025 0.0000 0.0000 0.0000
# 3 31.3589 12.0025 61.6873 0.0000 0.0000 0.0000
# 4 0.0000 0.0000 0.0000 -3.1775 0.0000 0.0000
# 5 0.0000 0.0000 0.0000 0.0000 21.9147 0.0000
# 6 0.0000 0.0000 0.0000 0.0000 0.0000 4.3895
#
#
#
# Elastic Compliance Matrix: (Units=1/GPa)
#
#
# Indices 1 2 3 4 5 6 
#
# 1 0.010177 -0.003098 -0.004571 0.000000 0.000000 0.000000
# 2 -0.003098 0.012157 -0.000790 0.000000 0.000000 0.000000
# 3 -0.004571 -0.000790 0.018688 0.000000 0.000000 0.000000
# 4 0.000000 0.000000 0.000000 -0.314714 0.000000 0.000000
# 5 0.000000 0.000000 0.000000 0.000000 0.045631 0.000000
# 6 0.000000 0.000000 0.000000 0.000000 0.000000 0.227817
#
#
# Mechanical properties :
#
#
# Convention : Reuss Voigt Hill
#
# Bulk Modulus (GPa) = 41.48790 47.65443 44.57117
# Shear Modulus (GPa) = 202.35145 17.89550 110.12347
#
# Velocity S-wave (km/s) = 10.08960 3.00049 7.44322
# Velocity P-wave (km/s) = 12.51421 5.99818 9.81284
#
# Compressibility (1/GPa) = 0.02410341
#
# Stress axis : x y z
#
# Youngs Moduli (GPa) = 98.25906 82.25656 53.50997
#
# Poissons Ratio (x) = 0.25487 0.24458
# Poissons Ratio (y) = 0.30445 0.04229
# Poissons Ratio (z) = 0.44912 0.06501
#
# Static dielectric constant tensor:
#      x y z
#    x 1.725120 0.000000 0.000000 
#    y 0.000000 1.692360 0.000000 
#    z 0.000000 0.000000 1.711280 
# 
# From -- ./inp_files/40864.got.cif
#   From: 2010.05.17/outbox.cif.g08.bks.cpg/sg65_21_cif.got.tgz:40864.got - 2010.06.03 17:01:31.
