data_PCOD9490925
_publ_section_title
;
Structure prediction by ZEFSAII (Michael W. Deem and Ramdas Pophale) SiO2 
 PCOD9490925
Probable space group: C M M M
;
_chemical_formula_sum "Si O2"
_cell_formula_units_Z 60
_cell_length_a 27.437138
_cell_length_b 9.253503
_cell_length_c 12.156564
_cell_angle_alpha 90.000000
_cell_angle_beta 90.000000
_cell_angle_gamma 90.000000
_cell_volume 3086.425643
_symmetry_space_group_name_H-M "C M M M"
_symmetry_group_IT_number 65
_symmetry_cell_setting 'orthorhombic'
loop_
_space_group_symop_operation_xyz
x,y,z
-x,-y,z
x,-y,-z
-x,y,-z
-x,-y,-z
x,y,-z
-x,y,z
x,-y,z
1/2+x,1/2+y,z
1/2-x,1/2-y,z
1/2+x,1/2-y,-z
1/2-x,1/2+y,-z
1/2-x,1/2-y,-z
1/2+x,1/2+y,-z
1/2-x,1/2+y,z
1/2+x,1/2-y,z
loop_
_atom_site_type_symbol
_atom_site_label
_atom_site_fract_x
_atom_site_fract_y
_atom_site_fract_z
Si Si1 0.861830 0.283678 0.625471
Si Si2 0.704050 0.000000 0.241423
Si Si3 0.384240 0.674665 0.000000
Si Si4 0.702115 0.500000 0.381993
Si Si5 0.830178 0.500000 0.000000
Si Si6 0.056519 0.830534 0.771951
O O1 0.865467 0.337772 0.500000
O O2 0.826384 0.370554 0.705510
O O3 0.913685 0.262184 0.683381
O O4 0.833757 0.133267 0.620614
O O5 0.758631 0.000000 0.286287
O O6 0.700566 0.000000 0.111389
O O7 0.356341 0.835597 0.000000
O O8 0.416499 0.680602 0.889401
O O9 0.363935 0.500000 0.000000
O O10 0.729715 0.500000 0.500000
O O11 0.000000 0.789057 0.781277
O O12 0.058576 0.000000 0.739342
#
# Coordination Sequence:
#
# PCOD9490925 Si02
#       6
#    16   8   8   8   4  16
#     4  11  22  39  63  92 127 169 210 259 321 384
#     4  12  24  42  62  91 130 160 213 271 317 388
#     4  10  21  42  65  93 131 175 219 266 319 390
#     4  10  22  42  67  92 121 170 223 259 312 388
#     4  12  24  42  69  98 126 172 217 266 340 384
#     4  10  20  37  64  95 127 166 213 267 321 381
#
# _framework density 19.439962999999999
#
# number of rings (size 3 to 8) (size 9 to 14) (size 15 to 20)
#    0.000    1.333    4.000    2.400    0.000    4.267 
#    0.000    8.667    0.000    1.600    0.000    0.000 
#    0.000    0.000    0.000    0.000    0.000    0.000 
#
# Total GULP energy -167050.647501 kJ/mol
# GULP energy per Si atom -5568.354917 kJ/mol
# Density = 1.939572 g / cm^3
# Si number density = 19.439963 Si / 1000 Ang^3
#
#
#
# Elastic Constant Matrix: (Units=GPa)
#
#
# Indices 1 2 3 4 5 6 
#
# 1 65.4549 18.5339 32.5659 0.0000 0.0000 0.0000
# 2 18.5339 100.4028 23.6356 0.0000 0.0000 0.0000
# 3 32.5659 23.6356 140.7332 0.0000 0.0000 0.0000
# 4 0.0000 0.0000 0.0000 16.9540 0.0000 0.0000
# 5 0.0000 0.0000 0.0000 0.0000 18.4872 0.0000
# 6 0.0000 0.0000 0.0000 0.0000 0.0000 18.7878
#
#
#
# Elastic Compliance Matrix: (Units=1/GPa)
#
#
# Indices 1 2 3 4 5 6 
#
# 1 0.017810 -0.002413 -0.003716 0.000000 0.000000 0.000000
# 2 -0.002413 0.010697 -0.001238 0.000000 0.000000 0.000000
# 3 -0.003716 -0.001238 0.008173 0.000000 0.000000 0.000000
# 4 0.000000 0.000000 0.000000 0.058983 0.000000 0.000000
# 5 0.000000 0.000000 0.000000 0.000000 0.054091 0.000000
# 6 0.000000 0.000000 0.000000 0.000000 0.000000 0.053226
#
#
# Mechanical properties :
#
#
# Convention : Reuss Voigt Hill
#
# Bulk Modulus (GPa) = 45.56631 50.67353 48.11992
# Shear Modulus (GPa) = 22.21925 26.30281 24.26103
#
# Velocity S-wave (km/s) = 3.38445 3.68234 3.53653
# Velocity P-wave (km/s) = 6.22600 6.64852 6.44072
#
# Compressibility (1/GPa) = 0.02194604
#
# Stress axis : x y z
#
# Youngs Moduli (GPa) = 56.14910 93.48631 122.34707
#
# Poissons Ratio (x) = 0.22557 0.45464
# Poissons Ratio (y) = 0.13548 0.15148
# Poissons Ratio (z) = 0.20865 0.11575
#
# Static dielectric constant tensor:
#      x y z
#    x 1.636360 0.000000 0.000000 
#    y 0.000000 1.743640 0.000000 
#    z 0.000000 0.000000 1.674730 
# 
# From -- ./inp_files/31829.got.cif
#   From: 2010.05.17/outbox.cif.g08.bks.cpg/sg65_16_cif.got.tgz:31829.got - 2010.06.03 17:01:31.
