data_PCOD9490513
_publ_section_title
;
Structure prediction by ZEFSAII (Michael W. Deem and Ramdas Pophale) SiO2 
 PCOD9490513
Probable space group: C M M M
;
_chemical_formula_sum "Si O2"
_cell_formula_units_Z 72
_cell_length_a 26.122702
_cell_length_b 8.320270
_cell_length_c 17.833291
_cell_angle_alpha 90.000000
_cell_angle_beta 90.000000
_cell_angle_gamma 90.000000
_cell_volume 3876.028951
_symmetry_space_group_name_H-M "C M M M"
_symmetry_group_IT_number 65
_symmetry_cell_setting 'orthorhombic'
loop_
_space_group_symop_operation_xyz
x,y,z
-x,-y,z
x,-y,-z
-x,y,-z
-x,-y,-z
x,y,-z
-x,y,z
x,-y,z
1/2+x,1/2+y,z
1/2-x,1/2-y,z
1/2+x,1/2-y,-z
1/2-x,1/2+y,-z
1/2-x,1/2-y,-z
1/2+x,1/2+y,-z
1/2-x,1/2+y,z
1/2+x,1/2-y,z
loop_
_atom_site_type_symbol
_atom_site_label
_atom_site_fract_x
_atom_site_fract_y
_atom_site_fract_z
Si Si1 0.308354 0.309771 0.000000
Si Si2 0.500000 0.692352 0.720746
Si Si3 0.807559 0.194427 0.584965
Si Si4 0.612181 0.693107 0.707669
Si Si5 0.000000 0.312360 0.112165
Si Si6 0.887990 0.692490 0.121268
O O1 0.250000 0.250000 0.000000
O O2 0.341106 0.251717 0.071495
O O3 0.307195 0.500000 0.000000
O O4 0.500000 0.500000 0.739295
O O5 0.553857 0.727287 0.681874
O O6 0.500000 0.791787 0.797785
O O7 0.820550 0.247092 0.500000
O O8 0.750000 0.250000 0.601107
O O9 0.846719 0.253765 0.648000
O O10 0.808712 0.000000 0.585461
O O11 0.617318 0.500000 0.712556
O O12 0.618227 0.758612 0.791902
O O13 0.943821 0.245155 0.091684
O O14 0.000000 0.500000 0.090867
O O15 0.890028 0.500000 0.116768
#
# Coordination Sequence:
#
# PCOD9490513 Si02
#       6
#     8   8  16  16   8  16
#     4  12  26  43  58  75 103 138 174 214 259 304
#     4   8  14  26  46  71 100 131 163 205 252 297
#     4   9  18  32  49  70  98 131 168 211 255 299
#     4   9  17  31  51  75 102 133 170 209 252 303
#     4   8  16  31  53  79 106 134 166 205 249 300
#     4  10  20  36  57  81 107 137 172 210 254 303
#
# _framework density 18.575711999999999
#
# number of rings (size 3 to 8) (size 9 to 14) (size 15 to 20)
#    0.000    2.667    0.000    1.667    0.000    3.111 
#    0.000    5.000    0.000    3.333    0.000    0.000 
#    0.000   12.444    0.000    0.000    0.000    0.000 
#
# Total GULP energy -200599.871558 kJ/mol
# GULP energy per Si atom -5572.218654 kJ/mol
# Density = 1.853343 g / cm^3
# Si number density = 18.575712 Si / 1000 Ang^3
#
#
#
# Elastic Constant Matrix: (Units=GPa)
#
#
# Indices 1 2 3 4 5 6 
#
# 1 197.1001 34.1887 110.0005 0.0000 0.0000 0.0000
# 2 34.1887 29.2559 23.3357 0.0000 0.0000 0.0000
# 3 110.0005 23.3357 114.0899 0.0000 0.0000 0.0000
# 4 0.0000 0.0000 0.0000 8.7001 0.0000 0.0000
# 5 0.0000 0.0000 0.0000 0.0000 75.6108 0.0000
# 6 0.0000 0.0000 0.0000 0.0000 0.0000 23.0422
#
#
#
# Elastic Compliance Matrix: (Units=1/GPa)
#
#
# Indices 1 2 3 4 5 6 
#
# 1 0.011701 -0.005587 -0.010139 0.000000 0.000000 0.000000
# 2 -0.005587 0.043512 -0.003513 0.000000 0.000000 0.000000
# 3 -0.010139 -0.003513 0.019259 0.000000 0.000000 0.000000
# 4 0.000000 0.000000 0.000000 0.114942 0.000000 0.000000
# 5 0.000000 0.000000 0.000000 0.000000 0.013226 0.000000
# 6 0.000000 0.000000 0.000000 0.000000 0.000000 0.043399
#
#
# Mechanical properties :
#
#
# Convention : Reuss Voigt Hill
#
# Bulk Modulus (GPa) = 27.78218 75.05511 51.41865
# Shear Modulus (GPa) = 16.86253 32.99868 24.93060
#
# Velocity S-wave (km/s) = 3.01620 4.21936 3.66745
# Velocity P-wave (km/s) = 5.20755 8.01436 6.75828
#
# Compressibility (1/GPa) = 0.03599429
#
# Stress axis : x y z
#
# Youngs Moduli (GPa) = 85.46127 22.98202 51.92297
#
# Poissons Ratio (x) = 0.12840 0.52645
# Poissons Ratio (y) = 0.47745 0.18243
# Poissons Ratio (z) = 0.86650 0.08074
#
# Static dielectric constant tensor:
#      x y z
#    x 1.690010 0.000000 0.000000 
#    y 0.000000 1.652490 0.000000 
#    z 0.000000 0.000000 1.630070 
# 
# From -- ./inp_files/56516.got.cif
#   From: 2010.05.17/outbox.cif.g08.bks.cpg/sg65_29_cif.got.tgz:56516.got - 2010.06.03 17:01:31.
