data_PCOD9490587
_publ_section_title
;
Structure prediction by ZEFSAII (Michael W. Deem and Ramdas Pophale) SiO2 
 PCOD9490587
Probable space group: C M M M
;
_chemical_formula_sum "Si O2"
_cell_formula_units_Z 80
_cell_length_a 26.224522
_cell_length_b 8.311544
_cell_length_c 18.571783
_cell_angle_alpha 90.000000
_cell_angle_beta 90.000000
_cell_angle_gamma 90.000000
_cell_volume 4048.022240
_symmetry_space_group_name_H-M "C M M M"
_symmetry_group_IT_number 65
_symmetry_cell_setting 'orthorhombic'
loop_
_space_group_symop_operation_xyz
x,y,z
-x,-y,z
x,-y,-z
-x,y,-z
-x,-y,-z
x,y,-z
-x,y,z
x,-y,z
1/2+x,1/2+y,z
1/2-x,1/2-y,z
1/2+x,1/2-y,-z
1/2-x,1/2+y,-z
1/2-x,1/2-y,-z
1/2+x,1/2+y,-z
1/2-x,1/2+y,z
1/2+x,1/2-y,z
loop_
_atom_site_type_symbol
_atom_site_label
_atom_site_fract_x
_atom_site_fract_y
_atom_site_fract_z
Si Si1 0.693903 0.307064 0.357181
Si Si2 0.000000 0.191542 0.316504
Si Si3 0.411154 0.191992 0.419777
Si Si4 0.194155 0.193986 0.809234
Si Si5 0.893506 0.803213 0.082074
Si Si6 0.500000 0.696853 0.848313
O O1 0.692563 0.500000 0.359157
O O2 0.750000 0.250000 0.380840
O O3 0.646671 0.240744 0.402037
O O4 0.686918 0.252901 0.273693
O O5 0.950042 0.243356 0.360335
O O6 0.000000 0.252799 0.234459
O O7 0.000000 0.000000 0.312306
O O8 0.425052 0.250905 0.500000
O O9 0.415039 0.000000 0.419516
O O10 0.250000 0.250000 0.832834
O O11 0.150134 0.251018 0.862722
O O12 0.193138 0.000000 0.808580
O O13 0.948808 0.752825 0.110901
O O14 0.892957 0.000000 0.082371
O O15 0.884880 0.751467 0.000000
O O16 0.500000 0.500000 0.847762
#
# Coordination Sequence:
#
# PCOD9490587 Si02
#       6
#    16   8  16  16  16   8
#     4  10  20  36  58  82 110 144 183 226 269 318
#     4  11  22  37  59  83 108 141 182 226 270 321
#     4  11  24  40  57  80 111 143 177 221 272 326
#     4   9  18  32  50  75 105 137 176 218 258 305
#     4   9  16  27  46  73 105 138 171 211 260 311
#     4   9  17  30  49  75 104 133 170 216 264 313
#
# _framework density 19.762739
#
# number of rings (size 3 to 8) (size 9 to 14) (size 15 to 20)
#    0.000    2.200    0.000    3.300    0.000    8.800 
#    0.000    0.000    0.000    0.000    0.000    0.000 
#    0.000    6.400    0.000    0.000    0.000    0.000 
#
# Total GULP energy -223416.045381 kJ/mol
# GULP energy per Si atom -5585.401135 kJ/mol
# Density = 1.971776 g / cm^3
# Si number density = 19.762739 Si / 1000 Ang^3
#
#
#
# Elastic Constant Matrix: (Units=GPa)
#
#
# Indices 1 2 3 4 5 6 
#
# 1 56.7643 -3.3892 -5.9355 0.0000 0.0000 0.0000
# 2 -3.3892 14.4157 1.8742 0.0000 0.0000 0.0000
# 3 -5.9355 1.8742 37.9120 0.0000 0.0000 0.0000
# 4 0.0000 0.0000 0.0000 6.5768 0.0000 0.0000
# 5 0.0000 0.0000 0.0000 0.0000 -80.5339 0.0000
# 6 0.0000 0.0000 0.0000 0.0000 0.0000 33.2620
#
#
#
# Elastic Compliance Matrix: (Units=1/GPa)
#
#
# Indices 1 2 3 4 5 6 
#
# 1 0.018127 0.003918 0.002644 0.000000 0.000000 0.000000
# 2 0.003918 0.070664 -0.002880 0.000000 0.000000 0.000000
# 3 0.002644 -0.002880 0.026933 0.000000 0.000000 0.000000
# 4 0.000000 0.000000 0.000000 0.152049 0.000000 0.000000
# 5 0.000000 0.000000 0.000000 0.000000 -0.012417 0.000000
# 6 0.000000 0.000000 0.000000 0.000000 0.000000 0.030064
#
#
# Mechanical properties :
#
#
# Convention : Reuss Voigt Hill
#
# Bulk Modulus (GPa) = 8.12419 10.46568 9.29494
# Shear Modulus (GPa) = 15.66974 -0.36952 7.65011
#
# Velocity S-wave (km/s) = 2.81889 -0.43288 1.96961
# Velocity P-wave (km/s) = 3.83597 2.24885 3.14420
#
# Compressibility (1/GPa) = 0.12308916
#
# Stress axis : x y z
#
# Youngs Moduli (GPa) = 55.16590 14.15142 37.12882
#
# Poissons Ratio (x) = -0.05544 -0.09818
# Poissons Ratio (y) = -0.21614 0.10693
# Poissons Ratio (z) = -0.14587 0.04076
#
# Static dielectric constant tensor:
#      x y z
#    x 1.672080 0.000000 0.000000 
#    y 0.000000 1.685950 0.000000 
#    z 0.000000 0.000000 1.696190 
# 
# From -- ./inp_files/57317.got.cif
#   From: 2010.05.17/outbox.cif.g08.bks.cpg/sg65_29_cif.got.tgz:57317.got - 2010.06.03 17:01:31.
