data_PCOD9490486
_publ_section_title
;
Structure prediction by ZEFSAII (Michael W. Deem and Ramdas Pophale) SiO2 
 PCOD9490486
Probable space group: C M M M
;
_chemical_formula_sum "Si O2"
_cell_formula_units_Z 64
_cell_length_a 8.219982
_cell_length_b 28.577635
_cell_length_c 13.552566
_cell_angle_alpha 90.000000
_cell_angle_beta 90.000000
_cell_angle_gamma 90.000000
_cell_volume 3183.601367
_symmetry_space_group_name_H-M "C M M M"
_symmetry_group_IT_number 65
_symmetry_cell_setting 'orthorhombic'
loop_
_space_group_symop_operation_xyz
x,y,z
-x,-y,z
x,-y,-z
-x,y,-z
-x,-y,-z
x,y,-z
-x,y,z
x,-y,z
1/2+x,1/2+y,z
1/2-x,1/2-y,z
1/2+x,1/2-y,-z
1/2-x,1/2+y,-z
1/2-x,1/2-y,-z
1/2+x,1/2+y,-z
1/2-x,1/2+y,z
1/2+x,1/2-y,z
loop_
_atom_site_type_symbol
_atom_site_label
_atom_site_fract_x
_atom_site_fract_y
_atom_site_fract_z
Si Si1 0.193767 0.393902 0.304781
Si Si2 0.697735 0.055237 0.108057
Si Si3 0.693752 0.553123 0.500000
Si Si4 0.696211 0.304222 0.000000
Si Si5 0.305249 0.303500 0.784129
O O1 0.259827 0.418851 0.205238
O O2 0.253848 0.419516 0.402193
O O3 0.242266 0.339729 0.296257
O O4 0.000000 0.397530 0.303139
O O5 0.500000 0.058909 0.107486
O O6 0.735585 0.000000 0.114943
O O7 0.755929 0.072359 0.000000
O O8 0.760346 0.500000 0.500000
O O9 0.500000 0.550502 0.500000
O O10 0.750000 0.250000 0.000000
O O11 0.755543 0.321129 0.892952
O O12 0.500000 0.307399 0.000000
O O13 0.500000 0.304097 0.785011
O O14 0.250000 0.250000 0.770530
#
# Coordination Sequence:
#
# PCOD9490486 Si02
#       5
#    16  16   8   8  16
#     4  11  22  36  60  90 118 154 199 246 298 356
#     4   8  15  29  50  80 117 151 184 229 287 349
#     4  11  25  45  66  87 116 155 199 249 301 353
#     4   8  16  30  50  76 111 156 199 240 284 337
#     4  10  20  36  56  83 120 161 203 247 294 348
#
# _framework density 20.103019
#
# number of rings (size 3 to 8) (size 9 to 14) (size 15 to 20)
#    0.000    2.375    0.000    3.375    1.750    3.000 
#    0.000    0.625    0.000    0.000    0.000    5.250 
#    0.000    0.000    0.000    0.000    0.000    0.000 
#
# Total GULP energy -178582.197673 kJ/mol
# GULP energy per Si atom -5580.693677 kJ/mol
# Density = 2.005726 g / cm^3
# Si number density = 20.103019 Si / 1000 Ang^3
#
#
#
# Elastic Constant Matrix: (Units=GPa)
#
#
# Indices 1 2 3 4 5 6 
#
# 1 36.0779 15.7666 27.2514 0.0000 0.0000 0.0000
# 2 15.7666 122.7099 102.7557 0.0000 0.0000 0.0000
# 3 27.2514 102.7557 166.7428 0.0000 0.0000 0.0000
# 4 0.0000 0.0000 0.0000 38.8812 0.0000 0.0000
# 5 0.0000 0.0000 0.0000 0.0000 16.7468 0.0000
# 6 0.0000 0.0000 0.0000 0.0000 0.0000 17.2111
#
#
#
# Elastic Compliance Matrix: (Units=1/GPa)
#
#
# Indices 1 2 3 4 5 6 
#
# 1 0.031639 0.000547 -0.005508 0.000000 0.000000 0.000000
# 2 0.000547 0.016848 -0.010472 0.000000 0.000000 0.000000
# 3 -0.005508 -0.010472 0.013351 0.000000 0.000000 0.000000
# 4 0.000000 0.000000 0.000000 0.025719 0.000000 0.000000
# 5 0.000000 0.000000 0.000000 0.000000 0.059713 0.000000
# 6 0.000000 0.000000 0.000000 0.000000 0.000000 0.058102
#
#
# Mechanical properties :
#
#
# Convention : Reuss Voigt Hill
#
# Bulk Modulus (GPa) = 32.28699 68.56423 50.42561
# Shear Modulus (GPa) = 20.27878 26.55162 23.41520
#
# Velocity S-wave (km/s) = 3.17952 3.63819 3.41656
# Velocity P-wave (km/s) = 5.43827 7.19924 6.37980
#
# Compressibility (1/GPa) = 0.03097222
#
# Stress axis : x y z
#
# Youngs Moduli (GPa) = 31.60633 59.35300 74.90055
#
# Poissons Ratio (x) = -0.03248 0.41256
# Poissons Ratio (y) = -0.01730 0.78438
# Poissons Ratio (z) = 0.17409 0.62156
#
# Static dielectric constant tensor:
#      x y z
#    x 1.682520 0.000000 0.000000 
#    y 0.000000 1.702250 0.000000 
#    z 0.000000 0.000000 1.731960 
# 
# From -- ./inp_files/21036.got.cif
#   From: 2010.05.17/outbox.cif.g08.bks.cpg/sg65_11_cif.got.tgz:21036.got - 2010.06.03 17:01:31.
