data_PCOD9490142
_publ_section_title
;
Structure prediction by ZEFSAII (Michael W. Deem and Ramdas Pophale) SiO2 
 PCOD9490142
Probable space group: C M M M
;
_chemical_formula_sum "Si O2"
_cell_formula_units_Z 104
_cell_length_a 31.533935
_cell_length_b 20.013832
_cell_length_c 8.468459
_cell_angle_alpha 90.000000
_cell_angle_beta 90.000000
_cell_angle_gamma 90.000000
_cell_volume 5344.570463
_symmetry_space_group_name_H-M "C M M M"
_symmetry_group_IT_number 65
_symmetry_cell_setting 'orthorhombic'
loop_
_space_group_symop_operation_xyz
x,y,z
-x,-y,z
x,-y,-z
-x,y,-z
-x,-y,-z
x,y,-z
-x,y,z
x,-y,z
1/2+x,1/2+y,z
1/2-x,1/2-y,z
1/2+x,1/2-y,-z
1/2-x,1/2+y,-z
1/2-x,1/2-y,-z
1/2+x,1/2+y,-z
1/2-x,1/2+y,z
1/2+x,1/2-y,z
loop_
_atom_site_type_symbol
_atom_site_label
_atom_site_fract_x
_atom_site_fract_y
_atom_site_fract_z
Si Si1 0.757198 0.000000 0.687296
Si Si2 0.659693 0.000000 0.693293
Si Si3 0.320500 0.607422 0.819886
Si Si4 0.950911 0.732234 0.690564
Si Si5 0.203847 0.261538 0.818957
Si Si6 0.950788 0.000000 0.323895
Si Si7 0.871026 0.354931 0.309514
Si Si8 0.912658 0.871132 0.812529
O O1 0.708836 0.000000 0.748024
O O2 0.783868 0.935064 0.738839
O O3 0.754447 0.000000 0.500000
O O4 0.637191 0.931115 0.743523
O O5 0.659859 0.000000 0.500000
O O6 0.312874 0.686325 0.824656
O O7 0.367058 0.604819 0.746129
O O8 0.322416 0.582185 0.000000
O O9 0.952091 0.729145 0.500000
O O10 0.915473 0.678203 0.745380
O O11 0.932091 0.804216 0.739105
O O12 0.000000 0.723916 0.745933
O O13 0.250000 0.250000 0.741862
O O14 0.169187 0.309503 0.741202
O O15 0.210474 0.286079 0.000000
O O16 0.940911 0.065830 0.225661
O O17 0.930358 0.000000 0.500000
O O18 0.000000 0.000000 0.348252
O O19 0.871977 0.354970 0.500000
O O20 0.907836 0.859523 0.000000
#
# Coordination Sequence:
#
# PCOD9490142 Si02
#       8
#     8   8  16  16  16   8  16  16
#     4  11  22  34  53  81 113 150 195 234 270 329
#     4   9  20  38  57  83 115 146 183 232 285 337
#     4  10  21  36  52  76 112 147 181 225 273 322
#     4  10  21  37  58  85 114 147 191 242 294 345
#     4  10  20  35  56  82 113 147 185 230 276 328
#     4  11  24  39  54  76 109 145 184 233 278 324
#     4  10  20  37  60  82 112 150 187 232 286 343
#     4  11  22  37  57  81 111 149 190 233 281 336
#
# _framework density 19.459001000000001
#
# number of rings (size 3 to 8) (size 9 to 14) (size 15 to 20)
#    0.000    1.769    1.538    2.769    0.000    6.769 
#    0.000    1.538    0.000    2.308    0.000    0.000 
#    0.000    2.462    0.000    0.000    0.000    0.000 
#
# Total GULP energy -289940.414844 kJ/mol
# GULP energy per Si atom -5575.777209 kJ/mol
# Density = 1.941471 g / cm^3
# Si number density = 19.459001 Si / 1000 Ang^3
#
#
#
# Elastic Constant Matrix: (Units=GPa)
#
#
# Indices 1 2 3 4 5 6 
#
# 1 152.0742 77.8627 20.4570 0.0000 0.0000 0.0000
# 2 77.8627 157.7240 12.1119 0.0000 0.0000 0.0000
# 3 20.4570 12.1119 12.3429 0.0000 0.0000 0.0000
# 4 0.0000 0.0000 0.0000 18.1867 0.0000 0.0000
# 5 0.0000 0.0000 0.0000 0.0000 20.0299 0.0000
# 6 0.0000 0.0000 0.0000 0.0000 0.0000 -59.9842
#
#
#
# Elastic Compliance Matrix: (Units=1/GPa)
#
#
# Indices 1 2 3 4 5 6 
#
# 1 0.010496 -0.004159 -0.013315 0.000000 0.000000 0.000000
# 2 -0.004159 0.008505 -0.001452 0.000000 0.000000 0.000000
# 3 -0.013315 -0.001452 0.104512 0.000000 0.000000 0.000000
# 4 0.000000 0.000000 0.000000 0.054985 0.000000 0.000000
# 5 0.000000 0.000000 0.000000 0.000000 0.049925 0.000000
# 6 0.000000 0.000000 0.000000 0.000000 0.000000 -0.016671
#
#
# Mechanical properties :
#
#
# Convention : Reuss Voigt Hill
#
# Bulk Modulus (GPa) = 11.67407 60.33383 36.00395
# Shear Modulus (GPa) = 17.97522 9.76043 13.86783
#
# Velocity S-wave (km/s) = 3.04262 2.24205 2.67248
# Velocity P-wave (km/s) = 4.28436 6.14616 5.29769
#
# Compressibility (1/GPa) = 0.08565991
#
# Stress axis : x y z
#
# Youngs Moduli (GPa) = 95.27012 117.57819 9.56824
#
# Poissons Ratio (x) = 0.48903 0.12741
# Poissons Ratio (y) = 0.39625 0.01390
# Poissons Ratio (z) = 1.26856 0.17077
#
# Static dielectric constant tensor:
#      x y z
#    x 0.630930 0.000000 0.000000 
#    y 0.000000 1.665200 0.000000 
#    z 0.000000 0.000000 1.712220 
# 
# From -- ./inp_files/16570.got.cif
#   From: 2010.05.17/outbox.cif.g08.bks.cpg/sg65_9_cif.got.tgz:16570.got - 2010.06.03 17:01:31.
