data_PCOD9490318
_publ_section_title
;
Structure prediction by ZEFSAII (Michael W. Deem and Ramdas Pophale) SiO2 
 PCOD9490318
Probable space group: C M M M
;
_chemical_formula_sum "Si O2"
_cell_formula_units_Z 74
_cell_length_a 10.243252
_cell_length_b 14.421083
_cell_length_c 26.742868
_cell_angle_alpha 90.000000
_cell_angle_beta 90.000000
_cell_angle_gamma 90.000000
_cell_volume 3950.424029
_symmetry_space_group_name_H-M "C M M M"
_symmetry_group_IT_number 65
_symmetry_cell_setting 'orthorhombic'
loop_
_space_group_symop_operation_xyz
x,y,z
-x,-y,z
x,-y,-z
-x,y,-z
-x,-y,-z
x,y,-z
-x,y,z
x,-y,z
1/2+x,1/2+y,z
1/2-x,1/2-y,z
1/2+x,1/2-y,-z
1/2-x,1/2+y,-z
1/2-x,1/2-y,-z
1/2+x,1/2+y,-z
1/2-x,1/2+y,z
1/2+x,1/2-y,z
loop_
_atom_site_type_symbol
_atom_site_label
_atom_site_fract_x
_atom_site_fract_y
_atom_site_fract_z
Si Si1 0.159608 0.500000 0.203298
Si Si2 0.000000 0.000000 0.500000
Si Si3 0.500000 0.364985 0.941987
Si Si4 0.500000 0.140404 0.056333
Si Si5 0.653704 0.162347 0.606544
Si Si6 0.252790 0.861341 0.877996
Si Si7 0.157285 0.500000 0.681004
Si Si8 0.253873 0.863380 0.500000
O O1 0.220057 0.412556 0.173886
O O2 0.197886 0.500000 0.261389
O O3 0.000000 0.500000 0.199416
O O4 0.883665 0.082069 0.500000
O O5 0.500000 0.252732 0.945209
O O6 0.625229 0.390033 0.908969
O O7 0.500000 0.396677 0.000000
O O8 0.373227 0.112961 0.086584
O O9 0.500000 0.106739 0.000000
O O10 0.500000 0.186785 0.612012
O O11 0.750000 0.250000 0.609257
O O12 0.673833 0.115942 0.552079
O O13 0.694811 0.090468 0.649560
O O14 0.250000 0.750000 0.871183
O O15 0.000000 0.500000 0.681267
O O16 0.250000 0.750000 0.500000
#
# Coordination Sequence:
#
# PCOD9490318 Si02
#       8
#     8   2   8   8  16  16   8   8
#     4  11  22  40  62  82 112 154 208 259 294 352
#     4  12  24  40  62  98 136 204 222 276 332 386
#     4   9  18  33  55  82 119 152 178 229 300 366
#     4   9  16  31  55  85 112 145 185 226 282 363
#     4  10  21  39  65  96 131 168 208 263 324 388
#     4  10  20  35  58  84 113 149 191 235 297 358
#     4   9  21  40  60  85 117 159 210 259 310 364
#     4  10  23  36  65  99 142 172 227 266 330 405
#
# _framework density 18.732167
#
# number of rings (size 3 to 8) (size 9 to 14) (size 15 to 20)
#    0.000    2.162    1.081    1.622    6.054    3.892 
#    0.000    5.405    4.757    0.000    0.000    0.000 
#    0.000    0.000    0.000    0.000    0.000    0.000 
#
# Total GULP energy -206114.922965 kJ/mol
# GULP energy per Si atom -5570.673594 kJ/mol
# Density = 1.868953 g / cm^3
# Si number density = 18.732167 Si / 1000 Ang^3
#
#
#
# Elastic Constant Matrix: (Units=GPa)
#
#
# Indices 1 2 3 4 5 6 
#
# 1 142.5199 48.3459 61.9033 0.0000 0.0000 0.0000
# 2 48.3459 121.1296 64.1412 0.0000 0.0000 0.0000
# 3 61.9033 64.1412 202.1032 0.0000 0.0000 0.0000
# 4 0.0000 0.0000 0.0000 27.8325 0.0000 0.0000
# 5 0.0000 0.0000 0.0000 0.0000 25.4200 0.0000
# 6 0.0000 0.0000 0.0000 0.0000 0.0000 8.6108
#
#
#
# Elastic Compliance Matrix: (Units=1/GPa)
#
#
# Indices 1 2 3 4 5 6 
#
# 1 0.008667 -0.002468 -0.001871 0.000000 0.000000 0.000000
# 2 -0.002468 0.010626 -0.002616 0.000000 0.000000 0.000000
# 3 -0.001871 -0.002616 0.006351 0.000000 0.000000 0.000000
# 4 0.000000 0.000000 0.000000 0.035929 0.000000 0.000000
# 5 0.000000 0.000000 0.000000 0.000000 0.039339 0.000000
# 6 0.000000 0.000000 0.000000 0.000000 0.000000 0.116134
#
#
# Mechanical properties :
#
#
# Convention : Reuss Voigt Hill
#
# Bulk Modulus (GPa) = 85.23254 90.50371 87.86813
# Shear Modulus (GPa) = 21.28845 31.79679 26.54262
#
# Velocity S-wave (km/s) = 3.37481 4.12447 3.76833
# Velocity P-wave (km/s) = 7.79648 8.43215 8.12054
#
# Compressibility (1/GPa) = 0.01173261
#
# Stress axis : x y z
#
# Youngs Moduli (GPa) = 115.38563 94.10695 157.44366
#
# Poissons Ratio (x) = 0.23228 0.29461
# Poissons Ratio (y) = 0.28480 0.41194
# Poissons Ratio (z) = 0.21591 0.24622
#
# Static dielectric constant tensor:
#      x y z
#    x 1.610900 0.000000 0.000000 
#    y 0.000000 1.670540 0.000000 
#    z 0.000000 0.000000 1.635310 
# 
# From -- ./inp_files/72681.got.cif
#   From: 2010.05.17/outbox.cif.g08.bks.cpg/sg65_37_cif.got.tgz:72681.got - 2010.06.03 17:01:31.
