data_PCOD9490329
_publ_section_title
;
Structure prediction by ZEFSAII (Michael W. Deem and Ramdas Pophale) SiO2 
 PCOD9490329
Probable space group: C M M M
;
_chemical_formula_sum "Si O2"
_cell_formula_units_Z 104
_cell_length_a 27.687535
_cell_length_b 22.329514
_cell_length_c 7.789187
_cell_angle_alpha 90.000000
_cell_angle_beta 90.000000
_cell_angle_gamma 90.000000
_cell_volume 4815.658635
_symmetry_space_group_name_H-M "C M M M"
_symmetry_group_IT_number 65
_symmetry_cell_setting 'orthorhombic'
loop_
_space_group_symop_operation_xyz
x,y,z
-x,-y,z
x,-y,-z
-x,y,-z
-x,-y,-z
x,y,-z
-x,y,z
x,-y,z
1/2+x,1/2+y,z
1/2-x,1/2-y,z
1/2+x,1/2-y,-z
1/2-x,1/2+y,-z
1/2-x,1/2-y,-z
1/2+x,1/2+y,-z
1/2-x,1/2+y,z
1/2+x,1/2-y,z
loop_
_atom_site_type_symbol
_atom_site_label
_atom_site_fract_x
_atom_site_fract_y
_atom_site_fract_z
Si Si1 0.112300 0.820477 0.203972
Si Si2 0.124178 0.393043 0.199219
Si Si3 0.946184 0.931965 0.706968
Si Si4 0.780063 0.192507 0.204970
Si Si5 0.054256 0.290577 0.789720
Si Si6 0.770480 0.567946 0.301026
Si Si7 0.943679 0.500000 0.292979
O O1 0.094756 0.887295 0.234439
O O2 0.165411 0.807927 0.275698
O O3 0.070882 0.775222 0.266114
O O4 0.115083 0.810664 0.000000
O O5 0.097397 0.334198 0.267652
O O6 0.172602 0.416576 0.286724
O O7 0.083334 0.443157 0.216294
O O8 0.137167 0.382819 0.000000
O O9 0.946675 0.932071 0.500000
O O10 0.000000 0.913036 0.765589
O O11 0.938355 0.000000 0.764624
O O12 0.750000 0.250000 0.272356
O O13 0.756482 0.126821 0.229820
O O14 0.783106 0.201067 0.000000
O O15 0.000000 0.305852 0.731066
O O16 0.053141 0.294144 0.000000
O O17 0.756924 0.564840 0.500000
O O18 0.762639 0.500000 0.227830
O O19 0.938220 0.500000 0.500000
O O20 0.000000 0.500000 0.251760
#
# Coordination Sequence:
#
# PCOD9490329 Si02
#       7
#    16  16  16  16  16  16   8
#     4  10  20  35  58  86 113 143 183 238 293 341
#     4  11  21  36  60  85 112 152 200 244 290 344
#     4   9  19  36  56  79 112 153 190 224 270 338
#     4  10  22  41  63  87 116 151 198 250 300 359
#     4   9  18  33  55  85 118 149 186 234 287 344
#     4  11  24  41  61  86 119 156 198 249 306 366
#     4  11  23  37  53  79 119 157 191 239 292 341
#
# _framework density 21.596215000000001
#
# number of rings (size 3 to 8) (size 9 to 14) (size 15 to 20)
#    0.000    1.923    0.769    3.462    0.000    7.385 
#    0.000    6.923    0.000    3.692    0.000    0.000 
#    0.000    0.000    0.000    0.000    0.000    0.000 
#
# Total GULP energy -290280.497016 kJ/mol
# GULP energy per Si atom -5582.317250 kJ/mol
# Density = 2.154706 g / cm^3
# Si number density = 21.596215 Si / 1000 Ang^3
#
#
#
# Elastic Constant Matrix: (Units=GPa)
#
#
# Indices 1 2 3 4 5 6 
#
# 1 68.4992 40.5759 -2.4629 0.0000 0.0000 0.0000
# 2 40.5759 113.9783 -4.3869 0.0000 0.0000 0.0000
# 3 -2.4629 -4.3869 27.6010 0.0000 0.0000 0.0000
# 4 0.0000 0.0000 0.0000 23.6121 0.0000 0.0000
# 5 0.0000 0.0000 0.0000 0.0000 9.3880 0.0000
# 6 0.0000 0.0000 0.0000 0.0000 0.0000 39.9971
#
#
#
# Elastic Compliance Matrix: (Units=1/GPa)
#
#
# Indices 1 2 3 4 5 6 
#
# 1 0.018510 -0.006566 0.000608 0.000000 0.000000 0.000000
# 2 -0.006566 0.011157 0.001187 0.000000 0.000000 0.000000
# 3 0.000608 0.001187 0.036474 0.000000 0.000000 0.000000
# 4 0.000000 0.000000 0.000000 0.042351 0.000000 0.000000
# 5 0.000000 0.000000 0.000000 0.000000 0.106519 0.000000
# 6 0.000000 0.000000 0.000000 0.000000 0.000000 0.025002
#
#
# Mechanical properties :
#
#
# Convention : Reuss Voigt Hill
#
# Bulk Modulus (GPa) = 17.66811 30.83672 24.25242
# Shear Modulus (GPa) = 18.62752 26.35627 22.49189
#
# Velocity S-wave (km/s) = 2.94008 3.49723 3.23069
# Velocity P-wave (km/s) = 4.44121 5.53328 5.01705
#
# Compressibility (1/GPa) = 0.05659914
#
# Stress axis : x y z
#
# Youngs Moduli (GPa) = 54.02470 89.63135 27.41710
#
# Poissons Ratio (x) = 0.58853 -0.01667
# Poissons Ratio (y) = 0.35473 -0.03255
# Poissons Ratio (z) = -0.03285 -0.10642
#
# Static dielectric constant tensor:
#      x y z
#    x 1.779170 0.000000 0.000000 
#    y 0.000000 1.885190 0.000000 
#    z 0.000000 0.000000 1.818290 
# 
# From -- ./inp_files/16447.got.cif
#   From: 2010.05.17/outbox.cif.g08.bks.cpg/sg65_9_cif.got.tgz:16447.got - 2010.06.03 17:01:31.
