data_PCOD9490003
_publ_section_title
;
Structure prediction by ZEFSAII (Michael W. Deem and Ramdas Pophale) SiO2 
 PCOD9490003
Probable space group: C M M M
;
_chemical_formula_sum "Si O2"
_cell_formula_units_Z 104
_cell_length_a 22.292629
_cell_length_b 8.794001
_cell_length_c 26.752836
_cell_angle_alpha 90.000000
_cell_angle_beta 90.000000
_cell_angle_gamma 90.000000
_cell_volume 5244.663469
_symmetry_space_group_name_H-M "C M M M"
_symmetry_group_IT_number 65
_symmetry_cell_setting 'orthorhombic'
loop_
_space_group_symop_operation_xyz
x,y,z
-x,-y,z
x,-y,-z
-x,y,-z
-x,-y,-z
x,y,-z
-x,y,z
x,-y,z
1/2+x,1/2+y,z
1/2-x,1/2-y,z
1/2+x,1/2-y,-z
1/2-x,1/2+y,-z
1/2-x,1/2-y,-z
1/2+x,1/2+y,-z
1/2-x,1/2+y,z
1/2+x,1/2-y,z
loop_
_atom_site_type_symbol
_atom_site_label
_atom_site_fract_x
_atom_site_fract_y
_atom_site_fract_z
Si Si1 0.377940 0.318780 0.292104
Si Si2 0.185882 0.818717 0.391394
Si Si3 0.500000 0.185802 0.841920
Si Si4 0.122031 0.315893 0.103156
Si Si5 0.317729 0.185427 0.000000
Si Si6 0.932963 0.321746 0.560294
Si Si7 0.000000 0.318208 0.276226
Si Si8 0.812992 0.318809 0.798555
O O1 0.382564 0.500000 0.289966
O O2 0.328537 0.278296 0.333552
O O3 0.441791 0.245823 0.303677
O O4 0.360768 0.250581 0.238858
O O5 0.250000 0.750000 0.407054
O O6 0.126141 0.761789 0.419664
O O7 0.189547 0.000000 0.395894
O O8 0.558738 0.235399 0.873130
O O9 0.500000 0.231130 0.783113
O O10 0.500000 0.000000 0.840825
O O11 0.117960 0.500000 0.100630
O O12 0.171192 0.276652 0.144832
O O13 0.145040 0.265144 0.049170
O O14 0.250000 0.250000 0.000000
O O15 0.313950 0.000000 0.000000
O O16 0.931535 0.314300 0.500000
O O17 0.929102 0.500000 0.574645
O O18 0.000000 0.265734 0.575571
O O19 0.000000 0.500000 0.276676
O O20 0.813574 0.500000 0.794214
O O21 0.750000 0.250000 0.783989
#
# Coordination Sequence:
#
# PCOD9490003 Si02
#       8
#    16  16   8  16   8  16   8  16
#     4  11  24  40  58  86 122 157 199 250 297 355
#     4  11  25  42  62  90 127 167 209 259 309 363
#     4   9  16  32  55  82 109 134 176 231 276 333
#     4   9  18  32  53  80 109 139 182 231 281 342
#     4  10  20  35  55  79 107 142 179 226 280 335
#     4   9  20  41  68  97 128 164 209 258 307 366
#     4  11  21  37  62  87 116 157 198 242 296 358
#     4  11  21  35  55  80 110 149 194 239 291 352
#
# _framework density 19.829681000000001
#
# number of rings (size 3 to 8) (size 9 to 14) (size 15 to 20)
#    0.000    1.846    1.538    3.000    1.077    4.923 
#    0.000    3.077    0.000    0.000    0.000    0.538 
#    0.000    0.000    0.000    0.000    0.000    0.000 
#
# Total GULP energy -290228.562791 kJ/mol
# GULP energy per Si atom -5581.318515 kJ/mol
# Density = 1.978455 g / cm^3
# Si number density = 19.829681 Si / 1000 Ang^3
#
#
#
# Elastic Constant Matrix: (Units=GPa)
#
#
# Indices 1 2 3 4 5 6 
#
# 1 149.8311 35.2680 27.7884 0.0000 0.0000 0.0000
# 2 35.2680 32.9697 25.0504 0.0000 0.0000 0.0000
# 3 27.7884 25.0504 57.4906 0.0000 0.0000 0.0000
# 4 0.0000 0.0000 0.0000 19.8420 0.0000 0.0000
# 5 0.0000 0.0000 0.0000 0.0000 29.8968 0.0000
# 6 0.0000 0.0000 0.0000 0.0000 0.0000 32.9358
#
#
#
# Elastic Compliance Matrix: (Units=1/GPa)
#
#
# Indices 1 2 3 4 5 6 
#
# 1 0.008922 -0.009369 -0.000230 0.000000 0.000000 0.000000
# 2 -0.009369 0.055181 -0.019515 0.000000 0.000000 0.000000
# 3 -0.000230 -0.019515 0.026009 0.000000 0.000000 0.000000
# 4 0.000000 0.000000 0.000000 0.050398 0.000000 0.000000
# 5 0.000000 0.000000 0.000000 0.000000 0.033448 0.000000
# 6 0.000000 0.000000 0.000000 0.000000 0.000000 0.030362
#
#
# Mechanical properties :
#
#
# Convention : Reuss Voigt Hill
#
# Bulk Modulus (GPa) = 31.36512 46.27833 38.82173
# Shear Modulus (GPa) = 18.30305 26.68056 22.49180
#
# Velocity S-wave (km/s) = 3.04141 3.67207 3.37152
# Velocity P-wave (km/s) = 5.30897 6.43174 5.89714
#
# Compressibility (1/GPa) = 0.03188255
#
# Stress axis : x y z
#
# Youngs Moduli (GPa) = 112.07899 18.12206 38.44847
#
# Poissons Ratio (x) = 0.16979 0.00885
# Poissons Ratio (y) = 1.05012 0.75034
# Poissons Ratio (z) = 0.02579 0.35366
#
# Static dielectric constant tensor:
#      x y z
#    x 1.701580 0.000000 0.000000 
#    y 0.000000 1.663850 0.000000 
#    z 0.000000 0.000000 1.701900 
# 
# From -- ./inp_files/75563.got.cif
#   From: 2010.05.17/outbox.cif.g08.bks.cpg/sg65_38_cif.got.tgz:75563.got - 2010.06.03 17:01:31.
