data_PCOD9490096
_publ_section_title
;
Structure prediction by ZEFSAII (Michael W. Deem and Ramdas Pophale) SiO2 
 PCOD9490096
Probable space group: C M M M
;
_chemical_formula_sum "Si O2"
_cell_formula_units_Z 88
_cell_length_a 14.776532
_cell_length_b 15.193460
_cell_length_c 19.697729
_cell_angle_alpha 90.000000
_cell_angle_beta 90.000000
_cell_angle_gamma 90.000000
_cell_volume 4422.271109
_symmetry_space_group_name_H-M "C M M M"
_symmetry_group_IT_number 65
_symmetry_cell_setting 'orthorhombic'
loop_
_space_group_symop_operation_xyz
x,y,z
-x,-y,z
x,-y,-z
-x,y,-z
-x,-y,-z
x,y,-z
-x,y,z
x,-y,z
1/2+x,1/2+y,z
1/2-x,1/2-y,z
1/2+x,1/2-y,-z
1/2-x,1/2+y,-z
1/2-x,1/2-y,-z
1/2+x,1/2+y,-z
1/2-x,1/2+y,z
1/2+x,1/2-y,z
loop_
_atom_site_type_symbol
_atom_site_label
_atom_site_fract_x
_atom_site_fract_y
_atom_site_fract_z
Si Si1 0.728083 0.150710 0.797783
Si Si2 0.104104 0.096655 0.123849
Si Si3 0.400160 0.096016 0.679784
Si Si4 0.500000 0.399412 0.582309
Si Si5 0.107103 0.706938 0.076038
Si Si6 0.858293 0.247994 0.420170
O O1 0.750000 0.250000 0.775091
O O2 0.821187 0.104176 0.817719
O O3 0.672789 0.105915 0.738567
O O4 0.666979 0.162271 0.865750
O O5 0.118383 0.186602 0.081625
O O6 0.000000 0.101507 0.148260
O O7 0.114240 0.000000 0.090345
O O8 0.500000 0.101682 0.711779
O O9 0.392785 0.172419 0.625218
O O10 0.390778 0.000000 0.647090
O O11 0.500000 0.500000 0.608154
O O12 0.500000 0.404938 0.500000
O O13 0.411304 0.341297 0.600896
O O14 0.000000 0.689297 0.085887
O O15 0.133048 0.679219 0.000000
O O16 0.878508 0.261053 0.500000
O O17 0.750000 0.250000 0.412625
#
# Coordination Sequence:
#
# PCOD9490096 Si02
#       6
#    16  16  16   8  16  16
#     4  10  20  35  56  80 109 149 191 242 292 355
#     4   9  18  32  51  77 108 140 179 235 298 355
#     4  11  23  38  59  86 116 155 199 243 295 356
#     4   9  18  36  63  93 125 161 201 246 300 362
#     4   9  18  33  54  79 105 140 187 236 294 356
#     4  10  21  39  63  93 125 159 199 248 301 360
#
# _framework density 19.899277999999999
#
# number of rings (size 3 to 8) (size 9 to 14) (size 15 to 20)
#    0.000    2.273    0.909    1.636    0.000    5.455 
#    0.000    4.545    0.000    2.727    0.000    6.364 
#    0.000    0.000    0.000    0.000    0.000    0.000 
#
# Total GULP energy -245388.731062 kJ/mol
# GULP energy per Si atom -5577.016615 kJ/mol
# Density = 1.985399 g / cm^3
# Si number density = 19.899278 Si / 1000 Ang^3
#
#
#
# Elastic Constant Matrix: (Units=GPa)
#
#
# Indices 1 2 3 4 5 6 
#
# 1 104.5490 41.8793 39.1562 0.0000 0.0000 0.0000
# 2 41.8793 116.7233 40.3933 0.0000 0.0000 0.0000
# 3 39.1562 40.3933 50.4908 0.0000 0.0000 0.0000
# 4 0.0000 0.0000 0.0000 -4.2641 0.0000 0.0000
# 5 0.0000 0.0000 0.0000 0.0000 -8.2819 0.0000
# 6 0.0000 0.0000 0.0000 0.0000 0.0000 16.5696
#
#
#
# Elastic Compliance Matrix: (Units=1/GPa)
#
#
# Indices 1 2 3 4 5 6 
#
# 1 0.013724 -0.001716 -0.009271 0.000000 0.000000 0.000000
# 2 -0.001716 0.012062 -0.008319 0.000000 0.000000 0.000000
# 3 -0.009271 -0.008319 0.033650 0.000000 0.000000 0.000000
# 4 0.000000 0.000000 0.000000 -0.234518 0.000000 0.000000
# 5 0.000000 0.000000 0.000000 0.000000 -0.120745 0.000000
# 6 0.000000 0.000000 0.000000 0.000000 0.000000 0.060352
#
#
# Mechanical properties :
#
#
# Convention : Reuss Voigt Hill
#
# Bulk Modulus (GPa) = 48.01792 57.18007 52.59900
# Shear Modulus (GPa) = -26.32640 10.82702 -7.74969
#
# Velocity S-wave (km/s) = -3.64123 2.33511 -1.97558
# Velocity P-wave (km/s) = 2.55045 6.00562 4.61369
#
# Compressibility (1/GPa) = 0.02082556
#
# Stress axis : x y z
#
# Youngs Moduli (GPa) = 72.86341 82.90669 29.71756
#
# Poissons Ratio (x) = 0.14227 0.27550
# Poissons Ratio (y) = 0.12503 0.24721
# Poissons Ratio (z) = 0.67548 0.68968
#
# Static dielectric constant tensor:
#      x y z
#    x 2.952910 0.000000 0.000000 
#    y 0.000000 1.714540 0.000000 
#    z 0.000000 0.000000 1.666400 
# 
# From -- ./inp_files/62458.got.cif
#   From: 2010.05.17/outbox.cif.g08.bks.cpg/sg65_32_cif.got.tgz:62458.got - 2010.06.03 17:01:31.
