data_PCOD9490299
_publ_section_title
;
Structure prediction by ZEFSAII (Michael W. Deem and Ramdas Pophale) SiO2 
 PCOD9490299
Probable space group: C M M M
;
_chemical_formula_sum "Si O2"
_cell_formula_units_Z 72
_cell_length_a 29.193068
_cell_length_b 7.765807
_cell_length_c 16.570493
_cell_angle_alpha 90.000000
_cell_angle_beta 90.000000
_cell_angle_gamma 90.000000
_cell_volume 3756.658883
_symmetry_space_group_name_H-M "C M M M"
_symmetry_group_IT_number 65
_symmetry_cell_setting 'orthorhombic'
loop_
_space_group_symop_operation_xyz
x,y,z
-x,-y,z
x,-y,-z
-x,y,-z
-x,-y,-z
x,y,-z
-x,y,z
x,-y,z
1/2+x,1/2+y,z
1/2-x,1/2-y,z
1/2+x,1/2-y,-z
1/2-x,1/2+y,-z
1/2-x,1/2-y,-z
1/2+x,1/2+y,-z
1/2-x,1/2+y,z
1/2+x,1/2-y,z
loop_
_atom_site_type_symbol
_atom_site_label
_atom_site_fract_x
_atom_site_fract_y
_atom_site_fract_z
Si Si1 0.947876 0.788725 0.500000
Si Si2 0.890372 0.199705 0.814644
Si Si3 0.300758 0.205393 0.905923
Si Si4 0.054992 0.500000 0.904273
Si Si5 0.303303 0.202424 0.500000
Si Si6 0.376781 0.294630 0.368147
O O1 0.918950 0.730613 0.422589
O O2 0.000000 0.731654 0.500000
O O3 0.947750 0.000000 0.500000
O O4 0.841333 0.205646 0.858372
O O5 0.923410 0.331093 0.861866
O O6 0.881207 0.265642 0.723440
O O7 0.906849 0.000000 0.813851
O O8 0.250000 0.250000 0.875443
O O9 0.307435 0.000000 0.901322
O O10 0.302604 0.257157 0.000000
O O11 0.000000 0.500000 0.896708
O O12 0.066819 0.500000 0.000000
O O13 0.250000 0.250000 0.500000
O O14 0.330960 0.262307 0.420254
O O15 0.306543 0.000000 0.500000
O O16 0.380673 0.500000 0.363313
#
# Coordination Sequence:
#
# PCOD9490299 Si02
#       6
#     8  16  16   8   8  16
#     4   8  14  30  57  83 110 144 182 232 294 352
#     4  11  23  40  65  92 126 169 212 267 324 381
#     4  10  20  35  57  87 122 158 200 252 311 374
#     4  11  26  46  66  91 127 169 217 276 337 399
#     4  11  22  36  60  86 123 174 211 251 306 368
#     4   9  20  37  57  86 122 156 202 253 302 365
#
# _framework density 19.165966999999998
#
# number of rings (size 3 to 8) (size 9 to 14) (size 15 to 20)
#    0.000    2.000    1.111    3.000    1.556    4.889 
#    0.000    3.333    0.000    1.333    0.000    0.000 
#    0.000    0.000    0.000    0.000    0.000    0.000 
#
# Total GULP energy -200917.748107 kJ/mol
# GULP energy per Si atom -5581.048559 kJ/mol
# Density = 1.912234 g / cm^3
# Si number density = 19.165967 Si / 1000 Ang^3
#
#
#
# Elastic Constant Matrix: (Units=GPa)
#
#
# Indices 1 2 3 4 5 6 
#
# 1 143.3818 27.7849 80.1156 0.0000 0.0000 0.0000
# 2 27.7849 76.3968 44.2531 0.0000 0.0000 0.0000
# 3 80.1156 44.2531 155.2404 0.0000 0.0000 0.0000
# 4 0.0000 0.0000 0.0000 22.9810 0.0000 0.0000
# 5 0.0000 0.0000 0.0000 0.0000 18.4737 0.0000
# 6 0.0000 0.0000 0.0000 0.0000 0.0000 23.8012
#
#
#
# Elastic Compliance Matrix: (Units=1/GPa)
#
#
# Indices 1 2 3 4 5 6 
#
# 1 0.009837 -0.000763 -0.004859 0.000000 0.000000 0.000000
# 2 -0.000763 0.015738 -0.004092 0.000000 0.000000 0.000000
# 3 -0.004859 -0.004092 0.010116 0.000000 0.000000 0.000000
# 4 0.000000 0.000000 0.000000 0.043514 0.000000 0.000000
# 5 0.000000 0.000000 0.000000 0.000000 0.054131 0.000000
# 6 0.000000 0.000000 0.000000 0.000000 0.000000 0.042015
#
#
# Mechanical properties :
#
#
# Convention : Reuss Voigt Hill
#
# Bulk Modulus (GPa) = 61.49497 75.48069 68.48783
# Shear Modulus (GPa) = 24.97492 27.90889 26.44190
#
# Velocity S-wave (km/s) = 3.61375 3.82012 3.71836
# Velocity P-wave (km/s) = 7.04041 7.67632 7.36523
#
# Compressibility (1/GPa) = 0.01626149
#
# Stress axis : x y z
#
# Youngs Moduli (GPa) = 101.65253 63.54210 98.85336
#
# Poissons Ratio (x) = 0.04848 0.48036
# Poissons Ratio (y) = 0.07756 0.40455
# Poissons Ratio (z) = 0.49396 0.26004
#
# Static dielectric constant tensor:
#      x y z
#    x 1.621410 0.000000 0.000000 
#    y 0.000000 1.698540 0.000000 
#    z 0.000000 0.000000 1.704280 
# 
# From -- ./inp_files/46554.got.cif
#   From: 2010.05.17/outbox.cif.g08.bks.cpg/sg65_24_cif.got.tgz:46554.got - 2010.06.03 17:01:31.
