data_PCOD9490126
_publ_section_title
;
Structure prediction by ZEFSAII (Michael W. Deem and Ramdas Pophale) SiO2 
 PCOD9490126
Probable space group: C M M M
;
_chemical_formula_sum "Si O2"
_cell_formula_units_Z 96
_cell_length_a 20.491719
_cell_length_b 13.997909
_cell_length_c 15.595962
_cell_angle_alpha 90.000000
_cell_angle_beta 90.000000
_cell_angle_gamma 90.000000
_cell_volume 4473.564733
_symmetry_space_group_name_H-M "C M M M"
_symmetry_group_IT_number 65
_symmetry_cell_setting 'orthorhombic'
loop_
_space_group_symop_operation_xyz
x,y,z
-x,-y,z
x,-y,-z
-x,y,-z
-x,-y,-z
x,y,-z
-x,y,z
x,-y,z
1/2+x,1/2+y,z
1/2-x,1/2-y,z
1/2+x,1/2-y,-z
1/2-x,1/2+y,-z
1/2-x,1/2-y,-z
1/2+x,1/2+y,-z
1/2-x,1/2+y,z
1/2+x,1/2-y,z
loop_
_atom_site_type_symbol
_atom_site_label
_atom_site_fract_x
_atom_site_fract_y
_atom_site_fract_z
Si Si1 0.424112 0.384517 0.594145
Si Si2 0.679516 0.385036 0.730710
Si Si3 0.928899 0.386314 0.646011
Si Si4 0.575267 0.888300 0.852493
Si Si5 0.826276 0.775977 0.093439
Si Si6 0.287699 0.116135 0.594513
O O1 0.404626 0.349425 0.500000
O O2 0.500000 0.365883 0.607669
O O3 0.416633 0.500000 0.591781
O O4 0.380243 0.351628 0.671670
O O5 0.680519 0.500000 0.736385
O O6 0.669320 0.343198 0.824273
O O7 0.743744 0.356401 0.676042
O O8 0.930607 0.500000 0.627621
O O9 0.923068 0.377715 0.748989
O O10 0.862225 0.350709 0.604531
O O11 0.000000 0.347818 0.618853
O O12 0.500000 0.868899 0.879211
O O13 0.627711 0.816259 0.891612
O O14 0.589429 0.000000 0.871823
O O15 0.750000 0.750000 0.090815
O O16 0.843532 0.817995 0.000000
O O17 0.261861 0.142634 0.500000
O O18 0.287953 0.000000 0.596216
#
# Coordination Sequence:
#
# PCOD9490126 Si02
#       6
#    16  16  16  16  16  16
#     4   8  14  27  51  83 114 144 183 229 274 325
#     4  10  20  35  56  81 114 156 196 236 286 347
#     4   8  14  26  47  76 108 143 183 228 286 354
#     4   9  19  39  67  93 116 149 198 256 312 360
#     4  11  25  41  58  85 118 154 199 249 306 372
#     4   9  16  26  46  79 115 152 195 239 285 341
#
# _framework density 21.459398
#
# number of rings (size 3 to 8) (size 9 to 14) (size 15 to 20)
#    0.000    2.833    0.000    3.000    0.000    6.000 
#    0.000    4.167    0.000    9.000    0.000    3.500 
#    0.000    0.000    0.000    0.000    0.000    0.667 
#
# Total GULP energy -268084.045627 kJ/mol
# GULP energy per Si atom -5585.084284 kJ/mol
# Density = 2.141056 g / cm^3
# Si number density = 21.459398 Si / 1000 Ang^3
#
#
#
# Elastic Constant Matrix: (Units=GPa)
#
#
# Indices 1 2 3 4 5 6 
#
# 1 126.6337 33.0729 87.0616 0.0000 0.0000 0.0000
# 2 33.0729 99.4842 51.8166 0.0000 0.0000 0.0000
# 3 87.0616 51.8166 163.6025 0.0000 0.0000 0.0000
# 4 0.0000 0.0000 0.0000 25.8417 0.0000 0.0000
# 5 0.0000 0.0000 0.0000 0.0000 -25.6278 0.0000
# 6 0.0000 0.0000 0.0000 0.0000 0.0000 8.4791
#
#
#
# Elastic Compliance Matrix: (Units=1/GPa)
#
#
# Indices 1 2 3 4 5 6 
#
# 1 0.012509 -0.000828 -0.006395 0.000000 0.000000 0.000000
# 2 -0.000828 0.012092 -0.003389 0.000000 0.000000 0.000000
# 3 -0.006395 -0.003389 0.010589 0.000000 0.000000 0.000000
# 4 0.000000 0.000000 0.000000 0.038697 0.000000 0.000000
# 5 0.000000 0.000000 0.000000 0.000000 -0.039020 0.000000
# 6 0.000000 0.000000 0.000000 0.000000 0.000000 0.117937
#
#
# Mechanical properties :
#
#
# Convention : Reuss Voigt Hill
#
# Bulk Modulus (GPa) = 71.59909 81.51364 76.55636
# Shear Modulus (GPa) = 27.98228 16.25654 22.11941
#
# Velocity S-wave (km/s) = 3.61496 2.75535 3.21402
# Velocity P-wave (km/s) = 7.13171 6.94191 7.03745
#
# Compressibility (1/GPa) = 0.01396666
#
# Stress axis : x y z
#
# Youngs Moduli (GPa) = 79.93967 82.69624 94.43929
#
# Poissons Ratio (x) = 0.06847 0.60391
# Poissons Ratio (y) = 0.06619 0.32009
# Poissons Ratio (z) = 0.51119 0.28029
#
# Static dielectric constant tensor:
#      x y z
#    x 1.778730 0.000000 0.000000 
#    y 0.000000 1.814260 0.000000 
#    z 0.000000 0.000000 1.770470 
# 
# From -- ./inp_files/44128.got.cif
#   From: 2010.05.17/outbox.cif.g08.bks.cpg/sg65_23_cif.got.tgz:44128.got - 2010.06.03 17:01:31.
