data_PCOD9490317
_publ_section_title
;
Structure prediction by ZEFSAII (Michael W. Deem and Ramdas Pophale) SiO2 
 PCOD9490317
Probable space group: C M M M
;
_chemical_formula_sum "Si O2"
_cell_formula_units_Z 64
_cell_length_a 22.917861
_cell_length_b 15.990390
_cell_length_c 9.289619
_cell_angle_alpha 90.000000
_cell_angle_beta 90.000000
_cell_angle_gamma 90.000000
_cell_volume 3404.325200
_symmetry_space_group_name_H-M "C M M M"
_symmetry_group_IT_number 65
_symmetry_cell_setting 'orthorhombic'
loop_
_space_group_symop_operation_xyz
x,y,z
-x,-y,z
x,-y,-z
-x,y,-z
-x,-y,-z
x,y,-z
-x,y,z
x,-y,z
1/2+x,1/2+y,z
1/2-x,1/2-y,z
1/2+x,1/2-y,-z
1/2-x,1/2+y,-z
1/2-x,1/2-y,-z
1/2+x,1/2+y,-z
1/2-x,1/2+y,z
1/2+x,1/2-y,z
loop_
_atom_site_type_symbol
_atom_site_label
_atom_site_fract_x
_atom_site_fract_y
_atom_site_fract_z
Si Si1 0.740004 0.851084 0.334803
Si Si2 0.375625 0.169089 0.830839
Si Si3 0.644113 0.368203 0.167943
Si Si4 0.569417 0.500000 0.332544
Si Si5 0.500000 0.903131 0.825140
O O1 0.742021 0.879551 0.500000
O O2 0.750000 0.750000 0.335231
O O3 0.677748 0.867444 0.261209
O O4 0.793399 0.885288 0.240984
O O5 0.369815 0.269505 0.821863
O O6 0.439499 0.140144 0.780048
O O7 0.368798 0.146157 0.000000
O O8 0.596163 0.420203 0.252925
O O9 0.645248 0.390602 0.000000
O O10 0.500000 0.500000 0.323070
O O11 0.586549 0.500000 0.500000
O O12 0.500000 0.000000 0.782146
O O13 0.500000 0.899432 0.000000
#
# Coordination Sequence:
#
# PCOD9490317 Si02
#       5
#    16  16  16   8   8
#     4   9  17  32  55  81 111 145 184 228 279 334
#     4   9  18  33  57  84 111 145 189 235 280 332
#     4  10  20  35  58  84 111 145 189 235 279 329
#     4  11  25  41  55  79 117 152 185 228 281 341
#     4   9  18  34  55  82 113 144 180 231 283 327
#
# _framework density 18.799614999999999
#
# number of rings (size 3 to 8) (size 9 to 14) (size 15 to 20)
#    0.000    2.500    0.000    1.875    1.750    5.000 
#    2.250    0.625    0.000    0.750    0.000    0.000 
#    0.000    0.000    0.000    0.000    0.000    0.000 
#
# Total GULP energy -178609.566503 kJ/mol
# GULP energy per Si atom -5581.548953 kJ/mol
# Density = 1.875683 g / cm^3
# Si number density = 18.799615 Si / 1000 Ang^3
#
#
#
# Elastic Constant Matrix: (Units=GPa)
#
#
# Indices 1 2 3 4 5 6 
#
# 1 171.0527 38.4004 86.1789 0.0000 0.0000 0.0000
# 2 38.4004 30.2281 36.4309 0.0000 0.0000 0.0000
# 3 86.1789 36.4309 143.6374 0.0000 0.0000 0.0000
# 4 0.0000 0.0000 0.0000 15.2848 0.0000 0.0000
# 5 0.0000 0.0000 0.0000 0.0000 31.9044 0.0000
# 6 0.0000 0.0000 0.0000 0.0000 0.0000 -175.6484
#
#
#
# Elastic Compliance Matrix: (Units=1/GPa)
#
#
# Indices 1 2 3 4 5 6 
#
# 1 0.009407 -0.007414 -0.003763 0.000000 0.000000 0.000000
# 2 -0.007414 0.053490 -0.009118 0.000000 0.000000 0.000000
# 3 -0.003763 -0.009118 0.011533 0.000000 0.000000 0.000000
# 4 0.000000 0.000000 0.000000 0.065424 0.000000 0.000000
# 5 0.000000 0.000000 0.000000 0.000000 0.031344 0.000000
# 6 0.000000 0.000000 0.000000 0.000000 0.000000 -0.005693
#
#
# Mechanical properties :
#
#
# Convention : Reuss Voigt Hill
#
# Bulk Modulus (GPa) = 29.55313 74.10429 51.82871
# Shear Modulus (GPa) = 23.00176 -13.43132 4.78522
#
# Velocity S-wave (km/s) = 3.50168 -2.67581 1.59716
# Velocity P-wave (km/s) = 5.66597 5.47329 5.57047
#
# Compressibility (1/GPa) = 0.03383736
#
# Stress axis : x y z
#
# Youngs Moduli (GPa) = 106.30844 18.69513 86.71139
#
# Poissons Ratio (x) = 0.13861 0.32632
# Poissons Ratio (y) = 0.78820 0.79066
# Poissons Ratio (z) = 0.40006 0.17047
#
# Static dielectric constant tensor:
#      x y z
#    x 1.622080 0.000000 0.000000 
#    y 0.000000 1.669210 0.000000 
#    z 0.000000 0.000000 1.626610 
# 
# From -- ./inp_files/6778.got.cif
#   From: 2010.05.17/outbox.cif.g08.bks.cpg/sg65_4_cif.got.tgz:6778.got - 2010.06.03 17:01:31.
