data_PCOD9490630
_publ_section_title
;
Structure prediction by ZEFSAII (Michael W. Deem and Ramdas Pophale) SiO2 
 PCOD9490630
Probable space group: C M M M
;
_chemical_formula_sum "Si O2"
_cell_formula_units_Z 64
_cell_length_a 15.123206
_cell_length_b 8.562616
_cell_length_c 25.575122
_cell_angle_alpha 90.000000
_cell_angle_beta 90.000000
_cell_angle_gamma 90.000000
_cell_volume 3311.830108
_symmetry_space_group_name_H-M "C M M M"
_symmetry_group_IT_number 65
_symmetry_cell_setting 'orthorhombic'
loop_
_space_group_symop_operation_xyz
x,y,z
-x,-y,z
x,-y,-z
-x,y,-z
-x,-y,-z
x,y,-z
-x,y,z
x,-y,z
1/2+x,1/2+y,z
1/2-x,1/2-y,z
1/2+x,1/2-y,-z
1/2-x,1/2+y,-z
1/2-x,1/2-y,-z
1/2+x,1/2+y,-z
1/2-x,1/2+y,z
1/2+x,1/2-y,z
loop_
_atom_site_type_symbol
_atom_site_label
_atom_site_fract_x
_atom_site_fract_y
_atom_site_fract_z
Si Si1 0.850254 0.687961 0.171117
Si Si2 0.500000 0.687244 0.753762
Si Si3 0.500000 0.686878 0.366546
Si Si4 0.848694 0.687111 0.440599
Si Si5 0.149177 0.311214 0.056109
O O1 0.848963 0.500000 0.173156
O O2 0.750000 0.750000 0.176407
O O3 0.914282 0.752159 0.215413
O O4 0.885745 0.736271 0.113091
O O5 0.500000 0.500000 0.754509
O O6 0.500000 0.740723 0.693570
O O7 0.500000 0.500000 0.366693
O O8 0.584813 0.746679 0.398083
O O9 0.875776 0.732328 0.500000
O O10 0.848569 0.500000 0.438052
O O11 0.750000 0.750000 0.432372
O O12 0.149083 0.500000 0.055970
O O13 0.250000 0.250000 0.055813
O O14 0.109336 0.260765 0.000000
#
# Coordination Sequence:
#
# PCOD9490630 Si02
#       5
#    16   8   8  16  16
#     4  10  20  36  59  83 109 145 185 229 284 339
#     4  11  25  42  57  78 110 149 196 241 278 325
#     4  11  24  40  59  83 113 152 194 237 282 325
#     4  10  21  38  62  92 123 153 185 224 273 329
#     4   8  14  26  47  76 106 135 171 217 272 335
#
# _framework density 19.324662
#
# number of rings (size 3 to 8) (size 9 to 14) (size 15 to 20)
#    0.000    2.250    0.000    2.625    0.000    7.000 
#    0.000    0.625    0.000    3.750    0.000    0.000 
#    0.000    0.000    0.000    0.000    0.000    0.000 
#
# Total GULP energy -178547.034937 kJ/mol
# GULP energy per Si atom -5579.594842 kJ/mol
# Density = 1.928068 g / cm^3
# Si number density = 19.324662 Si / 1000 Ang^3
#
#
#
# Elastic Constant Matrix: (Units=GPa)
#
#
# Indices 1 2 3 4 5 6 
#
# 1 101.8748 28.2796 104.1699 0.0000 0.0000 0.0000
# 2 28.2796 43.6358 54.4676 0.0000 0.0000 0.0000
# 3 104.1699 54.4676 235.8540 0.0000 0.0000 0.0000
# 4 0.0000 0.0000 0.0000 26.7148 0.0000 0.0000
# 5 0.0000 0.0000 0.0000 0.0000********** 0.0000
# 6 0.0000 0.0000 0.0000 0.0000 0.0000 28.9862
#
#
#
# Elastic Compliance Matrix: (Units=1/GPa)
#
#
# Indices 1 2 3 4 5 6 
#
# 1 0.018086 -0.002459 -0.007420 0.000000 0.000000 0.000000
# 2 -0.002459 0.032533 -0.006427 0.000000 0.000000 0.000000
# 3 -0.007420 -0.006427 0.009001 0.000000 0.000000 0.000000
# 4 0.000000 0.000000 0.000000 0.037432 0.000000 0.000000
# 5 0.000000 0.000000 0.000000 0.000000 0.000003 0.000000
# 6 0.000000 0.000000 0.000000 0.000000 0.000000 0.034499
#
#
# Mechanical properties :
#
#
# Convention : Reuss Voigt Hill
#
# Bulk Modulus (GPa) = 37.02622 83.91097 60.46860
# Shear Modulus (GPa) = 28.87338 68256.36534 34142.61936
#
# Velocity S-wave (km/s) = 3.86958 188.14233 133.06486
# Velocity P-wave (km/s) = 6.25832 217.34818 153.75207
#
# Compressibility (1/GPa) = 0.02700789
#
# Stress axis : x y z
#
# Youngs Moduli (GPa) = 55.29181 30.73796 111.09399
#
# Poissons Ratio (x) = 0.07559 0.82433
# Poissons Ratio (y) = 0.13597 0.71400
# Poissons Ratio (z) = 0.41027 0.19755
#
# Static dielectric constant tensor:
#      x y z
#    x 1.640010 0.000000 0.000000 
#    y 0.000000 1.651320 0.000000 
#    z 0.000000 0.000000 1.705760 
# 
# From -- ./inp_files/66774.got.cif
#   From: 2010.05.17/outbox.cif.g08.bks.cpg/sg65_34_cif.got.tgz:66774.got - 2010.06.03 17:01:31.
