data_PCOD9490761
_publ_section_title
;
Structure prediction by ZEFSAII (Michael W. Deem and Ramdas Pophale) SiO2 
 PCOD9490761
Probable space group: C M M M
;
_chemical_formula_sum "Si O2"
_cell_formula_units_Z 66
_cell_length_a 18.798366
_cell_length_b 26.769619
_cell_length_c 7.398393
_cell_angle_alpha 90.000000
_cell_angle_beta 90.000000
_cell_angle_gamma 90.000000
_cell_volume 3723.057025
_symmetry_space_group_name_H-M "C M M M"
_symmetry_group_IT_number 65
_symmetry_cell_setting 'orthorhombic'
loop_
_space_group_symop_operation_xyz
x,y,z
-x,-y,z
x,-y,-z
-x,y,-z
-x,-y,-z
x,y,-z
-x,y,z
x,-y,z
1/2+x,1/2+y,z
1/2-x,1/2-y,z
1/2+x,1/2-y,-z
1/2-x,1/2+y,-z
1/2-x,1/2-y,-z
1/2+x,1/2+y,-z
1/2-x,1/2+y,z
1/2+x,1/2-y,z
loop_
_atom_site_type_symbol
_atom_site_label
_atom_site_fract_x
_atom_site_fract_y
_atom_site_fract_z
Si Si1 0.500000 0.500000 0.000000
Si Si2 0.918437 0.274007 0.279966
Si Si3 0.310218 0.859888 0.714680
Si Si4 0.618984 0.586527 0.000000
Si Si5 0.647319 0.668045 0.285558
Si Si6 0.215519 0.441948 0.000000
O O1 0.561721 0.456389 0.000000
O O2 0.917947 0.274128 0.500000
O O3 0.869985 0.320642 0.225181
O O4 0.883707 0.221295 0.226702
O O5 0.000000 0.277598 0.220721
O O6 0.317176 0.868811 0.500000
O O7 0.232322 0.835287 0.744694
O O8 0.311761 0.910855 0.827049
O O9 0.613600 0.622986 0.826983
O O10 0.698699 0.563877 0.000000
O O11 0.634697 0.662166 0.500000
O O12 0.196338 0.500000 0.000000
#
# Coordination Sequence:
#
# PCOD9490761 Si02
#       6
#     2  16  16   8  16   8
#     4  12  24  40  54  72 112 150 174 220 264 288
#     4   9  17  30  51  80 111 136 163 207 260 316
#     4   9  18  33  54  77 103 137 171 208 258 308
#     4  10  22  37  53  73 103 139 176 216 256 294
#     4   9  18  34  55  78 104 137 175 210 251 307
#     4  10  20  37  55  74  98 129 178 226 248 289
#
# _framework density 17.727367999999998
#
# number of rings (size 3 to 8) (size 9 to 14) (size 15 to 20)
#    0.000    2.667    0.606    0.727    1.697    4.364 
#    0.000    6.667    0.000    1.455    0.000    3.394 
#    0.000    0.000    0.000    0.000    0.000    0.000 
#
# Total GULP energy -183889.221968 kJ/mol
# GULP energy per Si atom -5572.400666 kJ/mol
# Density = 1.768702 g / cm^3
# Si number density = 17.727368 Si / 1000 Ang^3
#
#
#
# Elastic Constant Matrix: (Units=GPa)
#
#
# Indices 1 2 3 4 5 6 
#
# 1 98.0239 102.5637 46.5809 0.0000 0.0000 0.0000
# 2 102.5637 202.6601 62.1425 0.0000 0.0000 0.0000
# 3 46.5809 62.1425 75.2466 0.0000 0.0000 0.0000
# 4 0.0000 0.0000 0.0000 16.6095 0.0000 0.0000
# 5 0.0000 0.0000 0.0000 0.0000 3.1281 0.0000
# 6 0.0000 0.0000 0.0000 0.0000 0.0000 33.9390
#
#
#
# Elastic Compliance Matrix: (Units=1/GPa)
#
#
# Indices 1 2 3 4 5 6 
#
# 1 0.023785 -0.010073 -0.006405 0.000000 0.000000 0.000000
# 2 -0.010073 0.010874 -0.002744 0.000000 0.000000 0.000000
# 3 -0.006405 -0.002744 0.019521 0.000000 0.000000 0.000000
# 4 0.000000 0.000000 0.000000 0.060207 0.000000 0.000000
# 5 0.000000 0.000000 0.000000 0.000000 0.319682 0.000000
# 6 0.000000 0.000000 0.000000 0.000000 0.000000 0.029465
#
#
# Mechanical properties :
#
#
# Convention : Reuss Voigt Hill
#
# Bulk Modulus (GPa) = 63.55380 88.72276 76.13828
# Shear Modulus (GPa) = 9.85759 21.71156 15.78458
#
# Velocity S-wave (km/s) = 2.36066 3.50344 2.98721
# Velocity P-wave (km/s) = 6.58474 8.15614 7.41220
#
# Compressibility (1/GPa) = 0.01573470
#
# Stress axis : x y z
#
# Youngs Moduli (GPa) = 42.04319 91.96353 51.22692
#
# Poissons Ratio (x) = 0.92638 0.32810
# Poissons Ratio (y) = 0.42352 0.14059
# Poissons Ratio (z) = 0.26928 0.25238
#
# Static dielectric constant tensor:
#      x y z
#    x 1.591750 0.000000 0.000000 
#    y 0.000000 1.556150 0.000000 
#    z 0.000000 0.000000 1.644230 
# 
# From -- ./inp_files/9004.got.cif
#   From: 2010.05.17/outbox.cif.g08.bks.cpg/sg65_5_cif.got.tgz:9004.got - 2010.06.03 17:01:31.
