data_PCOD9490330
_publ_section_title
;
Structure prediction by ZEFSAII (Michael W. Deem and Ramdas Pophale) SiO2 
 PCOD9490330
Probable space group: C M M M
;
_chemical_formula_sum "Si O2"
_cell_formula_units_Z 72
_cell_length_a 8.423856
_cell_length_b 26.925836
_cell_length_c 14.815683
_cell_angle_alpha 90.000000
_cell_angle_beta 90.000000
_cell_angle_gamma 90.000000
_cell_volume 3360.483812
_symmetry_space_group_name_H-M "C M M M"
_symmetry_group_IT_number 65
_symmetry_cell_setting 'orthorhombic'
loop_
_space_group_symop_operation_xyz
x,y,z
-x,-y,z
x,-y,-z
-x,y,-z
-x,-y,-z
x,y,-z
-x,y,z
x,-y,z
1/2+x,1/2+y,z
1/2-x,1/2-y,z
1/2+x,1/2-y,-z
1/2-x,1/2+y,-z
1/2-x,1/2-y,-z
1/2+x,1/2+y,-z
1/2-x,1/2+y,z
1/2+x,1/2-y,z
loop_
_atom_site_type_symbol
_atom_site_label
_atom_site_fract_x
_atom_site_fract_y
_atom_site_fract_z
Si Si1 0.684084 0.904804 0.899411
Si Si2 0.194131 0.000000 0.603397
Si Si3 0.823381 0.799449 0.107060
Si Si4 0.189334 0.095630 0.292154
Si Si5 0.691515 0.694395 0.394571
O O1 0.500000 0.918733 0.895807
O O2 0.705224 0.845374 0.889537
O O3 0.773712 0.920997 0.810169
O O4 0.746088 0.918071 0.000000
O O5 0.252487 0.050744 0.647640
O O6 0.235646 0.000000 0.500000
O O7 0.000000 0.000000 0.610912
O O8 0.750000 0.750000 0.148212
O O9 0.000000 0.811456 0.143495
O O10 0.843654 0.790565 0.000000
O O11 0.247170 0.149702 0.328140
O O12 0.000000 0.097817 0.302026
O O13 0.736864 0.684003 0.500000
O O14 0.500000 0.695352 0.391595
O O15 0.750000 0.750000 0.372178
#
# Coordination Sequence:
#
# PCOD9490330 Si02
#       5
#    16   8  16  16  16
#     4  10  21  36  52  72 104 147 191 234 279 328
#     4   9  18  36  64  93 116 140 177 229 286 341
#     4   9  16  27  45  69  98 135 181 231 279 326
#     4  10  20  35  58  86 113 144 185 232 281 335
#     4   9  18  33  54  82 115 148 181 220 272 335
#
# _framework density 21.425487
#
# number of rings (size 3 to 8) (size 9 to 14) (size 15 to 20)
#    0.000    2.556    0.000    2.000    0.000    8.444 
#    0.000    3.333    0.000    6.000    0.000    0.000 
#    0.000    0.000    0.000    0.000    0.000    0.000 
#
# Total GULP energy -200629.848190 kJ/mol
# GULP energy per Si atom -5573.051339 kJ/mol
# Density = 2.137672 g / cm^3
# Si number density = 21.425487 Si / 1000 Ang^3
#
#
#
# Elastic Constant Matrix: (Units=GPa)
#
#
# Indices 1 2 3 4 5 6 
#
# 1 15.5180 7.5845 -1.3486 0.0000 0.0000 0.0000
# 2 7.5845 87.9309 64.2157 0.0000 0.0000 0.0000
# 3 -1.3486 64.2157 137.4033 0.0000 0.0000 0.0000
# 4 0.0000 0.0000 0.0000 0.5852 0.0000 0.0000
# 5 0.0000 0.0000 0.0000 0.0000 18.0712 0.0000
# 6 0.0000 0.0000 0.0000 0.0000 0.0000 9.6916
#
#
#
# Elastic Compliance Matrix: (Units=1/GPa)
#
#
# Indices 1 2 3 4 5 6 
#
# 1 0.069736 -0.009891 0.005307 0.000000 0.000000 0.000000
# 2 -0.009891 0.018668 -0.008822 0.000000 0.000000 0.000000
# 3 0.005307 -0.008822 0.011453 0.000000 0.000000 0.000000
# 4 0.000000 0.000000 0.000000 1.708860 0.000000 0.000000
# 5 0.000000 0.000000 0.000000 0.000000 0.055337 0.000000
# 6 0.000000 0.000000 0.000000 0.000000 0.000000 0.103182
#
#
# Mechanical properties :
#
#
# Convention : Reuss Voigt Hill
#
# Bulk Modulus (GPa) = 13.68993 42.41727 28.05360
# Shear Modulus (GPa) = 2.47722 17.02964 9.75343
#
# Velocity S-wave (km/s) = 1.07643 2.82233 2.13592
# Velocity P-wave (km/s) = 2.81929 5.51918 4.38233
#
# Compressibility (1/GPa) = 0.07304637
#
# Stress axis : x y z
#
# Youngs Moduli (GPa) = 14.33970 53.56727 87.31534
#
# Poissons Ratio (x) = 0.52982 -0.46337
# Poissons Ratio (y) = 0.14183 0.77027
# Poissons Ratio (z) = -0.07610 0.47255
#
# Static dielectric constant tensor:
#      x y z
#    x 1.792920 0.000000 0.000000 
#    y 0.000000 1.789100 0.000000 
#    z 0.000000 0.000000 1.835440 
# 
# From -- ./inp_files/36585.got.cif
#   From: 2010.05.17/outbox.cif.g08.bks.cpg/sg65_19_cif.got.tgz:36585.got - 2010.06.03 17:01:31.
