data_PCOD9490426
_publ_section_title
;
Structure prediction by ZEFSAII (Michael W. Deem and Ramdas Pophale) SiO2 
 PCOD9490426
Probable space group: C M M M
;
_chemical_formula_sum "Si O2"
_cell_formula_units_Z 64
_cell_length_a 23.427226
_cell_length_b 9.979290
_cell_length_c 16.379121
_cell_angle_alpha 90.000000
_cell_angle_beta 90.000000
_cell_angle_gamma 90.000000
_cell_volume 3829.226907
_symmetry_space_group_name_H-M "C M M M"
_symmetry_group_IT_number 65
_symmetry_cell_setting 'orthorhombic'
loop_
_space_group_symop_operation_xyz
x,y,z
-x,-y,z
x,-y,-z
-x,y,-z
-x,-y,-z
x,y,-z
-x,y,z
x,-y,z
1/2+x,1/2+y,z
1/2-x,1/2-y,z
1/2+x,1/2-y,-z
1/2-x,1/2+y,-z
1/2-x,1/2-y,-z
1/2+x,1/2+y,-z
1/2-x,1/2+y,z
1/2+x,1/2-y,z
loop_
_atom_site_type_symbol
_atom_site_label
_atom_site_fract_x
_atom_site_fract_y
_atom_site_fract_z
Si Si1 0.569026 0.843730 0.000000
Si Si2 0.682762 0.500000 0.595946
Si Si3 0.116905 0.247246 0.671812
Si Si4 0.431063 0.659929 0.155706
Si Si5 0.319206 0.000000 0.401485
Si Si6 0.500000 0.843894 0.402601
O O1 0.584419 0.754455 0.079053
O O2 0.500000 0.850814 0.000000
O O3 0.589207 0.000000 0.000000
O O4 0.671049 0.500000 0.500000
O O5 0.652790 0.626002 0.636079
O O6 0.750955 0.500000 0.605696
O O7 0.102136 0.216095 0.765696
O O8 0.153597 0.375153 0.645374
O O9 0.055917 0.269603 0.629049
O O10 0.500000 0.671378 0.168477
O O11 0.419716 0.500000 0.143195
O O12 0.333315 0.000000 0.500000
O O13 0.500000 0.846138 0.500000
O O14 0.500000 0.000000 0.373885
#
# Coordination Sequence:
#
# PCOD9490426 Si02
#       6
#     8   8  16  16   8   8
#     4   9  19  33  57  85 116 153 190 228 280 351
#     4  11  24  41  59  82 113 155 212 259 288 332
#     4  12  22  37  59  86 117 156 196 243 298 354
#     4  10  20  36  54  84 122 155 186 231 293 359
#     4  11  24  41  59  80 113 161 210 257 296 330
#     4  11  22  35  53  82 119 156 191 235 304 365
#
# _framework density 16.713557000000002
#
# number of rings (size 3 to 8) (size 9 to 14) (size 15 to 20)
#    0.000    1.250    3.750    3.375    1.750    4.000 
#    0.000    1.250    0.000    0.000    0.000    5.250 
#    0.000    0.000    0.000    0.000    0.000    0.000 
#
# Total GULP energy -178515.789206 kJ/mol
# GULP energy per Si atom -5578.618413 kJ/mol
# Density = 1.667552 g / cm^3
# Si number density = 16.713557 Si / 1000 Ang^3
#
#
#
# Elastic Constant Matrix: (Units=GPa)
#
#
# Indices 1 2 3 4 5 6 
#
# 1 80.1062 61.2523 66.0710 0.0000 0.0000 0.0000
# 2 61.2523 188.0349 100.6100 0.0000 0.0000 0.0000
# 3 66.0710 100.6100 169.7858 0.0000 0.0000 0.0000
# 4 0.0000 0.0000 0.0000 31.0455 0.0000 0.0000
# 5 0.0000 0.0000 0.0000 0.0000 123.6996 0.0000
# 6 0.0000 0.0000 0.0000 0.0000 0.0000 44.5625
#
#
#
# Elastic Compliance Matrix: (Units=1/GPa)
#
#
# Indices 1 2 3 4 5 6 
#
# 1 0.019766 -0.003402 -0.005676 0.000000 0.000000 0.000000
# 2 -0.003402 0.008373 -0.003638 0.000000 0.000000 0.000000
# 3 -0.005676 -0.003638 0.010254 0.000000 0.000000 0.000000
# 4 0.000000 0.000000 0.000000 0.032211 0.000000 0.000000
# 5 0.000000 0.000000 0.000000 0.000000 0.008084 0.000000
# 6 0.000000 0.000000 0.000000 0.000000 0.000000 0.022440
#
#
# Mechanical properties :
#
#
# Convention : Reuss Voigt Hill
#
# Bulk Modulus (GPa) = 77.14860 99.31039 88.22950
# Shear Modulus (GPa) = 38.20303 53.86108 46.03205
#
# Velocity S-wave (km/s) = 4.78614 5.68295 5.25372
# Velocity P-wave (km/s) = 8.76369 10.12963 9.47132
#
# Compressibility (1/GPa) = 0.01296200
#
# Stress axis : x y z
#
# Youngs Moduli (GPa) = 50.59158 119.43703 97.52194
#
# Poissons Ratio (x) = 0.40630 0.55354
# Poissons Ratio (y) = 0.17210 0.35474
# Poissons Ratio (z) = 0.28716 0.43446
#
# Static dielectric constant tensor:
#      x y z
#    x 1.533430 0.000000 0.000000 
#    y 0.000000 1.538090 0.000000 
#    z 0.000000 0.000000 1.552760 
# 
# From -- ./inp_files/36089.got.cif
#   From: 2010.05.17/outbox.cif.g08.bks.cpg/sg65_19_cif.got.tgz:36089.got - 2010.06.03 17:01:31.
