data_PCOD9490992
_publ_section_title
;
Structure prediction by ZEFSAII (Michael W. Deem and Ramdas Pophale) SiO2 
 PCOD9490992
Probable space group: C M M M
;
_chemical_formula_sum "Si O2"
_cell_formula_units_Z 56
_cell_length_a 17.429190
_cell_length_b 10.077295
_cell_length_c 16.735464
_cell_angle_alpha 90.000000
_cell_angle_beta 90.000000
_cell_angle_gamma 90.000000
_cell_volume 2939.401655
_symmetry_space_group_name_H-M "C M M M"
_symmetry_group_IT_number 65
_symmetry_cell_setting 'orthorhombic'
loop_
_space_group_symop_operation_xyz
x,y,z
-x,-y,z
x,-y,-z
-x,y,-z
-x,-y,-z
x,y,-z
-x,y,z
x,-y,z
1/2+x,1/2+y,z
1/2-x,1/2-y,z
1/2+x,1/2-y,-z
1/2-x,1/2+y,-z
1/2-x,1/2-y,-z
1/2+x,1/2+y,-z
1/2-x,1/2+y,z
1/2+x,1/2-y,z
loop_
_atom_site_type_symbol
_atom_site_label
_atom_site_fract_x
_atom_site_fract_y
_atom_site_fract_z
Si Si1 0.407194 0.844632 0.146935
Si Si2 0.341266 0.244058 0.317101
Si Si3 0.906533 0.155201 0.000000
Si Si4 0.912609 0.500000 0.594712
Si Si5 0.592427 0.500000 0.405651
O O1 0.500000 0.844007 0.149431
O O2 0.375325 0.789648 0.230224
O O3 0.383234 0.743102 0.076819
O O4 0.384196 0.000000 0.134558
O O5 0.250000 0.250000 0.311772
O O6 0.368099 0.126264 0.374076
O O7 0.375326 0.374637 0.357834
O O8 0.000000 0.151288 0.000000
O O9 0.881069 0.000000 0.000000
O O10 0.916351 0.500000 0.500000
O O11 0.000000 0.500000 0.626890
O O12 0.500000 0.500000 0.403148
O O13 0.614752 0.500000 0.500000
#
# Coordination Sequence:
#
# PCOD9490992 Si02
#       5
#    16  16   8   8   8
#     4  10  20  38  64  90 122 165 213 257 303 368
#     4  12  25  40  62  94 131 168 207 259 320 377
#     4   9  19  35  60  97 128 157 203 259 312 365
#     4  11  23  43  69  92 119 164 221 267 308 375
#     4  11  25  43  63  90 125 166 213 265 320 373
#
# _framework density 19.051497000000001
#
# number of rings (size 3 to 8) (size 9 to 14) (size 15 to 20)
#    0.000    1.286    1.429    4.714    2.000    7.429 
#    0.000    0.714    0.000    0.000    0.000    0.000 
#    0.000    0.000    0.000    0.000    0.000    0.000 
#
# Total GULP energy -156432.796989 kJ/mol
# GULP energy per Si atom -5586.885607 kJ/mol
# Density = 1.900813 g / cm^3
# Si number density = 19.051497 Si / 1000 Ang^3
#
#
#
# Elastic Constant Matrix: (Units=GPa)
#
#
# Indices 1 2 3 4 5 6 
#
# 1 54.7846 47.7790 38.9582 0.0000 0.0000 0.0000
# 2 47.7790 230.4850 107.3403 0.0000 0.0000 0.0000
# 3 38.9582 107.3403 160.6851 0.0000 0.0000 0.0000
# 4 0.0000 0.0000 0.0000 42.0557 0.0000 0.0000
# 5 0.0000 0.0000 0.0000 0.0000 17.4814 0.0000
# 6 0.0000 0.0000 0.0000 0.0000 0.0000 22.5289
#
#
#
# Elastic Compliance Matrix: (Units=1/GPa)
#
#
# Indices 1 2 3 4 5 6 
#
# 1 0.023608 -0.003234 -0.003563 0.000000 0.000000 0.000000
# 2 -0.003234 0.006741 -0.003719 0.000000 0.000000 0.000000
# 3 -0.003563 -0.003719 0.009572 0.000000 0.000000 0.000000
# 4 0.000000 0.000000 0.000000 0.023778 0.000000 0.000000
# 5 0.000000 0.000000 0.000000 0.000000 0.057204 0.000000
# 6 0.000000 0.000000 0.000000 0.000000 0.000000 0.044387
#
#
# Mechanical properties :
#
#
# Convention : Reuss Voigt Hill
#
# Bulk Modulus (GPa) = 52.94496 92.67887 72.81191
# Shear Modulus (GPa) = 25.95801 33.20502 29.58152
#
# Velocity S-wave (km/s) = 3.69523 4.17935 3.94472
# Velocity P-wave (km/s) = 6.78654 8.48772 7.68435
#
# Compressibility (1/GPa) = 0.01888754
#
# Stress axis : x y z
#
# Youngs Moduli (GPa) = 42.35868 148.34203 104.47593
#
# Poissons Ratio (x) = 0.47981 0.37225
# Poissons Ratio (y) = 0.13701 0.38855
# Poissons Ratio (z) = 0.15093 0.55169
#
# Static dielectric constant tensor:
#      x y z
#    x 1.633000 0.000000 0.000000 
#    y 0.000000 1.616240 0.000000 
#    z 0.000000 0.000000 1.649780 
# 
# From -- ./inp_files/53960.got.cif
#   From: 2010.05.17/outbox.cif.g08.bks.cpg/sg65_27_cif.got.tgz:53960.got - 2010.06.03 17:01:31.
