data_PCOD9490313
_publ_section_title
;
Structure prediction by ZEFSAII (Michael W. Deem and Ramdas Pophale) SiO2 
 PCOD9490313
Probable space group: C M M M
;
_chemical_formula_sum "Si O2"
_cell_formula_units_Z 112
_cell_length_a 14.787353
_cell_length_b 16.132570
_cell_length_c 24.063128
_cell_angle_alpha 90.000000
_cell_angle_beta 90.000000
_cell_angle_gamma 90.000000
_cell_volume 5740.451867
_symmetry_space_group_name_H-M "C M M M"
_symmetry_group_IT_number 65
_symmetry_cell_setting 'orthorhombic'
loop_
_space_group_symop_operation_xyz
x,y,z
-x,-y,z
x,-y,-z
-x,y,-z
-x,-y,-z
x,y,-z
-x,y,z
x,-y,z
1/2+x,1/2+y,z
1/2-x,1/2-y,z
1/2+x,1/2-y,-z
1/2-x,1/2+y,-z
1/2-x,1/2-y,-z
1/2+x,1/2+y,-z
1/2-x,1/2+y,z
1/2+x,1/2-y,z
loop_
_atom_site_type_symbol
_atom_site_label
_atom_site_fract_x
_atom_site_fract_y
_atom_site_fract_z
Si Si1 0.392553 0.594673 0.645546
Si Si2 0.401995 0.860619 0.937389
Si Si3 0.201148 0.907400 0.062031
Si Si4 0.609612 0.744117 0.728419
Si Si5 0.891218 0.595313 0.340996
Si Si6 0.395854 0.290522 0.852881
Si Si7 0.742808 0.150147 0.435350
O O1 0.500000 0.603133 0.635117
O O2 0.376519 0.500000 0.665173
O O3 0.365717 0.666338 0.689311
O O4 0.333168 0.611265 0.591117
O O5 0.500000 0.903289 0.932128
O O6 0.309726 0.910510 0.933663
O O7 0.397537 0.791930 0.890002
O O8 0.400907 0.823628 0.000000
O O9 0.162648 0.853832 0.111677
O O10 0.164256 0.000000 0.064838
O O11 0.180216 0.873333 0.000000
O O12 0.500000 0.746492 0.729892
O O13 0.637454 0.832405 0.702195
O O14 0.639396 0.728472 0.791348
O O15 0.870284 0.500000 0.324448
O O16 0.839394 0.616791 0.397838
O O17 0.000000 0.600988 0.347890
O O18 0.500000 0.320471 0.848318
O O19 0.732208 0.129523 0.500000
O O20 0.750000 0.250000 0.430196
#
# Coordination Sequence:
#
# PCOD9490313 Si02
#       7
#    16  16  16  16  16  16  16
#     4  10  21  39  62  85 115 158 201 244 295 346
#     4   9  18  35  58  80 105 145 195 241 287 337
#     4  10  21  36  54  82 120 154 188 237 295 353
#     4   9  19  38  60  84 116 153 198 247 291 347
#     4  10  21  40  65  89 118 157 197 244 304 361
#     4  10  20  35  58  83 110 148 191 237 289 346
#     4  11  23  39  62  91 123 159 198 244 297 356
#
# _framework density 19.510660000000001
#
# number of rings (size 3 to 8) (size 9 to 14) (size 15 to 20)
#    0.000    2.143    1.429    1.286    0.000    4.857 
#    5.143    7.143    0.000    2.571    0.000    0.000 
#    0.000    0.000    0.000    0.000    0.000    0.000 
#
# Total GULP energy -312358.392904 kJ/mol
# GULP energy per Si atom -5577.828445 kJ/mol
# Density = 1.946625 g / cm^3
# Si number density = 19.510660 Si / 1000 Ang^3
#
#
#
# Elastic Constant Matrix: (Units=GPa)
#
#
# Indices 1 2 3 4 5 6 
#
# 1 75.4617 40.5687 50.3584 0.0000 0.0000 0.0000
# 2 40.5687 136.2302 82.0582 0.0000 0.0000 0.0000
# 3 50.3584 82.0582 167.4561 0.0000 0.0000 0.0000
# 4 0.0000 0.0000 0.0000 18.3457 0.0000 0.0000
# 5 0.0000 0.0000 0.0000 0.0000 53.0082 0.0000
# 6 0.0000 0.0000 0.0000 0.0000 0.0000 105.2697
#
#
#
# Elastic Compliance Matrix: (Units=1/GPa)
#
#
# Indices 1 2 3 4 5 6 
#
# 1 0.017335 -0.002869 -0.003807 0.000000 0.000000 0.000000
# 2 -0.002869 0.010889 -0.004473 0.000000 0.000000 0.000000
# 3 -0.003807 -0.004473 0.009309 0.000000 0.000000 0.000000
# 4 0.000000 0.000000 0.000000 0.054509 0.000000 0.000000
# 5 0.000000 0.000000 0.000000 0.000000 0.018865 0.000000
# 6 0.000000 0.000000 0.000000 0.000000 0.000000 0.009499
#
#
# Mechanical properties :
#
#
# Convention : Reuss Voigt Hill
#
# Bulk Modulus (GPa) = 65.64289 80.56874 73.10582
# Shear Modulus (GPa) = 33.83343 49.06889 41.45116
#
# Velocity S-wave (km/s) = 4.16877 5.02040 4.61427
# Velocity P-wave (km/s) = 7.54249 8.65969 8.12033
#
# Compressibility (1/GPa) = 0.01523394
#
# Stress axis : x y z
#
# Youngs Moduli (GPa) = 57.68747 91.83243 107.42661
#
# Poissons Ratio (x) = 0.26347 0.40899
# Poissons Ratio (y) = 0.16551 0.48055
# Poissons Ratio (z) = 0.21962 0.41080
#
# Static dielectric constant tensor:
#      x y z
#    x 1.711860 0.000000 0.000000 
#    y 0.000000 1.679840 0.000000 
#    z 0.000000 0.000000 1.646530 
# 
# From -- ./inp_files/70013.got.cif
#   From: 2010.05.17/outbox.cif.g08.bks.cpg/sg65_36_cif.got.tgz:70013.got - 2010.06.03 17:01:31.
