data_PCOD9490264
_publ_section_title
;
Structure prediction by ZEFSAII (Michael W. Deem and Ramdas Pophale) SiO2 
 PCOD9490264
Probable space group: C M M M
;
_chemical_formula_sum "Si O2"
_cell_formula_units_Z 120
_cell_length_a 25.605069
_cell_length_b 24.709355
_cell_length_c 9.820618
_cell_angle_alpha 90.000000
_cell_angle_beta 90.000000
_cell_angle_gamma 90.000000
_cell_volume 6213.355143
_symmetry_space_group_name_H-M "C M M M"
_symmetry_group_IT_number 65
_symmetry_cell_setting 'orthorhombic'
loop_
_space_group_symop_operation_xyz
x,y,z
-x,-y,z
x,-y,-z
-x,y,-z
-x,-y,-z
x,y,-z
-x,y,z
x,-y,z
1/2+x,1/2+y,z
1/2-x,1/2-y,z
1/2+x,1/2-y,-z
1/2-x,1/2+y,-z
1/2-x,1/2-y,-z
1/2+x,1/2+y,-z
1/2-x,1/2+y,z
1/2+x,1/2-y,z
loop_
_atom_site_type_symbol
_atom_site_label
_atom_site_fract_x
_atom_site_fract_y
_atom_site_fract_z
Si Si1 0.743608 0.435571 0.344281
Si Si2 0.917750 0.737888 0.657425
Si Si3 0.557723 0.135889 0.839194
Si Si4 0.940169 0.139671 0.247771
Si Si5 0.437552 0.560954 0.500000
Si Si6 0.170643 0.123942 0.152918
Si Si7 0.694448 0.721668 0.653053
Si Si8 0.158964 0.435027 0.160214
O O1 0.742211 0.414926 0.500000
O O2 0.747599 0.500000 0.351495
O O3 0.693176 0.420979 0.254732
O O4 0.794203 0.416266 0.258778
O O5 0.932386 0.729442 0.500000
O O6 0.938367 0.690737 0.753057
O O7 0.935767 0.798144 0.701282
O O8 0.854714 0.738579 0.668241
O O9 0.500000 0.111546 0.816669
O O10 0.605292 0.095803 0.806100
O O11 0.561946 0.148822 0.000000
O O12 0.927058 0.098367 0.370262
O O13 0.891996 0.128741 0.148801
O O14 0.000000 0.130462 0.202082
O O15 0.414387 0.500000 0.500000
O O16 0.500000 0.554508 0.500000
O O17 0.190092 0.178198 0.227884
O O18 0.190706 0.117151 0.000000
O O19 0.687584 0.697597 0.500000
O O20 0.750000 0.750000 0.657829
O O21 0.152649 0.500000 0.175116
O O22 0.171260 0.424980 0.000000
#
# Coordination Sequence:
#
# PCOD9490264 Si02
#       8
#    16  16  16  16   8  16  16  16
#     4  10  22  40  63  88 115 151 196 246 298 357
#     4  10  20  35  57  84 116 157 200 243 293 349
#     4  10  22  37  55  86 124 160 201 246 292 352
#     4  10  21  38  60  85 118 158 200 244 294 355
#     4   9  18  34  60  90 113 142 193 253 299 342
#     4  11  24  38  57  87 120 154 193 240 296 359
#     4   9  20  38  58  82 113 153 198 245 295 351
#     4   9  19  38  62  86 116 156 200 249 306 359
#
# _framework density 19.313236
#
# number of rings (size 3 to 8) (size 9 to 14) (size 15 to 20)
#    0.000    2.200    0.667    1.200    3.733    5.600 
#    0.000    1.333    0.000    0.000    0.000    5.600 
#    0.000    0.000    0.000    0.000    0.000    0.000 
#
# Total GULP energy -334599.782902 kJ/mol
# GULP energy per Si atom -5576.663048 kJ/mol
# Density = 1.926928 g / cm^3
# Si number density = 19.313236 Si / 1000 Ang^3
#
#
#
# Elastic Constant Matrix: (Units=GPa)
#
#
# Indices 1 2 3 4 5 6 
#
# 1 133.4842 30.3647 50.2949 0.0000 0.0000 0.0000
# 2 30.3647 48.7843 32.3277 0.0000 0.0000 0.0000
# 3 50.2949 32.3277 113.3403 0.0000 0.0000 0.0000
# 4 0.0000 0.0000 0.0000 22.5318 0.0000 0.0000
# 5 0.0000 0.0000 0.0000 0.0000 918.0731 0.0000
# 6 0.0000 0.0000 0.0000 0.0000 0.0000 22.2097
#
#
#
# Elastic Compliance Matrix: (Units=1/GPa)
#
#
# Indices 1 2 3 4 5 6 
#
# 1 0.009553 -0.003868 -0.003136 0.000000 0.000000 0.000000
# 2 -0.003868 0.026842 -0.005940 0.000000 0.000000 0.000000
# 3 -0.003136 -0.005940 0.011909 0.000000 0.000000 0.000000
# 4 0.000000 0.000000 0.000000 0.044382 0.000000 0.000000
# 5 0.000000 0.000000 0.000000 0.000000 0.001089 0.000000
# 6 0.000000 0.000000 0.000000 0.000000 0.000000 0.045025
#
#
# Mechanical properties :
#
#
# Convention : Reuss Voigt Hill
#
# Bulk Modulus (GPa) = 44.60983 57.95370 51.28176
# Shear Modulus (GPa) = 29.04295 204.73772 116.89033
#
# Velocity S-wave (km/s) = 3.88207 10.30724 7.78812
# Velocity P-wave (km/s) = 6.57588 13.10437 10.36742
#
# Compressibility (1/GPa) = 0.02241659
#
# Stress axis : x y z
#
# Youngs Moduli (GPa) = 104.67964 37.25521 83.97248
#
# Poissons Ratio (x) = 0.14410 0.26333
# Poissons Ratio (y) = 0.40490 0.49876
# Poissons Ratio (z) = 0.32826 0.22128
#
# Static dielectric constant tensor:
#      x y z
#    x 1.706550 0.000000 0.000000 
#    y 0.000000 1.670020 0.000000 
#    z 0.000000 0.000000 1.672110 
# 
# From -- ./inp_files/17054.got.cif
#   From: 2010.05.17/outbox.cif.g08.bks.cpg/sg65_9_cif.got.tgz:17054.got - 2010.06.03 17:01:31.
