data_PCOD9490139
_publ_section_title
;
Structure prediction by ZEFSAII (Michael W. Deem and Ramdas Pophale) SiO2 
 PCOD9490139
Probable space group: C M M M
;
_chemical_formula_sum "Si O2"
_cell_formula_units_Z 64
_cell_length_a 8.761070
_cell_length_b 18.647018
_cell_length_c 21.132620
_cell_angle_alpha 90.000000
_cell_angle_beta 90.000000
_cell_angle_gamma 90.000000
_cell_volume 3452.390271
_symmetry_space_group_name_H-M "C M M M"
_symmetry_group_IT_number 65
_symmetry_cell_setting 'orthorhombic'
loop_
_space_group_symop_operation_xyz
x,y,z
-x,-y,z
x,-y,-z
-x,y,-z
-x,-y,-z
x,y,-z
-x,y,z
x,-y,z
1/2+x,1/2+y,z
1/2-x,1/2-y,z
1/2+x,1/2-y,-z
1/2-x,1/2+y,-z
1/2-x,1/2-y,-z
1/2+x,1/2+y,-z
1/2-x,1/2+y,z
1/2+x,1/2-y,z
loop_
_atom_site_type_symbol
_atom_site_label
_atom_site_fract_x
_atom_site_fract_y
_atom_site_fract_z
Si Si1 0.681689 0.170742 0.251783
Si Si2 0.178279 0.086335 0.632957
Si Si3 0.817168 0.830104 0.117906
Si Si4 0.823748 0.587270 0.500000
Si Si5 0.818672 0.585320 0.000000
O O1 0.500000 0.175115 0.244651
O O2 0.750000 0.250000 0.262530
O O3 0.727968 0.121704 0.310546
O O4 0.755641 0.144185 0.186056
O O5 0.240588 0.109921 0.564383
O O6 0.000000 0.104936 0.639158
O O7 0.191958 0.000000 0.636103
O O8 0.750000 0.750000 0.108849
O O9 0.000000 0.826979 0.118233
O O10 0.756697 0.879499 0.061687
O O11 0.821293 0.500000 0.500000
O O12 0.000000 0.609979 0.500000
O O13 0.796669 0.500000 0.000000
O O14 0.000000 0.600372 0.000000
#
# Coordination Sequence:
#
# PCOD9490139 Si02
#       5
#    16  16  16   8   8
#     4  11  22  38  59  83 113 147 186 230 278 330
#     4  10  20  35  56  82 112 147 187 230 277 330
#     4  11  22  39  62  85 112 147 188 228 272 330
#     4   9  17  31  52  79 110 145 186 229 275 329
#     4  11  24  41  60  85 117 149 184 229 278 325
#
# _framework density 18.537882
#
# number of rings (size 3 to 8) (size 9 to 14) (size 15 to 20)
#    0.000    1.500    0.000    7.875    0.000    5.000 
#    0.000    0.625    0.000    0.000    0.000    0.000 
#    0.000    0.000    0.000    0.000    0.000    0.000 
#
# Total GULP energy -178860.392189 kJ/mol
# GULP energy per Si atom -5589.387256 kJ/mol
# Density = 1.849569 g / cm^3
# Si number density = 18.537882 Si / 1000 Ang^3
#
#
#
# Elastic Constant Matrix: (Units=GPa)
#
#
# Indices 1 2 3 4 5 6 
#
# 1 192.3358 48.5547 86.7813 0.0000 0.0000 0.0000
# 2 48.5547 29.3067 54.6688 0.0000 0.0000 0.0000
# 3 86.7813 54.6688 168.3222 0.0000 0.0000 0.0000
# 4 0.0000 0.0000 0.0000 25.4513 0.0000 0.0000
# 5 0.0000 0.0000 0.0000 0.0000 40.3670 0.0000
# 6 0.0000 0.0000 0.0000 0.0000 0.0000 25.7755
#
#
#
# Elastic Compliance Matrix: (Units=1/GPa)
#
#
# Indices 1 2 3 4 5 6 
#
# 1 0.008955 -0.015791 0.000512 0.000000 0.000000 0.000000
# 2 -0.015791 0.114418 -0.029020 0.000000 0.000000 0.000000
# 3 0.000512 -0.029020 0.015102 0.000000 0.000000 0.000000
# 4 0.000000 0.000000 0.000000 0.039291 0.000000 0.000000
# 5 0.000000 0.000000 0.000000 0.000000 0.024773 0.000000
# 6 0.000000 0.000000 0.000000 0.000000 0.000000 0.038797
#
#
# Mechanical properties :
#
#
# Convention : Reuss Voigt Hill
#
# Bulk Modulus (GPa) = 20.04936 85.55271 52.80103
# Shear Modulus (GPa) = 14.42756 31.64940 23.03848
#
# Velocity S-wave (km/s) = 2.79278 4.13641 3.52913
# Velocity P-wave (km/s) = 4.60851 8.31045 6.71945
#
# Compressibility (1/GPa) = 0.04987690
#
# Stress axis : x y z
#
# Youngs Moduli (GPa) = 111.67475 8.73989 66.21424
#
# Poissons Ratio (x) = 0.13801 -0.03390
# Poissons Ratio (y) = 1.76342 1.92156
# Poissons Ratio (z) = -0.05717 0.25363
#
# Static dielectric constant tensor:
#      x y z
#    x 1.621100 0.000000 0.000000 
#    y 0.000000 1.618540 0.000000 
#    z 0.000000 0.000000 1.623810 
# 
# From -- ./inp_files/58801.got.cif
#   From: 2010.05.17/outbox.cif.g08.bks.cpg/sg65_30_cif.got.tgz:58801.got - 2010.06.03 17:01:31.
