data_PCOD9490798
_publ_section_title
;
Structure prediction by ZEFSAII (Michael W. Deem and Ramdas Pophale) SiO2 
 PCOD9490798
Probable space group: C M M M
;
_chemical_formula_sum "Si O2"
_cell_formula_units_Z 104
_cell_length_a 21.860939
_cell_length_b 29.049851
_cell_length_c 7.545166
_cell_angle_alpha 90.000000
_cell_angle_beta 90.000000
_cell_angle_gamma 90.000000
_cell_volume 4791.610640
_symmetry_space_group_name_H-M "C M M M"
_symmetry_group_IT_number 65
_symmetry_cell_setting 'orthorhombic'
loop_
_space_group_symop_operation_xyz
x,y,z
-x,-y,z
x,-y,-z
-x,y,-z
-x,-y,-z
x,y,-z
-x,y,z
x,-y,z
1/2+x,1/2+y,z
1/2-x,1/2-y,z
1/2+x,1/2-y,-z
1/2-x,1/2+y,-z
1/2-x,1/2-y,-z
1/2+x,1/2+y,-z
1/2-x,1/2+y,z
1/2+x,1/2-y,z
loop_
_atom_site_type_symbol
_atom_site_label
_atom_site_fract_x
_atom_site_fract_y
_atom_site_fract_z
Si Si1 0.566594 0.773239 0.782887
Si Si2 0.668847 0.448405 0.713392
Si Si3 0.429937 0.622057 0.715186
Si Si4 0.101499 0.374122 0.787766
Si Si5 0.738797 0.133769 0.788906
Si Si6 0.000000 0.448458 0.708979
Si Si7 0.337213 0.297276 0.203623
O O1 0.500000 0.754154 0.727665
O O2 0.571013 0.826361 0.728772
O O3 0.626309 0.745909 0.717892
O O4 0.567716 0.770983 0.000000
O O5 0.669314 0.450458 0.500000
O O6 0.677408 0.500000 0.781781
O O7 0.604594 0.425039 0.765255
O O8 0.720941 0.412013 0.764444
O O9 0.427724 0.626120 0.500000
O O10 0.500000 0.623900 0.771156
O O11 0.389061 0.663006 0.792449
O O12 0.170858 0.374359 0.718429
O O13 0.059612 0.418063 0.751991
O O14 0.104933 0.371194 0.000000
O O15 0.777555 0.177539 0.717156
O O16 0.734229 0.141711 0.000000
O O17 0.000000 0.500000 0.787574
O O18 0.000000 0.453272 0.500000
O O19 0.322171 0.285148 0.000000
#
# Coordination Sequence:
#
# PCOD9490798 Si02
#       7
#    16  16  16  16  16   8  16
#     4   9  16  28  51  79 106 137 173 211 248 294
#     4   9  18  32  49  68  93 130 172 214 262 310
#     4   9  17  29  45  67  97 131 171 217 258 299
#     4  10  20  37  59  81 107 137 171 211 257 309
#     4   9  19  33  51  77 106 136 170 211 257 309
#     4  11  25  43  61  83 109 135 171 221 274 325
#     4   9  17  30  49  75 106 139 173 207 250 302
#
# _framework density 21.704599999999999
#
# number of rings (size 3 to 8) (size 9 to 14) (size 15 to 20)
#    0.000    2.692    0.769    0.692    0.000    4.000 
#    0.000    8.462    0.000    0.000    0.000    9.692 
#    0.000    0.000    0.000    0.000    0.000    0.000 
#
# Total GULP energy -290104.410571 kJ/mol
# GULP energy per Si atom -5578.930973 kJ/mol
# Density = 2.165520 g / cm^3
# Si number density = 21.704600 Si / 1000 Ang^3
#
#
#
# Elastic Constant Matrix: (Units=GPa)
#
#
# Indices 1 2 3 4 5 6 
#
# 1 158.7100 55.5939 1.4540 0.0000 0.0000 0.0000
# 2 55.5939 128.9967 -0.2901 0.0000 0.0000 0.0000
# 3 1.4540 -0.2901 53.5406 0.0000 0.0000 0.0000
# 4 0.0000 0.0000 0.0000 19.0829 0.0000 0.0000
# 5 0.0000 0.0000 0.0000 0.0000 15.0403 0.0000
# 6 0.0000 0.0000 0.0000 0.0000 0.0000 -42.1384
#
#
#
# Elastic Compliance Matrix: (Units=1/GPa)
#
#
# Indices 1 2 3 4 5 6 
#
# 1 0.007424 -0.003200 -0.000219 0.000000 0.000000 0.000000
# 2 -0.003200 0.009132 0.000136 0.000000 0.000000 0.000000
# 3 -0.000219 0.000136 0.018684 0.000000 0.000000 0.000000
# 4 0.000000 0.000000 0.000000 0.052403 0.000000 0.000000
# 5 0.000000 0.000000 0.000000 0.000000 0.066488 0.000000
# 6 0.000000 0.000000 0.000000 0.000000 0.000000 -0.023731
#
#
# Mechanical properties :
#
#
# Convention : Reuss Voigt Hill
#
# Bulk Modulus (GPa) = 34.87434 50.52920 42.70177
# Shear Modulus (GPa) = 34.12458 17.36293 25.74376
#
# Velocity S-wave (km/s) = 3.96943 2.83143 3.44771
# Velocity P-wave (km/s) = 6.09189 5.83269 5.96370
#
# Compressibility (1/GPa) = 0.02867437
#
# Stress axis : x y z
#
# Youngs Moduli (GPa) = 134.70404 109.51097 53.52146
#
# Poissons Ratio (x) = 0.35042 0.01172
# Poissons Ratio (y) = 0.43104 -0.00730
# Poissons Ratio (z) = 0.02949 -0.01493
#
# Static dielectric constant tensor:
#      x y z
#    x 1.814430 0.000000 0.000000 
#    y 0.000000 1.794530 0.000000 
#    z 0.000000 0.000000 1.845690 
# 
# From -- ./inp_files/12440.got.cif
#   From: 2010.05.17/outbox.cif.g08.bks.cpg/sg65_7_cif.got.tgz:12440.got - 2010.06.03 17:01:31.
