data_PCOD9490460
_publ_section_title
;
Structure prediction by ZEFSAII (Michael W. Deem and Ramdas Pophale) SiO2 
 PCOD9490460
Probable space group: C M M M
;
_chemical_formula_sum "Si O2"
_cell_formula_units_Z 72
_cell_length_a 8.145625
_cell_length_b 14.755723
_cell_length_c 28.960624
_cell_angle_alpha 90.000000
_cell_angle_beta 90.000000
_cell_angle_gamma 90.000000
_cell_volume 3480.910217
_symmetry_space_group_name_H-M "C M M M"
_symmetry_group_IT_number 65
_symmetry_cell_setting 'orthorhombic'
loop_
_space_group_symop_operation_xyz
x,y,z
-x,-y,z
x,-y,-z
-x,y,-z
-x,-y,-z
x,y,-z
-x,y,z
x,-y,z
1/2+x,1/2+y,z
1/2-x,1/2-y,z
1/2+x,1/2-y,-z
1/2-x,1/2+y,-z
1/2-x,1/2-y,-z
1/2+x,1/2+y,-z
1/2-x,1/2+y,z
1/2+x,1/2-y,z
loop_
_atom_site_type_symbol
_atom_site_label
_atom_site_fract_x
_atom_site_fract_y
_atom_site_fract_z
Si Si1 0.303418 0.145780 0.749807
Si Si2 0.196231 0.500000 0.072694
Si Si3 0.801112 0.356009 0.549743
Si Si4 0.198048 0.646391 0.000000
Si Si5 0.192281 0.000000 0.177385
Si Si6 0.698521 0.144316 0.649126
O O1 0.500000 0.141713 0.749456
O O2 0.250000 0.250000 0.754211
O O3 0.244668 0.110251 0.699236
O O4 0.242310 0.086114 0.791906
O O5 0.255613 0.411316 0.044641
O O6 0.233701 0.500000 0.126450
O O7 0.000000 0.500000 0.067958
O O8 0.744066 0.393255 0.500000
O O9 0.750000 0.250000 0.549752
O O10 0.743874 0.393325 0.599474
O O11 0.000000 0.361874 0.549726
O O12 0.250000 0.750000 0.000000
O O13 0.000000 0.645576 0.000000
O O14 0.000000 0.000000 0.171428
O O15 0.500000 0.137638 0.648941
O O16 0.750000 0.250000 0.649075
#
# Coordination Sequence:
#
# PCOD9490460 Si02
#       6
#    16   8  16   8   8  16
#     4  10  20  36  56  78 107 144 186 234 284 337
#     4   9  20  40  60  84 120 157 189 227 274 322
#     4   8  12  18  30  52  83 116 151 196 251 313
#     4   9  19  37  64  92 120 155 191 225 267 318
#     4  12  25  39  57  84 115 151 194 238 284 331
#     4   8  14  24  40  62  89 124 165 209 262 322
#
# _framework density 20.684244
#
# number of rings (size 3 to 8) (size 9 to 14) (size 15 to 20)
#    0.000    2.889    0.000    2.333    0.000    2.667 
#    0.000    3.333    0.000    0.000    0.000    0.778 
#    0.000    6.222    0.000    0.000    0.000    3.111 
#
# Total GULP energy -200591.920564 kJ/mol
# GULP energy per Si atom -5571.997793 kJ/mol
# Density = 2.063717 g / cm^3
# Si number density = 20.684244 Si / 1000 Ang^3
#
#
#
# Elastic Constant Matrix: (Units=GPa)
#
#
# Indices 1 2 3 4 5 6 
#
# 1 16.7509 5.8837 6.0344 0.0000 0.0000 0.0000
# 2 5.8837 118.2962 79.1743 0.0000 0.0000 0.0000
# 3 6.0344 79.1743 231.0103 0.0000 0.0000 0.0000
# 4 0.0000 0.0000 0.0000 26.9819 0.0000 0.0000
# 5 0.0000 0.0000 0.0000 0.0000 16.8905 0.0000
# 6 0.0000 0.0000 0.0000 0.0000 0.0000 15.6832
#
#
#
# Elastic Compliance Matrix: (Units=1/GPa)
#
#
# Indices 1 2 3 4 5 6 
#
# 1 0.060851 -0.002547 -0.000717 0.000000 0.000000 0.000000
# 2 -0.002547 0.011076 -0.003730 0.000000 0.000000 0.000000
# 3 -0.000717 -0.003730 0.005626 0.000000 0.000000 0.000000
# 4 0.000000 0.000000 0.000000 0.037062 0.000000 0.000000
# 5 0.000000 0.000000 0.000000 0.000000 0.059205 0.000000
# 6 0.000000 0.000000 0.000000 0.000000 0.000000 0.063762
#
#
# Mechanical properties :
#
#
# Convention : Reuss Voigt Hill
#
# Bulk Modulus (GPa) = 15.73150 60.91581 38.32365
# Shear Modulus (GPa) = 18.33130 30.24213 24.28671
#
# Velocity S-wave (km/s) = 2.98022 3.82787 3.43033
# Velocity P-wave (km/s) = 4.41184 7.00365 5.85301
#
# Compressibility (1/GPa) = 0.06356674
#
# Stress axis : x y z
#
# Youngs Moduli (GPa) = 16.43355 90.28341 177.75283
#
# Poissons Ratio (x) = 0.22995 0.12738
# Poissons Ratio (y) = 0.04186 0.66295
# Poissons Ratio (z) = 0.01178 0.33672
#
# Static dielectric constant tensor:
#      x y z
#    x 1.716570 0.000000 0.000000 
#    y 0.000000 1.811350 0.000000 
#    z 0.000000 0.000000 1.818230 
# 
# From -- ./inp_files/76378.got.cif
#   From: 2010.05.17/outbox.cif.g08.bks.cpg/sg65_39_cif.got.tgz:76378.got - 2010.06.03 17:01:31.
