data_PCOD9490043
_publ_section_title
;
Structure prediction by ZEFSAII (Michael W. Deem and Ramdas Pophale) SiO2 
 PCOD9490043
Probable space group: C M M M
;
_chemical_formula_sum "Si O2"
_cell_formula_units_Z 104
_cell_length_a 19.827897
_cell_length_b 14.715196
_cell_length_c 18.032253
_cell_angle_alpha 90.000000
_cell_angle_beta 90.000000
_cell_angle_gamma 90.000000
_cell_volume 5261.295534
_symmetry_space_group_name_H-M "C M M M"
_symmetry_group_IT_number 65
_symmetry_cell_setting 'orthorhombic'
loop_
_space_group_symop_operation_xyz
x,y,z
-x,-y,z
x,-y,-z
-x,y,-z
-x,-y,-z
x,y,-z
-x,y,z
x,-y,z
1/2+x,1/2+y,z
1/2-x,1/2-y,z
1/2+x,1/2-y,-z
1/2-x,1/2+y,-z
1/2-x,1/2-y,-z
1/2+x,1/2+y,-z
1/2-x,1/2+y,z
1/2+x,1/2-y,z
loop_
_atom_site_type_symbol
_atom_site_label
_atom_site_fract_x
_atom_site_fract_y
_atom_site_fract_z
Si Si1 0.073144 0.391910 0.880191
Si Si2 0.611615 0.800827 0.265776
Si Si3 0.606149 0.604457 0.292450
Si Si4 0.000000 0.892110 0.581459
Si Si5 0.755814 0.599572 0.242797
Si Si6 0.419110 0.104495 0.582314
Si Si7 0.275060 0.852875 0.080610
O O1 0.076265 0.500000 0.889989
O O2 0.076466 0.366402 0.793310
O O3 0.143376 0.354658 0.912029
O O4 0.000000 0.360548 0.909255
O O5 0.590527 0.697249 0.247887
O O6 0.690997 0.820881 0.256012
O O7 0.597868 0.830525 0.349707
O O8 0.586959 0.500000 0.269799
O O9 0.566603 0.623739 0.369037
O O10 0.687411 0.605385 0.289739
O O11 0.000000 0.847851 0.500000
O O12 0.000000 0.000000 0.571699
O O13 0.786980 0.500000 0.258784
O O14 0.743814 0.602050 0.154034
O O15 0.394492 0.132129 0.500000
O O16 0.500000 0.102221 0.579195
O O17 0.396385 0.000000 0.595693
O O18 0.250000 0.750000 0.081839
O O19 0.257481 0.892399 0.000000
#
# Coordination Sequence:
#
# PCOD9490043 Si02
#       7
#    16  16  16   8  16  16  16
#     4  10  21  35  55  86 120 154 198 249 302 358
#     4  11  19  32  55  79 111 148 184 229 283 346
#     4  10  22  37  55  80 109 145 190 239 287 335
#     4   9  20  40  60  78 104 140 188 243 288 332
#     4  10  20  36  58  84 112 145 187 234 284 345
#     4   9  18  31  47  72 105 138 174 216 265 327
#     4  10  20  35  55  81 116 159 199 235 282 346
#
# _framework density 19.766994
#
# number of rings (size 3 to 8) (size 9 to 14) (size 15 to 20)
#    0.000    2.077    0.000    6.000    2.154    3.385 
#    0.000    1.538    0.000    4.615    0.000    0.000 
#    0.000    3.077    0.000    0.769    0.000    0.615 
#
# Total GULP energy -289482.667050 kJ/mol
# GULP energy per Si atom -5566.974366 kJ/mol
# Density = 1.972200 g / cm^3
# Si number density = 19.766994 Si / 1000 Ang^3
#
#
#
# Elastic Constant Matrix: (Units=GPa)
#
#
# Indices 1 2 3 4 5 6 
#
# 1 105.8005 23.9129 38.8986 0.0000 0.0000 0.0000
# 2 23.9129 95.1524 22.2561 0.0000 0.0000 0.0000
# 3 38.8986 22.2561 102.6433 0.0000 0.0000 0.0000
# 4 0.0000 0.0000 0.0000 18.6164 0.0000 0.0000
# 5 0.0000 0.0000 0.0000 0.0000 -6.9839 0.0000
# 6 0.0000 0.0000 0.0000 0.0000 0.0000 34.4717
#
#
#
# Elastic Compliance Matrix: (Units=1/GPa)
#
#
# Indices 1 2 3 4 5 6 
#
# 1 0.011311 -0.001938 -0.003866 0.000000 0.000000 0.000000
# 2 -0.001938 0.011403 -0.001738 0.000000 0.000000 0.000000
# 3 -0.003866 -0.001738 0.011585 0.000000 0.000000 0.000000
# 4 0.000000 0.000000 0.000000 0.053716 0.000000 0.000000
# 5 0.000000 0.000000 0.000000 0.000000 -0.143187 0.000000
# 6 0.000000 0.000000 0.000000 0.000000 0.000000 0.029009
#
#
# Mechanical properties :
#
#
# Convention : Reuss Voigt Hill
#
# Bulk Modulus (GPa) = 52.04625 52.63683 52.34154
# Shear Modulus (GPa) = -1069.95260 23.78942 -523.08159
#
# Velocity S-wave (km/s) = -23.29072 3.47290 -16.28491
# Velocity P-wave (km/s) = 26.39867 6.53971 18.08482
#
# Compressibility (1/GPa) = 0.01921368
#
# Stress axis : x y z
#
# Youngs Moduli (GPa) = 88.40667 87.69558 86.32184
#
# Poissons Ratio (x) = 0.16998 0.33375
# Poissons Ratio (y) = 0.17136 0.15002
# Poissons Ratio (z) = 0.34181 0.15241
#
# Static dielectric constant tensor:
#      x y z
#    x 1.732800 0.000000 0.000000 
#    y 0.000000 1.757590 0.000000 
#    z 0.000000 0.000000 1.747570 
# 
# From -- ./inp_files/55839.got.cif
#   From: 2010.05.17/outbox.cif.g08.bks.cpg/sg65_28_cif.got.tgz:55839.got - 2010.06.03 17:01:31.
