data_PCOD9490577
_publ_section_title
;
Structure prediction by ZEFSAII (Michael W. Deem and Ramdas Pophale) SiO2 
 PCOD9490577
Probable space group: C M M M
;
_chemical_formula_sum "Si O2"
_cell_formula_units_Z 88
_cell_length_a 8.715326
_cell_length_b 22.639312
_cell_length_c 24.286804
_cell_angle_alpha 90.000000
_cell_angle_beta 90.000000
_cell_angle_gamma 90.000000
_cell_volume 4792.004634
_symmetry_space_group_name_H-M "C M M M"
_symmetry_group_IT_number 65
_symmetry_cell_setting 'orthorhombic'
loop_
_space_group_symop_operation_xyz
x,y,z
-x,-y,z
x,-y,-z
-x,y,-z
-x,-y,-z
x,y,-z
-x,y,z
x,-y,z
1/2+x,1/2+y,z
1/2-x,1/2-y,z
1/2+x,1/2-y,-z
1/2-x,1/2+y,-z
1/2-x,1/2-y,-z
1/2+x,1/2+y,-z
1/2-x,1/2+y,z
1/2+x,1/2-y,z
loop_
_atom_site_type_symbol
_atom_site_label
_atom_site_fract_x
_atom_site_fract_y
_atom_site_fract_z
Si Si1 0.324022 0.429800 0.743898
Si Si2 0.319813 0.899569 0.858448
Si Si3 0.816730 0.185277 0.939919
Si Si4 0.317433 0.685944 0.565660
Si Si5 0.316192 0.500000 0.936507
Si Si6 0.816575 0.431422 0.623966
O O1 0.500000 0.410333 0.736323
O O2 0.325266 0.500000 0.755069
O O3 0.249586 0.401643 0.797630
O O4 0.231746 0.421795 0.687484
O O5 0.500000 0.911168 0.855586
O O6 0.277045 0.840096 0.889228
O O7 0.241129 0.945647 0.900039
O O8 0.750000 0.250000 0.945942
O O9 0.000000 0.183955 0.930354
O O10 0.791451 0.154688 0.000000
O O11 0.288242 0.683199 0.500000
O O12 0.500000 0.686893 0.575089
O O13 0.250000 0.750000 0.584871
O O14 0.251095 0.625042 0.591336
O O15 0.500000 0.500000 0.937897
O O16 0.261030 0.500000 0.000000
O O17 0.765974 0.500000 0.609406
O O18 0.000000 0.430531 0.618227
#
# Coordination Sequence:
#
# PCOD9490577 Si02
#       6
#    16  16  16  16   8  16
#     4  10  20  36  58  81 111 150 191 233 283 340
#     4  12  23  35  55  81 110 142 180 226 278 338
#     4  10  21  38  58  78 103 137 178 224 276 336
#     4  10  21  38  61  89 123 163 205 248 299 357
#     4  11  23  37  53  77 109 143 180 225 278 333
#     4  10  21  37  59  88 122 158 201 249 297 351
#
# _framework density 18.363923
#
# number of rings (size 3 to 8) (size 9 to 14) (size 15 to 20)
#    0.000    1.545    0.909    4.636    0.000    7.273 
#    0.000    2.727    0.000    0.000    0.000    0.000 
#    0.000    0.000    0.000    0.000    0.000    0.000 
#
# Total GULP energy -245317.882549 kJ/mol
# GULP energy per Si atom -5575.406422 kJ/mol
# Density = 1.832213 g / cm^3
# Si number density = 18.363923 Si / 1000 Ang^3
#
#
#
# Elastic Constant Matrix: (Units=GPa)
#
#
# Indices 1 2 3 4 5 6 
#
# 1 64.8639 35.0743 37.8801 0.0000 0.0000 0.0000
# 2 35.0743 116.9455 63.1827 0.0000 0.0000 0.0000
# 3 37.8801 63.1827 84.6142 0.0000 0.0000 0.0000
# 4 0.0000 0.0000 0.0000 195.0468 0.0000 0.0000
# 5 0.0000 0.0000 0.0000 0.0000 26.7923 0.0000
# 6 0.0000 0.0000 0.0000 0.0000 0.0000 31.4757
#
#
#
# Elastic Compliance Matrix: (Units=1/GPa)
#
#
# Indices 1 2 3 4 5 6 
#
# 1 0.021166 -0.002060 -0.007938 0.000000 0.000000 0.000000
# 2 -0.002060 0.014534 -0.009931 0.000000 0.000000 0.000000
# 3 -0.007938 -0.009931 0.022787 0.000000 0.000000 0.000000
# 4 0.000000 0.000000 0.000000 0.005127 0.000000 0.000000
# 5 0.000000 0.000000 0.000000 0.000000 0.037324 0.000000
# 6 0.000000 0.000000 0.000000 0.000000 0.000000 0.031771
#
#
# Mechanical properties :
#
#
# Convention : Reuss Voigt Hill
#
# Bulk Modulus (GPa) = 53.67282 59.85530 56.76406
# Shear Modulus (GPa) = 27.96797 59.34874 43.65835
#
# Velocity S-wave (km/s) = 3.90678 5.69107 4.88115
# Velocity P-wave (km/s) = 7.04566 8.70914 7.92119
#
# Compressibility (1/GPa) = 0.01863140
#
# Stress axis : x y z
#
# Youngs Moduli (GPa) = 47.24521 68.80393 43.88394
#
# Poissons Ratio (x) = 0.14171 0.34834
# Poissons Ratio (y) = 0.09731 0.43580
# Poissons Ratio (z) = 0.37502 0.68328
#
# Static dielectric constant tensor:
#      x y z
#    x 1.624480 0.000000 0.000000 
#    y 0.000000 1.696520 0.000000 
#    z 0.000000 0.000000 1.613940 
# 
# From -- ./inp_files/59806.got.cif
#   From: 2010.05.17/outbox.cif.g08.bks.cpg/sg65_30_cif.got.tgz:59806.got - 2010.06.03 17:01:31.
