data_PCOD9490588
_publ_section_title
;
Structure prediction by ZEFSAII (Michael W. Deem and Ramdas Pophale) SiO2 
 PCOD9490588
Probable space group: C M M M
;
_chemical_formula_sum "Si O2"
_cell_formula_units_Z 80
_cell_length_a 8.674078
_cell_length_b 18.850531
_cell_length_c 26.657867
_cell_angle_alpha 90.000000
_cell_angle_beta 90.000000
_cell_angle_gamma 90.000000
_cell_volume 4358.853858
_symmetry_space_group_name_H-M "C M M M"
_symmetry_group_IT_number 65
_symmetry_cell_setting 'orthorhombic'
loop_
_space_group_symop_operation_xyz
x,y,z
-x,-y,z
x,-y,-z
-x,y,-z
-x,-y,-z
x,y,-z
-x,y,z
x,-y,z
1/2+x,1/2+y,z
1/2-x,1/2-y,z
1/2+x,1/2-y,-z
1/2-x,1/2+y,-z
1/2-x,1/2-y,-z
1/2+x,1/2+y,-z
1/2-x,1/2+y,z
1/2+x,1/2-y,z
loop_
_atom_site_type_symbol
_atom_site_label
_atom_site_fract_x
_atom_site_fract_y
_atom_site_fract_z
Si Si1 0.685606 0.170258 0.686293
Si Si2 0.185108 0.916878 0.405973
Si Si3 0.682898 0.584622 0.000000
Si Si4 0.815791 0.329732 0.500000
Si Si5 0.814245 0.328591 0.799814
Si Si6 0.314059 0.917689 0.104571
O O1 0.500000 0.171901 0.681974
O O2 0.750000 0.250000 0.678384
O O3 0.755281 0.117669 0.645452
O O4 0.727991 0.148191 0.743310
O O5 0.256973 0.872211 0.451415
O O6 0.000000 0.911522 0.408483
O O7 0.227141 0.000000 0.409527
O O8 0.751241 0.612800 0.052133
O O9 0.720615 0.500000 0.000000
O O10 0.500000 0.592556 0.000000
O O11 0.750000 0.250000 0.500000
O O12 0.000000 0.326542 0.500000
O O13 0.750000 0.250000 0.806689
O O14 0.761104 0.377159 0.845698
O O15 0.000000 0.326482 0.801278
O O16 0.500000 0.915595 0.102677
O O17 0.266489 0.000000 0.108250
#
# Coordination Sequence:
#
# PCOD9490588 Si02
#       6
#    16  16   8   8  16  16
#     4  10  20  36  58  82 110 145 185 225 267 321
#     4  11  24  41  60  85 118 150 182 226 276 321
#     4   9  17  29  46  71 100 129 165 211 262 313
#     4  12  25  42  65  89 115 149 189 228 269 322
#     4   9  19  34  53  77 105 138 174 216 263 312
#     4   9  17  31  51  73  98 131 171 213 259 312
#
# _framework density 18.353449000000001
#
# number of rings (size 3 to 8) (size 9 to 14) (size 15 to 20)
#    0.000    2.100    0.000    3.300    0.000    6.400 
#    0.000    2.500    0.000    2.400    0.000    0.000 
#    0.000    0.000    0.000    0.000    0.000    0.000 
#
# Total GULP energy -223280.783652 kJ/mol
# GULP energy per Si atom -5582.019591 kJ/mol
# Density = 1.831168 g / cm^3
# Si number density = 18.353449 Si / 1000 Ang^3
#
#
#
# Elastic Constant Matrix: (Units=GPa)
#
#
# Indices 1 2 3 4 5 6 
#
# 1 46.6848 43.9291 53.5264 0.0000 0.0000 0.0000
# 2 43.9291 109.2129 109.8464 0.0000 0.0000 0.0000
# 3 53.5264 109.8464 204.7670 0.0000 0.0000 0.0000
# 4 0.0000 0.0000 0.0000 36.8900 0.0000 0.0000
# 5 0.0000 0.0000 0.0000 0.0000 15.9369 0.0000
# 6 0.0000 0.0000 0.0000 0.0000 0.0000 24.7644
#
#
#
# Elastic Compliance Matrix: (Units=1/GPa)
#
#
# Indices 1 2 3 4 5 6 
#
# 1 0.035601 -0.010772 -0.003528 0.000000 0.000000 0.000000
# 2 -0.010772 0.023145 -0.009600 0.000000 0.000000 0.000000
# 3 -0.003528 -0.009600 0.010956 0.000000 0.000000 0.000000
# 4 0.000000 0.000000 0.000000 0.027108 0.000000 0.000000
# 5 0.000000 0.000000 0.000000 0.000000 0.062747 0.000000
# 6 0.000000 0.000000 0.000000 0.000000 0.000000 0.040380
#
#
# Mechanical properties :
#
#
# Convention : Reuss Voigt Hill
#
# Bulk Modulus (GPa) = 45.65734 86.14094 65.89914
# Shear Modulus (GPa) = 19.60493 25.74247 22.67370
#
# Velocity S-wave (km/s) = 3.27186 3.74919 3.51863
# Velocity P-wave (km/s) = 6.26132 8.11038 7.24508
#
# Compressibility (1/GPa) = 0.02190228
#
# Stress axis : x y z
#
# Youngs Moduli (GPa) = 28.08925 43.20518 91.27529
#
# Poissons Ratio (x) = 0.46540 0.32199
# Poissons Ratio (y) = 0.30257 0.87629
# Poissons Ratio (z) = 0.09909 0.41479
#
# Static dielectric constant tensor:
#      x y z
#    x 1.616330 0.000000 0.000000 
#    y 0.000000 1.604300 0.000000 
#    z 0.000000 0.000000 1.642130 
# 
# From -- ./inp_files/72885.got.cif
#   From: 2010.05.17/outbox.cif.g08.bks.cpg/sg65_37_cif.got.tgz:72885.got - 2010.06.03 17:01:31.
