data_PCOD9490008
_publ_section_title
;
Structure prediction by ZEFSAII (Michael W. Deem and Ramdas Pophale) SiO2 
 PCOD9490008
Probable space group: C M M M
;
_chemical_formula_sum "Si O2"
_cell_formula_units_Z 72
_cell_length_a 21.837428
_cell_length_b 8.692864
_cell_length_c 20.533316
_cell_angle_alpha 90.000000
_cell_angle_beta 90.000000
_cell_angle_gamma 90.000000
_cell_volume 3897.835099
_symmetry_space_group_name_H-M "C M M M"
_symmetry_group_IT_number 65
_symmetry_cell_setting 'orthorhombic'
loop_
_space_group_symop_operation_xyz
x,y,z
-x,-y,z
x,-y,-z
-x,y,-z
-x,-y,-z
x,y,-z
-x,y,z
x,-y,z
1/2+x,1/2+y,z
1/2-x,1/2-y,z
1/2+x,1/2-y,-z
1/2-x,1/2+y,-z
1/2-x,1/2-y,-z
1/2+x,1/2+y,-z
1/2-x,1/2+y,z
1/2+x,1/2-y,z
loop_
_atom_site_type_symbol
_atom_site_label
_atom_site_fract_x
_atom_site_fract_y
_atom_site_fract_z
Si Si1 0.682990 0.182106 0.795801
Si Si2 0.000000 0.673821 0.922304
Si Si3 0.179996 0.816456 0.337828
Si Si4 0.370725 0.317515 0.924622
Si Si5 0.069542 0.683762 0.422103
O O1 0.750000 0.250000 0.789797
O O2 0.653112 0.258420 0.732099
O O3 0.664055 0.229165 0.868235
O O4 0.680539 0.000000 0.788920
O O5 0.059640 0.772519 0.908727
O O6 0.000000 0.500000 0.893816
O O7 0.000000 0.654644 0.000000
O O8 0.250000 0.750000 0.348786
O O9 0.128239 0.763345 0.389081
O O10 0.185884 0.000000 0.337011
O O11 0.360758 0.500000 0.919883
O O12 0.357492 0.271729 0.000000
O O13 0.072469 0.706727 0.500000
O O14 0.073751 0.500000 0.409788
O O15 0.000000 0.732807 0.401209
#
# Coordination Sequence:
#
# PCOD9490008 Si02
#       5
#    16   8  16  16  16
#     4  11  22  38  58  79 108 144 185 232 284 338
#     4   9  17  31  51  75 103 135 172 217 272 329
#     4  11  22  38  60  85 117 155 197 241 289 344
#     4  10  20  35  55  79 108 142 182 230 282 336
#     4   9  19  38  63  90 122 157 192 235 287 340
#
# _framework density 18.471793000000002
#
# number of rings (size 3 to 8) (size 9 to 14) (size 15 to 20)
#    0.000    1.889    0.000    7.000    0.000    4.444 
#    2.000    1.111    0.000    0.000    0.000    0.000 
#    0.000    0.000    0.000    0.000    0.000    0.000 
#
# Total GULP energy -200452.569191 kJ/mol
# GULP energy per Si atom -5568.126922 kJ/mol
# Density = 1.842975 g / cm^3
# Si number density = 18.471793 Si / 1000 Ang^3
#
#
#
# Elastic Constant Matrix: (Units=GPa)
#
#
# Indices 1 2 3 4 5 6 
#
# 1 74.0620 44.0300 49.2447 0.0000 0.0000 0.0000
# 2 44.0300 130.5089 53.7856 0.0000 0.0000 0.0000
# 3 49.2447 53.7856 85.6237 0.0000 0.0000 0.0000
# 4 0.0000 0.0000 0.0000 3.3634 0.0000 0.0000
# 5 0.0000 0.0000 0.0000 0.0000 -69.6579 0.0000
# 6 0.0000 0.0000 0.0000 0.0000 0.0000 3.6911
#
#
#
# Elastic Compliance Matrix: (Units=1/GPa)
#
#
# Indices 1 2 3 4 5 6 
#
# 1 0.022745 -0.003080 -0.011147 0.000000 0.000000 0.000000
# 2 -0.003080 0.010756 -0.004985 0.000000 0.000000 0.000000
# 3 -0.011147 -0.004985 0.021221 0.000000 0.000000 0.000000
# 4 0.000000 0.000000 0.000000 0.297317 0.000000 0.000000
# 5 0.000000 0.000000 0.000000 0.000000 -0.014356 0.000000
# 6 0.000000 0.000000 0.000000 0.000000 0.000000 0.270921
#
#
# Mechanical properties :
#
#
# Convention : Reuss Voigt Hill
#
# Bulk Modulus (GPa) = 61.35417 64.92391 63.13904
# Shear Modulus (GPa) = 7.66332 -2.97839 2.34247
#
# Velocity S-wave (km/s) = 2.03904 -1.27118 1.12733
# Velocity P-wave (km/s) = 6.23143 5.75060 5.99584
#
# Compressibility (1/GPa) = 0.01629881
#
# Stress axis : x y z
#
# Youngs Moduli (GPa) = 43.96663 92.97299 47.12261
#
# Poissons Ratio (x) = 0.28632 0.52525
# Poissons Ratio (y) = 0.13540 0.23492
# Poissons Ratio (z) = 0.49008 0.46349
#
# Static dielectric constant tensor:
#      x y z
#    x 1.607750 0.000000 0.000000 
#    y 0.000000 1.625390 0.000000 
#    z 0.000000 0.000000 1.680970 
# 
# From -- ./inp_files/70304.got.cif
#   From: 2010.05.17/outbox.cif.g08.bks.cpg/sg65_36_cif.got.tgz:70304.got - 2010.06.03 17:01:31.
