data_PCOD9490436
_publ_section_title
;
Structure prediction by ZEFSAII (Michael W. Deem and Ramdas Pophale) SiO2 
 PCOD9490436
Probable space group: C M M M
;
_chemical_formula_sum "Si O2"
_cell_formula_units_Z 64
_cell_length_a 7.442007
_cell_length_b 29.527982
_cell_length_c 13.751340
_cell_angle_alpha 90.000000
_cell_angle_beta 90.000000
_cell_angle_gamma 90.000000
_cell_volume 3021.821882
_symmetry_space_group_name_H-M "C M M M"
_symmetry_group_IT_number 65
_symmetry_cell_setting 'orthorhombic'
loop_
_space_group_symop_operation_xyz
x,y,z
-x,-y,z
x,-y,-z
-x,y,-z
-x,-y,-z
x,y,-z
-x,y,z
x,-y,z
1/2+x,1/2+y,z
1/2-x,1/2-y,z
1/2+x,1/2-y,-z
1/2-x,1/2+y,-z
1/2-x,1/2-y,-z
1/2+x,1/2+y,-z
1/2-x,1/2+y,z
1/2+x,1/2-y,z
loop_
_atom_site_type_symbol
_atom_site_label
_atom_site_fract_x
_atom_site_fract_y
_atom_site_fract_z
Si Si1 0.000000 0.445855 0.395719
Si Si2 0.786385 0.948798 0.762926
Si Si3 0.714708 0.302720 0.000000
Si Si4 0.281824 0.648232 0.192248
Si Si5 0.715167 0.696374 0.609787
O O1 0.179016 0.437519 0.334990
O O2 0.000000 0.500000 0.406330
O O3 0.000000 0.423480 0.500000
O O4 0.741527 0.904842 0.826132
O O5 0.000000 0.949151 0.747092
O O6 0.735325 0.000000 0.795047
O O7 0.750000 0.250000 0.000000
O O8 0.784710 0.323792 0.100197
O O9 0.500000 0.310701 0.000000
O O10 0.500000 0.651818 0.195814
O O11 0.217856 0.667905 0.296667
O O12 0.782544 0.685254 0.500000
O O13 0.500000 0.690085 0.607014
O O14 0.750000 0.750000 0.625881
#
# Coordination Sequence:
#
# PCOD9490436 Si02
#       5
#     8  16   8  16  16
#     4   9  18  32  50  77 111 145 187 234 273 315
#     4   9  18  34  54  76 107 146 184 224 274 329
#     4  10  20  36  55  79 110 138 175 226 276 329
#     4   9  18  33  53  76 103 138 176 219 270 323
#     4   9  17  30  47  68  97 130 166 210 259 314
#
# _framework density 21.179276000000002
#
# number of rings (size 3 to 8) (size 9 to 14) (size 15 to 20)
#    0.000    2.875    0.000    0.750    0.000    1.500 
#    4.500    5.625    0.000    3.750    0.000    2.625 
#    0.000    0.000    0.000    0.000    0.000    0.000 
#
# Total GULP energy -178269.667870 kJ/mol
# GULP energy per Si atom -5570.927121 kJ/mol
# Density = 2.113107 g / cm^3
# Si number density = 21.179276 Si / 1000 Ang^3
#
#
#
# Elastic Constant Matrix: (Units=GPa)
#
#
# Indices 1 2 3 4 5 6 
#
# 1 52.2976 9.5735 7.1846 0.0000 0.0000 0.0000
# 2 9.5735 173.9143 102.6111 0.0000 0.0000 0.0000
# 3 7.1846 102.6111 140.0115 0.0000 0.0000 0.0000
# 4 0.0000 0.0000 0.0000 12.3883 0.0000 0.0000
# 5 0.0000 0.0000 0.0000 0.0000 -10.4038 0.0000
# 6 0.0000 0.0000 0.0000 0.0000 0.0000 16.3995
#
#
#
# Elastic Compliance Matrix: (Units=1/GPa)
#
#
# Indices 1 2 3 4 5 6 
#
# 1 0.019327 -0.000843 -0.000374 0.000000 0.000000 0.000000
# 2 -0.000843 0.010167 -0.007408 0.000000 0.000000 0.000000
# 3 -0.000374 -0.007408 0.012591 0.000000 0.000000 0.000000
# 4 0.000000 0.000000 0.000000 0.080721 0.000000 0.000000
# 5 0.000000 0.000000 0.000000 0.000000 -0.096118 0.000000
# 6 0.000000 0.000000 0.000000 0.000000 0.000000 0.060978
#
#
# Mechanical properties :
#
#
# Convention : Reuss Voigt Hill
#
# Bulk Modulus (GPa) = 40.26626 67.21799 53.74213
# Shear Modulus (GPa) = 44.17215 20.13374 32.15295
#
# Velocity S-wave (km/s) = 4.57183 3.08658 3.90055
# Velocity P-wave (km/s) = 6.84998 6.67152 6.76134
#
# Compressibility (1/GPa) = 0.02483469
#
# Stress axis : x y z
#
# Youngs Moduli (GPa) = 51.74091 98.35556 79.42434
#
# Poissons Ratio (x) = 0.08296 0.02967
# Poissons Ratio (y) = 0.04364 0.58838
# Poissons Ratio (z) = 0.01933 0.72862
#
# Static dielectric constant tensor:
#      x y z
#    x 1.748460 0.000000 0.000000 
#    y 0.000000 1.772980 0.000000 
#    z 0.000000 0.000000 1.784610 
# 
# From -- ./inp_files/36400.got.cif
#   From: 2010.05.17/outbox.cif.g08.bks.cpg/sg65_19_cif.got.tgz:36400.got - 2010.06.03 17:01:31.
