data_PCOD9490748
_publ_section_title
;
Structure prediction by ZEFSAII (Michael W. Deem and Ramdas Pophale) SiO2 
 PCOD9490748
Probable space group: C M M M
;
_chemical_formula_sum "Si O2"
_cell_formula_units_Z 58
_cell_length_a 7.290978
_cell_length_b 16.167157
_cell_length_c 22.785087
_cell_angle_alpha 90.000000
_cell_angle_beta 90.000000
_cell_angle_gamma 90.000000
_cell_volume 2685.778140
_symmetry_space_group_name_H-M "C M M M"
_symmetry_group_IT_number 65
_symmetry_cell_setting 'orthorhombic'
loop_
_space_group_symop_operation_xyz
x,y,z
-x,-y,z
x,-y,-z
-x,y,-z
-x,-y,-z
x,y,-z
-x,y,z
x,-y,z
1/2+x,1/2+y,z
1/2-x,1/2-y,z
1/2+x,1/2-y,-z
1/2-x,1/2+y,-z
1/2-x,1/2-y,-z
1/2+x,1/2+y,-z
1/2-x,1/2+y,z
1/2+x,1/2-y,z
loop_
_atom_site_type_symbol
_atom_site_label
_atom_site_fract_x
_atom_site_fract_y
_atom_site_fract_z
Si Si1 0.222129 0.905076 0.310413
Si Si2 0.775397 0.000000 0.110893
Si Si3 0.282622 0.342249 0.811013
Si Si4 0.781503 0.848421 0.563533
Si Si5 0.500000 0.000000 0.000000
O O1 0.289451 0.851070 0.255687
O O2 0.290849 0.884029 0.375432
O O3 0.000000 0.896703 0.313345
O O4 0.262787 0.000000 0.296210
O O5 0.723274 0.082136 0.148076
O O6 0.661270 0.000000 0.051425
O O7 0.000000 0.000000 0.102820
O O8 0.500000 0.352891 0.806574
O O9 0.250000 0.250000 0.834118
O O10 0.711059 0.878530 0.500000
O O11 0.750000 0.750000 0.565371
O O12 0.000000 0.863775 0.562959
#
# Coordination Sequence:
#
# PCOD9490748 Si02
#       5
#    16   8  16  16   2
#     4   9  16  29  49  76 108 148 193 247 309 362
#     4  10  23  45  69  98 134 173 208 250 317 365
#     4  10  20  36  62  89 122 160 204 255 309 367
#     4   9  17  28  44  67  99 140 190 245 300 363
#     4  12  26  44  80  98 136 170 212 256 296 366
#
# _framework density 21.595231999999999
#
# number of rings (size 3 to 8) (size 9 to 14) (size 15 to 20)
#    0.000    2.483    1.379    1.034    1.931    0.552 
#    0.000    3.448    0.000    2.483    0.000    3.862 
#    0.000    0.000    0.000    0.000    0.000    0.000 
#
# Total GULP energy -161563.486475 kJ/mol
# GULP energy per Si atom -5571.154706 kJ/mol
# Density = 2.154608 g / cm^3
# Si number density = 21.595232 Si / 1000 Ang^3
#
#
#
# Elastic Constant Matrix: (Units=GPa)
#
#
# Indices 1 2 3 4 5 6 
#
# 1 106.9388 3.9307 34.2713 0.0000 0.0000 0.0000
# 2 3.9307 120.2321 79.9733 0.0000 0.0000 0.0000
# 3 34.2713 79.9733 190.7255 0.0000 0.0000 0.0000
# 4 0.0000 0.0000 0.0000 -2.6260 0.0000 0.0000
# 5 0.0000 0.0000 0.0000 0.0000 -50.2609 0.0000
# 6 0.0000 0.0000 0.0000 0.0000 0.0000 12.0805
#
#
#
# Elastic Compliance Matrix: (Units=1/GPa)
#
#
# Indices 1 2 3 4 5 6 
#
# 1 0.010048 0.001210 -0.002313 0.000000 0.000000 0.000000
# 2 0.001210 0.011680 -0.005115 0.000000 0.000000 0.000000
# 3 -0.002313 -0.005115 0.007803 0.000000 0.000000 0.000000
# 4 0.000000 0.000000 0.000000 -0.380812 0.000000 0.000000
# 5 0.000000 0.000000 0.000000 0.000000 -0.019896 0.000000
# 6 0.000000 0.000000 0.000000 0.000000 0.000000 0.082778
#
#
# Mechanical properties :
#
#
# Convention : Reuss Voigt Hill
#
# Bulk Modulus (GPa) = 58.49467 72.69410 65.59439
# Shear Modulus (GPa) = -18.50035 11.82014 -3.34010
#
# Velocity S-wave (km/s) = -2.93010 2.34209 -1.24501
# Velocity P-wave (km/s) = 3.96212 6.40695 5.32670
#
# Compressibility (1/GPa) = 0.01709557
#
# Stress axis : x y z
#
# Youngs Moduli (GPa) = 99.52359 85.61700 128.14814
#
# Poissons Ratio (x) = -0.10359 0.29638
# Poissons Ratio (y) = -0.12041 0.65547
# Poissons Ratio (z) = 0.23018 0.43792
#
# Static dielectric constant tensor:
#      x y z
#    x 1.818930 0.000000 0.000000 
#    y 0.000000 1.843920 0.000000 
#    z 0.000000 0.000000 1.778480 
# 
# From -- ./inp_files/66678.got.cif
#   From: 2010.05.17/outbox.cif.g08.bks.cpg/sg65_34_cif.got.tgz:66678.got - 2010.06.03 17:01:31.
