data_PCOD9490966
_publ_section_title
;
Structure prediction by ZEFSAII (Michael W. Deem and Ramdas Pophale) SiO2 
 PCOD9490966
Probable space group: C M M M
;
_chemical_formula_sum "Si O2"
_cell_formula_units_Z 58
_cell_length_a 25.651333
_cell_length_b 13.714251
_cell_length_c 9.403021
_cell_angle_alpha 90.000000
_cell_angle_beta 90.000000
_cell_angle_gamma 90.000000
_cell_volume 3307.877655
_symmetry_space_group_name_H-M "C M M M"
_symmetry_group_IT_number 65
_symmetry_cell_setting 'orthorhombic'
loop_
_space_group_symop_operation_xyz
x,y,z
-x,-y,z
x,-y,-z
-x,y,-z
-x,-y,-z
x,y,-z
-x,y,z
x,-y,z
1/2+x,1/2+y,z
1/2-x,1/2-y,z
1/2+x,1/2-y,-z
1/2-x,1/2+y,-z
1/2-x,1/2-y,-z
1/2+x,1/2+y,-z
1/2-x,1/2+y,z
1/2+x,1/2-y,z
loop_
_atom_site_type_symbol
_atom_site_label
_atom_site_fract_x
_atom_site_fract_y
_atom_site_fract_z
Si Si1 0.640355 0.500000 0.829144
Si Si2 0.904167 0.788924 0.832430
Si Si3 0.000000 0.704377 0.343123
Si Si4 0.703113 0.827249 0.160676
Si Si5 0.248715 0.500000 0.331594
Si Si6 0.500000 0.000000 0.500000
O O1 0.608730 0.598581 0.795903
O O2 0.695313 0.500000 0.747329
O O3 0.651043 0.500000 0.000000
O O4 0.949414 0.740235 0.741400
O O5 0.850675 0.728764 0.813662
O O6 0.917762 0.786113 0.000000
O O7 0.000000 0.588482 0.377711
O O8 0.000000 0.751507 0.500000
O O9 0.750000 0.750000 0.162381
O O10 0.716501 0.907266 0.276740
O O11 0.701597 0.869696 0.000000
O O12 0.255628 0.500000 0.500000
#
# Coordination Sequence:
#
# PCOD9490966 Si02
#       6
#     8  16   8  16   8   2
#     4  10  20  39  64  91 127 163 201 252 310 366
#     4  10  21  39  67  94 119 158 209 261 301 363
#     4  10  23  44  66  86 124 162 199 246 312 370
#     4  10  20  38  62  86 119 163 211 256 304 361
#     4  12  24  35  54  89 131 168 207 249 312 380
#     4   8  24  48  66  78 116 180 194 244 316 356
#
# _framework density 17.533901
#
# number of rings (size 3 to 8) (size 9 to 14) (size 15 to 20)
#    0.414    1.379    2.759    1.655    0.000    4.414 
#    2.483    5.517    0.000    0.000    0.000    0.000 
#    0.000    0.000    0.000    0.000    0.000    0.000 
#
# Total GULP energy -161524.840461 kJ/mol
# GULP energy per Si atom -5569.822085 kJ/mol
# Density = 1.749399 g / cm^3
# Si number density = 17.533901 Si / 1000 Ang^3
#
#
#
# Elastic Constant Matrix: (Units=GPa)
#
#
# Indices 1 2 3 4 5 6 
#
# 1 131.0654 62.7357 74.9594 0.0000 0.0000 0.0000
# 2 62.7357 139.2374 77.0079 0.0000 0.0000 0.0000
# 3 74.9594 77.0079 99.7194 0.0000 0.0000 0.0000
# 4 0.0000 0.0000 0.0000 838.8684 0.0000 0.0000
# 5 0.0000 0.0000 0.0000 0.0000 11.4154 0.0000
# 6 0.0000 0.0000 0.0000 0.0000 0.0000 11.5782
#
#
#
# Elastic Compliance Matrix: (Units=1/GPa)
#
#
# Indices 1 2 3 4 5 6 
#
# 1 0.013437 -0.000817 -0.009470 0.000000 0.000000 0.000000
# 2 -0.000817 0.012586 -0.009106 0.000000 0.000000 0.000000
# 3 -0.009470 -0.009106 0.024178 0.000000 0.000000 0.000000
# 4 0.000000 0.000000 0.000000 0.001192 0.000000 0.000000
# 5 0.000000 0.000000 0.000000 0.000000 0.087601 0.000000
# 6 0.000000 0.000000 0.000000 0.000000 0.000000 0.086369
#
#
# Mechanical properties :
#
#
# Convention : Reuss Voigt Hill
#
# Bulk Modulus (GPa) = 87.58861 88.82535 88.20698
# Shear Modulus (GPa) = 18.66004 182.72702 100.69353
#
# Velocity S-wave (km/s) = 3.26579 10.21958 7.58634
# Velocity P-wave (km/s) = 8.01766 13.78486 11.27619
#
# Compressibility (1/GPa) = 0.01141701
#
# Stress axis : x y z
#
# Youngs Moduli (GPa) = 74.42347 79.45370 41.35959
#
# Poissons Ratio (x) = 0.06489 0.39166
# Poissons Ratio (y) = 0.06078 0.37660
# Poissons Ratio (z) = 0.70476 0.72347
#
# Static dielectric constant tensor:
#      x y z
#    x 1.568710 0.000000 0.000000 
#    y 0.000000 1.579090 0.000000 
#    z 0.000000 0.000000 1.591620 
# 
# From -- ./inp_files/4520.got.cif
#   From: 2010.05.17/outbox.cif.g08.bks.cpg/sg65_3_cif.got.tgz:4520.got - 2010.06.03 17:01:31.
