data_PCOD9490087
_publ_section_title
;
Structure prediction by ZEFSAII (Michael W. Deem and Ramdas Pophale) SiO2 
 PCOD9490087
Probable space group: C M M M
;
_chemical_formula_sum "Si O2"
_cell_formula_units_Z 80
_cell_length_a 18.159158
_cell_length_b 15.170777
_cell_length_c 15.984525
_cell_angle_alpha 90.000000
_cell_angle_beta 90.000000
_cell_angle_gamma 90.000000
_cell_volume 4403.553399
_symmetry_space_group_name_H-M "C M M M"
_symmetry_group_IT_number 65
_symmetry_cell_setting 'orthorhombic'
loop_
_space_group_symop_operation_xyz
x,y,z
-x,-y,z
x,-y,-z
-x,y,-z
-x,-y,-z
x,y,-z
-x,y,z
x,-y,z
1/2+x,1/2+y,z
1/2-x,1/2-y,z
1/2+x,1/2-y,-z
1/2-x,1/2+y,-z
1/2-x,1/2-y,-z
1/2+x,1/2+y,-z
1/2-x,1/2+y,z
1/2+x,1/2-y,z
loop_
_atom_site_type_symbol
_atom_site_label
_atom_site_fract_x
_atom_site_fract_y
_atom_site_fract_z
Si Si1 0.259461 0.644566 0.591221
Si Si2 0.184712 0.596825 0.234674
Si Si3 0.581657 0.398113 0.350138
Si Si4 0.915893 0.765572 0.193579
Si Si5 0.708140 0.656100 0.092472
O O1 0.230841 0.615605 0.500000
O O2 0.250000 0.750000 0.596445
O O3 0.219141 0.606791 0.672781
O O4 0.345818 0.620902 0.596402
O O5 0.150380 0.500000 0.226732
O O6 0.129388 0.677282 0.216430
O O7 0.250324 0.605021 0.166492
O O8 0.500000 0.387181 0.389661
O O9 0.586144 0.500000 0.321879
O O10 0.585536 0.330403 0.273301
O O11 0.873605 0.818047 0.120878
O O12 0.000000 0.744949 0.172697
O O13 0.750000 0.750000 0.088827
O O14 0.711686 0.615751 0.000000
#
# Coordination Sequence:
#
# PCOD9490087 Si02
#       5
#    16  16  16  16  16
#     4  11  21  36  57  82 113 149 190 237 288 338
#     4  11  21  36  57  82 115 150 189 235 280 335
#     4  10  20  35  56  80 107 140 179 230 287 335
#     4  10  20  36  56  81 114 149 188 231 276 333
#     4   9  18  34  56  81 109 142 181 227 279 328
#
# _framework density 18.167147
#
# number of rings (size 3 to 8) (size 9 to 14) (size 15 to 20)
#    0.000    1.800    4.000    1.200    0.000    3.200 
#    0.000    1.000    0.000    0.600    0.000   11.200 
#    0.000    0.000    0.000    0.000    0.000    0.000 
#
# Total GULP energy -222999.059622 kJ/mol
# GULP energy per Si atom -5574.976491 kJ/mol
# Density = 1.812580 g / cm^3
# Si number density = 18.167147 Si / 1000 Ang^3
#
#
#
# Elastic Constant Matrix: (Units=GPa)
#
#
# Indices 1 2 3 4 5 6 
#
# 1 111.6267 32.1751 29.8274 0.0000 0.0000 0.0000
# 2 32.1751 108.6730 23.2621 0.0000 0.0000 0.0000
# 3 29.8274 23.2621 116.7616 0.0000 0.0000 0.0000
# 4 0.0000 0.0000 0.0000 -23.1366 0.0000 0.0000
# 5 0.0000 0.0000 0.0000 0.0000 12.6061 0.0000
# 6 0.0000 0.0000 0.0000 0.0000 0.0000 22.3104
#
#
#
# Elastic Compliance Matrix: (Units=1/GPa)
#
#
# Indices 1 2 3 4 5 6 
#
# 1 0.010268 -0.002589 -0.002107 0.000000 0.000000 0.000000
# 2 -0.002589 0.010265 -0.001384 0.000000 0.000000 0.000000
# 3 -0.002107 -0.001384 0.009378 0.000000 0.000000 0.000000
# 4 0.000000 0.000000 0.000000 -0.043222 0.000000 0.000000
# 5 0.000000 0.000000 0.000000 0.000000 0.079327 0.000000
# 6 0.000000 0.000000 0.000000 0.000000 0.000000 0.044822
#
#
# Mechanical properties :
#
#
# Convention : Reuss Voigt Hill
#
# Bulk Modulus (GPa) = 56.33400 56.39893 56.36647
# Shear Modulus (GPa) = 38.78534 19.14242 28.96388
#
# Velocity S-wave (km/s) = 4.62553 3.24957 3.99720
# Velocity P-wave (km/s) = 7.72032 6.72246 7.23861
#
# Compressibility (1/GPa) = 0.01775127
#
# Stress axis : x y z
#
# Youngs Moduli (GPa) = 97.39276 97.42214 106.62796
#
# Poissons Ratio (x) = 0.25222 0.22468
# Poissons Ratio (y) = 0.25214 0.14753
# Poissons Ratio (z) = 0.20522 0.13480
#
# Static dielectric constant tensor:
#      x y z
#    x 1.624350 0.000000 0.000000 
#    y 0.000000 1.625230 0.000000 
#    z 0.000000 0.000000 1.642980 
# 
# From -- ./inp_files/40025.got.cif
#   From: 2010.05.17/outbox.cif.g08.bks.cpg/sg65_21_cif.got.tgz:40025.got - 2010.06.03 17:01:31.
