data_PCOD9490461
_publ_section_title
;
Structure prediction by ZEFSAII (Michael W. Deem and Ramdas Pophale) SiO2 
 PCOD9490461
Probable space group: C M M M
;
_chemical_formula_sum "Si O2"
_cell_formula_units_Z 56
_cell_length_a 7.732260
_cell_length_b 26.966777
_cell_length_c 15.703519
_cell_angle_alpha 90.000000
_cell_angle_beta 90.000000
_cell_angle_gamma 90.000000
_cell_volume 3274.405620
_symmetry_space_group_name_H-M "C M M M"
_symmetry_group_IT_number 65
_symmetry_cell_setting 'orthorhombic'
loop_
_space_group_symop_operation_xyz
x,y,z
-x,-y,z
x,-y,-z
-x,y,-z
-x,-y,-z
x,y,-z
-x,y,z
x,-y,z
1/2+x,1/2+y,z
1/2-x,1/2-y,z
1/2+x,1/2-y,-z
1/2-x,1/2+y,-z
1/2-x,1/2-y,-z
1/2+x,1/2+y,-z
1/2-x,1/2+y,z
1/2+x,1/2-y,z
loop_
_atom_site_type_symbol
_atom_site_label
_atom_site_fract_x
_atom_site_fract_y
_atom_site_fract_z
Si Si1 0.500000 0.444519 0.301424
Si Si2 0.197437 0.594443 0.815253
Si Si3 0.000000 0.156887 0.399355
Si Si4 0.701534 0.804800 0.279370
Si Si5 0.708127 0.442217 0.000000
O O1 0.500000 0.500000 0.336308
O O2 0.334005 0.436035 0.240780
O O3 0.500000 0.400783 0.370702
O O4 0.226216 0.652069 0.790625
O O5 0.000000 0.581940 0.792423
O O6 0.226614 0.583337 0.914084
O O7 0.831491 0.181515 0.355847
O O8 0.000000 0.162450 0.500000
O O9 0.500000 0.805510 0.305084
O O10 0.750000 0.750000 0.248181
O O11 0.761497 0.500000 0.000000
O O12 0.500000 0.440626 0.000000
#
# Coordination Sequence:
#
# PCOD9490461 Si02
#       5
#     8  16   8  16   8
#     4  10  20  36  56  78 107 145 184 220 265 321
#     4  10  21  35  54  79 110 143 182 223 266 317
#     4  10  22  37  55  83 112 138 175 224 272 321
#     4  10  20  37  58  80 107 143 178 218 270 324
#     4  11  21  33  52  80 110 141 181 228 266 301
#
# _framework density 17.102340000000002
#
# number of rings (size 3 to 8) (size 9 to 14) (size 15 to 20)
#    0.000    1.857    2.857    1.286    0.000    4.286 
#    0.000    0.714    0.000    0.000    0.000    8.000 
#    0.000    0.000    0.000    0.000    0.000    0.000 
#
# Total GULP energy -156254.696015 kJ/mol
# GULP energy per Si atom -5580.524858 kJ/mol
# Density = 1.706341 g / cm^3
# Si number density = 17.102340 Si / 1000 Ang^3
#
#
#
# Elastic Constant Matrix: (Units=GPa)
#
#
# Indices 1 2 3 4 5 6 
#
# 1 118.2056 47.3608 39.5021 0.0000 0.0000 0.0000
# 2 47.3608 116.2330 38.2834 0.0000 0.0000 0.0000
# 3 39.5021 38.2834 96.3637 0.0000 0.0000 0.0000
# 4 0.0000 0.0000 0.0000 5.3278 0.0000 0.0000
# 5 0.0000 0.0000 0.0000 0.0000 13.1534 0.0000
# 6 0.0000 0.0000 0.0000 0.0000 0.0000 11.7917
#
#
#
# Elastic Compliance Matrix: (Units=1/GPa)
#
#
# Indices 1 2 3 4 5 6 
#
# 1 0.010859 -0.003404 -0.003099 0.000000 0.000000 0.000000
# 2 -0.003404 0.010966 -0.002961 0.000000 0.000000 0.000000
# 3 -0.003099 -0.002961 0.012824 0.000000 0.000000 0.000000
# 4 0.000000 0.000000 0.000000 0.187695 0.000000 0.000000
# 5 0.000000 0.000000 0.000000 0.000000 0.076026 0.000000
# 6 0.000000 0.000000 0.000000 0.000000 0.000000 0.084805
#
#
# Mechanical properties :
#
#
# Convention : Reuss Voigt Hill
#
# Bulk Modulus (GPa) = 63.61047 64.56611 64.08829
# Shear Modulus (GPa) = 12.27464 19.76499 16.01981
#
# Velocity S-wave (km/s) = 2.68193 3.40323 3.06388
# Velocity P-wave (km/s) = 6.84581 7.29914 7.07610
#
# Compressibility (1/GPa) = 0.01572068
#
# Stress axis : x y z
#
# Youngs Moduli (GPa) = 92.08596 91.19331 77.97779
#
# Poissons Ratio (x) = 0.31043 0.24167
# Poissons Ratio (y) = 0.31347 0.23090
# Poissons Ratio (z) = 0.28539 0.27003
#
# Static dielectric constant tensor:
#      x y z
#    x 1.599200 0.000000 0.000000 
#    y 0.000000 1.584690 0.000000 
#    z 0.000000 0.000000 1.525950 
# 
# From -- ./inp_files/35820.got.cif
#   From: 2010.05.17/outbox.cif.g08.bks.cpg/sg65_18_cif.got.tgz:35820.got - 2010.06.03 17:01:31.
