data_PCOD9490722
_publ_section_title
;
Structure prediction by ZEFSAII (Michael W. Deem and Ramdas Pophale) SiO2 
 PCOD9490722
Probable space group: C M M M
;
_chemical_formula_sum "Si O2"
_cell_formula_units_Z 72
_cell_length_a 24.289777
_cell_length_b 8.576554
_cell_length_c 18.300807
_cell_angle_alpha 90.000000
_cell_angle_beta 90.000000
_cell_angle_gamma 90.000000
_cell_volume 3812.471405
_symmetry_space_group_name_H-M "C M M M"
_symmetry_group_IT_number 65
_symmetry_cell_setting 'orthorhombic'
loop_
_space_group_symop_operation_xyz
x,y,z
-x,-y,z
x,-y,-z
-x,y,-z
-x,-y,-z
x,y,-z
-x,y,z
x,-y,z
1/2+x,1/2+y,z
1/2-x,1/2-y,z
1/2+x,1/2-y,-z
1/2-x,1/2+y,-z
1/2-x,1/2-y,-z
1/2+x,1/2+y,-z
1/2-x,1/2+y,z
1/2+x,1/2-y,z
loop_
_atom_site_type_symbol
_atom_site_label
_atom_site_fract_x
_atom_site_fract_y
_atom_site_fract_z
Si Si1 0.500000 0.179346 0.778898
Si Si2 0.391754 0.314622 0.849389
Si Si3 0.122436 0.310954 0.580838
Si Si4 0.935152 0.685939 0.000000
Si Si5 0.811760 0.187346 0.721406
Si Si6 0.000000 0.320579 0.605002
O O1 0.446611 0.268200 0.805978
O O2 0.500000 0.175369 0.692210
O O3 0.500000 0.000000 0.806834
O O4 0.387472 0.500000 0.857844
O O5 0.402112 0.241474 0.928654
O O6 0.342220 0.260746 0.796455
O O7 0.145489 0.273652 0.500000
O O8 0.121397 0.500000 0.587939
O O9 0.155261 0.245442 0.649883
O O10 0.058924 0.253102 0.582657
O O11 0.937831 0.500000 0.000000
O O12 0.000000 0.742347 0.000000
O O13 0.750000 0.250000 0.719010
O O14 0.811821 0.000000 0.720588
O O15 0.000000 0.500000 0.578951
#
# Coordination Sequence:
#
# PCOD9490722 Si02
#       6
#     8  16  16   8  16   8
#     4  11  19  31  58  89 119 158 196 236 288 353
#     4  11  23  39  60  89 123 156 193 242 295 347
#     4  10  20  36  60  89 121 157 197 243 295 351
#     4  11  23  37  60  95 127 158 195 231 280 350
#     4  11  25  43  63  85 113 154 204 250 297 349
#     4   9  17  31  55  88 122 155 192 235 289 354
#
# _framework density 18.885389
#
# number of rings (size 3 to 8) (size 9 to 14) (size 15 to 20)
#    0.000    1.444    3.333    2.333    0.000    5.333 
#    0.000    1.111    0.000    1.333    0.000    0.000 
#    0.000    0.000    0.000    0.000    0.000    0.000 
#
# Total GULP energy -200928.337736 kJ/mol
# GULP energy per Si atom -5581.342715 kJ/mol
# Density = 1.884240 g / cm^3
# Si number density = 18.885389 Si / 1000 Ang^3
#
#
#
# Elastic Constant Matrix: (Units=GPa)
#
#
# Indices 1 2 3 4 5 6 
#
# 1 142.5755 26.0165 82.9674 0.0000 0.0000 0.0000
# 2 26.0165 38.2353 42.0475 0.0000 0.0000 0.0000
# 3 82.9674 42.0475 193.4985 0.0000 0.0000 0.0000
# 4 0.0000 0.0000 0.0000 24.9656 0.0000 0.0000
# 5 0.0000 0.0000 0.0000 0.0000 4.6155 0.0000
# 6 0.0000 0.0000 0.0000 0.0000 0.0000 9.0877
#
#
#
# Elastic Compliance Matrix: (Units=1/GPa)
#
#
# Indices 1 2 3 4 5 6 
#
# 1 0.009541 -0.002619 -0.003522 0.000000 0.000000 0.000000
# 2 -0.002619 0.035085 -0.006501 0.000000 0.000000 0.000000
# 3 -0.003522 -0.006501 0.008091 0.000000 0.000000 0.000000
# 4 0.000000 0.000000 0.000000 0.040055 0.000000 0.000000
# 5 0.000000 0.000000 0.000000 0.000000 0.216661 0.000000
# 6 0.000000 0.000000 0.000000 0.000000 0.000000 0.110038
#
#
# Mechanical properties :
#
#
# Convention : Reuss Voigt Hill
#
# Bulk Modulus (GPa) = 36.45236 75.15248 55.80242
# Shear Modulus (GPa) = 11.01564 22.61897 16.81730
#
# Velocity S-wave (km/s) = 2.41776 3.46453 2.98735
# Velocity P-wave (km/s) = 5.20940 7.47558 6.44291
#
# Compressibility (1/GPa) = 0.02743306
#
# Stress axis : x y z
#
# Youngs Moduli (GPa) = 104.80853 28.50207 123.59725
#
# Poissons Ratio (x) = 0.07465 0.43530
# Poissons Ratio (y) = 0.27450 0.80351
# Poissons Ratio (z) = 0.36913 0.18529
#
# Static dielectric constant tensor:
#      x y z
#    x 1.629220 0.000000 0.000000 
#    y 0.000000 1.648420 0.000000 
#    z 0.000000 0.000000 1.673340 
# 
# From -- ./inp_files/64455.got.cif
#   From: 2010.05.17/outbox.cif.g08.bks.cpg/sg65_33_cif.got.tgz:64455.got - 2010.06.03 17:01:31.
