data_PCOD9490840
_publ_section_title
;
Structure prediction by ZEFSAII (Michael W. Deem and Ramdas Pophale) SiO2 
 PCOD9490840
Probable space group: C M M M
;
_chemical_formula_sum "Si O2"
_cell_formula_units_Z 58
_cell_length_a 10.264489
_cell_length_b 15.160546
_cell_length_c 17.321347
_cell_angle_alpha 90.000000
_cell_angle_beta 90.000000
_cell_angle_gamma 90.000000
_cell_volume 2695.465876
_symmetry_space_group_name_H-M "C M M M"
_symmetry_group_IT_number 65
_symmetry_cell_setting 'orthorhombic'
loop_
_space_group_symop_operation_xyz
x,y,z
-x,-y,z
x,-y,-z
-x,y,-z
-x,-y,-z
x,y,-z
-x,y,z
x,-y,z
1/2+x,1/2+y,z
1/2-x,1/2-y,z
1/2+x,1/2-y,-z
1/2-x,1/2+y,-z
1/2-x,1/2-y,-z
1/2+x,1/2+y,-z
1/2-x,1/2+y,z
1/2+x,1/2-y,z
loop_
_atom_site_type_symbol
_atom_site_label
_atom_site_fract_x
_atom_site_fract_y
_atom_site_fract_z
Si Si1 0.850877 0.608194 0.000000
Si Si2 0.500000 0.000000 0.500000
Si Si3 0.000000 0.164141 0.407278
Si Si4 0.726522 0.354829 0.295057
Si Si5 0.642781 0.604780 0.123327
Si Si6 0.000000 0.370740 0.643962
O O1 0.765116 0.637432 0.073666
O O2 0.856410 0.500000 0.000000
O O3 0.000000 0.638916 0.000000
O O4 0.500000 0.075400 0.566561
O O5 0.128409 0.125004 0.365719
O O6 0.000000 0.155289 0.500000
O O7 0.000000 0.267311 0.381564
O O8 0.750000 0.250000 0.292508
O O9 0.665852 0.382199 0.214021
O O10 0.869622 0.392226 0.309203
O O11 0.500000 0.641808 0.102104
O O12 0.637285 0.500000 0.108409
#
# Coordination Sequence:
#
# PCOD9490840 Si02
#       6
#     8   2   8  16  16   8
#     4   9  19  35  58  89 120 153 191 233 290 355
#     4  12  24  40  52  90 128 146 198 242 312 352
#     4  10  20  40  63  81 108 154 209 241 282 348
#     4  10  22  39  59  85 115 156 199 241 290 349
#     4  10  20  37  60  85 117 152 195 239 290 344
#     4  10  24  36  58  82 117 158 189 246 296 344
#
# _framework density 21.517616
#
# number of rings (size 3 to 8) (size 9 to 14) (size 15 to 20)
#    0.000    2.069    2.069    0.414    5.793    3.310 
#    0.000    0.690    0.000    1.655    0.000    0.000 
#    0.000    0.000    0.000    0.000    0.000    0.000 
#
# Total GULP energy -161688.451274 kJ/mol
# GULP energy per Si atom -5575.463837 kJ/mol
# Density = 2.146864 g / cm^3
# Si number density = 21.517616 Si / 1000 Ang^3
#
#
#
# Elastic Constant Matrix: (Units=GPa)
#
#
# Indices 1 2 3 4 5 6 
#
# 1 231.3838 16.0594 87.7943 0.0000 0.0000 0.0000
# 2 16.0594 24.5647 -5.8947 0.0000 0.0000 0.0000
# 3 87.7943 -5.8947 138.2692 0.0000 0.0000 0.0000
# 4 0.0000 0.0000 0.0000 14.2966 0.0000 0.0000
# 5 0.0000 0.0000 0.0000 0.0000 200.6004 0.0000
# 6 0.0000 0.0000 0.0000 0.0000 0.0000 -41.4654
#
#
#
# Elastic Compliance Matrix: (Units=1/GPa)
#
#
# Indices 1 2 3 4 5 6 
#
# 1 0.006269 -0.005106 -0.004198 0.000000 0.000000 0.000000
# 2 -0.005106 0.045288 0.005173 0.000000 0.000000 0.000000
# 3 -0.004198 0.005173 0.010119 0.000000 0.000000 0.000000
# 4 0.000000 0.000000 0.000000 0.069946 0.000000 0.000000
# 5 0.000000 0.000000 0.000000 0.000000 0.004985 0.000000
# 6 0.000000 0.000000 0.000000 0.000000 0.000000 -0.024116
#
#
# Mechanical properties :
#
#
# Convention : Reuss Voigt Hill
#
# Bulk Modulus (GPa) = 18.72208 65.57064 42.14636
# Shear Modulus (GPa) = 36.08592 54.43691 45.26141
#
# Velocity S-wave (km/s) = 4.09961 5.03524 4.59132
# Velocity P-wave (km/s) = 5.57932 8.02148 6.90916
#
# Compressibility (1/GPa) = 0.05341287
#
# Stress axis : x y z
#
# Youngs Moduli (GPa) = 159.51057 22.08082 98.82868
#
# Poissons Ratio (x) = 0.11274 0.41491
# Poissons Ratio (y) = 0.81446 -0.51122
# Poissons Ratio (z) = 0.66967 -0.11422
#
# Static dielectric constant tensor:
#      x y z
#    x 1.802720 0.000000 0.000000 
#    y 0.000000 1.809320 0.000000 
#    z 0.000000 0.000000 1.715950 
# 
# From -- ./inp_files/48872.got.cif
#   From: 2010.05.17/outbox.cif.g08.bks.cpg/sg65_25_cif.got.tgz:48872.got - 2010.06.03 17:01:31.
