data_PCOD9490598
_publ_section_title
;
Structure prediction by ZEFSAII (Michael W. Deem and Ramdas Pophale) SiO2 
 PCOD9490598
Probable space group: C M M M
;
_chemical_formula_sum "Si O2"
_cell_formula_units_Z 64
_cell_length_a 29.074218
_cell_length_b 7.890136
_cell_length_c 13.697578
_cell_angle_alpha 90.000000
_cell_angle_beta 90.000000
_cell_angle_gamma 90.000000
_cell_volume 3142.218012
_symmetry_space_group_name_H-M "C M M M"
_symmetry_group_IT_number 65
_symmetry_cell_setting 'orthorhombic'
loop_
_space_group_symop_operation_xyz
x,y,z
-x,-y,z
x,-y,-z
-x,y,-z
-x,-y,-z
x,y,-z
-x,y,z
x,-y,z
1/2+x,1/2+y,z
1/2-x,1/2-y,z
1/2+x,1/2-y,-z
1/2-x,1/2+y,-z
1/2-x,1/2-y,-z
1/2+x,1/2+y,-z
1/2-x,1/2+y,z
1/2+x,1/2-y,z
loop_
_atom_site_type_symbol
_atom_site_label
_atom_site_fract_x
_atom_site_fract_y
_atom_site_fract_z
Si Si1 0.944072 0.000000 0.390049
Si Si2 0.445300 0.801564 0.752765
Si Si3 0.633243 0.202239 0.107817
Si Si4 0.803485 0.798428 0.288572
Si Si5 0.304303 0.295525 0.500000
O O1 0.931096 0.831212 0.330921
O O2 0.925791 0.000000 0.500000
O O3 0.000000 0.000000 0.394888
O O4 0.500000 0.785963 0.767203
O O5 0.416747 0.753374 0.848924
O O6 0.435787 0.000000 0.728958
O O7 0.668818 0.244729 0.193346
O O8 0.634111 0.000000 0.099133
O O9 0.642321 0.274737 0.000000
O O10 0.750000 0.750000 0.279125
O O11 0.821328 0.731340 0.394255
O O12 0.806484 0.000000 0.293406
O O13 0.308768 0.500000 0.500000
O O14 0.250000 0.250000 0.500000
#
# Coordination Sequence:
#
# PCOD9490598 Si02
#       5
#     8  16  16  16   8
#     4   9  18  34  57  85 117 155 194 237 289 345
#     4   9  19  37  59  84 116 153 194 240 291 344
#     4  10  22  39  57  80 111 147 191 240 287 339
#     4  10  20  36  58  83 112 146 184 228 282 341
#     4   8  16  32  54  80 107 138 175 221 273 330
#
# _framework density 20.367778000000001
#
# number of rings (size 3 to 8) (size 9 to 14) (size 15 to 20)
#    0.000    2.625    0.000    0.750    1.750    3.000 
#    2.250    5.000    0.000    2.250    0.000    0.000 
#    0.000    0.000    0.000    0.000    0.000    0.000 
#
# Total GULP energy -178433.963755 kJ/mol
# GULP energy per Si atom -5576.061367 kJ/mol
# Density = 2.032142 g / cm^3
# Si number density = 20.367778 Si / 1000 Ang^3
#
#
#
# Elastic Constant Matrix: (Units=GPa)
#
#
# Indices 1 2 3 4 5 6 
#
# 1 67.4298 21.1505 70.6403 0.0000 0.0000 0.0000
# 2 21.1505 44.1254 55.2100 0.0000 0.0000 0.0000
# 3 70.6403 55.2100 241.3621 0.0000 0.0000 0.0000
# 4 0.0000 0.0000 0.0000 23.7453 0.0000 0.0000
# 5 0.0000 0.0000 0.0000 0.0000 31.8763 0.0000
# 6 0.0000 0.0000 0.0000 0.0000 0.0000 18.3558
#
#
#
# Elastic Compliance Matrix: (Units=1/GPa)
#
#
# Indices 1 2 3 4 5 6 
#
# 1 0.021756 -0.003448 -0.005579 0.000000 0.000000 0.000000
# 2 -0.003448 0.032296 -0.006378 0.000000 0.000000 0.000000
# 3 -0.005579 -0.006378 0.007235 0.000000 0.000000 0.000000
# 4 0.000000 0.000000 0.000000 0.042114 0.000000 0.000000
# 5 0.000000 0.000000 0.000000 0.000000 0.031371 0.000000
# 6 0.000000 0.000000 0.000000 0.000000 0.000000 0.054479
#
#
# Mechanical properties :
#
#
# Convention : Reuss Voigt Hill
#
# Bulk Modulus (GPa) = 32.81194 71.87988 52.34591
# Shear Modulus (GPa) = 21.71834 28.52324 25.12079
#
# Velocity S-wave (km/s) = 3.26898 3.74626 3.51573
# Velocity P-wave (km/s) = 5.51299 7.35393 6.49897
#
# Compressibility (1/GPa) = 0.03047671
#
# Stress axis : x y z
#
# Youngs Moduli (GPa) = 45.96403 30.96344 138.21909
#
# Poissons Ratio (x) = 0.10677 0.77108
# Poissons Ratio (y) = 0.15849 0.88161
# Poissons Ratio (z) = 0.25642 0.19750
#
# Static dielectric constant tensor:
#      x y z
#    x 1.719240 0.000000 0.000000 
#    y 0.000000 1.732250 0.000000 
#    z 0.000000 0.000000 1.824790 
# 
# From -- ./inp_files/33269.got.cif
#   From: 2010.05.17/outbox.cif.g08.bks.cpg/sg65_17_cif.got.tgz:33269.got - 2010.06.03 17:01:31.
