data_PCOD9490120
_publ_section_title
;
Structure prediction by ZEFSAII (Michael W. Deem and Ramdas Pophale) SiO2 
 PCOD9490120
Probable space group: C M M M
;
_chemical_formula_sum "Si O2"
_cell_formula_units_Z 64
_cell_length_a 8.828215
_cell_length_b 15.147864
_cell_length_c 23.545504
_cell_angle_alpha 90.000000
_cell_angle_beta 90.000000
_cell_angle_gamma 90.000000
_cell_volume 3148.707291
_symmetry_space_group_name_H-M "C M M M"
_symmetry_group_IT_number 65
_symmetry_cell_setting 'orthorhombic'
loop_
_space_group_symop_operation_xyz
x,y,z
-x,-y,z
x,-y,-z
-x,y,-z
-x,-y,-z
x,y,-z
-x,y,z
x,-y,z
1/2+x,1/2+y,z
1/2-x,1/2-y,z
1/2+x,1/2-y,-z
1/2-x,1/2+y,-z
1/2-x,1/2-y,-z
1/2+x,1/2+y,-z
1/2-x,1/2+y,z
1/2+x,1/2-y,z
loop_
_atom_site_type_symbol
_atom_site_label
_atom_site_fract_x
_atom_site_fract_y
_atom_site_fract_z
Si Si1 0.317919 0.349123 0.143712
Si Si2 0.320178 0.000000 0.067734
Si Si3 0.671460 0.608478 0.500000
Si Si4 0.831359 0.395179 0.386048
Si Si5 0.316300 0.151844 0.739018
O O1 0.500000 0.344571 0.144777
O O2 0.250000 0.250000 0.136892
O O3 0.257488 0.414009 0.095223
O O4 0.255620 0.387164 0.203867
O O5 0.500000 0.000000 0.080969
O O6 0.302489 0.000000 0.000000
O O7 0.674656 0.500000 0.500000
O O8 0.500000 0.637158 0.500000
O O9 0.746152 0.638926 0.558702
O O10 0.842885 0.500000 0.394579
O O11 0.768574 0.384317 0.322563
O O12 0.000000 0.356069 0.385294
O O13 0.500000 0.148287 0.743230
O O14 0.250000 0.250000 0.738952
#
# Coordination Sequence:
#
# PCOD9490120 Si02
#       5
#    16   8   8  16  16
#     4  11  23  41  65  94 129 169 208 254 309 365
#     4  11  25  45  69  97 129 166 209 256 303 359
#     4   9  17  29  46  71 102 135 173 229 288 341
#     4   9  18  32  51  74 100 139 184 229 283 346
#     4  10  20  35  56  81 112 149 190 238 292 350
#
# _framework density 20.325801999999999
#
# number of rings (size 3 to 8) (size 9 to 14) (size 15 to 20)
#    0.000    2.000    0.000    5.250    1.750    5.000 
#    0.000    0.625    0.000    0.000    0.000    0.000 
#    0.000    0.000    0.000    0.000    0.000    0.000 
#
# Total GULP energy -178508.518119 kJ/mol
# GULP energy per Si atom -5578.391191 kJ/mol
# Density = 2.027954 g / cm^3
# Si number density = 20.325802 Si / 1000 Ang^3
#
#
#
# Elastic Constant Matrix: (Units=GPa)
#
#
# Indices 1 2 3 4 5 6 
#
# 1 134.6524 35.8709 92.2509 0.0000 0.0000 0.0000
# 2 35.8709 64.5174 45.7318 0.0000 0.0000 0.0000
# 3 92.2509 45.7318 175.1508 0.0000 0.0000 0.0000
# 4 0.0000 0.0000 0.0000 65.9628 0.0000 0.0000
# 5 0.0000 0.0000 0.0000 0.0000 15.1030 0.0000
# 6 0.0000 0.0000 0.0000 0.0000 0.0000 18.4454
#
#
#
# Elastic Compliance Matrix: (Units=1/GPa)
#
#
# Indices 1 2 3 4 5 6 
#
# 1 0.011987 -0.002687 -0.005612 0.000000 0.000000 0.000000
# 2 -0.002687 0.019622 -0.003708 0.000000 0.000000 0.000000
# 3 -0.005612 -0.003708 0.009633 0.000000 0.000000 0.000000
# 4 0.000000 0.000000 0.000000 0.015160 0.000000 0.000000
# 5 0.000000 0.000000 0.000000 0.000000 0.066212 0.000000
# 6 0.000000 0.000000 0.000000 0.000000 0.000000 0.054214
#
#
# Mechanical properties :
#
#
# Convention : Reuss Voigt Hill
#
# Bulk Modulus (GPa) = 58.04323 80.22534 69.13428
# Shear Modulus (GPa) = 24.20309 33.26670 28.73490
#
# Velocity S-wave (km/s) = 3.45448 4.04997 3.76402
# Velocity P-wave (km/s) = 6.67305 7.83742 7.27856
#
# Compressibility (1/GPa) = 0.01722854
#
# Stress axis : x y z
#
# Youngs Moduli (GPa) = 83.42312 50.96332 103.80543
#
# Poissons Ratio (x) = 0.13692 0.58256
# Poissons Ratio (y) = 0.22413 0.38493
# Poissons Ratio (z) = 0.46817 0.18898
#
# Static dielectric constant tensor:
#      x y z
#    x 1.711450 0.000000 0.000000 
#    y 0.000000 1.078230 0.000000 
#    z 0.000000 0.000000 1.771620 
# 
# From -- ./inp_files/66792.got.cif
#   From: 2010.05.17/outbox.cif.g08.bks.cpg/sg65_34_cif.got.tgz:66792.got - 2010.06.03 17:01:31.
