data_PCOD9490416
_publ_section_title
;
Structure prediction by ZEFSAII (Michael W. Deem and Ramdas Pophale) SiO2 
 PCOD9490416
Probable space group: C M M M
;
_chemical_formula_sum "Si O2"
_cell_formula_units_Z 104
_cell_length_a 29.213028
_cell_length_b 8.979271
_cell_length_c 23.350591
_cell_angle_alpha 90.000000
_cell_angle_beta 90.000000
_cell_angle_gamma 90.000000
_cell_volume 6125.133108
_symmetry_space_group_name_H-M "C M M M"
_symmetry_group_IT_number 65
_symmetry_cell_setting 'orthorhombic'
loop_
_space_group_symop_operation_xyz
x,y,z
-x,-y,z
x,-y,-z
-x,y,-z
-x,-y,-z
x,y,-z
-x,y,z
x,-y,z
1/2+x,1/2+y,z
1/2-x,1/2-y,z
1/2+x,1/2-y,-z
1/2-x,1/2+y,-z
1/2-x,1/2-y,-z
1/2+x,1/2+y,-z
1/2-x,1/2+y,z
1/2+x,1/2-y,z
loop_
_atom_site_type_symbol
_atom_site_label
_atom_site_fract_x
_atom_site_fract_y
_atom_site_fract_z
Si Si1 0.140391 0.321868 0.162750
Si Si2 0.948184 0.179062 0.651007
Si Si3 0.199822 0.679735 0.500000
Si Si4 0.298909 0.677203 0.932517
Si Si5 0.447474 0.678461 0.214214
Si Si6 0.856883 0.320619 0.612732
Si Si7 0.200000 0.320818 0.725458
O O1 0.140344 0.500000 0.157466
O O2 0.162372 0.247944 0.107014
O O3 0.090050 0.262334 0.177177
O O4 0.172232 0.280680 0.217279
O O5 0.941729 0.217000 0.718409
O O6 0.907386 0.252420 0.615940
O O7 0.000000 0.224258 0.634798
O O8 0.945696 0.000000 0.646612
O O9 0.204196 0.500000 0.500000
O O10 0.250000 0.750000 0.500000
O O11 0.171481 0.723233 0.556551
O O12 0.296460 0.500000 0.923754
O O13 0.250000 0.750000 0.917363
O O14 0.306963 0.705554 0.000000
O O15 0.500000 0.713272 0.198660
O O16 0.441378 0.500000 0.209245
O O17 0.860561 0.500000 0.613397
O O18 0.828838 0.274447 0.669525
O O19 0.204294 0.500000 0.723950
O O20 0.250000 0.250000 0.725259
#
# Coordination Sequence:
#
# PCOD9490416 Si02
#       7
#    16  16   8  16  16  16  16
#     4  11  21  33  52  80 110 140 176 217 266 319
#     4   9  18  33  54  80 106 135 173 215 263 318
#     4  10  22  38  57  76 101 139 182 223 261 314
#     4  10  21  37  56  78 107 145 185 222 262 310
#     4   9  18  33  53  78 108 140 175 216 265 321
#     4  10  20  36  53  75 104 136 176 219 264 315
#     4  10  21  33  47  72 104 134 168 212 261 312
#
# _framework density 16.979222
#
# number of rings (size 3 to 8) (size 9 to 14) (size 15 to 20)
#    0.000    2.154    1.538    2.769    0.000    5.231 
#    0.000    1.923    0.000    2.769    0.000    3.231 
#    0.000    0.000    0.000    0.000    0.000    0.000 
#
# Total GULP energy -290274.209333 kJ/mol
# GULP energy per Si atom -5582.196333 kJ/mol
# Density = 1.694058 g / cm^3
# Si number density = 16.979222 Si / 1000 Ang^3
#
#
#
# Elastic Constant Matrix: (Units=GPa)
#
#
# Indices 1 2 3 4 5 6 
#
# 1 165.5512 53.5689 72.6108 0.0000 0.0000 0.0000
# 2 53.5689 31.4097 41.9225 0.0000 0.0000 0.0000
# 3 72.6108 41.9225 83.0134 0.0000 0.0000 0.0000
# 4 0.0000 0.0000 0.0000 13.4201 0.0000 0.0000
# 5 0.0000 0.0000 0.0000 0.0000 32.5642 0.0000
# 6 0.0000 0.0000 0.0000 0.0000 0.0000 37.4782
#
#
#
# Elastic Compliance Matrix: (Units=1/GPa)
#
#
# Indices 1 2 3 4 5 6 
#
# 1 0.013487 -0.022262 -0.000555 0.000000 0.000000 0.000000
# 2 -0.022262 0.134416 -0.048409 0.000000 0.000000 0.000000
# 3 -0.000555 -0.048409 0.036978 0.000000 0.000000 0.000000
# 4 0.000000 0.000000 0.000000 0.074515 0.000000 0.000000
# 5 0.000000 0.000000 0.000000 0.000000 0.030709 0.000000
# 6 0.000000 0.000000 0.000000 0.000000 0.000000 0.026682
#
#
# Mechanical properties :
#
#
# Convention : Reuss Voigt Hill
#
# Bulk Modulus (GPa) = 23.56795 68.46431 46.01613
# Shear Modulus (GPa) = 10.56228 24.15064 17.35646
#
# Velocity S-wave (km/s) = 2.49684 3.77552 3.20068
# Velocity P-wave (km/s) = 4.71412 7.70818 6.38901
#
# Compressibility (1/GPa) = 0.04243050
#
# Stress axis : x y z
#
# Youngs Moduli (GPa) = 74.14442 7.43957 27.04286
#
# Poissons Ratio (x) = 0.16562 0.01500
# Poissons Ratio (y) = 1.65061 1.30912
# Poissons Ratio (z) = 0.04112 0.36014
#
# Static dielectric constant tensor:
#      x y z
#    x 1.550900 0.000000 0.000000 
#    y 0.000000 1.566650 0.000000 
#    z 0.000000 0.000000 1.564360 
# 
# From -- ./inp_files/60409.got.cif
#   From: 2010.05.17/outbox.cif.g08.bks.cpg/sg65_31_cif.got.tgz:60409.got - 2010.06.03 17:01:31.
