data_PCOD9490764
_publ_section_title
;
Structure prediction by ZEFSAII (Michael W. Deem and Ramdas Pophale) SiO2 
 PCOD9490764
Probable space group: C M M M
;
_chemical_formula_sum "Si O2"
_cell_formula_units_Z 50
_cell_length_a 7.665987
_cell_length_b 23.762865
_cell_length_c 13.757466
_cell_angle_alpha 90.000000
_cell_angle_beta 90.000000
_cell_angle_gamma 90.000000
_cell_volume 2506.139995
_symmetry_space_group_name_H-M "C M M M"
_symmetry_group_IT_number 65
_symmetry_cell_setting 'orthorhombic'
loop_
_space_group_symop_operation_xyz
x,y,z
-x,-y,z
x,-y,-z
-x,y,-z
-x,-y,-z
x,y,-z
-x,y,z
x,-y,z
1/2+x,1/2+y,z
1/2-x,1/2-y,z
1/2+x,1/2-y,-z
1/2-x,1/2+y,-z
1/2-x,1/2-y,-z
1/2+x,1/2+y,-z
1/2-x,1/2+y,z
1/2+x,1/2-y,z
loop_
_atom_site_type_symbol
_atom_site_label
_atom_site_fract_x
_atom_site_fract_y
_atom_site_fract_z
Si Si1 0.209271 0.184104 0.394534
Si Si2 0.306607 0.000000 0.157802
Si Si3 0.290477 0.316894 0.000000
Si Si4 0.212862 0.877829 0.798934
Si Si5 0.500000 0.500000 0.000000
O O1 0.274532 0.162916 0.500000
O O2 0.250000 0.250000 0.390389
O O3 0.272978 0.156275 0.295444
O O4 0.000000 0.177213 0.394701
O O5 0.281444 0.058988 0.211957
O O6 0.500000 0.000000 0.115035
O O7 0.151651 0.000000 0.081872
O O8 0.250000 0.250000 0.000000
O O9 0.230397 0.348573 0.901144
O O10 0.500000 0.321980 0.000000
O O11 0.000000 0.878904 0.801785
#
# Coordination Sequence:
#
# PCOD9490764 Si02
#       5
#    16   8   8  16   2
#     4   9  18  33  56  85 116 158 204 247 304 362
#     4  12  25  39  64  91 114 162 210 245 304 360
#     4  10  21  33  52  78 109 149 186 231 302 354
#     4  10  20  37  57  79 119 159 194 251 304 354
#     4  12  22  44  60  82 126 152 198 260 280 350
#
# _framework density 19.951001000000002
#
# number of rings (size 3 to 8) (size 9 to 14) (size 15 to 20)
#    0.000    1.920    1.600    2.160    2.240    2.560 
#    0.000    0.800    0.000    4.800    0.000    0.000 
#    0.000    0.000    0.000    0.000    0.000    0.000 
#
# Total GULP energy -139186.747111 kJ/mol
# GULP energy per Si atom -5567.469884 kJ/mol
# Density = 1.990559 g / cm^3
# Si number density = 19.951001 Si / 1000 Ang^3
#
#
#
# Elastic Constant Matrix: (Units=GPa)
#
#
# Indices 1 2 3 4 5 6 
#
# 1 76.2507 -3.1074 20.4908 0.0000 0.0000 0.0000
# 2 -3.1074 132.0127 96.4163 0.0000 0.0000 0.0000
# 3 20.4908 96.4163 207.5029 0.0000 0.0000 0.0000
# 4 0.0000 0.0000 0.0000 106.1500 0.0000 0.0000
# 5 0.0000 0.0000 0.0000 0.0000 0.4522 0.0000
# 6 0.0000 0.0000 0.0000 0.0000 0.0000 10.6230
#
#
#
# Elastic Compliance Matrix: (Units=1/GPa)
#
#
# Indices 1 2 3 4 5 6 
#
# 1 0.013812 0.002000 -0.002293 0.000000 0.000000 0.000000
# 2 0.002000 0.011756 -0.005660 0.000000 0.000000 0.000000
# 3 -0.002293 -0.005660 0.007676 0.000000 0.000000 0.000000
# 4 0.000000 0.000000 0.000000 0.009421 0.000000 0.000000
# 5 0.000000 0.000000 0.000000 0.000000 2.211305 0.000000
# 6 0.000000 0.000000 0.000000 0.000000 0.000000 0.094136
#
#
# Mechanical properties :
#
#
# Convention : Reuss Voigt Hill
#
# Bulk Modulus (GPa) = 46.86567 71.48505 59.17536
# Shear Modulus (GPa) = 2.11227 43.57615 22.84421
#
# Velocity S-wave (km/s) = 1.03006 4.67857 3.38748
# Velocity P-wave (km/s) = 4.99561 8.06805 6.71005
#
# Compressibility (1/GPa) = 0.02133758
#
# Stress axis : x y z
#
# Youngs Moduli (GPa) = 72.39860 85.06428 130.28430
#
# Poissons Ratio (x) = -0.17013 0.29878
# Poissons Ratio (y) = -0.14480 0.73739
# Poissons Ratio (z) = 0.16603 0.48145
#
# Static dielectric constant tensor:
#      x y z
#    x 1.719010 0.000000 0.000000 
#    y 0.000000 1.670350 0.000000 
#    z 0.000000 0.000000 1.711410 
# 
# From -- ./inp_files/35357.got.cif
#   From: 2010.05.17/outbox.cif.g08.bks.cpg/sg65_18_cif.got.tgz:35357.got - 2010.06.03 17:01:31.
