data_PCOD9490902
_publ_section_title
;
Structure prediction by ZEFSAII (Michael W. Deem and Ramdas Pophale) SiO2 
 PCOD9490902
Probable space group: C M M M
;
_chemical_formula_sum "Si O2"
_cell_formula_units_Z 64
_cell_length_a 24.338224
_cell_length_b 8.658342
_cell_length_c 15.774749
_cell_angle_alpha 90.000000
_cell_angle_beta 90.000000
_cell_angle_gamma 90.000000
_cell_volume 3324.191830
_symmetry_space_group_name_H-M "C M M M"
_symmetry_group_IT_number 65
_symmetry_cell_setting 'orthorhombic'
loop_
_space_group_symop_operation_xyz
x,y,z
-x,-y,z
x,-y,-z
-x,y,-z
-x,-y,-z
x,y,-z
-x,y,z
x,-y,z
1/2+x,1/2+y,z
1/2-x,1/2-y,z
1/2+x,1/2-y,-z
1/2-x,1/2+y,-z
1/2-x,1/2-y,-z
1/2+x,1/2+y,-z
1/2-x,1/2+y,z
1/2+x,1/2-y,z
loop_
_atom_site_type_symbol
_atom_site_label
_atom_site_fract_x
_atom_site_fract_y
_atom_site_fract_z
Si Si1 0.500000 0.812173 0.097922
Si Si2 0.381472 0.187070 0.835374
Si Si3 0.811400 0.684386 0.500000
Si Si4 0.500000 0.817794 0.397813
Si Si5 0.311182 0.813830 0.000000
Si Si6 0.617375 0.683790 0.654066
O O1 0.444113 0.765056 0.143697
O O2 0.500000 0.000000 0.096363
O O3 0.500000 0.761173 0.000000
O O4 0.344121 0.232726 0.915357
O O5 0.364378 0.260826 0.746909
O O6 0.380199 0.000000 0.828266
O O7 0.810287 0.500000 0.500000
O O8 0.750000 0.750000 0.500000
O O9 0.844360 0.743212 0.582033
O O10 0.500000 0.801537 0.500000
O O11 0.444732 0.742679 0.361904
O O12 0.500000 0.000000 0.377103
O O13 0.250000 0.750000 0.000000
O O14 0.309824 0.000000 0.000000
O O15 0.619001 0.500000 0.647508
#
# Coordination Sequence:
#
# PCOD9490902 Si02
#       6
#     8  16   8   8   8  16
#     4   9  15  30  60  91 117 149 198 255 311 364
#     4  10  20  37  62  91 122 159 206 256 310 371
#     4  12  26  47  70  93 122 162 212 262 314 370
#     4  11  22  39  66  95 126 168 211 254 310 373
#     4  10  22  39  61  87 119 162 210 258 304 358
#     4  12  25  41  64  96 132 167 205 256 316 375
#
# _framework density 19.252800000000001
#
# number of rings (size 3 to 8) (size 9 to 14) (size 15 to 20)
#    0.000    1.250    2.500    4.500    0.000    3.500 
#    0.000    2.500    0.000    0.750    0.000    0.000 
#    0.000    0.000    0.000    0.000    0.000    0.000 
#
# Total GULP energy -178982.509969 kJ/mol
# GULP energy per Si atom -5593.203437 kJ/mol
# Density = 1.920898 g / cm^3
# Si number density = 19.252800 Si / 1000 Ang^3
#
#
#
# Elastic Constant Matrix: (Units=GPa)
#
#
# Indices 1 2 3 4 5 6 
#
# 1 160.7698 54.3734 94.4807 0.0000 0.0000 0.0000
# 2 54.3734 107.8444 74.7402 0.0000 0.0000 0.0000
# 3 94.4807 74.7402 193.6889 0.0000 0.0000 0.0000
# 4 0.0000 0.0000 0.0000 12.4363 0.0000 0.0000
# 5 0.0000 0.0000 0.0000 0.0000 -5.0551 0.0000
# 6 0.0000 0.0000 0.0000 0.0000 0.0000 32.3362
#
#
#
# Elastic Compliance Matrix: (Units=1/GPa)
#
#
# Indices 1 2 3 4 5 6 
#
# 1 0.009040 -0.002050 -0.003619 0.000000 0.000000 0.000000
# 2 -0.002050 0.013122 -0.004064 0.000000 0.000000 0.000000
# 3 -0.003619 -0.004064 0.008496 0.000000 0.000000 0.000000
# 4 0.000000 0.000000 0.000000 0.080410 0.000000 0.000000
# 5 0.000000 0.000000 0.000000 0.000000 -0.197821 0.000000
# 6 0.000000 0.000000 0.000000 0.000000 0.000000 0.030925
#
#
# Mechanical properties :
#
#
# Convention : Reuss Voigt Hill
#
# Bulk Modulus (GPa) = 89.33343 101.05465 95.19404
# Shear Modulus (GPa) = -153.22669 23.85740 -64.68465
#
# Velocity S-wave (km/s) = -8.93082 3.52400 -5.80263
# Velocity P-wave (km/s) = 7.73596 8.31627 2.15816
#
# Compressibility (1/GPa) = 0.01119402
#
# Stress axis : x y z
#
# Youngs Moduli (GPa) = 110.61981 76.20510 117.70015
#
# Poissons Ratio (x) = 0.15622 0.42591
# Poissons Ratio (y) = 0.22677 0.47830
# Poissons Ratio (z) = 0.40029 0.30968
#
# Static dielectric constant tensor:
#      x y z
#    x 1.640020 0.000000 0.000000 
#    y 0.000000 1.647350 0.000000 
#    z 0.000000 0.000000 1.664280 
# 
# From -- ./inp_files/36075.got.cif
#   From: 2010.05.17/outbox.cif.g08.bks.cpg/sg65_19_cif.got.tgz:36075.got - 2010.06.03 17:01:31.
