data_PCOD9490578
_publ_section_title
;
Structure prediction by ZEFSAII (Michael W. Deem and Ramdas Pophale) SiO2 
 PCOD9490578
Probable space group: C M M M
;
_chemical_formula_sum "Si O2"
_cell_formula_units_Z 104
_cell_length_a 8.502394
_cell_length_b 26.445210
_cell_length_c 27.081552
_cell_angle_alpha 90.000000
_cell_angle_beta 90.000000
_cell_angle_gamma 90.000000
_cell_volume 6089.221832
_symmetry_space_group_name_H-M "C M M M"
_symmetry_group_IT_number 65
_symmetry_cell_setting 'orthorhombic'
loop_
_space_group_symop_operation_xyz
x,y,z
-x,-y,z
x,-y,-z
-x,y,-z
-x,-y,-z
x,y,-z
-x,y,z
x,-y,z
1/2+x,1/2+y,z
1/2-x,1/2-y,z
1/2+x,1/2-y,-z
1/2-x,1/2+y,-z
1/2-x,1/2-y,-z
1/2+x,1/2+y,-z
1/2-x,1/2+y,z
1/2+x,1/2-y,z
loop_
_atom_site_type_symbol
_atom_site_label
_atom_site_fract_x
_atom_site_fract_y
_atom_site_fract_z
Si Si1 0.189553 0.559057 0.395882
Si Si2 0.192249 0.598054 0.290819
Si Si3 0.688584 0.597965 0.057075
Si Si4 0.189674 0.694868 0.229962
Si Si5 0.312584 0.440873 0.500000
Si Si6 0.188806 0.500000 0.885333
Si Si7 0.811269 0.694461 0.884453
Si Si8 0.191875 0.500000 0.228449
O O1 0.239535 0.500000 0.390741
O O2 0.242235 0.588925 0.347209
O O3 0.249895 0.579886 0.448138
O O4 0.000000 0.559149 0.396915
O O5 0.244839 0.649801 0.265267
O O6 0.241368 0.550119 0.257760
O O7 0.000000 0.598211 0.290802
O O8 0.500000 0.596498 0.058192
O O9 0.752848 0.550003 0.086964
O O10 0.746041 0.649689 0.082053
O O11 0.740313 0.595332 0.000000
O O12 0.250000 0.750000 0.244759
O O13 0.237572 0.685879 0.172855
O O14 0.000000 0.695330 0.230655
O O15 0.260703 0.500000 0.500000
O O16 0.500000 0.439180 0.500000
O O17 0.243185 0.500000 0.828314
O O18 0.000000 0.500000 0.885201
O O19 0.750000 0.750000 0.898994
O O20 0.000000 0.694156 0.886446
O O21 0.000000 0.500000 0.228465
#
# Coordination Sequence:
#
# PCOD9490578 Si02
#       8
#    16  16  16  16   8   8  16   8
#     4   9  15  25  43  67  91 121 162 201 234 276
#     4   9  15  26  46  72 100 126 156 199 243 282
#     4  11  24  40  56  75 102 135 170 210 254 300
#     4   9  18  32  50  73 100 130 163 197 239 291
#     4   9  17  27  39  57  90 133 162 191 236 284
#     4  11  22  36  57  80 103 135 172 208 247 300
#     4  10  20  36  58  82 105 132 165 206 254 307
#     4   9  16  28  48  76 103 124 153 196 247 294
#
# _framework density 17.079359
#
# number of rings (size 3 to 8) (size 9 to 14) (size 15 to 20)
#    0.000    2.385    0.769    2.538    0.000    6.462 
#    0.000    0.769    0.000    1.846    0.000    0.538 
#    0.000    0.000    0.000    0.000    0.000    0.000 
#
# Total GULP energy -290092.287675 kJ/mol
# GULP energy per Si atom -5578.697840 kJ/mol
# Density = 1.704049 g / cm^3
# Si number density = 17.079359 Si / 1000 Ang^3
#
#
#
# Elastic Constant Matrix: (Units=GPa)
#
#
# Indices 1 2 3 4 5 6 
#
# 1 15.3711 19.2987 27.3362 0.0000 0.0000 0.0000
# 2 19.2987 120.8259 98.2607 0.0000 0.0000 0.0000
# 3 27.3362 98.2607 172.5795 0.0000 0.0000 0.0000
# 4 0.0000 0.0000 0.0000 -1.9264 0.0000 0.0000
# 5 0.0000 0.0000 0.0000 0.0000 8.6582 0.0000
# 6 0.0000 0.0000 0.0000 0.0000 0.0000 25.8763
#
#
#
# Elastic Compliance Matrix: (Units=1/GPa)
#
#
# Indices 1 2 3 4 5 6 
#
# 1 0.092369 -0.005317 -0.011604 0.000000 0.000000 0.000000
# 2 -0.005317 0.015719 -0.008108 0.000000 0.000000 0.000000
# 3 -0.011604 -0.008108 0.012249 0.000000 0.000000 0.000000
# 4 0.000000 0.000000 0.000000 -0.519090 0.000000 0.000000
# 5 0.000000 0.000000 0.000000 0.000000 0.115497 0.000000
# 6 0.000000 0.000000 0.000000 0.000000 0.000000 0.038645
#
#
# Mechanical properties :
#
#
# Convention : Reuss Voigt Hill
#
# Bulk Modulus (GPa) = 14.22881 66.50754 40.36817
# Shear Modulus (GPa) = -29.21793 17.44700 -5.88547
#
# Velocity S-wave (km/s) = -4.14057 3.19960 -1.85834
# Velocity P-wave (km/s) = 3.80920 7.25774 4.36834
#
# Compressibility (1/GPa) = 0.07027996
#
# Stress axis : x y z
#
# Youngs Moduli (GPa) = 10.82617 63.61651 81.64089
#
# Poissons Ratio (x) = 0.33823 0.94735
# Poissons Ratio (y) = 0.05756 0.66193
# Poissons Ratio (z) = 0.12563 0.51579
#
# Static dielectric constant tensor:
#      x y z
#    x 1.584450 0.000000 0.000000 
#    y 0.000000 1.547630 0.000000 
#    z 0.000000 0.000000 1.587640 
# 
# From -- ./inp_files/73652.got.cif
#   From: 2010.05.17/outbox.cif.g08.bks.cpg/sg65_37_cif.got.tgz:73652.got - 2010.06.03 17:01:31.
