data_PCOD9490173
_publ_section_title
;
Structure prediction by ZEFSAII (Michael W. Deem and Ramdas Pophale) SiO2 
 PCOD9490173
Probable space group: C M M M
;
_chemical_formula_sum "Si O2"
_cell_formula_units_Z 68
_cell_length_a 18.781715
_cell_length_b 9.678719
_cell_length_c 19.090967
_cell_angle_alpha 90.000000
_cell_angle_beta 90.000000
_cell_angle_gamma 90.000000
_cell_volume 3470.412144
_symmetry_space_group_name_H-M "C M M M"
_symmetry_group_IT_number 65
_symmetry_cell_setting 'orthorhombic'
loop_
_space_group_symop_operation_xyz
x,y,z
-x,-y,z
x,-y,-z
-x,y,-z
-x,-y,-z
x,y,-z
-x,y,z
x,-y,z
1/2+x,1/2+y,z
1/2-x,1/2-y,z
1/2+x,1/2-y,-z
1/2-x,1/2+y,-z
1/2-x,1/2-y,-z
1/2+x,1/2+y,-z
1/2-x,1/2+y,z
1/2+x,1/2-y,z
loop_
_atom_site_type_symbol
_atom_site_label
_atom_site_fract_x
_atom_site_fract_y
_atom_site_fract_z
Si Si1 0.916755 0.660405 0.584042
Si Si2 0.318901 0.656448 0.319115
Si Si3 0.421879 0.264011 0.798335
Si Si4 0.678930 0.162914 0.083116
Si Si5 0.500000 0.000000 0.748425
O O1 0.911874 0.672835 0.500000
O O2 0.900680 0.500000 0.601889
O O3 0.866130 0.768455 0.621585
O O4 0.000000 0.681617 0.603694
O O5 0.299853 0.500000 0.338974
O O6 0.250000 0.750000 0.306769
O O7 0.367192 0.654850 0.249669
O O8 0.500000 0.329340 0.808310
O O9 0.385367 0.222248 0.871024
O O10 0.439286 0.121777 0.757124
O O11 0.750000 0.250000 0.099083
O O12 0.688954 0.000000 0.098792
O O13 0.665012 0.175541 0.000000
#
# Coordination Sequence:
#
# PCOD9490173 Si02
#       5
#    16  16  16  16   4
#     4   9  20  40  67  94 121 156 194 234 285 345
#     4  12  27  40  60  87 118 158 197 243 293 344
#     4  10  21  37  60  84 115 149 195 239 293 346
#     4  10  20  35  56  83 115 151 193 238 289 347
#     4   8  20  36  59  88 109 160 180 244 304 338
#
# _framework density 19.594214999999998
#
# number of rings (size 3 to 8) (size 9 to 14) (size 15 to 20)
#    0.706    1.176    1.176    2.824    3.294    6.118 
#    0.000    2.941    0.000    0.000    0.000    4.941 
#    0.000    0.000    0.000    0.000    0.000    0.000 
#
# Total GULP energy -189280.307160 kJ/mol
# GULP energy per Si atom -5567.067858 kJ/mol
# Density = 1.954962 g / cm^3
# Si number density = 19.594215 Si / 1000 Ang^3
#
#
#
# Elastic Constant Matrix: (Units=GPa)
#
#
# Indices 1 2 3 4 5 6 
#
# 1 134.2373 74.0169 58.2438 0.0000 0.0000 0.0000
# 2 74.0169 124.7991 36.3227 0.0000 0.0000 0.0000
# 3 58.2438 36.3227 76.5647 0.0000 0.0000 0.0000
# 4 0.0000 0.0000 0.0000 20.8496 0.0000 0.0000
# 5 0.0000 0.0000 0.0000 0.0000 33.8744 0.0000
# 6 0.0000 0.0000 0.0000 0.0000 0.0000 25.7902
#
#
#
# Elastic Compliance Matrix: (Units=1/GPa)
#
#
# Indices 1 2 3 4 5 6 
#
# 1 0.014300 -0.006167 -0.007953 0.000000 0.000000 0.000000
# 2 -0.006167 0.011956 -0.000981 0.000000 0.000000 0.000000
# 3 -0.007953 -0.000981 0.019576 0.000000 0.000000 0.000000
# 4 0.000000 0.000000 0.000000 0.047963 0.000000 0.000000
# 5 0.000000 0.000000 0.000000 0.000000 0.029521 0.000000
# 6 0.000000 0.000000 0.000000 0.000000 0.000000 0.038774
#
#
# Mechanical properties :
#
#
# Convention : Reuss Voigt Hill
#
# Bulk Modulus (GPa) = 63.97425 74.75196 69.36310
# Shear Modulus (GPa) = 25.31626 27.23736 26.27681
#
# Velocity S-wave (km/s) = 3.59838 3.73241 3.66601
# Velocity P-wave (km/s) = 7.07000 7.53707 7.30726
#
# Compressibility (1/GPa) = 0.01563129
#
# Stress axis : x y z
#
# Youngs Moduli (GPa) = 69.92778 83.64192 51.08268
#
# Poissons Ratio (x) = 0.51580 0.40626
# Poissons Ratio (y) = 0.43122 0.05010
# Poissons Ratio (z) = 0.55614 0.08203
#
# Static dielectric constant tensor:
#      x y z
#    x 1.674460 0.000000 0.000000 
#    y 0.000000 1.672240 0.000000 
#    z 0.000000 0.000000 1.718500 
# 
# From -- ./inp_files/63353.got.cif
#   From: 2010.05.17/outbox.cif.g08.bks.cpg/sg65_32_cif.got.tgz:63353.got - 2010.06.03 17:01:31.
