data_PCOD9490421
_publ_section_title
;
Structure prediction by ZEFSAII (Michael W. Deem and Ramdas Pophale) SiO2 
 PCOD9490421
Probable space group: C M M M
;
_chemical_formula_sum "Si O2"
_cell_formula_units_Z 80
_cell_length_a 28.571262
_cell_length_b 8.790240
_cell_length_c 19.015947
_cell_angle_alpha 90.000000
_cell_angle_beta 90.000000
_cell_angle_gamma 90.000000
_cell_volume 4775.821813
_symmetry_space_group_name_H-M "C M M M"
_symmetry_group_IT_number 65
_symmetry_cell_setting 'orthorhombic'
loop_
_space_group_symop_operation_xyz
x,y,z
-x,-y,z
x,-y,-z
-x,y,-z
-x,-y,-z
x,y,-z
-x,y,z
x,-y,z
1/2+x,1/2+y,z
1/2-x,1/2-y,z
1/2+x,1/2-y,-z
1/2-x,1/2+y,-z
1/2-x,1/2-y,-z
1/2+x,1/2+y,-z
1/2-x,1/2+y,z
1/2+x,1/2-y,z
loop_
_atom_site_type_symbol
_atom_site_label
_atom_site_fract_x
_atom_site_fract_y
_atom_site_fract_z
Si Si1 0.056442 0.819974 0.579490
Si Si2 0.055417 0.183926 0.153919
Si Si3 0.697871 0.317360 0.654701
Si Si4 0.443283 0.678833 0.000000
Si Si5 0.108481 0.319394 0.713173
Si Si6 0.802035 0.182476 0.500000
O O1 0.070095 0.771108 0.500000
O O2 0.080095 0.734595 0.643973
O O3 0.000000 0.806395 0.584231
O O4 0.068000 0.000000 0.585222
O O5 0.082716 0.257339 0.217925
O O6 0.000000 0.216160 0.160918
O O7 0.060351 0.000000 0.156304
O O8 0.071488 0.239737 0.076253
O O9 0.700032 0.500000 0.658974
O O10 0.750000 0.250000 0.662305
O O11 0.660343 0.250691 0.707883
O O12 0.678744 0.273625 0.576169
O O13 0.430973 0.500000 0.000000
O O14 0.500000 0.685676 0.000000
O O15 0.110860 0.500000 0.714240
O O16 0.750000 0.250000 0.500000
O O17 0.799991 0.000000 0.500000
#
# Coordination Sequence:
#
# PCOD9490421 Si02
#       6
#    16  16  16   8  16   8
#     4   9  19  36  54  69  90 127 174 218 257 297
#     4   9  17  32  54  78 104 135 170 208 250 297
#     4  10  20  36  54  73  96 126 165 212 262 308
#     4   7  12  26  51  79 102 127 164 207 249 295
#     4  12  24  33  46  73 105 137 170 205 249 301
#     4   8  16  30  50  70  87 112 149 198 252 301
#
# _framework density 16.751044
#
# number of rings (size 3 to 8) (size 9 to 14) (size 15 to 20)
#    0.000    2.500    0.000    4.800    1.400    4.400 
#    0.000    1.500    0.000    1.800    0.000    0.700 
#    0.000    0.000    0.000    0.000    0.000    0.000 
#
# Total GULP energy -222998.522454 kJ/mol
# GULP energy per Si atom -5574.963061 kJ/mol
# Density = 1.671292 g / cm^3
# Si number density = 16.751044 Si / 1000 Ang^3
#
#
#
# Elastic Constant Matrix: (Units=GPa)
#
#
# Indices 1 2 3 4 5 6 
#
# 1 69.4629 46.2013 70.8482 0.0000 0.0000 0.0000
# 2 46.2013 54.8394 58.0255 0.0000 0.0000 0.0000
# 3 70.8482 58.0255 157.3939 0.0000 0.0000 0.0000
# 4 0.0000 0.0000 0.0000 4.5483 0.0000 0.0000
# 5 0.0000 0.0000 0.0000 0.0000 16.5533 0.0000
# 6 0.0000 0.0000 0.0000 0.0000 0.0000 22.0475
#
#
#
# Elastic Compliance Matrix: (Units=1/GPa)
#
#
# Indices 1 2 3 4 5 6 
#
# 1 0.039194 -0.023532 -0.008967 0.000000 0.000000 0.000000
# 2 -0.023532 0.044026 -0.005638 0.000000 0.000000 0.000000
# 3 -0.008967 -0.005638 0.012468 0.000000 0.000000 0.000000
# 4 0.000000 0.000000 0.000000 0.219862 0.000000 0.000000
# 5 0.000000 0.000000 0.000000 0.000000 0.060411 0.000000
# 6 0.000000 0.000000 0.000000 0.000000 0.000000 0.045357
#
#
# Mechanical properties :
#
#
# Convention : Reuss Voigt Hill
#
# Bulk Modulus (GPa) = 51.50995 70.20512 60.85754
# Shear Modulus (GPa) = 9.91937 15.73791 12.82864
#
# Velocity S-wave (km/s) = 2.43608 3.06848 2.77039
# Velocity P-wave (km/s) = 6.22332 7.38620 6.82956
#
# Compressibility (1/GPa) = 0.01941372
#
# Stress axis : x y z
#
# Youngs Moduli (GPa) = 25.51437 22.71359 80.20247
#
# Poissons Ratio (x) = 0.53450 0.71917
# Poissons Ratio (y) = 0.60041 0.45221
# Poissons Ratio (z) = 0.22878 0.12807
#
# Static dielectric constant tensor:
#      x y z
#    x 1.559550 0.000000 0.000000 
#    y 0.000000 1.550780 0.000000 
#    z 0.000000 0.000000 1.589710 
# 
# From -- ./inp_files/49924.got.cif
#   From: 2010.05.17/outbox.cif.g08.bks.cpg/sg65_25_cif.got.tgz:49924.got - 2010.06.03 17:01:31.
