data_PCOD9490088
_publ_section_title
;
Structure prediction by ZEFSAII (Michael W. Deem and Ramdas Pophale) SiO2 
 PCOD9490088
Probable space group: C M M M
;
_chemical_formula_sum "Si O2"
_cell_formula_units_Z 104
_cell_length_a 32.354028
_cell_length_b 8.112972
_cell_length_c 20.042915
_cell_angle_alpha 90.000000
_cell_angle_beta 90.000000
_cell_angle_gamma 90.000000
_cell_volume 5261.011109
_symmetry_space_group_name_H-M "C M M M"
_symmetry_group_IT_number 65
_symmetry_cell_setting 'orthorhombic'
loop_
_space_group_symop_operation_xyz
x,y,z
-x,-y,z
x,-y,-z
-x,y,-z
-x,-y,-z
x,y,-z
-x,y,z
x,-y,z
1/2+x,1/2+y,z
1/2-x,1/2-y,z
1/2+x,1/2-y,-z
1/2-x,1/2+y,-z
1/2-x,1/2-y,-z
1/2+x,1/2+y,-z
1/2-x,1/2+y,z
1/2+x,1/2-y,z
loop_
_atom_site_type_symbol
_atom_site_label
_atom_site_fract_x
_atom_site_fract_y
_atom_site_fract_z
Si Si1 0.295342 0.197017 0.793314
Si Si2 0.454891 0.306264 0.217397
Si Si3 0.570147 0.806258 0.924794
Si Si4 0.836219 0.195415 0.074416
Si Si5 0.372406 0.803483 0.291349
Si Si6 0.909849 0.297247 0.576137
Si Si7 0.500000 0.188009 0.418814
O O1 0.250000 0.250000 0.771173
O O2 0.304906 0.256956 0.867958
O O3 0.332819 0.263797 0.747717
O O4 0.297179 0.000000 0.793519
O O5 0.500000 0.240619 0.239167
O O6 0.453524 0.500000 0.231817
O O7 0.450780 0.280929 0.137697
O O8 0.414924 0.227095 0.251530
O O9 0.619609 0.783764 0.916054
O O10 0.560200 0.000000 0.921591
O O11 0.560014 0.746444 0.000000
O O12 0.844332 0.000000 0.077652
O O13 0.821126 0.235987 0.000000
O O14 0.378503 0.742748 0.366903
O O15 0.367068 0.000000 0.295243
O O16 0.901333 0.247080 0.500000
O O17 0.911642 0.500000 0.575754
O O18 0.955715 0.236791 0.597626
O O19 0.500000 0.179347 0.500000
O O20 0.500000 0.000000 0.393366
#
# Coordination Sequence:
#
# PCOD9490088 Si02
#       7
#    16  16  16  16  16  16   8
#     4  11  23  38  57  82 110 143 186 232 282 337
#     4  11  24  38  53  77 111 152 193 229 274 331
#     4  10  20  35  56  80 107 142 186 235 280 323
#     4  10  20  35  57  83 111 144 179 220 276 337
#     4  10  21  36  57  84 110 141 184 232 280 330
#     4   8  14  26  47  78 113 143 175 221 273 323
#     4   7  10  18  36  68 107 139 166 201 254 315
#
# _framework density 19.768063999999999
#
# number of rings (size 3 to 8) (size 9 to 14) (size 15 to 20)
#    0.000    2.231    1.538    2.769    1.077    4.308 
#    0.000    1.538    0.000    0.923    0.000    1.077 
#    0.000    0.000    0.000    0.000    0.000    0.154 
#
# Total GULP energy -290238.185292 kJ/mol
# GULP energy per Si atom -5581.503563 kJ/mol
# Density = 1.972307 g / cm^3
# Si number density = 19.768064 Si / 1000 Ang^3
#
#
#
# Elastic Constant Matrix: (Units=GPa)
#
#
# Indices 1 2 3 4 5 6 
#
# 1 119.0410 0.9919 63.7413 0.0000 0.0000 0.0000
# 2 0.9919 19.6998 4.0448 0.0000 0.0000 0.0000
# 3 63.7413 4.0448 112.4594 0.0000 0.0000 0.0000
# 4 0.0000 0.0000 0.0000 -3.5283 0.0000 0.0000
# 5 0.0000 0.0000 0.0000 0.0000 15.3471 0.0000
# 6 0.0000 0.0000 0.0000 0.0000 0.0000 17.5446
#
#
#
# Elastic Compliance Matrix: (Units=1/GPa)
#
#
# Indices 1 2 3 4 5 6 
#
# 1 0.012073 0.000803 -0.006872 0.000000 0.000000 0.000000
# 2 0.000803 0.051193 -0.002296 0.000000 0.000000 0.000000
# 3 -0.006872 -0.002296 0.012870 0.000000 0.000000 0.000000
# 4 0.000000 0.000000 0.000000 -0.283425 0.000000 0.000000
# 5 0.000000 0.000000 0.000000 0.000000 0.065159 0.000000
# 6 0.000000 0.000000 0.000000 0.000000 0.000000 0.056997
#
#
# Mechanical properties :
#
#
# Convention : Reuss Voigt Hill
#
# Bulk Modulus (GPa) = 16.83347 43.19513 30.01430
# Shear Modulus (GPa) = -102.87981 18.03419 -42.42281
#
# Velocity S-wave (km/s) = -7.22194 3.02369 -4.63755
# Velocity P-wave (km/s) = 7.81076 5.83855 3.66874
#
# Compressibility (1/GPa) = 0.05940546
#
# Stress axis : x y z
#
# Youngs Moduli (GPa) = 82.82630 19.53391 77.70173
#
# Poissons Ratio (x) = -0.01569 0.53397
# Poissons Ratio (y) = -0.06652 0.17844
# Poissons Ratio (z) = 0.56919 0.04486
#
# Static dielectric constant tensor:
#      x y z
#    x 1.706200 0.000000 0.000000 
#    y 0.000000 1.705500 0.000000 
#    z 0.000000 0.000000 1.719630 
# 
# From -- ./inp_files/66320.got.cif
#   From: 2010.05.17/outbox.cif.g08.bks.cpg/sg65_34_cif.got.tgz:66320.got - 2010.06.03 17:01:31.
