data_PCOD9490874
_publ_section_title
;
Structure prediction by ZEFSAII (Michael W. Deem and Ramdas Pophale) SiO2 
 PCOD9490874
Probable space group: C M M M
;
_chemical_formula_sum "Si O2"
_cell_formula_units_Z 72
_cell_length_a 8.702965
_cell_length_b 16.620032
_cell_length_c 25.730075
_cell_angle_alpha 90.000000
_cell_angle_beta 90.000000
_cell_angle_gamma 90.000000
_cell_volume 3721.689565
_symmetry_space_group_name_H-M "C M M M"
_symmetry_group_IT_number 65
_symmetry_cell_setting 'orthorhombic'
loop_
_space_group_symop_operation_xyz
x,y,z
-x,-y,z
x,-y,-z
-x,y,-z
-x,-y,-z
x,y,-z
-x,y,z
x,-y,z
1/2+x,1/2+y,z
1/2-x,1/2-y,z
1/2+x,1/2-y,-z
1/2-x,1/2+y,-z
1/2-x,1/2-y,-z
1/2+x,1/2+y,-z
1/2-x,1/2+y,z
1/2+x,1/2-y,z
loop_
_atom_site_type_symbol
_atom_site_label
_atom_site_fract_x
_atom_site_fract_y
_atom_site_fract_z
Si Si1 0.171275 0.594795 0.338284
Si Si2 0.184908 0.658751 0.875167
Si Si3 0.182323 0.838534 0.236067
Si Si4 0.184038 0.160041 0.443240
Si Si5 0.313047 0.000000 0.059968
O O1 0.156492 0.500000 0.339414
O O2 0.271098 0.615610 0.288007
O O3 0.246250 0.620109 0.392429
O O4 0.000000 0.631860 0.333186
O O5 0.250000 0.750000 0.885490
O O6 0.239786 0.633192 0.817486
O O7 0.233360 0.584512 0.912560
O O8 0.000000 0.665141 0.876411
O O9 0.250000 0.750000 0.243827
O O10 0.000000 0.836842 0.229132
O O11 0.223599 0.123178 0.500000
O O12 0.250000 0.250000 0.443772
O O13 0.000000 0.161733 0.439230
O O14 0.500000 0.000000 0.061534
O O15 0.263957 0.000000 0.000000
#
# Coordination Sequence:
#
# PCOD9490874 Si02
#       5
#    16  16  16  16   8
#     4  11  24  39  56  81 114 150 188 232 287 347
#     4  10  20  37  61  89 121 160 204 251 302 359
#     4  11  22  38  60  85 115 150 191 239 292 348
#     4  10  21  38  60  83 109 144 187 234 284 340
#     4   9  20  38  61  89 123 165 206 245 298 361
#
# _framework density 19.346053000000001
#
# number of rings (size 3 to 8) (size 9 to 14) (size 15 to 20)
#    0.000    1.667    0.000    6.000    1.556    4.000 
#    0.000    3.889    0.000    4.667    0.000    0.000 
#    0.000    0.000    0.000    0.000    0.000    0.000 
#
# Total GULP energy -200856.825843 kJ/mol
# GULP energy per Si atom -5579.356273 kJ/mol
# Density = 1.930202 g / cm^3
# Si number density = 19.346053 Si / 1000 Ang^3
#
#
#
# Elastic Constant Matrix: (Units=GPa)
#
#
# Indices 1 2 3 4 5 6 
#
# 1 92.0160 29.4486 42.2667 0.0000 0.0000 0.0000
# 2 29.4486 75.3420 90.4544 0.0000 0.0000 0.0000
# 3 42.2667 90.4544 170.3576 0.0000 0.0000 0.0000
# 4 0.0000 0.0000 0.0000 57.1689 0.0000 0.0000
# 5 0.0000 0.0000 0.0000 0.0000 32.2021 0.0000
# 6 0.0000 0.0000 0.0000 0.0000 0.0000 23.5453
#
#
#
# Elastic Compliance Matrix: (Units=1/GPa)
#
#
# Indices 1 2 3 4 5 6 
#
# 1 0.012542 -0.003217 -0.001404 0.000000 0.000000 0.000000
# 2 -0.003217 0.037437 -0.019080 0.000000 0.000000 0.000000
# 3 -0.001404 -0.019080 0.016349 0.000000 0.000000 0.000000
# 4 0.000000 0.000000 0.000000 0.017492 0.000000 0.000000
# 5 0.000000 0.000000 0.000000 0.000000 0.031054 0.000000
# 6 0.000000 0.000000 0.000000 0.000000 0.000000 0.042471
#
#
# Mechanical properties :
#
#
# Convention : Reuss Voigt Hill
#
# Bulk Modulus (GPa) = 52.83401 73.56166 63.19783
# Shear Modulus (GPa) = 23.69055 34.28634 28.98844
#
# Velocity S-wave (km/s) = 3.50318 4.21440 3.87514
# Velocity P-wave (km/s) = 6.61304 7.86054 7.26362
#
# Compressibility (1/GPa) = 0.01892720
#
# Stress axis : x y z
#
# Youngs Moduli (GPa) = 79.73214 26.71158 61.16625
#
# Poissons Ratio (x) = 0.08594 0.08585
# Poissons Ratio (y) = 0.25651 1.16703
# Poissons Ratio (z) = 0.11191 0.50965
#
# Static dielectric constant tensor:
#      x y z
#    x 1.679580 0.000000 0.000000 
#    y 0.000000 1.570390 0.000000 
#    z 0.000000 0.000000 1.713580 
# 
# From -- ./inp_files/72474.got.cif
#   From: 2010.05.17/outbox.cif.g08.bks.cpg/sg65_37_cif.got.tgz:72474.got - 2010.06.03 17:01:31.
