data_PCOD9490676
_publ_section_title
;
Structure prediction by ZEFSAII (Michael W. Deem and Ramdas Pophale) SiO2 
 PCOD9490676
Probable space group: C M M M
;
_chemical_formula_sum "Si O2"
_cell_formula_units_Z 80
_cell_length_a 36.253392
_cell_length_b 11.844483
_cell_length_c 10.946667
_cell_angle_alpha 90.000000
_cell_angle_beta 90.000000
_cell_angle_gamma 90.000000
_cell_volume 4700.528204
_symmetry_space_group_name_H-M "C M M M"
_symmetry_group_IT_number 65
_symmetry_cell_setting 'orthorhombic'
loop_
_space_group_symop_operation_xyz
x,y,z
-x,-y,z
x,-y,-z
-x,y,-z
-x,-y,-z
x,y,-z
-x,y,z
x,-y,z
1/2+x,1/2+y,z
1/2-x,1/2-y,z
1/2+x,1/2-y,-z
1/2-x,1/2+y,-z
1/2-x,1/2-y,-z
1/2+x,1/2+y,-z
1/2-x,1/2+y,z
1/2+x,1/2-y,z
loop_
_atom_site_type_symbol
_atom_site_label
_atom_site_fract_x
_atom_site_fract_y
_atom_site_fract_z
Si Si1 0.455822 0.869261 0.500000
Si Si2 0.863605 0.631555 0.852244
Si Si3 0.328950 0.500000 0.138557
Si Si4 0.209067 0.241825 0.143234
Si Si5 0.572457 0.274715 0.725039
Si Si6 0.887385 0.000000 0.358950
Si Si7 0.000000 0.131974 0.854078
O O1 0.500000 0.859741 0.500000
O O2 0.440349 0.808400 0.618828
O O3 0.445582 0.000000 0.500000
O O4 0.868421 0.500000 0.818591
O O5 0.823986 0.679796 0.807786
O O6 0.895807 0.711564 0.801665
O O7 0.864083 0.638651 0.000000
O O8 0.304857 0.386845 0.147294
O O9 0.357065 0.500000 0.251068
O O10 0.346062 0.500000 0.000000
O O11 0.250000 0.250000 0.198162
O O12 0.212511 0.274722 0.000000
O O13 0.588705 0.388147 0.665042
O O14 0.536842 0.309140 0.803941
O O15 0.873899 0.000000 0.500000
O O16 0.000000 0.000000 0.816082
O O17 0.000000 0.136197 0.000000
#
# Coordination Sequence:
#
# PCOD9490676 Si02
#       7
#     8  16   8  16  16   8   8
#     4  11  24  41  63  83 106 146 196 249 290 345
#     4  10  21  36  55  82 119 157 191 238 295 353
#     4  10  20  36  59  87 120 160 199 245 303 360
#     4   9  18  31  53  86 118 150 192 242 293 348
#     4  12  22  40  59  83 116 150 196 242 295 352
#     4  12  24  37  61  90 119 158 196 250 303 351
#     4  11  24  37  57  88 120 153 189 239 299 358
#
# _framework density 17.019363999999999
#
# number of rings (size 3 to 8) (size 9 to 14) (size 15 to 20)
#    0.000    1.400    5.000    1.200    1.400    0.800 
#    0.000    1.500    0.000    3.000    0.000    0.000 
#    0.000    0.000    0.000    0.000    0.000    0.000 
#
# Total GULP energy -223145.557200 kJ/mol
# GULP energy per Si atom -5578.638930 kJ/mol
# Density = 1.698063 g / cm^3
# Si number density = 17.019364 Si / 1000 Ang^3
#
#
#
# Elastic Constant Matrix: (Units=GPa)
#
#
# Indices 1 2 3 4 5 6 
#
# 1 138.6942 68.2598 53.0469 0.0000 0.0000 0.0000
# 2 68.2598 131.0599 41.4593 0.0000 0.0000 0.0000
# 3 53.0469 41.4593 76.2153 0.0000 0.0000 0.0000
# 4 0.0000 0.0000 0.0000 22.9118 0.0000 0.0000
# 5 0.0000 0.0000 0.0000 0.0000 8.9509 0.0000
# 6 0.0000 0.0000 0.0000 0.0000 0.0000 11.3424
#
#
#
# Elastic Compliance Matrix: (Units=1/GPa)
#
#
# Indices 1 2 3 4 5 6 
#
# 1 0.011433 -0.004152 -0.005699 0.000000 0.000000 0.000000
# 2 -0.004152 0.010724 -0.002944 0.000000 0.000000 0.000000
# 3 -0.005699 -0.002944 0.018689 0.000000 0.000000 0.000000
# 4 0.000000 0.000000 0.000000 0.043646 0.000000 0.000000
# 5 0.000000 0.000000 0.000000 0.000000 0.111720 0.000000
# 6 0.000000 0.000000 0.000000 0.000000 0.000000 0.088165
#
#
# Mechanical properties :
#
#
# Convention : Reuss Voigt Hill
#
# Bulk Modulus (GPa) = 65.54706 74.61126 70.07916
# Shear Modulus (GPa) = 15.87045 20.85460 18.36252
#
# Velocity S-wave (km/s) = 3.05699 3.50429 3.28825
# Velocity P-wave (km/s) = 7.14542 7.76580 7.46206
#
# Compressibility (1/GPa) = 0.01525621
#
# Stress axis : x y z
#
# Youngs Moduli (GPa) = 87.46368 93.25104 53.50821
#
# Poissons Ratio (x) = 0.38717 0.30495
# Poissons Ratio (y) = 0.36314 0.15751
# Poissons Ratio (z) = 0.49847 0.27450
#
# Static dielectric constant tensor:
#      x y z
#    x 1.580570 0.000000 0.000000 
#    y 0.000000 1.564910 0.000000 
#    z 0.000000 0.000000 1.537010 
# 
# From -- ./inp_files/33567.got.cif
#   From: 2010.05.17/outbox.cif.g08.bks.cpg/sg65_17_cif.got.tgz:33567.got - 2010.06.03 17:01:31.
