data_PCOD9490672
_publ_section_title
;
Structure prediction by ZEFSAII (Michael W. Deem and Ramdas Pophale) SiO2 
 PCOD9490672
Probable space group: C M M M
;
_chemical_formula_sum "Si O2"
_cell_formula_units_Z 72
_cell_length_a 23.222580
_cell_length_b 19.502453
_cell_length_c 8.701320
_cell_angle_alpha 90.000000
_cell_angle_beta 90.000000
_cell_angle_gamma 90.000000
_cell_volume 3940.804117
_symmetry_space_group_name_H-M "C M M M"
_symmetry_group_IT_number 65
_symmetry_cell_setting 'orthorhombic'
loop_
_space_group_symop_operation_xyz
x,y,z
-x,-y,z
x,-y,-z
-x,y,-z
-x,-y,-z
x,y,-z
-x,y,z
x,-y,z
1/2+x,1/2+y,z
1/2-x,1/2-y,z
1/2+x,1/2-y,-z
1/2-x,1/2+y,-z
1/2-x,1/2-y,-z
1/2+x,1/2+y,-z
1/2-x,1/2+y,z
1/2+x,1/2-y,z
loop_
_atom_site_type_symbol
_atom_site_label
_atom_site_fract_x
_atom_site_fract_y
_atom_site_fract_z
Si Si1 0.271982 0.673774 0.685425
Si Si2 0.434182 0.173569 0.185409
Si Si3 0.898370 0.171797 0.815833
Si Si4 0.500000 0.579615 0.315688
Si Si5 0.165574 0.421142 0.685598
O O1 0.277722 0.671946 0.500000
O O2 0.250000 0.750000 0.727815
O O3 0.333688 0.659480 0.758888
O O4 0.223233 0.619491 0.732482
O O5 0.500000 0.160546 0.233437
O O6 0.416322 0.250803 0.231194
O O7 0.389354 0.119779 0.252869
O O8 0.431891 0.170557 0.000000
O O9 0.943931 0.118841 0.746644
O O10 0.901164 0.168279 0.000000
O O11 0.500000 0.500000 0.268268
O O12 0.500000 0.582607 0.500000
O O13 0.163876 0.420010 0.500000
O O14 0.166123 0.500000 0.736585
#
# Coordination Sequence:
#
# PCOD9490672 Si02
#       5
#    16  16  16   8  16
#     4  10  20  36  59  87 117 155 201 244 294 354
#     4  10  21  38  59  85 117 153 193 238 292 353
#     4  11  22  38  62  91 121 154 196 246 297 352
#     4  11  25  43  63  89 122 159 198 243 297 356
#     4  10  22  39  58  84 118 153 194 247 298 346
#
# _framework density 18.270382000000001
#
# number of rings (size 3 to 8) (size 9 to 14) (size 15 to 20)
#    0.000    1.667    3.333    1.000    0.000    5.333 
#    0.000    4.444    0.000    0.000    0.000    0.000 
#    0.000    0.000    0.000    0.000    0.000    0.000 
#
# Total GULP energy -201146.934657 kJ/mol
# GULP energy per Si atom -5587.414852 kJ/mol
# Density = 1.822880 g / cm^3
# Si number density = 18.270382 Si / 1000 Ang^3
#
#
#
# Elastic Constant Matrix: (Units=GPa)
#
#
# Indices 1 2 3 4 5 6 
#
# 1 217.0623 122.0157 44.2083 0.0000 0.0000 0.0000
# 2 122.0157 195.3585 44.1634 0.0000 0.0000 0.0000
# 3 44.2083 44.1634 21.3634 0.0000 0.0000 0.0000
# 4 0.0000 0.0000 0.0000 25.3075 0.0000 0.0000
# 5 0.0000 0.0000 0.0000 0.0000 82.3185 0.0000
# 6 0.0000 0.0000 0.0000 0.0000 0.0000 33.4638
#
#
#
# Elastic Compliance Matrix: (Units=1/GPa)
#
#
# Indices 1 2 3 4 5 6 
#
# 1 0.008579 -0.002525 -0.012533 0.000000 0.000000 0.000000
# 2 -0.002525 0.010353 -0.016177 0.000000 0.000000 0.000000
# 3 -0.012533 -0.016177 0.106186 0.000000 0.000000 0.000000
# 4 0.000000 0.000000 0.000000 0.039514 0.000000 0.000000
# 5 0.000000 0.000000 0.000000 0.000000 0.012148 0.000000
# 6 0.000000 0.000000 0.000000 0.000000 0.000000 0.029883
#
#
# Mechanical properties :
#
#
# Convention : Reuss Voigt Hill
#
# Bulk Modulus (GPa) = 15.96226 94.95098 55.45662
# Shear Modulus (GPa) = 17.24052 43.11108 30.17580
#
# Velocity S-wave (km/s) = 3.07519 4.86286 4.06843
# Velocity P-wave (km/s) = 4.62220 9.14399 7.24490
#
# Compressibility (1/GPa) = 0.06264779
#
# Stress axis : x y z
#
# Youngs Moduli (GPa) = 116.56647 96.59287 9.41745
#
# Poissons Ratio (x) = 0.24388 0.11803
# Poissons Ratio (y) = 0.29431 0.15235
# Poissons Ratio (z) = 1.46094 1.56257
#
# Static dielectric constant tensor:
#      x y z
#    x 1.591750 0.000000 0.000000 
#    y 0.000000 1.610430 0.000000 
#    z 0.000000 0.000000 1.622250 
# 
# From -- ./inp_files/9273.got.cif
#   From: 2010.05.17/outbox.cif.g08.bks.cpg/sg65_5_cif.got.tgz:9273.got - 2010.06.03 17:01:31.
