data_PCOD9490225
_publ_section_title
;
Structure prediction by ZEFSAII (Michael W. Deem and Ramdas Pophale) SiO2 
 PCOD9490225
Probable space group: C M M M
;
_chemical_formula_sum "Si O2"
_cell_formula_units_Z 104
_cell_length_a 25.734631
_cell_length_b 21.644154
_cell_length_c 8.387824
_cell_angle_alpha 90.000000
_cell_angle_beta 90.000000
_cell_angle_gamma 90.000000
_cell_volume 4672.054174
_symmetry_space_group_name_H-M "C M M M"
_symmetry_group_IT_number 65
_symmetry_cell_setting 'orthorhombic'
loop_
_space_group_symop_operation_xyz
x,y,z
-x,-y,z
x,-y,-z
-x,y,-z
-x,-y,-z
x,y,-z
-x,y,z
x,-y,z
1/2+x,1/2+y,z
1/2-x,1/2-y,z
1/2+x,1/2-y,-z
1/2-x,1/2+y,-z
1/2-x,1/2-y,-z
1/2+x,1/2+y,-z
1/2-x,1/2+y,z
1/2+x,1/2-y,z
loop_
_atom_site_type_symbol
_atom_site_label
_atom_site_fract_x
_atom_site_fract_y
_atom_site_fract_z
Si Si1 0.409608 0.750073 0.312769
Si Si2 0.059958 0.888009 0.673193
Si Si3 0.299065 0.707768 0.692812
Si Si4 0.333944 0.072915 0.320341
Si Si5 0.721427 0.571595 0.186999
Si Si6 0.559053 0.572156 0.000000
Si Si7 0.944551 0.379892 0.695177
O O1 0.401700 0.763550 0.500000
O O2 0.439381 0.685549 0.308150
O O3 0.352191 0.739135 0.244986
O O4 0.440937 0.808435 0.253087
O O5 0.083180 0.903523 0.500000
O O6 0.000000 0.910613 0.670924
O O7 0.085722 0.912054 0.833717
O O8 0.299061 0.709273 0.500000
O O9 0.250000 0.750000 0.745545
O O10 0.300823 0.634992 0.737838
O O11 0.325817 0.100341 0.500000
O O12 0.283122 0.083021 0.215984
O O13 0.389227 0.093728 0.253475
O O14 0.338008 0.000000 0.338421
O O15 0.710463 0.500000 0.246973
O O16 0.709508 0.571183 0.000000
O O17 0.552789 0.500000 0.000000
O O18 0.500000 0.600854 0.000000
O O19 0.944656 0.385335 0.500000
O O20 0.000000 0.406560 0.748713
#
# Coordination Sequence:
#
# PCOD9490225 Si02
#       7
#    16  16  16  16  16   8  16
#     4   9  17  30  49  75 104 135 174 215 264 325
#     4   9  17  31  52  75 101 136 175 214 261 321
#     4  10  20  35  57  83 110 140 179 229 281 336
#     4   9  17  30  51  79 109 143 182 221 265 319
#     4  10  21  37  56  78 107 145 189 233 280 335
#     4   9  18  32  50  74 101 130 167 211 260 311
#     4   9  16  27  48  79 112 143 177 220 266 317
#
# _framework density 22.260014999999999
#
# number of rings (size 3 to 8) (size 9 to 14) (size 15 to 20)
#    0.000    2.692    0.000    1.846    0.000    6.154 
#    1.385    3.846    1.692    3.231    0.000    2.154 
#    0.000    0.000    0.000    0.000    0.000    0.000 
#
# Total GULP energy -289614.828579 kJ/mol
# GULP energy per Si atom -5569.515934 kJ/mol
# Density = 2.220935 g / cm^3
# Si number density = 22.260015 Si / 1000 Ang^3
#
#
#
# Elastic Constant Matrix: (Units=GPa)
#
#
# Indices 1 2 3 4 5 6 
#
# 1 78.7357 9.4736 -2.5533 0.0000 0.0000 0.0000
# 2 9.4736 29.3779 11.4266 0.0000 0.0000 0.0000
# 3 -2.5533 11.4266 70.9685 0.0000 0.0000 0.0000
# 4 0.0000 0.0000 0.0000 21.1887 0.0000 0.0000
# 5 0.0000 0.0000 0.0000 0.0000 6.1712 0.0000
# 6 0.0000 0.0000 0.0000 0.0000 0.0000 20.9787
#
#
#
# Elastic Compliance Matrix: (Units=1/GPa)
#
#
# Indices 1 2 3 4 5 6 
#
# 1 0.013316 -0.004780 0.001249 0.000000 0.000000 0.000000
# 2 -0.004780 0.038029 -0.006295 0.000000 0.000000 0.000000
# 3 0.001249 -0.006295 0.015149 0.000000 0.000000 0.000000
# 4 0.000000 0.000000 0.000000 0.047195 0.000000 0.000000
# 5 0.000000 0.000000 0.000000 0.000000 0.162044 0.000000
# 6 0.000000 0.000000 0.000000 0.000000 0.000000 0.047667
#
#
# Mechanical properties :
#
#
# Convention : Reuss Voigt Hill
#
# Bulk Modulus (GPa) = 21.34821 23.97509 22.66165
# Shear Modulus (GPa) = 13.94049 20.38341 17.16195
#
# Velocity S-wave (km/s) = 2.50523 3.02933 2.77966
# Velocity P-wave (km/s) = 4.24022 4.79892 4.52819
#
# Compressibility (1/GPa) = 0.04684233
#
# Stress axis : x y z
#
# Youngs Moduli (GPa) = 75.09577 26.29567 66.00998
#
# Poissons Ratio (x) = 0.12569 -0.08243
# Poissons Ratio (y) = 0.35895 0.41553
# Poissons Ratio (z) = -0.09377 0.16553
#
# Static dielectric constant tensor:
#      x y z
#    x 1.928860 0.000000 0.000000 
#    y 0.000000 1.824820 0.000000 
#    z 0.000000 0.000000 1.820820 
# 
# From -- ./inp_files/18708.got.cif
#   From: 2010.05.17/outbox.cif.g08.bks.cpg/sg65_10_cif.got.tgz:18708.got - 2010.06.03 17:01:31.
