data_PCOD9490893
_publ_section_title
;
Structure prediction by ZEFSAII (Michael W. Deem and Ramdas Pophale) SiO2 
 PCOD9490893
Probable space group: C M M M
;
_chemical_formula_sum "Si O2"
_cell_formula_units_Z 80
_cell_length_a 19.129232
_cell_length_b 24.116589
_cell_length_c 8.397584
_cell_angle_alpha 90.000000
_cell_angle_beta 90.000000
_cell_angle_gamma 90.000000
_cell_volume 3874.072761
_symmetry_space_group_name_H-M "C M M M"
_symmetry_group_IT_number 65
_symmetry_cell_setting 'orthorhombic'
loop_
_space_group_symop_operation_xyz
x,y,z
-x,-y,z
x,-y,-z
-x,y,-z
-x,-y,-z
x,y,-z
-x,y,z
x,-y,z
1/2+x,1/2+y,z
1/2-x,1/2-y,z
1/2+x,1/2-y,-z
1/2-x,1/2+y,-z
1/2-x,1/2-y,-z
1/2+x,1/2+y,-z
1/2-x,1/2+y,z
1/2+x,1/2-y,z
loop_
_atom_site_type_symbol
_atom_site_label
_atom_site_fract_x
_atom_site_fract_y
_atom_site_fract_z
Si Si1 0.138401 0.500000 0.827738
Si Si2 0.424504 0.099496 0.676958
Si Si3 0.822448 0.315333 0.187756
Si Si4 0.581322 0.282833 0.308794
Si Si5 0.714575 0.500000 0.685124
Si Si6 0.314363 0.625592 0.691551
O O1 0.089893 0.447641 0.802811
O O2 0.201428 0.500000 0.703251
O O3 0.172473 0.500000 0.000000
O O4 0.422094 0.074992 0.500000
O O5 0.500000 0.126208 0.698342
O O6 0.365129 0.143231 0.701103
O O7 0.861647 0.257742 0.227435
O O8 0.743345 0.333188 0.230470
O O9 0.831744 0.325714 0.000000
O O10 0.583902 0.272392 0.500000
O O11 0.500000 0.275695 0.258437
O O12 0.610966 0.344964 0.281967
O O13 0.693877 0.500000 0.500000
O O14 0.691561 0.438748 0.748425
O O15 0.301238 0.625345 0.500000
#
# Coordination Sequence:
#
# PCOD9490893 Si02
#       6
#     8  16  16  16   8  16
#     4  12  23  35  54  82 117 154 197 250 299 346
#     4  11  23  38  56  79 113 160 205 244 294 357
#     4  12  24  37  58  89 122 156 199 250 300 354
#     4  10  22  41  63  88 120 159 202 248 301 362
#     4  10  20  37  62  88 118 158 201 244 296 356
#     4  10  21  39  64  90 119 158 202 246 297 361
#
# _framework density 20.650102
#
# number of rings (size 3 to 8) (size 9 to 14) (size 15 to 20)
#    0.000    1.200    2.000    4.800    0.000    8.800 
#    0.000    0.500    0.000    3.000    0.000    0.000 
#    0.000    4.000    0.000    0.000    0.000    0.000 
#
# Total GULP energy -222928.050050 kJ/mol
# GULP energy per Si atom -5573.201251 kJ/mol
# Density = 2.060310 g / cm^3
# Si number density = 20.650102 Si / 1000 Ang^3
#
#
#
# Elastic Constant Matrix: (Units=GPa)
#
#
# Indices 1 2 3 4 5 6 
#
# 1 62.5187 75.1313 -3.3252 0.0000 0.0000 0.0000
# 2 75.1313 82.4756 31.9433 0.0000 0.0000 0.0000
# 3 -3.3252 31.9433 32.6858 0.0000 0.0000 0.0000
# 4 0.0000 0.0000 0.0000 23.3022 0.0000 0.0000
# 5 0.0000 0.0000 0.0000 0.0000 0.3113 0.0000
# 6 0.0000 0.0000 0.0000 0.0000 0.0000 38.7793
#
#
#
# Elastic Compliance Matrix: (Units=1/GPa)
#
#
# Indices 1 2 3 4 5 6 
#
# 1 -0.017338 0.026513 -0.027674 0.000000 0.000000 0.000000
# 2 0.026513 -0.021033 0.023252 0.000000 0.000000 0.000000
# 3 -0.027674 0.023252 0.005055 0.000000 0.000000 0.000000
# 4 0.000000 0.000000 0.000000 0.042914 0.000000 0.000000
# 5 0.000000 0.000000 0.000000 0.000000 3.212054 0.000000
# 6 0.000000 0.000000 0.000000 0.000000 0.000000 0.025787
#
#
# Mechanical properties :
#
#
# Convention : Reuss Voigt Hill
#
# Bulk Modulus (GPa) = 92.03831 42.79763 67.41797
# Shear Modulus (GPa) = 1.55915 17.40728 9.48322
#
# Velocity S-wave (km/s) = 0.86987 2.90653 2.14530
# Velocity P-wave (km/s) = 6.75841 5.65986 6.23338
#
# Compressibility (1/GPa) = 0.01086504
#
# Stress axis : x y z
#
# Youngs Moduli (GPa) = -57.67567 -47.54449 197.83337
#
# Poissons Ratio (x) = 1.26054 5.47494
# Poissons Ratio (y) = 1.52915 -4.60010
# Poissons Ratio (z) = -1.59614 1.10552
#
# Static dielectric constant tensor:
#      x y z
#    x 1.701030 0.000000 0.000000 
#    y 0.000000 1.817850 0.000000 
#    z 0.000000 0.000000 1.711600 
# 
# From -- ./inp_files/11601.got.cif
#   From: 2010.05.17/outbox.cif.g08.bks.cpg/sg65_6_cif.got.tgz:11601.got - 2010.06.03 17:01:31.
