data_PCOD9490290
_publ_section_title
;
Structure prediction by ZEFSAII (Michael W. Deem and Ramdas Pophale) SiO2 
 PCOD9490290
Probable space group: C M M M
;
_chemical_formula_sum "Si O2"
_cell_formula_units_Z 72
_cell_length_a 7.757555
_cell_length_b 18.689973
_cell_length_c 25.756012
_cell_angle_alpha 90.000000
_cell_angle_beta 90.000000
_cell_angle_gamma 90.000000
_cell_volume 3734.325378
_symmetry_space_group_name_H-M "C M M M"
_symmetry_group_IT_number 65
_symmetry_cell_setting 'orthorhombic'
loop_
_space_group_symop_operation_xyz
x,y,z
-x,-y,z
x,-y,-z
-x,y,-z
-x,-y,-z
x,y,-z
-x,y,z
x,-y,z
1/2+x,1/2+y,z
1/2-x,1/2-y,z
1/2+x,1/2-y,-z
1/2-x,1/2+y,-z
1/2-x,1/2-y,-z
1/2+x,1/2+y,-z
1/2-x,1/2+y,z
1/2+x,1/2-y,z
loop_
_atom_site_type_symbol
_atom_site_label
_atom_site_fract_x
_atom_site_fract_y
_atom_site_fract_z
Si Si1 0.710983 0.417714 0.841288
Si Si2 0.500000 0.586976 0.440882
Si Si3 0.707495 0.333102 0.942075
Si Si4 0.793729 0.166523 0.261339
Si Si5 0.804698 0.584352 0.635376
O O1 0.500000 0.416588 0.841778
O O2 0.764645 0.500000 0.837359
O O3 0.770880 0.381406 0.894774
O O4 0.766422 0.372507 0.791227
O O5 0.500000 0.500000 0.443096
O O6 0.500000 0.613211 0.500000
O O7 0.332655 0.607919 0.407681
O O8 0.500000 0.339577 0.943166
O O9 0.750000 0.250000 0.932547
O O10 0.771941 0.351857 0.000000
O O11 0.750000 0.250000 0.259705
O O12 0.717500 0.128755 0.312050
O O13 0.000000 0.158315 0.264430
O O14 0.772712 0.500000 0.646868
O O15 0.000000 0.591159 0.616188
#
# Coordination Sequence:
#
# PCOD9490290 Si02
#       5
#    16   8  16  16  16
#     4   9  18  31  49  74 103 136 176 225 280 334
#     4   9  18  34  58  88 120 154 190 230 278 327
#     4   9  17  30  49  72  99 134 176 222 270 327
#     4  11  21  34  53  77 106 144 184 231 283 341
#     4  10  20  35  57  86 117 150 190 234 279 333
#
# _framework density 19.280591999999999
#
# number of rings (size 3 to 8) (size 9 to 14) (size 15 to 20)
#    0.000    2.333    1.111    2.000    0.000    1.778 
#    0.000    5.556    0.000    4.000    0.000    3.111 
#    0.000    0.000    0.000    0.000    0.000    0.000 
#
# Total GULP energy -201003.665056 kJ/mol
# GULP energy per Si atom -5583.435140 kJ/mol
# Density = 1.923671 g / cm^3
# Si number density = 19.280592 Si / 1000 Ang^3
#
#
#
# Elastic Constant Matrix: (Units=GPa)
#
#
# Indices 1 2 3 4 5 6 
#
# 1 67.1711 29.6872 47.8032 0.0000 0.0000 0.0000
# 2 29.6872 103.8980 95.0158 0.0000 0.0000 0.0000
# 3 47.8032 95.0158 190.3920 0.0000 0.0000 0.0000
# 4 0.0000 0.0000 0.0000 50.0430 0.0000 0.0000
# 5 0.0000 0.0000 0.0000 0.0000 -3.9797 0.0000
# 6 0.0000 0.0000 0.0000 0.0000 0.0000 20.9178
#
#
#
# Elastic Compliance Matrix: (Units=1/GPa)
#
#
# Indices 1 2 3 4 5 6 
#
# 1 0.018326 -0.001892 -0.003657 0.000000 0.000000 0.000000
# 2 -0.001892 0.017901 -0.008458 0.000000 0.000000 0.000000
# 3 -0.003657 -0.008458 0.010392 0.000000 0.000000 0.000000
# 4 0.000000 0.000000 0.000000 0.019983 0.000000 0.000000
# 5 0.000000 0.000000 0.000000 0.000000 -0.251276 0.000000
# 6 0.000000 0.000000 0.000000 0.000000 0.000000 0.047806
#
#
# Mechanical properties :
#
#
# Convention : Reuss Voigt Hill
#
# Bulk Modulus (GPa) = 53.75275 78.49705 66.12490
# Shear Modulus (GPa) = -48.70835 25.99320 -11.35758
#
# Velocity S-wave (km/s) = -5.03167 3.67570 -2.42970
# Velocity P-wave (km/s) = 2.41190 7.66914 5.14774
#
# Compressibility (1/GPa) = 0.01860370
#
# Stress axis : x y z
#
# Youngs Moduli (GPa) = 54.56685 55.86375 96.23046
#
# Poissons Ratio (x) = 0.10569 0.35192
# Poissons Ratio (y) = 0.10324 0.81395
# Poissons Ratio (z) = 0.19956 0.47252
#
# Static dielectric constant tensor:
#      x y z
#    x 1.680960 0.000000 0.000000 
#    y 0.000000 1.632630 0.000000 
#    z 0.000000 0.000000 1.649550 
# 
# From -- ./inp_files/66991.got.cif
#   From: 2010.05.17/outbox.cif.g08.bks.cpg/sg65_34_cif.got.tgz:66991.got - 2010.06.03 17:01:31.
