data_PCOD9490048
_publ_section_title
;
Structure prediction by ZEFSAII (Michael W. Deem and Ramdas Pophale) SiO2 
 PCOD9490048
Probable space group: C M M M
;
_chemical_formula_sum "Si O2"
_cell_formula_units_Z 104
_cell_length_a 20.972393
_cell_length_b 26.423302
_cell_length_c 9.890092
_cell_angle_alpha 90.000000
_cell_angle_beta 90.000000
_cell_angle_gamma 90.000000
_cell_volume 5480.692136
_symmetry_space_group_name_H-M "C M M M"
_symmetry_group_IT_number 65
_symmetry_cell_setting 'orthorhombic'
loop_
_space_group_symop_operation_xyz
x,y,z
-x,-y,z
x,-y,-z
-x,y,-z
-x,-y,-z
x,y,-z
-x,y,z
x,-y,z
1/2+x,1/2+y,z
1/2-x,1/2-y,z
1/2+x,1/2-y,-z
1/2-x,1/2+y,-z
1/2-x,1/2-y,-z
1/2+x,1/2+y,-z
1/2-x,1/2+y,z
1/2+x,1/2-y,z
loop_
_atom_site_type_symbol
_atom_site_label
_atom_site_fract_x
_atom_site_fract_y
_atom_site_fract_z
Si Si1 0.500000 0.061023 0.837054
Si Si2 0.426196 0.437834 0.000000
Si Si3 0.189100 0.212127 0.840341
Si Si4 0.653722 0.439896 0.252627
Si Si5 0.928389 0.061994 0.500000
Si Si6 0.927228 0.745622 0.659610
Si Si7 0.094272 0.626288 0.658093
Si Si8 0.245223 0.626563 0.339682
O O1 0.559199 0.088540 0.761061
O O2 0.500000 0.000000 0.816872
O O3 0.500000 0.070092 0.000000
O O4 0.383436 0.420291 0.876242
O O5 0.428717 0.500000 0.000000
O O6 0.500000 0.421464 0.000000
O O7 0.250000 0.250000 0.837199
O O8 0.126979 0.233212 0.760501
O O9 0.215715 0.165462 0.752795
O O10 0.175752 0.202047 0.000000
O O11 0.649120 0.500000 0.246931
O O12 0.610495 0.420233 0.373255
O O13 0.725310 0.425842 0.287910
O O14 0.000000 0.079694 0.500000
O O15 0.929409 0.000000 0.500000
O O16 0.911857 0.756056 0.500000
O O17 0.927642 0.684456 0.674107
O O18 0.000000 0.763698 0.685881
O O19 0.082545 0.611904 0.500000
O O20 0.170000 0.627789 0.681576
O O21 0.256408 0.634494 0.500000
#
# Coordination Sequence:
#
# PCOD9490048 Si02
#       8
#     8   8  16  16   8  16  16  16
#     4  11  25  43  61  93 137 173 211 263 322 381
#     4   9  18  34  56  80 107 151 203 243 290 348
#     4  11  24  40  62  93 125 160 203 251 308 375
#     4  10  20  35  55  85 119 152 197 247 297 357
#     4   9  16  30  54  78 105 147 197 245 284 334
#     4  10  20  39  66  93 120 154 208 264 312 372
#     4  10  21  39  66  94 118 160 213 257 306 372
#     4  11  23  39  63  92 124 163 205 251 306 366
#
# _framework density 18.975705000000001
#
# number of rings (size 3 to 8) (size 9 to 14) (size 15 to 20)
#    0.000    1.769    3.077    1.154    1.077    5.231 
#    0.000    3.077    0.000    0.000    0.000    0.000 
#    0.000    0.000    0.000    0.000    0.000    0.000 
#
# Total GULP energy -289793.683159 kJ/mol
# GULP energy per Si atom -5572.955445 kJ/mol
# Density = 1.893252 g / cm^3
# Si number density = 18.975705 Si / 1000 Ang^3
#
#
#
# Elastic Constant Matrix: (Units=GPa)
#
#
# Indices 1 2 3 4 5 6 
#
# 1 158.6052 33.6273 87.5692 0.0000 0.0000 0.0000
# 2 33.6273 39.1210 53.7366 0.0000 0.0000 0.0000
# 3 87.5692 53.7366 182.0385 0.0000 0.0000 0.0000
# 4 0.0000 0.0000 0.0000 28.0976 0.0000 0.0000
# 5 0.0000 0.0000 0.0000 0.0000 34.5911 0.0000
# 6 0.0000 0.0000 0.0000 0.0000 0.0000 28.5376
#
#
#
# Elastic Compliance Matrix: (Units=1/GPa)
#
#
# Indices 1 2 3 4 5 6 
#
# 1 0.008781 -0.002936 -0.003357 0.000000 0.000000 0.000000
# 2 -0.002936 0.043977 -0.011569 0.000000 0.000000 0.000000
# 3 -0.003357 -0.011569 0.010524 0.000000 0.000000 0.000000
# 4 0.000000 0.000000 0.000000 0.035590 0.000000 0.000000
# 5 0.000000 0.000000 0.000000 0.000000 0.028909 0.000000
# 6 0.000000 0.000000 0.000000 0.000000 0.000000 0.035042
#
#
# Mechanical properties :
#
#
# Convention : Reuss Voigt Hill
#
# Bulk Modulus (GPa) = 36.28976 81.07012 58.67994
# Shear Modulus (GPa) = 24.06921 31.90070 27.98495
#
# Velocity S-wave (km/s) = 3.56536 4.10461 3.84445
# Velocity P-wave (km/s) = 6.00956 8.07958 7.12020
#
# Compressibility (1/GPa) = 0.02755599
#
# Stress axis : x y z
#
# Youngs Moduli (GPa) = 113.87954 22.73902 95.02468
#
# Poissons Ratio (x) = 0.06677 0.31903
# Poissons Ratio (y) = 0.33439 1.09937
# Poissons Ratio (z) = 0.38234 0.26307
#
# Static dielectric constant tensor:
#      x y z
#    x 1.621400 0.000000 0.000000 
#    y 0.000000 1.722400 0.000000 
#    z 0.000000 0.000000 1.633710 
# 
# From -- ./inp_files/12465.got.cif
#   From: 2010.05.17/outbox.cif.g08.bks.cpg/sg65_7_cif.got.tgz:12465.got - 2010.06.03 17:01:31.
