data_PCOD9490385
_publ_section_title
;
Structure prediction by ZEFSAII (Michael W. Deem and Ramdas Pophale) SiO2 
 PCOD9490385
Probable space group: C M M M
;
_chemical_formula_sum "Si O2"
_cell_formula_units_Z 104
_cell_length_a 14.239621
_cell_length_b 19.911886
_cell_length_c 18.396982
_cell_angle_alpha 90.000000
_cell_angle_beta 90.000000
_cell_angle_gamma 90.000000
_cell_volume 5216.238148
_symmetry_space_group_name_H-M "C M M M"
_symmetry_group_IT_number 65
_symmetry_cell_setting 'orthorhombic'
loop_
_space_group_symop_operation_xyz
x,y,z
-x,-y,z
x,-y,-z
-x,y,-z
-x,-y,-z
x,y,-z
-x,y,z
x,-y,z
1/2+x,1/2+y,z
1/2-x,1/2-y,z
1/2+x,1/2-y,-z
1/2-x,1/2+y,-z
1/2-x,1/2-y,-z
1/2+x,1/2+y,-z
1/2-x,1/2+y,z
1/2+x,1/2-y,z
loop_
_atom_site_type_symbol
_atom_site_label
_atom_site_fract_x
_atom_site_fract_y
_atom_site_fract_z
Si Si1 0.101976 0.854489 0.683121
Si Si2 0.221585 0.923000 0.085530
Si Si3 0.607595 0.299679 0.843187
Si Si4 0.612229 0.855868 0.845593
Si Si5 0.319884 0.880687 0.317504
Si Si6 0.639223 0.239132 0.580182
Si Si7 0.388341 0.000000 0.582439
O O1 0.106921 0.809499 0.756133
O O2 0.205869 0.886568 0.682036
O O3 0.099257 0.807620 0.612193
O O4 0.000000 0.891270 0.687382
O O5 0.164246 0.862794 0.124424
O O6 0.329559 0.902872 0.100279
O O7 0.203026 0.000000 0.111454
O O8 0.201002 0.921088 0.000000
O O9 0.500000 0.304709 0.869257
O O10 0.639463 0.222994 0.857511
O O11 0.500000 0.860756 0.851821
O O12 0.644582 0.878623 0.765014
O O13 0.364233 0.815466 0.356558
O O14 0.356313 0.937979 0.369791
O O15 0.603972 0.219917 0.500000
O O16 0.750000 0.250000 0.572985
O O17 0.500000 0.000000 0.577406
O O18 0.349971 0.000000 0.500000
#
# Coordination Sequence:
#
# PCOD9490385 Si02
#       7
#    16  16  16  16  16  16   8
#     4  10  20  35  59  92 125 158 200 254 317 382
#     4  11  26  45  66  94 129 170 212 262 325 393
#     4  10  21  40  66  97 131 167 213 266 320 385
#     4  11  23  39  66  99 129 168 217 270 328 390
#     4  11  21  38  63  88 125 169 215 265 317 376
#     4   9  18  32  54  85 120 159 200 248 308 364
#     4  11  26  44  61  87 126 174 228 279 323 377
#
# _framework density 19.937740000000002
#
# number of rings (size 3 to 8) (size 9 to 14) (size 15 to 20)
#    0.000    1.615    3.077    1.385    1.077    4.000 
#    0.000    3.462    0.000    0.462    0.000    0.000 
#    0.000    0.000    0.000    0.000    0.000    0.000 
#
# Total GULP energy -289763.508293 kJ/mol
# GULP energy per Si atom -5572.375159 kJ/mol
# Density = 1.989236 g / cm^3
# Si number density = 19.937740 Si / 1000 Ang^3
#
#
#
# Elastic Constant Matrix: (Units=GPa)
#
#
# Indices 1 2 3 4 5 6 
#
# 1 106.6989 32.2383 4.8367 0.0000 0.0000 0.0000
# 2 32.2383 84.5730 25.2421 0.0000 0.0000 0.0000
# 3 4.8367 25.2421 62.2555 0.0000 0.0000 0.0000
# 4 0.0000 0.0000 0.0000 42.5828 0.0000 0.0000
# 5 0.0000 0.0000 0.0000 0.0000 5.5114 0.0000
# 6 0.0000 0.0000 0.0000 0.0000 0.0000 20.0146
#
#
#
# Elastic Compliance Matrix: (Units=1/GPa)
#
#
# Indices 1 2 3 4 5 6 
#
# 1 0.010639 -0.004333 0.000930 0.000000 0.000000 0.000000
# 2 -0.004333 0.015217 -0.005833 0.000000 0.000000 0.000000
# 3 0.000930 -0.005833 0.018356 0.000000 0.000000 0.000000
# 4 0.000000 0.000000 0.000000 0.023484 0.000000 0.000000
# 5 0.000000 0.000000 0.000000 0.000000 0.181443 0.000000
# 6 0.000000 0.000000 0.000000 0.000000 0.000000 0.049964
#
#
# Mechanical properties :
#
#
# Convention : Reuss Voigt Hill
#
# Bulk Modulus (GPa) = 38.85045 42.01796 40.43421
# Shear Modulus (GPa) = 15.33018 26.36910 20.84964
#
# Velocity S-wave (km/s) = 2.77592 3.64066 3.23729
# Velocity P-wave (km/s) = 5.45916 6.22840 5.85642
#
# Compressibility (1/GPa) = 0.02573973
#
# Stress axis : x y z
#
# Youngs Moduli (GPa) = 93.99155 65.71643 54.47901
#
# Poissons Ratio (x) = 0.28477 -0.05069
# Poissons Ratio (y) = 0.40729 0.31779
# Poissons Ratio (z) = -0.08745 0.38334
#
# Static dielectric constant tensor:
#      x y z
#    x 1.735120 0.000000 0.000000 
#    y 0.000000 1.712490 0.000000 
#    z 0.000000 0.000000 1.686430 
# 
# From -- ./inp_files/53299.got.cif
#   From: 2010.05.17/outbox.cif.g08.bks.cpg/sg65_27_cif.got.tgz:53299.got - 2010.06.03 17:01:31.
