data_PCOD9490935
_publ_section_title
;
Structure prediction by ZEFSAII (Michael W. Deem and Ramdas Pophale) SiO2 
 PCOD9490935
Probable space group: C M M M
;
_chemical_formula_sum "Si O2"
_cell_formula_units_Z 78
_cell_length_a 33.735786
_cell_length_b 7.559346
_cell_length_c 17.423795
_cell_angle_alpha 90.000000
_cell_angle_beta 90.000000
_cell_angle_gamma 90.000000
_cell_volume 4443.424546
_symmetry_space_group_name_H-M "C M M M"
_symmetry_group_IT_number 65
_symmetry_cell_setting 'orthorhombic'
loop_
_space_group_symop_operation_xyz
x,y,z
-x,-y,z
x,-y,-z
-x,y,-z
-x,-y,-z
x,y,-z
-x,y,z
x,-y,z
1/2+x,1/2+y,z
1/2-x,1/2-y,z
1/2+x,1/2-y,-z
1/2-x,1/2+y,-z
1/2-x,1/2-y,-z
1/2+x,1/2+y,-z
1/2-x,1/2+y,z
1/2+x,1/2-y,z
loop_
_atom_site_type_symbol
_atom_site_label
_atom_site_fract_x
_atom_site_fract_y
_atom_site_fract_z
Si Si1 0.567236 0.693448 0.500000
Si Si2 0.500000 0.786961 0.733131
Si Si3 0.870356 0.286112 0.815815
Si Si4 0.586521 0.500000 0.914443
Si Si5 0.914062 0.287947 0.662304
Si Si6 0.500000 0.000000 0.500000
Si Si7 0.500000 0.500000 0.135141
Si Si8 0.795690 0.711077 0.913107
O O1 0.548581 0.500000 0.500000
O O2 0.592202 0.712506 0.421929
O O3 0.534557 0.846449 0.500000
O O4 0.459327 0.743033 0.688170
O O5 0.500000 0.671512 0.809536
O O6 0.500000 0.000000 0.745818
O O7 0.875135 0.500000 0.822971
O O8 0.899337 0.174796 0.870017
O O9 0.883345 0.237178 0.729312
O O10 0.827011 0.233772 0.848142
O O11 0.539483 0.500000 0.913308
O O12 0.602721 0.500000 0.000000
O O13 0.912918 0.500000 0.656861
O O14 0.799626 0.500000 0.917747
O O15 0.750000 0.750000 0.894830
O O16 0.803822 0.780962 0.000000
#
# Coordination Sequence:
#
# PCOD9490935 Si02
#       8
#     8   8  16   8  16   2   4  16
#     4  12  25  35  55  82 112 144 179 234 294 336
#     4  10  21  35  55  74 100 139 179 229 280 322
#     4  10  22  39  59  81 109 150 191 229 277 338
#     4  12  25  38  56  78 107 145 191 241 284 328
#     4  10  20  38  57  77 109 143 184 232 276 333
#     4  12  22  44  48  82 116 140 192 228 276 362
#     4  12  23  38  54  73 108 136 192 237 284 318
#     4   9  18  33  54  83 116 144 178 226 281 338
#
# _framework density 17.554029
#
# number of rings (size 3 to 8) (size 9 to 14) (size 15 to 20)
#    0.000    1.641    3.077    1.538    5.744    1.231 
#    0.000    0.000    0.000    1.846    0.000    0.718 
#    0.000    0.000    0.000    0.000    0.000    0.000 
#
# Total GULP energy -217282.838056 kJ/mol
# GULP energy per Si atom -5571.354822 kJ/mol
# Density = 1.751408 g / cm^3
# Si number density = 17.554029 Si / 1000 Ang^3
#
#
#
# Elastic Constant Matrix: (Units=GPa)
#
#
# Indices 1 2 3 4 5 6 
#
# 1 117.8566 17.2979 69.1816 0.0000 0.0000 0.0000
# 2 17.2979 65.4734 34.7647 0.0000 0.0000 0.0000
# 3 69.1816 34.7647 159.8795 0.0000 0.0000 0.0000
# 4 0.0000 0.0000 0.0000 164.2078 0.0000 0.0000
# 5 0.0000 0.0000 0.0000 0.0000 -10.6591 0.0000
# 6 0.0000 0.0000 0.0000 0.0000 0.0000 15.1012
#
#
#
# Elastic Compliance Matrix: (Units=1/GPa)
#
#
# Indices 1 2 3 4 5 6 
#
# 1 0.011385 -0.000443 -0.004830 0.000000 0.000000 0.000000
# 2 -0.000443 0.017284 -0.003567 0.000000 0.000000 0.000000
# 3 -0.004830 -0.003567 0.009120 0.000000 0.000000 0.000000
# 4 0.000000 0.000000 0.000000 0.006090 0.000000 0.000000
# 5 0.000000 0.000000 0.000000 0.000000 -0.093816 0.000000
# 6 0.000000 0.000000 0.000000 0.000000 0.000000 0.066220
#
#
# Mechanical properties :
#
#
# Convention : Reuss Voigt Hill
#
# Bulk Modulus (GPa) = 49.72681 65.07754 57.40217
# Shear Modulus (GPa) = 122.95228 48.52767 85.73998
#
# Velocity S-wave (km/s) = 8.37820 5.26353 6.99639
# Velocity P-wave (km/s) = 11.04453 8.60772 9.90138
#
# Compressibility (1/GPa) = 0.02010988
#
# Stress axis : x y z
#
# Youngs Moduli (GPa) = 87.83312 57.85624 109.64586
#
# Poissons Ratio (x) = 0.02565 0.52960
# Poissons Ratio (y) = 0.03893 0.39105
# Poissons Ratio (z) = 0.42424 0.20635
#
# Static dielectric constant tensor:
#      x y z
#    x 1.591960 0.000000 0.000000 
#    y 0.000000 1.634130 0.000000 
#    z 0.000000 0.000000 1.622640 
# 
# From -- ./inp_files/57944.got.cif
#   From: 2010.05.17/outbox.cif.g08.bks.cpg/sg65_29_cif.got.tgz:57944.got - 2010.06.03 17:01:31.
