data_PCOD9490509
_publ_section_title
;
Structure prediction by ZEFSAII (Michael W. Deem and Ramdas Pophale) SiO2 
 PCOD9490509
Probable space group: C M M M
;
_chemical_formula_sum "Si O2"
_cell_formula_units_Z 88
_cell_length_a 8.764773
_cell_length_b 15.476567
_cell_length_c 33.637323
_cell_angle_alpha 90.000000
_cell_angle_beta 90.000000
_cell_angle_gamma 90.000000
_cell_volume 4562.855657
_symmetry_space_group_name_H-M "C M M M"
_symmetry_group_IT_number 65
_symmetry_cell_setting 'orthorhombic'
loop_
_space_group_symop_operation_xyz
x,y,z
-x,-y,z
x,-y,-z
-x,y,-z
-x,-y,-z
x,y,-z
-x,y,z
x,-y,z
1/2+x,1/2+y,z
1/2-x,1/2-y,z
1/2+x,1/2-y,-z
1/2-x,1/2+y,-z
1/2-x,1/2-y,-z
1/2+x,1/2+y,-z
1/2-x,1/2+y,z
1/2+x,1/2-y,z
loop_
_atom_site_type_symbol
_atom_site_label
_atom_site_fract_x
_atom_site_fract_y
_atom_site_fract_z
Si Si1 0.183237 0.346905 0.625693
Si Si2 0.681876 0.654913 0.081863
Si Si3 0.816176 0.500000 0.315028
Si Si4 0.166681 0.601087 0.000000
Si Si5 0.184174 0.846717 0.169264
Si Si6 0.816716 0.847413 0.543380
Si Si7 0.684580 0.500000 0.773024
O O1 0.250000 0.250000 0.631419
O O2 0.227084 0.414154 0.660125
O O3 0.244404 0.383644 0.583551
O O4 0.000000 0.340556 0.623859
O O5 0.500000 0.654972 0.079090
O O6 0.750000 0.750000 0.084621
O O7 0.723511 0.616442 0.125115
O O8 0.747254 0.620137 0.040804
O O9 0.745662 0.500000 0.271475
O O10 0.000000 0.500000 0.312059
O O11 0.146390 0.500000 0.000000
O O12 0.000000 0.645792 0.000000
O O13 0.250000 0.750000 0.174192
O O14 0.000000 0.839755 0.170481
O O15 0.233815 0.914530 0.202681
O O16 0.780998 0.887110 0.500000
O O17 0.750000 0.750000 0.542115
O O18 0.000000 0.844550 0.547244
O O19 0.500000 0.500000 0.772577
#
# Coordination Sequence:
#
# PCOD9490509 Si02
#       7
#    16  16   8   8  16  16   8
#     4  10  20  36  57  80 110 147 187 229 275 327
#     4  10  20  36  59  81 109 146 184 225 272 326
#     4  10  24  42  57  81 113 146 184 228 279 339
#     4  11  24  37  50  77 115 149 188 231 268 317
#     4   9  20  38  61  88 116 145 184 230 278 335
#     4   9  16  27  47  77 110 144 184 227 272 323
#     4  10  22  40  62  86 112 144 181 229 282 335
#
# _framework density 19.286169000000001
#
# number of rings (size 3 to 8) (size 9 to 14) (size 15 to 20)
#    0.000    2.273    0.000    3.273    1.273    5.455 
#    0.000    4.091    0.000    2.727    0.000    0.000 
#    0.000    0.000    0.000    0.000    0.000    0.000 
#
# Total GULP energy -245290.456955 kJ/mol
# GULP energy per Si atom -5574.783113 kJ/mol
# Density = 1.924227 g / cm^3
# Si number density = 19.286169 Si / 1000 Ang^3
#
#
#
# Elastic Constant Matrix: (Units=GPa)
#
#
# Indices 1 2 3 4 5 6 
#
# 1 58.5394 29.2969 62.4018 0.0000 0.0000 0.0000
# 2 29.2969 88.9497 85.7640 0.0000 0.0000 0.0000
# 3 62.4018 85.7640 226.9007 0.0000 0.0000 0.0000
# 4 0.0000 0.0000 0.0000 929.6492 0.0000 0.0000
# 5 0.0000 0.0000 0.0000 0.0000 34.1555 0.0000
# 6 0.0000 0.0000 0.0000 0.0000 0.0000 15.4841
#
#
#
# Elastic Compliance Matrix: (Units=1/GPa)
#
#
# Indices 1 2 3 4 5 6 
#
# 1 0.024509 -0.002476 -0.005805 0.000000 0.000000 0.000000
# 2 -0.002476 0.017939 -0.006100 0.000000 0.000000 0.000000
# 3 -0.005805 -0.006100 0.008309 0.000000 0.000000 0.000000
# 4 0.000000 0.000000 0.000000 0.001076 0.000000 0.000000
# 5 0.000000 0.000000 0.000000 0.000000 0.029278 0.000000
# 6 0.000000 0.000000 0.000000 0.000000 0.000000 0.064582
#
#
# Mechanical properties :
#
#
# Convention : Reuss Voigt Hill
#
# Bulk Modulus (GPa) = 45.46039 81.03500 63.24770
# Shear Modulus (GPa) = 27.50491 208.98625 118.24558
#
# Velocity S-wave (km/s) = 3.78053 10.42094 7.83863
# Velocity P-wave (km/s) = 6.53294 13.67125 10.71406
#
# Compressibility (1/GPa) = 0.02199717
#
# Stress axis : x y z
#
# Youngs Moduli (GPa) = 40.80103 55.74460 120.34858
#
# Poissons Ratio (x) = 0.13800 0.69859
# Poissons Ratio (y) = 0.10101 0.73409
# Poissons Ratio (z) = 0.23684 0.34003
#
# Static dielectric constant tensor:
#      x y z
#    x 1.859120 0.000000 0.000000 
#    y 0.000000 1.670830 0.000000 
#    z 0.000000 0.000000 1.751640 
# 
# From -- ./inp_files/76718.got.cif
#   From: 2010.05.17/outbox.cif.g08.bks.cpg/sg65_39_cif.got.tgz:76718.got - 2010.06.03 17:01:31.
