data_PCOD9490888
_publ_section_title
;
Structure prediction by ZEFSAII (Michael W. Deem and Ramdas Pophale) SiO2 
 PCOD9490888
Probable space group: C M M M
;
_chemical_formula_sum "Si O2"
_cell_formula_units_Z 80
_cell_length_a 7.811770
_cell_length_b 18.884432
_cell_length_c 30.148816
_cell_angle_alpha 90.000000
_cell_angle_beta 90.000000
_cell_angle_gamma 90.000000
_cell_volume 4447.578642
_symmetry_space_group_name_H-M "C M M M"
_symmetry_group_IT_number 65
_symmetry_cell_setting 'orthorhombic'
loop_
_space_group_symop_operation_xyz
x,y,z
-x,-y,z
x,-y,-z
-x,y,-z
-x,-y,-z
x,y,-z
-x,y,z
x,-y,z
1/2+x,1/2+y,z
1/2-x,1/2-y,z
1/2+x,1/2-y,-z
1/2-x,1/2+y,-z
1/2-x,1/2-y,-z
1/2+x,1/2+y,-z
1/2-x,1/2+y,z
1/2+x,1/2-y,z
loop_
_atom_site_type_symbol
_atom_site_label
_atom_site_fract_x
_atom_site_fract_y
_atom_site_fract_z
Si Si1 0.204179 0.079466 0.134445
Si Si2 0.000000 0.413934 0.704305
Si Si3 0.199322 0.831694 0.553111
Si Si4 0.197527 0.913503 0.768474
Si Si5 0.296303 0.832360 0.048476
Si Si6 0.000000 0.414811 0.601144
O O1 0.261747 0.108457 0.182356
O O2 0.236531 0.125293 0.091204
O O3 0.000000 0.074063 0.139671
O O4 0.274255 0.000000 0.128127
O O5 0.169527 0.390727 0.730920
O O6 0.000000 0.500000 0.705486
O O7 0.000000 0.393806 0.652977
O O8 0.216309 0.841948 0.500000
O O9 0.250000 0.750000 0.562208
O O10 0.332161 0.882285 0.577880
O O11 0.000000 0.843228 0.564973
O O12 0.000000 0.891234 0.761065
O O13 0.196396 0.000000 0.769621
O O14 0.500000 0.838476 0.047327
O O15 0.250000 0.750000 0.052900
O O16 0.228794 0.856686 0.000000
O O17 0.000000 0.500000 0.597795
#
# Coordination Sequence:
#
# PCOD9490888 Si02
#       6
#    16   8  16  16  16   8
#     4   9  18  32  52  78 102 128 166 214 263 306
#     4   9  18  31  50  77 111 151 181 216 283 337
#     4  10  20  37  62  87 114 159 208 241 286 354
#     4   8  15  29  49  74 103 136 178 221 263 324
#     4  10  21  35  50  70  97 132 169 204 253 320
#     4  11  23  36  55  92 129 153 194 253 300 341
#
# _framework density 17.987314999999999
#
# number of rings (size 3 to 8) (size 9 to 14) (size 15 to 20)
#    0.000    2.600    1.000    2.100    1.400    4.000 
#    0.000    5.000    0.000    1.200    0.000    0.000 
#    0.000    0.000    0.000    0.000    0.000    0.000 
#
# Total GULP energy -222931.946727 kJ/mol
# GULP energy per Si atom -5573.298668 kJ/mol
# Density = 1.794638 g / cm^3
# Si number density = 17.987315 Si / 1000 Ang^3
#
#
#
# Elastic Constant Matrix: (Units=GPa)
#
#
# Indices 1 2 3 4 5 6 
#
# 1 113.9538 34.6583 80.2771 0.0000 0.0000 0.0000
# 2 34.6583 46.4913 57.5849 0.0000 0.0000 0.0000
# 3 80.2771 57.5849 138.7614 0.0000 0.0000 0.0000
# 4 0.0000 0.0000 0.0000 -42.1081 0.0000 0.0000
# 5 0.0000 0.0000 0.0000 0.0000 9.8733 0.0000
# 6 0.0000 0.0000 0.0000 0.0000 0.0000 23.6432
#
#
#
# Elastic Compliance Matrix: (Units=1/GPa)
#
#
# Indices 1 2 3 4 5 6 
#
# 1 0.014830 -0.000882 -0.008213 0.000000 0.000000 0.000000
# 2 -0.000882 0.044312 -0.017879 0.000000 0.000000 0.000000
# 3 -0.008213 -0.017879 0.019378 0.000000 0.000000 0.000000
# 4 0.000000 0.000000 0.000000 -0.023748 0.000000 0.000000
# 5 0.000000 0.000000 0.000000 0.000000 0.101283 0.000000
# 6 0.000000 0.000000 0.000000 0.000000 0.000000 0.042296
#
#
# Mechanical properties :
#
#
# Convention : Reuss Voigt Hill
#
# Bulk Modulus (GPa) = 40.69824 71.58301 56.14063
# Shear Modulus (GPa) = 19.19467 6.72741 12.96104
#
# Velocity S-wave (km/s) = 3.27023 1.93603 2.68725
# Velocity P-wave (km/s) = 6.07737 6.69928 6.39589
#
# Compressibility (1/GPa) = 0.02457109
#
# Stress axis : x y z
#
# Youngs Moduli (GPa) = 67.43138 22.56723 51.60521
#
# Poissons Ratio (x) = 0.01991 0.42386
# Poissons Ratio (y) = 0.05948 0.92264
# Poissons Ratio (z) = 0.55384 0.40348
#
# Static dielectric constant tensor:
#      x y z
#    x 1.636060 0.000000 0.000000 
#    y 0.000000 1.587040 0.000000 
#    z 0.000000 0.000000 1.638130 
# 
# From -- ./inp_files/72972.got.cif
#   From: 2010.05.17/outbox.cif.g08.bks.cpg/sg65_37_cif.got.tgz:72972.got - 2010.06.03 17:01:31.
