data_PCOD9490074
_publ_section_title
;
Structure prediction by ZEFSAII (Michael W. Deem and Ramdas Pophale) SiO2 
 PCOD9490074
Probable space group: C M M M
;
_chemical_formula_sum "Si O2"
_cell_formula_units_Z 88
_cell_length_a 25.627904
_cell_length_b 9.584227
_cell_length_c 20.783961
_cell_angle_alpha 90.000000
_cell_angle_beta 90.000000
_cell_angle_gamma 90.000000
_cell_volume 5105.032351
_symmetry_space_group_name_H-M "C M M M"
_symmetry_group_IT_number 65
_symmetry_cell_setting 'orthorhombic'
loop_
_space_group_symop_operation_xyz
x,y,z
-x,-y,z
x,-y,-z
-x,y,-z
-x,-y,-z
x,y,-z
-x,y,z
x,-y,z
1/2+x,1/2+y,z
1/2-x,1/2-y,z
1/2+x,1/2-y,-z
1/2-x,1/2+y,-z
1/2-x,1/2-y,-z
1/2+x,1/2+y,-z
1/2-x,1/2+y,z
1/2+x,1/2-y,z
loop_
_atom_site_type_symbol
_atom_site_label
_atom_site_fract_x
_atom_site_fract_y
_atom_site_fract_z
Si Si1 0.057324 0.652807 0.223855
Si Si2 0.801301 0.166260 0.294579
Si Si3 0.415558 0.666176 0.656390
Si Si4 0.000000 0.334682 0.576908
Si Si5 0.341901 0.233304 0.844737
Si Si6 0.659302 0.500000 0.926638
Si Si7 0.215271 0.500000 0.074549
O O1 0.060300 0.500000 0.257031
O O2 0.064251 0.775836 0.275119
O O3 0.104679 0.659403 0.175035
O O4 0.000000 0.663423 0.194213
O O5 0.750000 0.250000 0.315949
O O6 0.852898 0.190142 0.338514
O O7 0.815257 0.218403 0.222219
O O8 0.791653 0.000000 0.292246
O O9 0.424301 0.500000 0.649232
O O10 0.449211 0.754865 0.605573
O O11 0.000000 0.500000 0.594104
O O12 0.000000 0.324552 0.500000
O O13 0.356684 0.365097 0.887367
O O14 0.305259 0.133243 0.886369
O O15 0.722413 0.500000 0.926372
O O16 0.641373 0.500000 0.000000
O O17 0.197349 0.500000 0.000000
#
# Coordination Sequence:
#
# PCOD9490074 Si02
#       7
#    16  16  16   8  16   8   8
#     4  10  20  35  56  79 106 138 178 228 279 329
#     4  10  21  34  54  83 115 147 182 231 287 337
#     4  10  21  36  56  86 118 149 189 233 276 324
#     4  11  23  39  61  89 123 159 192 227 266 317
#     4  11  21  35  52  77 104 138 179 227 284 339
#     4  11  22  36  53  73 103 137 176 229 278 340
#     4  11  22  36  53  73  99 137 182 225 276 340
#
# _framework density 17.237893
#
# number of rings (size 3 to 8) (size 9 to 14) (size 15 to 20)
#    0.000    1.545    2.727    3.000    2.545    3.636 
#    0.000    0.000    0.000    3.818    0.000    0.000 
#    0.000    0.000    0.000    0.000    0.000    0.000 
#
# Total GULP energy -245422.938976 kJ/mol
# GULP energy per Si atom -5577.794068 kJ/mol
# Density = 1.719866 g / cm^3
# Si number density = 17.237893 Si / 1000 Ang^3
#
#
#
# Elastic Constant Matrix: (Units=GPa)
#
#
# Indices 1 2 3 4 5 6 
#
# 1 119.8155 58.4229 36.8293 0.0000 0.0000 0.0000
# 2 58.4229 132.9820 44.1556 0.0000 0.0000 0.0000
# 3 36.8293 44.1556 76.6597 0.0000 0.0000 0.0000
# 4 0.0000 0.0000 0.0000 56.7072 0.0000 0.0000
# 5 0.0000 0.0000 0.0000 0.0000 16.8319 0.0000
# 6 0.0000 0.0000 0.0000 0.0000 0.0000 35.2976
#
#
#
# Elastic Compliance Matrix: (Units=1/GPa)
#
#
# Indices 1 2 3 4 5 6 
#
# 1 0.011205 -0.003877 -0.003150 0.000000 0.000000 0.000000
# 2 -0.003877 0.010639 -0.004266 0.000000 0.000000 0.000000
# 3 -0.003150 -0.004266 0.017015 0.000000 0.000000 0.000000
# 4 0.000000 0.000000 0.000000 0.017634 0.000000 0.000000
# 5 0.000000 0.000000 0.000000 0.000000 0.059411 0.000000
# 6 0.000000 0.000000 0.000000 0.000000 0.000000 0.028331
#
#
# Mechanical properties :
#
#
# Convention : Reuss Voigt Hill
#
# Bulk Modulus (GPa) = 61.44710 67.58588 64.51649
# Shear Modulus (GPa) = 29.02840 34.43728 31.73284
#
# Velocity S-wave (km/s) = 4.10809 4.47449 4.29520
# Velocity P-wave (km/s) = 7.63059 8.12327 7.88078
#
# Compressibility (1/GPa) = 0.01627416
#
# Stress axis : x y z
#
# Youngs Moduli (GPa) = 89.24819 93.99086 58.77120
#
# Poissons Ratio (x) = 0.36436 0.18514
# Poissons Ratio (y) = 0.34598 0.25071
# Poissons Ratio (z) = 0.28114 0.40095
#
# Static dielectric constant tensor:
#      x y z
#    x 1.602540 0.000000 0.000000 
#    y 0.000000 1.677200 0.000000 
#    z 0.000000 0.000000 1.554160 
# 
# From -- ./inp_files/65211.got.cif
#   From: 2010.05.17/outbox.cif.g08.bks.cpg/sg65_33_cif.got.tgz:65211.got - 2010.06.03 17:01:31.
