data_PCOD9490999
_publ_section_title
;
Structure prediction by ZEFSAII (Michael W. Deem and Ramdas Pophale) SiO2 
 PCOD9490999
Probable space group: C M M M
;
_chemical_formula_sum "Si O2"
_cell_formula_units_Z 58
_cell_length_a 26.395561
_cell_length_b 13.998791
_cell_length_c 7.572909
_cell_angle_alpha 90.000000
_cell_angle_beta 90.000000
_cell_angle_gamma 90.000000
_cell_volume 2798.234872
_symmetry_space_group_name_H-M "C M M M"
_symmetry_group_IT_number 65
_symmetry_cell_setting 'orthorhombic'
loop_
_space_group_symop_operation_xyz
x,y,z
-x,-y,z
x,-y,-z
-x,y,-z
-x,-y,-z
x,y,-z
-x,y,z
x,-y,z
1/2+x,1/2+y,z
1/2-x,1/2-y,z
1/2+x,1/2-y,-z
1/2-x,1/2+y,-z
1/2-x,1/2-y,-z
1/2+x,1/2+y,-z
1/2-x,1/2+y,z
1/2+x,1/2-y,z
loop_
_atom_site_type_symbol
_atom_site_label
_atom_site_fract_x
_atom_site_fract_y
_atom_site_fract_z
Si Si1 0.598117 0.792822 0.214863
Si Si2 0.000000 0.000000 0.000000
Si Si3 0.863839 0.500000 0.212415
Si Si4 0.798694 0.201193 0.204563
Si Si5 0.243046 0.000000 0.708993
Si Si6 0.500000 0.669135 0.301155
O O1 0.647436 0.733003 0.275676
O O2 0.548565 0.738393 0.278654
O O3 0.608903 0.902267 0.271866
O O4 0.595276 0.792842 0.000000
O O5 0.000000 0.085293 0.844778
O O6 0.803659 0.500000 0.256390
O O7 0.865808 0.500000 0.000000
O O8 0.750000 0.250000 0.291639
O O9 0.785140 0.091155 0.212700
O O10 0.800395 0.233841 0.000000
O O11 0.236151 0.000000 0.500000
O O12 0.500000 0.629642 0.500000
#
# Coordination Sequence:
#
# PCOD9490999 Si02
#       6
#    16   2   8  16   8   8
#     4  10  21  42  70 100 136 176 225 288 337 404
#     4  12  26  56  80  96 140 168 242 284 340 402
#     4  10  20  39  70  97 133 182 227 270 337 408
#     4  10  20  38  65  90 124 173 227 274 328 399
#     4  12  24  35  54  91 138 178 217 278 339 402
#     4  12  27  48  78 105 136 179 225 285 342 402
#
# _framework density 20.727353000000001
#
# number of rings (size 3 to 8) (size 9 to 14) (size 15 to 20)
#    0.000    1.379    4.138    1.448    0.000    4.414 
#    0.000    2.759    0.000    0.000    0.000    0.000 
#    0.000    0.000    0.000    0.000    0.000    0.000 
#
# Total GULP energy -161645.367832 kJ/mol
# GULP energy per Si atom -5573.978201 kJ/mol
# Density = 2.068018 g / cm^3
# Si number density = 20.727353 Si / 1000 Ang^3
#
#
#
# Elastic Constant Matrix: (Units=GPa)
#
#
# Indices 1 2 3 4 5 6 
#
# 1 192.1685 96.8634 26.5153 0.0000 0.0000 0.0000
# 2 96.8634 166.9358 13.7942 0.0000 0.0000 0.0000
# 3 26.5153 13.7942 104.9617 0.0000 0.0000 0.0000
# 4 0.0000 0.0000 0.0000 -20.1559 0.0000 0.0000
# 5 0.0000 0.0000 0.0000 0.0000 30.2384 0.0000
# 6 0.0000 0.0000 0.0000 0.0000 0.0000 19.7473
#
#
#
# Elastic Compliance Matrix: (Units=1/GPa)
#
#
# Indices 1 2 3 4 5 6 
#
# 1 0.007538 -0.004263 -0.001344 0.000000 0.000000 0.000000
# 2 -0.004263 0.008467 -0.000036 0.000000 0.000000 0.000000
# 3 -0.001344 -0.000036 0.009872 0.000000 0.000000 0.000000
# 4 0.000000 0.000000 0.000000 -0.049613 0.000000 0.000000
# 5 0.000000 0.000000 0.000000 0.000000 0.033071 0.000000
# 6 0.000000 0.000000 0.000000 0.000000 0.000000 0.050640
#
#
# Mechanical properties :
#
#
# Convention : Reuss Voigt Hill
#
# Bulk Modulus (GPa) = 68.53579 82.04575 75.29077
# Shear Modulus (GPa) = 65.68399 27.75882 46.72140
#
# Velocity S-wave (km/s) = 5.63545 3.66353 4.75288
# Velocity P-wave (km/s) = 8.68801 7.58713 8.15617
#
# Compressibility (1/GPa) = 0.01459092
#
# Stress axis : x y z
#
# Youngs Moduli (GPa) = 132.66359 118.10951 101.30154
#
# Poissons Ratio (x) = 0.50347 0.13615
# Poissons Ratio (y) = 0.56551 0.00363
# Poissons Ratio (z) = 0.17830 0.00424
#
# Static dielectric constant tensor:
#      x y z
#    x 1.727650 0.000000 0.000000 
#    y 0.000000 1.683340 0.000000 
#    z 0.000000 0.000000 1.769950 
# 
# From -- ./inp_files/4545.got.cif
#   From: 2010.05.17/outbox.cif.g08.bks.cpg/sg65_3_cif.got.tgz:4545.got - 2010.06.03 17:01:31.
