data_PCOD9490364
_publ_section_title
;
Structure prediction by ZEFSAII (Michael W. Deem and Ramdas Pophale) SiO2 
 PCOD9490364
Probable space group: C M M M
;
_chemical_formula_sum "Si O2"
_cell_formula_units_Z 66
_cell_length_a 25.284010
_cell_length_b 14.578881
_cell_length_c 10.870788
_cell_angle_alpha 90.000000
_cell_angle_beta 90.000000
_cell_angle_gamma 90.000000
_cell_volume 4007.109135
_symmetry_space_group_name_H-M "C M M M"
_symmetry_group_IT_number 65
_symmetry_cell_setting 'orthorhombic'
loop_
_space_group_symop_operation_xyz
x,y,z
-x,-y,z
x,-y,-z
-x,y,-z
-x,-y,-z
x,y,-z
-x,y,z
x,-y,z
1/2+x,1/2+y,z
1/2-x,1/2-y,z
1/2+x,1/2-y,-z
1/2-x,1/2+y,-z
1/2-x,1/2-y,-z
1/2+x,1/2+y,-z
1/2-x,1/2+y,z
1/2+x,1/2-y,z
loop_
_atom_site_type_symbol
_atom_site_label
_atom_site_fract_x
_atom_site_fract_y
_atom_site_fract_z
Si Si1 0.256643 0.000000 0.145974
Si Si2 0.000000 0.806971 0.632007
Si Si3 0.060853 0.891224 0.000000
Si Si4 0.500000 0.500000 0.500000
Si Si5 0.305520 0.196644 0.858329
Si Si6 0.109414 0.176663 0.251579
Si Si7 0.665694 0.500000 0.643595
O O1 0.291446 0.909065 0.164206
O O2 0.210004 0.000000 0.247931
O O3 0.238275 0.000000 0.000000
O O4 0.000000 0.917413 0.605074
O O5 0.945372 0.785240 0.696826
O O6 0.000000 0.760567 0.500000
O O7 0.093457 0.862628 0.119115
O O8 0.000000 0.854770 0.000000
O O9 0.056754 0.000000 0.000000
O O10 0.250000 0.250000 0.849763
O O11 0.346557 0.245896 0.768690
O O12 0.324327 0.205171 0.000000
O O13 0.131213 0.092001 0.333189
O O14 0.683718 0.500000 0.500000
#
# Coordination Sequence:
#
# PCOD9490364 Si02
#       7
#     8   8   8   2  16  16   8
#     4  10  22  41  60  84 116 153 193 238 294 345
#     4  10  22  35  52  77 116 161 187 223 288 352
#     4  11  22  30  49  85 115 149 181 231 286 338
#     4   8  20  36  52  74 116 162 188 224 278 362
#     4  10  20  35  59  87 113 148 192 240 293 345
#     4  12  21  35  55  82 118 154 189 230 285 345
#     4  12  25  35  54  85 120 157 191 237 282 342
#
# _framework density 16.470725999999999
#
# number of rings (size 3 to 8) (size 9 to 14) (size 15 to 20)
#    0.364    0.848    6.061    1.455    3.394    0.000 
#    0.000    3.636    0.000    0.727    0.000    4.242 
#    0.000    0.000    0.000    0.000    0.000    0.000 
#
# Total GULP energy -183729.675971 kJ/mol
# GULP energy per Si atom -5567.565939 kJ/mol
# Density = 1.643324 g / cm^3
# Si number density = 16.470726 Si / 1000 Ang^3
#
#
#
# Elastic Constant Matrix: (Units=GPa)
#
#
# Indices 1 2 3 4 5 6 
#
# 1 92.3699 41.1594 41.1725 0.0000 0.0000 0.0000
# 2 41.1594 94.3354 19.0430 0.0000 0.0000 0.0000
# 3 41.1725 19.0430 94.1030 0.0000 0.0000 0.0000
# 4 0.0000 0.0000 0.0000 9.9017 0.0000 0.0000
# 5 0.0000 0.0000 0.0000 0.0000 17.2212 0.0000
# 6 0.0000 0.0000 0.0000 0.0000 0.0000 17.5898
#
#
#
# Elastic Compliance Matrix: (Units=1/GPa)
#
#
# Indices 1 2 3 4 5 6 
#
# 1 0.016014 -0.005810 -0.005831 0.000000 0.000000 0.000000
# 2 -0.005810 0.013160 -0.000121 0.000000 0.000000 0.000000
# 3 -0.005831 -0.000121 0.013202 0.000000 0.000000 0.000000
# 4 0.000000 0.000000 0.000000 0.100993 0.000000 0.000000
# 5 0.000000 0.000000 0.000000 0.000000 0.058068 0.000000
# 6 0.000000 0.000000 0.000000 0.000000 0.000000 0.056851
#
#
# Mechanical properties :
#
#
# Convention : Reuss Voigt Hill
#
# Bulk Modulus (GPa) = 53.04362 53.72868 53.38615
# Shear Modulus (GPa) = 17.35533 20.90477 19.13005
#
# Velocity S-wave (km/s) = 3.24961 3.56646 3.41171
# Velocity P-wave (km/s) = 6.80842 7.04635 6.92841
#
# Compressibility (1/GPa) = 0.01885241
#
# Stress axis : x y z
#
# Youngs Moduli (GPa) = 62.44577 75.98869 75.74464
#
# Poissons Ratio (x) = 0.44149 0.44165
# Poissons Ratio (y) = 0.36281 0.00917
# Poissons Ratio (z) = 0.36411 0.00920
#
# Static dielectric constant tensor:
#      x y z
#    x 1.586680 0.000000 0.000000 
#    y 0.000000 1.536810 0.000000 
#    z 0.000000 0.000000 1.454040 
# 
# From -- ./inp_files/28395.got.cif
#   From: 2010.05.17/outbox.cif.g08.bks.cpg/sg65_15_cif.got.tgz:28395.got - 2010.06.03 17:01:31.
