data_PCOD9490357
_publ_section_title
;
Structure prediction by ZEFSAII (Michael W. Deem and Ramdas Pophale) SiO2 
 PCOD9490357
Probable space group: C M M M
;
_chemical_formula_sum "Si O2"
_cell_formula_units_Z 88
_cell_length_a 29.358416
_cell_length_b 8.945613
_cell_length_c 17.514176
_cell_angle_alpha 90.000000
_cell_angle_beta 90.000000
_cell_angle_gamma 90.000000
_cell_volume 4599.731016
_symmetry_space_group_name_H-M "C M M M"
_symmetry_group_IT_number 65
_symmetry_cell_setting 'orthorhombic'
loop_
_space_group_symop_operation_xyz
x,y,z
-x,-y,z
x,-y,-z
-x,y,-z
-x,-y,-z
x,y,-z
-x,y,z
x,-y,z
1/2+x,1/2+y,z
1/2-x,1/2-y,z
1/2+x,1/2-y,-z
1/2-x,1/2+y,-z
1/2-x,1/2-y,-z
1/2+x,1/2+y,-z
1/2-x,1/2+y,z
1/2+x,1/2-y,z
loop_
_atom_site_type_symbol
_atom_site_label
_atom_site_fract_x
_atom_site_fract_y
_atom_site_fract_z
Si Si1 0.701521 0.821912 0.409092
Si Si2 0.891362 0.175262 0.091300
Si Si3 0.052774 0.321722 0.783334
Si Si4 0.889649 0.820330 0.648401
Si Si5 0.796646 0.327953 0.093109
Si Si6 0.447937 0.318598 0.500000
O O1 0.694241 0.792453 0.500000
O O2 0.750000 0.750000 0.388511
O O3 0.660111 0.748665 0.363517
O O4 0.702603 0.000000 0.398175
O O5 0.930088 0.266269 0.134574
O O6 0.841969 0.239044 0.115379
O O7 0.894335 0.000000 0.109777
O O8 0.894867 0.191913 0.000000
O O9 0.057398 0.500000 0.777149
O O10 0.084973 0.241312 0.722337
O O11 0.000000 0.281847 0.770482
O O12 0.920297 0.774313 0.575266
O O13 0.886879 0.000000 0.650457
O O14 0.798944 0.500000 0.118087
O O15 0.750000 0.250000 0.118990
O O16 0.795621 0.327802 0.000000
O O17 0.449493 0.500000 0.500000
O O18 0.500000 0.263991 0.500000
#
# Coordination Sequence:
#
# PCOD9490357 Si02
#       6
#    16  16  16  16  16   8
#     4  10  20  35  58  88 124 162 203 245 291 347
#     4  10  21  38  61  88 116 150 197 249 301 360
#     4  11  25  43  61  84 117 156 197 245 304 362
#     4  11  21  37  61  88 121 157 198 244 295 351
#     4   9  16  28  50  81 116 151 186 227 279 340
#     4   9  18  32  54  85 116 149 192 239 284 337
#
# _framework density 19.131553
#
# number of rings (size 3 to 8) (size 9 to 14) (size 15 to 20)
#    0.000    1.909    0.909    3.273    0.000    6.545 
#    0.000    2.727    0.000    2.182    0.000    0.000 
#    0.000    0.000    0.000    0.000    0.000    0.000 
#
# Total GULP energy -245840.379802 kJ/mol
# GULP energy per Si atom -5587.281359 kJ/mol
# Density = 1.908801 g / cm^3
# Si number density = 19.131553 Si / 1000 Ang^3
#
#
#
# Elastic Constant Matrix: (Units=GPa)
#
#
# Indices 1 2 3 4 5 6 
#
# 1 164.6270 67.6024 41.7319 0.0000 0.0000 0.0000
# 2 67.6024 87.0641 31.8019 0.0000 0.0000 0.0000
# 3 41.7319 31.8019 34.2016 0.0000 0.0000 0.0000
# 4 0.0000 0.0000 0.0000 25.4730 0.0000 0.0000
# 5 0.0000 0.0000 0.0000 0.0000 25.6632 0.0000
# 6 0.0000 0.0000 0.0000 0.0000 0.0000 32.1577
#
#
#
# Elastic Compliance Matrix: (Units=1/GPa)
#
#
# Indices 1 2 3 4 5 6 
#
# 1 0.010072 -0.005045 -0.007599 0.000000 0.000000 0.000000
# 2 -0.005045 0.019920 -0.012367 0.000000 0.000000 0.000000
# 3 -0.007599 -0.012367 0.050009 0.000000 0.000000 0.000000
# 4 0.000000 0.000000 0.000000 0.039257 0.000000 0.000000
# 5 0.000000 0.000000 0.000000 0.000000 0.038966 0.000000
# 6 0.000000 0.000000 0.000000 0.000000 0.000000 0.031097
#
#
# Mechanical properties :
#
#
# Convention : Reuss Voigt Hill
#
# Bulk Modulus (GPa) = 33.35488 63.12944 48.24216
# Shear Modulus (GPa) = 20.05317 26.30921 23.18119
#
# Velocity S-wave (km/s) = 3.24106 3.71236 3.48469
# Velocity P-wave (km/s) = 5.61055 7.17249 6.43906
#
# Compressibility (1/GPa) = 0.02998062
#
# Stress axis : x y z
#
# Youngs Moduli (GPa) = 99.28157 50.19982 19.99634
#
# Poissons Ratio (x) = 0.25327 0.15195
# Poissons Ratio (y) = 0.50090 0.24729
# Poissons Ratio (z) = 0.75442 0.62080
#
# Static dielectric constant tensor:
#      x y z
#    x 1.638150 0.000000 0.000000 
#    y 0.000000 1.637760 0.000000 
#    z 0.000000 0.000000 1.685110 
# 
# From -- ./inp_files/58006.got.cif
#   From: 2010.05.17/outbox.cif.g08.bks.cpg/sg65_30_cif.got.tgz:58006.got - 2010.06.03 17:01:31.
