data_PCOD9490065
_publ_section_title
;
Structure prediction by ZEFSAII (Michael W. Deem and Ramdas Pophale) SiO2 
 PCOD9490065
Probable space group: C M M M
;
_chemical_formula_sum "Si O2"
_cell_formula_units_Z 112
_cell_length_a 13.971974
_cell_length_b 18.261810
_cell_length_c 24.169246
_cell_angle_alpha 90.000000
_cell_angle_beta 90.000000
_cell_angle_gamma 90.000000
_cell_volume 6166.868543
_symmetry_space_group_name_H-M "C M M M"
_symmetry_group_IT_number 65
_symmetry_cell_setting 'orthorhombic'
loop_
_space_group_symop_operation_xyz
x,y,z
-x,-y,z
x,-y,-z
-x,y,-z
-x,-y,-z
x,y,-z
-x,y,z
x,-y,z
1/2+x,1/2+y,z
1/2-x,1/2-y,z
1/2+x,1/2-y,-z
1/2-x,1/2+y,-z
1/2-x,1/2-y,-z
1/2+x,1/2+y,-z
1/2-x,1/2+y,z
1/2+x,1/2-y,z
loop_
_atom_site_type_symbol
_atom_site_label
_atom_site_fract_x
_atom_site_fract_y
_atom_site_fract_z
Si Si1 0.610400 0.151017 0.631069
Si Si2 0.609579 0.911280 0.062383
Si Si3 0.219392 0.584499 0.171041
Si Si4 0.885740 0.872272 0.763535
Si Si5 0.890593 0.701546 0.756161
Si Si6 0.615326 0.292774 0.562772
Si Si7 0.306316 0.582169 0.643302
O O1 0.500000 0.127234 0.621737
O O2 0.613553 0.191859 0.690198
O O3 0.639198 0.212055 0.585979
O O4 0.691657 0.090044 0.636409
O O5 0.500000 0.888692 0.076034
O O6 0.684028 0.891668 0.110311
O O7 0.608885 0.000000 0.060513
O O8 0.632104 0.885677 0.000000
O O9 0.188658 0.500000 0.179543
O O10 0.331241 0.590080 0.185540
O O11 0.170523 0.639730 0.214081
O O12 0.865349 0.785370 0.768142
O O13 0.840815 0.901159 0.705890
O O14 0.000000 0.883056 0.762574
O O15 0.000000 0.690133 0.773793
O O16 0.649009 0.303157 0.500000
O O17 0.500000 0.295541 0.563121
O O18 0.650691 0.355727 0.603759
O O19 0.336748 0.500000 0.628688
#
# Coordination Sequence:
#
# PCOD9490065 Si02
#       7
#    16  16  16  16  16  16  16
#     4  10  21  38  59  82 110 145 183 224 274 337
#     4   8  15  30  52  80 117 153 182 222 278 334
#     4  11  21  32  54  88 115 142 182 232 280 325
#     4  11  23  38  53  74 110 156 195 225 271 336
#     4  10  20  35  56  78 107 147 184 224 273 329
#     4  10  22  41  64  86 108 143 191 235 273 324
#     4  12  24  37  57  84 113 146 182 230 290 338
#
# _framework density 18.161567999999999
#
# number of rings (size 3 to 8) (size 9 to 14) (size 15 to 20)
#    0.000    1.714    2.857    2.571    0.000    4.571 
#    0.000    2.143    0.000    2.143    0.000    7.000 
#    0.000    0.000    0.000    0.000    0.000    0.000 
#
# Total GULP energy -312426.562556 kJ/mol
# GULP energy per Si atom -5579.045760 kJ/mol
# Density = 1.812023 g / cm^3
# Si number density = 18.161568 Si / 1000 Ang^3
#
#
#
# Elastic Constant Matrix: (Units=GPa)
#
#
# Indices 1 2 3 4 5 6 
#
# 1 76.6846 28.9523 43.8052 0.0000 0.0000 0.0000
# 2 28.9523 54.3927 13.7536 0.0000 0.0000 0.0000
# 3 43.8052 13.7536 107.6180 0.0000 0.0000 0.0000
# 4 0.0000 0.0000 0.0000 17.7330 0.0000 0.0000
# 5 0.0000 0.0000 0.0000 0.0000 27.5154 0.0000
# 6 0.0000 0.0000 0.0000 0.0000 0.0000 21.7510
#
#
#
# Elastic Compliance Matrix: (Units=1/GPa)
#
#
# Indices 1 2 3 4 5 6 
#
# 1 0.020622 -0.009150 -0.007225 0.000000 0.000000 0.000000
# 2 -0.009150 0.023059 0.000778 0.000000 0.000000 0.000000
# 3 -0.007225 0.000778 0.012134 0.000000 0.000000 0.000000
# 4 0.000000 0.000000 0.000000 0.056392 0.000000 0.000000
# 5 0.000000 0.000000 0.000000 0.000000 0.036343 0.000000
# 6 0.000000 0.000000 0.000000 0.000000 0.000000 0.045975
#
#
# Mechanical properties :
#
#
# Convention : Reuss Voigt Hill
#
# Bulk Modulus (GPa) = 40.61754 45.74640 43.18197
# Shear Modulus (GPa) = 21.37437 23.54550 22.45994
#
# Velocity S-wave (km/s) = 3.43432 3.60453 3.52045
# Velocity P-wave (km/s) = 6.17569 6.52432 6.35240
#
# Compressibility (1/GPa) = 0.02461990
#
# Stress axis : x y z
#
# Youngs Moduli (GPa) = 48.49183 43.36784 82.41625
#
# Poissons Ratio (x) = 0.39681 0.59543
# Poissons Ratio (y) = 0.44370 -0.06408
# Poissons Ratio (z) = 0.35034 -0.03372
#
# Static dielectric constant tensor:
#      x y z
#    x 1.682960 0.000000 0.000000 
#    y 0.000000 1.604230 0.000000 
#    z 0.000000 0.000000 1.608490 
# 
# From -- ./inp_files/69970.got.cif
#   From: 2010.05.17/outbox.cif.g08.bks.cpg/sg65_35_cif.got.tgz:69970.got - 2010.06.03 17:01:31.
