data_PCOD9490739
_publ_section_title
;
Structure prediction by ZEFSAII (Michael W. Deem and Ramdas Pophale) SiO2 
 PCOD9490739
Probable space group: C M M M
;
_chemical_formula_sum "Si O2"
_cell_formula_units_Z 64
_cell_length_a 13.025439
_cell_length_b 23.803473
_cell_length_c 8.512993
_cell_angle_alpha 90.000000
_cell_angle_beta 90.000000
_cell_angle_gamma 90.000000
_cell_volume 2639.459316
_symmetry_space_group_name_H-M "C M M M"
_symmetry_group_IT_number 65
_symmetry_cell_setting 'orthorhombic'
loop_
_space_group_symop_operation_xyz
x,y,z
-x,-y,z
x,-y,-z
-x,y,-z
-x,-y,-z
x,y,-z
-x,y,z
x,-y,z
1/2+x,1/2+y,z
1/2-x,1/2-y,z
1/2+x,1/2-y,-z
1/2-x,1/2+y,-z
1/2-x,1/2-y,-z
1/2+x,1/2+y,-z
1/2-x,1/2+y,z
1/2+x,1/2-y,z
loop_
_atom_site_type_symbol
_atom_site_label
_atom_site_fract_x
_atom_site_fract_y
_atom_site_fract_z
Si Si1 0.882224 0.747978 0.170644
Si Si2 0.804785 0.863135 0.310864
Si Si3 0.500000 0.436192 0.308834
Si Si4 0.876434 0.265229 0.500000
Si Si5 0.116554 0.566691 0.811632
O O1 0.821125 0.804156 0.219769
O O2 0.880375 0.709627 0.326277
O O3 0.000000 0.765882 0.157778
O O4 0.854349 0.724527 0.000000
O O5 0.816359 0.854205 0.500000
O O6 0.899603 0.902337 0.260340
O O7 0.703902 0.898182 0.272634
O O8 0.500000 0.500000 0.251359
O O9 0.500000 0.438041 0.500000
O O10 0.750000 0.250000 0.500000
O O11 0.000000 0.237528 0.500000
O O12 0.129191 0.500000 0.780812
O O13 0.000000 0.582255 0.765933
O O14 0.124840 0.574787 0.000000
#
# Coordination Sequence:
#
# PCOD9490739 Si02
#       5
#    16  16   8   8  16
#     4  10  20  36  61  90 120 156 192 231 285 352
#     4  11  19  31  53  78 110 146 191 241 288 341
#     4   9  18  28  43  73 113 150 185 237 294 331
#     4  10  22  42  68  96 126 157 192 238 291 360
#     4   9  19  35  50  66  98 146 198 251 301 347
#
# _framework density 24.247391
#
# number of rings (size 3 to 8) (size 9 to 14) (size 15 to 20)
#    0.000    2.125    2.500    2.250    0.000    2.500 
#    0.000    2.500    0.000    4.500    0.000    0.000 
#    0.000    0.000    0.000    0.000    0.000    0.000 
#
# Total GULP energy -178318.565794 kJ/mol
# GULP energy per Si atom -5572.455181 kJ/mol
# Density = 2.419220 g / cm^3
# Si number density = 24.247391 Si / 1000 Ang^3
#
#
#
# Elastic Constant Matrix: (Units=GPa)
#
#
# Indices 1 2 3 4 5 6 
#
# 1 197.8953 50.9711 33.1417 0.0000 0.0000 0.0000
# 2 50.9711 114.0601 26.9237 0.0000 0.0000 0.0000
# 3 33.1417 26.9237 169.3285 0.0000 0.0000 0.0000
# 4 0.0000 0.0000 0.0000 21.0578 0.0000 0.0000
# 5 0.0000 0.0000 0.0000 0.0000 38.5119 0.0000
# 6 0.0000 0.0000 0.0000 0.0000 0.0000 35.6866
#
#
#
# Elastic Compliance Matrix: (Units=1/GPa)
#
#
# Indices 1 2 3 4 5 6 
#
# 1 0.005801 -0.002415 -0.000751 0.000000 0.000000 0.000000
# 2 -0.002415 0.010115 -0.001136 0.000000 0.000000 0.000000
# 3 -0.000751 -0.001136 0.006233 0.000000 0.000000 0.000000
# 4 0.000000 0.000000 0.000000 0.047488 0.000000 0.000000
# 5 0.000000 0.000000 0.000000 0.000000 0.025966 0.000000
# 6 0.000000 0.000000 0.000000 0.000000 0.000000 0.028022
#
#
# Mechanical properties :
#
#
# Convention : Reuss Voigt Hill
#
# Bulk Modulus (GPa) = 73.82822 78.15078 75.98950
# Shear Modulus (GPa) = 36.56470 43.73442 40.14956
#
# Velocity S-wave (km/s) = 3.88749 4.25158 4.07360
# Velocity P-wave (km/s) = 7.11787 7.51011 7.31662
#
# Compressibility (1/GPa) = 0.01354496
#
# Stress axis : x y z
#
# Youngs Moduli (GPa) = 172.38295 98.86727 160.42839
#
# Poissons Ratio (x) = 0.23876 0.12055
# Poissons Ratio (y) = 0.41630 0.18218
# Poissons Ratio (z) = 0.12953 0.11227
#
# Static dielectric constant tensor:
#      x y z
#    x 2.060370 0.000000 0.000000 
#    y 0.000000 1.949260 0.000000 
#    z 0.000000 0.000000 1.940780 
# 
# From -- ./inp_files/4888.got.cif
#   From: 2010.05.17/outbox.cif.g08.bks.cpg/sg65_3_cif.got.tgz:4888.got - 2010.06.03 17:01:31.
