data_PCOD9490210
_publ_section_title
;
Structure prediction by ZEFSAII (Michael W. Deem and Ramdas Pophale) SiO2 
 PCOD9490210
Probable space group: C M M M
;
_chemical_formula_sum "Si O2"
_cell_formula_units_Z 88
_cell_length_a 7.855441
_cell_length_b 25.412337
_cell_length_c 21.390551
_cell_angle_alpha 90.000000
_cell_angle_beta 90.000000
_cell_angle_gamma 90.000000
_cell_volume 4270.091181
_symmetry_space_group_name_H-M "C M M M"
_symmetry_group_IT_number 65
_symmetry_cell_setting 'orthorhombic'
loop_
_space_group_symop_operation_xyz
x,y,z
-x,-y,z
x,-y,-z
-x,y,-z
-x,-y,-z
x,y,-z
-x,y,z
x,-y,z
1/2+x,1/2+y,z
1/2-x,1/2-y,z
1/2+x,1/2-y,-z
1/2-x,1/2+y,-z
1/2-x,1/2-y,-z
1/2+x,1/2+y,-z
1/2-x,1/2+y,z
1/2+x,1/2-y,z
loop_
_atom_site_type_symbol
_atom_site_label
_atom_site_fract_x
_atom_site_fract_y
_atom_site_fract_z
Si Si1 0.195007 0.592355 0.632859
Si Si2 0.695799 0.938022 0.500000
Si Si3 0.297422 0.689539 0.571452
Si Si4 0.302003 0.385201 0.114477
Si Si5 0.293543 0.312415 0.000000
Si Si6 0.702313 0.440626 0.230755
Si Si7 0.305323 0.000000 0.073898
O O1 0.277879 0.575105 0.566935
O O2 0.207068 0.654842 0.623750
O O3 0.272896 0.572765 0.696838
O O4 0.000000 0.573838 0.632782
O O5 0.500000 0.916552 0.500000
O O6 0.681645 0.000000 0.500000
O O7 0.246613 0.674016 0.500000
O O8 0.500000 0.683420 0.576400
O O9 0.250000 0.750000 0.577832
O O10 0.500000 0.370114 0.120831
O O11 0.227944 0.395088 0.184378
O O12 0.286648 0.445479 0.090617
O O13 0.231385 0.344731 0.062137
O O14 0.250000 0.250000 0.000000
O O15 0.500000 0.316331 0.000000
O O16 0.500000 0.442810 0.219275
O O17 0.769825 0.500000 0.218487
O O18 0.500000 0.000000 0.098191
O O19 0.316284 0.000000 0.000000
#
# Coordination Sequence:
#
# PCOD9490210 Si02
#       7
#    16   8  16  16   8  16   8
#     4  11  21  35  55  80 114 151 190 238 295 356
#     4   9  18  32  50  73 104 145 190 233 280 343
#     4  10  20  35  57  82 108 137 180 236 292 346
#     4  10  20  38  62  85 115 161 204 238 287 356
#     4  10  22  39  64  91 119 158 202 244 289 342
#     4  10  21  37  57  83 116 154 195 241 291 348
#     4  11  21  31  53  93 127 146 179 244 301 341
#
# _framework density 20.608460000000001
#
# number of rings (size 3 to 8) (size 9 to 14) (size 15 to 20)
#    0.000    1.818    2.727    1.909    0.000    3.636 
#    0.000    0.909    0.000    4.364    0.000    0.000 
#    0.000    0.000    0.000    0.000    0.000    0.000 
#
# Total GULP energy -245161.630749 kJ/mol
# GULP energy per Si atom -5571.855244 kJ/mol
# Density = 2.056155 g / cm^3
# Si number density = 20.608460 Si / 1000 Ang^3
#
#
#
# Elastic Constant Matrix: (Units=GPa)
#
#
# Indices 1 2 3 4 5 6 
#
# 1 38.7809 1.3158 11.0101 0.0000 0.0000 0.0000
# 2 1.3158 104.2403 61.9721 0.0000 0.0000 0.0000
# 3 11.0101 61.9721 166.4834 0.0000 0.0000 0.0000
# 4 0.0000 0.0000 0.0000 29.3812 0.0000 0.0000
# 5 0.0000 0.0000 0.0000 0.0000 17.8234 0.0000
# 6 0.0000 0.0000 0.0000 0.0000 0.0000 11.0610
#
#
#
# Elastic Compliance Matrix: (Units=1/GPa)
#
#
# Indices 1 2 3 4 5 6 
#
# 1 0.026345 0.000903 -0.002078 0.000000 0.000000 0.000000
# 2 0.000903 0.012351 -0.004657 0.000000 0.000000 0.000000
# 3 -0.002078 -0.004657 0.007878 0.000000 0.000000 0.000000
# 4 0.000000 0.000000 0.000000 0.034035 0.000000 0.000000
# 5 0.000000 0.000000 0.000000 0.000000 0.056106 0.000000
# 6 0.000000 0.000000 0.000000 0.000000 0.000000 0.090408
#
#
# Mechanical properties :
#
#
# Convention : Reuss Voigt Hill
#
# Bulk Modulus (GPa) = 28.64626 50.90007 39.77317
# Shear Modulus (GPa) = 19.96615 27.33356 23.64986
#
# Velocity S-wave (km/s) = 3.11598 3.64583 3.39127
# Velocity P-wave (km/s) = 5.18423 6.51728 5.88860
#
# Compressibility (1/GPa) = 0.03490857
#
# Stress axis : x y z
#
# Youngs Moduli (GPa) = 37.95737 80.96825 126.94177
#
# Poissons Ratio (x) = -0.07312 0.26385
# Poissons Ratio (y) = -0.03428 0.59118
# Poissons Ratio (z) = 0.07889 0.37708
#
# Static dielectric constant tensor:
#      x y z
#    x 1.797820 0.000000 0.000000 
#    y 0.000000 1.764540 0.000000 
#    z 0.000000 0.000000 1.802240 
# 
# From -- ./inp_files/59906.got.cif
#   From: 2010.05.17/outbox.cif.g08.bks.cpg/sg65_30_cif.got.tgz:59906.got - 2010.06.03 17:01:31.
