data_PCOD9490848
_publ_section_title
;
Structure prediction by ZEFSAII (Michael W. Deem and Ramdas Pophale) SiO2 
 PCOD9490848
Probable space group: C M M M
;
_chemical_formula_sum "Si O2"
_cell_formula_units_Z 72
_cell_length_a 18.116608
_cell_length_b 13.991797
_cell_length_c 14.279220
_cell_angle_alpha 90.000000
_cell_angle_beta 90.000000
_cell_angle_gamma 90.000000
_cell_volume 3619.552395
_symmetry_space_group_name_H-M "C M M M"
_symmetry_group_IT_number 65
_symmetry_cell_setting 'orthorhombic'
loop_
_space_group_symop_operation_xyz
x,y,z
-x,-y,z
x,-y,-z
-x,y,-z
-x,-y,-z
x,y,-z
-x,y,z
x,-y,z
1/2+x,1/2+y,z
1/2-x,1/2-y,z
1/2+x,1/2-y,-z
1/2-x,1/2+y,-z
1/2-x,1/2-y,-z
1/2+x,1/2+y,-z
1/2-x,1/2+y,z
1/2+x,1/2-y,z
loop_
_atom_site_type_symbol
_atom_site_label
_atom_site_fract_x
_atom_site_fract_y
_atom_site_fract_z
Si Si1 0.647724 0.885292 0.712865
Si Si2 0.000000 0.616595 0.606231
Si Si3 0.586364 0.385664 0.766005
Si Si4 0.838183 0.735877 0.893914
Si Si5 0.702605 0.383516 0.606918
O O1 0.573901 0.854773 0.659513
O O2 0.646507 0.845094 0.817336
O O3 0.720734 0.854020 0.656223
O O4 0.649378 0.000000 0.715480
O O5 0.000000 0.500000 0.603475
O O6 0.000000 0.651410 0.500000
O O7 0.500000 0.363065 0.754719
O O8 0.593298 0.500000 0.778685
O O9 0.621399 0.329383 0.853055
O O10 0.634990 0.358573 0.675117
O O11 0.750000 0.750000 0.893995
O O12 0.861711 0.714683 0.000000
O O13 0.696050 0.349348 0.500000
O O14 0.704113 0.500000 0.603051
#
# Coordination Sequence:
#
# PCOD9490848 Si02
#       5
#    16   8  16  16  16
#     4  10  20  37  60  87 122 158 195 243 298 363
#     4   9  18  34  59  89 120 157 195 233 287 357
#     4  10  22  41  63  88 122 160 202 252 299 354
#     4  11  24  41  62  86 115 153 199 253 306 355
#     4   9  17  33  60  89 118 157 198 240 297 360
#
# _framework density 19.891961999999999
#
# number of rings (size 3 to 8) (size 9 to 14) (size 15 to 20)
#    0.000    2.111    2.222    0.667    1.556    4.444 
#    0.000    8.889    0.000    2.000    0.000    0.000 
#    0.000    0.000    0.000    0.000    0.000    0.000 
#
# Total GULP energy -201201.707345 kJ/mol
# GULP energy per Si atom -5588.936315 kJ/mol
# Density = 1.984669 g / cm^3
# Si number density = 19.891962 Si / 1000 Ang^3
#
#
#
# Elastic Constant Matrix: (Units=GPa)
#
#
# Indices 1 2 3 4 5 6 
#
# 1 174.1350 41.9523 95.6921 0.0000 0.0000 0.0000
# 2 41.9523 58.7788 32.2558 0.0000 0.0000 0.0000
# 3 95.6921 32.2558 211.2514 0.0000 0.0000 0.0000
# 4 0.0000 0.0000 0.0000 30.2154 0.0000 0.0000
# 5 0.0000 0.0000 0.0000 0.0000 26.1699 0.0000
# 6 0.0000 0.0000 0.0000 0.0000 0.0000 23.1396
#
#
#
# Elastic Compliance Matrix: (Units=1/GPa)
#
#
# Indices 1 2 3 4 5 6 
#
# 1 0.008554 -0.004343 -0.003212 0.000000 0.000000 0.000000
# 2 -0.004343 0.020774 -0.001205 0.000000 0.000000 0.000000
# 3 -0.003212 -0.001205 0.006372 0.000000 0.000000 0.000000
# 4 0.000000 0.000000 0.000000 0.033096 0.000000 0.000000
# 5 0.000000 0.000000 0.000000 0.000000 0.038212 0.000000
# 6 0.000000 0.000000 0.000000 0.000000 0.000000 0.043216
#
#
# Mechanical properties :
#
#
# Convention : Reuss Voigt Hill
#
# Bulk Modulus (GPa) = 55.00031 87.10729 71.05380
# Shear Modulus (GPa) = 28.76838 34.18931 31.47885
#
# Velocity S-wave (km/s) = 3.80706 4.15028 3.98237
# Velocity P-wave (km/s) = 6.85817 8.17629 7.54606
#
# Compressibility (1/GPa) = 0.01818172
#
# Stress axis : x y z
#
# Youngs Moduli (GPa) = 116.90766 48.13804 156.92620
#
# Poissons Ratio (x) = 0.20905 0.50398
# Poissons Ratio (y) = 0.50769 0.18906
# Poissons Ratio (z) = 0.37546 0.05799
#
# Static dielectric constant tensor:
#      x y z
#    x 1.693790 0.000000 0.000000 
#    y 0.000000 1.755080 0.000000 
#    z 0.000000 0.000000 1.659260 
# 
# From -- ./inp_files/39782.got.cif
#   From: 2010.05.17/outbox.cif.g08.bks.cpg/sg65_20_cif.got.tgz:39782.got - 2010.06.03 17:01:31.
