data_PCOD9490633
_publ_section_title
;
Structure prediction by ZEFSAII (Michael W. Deem and Ramdas Pophale) SiO2 
 PCOD9490633
Probable space group: C M M M
;
_chemical_formula_sum "Si O2"
_cell_formula_units_Z 88
_cell_length_a 22.855184
_cell_length_b 22.712509
_cell_length_c 9.215556
_cell_angle_alpha 90.000000
_cell_angle_beta 90.000000
_cell_angle_gamma 90.000000
_cell_volume 4783.781963
_symmetry_space_group_name_H-M "C M M M"
_symmetry_group_IT_number 65
_symmetry_cell_setting 'orthorhombic'
loop_
_space_group_symop_operation_xyz
x,y,z
-x,-y,z
x,-y,-z
-x,y,-z
-x,-y,-z
x,y,-z
-x,y,z
x,-y,z
1/2+x,1/2+y,z
1/2-x,1/2-y,z
1/2+x,1/2-y,-z
1/2-x,1/2+y,-z
1/2-x,1/2-y,-z
1/2+x,1/2+y,-z
1/2-x,1/2+y,z
1/2+x,1/2-y,z
loop_
_atom_site_type_symbol
_atom_site_label
_atom_site_fract_x
_atom_site_fract_y
_atom_site_fract_z
Si Si1 0.211572 0.933197 0.329151
Si Si2 0.383631 0.211873 0.828953
Si Si3 0.000000 0.851204 0.666406
Si Si4 0.668554 0.090552 0.172989
Si Si5 0.379146 0.651634 0.174380
Si Si6 0.000000 0.708626 0.337566
Si Si7 0.432500 0.000000 0.175379
O O1 0.212068 0.918693 0.500000
O O2 0.276749 0.931428 0.264273
O O3 0.171341 0.888222 0.241226
O O4 0.189017 0.000000 0.312971
O O5 0.337106 0.160648 0.803627
O O6 0.368210 0.279040 0.789718
O O7 0.441726 0.192529 0.746172
O O8 0.396910 0.212318 0.000000
O O9 0.058967 0.866327 0.753265
O O10 0.000000 0.873272 0.500000
O O11 0.000000 0.779958 0.658741
O O12 0.608561 0.056202 0.213078
O O13 0.677857 0.080269 0.000000
O O14 0.381894 0.646288 0.000000
O O15 0.000000 0.685609 0.500000
O O16 0.500000 0.000000 0.230013
O O17 0.436786 0.000000 0.000000
#
# Coordination Sequence:
#
# PCOD9490633 Si02
#       7
#    16  16   8  16  16   8   8
#     4  11  24  41  59  79 109 148 189 233 286 342
#     4   9  19  33  53  83 114 146 184 234 285 330
#     4   9  17  33  56  84 118 150 181 222 276 330
#     4  10  20  36  59  83 112 149 192 237 280 330
#     4  10  20  36  59  86 116 148 187 231 279 336
#     4   9  17  29  49  77 113 153 188 220 267 336
#     4   9  18  32  55  87 115 146 193 238 273 317
#
# _framework density 18.395488
#
# number of rings (size 3 to 8) (size 9 to 14) (size 15 to 20)
#    0.000    2.273    0.909    1.636    1.273    5.455 
#    0.000    4.091    0.000    3.273    0.000    0.000 
#    0.000    0.000    0.000    0.000    0.000    0.000 
#
# Total GULP energy -245341.920667 kJ/mol
# GULP energy per Si atom -5575.952742 kJ/mol
# Density = 1.835362 g / cm^3
# Si number density = 18.395488 Si / 1000 Ang^3
#
#
#
# Elastic Constant Matrix: (Units=GPa)
#
#
# Indices 1 2 3 4 5 6 
#
# 1 103.2653 56.1170 43.6810 0.0000 0.0000 0.0000
# 2 56.1170 91.0665 55.8550 0.0000 0.0000 0.0000
# 3 43.6810 55.8550 58.2621 0.0000 0.0000 0.0000
# 4 0.0000 0.0000 0.0000 16.9815 0.0000 0.0000
# 5 0.0000 0.0000 0.0000 0.0000 91.8153 0.0000
# 6 0.0000 0.0000 0.0000 0.0000 0.0000 27.4228
#
#
#
# Elastic Compliance Matrix: (Units=1/GPa)
#
#
# Indices 1 2 3 4 5 6 
#
# 1 0.015358 -0.005829 -0.005926 0.000000 0.000000 0.000000
# 2 -0.005829 0.028866 -0.023303 0.000000 0.000000 0.000000
# 3 -0.005926 -0.023303 0.043947 0.000000 0.000000 0.000000
# 4 0.000000 0.000000 0.000000 0.058888 0.000000 0.000000
# 5 0.000000 0.000000 0.000000 0.000000 0.010891 0.000000
# 6 0.000000 0.000000 0.000000 0.000000 0.000000 0.036466
#
#
# Mechanical properties :
#
#
# Convention : Reuss Voigt Hill
#
# Bulk Modulus (GPa) = 55.38784 62.65551 59.02168
# Shear Modulus (GPa) = 18.48087 33.70665 26.09376
#
# Velocity S-wave (km/s) = 3.17305 4.28522 3.77037
# Velocity P-wave (km/s) = 6.60296 7.65626 7.14904
#
# Compressibility (1/GPa) = 0.01805450
#
# Stress axis : x y z
#
# Youngs Moduli (GPa) = 65.11110 34.64328 22.75486
#
# Poissons Ratio (x) = 0.20195 0.13485
# Poissons Ratio (y) = 0.37956 0.53025
# Poissons Ratio (z) = 0.38586 0.80728
#
# Static dielectric constant tensor:
#      x y z
#    x 1.620300 0.000000 0.000000 
#    y 0.000000 1.649040 0.000000 
#    z 0.000000 0.000000 1.615330 
# 
# From -- ./inp_files/11905.got.cif
#   From: 2010.05.17/outbox.cif.g08.bks.cpg/sg65_6_cif.got.tgz:11905.got - 2010.06.03 17:01:31.
