data_PCOD9490833
_publ_section_title
;
Structure prediction by ZEFSAII (Michael W. Deem and Ramdas Pophale) SiO2 
 PCOD9490833
Probable space group: C M M M
;
_chemical_formula_sum "Si O2"
_cell_formula_units_Z 64
_cell_length_a 14.818511
_cell_length_b 25.109896
_cell_length_c 9.033739
_cell_angle_alpha 90.000000
_cell_angle_beta 90.000000
_cell_angle_gamma 90.000000
_cell_volume 3361.375418
_symmetry_space_group_name_H-M "C M M M"
_symmetry_group_IT_number 65
_symmetry_cell_setting 'orthorhombic'
loop_
_space_group_symop_operation_xyz
x,y,z
-x,-y,z
x,-y,-z
-x,y,-z
-x,-y,-z
x,y,-z
-x,y,z
x,-y,z
1/2+x,1/2+y,z
1/2-x,1/2-y,z
1/2+x,1/2-y,-z
1/2-x,1/2+y,-z
1/2-x,1/2-y,-z
1/2+x,1/2+y,-z
1/2-x,1/2+y,z
1/2+x,1/2-y,z
loop_
_atom_site_type_symbol
_atom_site_label
_atom_site_fract_x
_atom_site_fract_y
_atom_site_fract_z
Si Si1 0.358633 0.610634 0.176932
Si Si2 0.859766 0.000000 0.671459
Si Si3 0.859802 0.500000 0.668820
Si Si4 0.500000 0.311839 0.322793
Si Si5 0.145203 0.608778 0.824339
Si Si6 0.500000 0.803555 0.178469
O O1 0.387364 0.553617 0.244221
O O2 0.414374 0.656640 0.256510
O O3 0.251472 0.616762 0.205415
O O4 0.373249 0.611531 0.000000
O O5 0.888619 0.000000 0.500000
O O6 0.750087 0.000000 0.672923
O O7 0.889050 0.500000 0.500000
O O8 0.887032 0.445320 0.746963
O O9 0.500000 0.313767 0.500000
O O10 0.500000 0.251834 0.263031
O O11 0.086334 0.659923 0.783356
O O12 0.135013 0.600960 0.000000
O O13 0.500000 0.794327 0.000000
#
# Coordination Sequence:
#
# PCOD9490833 Si02
#       6
#    16   8   8   8  16   8
#     4  10  20  37  60  85 112 146 185 227 273 327
#     4   9  17  32  55  86 118 146 178 222 275 331
#     4   9  17  30  53  84 119 150 179 220 273 329
#     4  12  26  41  56  79 110 146 187 234 281 330
#     4   9  19  36  60  85 112 146 185 227 273 324
#     4  10  22  41  60  81 109 146 191 234 272 322
#
# _framework density 19.039825
#
# number of rings (size 3 to 8) (size 9 to 14) (size 15 to 20)
#    0.000    2.250    0.000    2.625    0.000    7.000 
#    0.000   10.000    0.000    0.000    0.000    0.000 
#    0.000    0.000    0.000    0.000    0.000    0.000 
#
# Total GULP energy -178775.572947 kJ/mol
# GULP energy per Si atom -5586.736655 kJ/mol
# Density = 1.899649 g / cm^3
# Si number density = 19.039825 Si / 1000 Ang^3
#
#
#
# Elastic Constant Matrix: (Units=GPa)
#
#
# Indices 1 2 3 4 5 6 
#
# 1 94.4796 82.1695 66.2971 0.0000 0.0000 0.0000
# 2 82.1695 218.9907 109.7219 0.0000 0.0000 0.0000
# 3 66.2971 109.7219 115.8830 0.0000 0.0000 0.0000
# 4 0.0000 0.0000 0.0000 -92.2957 0.0000 0.0000
# 5 0.0000 0.0000 0.0000 0.0000 11.9724 0.0000
# 6 0.0000 0.0000 0.0000 0.0000 0.0000 29.4393
#
#
#
# Elastic Compliance Matrix: (Units=1/GPa)
#
#
# Indices 1 2 3 4 5 6 
#
# 1 0.018768 -0.003163 -0.007743 0.000000 0.000000 0.000000
# 2 -0.003163 0.009221 -0.006921 0.000000 0.000000 0.000000
# 3 -0.007743 -0.006921 0.019612 0.000000 0.000000 0.000000
# 4 0.000000 0.000000 0.000000 -0.010835 0.000000 0.000000
# 5 0.000000 0.000000 0.000000 0.000000 0.083526 0.000000
# 6 0.000000 0.000000 0.000000 0.000000 0.000000 0.033968
#
#
# Mechanical properties :
#
#
# Convention : Reuss Voigt Hill
#
# Bulk Modulus (GPa) = 83.69673 105.08113 94.38893
# Shear Modulus (GPa) = 25.78698 1.23419 13.51058
#
# Velocity S-wave (km/s) = 3.68417 0.80599 2.66671
# Velocity P-wave (km/s) = 7.88363 7.49507 7.69181
#
# Compressibility (1/GPa) = 0.01194790
#
# Stress axis : x y z
#
# Youngs Moduli (GPa) = 53.28192 108.44906 50.98861
#
# Poissons Ratio (x) = 0.34300 0.39479
# Poissons Ratio (y) = 0.16852 0.35290
# Poissons Ratio (z) = 0.41254 0.75060
#
# Static dielectric constant tensor:
#      x y z
#    x 1.707020 0.000000 0.000000 
#    y 0.000000 1.615230 0.000000 
#    z 0.000000 0.000000 1.631390 
# 
# From -- ./inp_files/6853.got.cif
#   From: 2010.05.17/outbox.cif.g08.bks.cpg/sg65_4_cif.got.tgz:6853.got - 2010.06.03 17:01:31.
