data_PCOD9490013
_publ_section_title
;
Structure prediction by ZEFSAII (Michael W. Deem and Ramdas Pophale) SiO2 
 PCOD9490013
Probable space group: C M M M
;
_chemical_formula_sum "Si O2"
_cell_formula_units_Z 88
_cell_length_a 8.694313
_cell_length_b 22.787574
_cell_length_c 24.469832
_cell_angle_alpha 90.000000
_cell_angle_beta 90.000000
_cell_angle_gamma 90.000000
_cell_volume 4848.019418
_symmetry_space_group_name_H-M "C M M M"
_symmetry_group_IT_number 65
_symmetry_cell_setting 'orthorhombic'
loop_
_space_group_symop_operation_xyz
x,y,z
-x,-y,z
x,-y,-z
-x,y,-z
-x,-y,-z
x,y,-z
-x,y,z
x,-y,z
1/2+x,1/2+y,z
1/2-x,1/2-y,z
1/2+x,1/2-y,-z
1/2-x,1/2+y,-z
1/2-x,1/2-y,-z
1/2+x,1/2+y,-z
1/2-x,1/2+y,z
1/2+x,1/2-y,z
loop_
_atom_site_type_symbol
_atom_site_label
_atom_site_fract_x
_atom_site_fract_y
_atom_site_fract_z
Si Si1 0.816927 0.813855 0.065135
Si Si2 0.684349 0.098999 0.355584
Si Si3 0.684667 0.185724 0.442390
Si Si4 0.183425 0.568532 0.877970
Si Si5 0.674710 0.569984 0.240143
Si Si6 0.185486 0.000000 0.564152
O O1 0.750000 0.750000 0.084339
O O2 0.751737 0.875025 0.090049
O O3 0.000000 0.812866 0.074376
O O4 0.787023 0.816292 0.000000
O O5 0.500000 0.092236 0.352339
O O6 0.731167 0.158571 0.385242
O O7 0.753136 0.093971 0.295615
O O8 0.748962 0.053339 0.400033
O O9 0.733863 0.155399 0.500000
O O10 0.500000 0.185720 0.442677
O O11 0.750000 0.250000 0.444696
O O12 0.235280 0.500000 0.891270
O O13 0.228300 0.579183 0.814699
O O14 0.000000 0.568953 0.884962
O O15 0.500000 0.591281 0.232038
O O16 0.669002 0.500000 0.248338
O O17 0.232368 0.000000 0.500000
O O18 0.000000 0.000000 0.565882
#
# Coordination Sequence:
#
# PCOD9490013 Si02
#       6
#    16  16  16  16  16   8
#     4  10  21  38  61  89 123 162 201 243 296 354
#     4  11  21  34  54  77 104 136 174 220 270 330
#     4   9  19  35  53  73  97 129 169 213 265 323
#     4  10  21  37  59  87 119 156 201 247 292 346
#     4  10  20  35  55  79 110 145 185 230 278 333
#     4  11  23  35  49  75 107 137 172 215 268 329
#
# _framework density 18.151741999999999
#
# number of rings (size 3 to 8) (size 9 to 14) (size 15 to 20)
#    0.000    1.909    0.909    3.000    0.000    6.182 
#    0.000    4.545    0.000    2.182    0.000    0.000 
#    0.000    0.000    0.000    0.000    0.000    0.000 
#
# Total GULP energy -244982.820870 kJ/mol
# GULP energy per Si atom -5567.791383 kJ/mol
# Density = 1.811043 g / cm^3
# Si number density = 18.151742 Si / 1000 Ang^3
#
#
#
# Elastic Constant Matrix: (Units=GPa)
#
#
# Indices 1 2 3 4 5 6 
#
# 1 41.2984 36.9448 37.9313 0.0000 0.0000 0.0000
# 2 36.9448 114.5948 67.8259 0.0000 0.0000 0.0000
# 3 37.9313 67.8259 94.3116 0.0000 0.0000 0.0000
# 4 0.0000 0.0000 0.0000 52.1088 0.0000 0.0000
# 5 0.0000 0.0000 0.0000 0.0000 27.5613 0.0000
# 6 0.0000 0.0000 0.0000 0.0000 0.0000 29.0708
#
#
#
# Elastic Compliance Matrix: (Units=1/GPa)
#
#
# Indices 1 2 3 4 5 6 
#
# 1 0.040612 -0.005964 -0.012045 0.000000 0.000000 0.000000
# 2 -0.005964 0.016070 -0.009158 0.000000 0.000000 0.000000
# 3 -0.012045 -0.009158 0.022033 0.000000 0.000000 0.000000
# 4 0.000000 0.000000 0.000000 0.019191 0.000000 0.000000
# 5 0.000000 0.000000 0.000000 0.000000 0.036283 0.000000
# 6 0.000000 0.000000 0.000000 0.000000 0.000000 0.034399
#
#
# Mechanical properties :
#
#
# Convention : Reuss Voigt Hill
#
# Bulk Modulus (GPa) = 41.01448 59.51209 50.26328
# Shear Modulus (GPa) = 21.64050 28.91503 25.27777
#
# Velocity S-wave (km/s) = 3.45657 3.99552 3.73578
# Velocity P-wave (km/s) = 6.21087 7.35817 6.80873
#
# Compressibility (1/GPa) = 0.02438164
#
# Stress axis : x y z
#
# Youngs Moduli (GPa) = 24.62321 62.22913 45.38544
#
# Poissons Ratio (x) = 0.37115 0.54665
# Poissons Ratio (y) = 0.14686 0.41564
# Poissons Ratio (z) = 0.29658 0.56989
#
# Static dielectric constant tensor:
#      x y z
#    x 1.623530 0.000000 0.000000 
#    y 0.000000 1.713670 0.000000 
#    z 0.000000 0.000000 1.633040 
# 
# From -- ./inp_files/59805.got.cif
#   From: 2010.05.17/outbox.cif.g08.bks.cpg/sg65_30_cif.got.tgz:59805.got - 2010.06.03 17:01:31.
