data_PCOD9490208
_publ_section_title
;
Structure prediction by ZEFSAII (Michael W. Deem and Ramdas Pophale) SiO2 
 PCOD9490208
Probable space group: C M M M
;
_chemical_formula_sum "Si O2"
_cell_formula_units_Z 88
_cell_length_a 15.376965
_cell_length_b 16.193182
_cell_length_c 17.724301
_cell_angle_alpha 90.000000
_cell_angle_beta 90.000000
_cell_angle_gamma 90.000000
_cell_volume 4413.386271
_symmetry_space_group_name_H-M "C M M M"
_symmetry_group_IT_number 65
_symmetry_cell_setting 'orthorhombic'
loop_
_space_group_symop_operation_xyz
x,y,z
-x,-y,z
x,-y,-z
-x,y,-z
-x,-y,-z
x,y,-z
-x,y,z
x,-y,z
1/2+x,1/2+y,z
1/2-x,1/2-y,z
1/2+x,1/2-y,-z
1/2-x,1/2+y,-z
1/2-x,1/2-y,-z
1/2+x,1/2+y,-z
1/2-x,1/2+y,z
1/2+x,1/2-y,z
loop_
_atom_site_type_symbol
_atom_site_label
_atom_site_fract_x
_atom_site_fract_y
_atom_site_fract_z
Si Si1 0.832890 0.188812 0.763718
Si Si2 0.904210 0.663082 0.317643
Si Si3 0.105220 0.763612 0.915641
Si Si4 0.103240 0.589969 0.847574
Si Si5 0.899917 0.100703 0.500000
Si Si6 0.231604 0.095923 0.630732
O O1 0.750000 0.250000 0.765662
O O2 0.900433 0.244656 0.716527
O O3 0.863478 0.177195 0.848695
O O4 0.807046 0.111074 0.714163
O O5 0.890972 0.607012 0.242183
O O6 0.822499 0.645390 0.371160
O O7 0.000000 0.646238 0.349040
O O8 0.135695 0.671035 0.891329
O O9 0.000000 0.762930 0.914523
O O10 0.134329 0.783282 0.000000
O O11 0.140850 0.500000 0.866184
O O12 0.000000 0.586916 0.864278
O O13 0.841754 0.124815 0.427942
O O14 0.000000 0.130558 0.500000
O O15 0.904284 0.000000 0.500000
O O16 0.249517 0.000000 0.616917
#
# Coordination Sequence:
#
# PCOD9490208 Si02
#       6
#    16  16  16  16   8  16
#     4   9  18  32  50  73 102 138 178 213 250 308
#     4   9  17  31  52  78 110 142 169 206 260 320
#     4   9  17  28  43  65  95 133 175 219 266 311
#     4   8  13  22  39  65  97 134 174 212 252 301
#     4   9  20  38  56  77 107 139 173 220 270 306
#     4  10  20  35  57  82 104 132 176 222 264 314
#
# _framework density 19.939337999999999
#
# number of rings (size 3 to 8) (size 9 to 14) (size 15 to 20)
#    0.000    3.000    0.000    2.182    0.000    3.273 
#    0.000    6.364    0.000    2.182    0.000    1.273 
#    0.000    0.000    0.000    0.000    0.000    0.000 
#
# Total GULP energy -245107.391334 kJ/mol
# GULP energy per Si atom -5570.622530 kJ/mol
# Density = 1.989396 g / cm^3
# Si number density = 19.939338 Si / 1000 Ang^3
#
#
#
# Elastic Constant Matrix: (Units=GPa)
#
#
# Indices 1 2 3 4 5 6 
#
# 1 124.0461 11.2754 56.8327 0.0000 0.0000 0.0000
# 2 11.2754 13.1047 4.4075 0.0000 0.0000 0.0000
# 3 56.8327 4.4075 76.1625 0.0000 0.0000 0.0000
# 4 0.0000 0.0000 0.0000 16.8771 0.0000 0.0000
# 5 0.0000 0.0000 0.0000 0.0000 25.6436 0.0000
# 6 0.0000 0.0000 0.0000 0.0000 0.0000 17.9777
#
#
#
# Elastic Compliance Matrix: (Units=1/GPa)
#
#
# Indices 1 2 3 4 5 6 
#
# 1 0.013042 -0.008106 -0.009263 0.000000 0.000000 0.000000
# 2 -0.008106 0.082862 0.001254 0.000000 0.000000 0.000000
# 3 -0.009263 0.001254 0.019969 0.000000 0.000000 0.000000
# 4 0.000000 0.000000 0.000000 0.059252 0.000000 0.000000
# 5 0.000000 0.000000 0.000000 0.000000 0.038996 0.000000
# 6 0.000000 0.000000 0.000000 0.000000 0.000000 0.055624
#
#
# Mechanical properties :
#
#
# Convention : Reuss Voigt Hill
#
# Bulk Modulus (GPa) = 11.95569 39.81603 25.88586
# Shear Modulus (GPa) = 15.15805 21.48620 18.32212
#
# Velocity S-wave (km/s) = 2.76018 3.28621 3.03461
# Velocity P-wave (km/s) = 4.02084 5.86607 5.02882
#
# Compressibility (1/GPa) = 0.08364219
#
# Stress axis : x y z
#
# Youngs Moduli (GPa) = 76.67352 12.06831 50.07657
#
# Poissons Ratio (x) = 0.09783 0.46386
# Poissons Ratio (y) = 0.62154 -0.06279
# Poissons Ratio (z) = 0.71024 -0.01513
#
# Static dielectric constant tensor:
#      x y z
#    x 1.768050 0.000000 0.000000 
#    y 0.000000 1.709220 0.000000 
#    z 0.000000 0.000000 1.724730 
# 
# From -- ./inp_files/52989.got.cif
#   From: 2010.05.17/outbox.cif.g08.bks.cpg/sg65_27_cif.got.tgz:52989.got - 2010.06.03 17:01:31.
