data_PCOD9490896
_publ_section_title
;
Structure prediction by ZEFSAII (Michael W. Deem and Ramdas Pophale) SiO2 
 PCOD9490896
Probable space group: C M M M
;
_chemical_formula_sum "Si O2"
_cell_formula_units_Z 72
_cell_length_a 15.725410
_cell_length_b 8.921303
_cell_length_c 25.262795
_cell_angle_alpha 90.000000
_cell_angle_beta 90.000000
_cell_angle_gamma 90.000000
_cell_volume 3544.146497
_symmetry_space_group_name_H-M "C M M M"
_symmetry_group_IT_number 65
_symmetry_cell_setting 'orthorhombic'
loop_
_space_group_symop_operation_xyz
x,y,z
-x,-y,z
x,-y,-z
-x,y,-z
-x,-y,-z
x,y,-z
-x,y,z
x,-y,z
1/2+x,1/2+y,z
1/2-x,1/2-y,z
1/2+x,1/2-y,-z
1/2-x,1/2+y,-z
1/2-x,1/2-y,-z
1/2+x,1/2+y,-z
1/2-x,1/2+y,z
1/2+x,1/2-y,z
loop_
_atom_site_type_symbol
_atom_site_label
_atom_site_fract_x
_atom_site_fract_y
_atom_site_fract_z
Si Si1 0.899179 0.831652 0.164920
Si Si2 0.160328 0.821486 0.379430
Si Si3 0.656147 0.179464 0.941936
Si Si4 0.000000 0.674680 0.436657
Si Si5 0.396474 0.173957 0.728144
O O1 0.886940 0.750086 0.109181
O O2 0.867493 0.736636 0.214959
O O3 0.000000 0.844549 0.173178
O O4 0.862409 0.000000 0.163597
O O5 0.250000 0.750000 0.395801
O O6 0.083252 0.754436 0.413556
O O7 0.141386 0.771575 0.319123
O O8 0.162919 0.000000 0.383597
O O9 0.750000 0.250000 0.942530
O O10 0.660121 0.000000 0.936883
O O11 0.617076 0.213426 0.000000
O O12 0.000000 0.500000 0.419738
O O13 0.000000 0.681031 0.500000
O O14 0.500000 0.181858 0.725126
O O15 0.372506 0.000000 0.721798
#
# Coordination Sequence:
#
# PCOD9490896 Si02
#       5
#    16  16  16   8  16
#     4  10  21  36  56  84 117 152 195 244 300 364
#     4  12  25  42  68 100 136 176 223 272 324 387
#     4  10  21  37  56  77 105 144 191 243 302 366
#     4  11  25  47  73 101 137 179 222 271 326 381
#     4  10  20  37  62  89 124 163 204 255 316 379
#
# _framework density 20.315187999999999
#
# number of rings (size 3 to 8) (size 9 to 14) (size 15 to 20)
#    0.000    1.444    1.111    4.333    0.000    6.222 
#    0.000    6.667    0.000    0.000    0.000    0.000 
#    0.000    0.000    0.000    0.000    0.000    0.000 
#
# Total GULP energy -201252.467252 kJ/mol
# GULP energy per Si atom -5590.346313 kJ/mol
# Density = 2.026895 g / cm^3
# Si number density = 20.315188 Si / 1000 Ang^3
#
#
#
# Elastic Constant Matrix: (Units=GPa)
#
#
# Indices 1 2 3 4 5 6 
#
# 1 84.1671 61.1719 43.2555 0.0000 0.0000 0.0000
# 2 61.1719 192.7628 68.0507 0.0000 0.0000 0.0000
# 3 43.2555 68.0507 110.0444 0.0000 0.0000 0.0000
# 4 0.0000 0.0000 0.0000 32.5366 0.0000 0.0000
# 5 0.0000 0.0000 0.0000 0.0000 -44.6124 0.0000
# 6 0.0000 0.0000 0.0000 0.0000 0.0000 30.6122
#
#
#
# Elastic Compliance Matrix: (Units=1/GPa)
#
#
# Indices 1 2 3 4 5 6 
#
# 1 0.016863 -0.003852 -0.004246 0.000000 0.000000 0.000000
# 2 -0.003852 0.007517 -0.003134 0.000000 0.000000 0.000000
# 3 -0.004246 -0.003134 0.012694 0.000000 0.000000 0.000000
# 4 0.000000 0.000000 0.000000 0.030735 0.000000 0.000000
# 5 0.000000 0.000000 0.000000 0.000000 -0.022415 0.000000
# 6 0.000000 0.000000 0.000000 0.000000 0.000000 0.032667
#
#
# Mechanical properties :
#
#
# Convention : Reuss Voigt Hill
#
# Bulk Modulus (GPa) = 68.45048 81.32561 74.88805
# Shear Modulus (GPa) = 47.44060 18.00704 32.72382
#
# Velocity S-wave (km/s) = 4.83766 2.98045 4.01784
# Velocity P-wave (km/s) = 8.06048 7.20853 7.64638
#
# Compressibility (1/GPa) = 0.01460910
#
# Stress axis : x y z
#
# Youngs Moduli (GPa) = 59.30057 133.03831 78.77542
#
# Poissons Ratio (x) = 0.51252 0.33449
# Poissons Ratio (y) = 0.22845 0.24688
# Poissons Ratio (z) = 0.25180 0.41694
#
# Static dielectric constant tensor:
#      x y z
#    x 1.744990 0.000000 0.000000 
#    y 0.000000 1.693060 0.000000 
#    z 0.000000 0.000000 1.711560 
# 
# From -- ./inp_files/74618.got.cif
#   From: 2010.05.17/outbox.cif.g08.bks.cpg/sg65_38_cif.got.tgz:74618.got - 2010.06.03 17:01:31.
