data_PCOD9490890
_publ_section_title
;
Structure prediction by ZEFSAII (Michael W. Deem and Ramdas Pophale) SiO2 
 PCOD9490890
Probable space group: C M M M
;
_chemical_formula_sum "Si O2"
_cell_formula_units_Z 72
_cell_length_a 7.826464
_cell_length_b 18.459596
_cell_length_c 27.371483
_cell_angle_alpha 90.000000
_cell_angle_beta 90.000000
_cell_angle_gamma 90.000000
_cell_volume 3954.450214
_symmetry_space_group_name_H-M "C M M M"
_symmetry_group_IT_number 65
_symmetry_cell_setting 'orthorhombic'
loop_
_space_group_symop_operation_xyz
x,y,z
-x,-y,z
x,-y,-z
-x,y,-z
-x,-y,-z
x,y,-z
-x,y,z
x,-y,z
1/2+x,1/2+y,z
1/2-x,1/2-y,z
1/2+x,1/2-y,-z
1/2-x,1/2+y,-z
1/2-x,1/2-y,-z
1/2+x,1/2+y,-z
1/2-x,1/2+y,z
1/2+x,1/2-y,z
loop_
_atom_site_type_symbol
_atom_site_label
_atom_site_fract_x
_atom_site_fract_y
_atom_site_fract_z
Si Si1 0.705538 0.666207 0.500000
Si Si2 0.189703 0.411725 0.704669
Si Si3 0.293076 0.415571 0.403219
Si Si4 0.000000 0.913102 0.885463
Si Si5 0.199311 0.334128 0.057985
Si Si6 0.000000 0.911627 0.227604
O O1 0.500000 0.657841 0.500000
O O2 0.750000 0.750000 0.500000
O O3 0.767602 0.628268 0.450360
O O4 0.197170 0.500000 0.703589
O O5 0.225168 0.388710 0.648920
O O6 0.334250 0.387335 0.742126
O O7 0.000000 0.390111 0.719747
O O8 0.500000 0.412556 0.400798
O O9 0.245518 0.500000 0.408999
O O10 0.167959 0.882190 0.912022
O O11 0.000000 0.889814 0.828700
O O12 0.000000 0.000000 0.887656
O O13 0.250000 0.250000 0.065101
O O14 0.000000 0.344788 0.071077
O O15 0.217685 0.349264 0.000000
O O16 0.000000 0.000000 0.228102
#
# Coordination Sequence:
#
# PCOD9490890 Si02
#       6
#     8  16  16   8  16   8
#     4  10  21  33  47  71 101 138 165 199 265 332
#     4   9  16  28  50  77 102 135 178 222 270 324
#     4   9  16  30  52  75  98 126 171 223 261 305
#     4  11  23  36  57  92 128 158 193 249 306 346
#     4  10  20  37  62  88 116 160 207 242 287 353
#     4   9  18  33  50  76 116 150 176 223 284 333
#
# _framework density 18.207332999999998
#
# number of rings (size 3 to 8) (size 9 to 14) (size 15 to 20)
#    0.000    2.444    2.222    0.667    0.000    4.444 
#    0.000    3.333    0.000    4.667    0.000    0.000 
#    0.000    0.000    0.000    0.000    0.000    0.000 
#
# Total GULP energy -200833.473787 kJ/mol
# GULP energy per Si atom -5578.707605 kJ/mol
# Density = 1.816589 g / cm^3
# Si number density = 18.207333 Si / 1000 Ang^3
#
#
#
# Elastic Constant Matrix: (Units=GPa)
#
#
# Indices 1 2 3 4 5 6 
#
# 1 147.3252 38.0264 98.9565 0.0000 0.0000 0.0000
# 2 38.0264 45.4547 54.9022 0.0000 0.0000 0.0000
# 3 98.9565 54.9022 146.2666 0.0000 0.0000 0.0000
# 4 0.0000 0.0000 0.0000 -11.5367 0.0000 0.0000
# 5 0.0000 0.0000 0.0000 0.0000 -1.8474 0.0000
# 6 0.0000 0.0000 0.0000 0.0000 0.0000 22.2242
#
#
#
# Elastic Compliance Matrix: (Units=1/GPa)
#
#
# Indices 1 2 3 4 5 6 
#
# 1 0.012446 -0.000442 -0.008255 0.000000 0.000000 0.000000
# 2 -0.000442 0.040262 -0.014814 0.000000 0.000000 0.000000
# 3 -0.008255 -0.014814 0.017982 0.000000 0.000000 0.000000
# 4 0.000000 0.000000 0.000000 -0.086680 0.000000 0.000000
# 5 0.000000 0.000000 0.000000 0.000000 -0.541307 0.000000
# 6 0.000000 0.000000 0.000000 0.000000 0.000000 0.044996
#
#
# Mechanical properties :
#
#
# Convention : Reuss Voigt Hill
#
# Bulk Modulus (GPa) = 42.24771 80.31300 61.28036
# Shear Modulus (GPa) = -10.93159 11.57879 0.32360
#
# Velocity S-wave (km/s) = -2.45295 2.52452 0.42204
# Velocity P-wave (km/s) = 3.90274 7.25973 5.82817
#
# Compressibility (1/GPa) = 0.02366992
#
# Stress axis : x y z
#
# Youngs Moduli (GPa) = 80.34493 24.83702 55.61130
#
# Poissons Ratio (x) = 0.01098 0.45905
# Poissons Ratio (y) = 0.03551 0.82381
# Poissons Ratio (z) = 0.66322 0.36793
#
# Static dielectric constant tensor:
#      x y z
#    x 1.639900 0.000000 0.000000 
#    y 0.000000 1.598100 0.000000 
#    z 0.000000 0.000000 1.610080 
# 
# From -- ./inp_files/67264.got.cif
#   From: 2010.05.17/outbox.cif.g08.bks.cpg/sg65_34_cif.got.tgz:67264.got - 2010.06.03 17:01:31.
