data_PCOD9490754
_publ_section_title
;
Structure prediction by ZEFSAII (Michael W. Deem and Ramdas Pophale) SiO2 
 PCOD9490754
Probable space group: C M M M
;
_chemical_formula_sum "Si O2"
_cell_formula_units_Z 64
_cell_length_a 7.383619
_cell_length_b 30.638141
_cell_length_c 14.549158
_cell_angle_alpha 90.000000
_cell_angle_beta 90.000000
_cell_angle_gamma 90.000000
_cell_volume 3291.315761
_symmetry_space_group_name_H-M "C M M M"
_symmetry_group_IT_number 65
_symmetry_cell_setting 'orthorhombic'
loop_
_space_group_symop_operation_xyz
x,y,z
-x,-y,z
x,-y,-z
-x,y,-z
-x,-y,-z
x,y,-z
-x,y,z
x,-y,z
1/2+x,1/2+y,z
1/2-x,1/2-y,z
1/2+x,1/2-y,-z
1/2-x,1/2+y,-z
1/2-x,1/2-y,-z
1/2+x,1/2+y,-z
1/2-x,1/2+y,z
1/2+x,1/2-y,z
loop_
_atom_site_type_symbol
_atom_site_label
_atom_site_fract_x
_atom_site_fract_y
_atom_site_fract_z
Si Si1 0.500000 0.091152 0.897283
Si Si2 0.283285 0.386933 0.608707
Si Si3 0.714744 0.701874 0.704891
Si Si4 0.000000 0.449157 0.703121
Si Si5 0.282555 0.331257 0.898085
O O1 0.500000 0.058624 0.812539
O O2 0.326343 0.123421 0.889891
O O3 0.500000 0.071937 0.000000
O O4 0.249807 0.388947 0.500000
O O5 0.500000 0.391149 0.623618
O O6 0.220300 0.339859 0.647852
O O7 0.172818 0.424279 0.660469
O O8 0.500000 0.697533 0.706598
O O9 0.750000 0.750000 0.667450
O O10 0.776840 0.697317 0.810834
O O11 0.000000 0.500000 0.680667
O O12 0.500000 0.337917 0.893443
O O13 0.240686 0.313176 0.000000
#
# Coordination Sequence:
#
# PCOD9490754 Si02
#       5
#     8  16  16   8  16
#     4  10  20  36  63  88 120 163 197 241 303 361
#     4  10  23  44  64  86 122 161 202 256 309 360
#     4  10  21  34  56  86 119 161 203 245 301 361
#     4  12  25  41  68  97 121 156 203 253 314 367
#     4   9  18  34  55  81 115 159 205 247 295 355
#
# _framework density 19.445111000000001
#
# number of rings (size 3 to 8) (size 9 to 14) (size 15 to 20)
#    0.000    2.000    2.500    0.375    3.500    2.750 
#    0.000    1.250    0.000    0.000    0.000    5.250 
#    0.000    0.000    0.000    0.000    0.000    0.000 
#
# Total GULP energy -178555.642525 kJ/mol
# GULP energy per Si atom -5579.863829 kJ/mol
# Density = 1.940085 g / cm^3
# Si number density = 19.445111 Si / 1000 Ang^3
#
#
#
# Elastic Constant Matrix: (Units=GPa)
#
#
# Indices 1 2 3 4 5 6 
#
# 1 71.1290 28.8091 35.4127 0.0000 0.0000 0.0000
# 2 28.8091 148.9987 70.3788 0.0000 0.0000 0.0000
# 3 35.4127 70.3788 118.9618 0.0000 0.0000 0.0000
# 4 0.0000 0.0000 0.0000 1.2442 0.0000 0.0000
# 5 0.0000 0.0000 0.0000 0.0000 19.6532 0.0000
# 6 0.0000 0.0000 0.0000 0.0000 0.0000 19.1404
#
#
#
# Elastic Compliance Matrix: (Units=1/GPa)
#
#
# Indices 1 2 3 4 5 6 
#
# 1 0.016663 -0.001220 -0.004239 0.000000 0.000000 0.000000
# 2 -0.001220 0.009404 -0.005200 0.000000 0.000000 0.000000
# 3 -0.004239 -0.005200 0.012744 0.000000 0.000000 0.000000
# 4 0.000000 0.000000 0.000000 0.803722 0.000000 0.000000
# 5 0.000000 0.000000 0.000000 0.000000 0.050882 0.000000
# 6 0.000000 0.000000 0.000000 0.000000 0.000000 0.052246
#
#
# Mechanical properties :
#
#
# Convention : Reuss Voigt Hill
#
# Bulk Modulus (GPa) = 57.16262 67.58787 62.37524
# Shear Modulus (GPa) = 5.13975 21.64014 13.38994
#
# Velocity S-wave (km/s) = 1.62756 3.33961 2.62697
# Velocity P-wave (km/s) = 5.74392 7.05013 6.43028
#
# Compressibility (1/GPa) = 0.01749395
#
# Stress axis : x y z
#
# Youngs Moduli (GPa) = 60.01201 106.34269 78.46644
#
# Poissons Ratio (x) = 0.12971 0.33260
# Poissons Ratio (y) = 0.07320 0.40804
# Poissons Ratio (z) = 0.25438 0.55300
#
# Static dielectric constant tensor:
#      x y z
#    x 1.693360 0.000000 0.000000 
#    y 0.000000 1.657200 0.000000 
#    z 0.000000 0.000000 1.708230 
# 
# From -- ./inp_files/36404.got.cif
#   From: 2010.05.17/outbox.cif.g08.bks.cpg/sg65_19_cif.got.tgz:36404.got - 2010.06.03 17:01:31.
