data_PCOD9490734
_publ_section_title
;
Structure prediction by ZEFSAII (Michael W. Deem and Ramdas Pophale) SiO2 
 PCOD9490734
Probable space group: C M M M
;
_chemical_formula_sum "Si O2"
_cell_formula_units_Z 88
_cell_length_a 24.160363
_cell_length_b 16.070681
_cell_length_c 11.601955
_cell_angle_alpha 90.000000
_cell_angle_beta 90.000000
_cell_angle_gamma 90.000000
_cell_volume 4504.731519
_symmetry_space_group_name_H-M "C M M M"
_symmetry_group_IT_number 65
_symmetry_cell_setting 'orthorhombic'
loop_
_space_group_symop_operation_xyz
x,y,z
-x,-y,z
x,-y,-z
-x,y,-z
-x,-y,-z
x,y,-z
-x,y,z
x,-y,z
1/2+x,1/2+y,z
1/2-x,1/2-y,z
1/2+x,1/2-y,-z
1/2-x,1/2+y,-z
1/2-x,1/2-y,-z
1/2+x,1/2+y,-z
1/2-x,1/2+y,z
1/2+x,1/2-y,z
loop_
_atom_site_type_symbol
_atom_site_label
_atom_site_fract_x
_atom_site_fract_y
_atom_site_fract_z
Si Si1 0.890400 0.331868 0.750362
Si Si2 0.066107 0.500000 0.361878
Si Si3 0.000000 0.729820 0.873038
Si Si4 0.276664 0.841155 0.871137
Si Si5 0.500000 0.403111 0.223496
Si Si6 0.727822 0.596294 0.372662
Si Si7 0.604944 0.340988 0.630676
O O1 0.903046 0.418006 0.685752
O O2 0.841891 0.339171 0.843942
O O3 0.878475 0.252755 0.668362
O O4 0.946709 0.303697 0.809468
O O5 0.068318 0.500000 0.500000
O O6 0.000000 0.500000 0.329637
O O7 0.000000 0.830240 0.871169
O O8 0.000000 0.696557 0.000000
O O9 0.250000 0.750000 0.878772
O O10 0.252471 0.874609 0.749500
O O11 0.266897 0.879885 0.000000
O O12 0.500000 0.500000 0.189412
O O13 0.444274 0.381690 0.295490
O O14 0.744015 0.633976 0.500000
O O15 0.742359 0.500000 0.379727
O O16 0.661703 0.607742 0.363431
O O17 0.584825 0.338131 0.500000
#
# Coordination Sequence:
#
# PCOD9490734 Si02
#       7
#    16   8   8  16   8  16  16
#     4  11  22  42  63  90 123 164 213 264 321 383
#     4  11  24  42  66  98 136 168 209 270 335 398
#     4  10  22  41  64  85 115 159 209 261 314 381
#     4  11  24  43  66  91 125 168 216 267 321 384
#     4  10  21  35  57  91 123 153 196 252 315 376
#     4  10  22  40  61  90 127 164 208 262 318 378
#     4  10  20  36  61  88 121 164 204 251 310 381
#
# _framework density 19.535015000000001
#
# number of rings (size 3 to 8) (size 9 to 14) (size 15 to 20)
#    0.000    1.545    2.727    1.909    1.273    3.818 
#    0.000    1.818    0.000    2.182    0.000    0.000 
#    0.000    0.000    0.000    0.000    0.000    0.000 
#
# Total GULP energy -245157.007945 kJ/mol
# GULP energy per Si atom -5571.750181 kJ/mol
# Density = 1.949055 g / cm^3
# Si number density = 19.535015 Si / 1000 Ang^3
#
#
#
# Elastic Constant Matrix: (Units=GPa)
#
#
# Indices 1 2 3 4 5 6 
#
# 1 66.3391 6.1912 45.3887 0.0000 0.0000 0.0000
# 2 6.1912 94.7973 31.7639 0.0000 0.0000 0.0000
# 3 45.3887 31.7639 138.4840 0.0000 0.0000 0.0000
# 4 0.0000 0.0000 0.0000 -23.4429 0.0000 0.0000
# 5 0.0000 0.0000 0.0000 0.0000 -110.7001 0.0000
# 6 0.0000 0.0000 0.0000 0.0000 0.0000 20.8517
#
#
#
# Elastic Compliance Matrix: (Units=1/GPa)
#
#
# Indices 1 2 3 4 5 6 
#
# 1 0.019509 0.000941 -0.006610 0.000000 0.000000 0.000000
# 2 0.000941 0.011472 -0.002940 0.000000 0.000000 0.000000
# 3 -0.006610 -0.002940 0.010062 0.000000 0.000000 0.000000
# 4 0.000000 0.000000 0.000000 -0.042657 0.000000 0.000000
# 5 0.000000 0.000000 0.000000 0.000000 -0.009033 0.000000
# 6 0.000000 0.000000 0.000000 0.000000 0.000000 0.047958
#
#
# Mechanical properties :
#
#
# Convention : Reuss Voigt Hill
#
# Bulk Modulus (GPa) = 41.97262 51.81199 46.89230
# Shear Modulus (GPa) = 80.03883 -8.23982 35.89951
#
# Velocity S-wave (km/s) = 6.40788 -2.05600 4.29149
# Velocity P-wave (km/s) = 8.73386 4.57646 6.97225
#
# Compressibility (1/GPa) = 0.02382506
#
# Stress axis : x y z
#
# Youngs Moduli (GPa) = 51.25930 87.16567 99.38656
#
# Poissons Ratio (x) = -0.08199 0.65693
# Poissons Ratio (y) = -0.04822 0.29217
# Poissons Ratio (z) = 0.33881 0.25624
#
# Static dielectric constant tensor:
#      x y z
#    x 1.673330 0.000000 0.000000 
#    y 0.000000 1.736910 0.000000 
#    z 0.000000 0.000000 1.707910 
# 
# From -- ./inp_files/32267.got.cif
#   From: 2010.05.17/outbox.cif.g08.bks.cpg/sg65_17_cif.got.tgz:32267.got - 2010.06.03 17:01:31.
