data_PCOD9490712
_publ_section_title
;
Structure prediction by ZEFSAII (Michael W. Deem and Ramdas Pophale) SiO2 
 PCOD9490712
Probable space group: C M M M
;
_chemical_formula_sum "Si O2"
_cell_formula_units_Z 104
_cell_length_a 29.784411
_cell_length_b 7.291613
_cell_length_c 23.046331
_cell_angle_alpha 90.000000
_cell_angle_beta 90.000000
_cell_angle_gamma 90.000000
_cell_volume 5005.119164
_symmetry_space_group_name_H-M "C M M M"
_symmetry_group_IT_number 65
_symmetry_cell_setting 'orthorhombic'
loop_
_space_group_symop_operation_xyz
x,y,z
-x,-y,z
x,-y,-z
-x,y,-z
-x,-y,-z
x,y,-z
-x,y,z
x,-y,z
1/2+x,1/2+y,z
1/2-x,1/2-y,z
1/2+x,1/2-y,-z
1/2-x,1/2+y,-z
1/2-x,1/2-y,-z
1/2+x,1/2+y,-z
1/2-x,1/2+y,z
1/2+x,1/2-y,z
loop_
_atom_site_type_symbol
_atom_site_label
_atom_site_fract_x
_atom_site_fract_y
_atom_site_fract_z
Si Si1 0.697582 0.718195 0.325704
Si Si2 0.197872 0.218406 0.805042
Si Si3 0.607142 0.278978 0.855421
Si Si4 0.552853 0.000000 0.930636
Si Si5 0.550385 0.276872 0.610936
Si Si6 0.856908 0.223789 0.562973
Si Si7 0.050924 0.778119 0.256840
O O1 0.688965 0.500000 0.323046
O O2 0.750000 0.750000 0.337178
O O3 0.689176 0.790089 0.260509
O O4 0.669436 0.788309 0.380123
O O5 0.250000 0.250000 0.819994
O O6 0.159314 0.278131 0.849454
O O7 0.192439 0.000000 0.801411
O O8 0.603889 0.500000 0.862586
O O9 0.584862 0.226747 0.793479
O O10 0.578761 0.174126 0.903669
O O11 0.500000 0.000000 0.914239
O O12 0.555528 0.000000 0.000000
O O13 0.500000 0.216753 0.595957
O O14 0.549553 0.500000 0.610672
O O15 0.591211 0.221754 0.570589
O O16 0.560812 0.220084 0.677386
O O17 0.839428 0.282157 0.500000
O O18 0.855211 0.000000 0.563667
O O19 0.000000 0.720843 0.242713
O O20 0.051298 0.000000 0.258227
#
# Coordination Sequence:
#
# PCOD9490712 Si02
#       7
#    16  16  16   8  16  16  16
#     4   9  17  30  46  68 101 131 167 216 270 329
#     4   9  18  31  53  84 112 144 182 230 292 347
#     4  10  20  36  60  88 116 156 196 238 285 341
#     4  11  26  44  62  90 126 162 199 237 276 322
#     4   8  13  21  35  58  88 121 158 208 265 323
#     4   9  16  24  35  53  83 127 171 213 260 316
#     4   8  13  23  43  70  98 128 168 218 277 336
#
# _framework density 20.778727
#
# number of rings (size 3 to 8) (size 9 to 14) (size 15 to 20)
#    0.000    3.000    0.000    2.308    1.077    5.538 
#    0.000    2.308    0.000    0.462    0.000    0.000 
#    0.000    0.000    0.000    1.385    0.000    1.538 
#
# Total GULP energy -290153.144755 kJ/mol
# GULP energy per Si atom -5579.868168 kJ/mol
# Density = 2.073143 g / cm^3
# Si number density = 20.778727 Si / 1000 Ang^3
#
#
#
# Elastic Constant Matrix: (Units=GPa)
#
#
# Indices 1 2 3 4 5 6 
#
# 1 128.2038 21.2773 79.5696 0.0000 0.0000 0.0000
# 2 21.2773 97.7723 20.0984 0.0000 0.0000 0.0000
# 3 79.5696 20.0984 74.8263 0.0000 0.0000 0.0000
# 4 0.0000 0.0000 0.0000 47.4872 0.0000 0.0000
# 5 0.0000 0.0000 0.0000 0.0000 25.3959 0.0000
# 6 0.0000 0.0000 0.0000 0.0000 0.0000 5.0309
#
#
#
# Elastic Compliance Matrix: (Units=1/GPa)
#
#
# Indices 1 2 3 4 5 6 
#
# 1 0.022941 0.000024 -0.024402 0.000000 0.000000 0.000000
# 2 0.000024 0.010826 -0.002933 0.000000 0.000000 0.000000
# 3 -0.024402 -0.002933 0.040101 0.000000 0.000000 0.000000
# 4 0.000000 0.000000 0.000000 0.021058 0.000000 0.000000
# 5 0.000000 0.000000 0.000000 0.000000 0.039376 0.000000
# 6 0.000000 0.000000 0.000000 0.000000 0.000000 0.198770
#
#
# Mechanical properties :
#
#
# Convention : Reuss Voigt Hill
#
# Bulk Modulus (GPa) = 51.96053 60.29921 56.12987
# Shear Modulus (GPa) = 12.68686 27.57330 20.13008
#
# Velocity S-wave (km/s) = 2.47365 3.64675 3.11590
# Velocity P-wave (km/s) = 5.76364 6.84210 6.32589
#
# Compressibility (1/GPa) = 0.01924538
#
# Stress axis : x y z
#
# Youngs Moduli (GPa) = 43.59001 92.37366 24.93729
#
# Poissons Ratio (x) = -0.00218 0.60851
# Poissons Ratio (y) = -0.00103 0.07314
# Poissons Ratio (z) = 1.06367 0.27092
#
# Static dielectric constant tensor:
#      x y z
#    x 1.749920 0.000000 0.000000 
#    y 0.000000 1.844230 0.000000 
#    z 0.000000 0.000000 1.704240 
# 
# From -- ./inp_files/71795.got.cif
#   From: 2010.05.17/outbox.cif.g08.bks.cpg/sg65_36_cif.got.tgz:71795.got - 2010.06.03 17:01:31.
