data_PCOD9490685
_publ_section_title
;
Structure prediction by ZEFSAII (Michael W. Deem and Ramdas Pophale) SiO2 
 PCOD9490685
Probable space group: C M M M
;
_chemical_formula_sum "Si O2"
_cell_formula_units_Z 88
_cell_length_a 7.932258
_cell_length_b 18.370435
_cell_length_c 31.395614
_cell_angle_alpha 90.000000
_cell_angle_beta 90.000000
_cell_angle_gamma 90.000000
_cell_volume 4574.938418
_symmetry_space_group_name_H-M "C M M M"
_symmetry_group_IT_number 65
_symmetry_cell_setting 'orthorhombic'
loop_
_space_group_symop_operation_xyz
x,y,z
-x,-y,z
x,-y,-z
-x,y,-z
-x,-y,-z
x,y,-z
-x,y,z
x,-y,z
1/2+x,1/2+y,z
1/2-x,1/2-y,z
1/2+x,1/2-y,-z
1/2-x,1/2+y,-z
1/2-x,1/2-y,-z
1/2+x,1/2+y,-z
1/2-x,1/2+y,z
1/2+x,1/2-y,z
loop_
_atom_site_type_symbol
_atom_site_label
_atom_site_fract_x
_atom_site_fract_y
_atom_site_fract_z
Si Si1 0.812039 0.086991 0.107153
Si Si2 0.796423 0.835002 0.361554
Si Si3 0.796590 0.835655 0.454241
Si Si4 0.500000 0.911312 0.951259
Si Si5 0.697802 0.166111 0.809010
Si Si6 0.704540 0.583738 0.276820
O O1 0.666022 0.110933 0.074864
O O2 0.791201 0.126282 0.152296
O O3 0.000000 0.100284 0.090156
O O4 0.793468 0.000000 0.113897
O O5 0.750000 0.750000 0.357357
O O6 0.736070 0.862903 0.408073
O O7 0.735538 0.879303 0.320691
O O8 0.000000 0.839483 0.361858
O O9 0.735298 0.865808 0.500000
O O10 0.750000 0.750000 0.454257
O O11 0.000000 0.841776 0.454374
O O12 0.500000 0.000000 0.952238
O O13 0.500000 0.886012 0.000000
O O14 0.500000 0.160646 0.817869
O O15 0.750000 0.250000 0.806642
O O16 0.736195 0.127730 0.764265
O O17 0.500000 0.585225 0.276948
O O18 0.758611 0.500000 0.274286
#
# Coordination Sequence:
#
# PCOD9490685 Si02
#       6
#    16  16  16   8  16  16
#     4  10  20  36  59  88 121 156 194 238 285 331
#     4   9  17  29  46  68  95 128 165 212 263 317
#     4   8  13  22  38  61  88 118 156 203 256 310
#     4   9  18  34  58  90 124 158 199 241 280 328
#     4  12  24  38  57  82 109 142 182 229 276 333
#     4  10  21  36  52  72 102 138 176 217 268 328
#
# _framework density 19.235230999999999
#
# number of rings (size 3 to 8) (size 9 to 14) (size 15 to 20)
#    0.000    2.273    0.909    2.727    0.000    5.091 
#    0.000    1.818    0.000    1.091    0.000    3.818 
#    0.000    0.000    0.000   31.091    0.000   15.636 
#
# Total GULP energy -245430.398338 kJ/mol
# GULP energy per Si atom -5577.963599 kJ/mol
# Density = 1.919145 g / cm^3
# Si number density = 19.235231 Si / 1000 Ang^3
#
#
#
# Elastic Constant Matrix: (Units=GPa)
#
#
# Indices 1 2 3 4 5 6 
#
# 1 73.5802 28.2822 47.0868 0.0000 0.0000 0.0000
# 2 28.2822 55.3060 53.5081 0.0000 0.0000 0.0000
# 3 47.0868 53.5081 185.6485 0.0000 0.0000 0.0000
# 4 0.0000 0.0000 0.0000 77.2581 0.0000 0.0000
# 5 0.0000 0.0000 0.0000 0.0000 18.7221 0.0000
# 6 0.0000 0.0000 0.0000 0.0000 0.0000 12.8818
#
#
#
# Elastic Compliance Matrix: (Units=1/GPa)
#
#
# Indices 1 2 3 4 5 6 
#
# 1 0.017790 -0.006562 -0.002621 0.000000 0.000000 0.000000
# 2 -0.006562 0.027493 -0.006260 0.000000 0.000000 0.000000
# 3 -0.002621 -0.006260 0.007856 0.000000 0.000000 0.000000
# 4 0.000000 0.000000 0.000000 0.012944 0.000000 0.000000
# 5 0.000000 0.000000 0.000000 0.000000 0.053413 0.000000
# 6 0.000000 0.000000 0.000000 0.000000 0.000000 0.077629
#
#
# Mechanical properties :
#
#
# Convention : Reuss Voigt Hill
#
# Bulk Modulus (GPa) = 44.93644 63.58766 54.26205
# Shear Modulus (GPa) = 21.23804 34.14956 27.69380
#
# Velocity S-wave (km/s) = 3.32644 4.21808 3.79851
# Velocity P-wave (km/s) = 6.17785 7.54007 6.89269
#
# Compressibility (1/GPa) = 0.02225365
#
# Stress axis : x y z
#
# Youngs Moduli (GPa) = 56.21144 36.37283 127.29921
#
# Poissons Ratio (x) = 0.23867 0.33364
# Poissons Ratio (y) = 0.36884 0.79687
# Poissons Ratio (z) = 0.14733 0.22769
#
# Static dielectric constant tensor:
#      x y z
#    x 1.685920 0.000000 0.000000 
#    y 0.000000 1.619820 0.000000 
#    z 0.000000 0.000000 1.682440 
# 
# From -- ./inp_files/76612.got.cif
#   From: 2010.05.17/outbox.cif.g08.bks.cpg/sg65_39_cif.got.tgz:76612.got - 2010.06.03 17:01:31.
