data_PCOD9490369
_publ_section_title
;
Structure prediction by ZEFSAII (Michael W. Deem and Ramdas Pophale) SiO2 
 PCOD9490369
Probable space group: C M M M
;
_chemical_formula_sum "Si O2"
_cell_formula_units_Z 88
_cell_length_a 28.781135
_cell_length_b 8.875144
_cell_length_c 18.177329
_cell_angle_alpha 90.000000
_cell_angle_beta 90.000000
_cell_angle_gamma 90.000000
_cell_volume 4643.157255
_symmetry_space_group_name_H-M "C M M M"
_symmetry_group_IT_number 65
_symmetry_cell_setting 'orthorhombic'
loop_
_space_group_symop_operation_xyz
x,y,z
-x,-y,z
x,-y,-z
-x,y,-z
-x,-y,-z
x,y,-z
-x,y,z
x,-y,z
1/2+x,1/2+y,z
1/2-x,1/2-y,z
1/2+x,1/2-y,-z
1/2-x,1/2+y,-z
1/2-x,1/2-y,-z
1/2+x,1/2+y,-z
1/2-x,1/2+y,z
1/2+x,1/2-y,z
loop_
_atom_site_type_symbol
_atom_site_label
_atom_site_fract_x
_atom_site_fract_y
_atom_site_fract_z
Si Si1 0.105584 0.320644 0.416091
Si Si2 0.944521 0.175776 0.279449
Si Si3 0.299568 0.678292 0.635056
Si Si4 0.554785 0.319230 0.000000
Si Si5 0.894293 0.320574 0.859419
Si Si6 0.700424 0.321848 0.188236
O O1 0.091180 0.291066 0.500000
O O2 0.104550 0.500000 0.403317
O O3 0.073559 0.237810 0.356921
O O4 0.157759 0.260210 0.403879
O O5 0.920676 0.268774 0.214432
O O6 0.000000 0.187038 0.274391
O O7 0.931044 0.000000 0.271687
O O8 0.299889 0.500000 0.619586
O O9 0.250000 0.750000 0.615034
O O10 0.305798 0.698412 0.723385
O O11 0.579311 0.252054 0.071787
O O12 0.559100 0.500000 0.000000
O O13 0.500000 0.281899 0.000000
O O14 0.894071 0.500000 0.865365
O O15 0.842061 0.258124 0.852240
O O16 0.700304 0.500000 0.173561
O O17 0.750000 0.250000 0.168860
#
# Coordination Sequence:
#
# PCOD9490369 Si02
#       6
#    16  16  16   8  16  16
#     4  11  24  40  59  86 121 159 203 257 313 368
#     4  11  24  42  64  89 118 158 207 255 308 370
#     4  10  20  35  59  87 120 160 203 251 304 364
#     4  11  25  45  68  95 130 169 209 257 309 361
#     4  12  24  40  66  97 130 165 204 252 307 366
#     4  10  20  36  61  93 127 164 207 251 301 362
#
# _framework density 18.95262
#
# number of rings (size 3 to 8) (size 9 to 14) (size 15 to 20)
#    0.000    1.182    1.818    4.636    0.000    8.000 
#    0.000    2.273    0.000    0.000    0.000    0.000 
#    0.000    0.000    0.000    0.000    0.000    0.000 
#
# Total GULP energy -246170.309397 kJ/mol
# GULP energy per Si atom -5594.779759 kJ/mol
# Density = 1.890948 g / cm^3
# Si number density = 18.952620 Si / 1000 Ang^3
#
#
#
# Elastic Constant Matrix: (Units=GPa)
#
#
# Indices 1 2 3 4 5 6 
#
# 1 101.7376 57.7654 56.1935 0.0000 0.0000 0.0000
# 2 57.7654 116.9001 57.8729 0.0000 0.0000 0.0000
# 3 56.1935 57.8729 90.6463 0.0000 0.0000 0.0000
# 4 0.0000 0.0000 0.0000 60.4292 0.0000 0.0000
# 5 0.0000 0.0000 0.0000 0.0000 -30.2001 0.0000
# 6 0.0000 0.0000 0.0000 0.0000 0.0000 36.6754
#
#
#
# Elastic Compliance Matrix: (Units=1/GPa)
#
#
# Indices 1 2 3 4 5 6 
#
# 1 0.016418 -0.004495 -0.007308 0.000000 0.000000 0.000000
# 2 -0.004495 0.013738 -0.005985 0.000000 0.000000 0.000000
# 3 -0.007308 -0.005985 0.019383 0.000000 0.000000 0.000000
# 4 0.000000 0.000000 0.000000 0.016548 0.000000 0.000000
# 5 0.000000 0.000000 0.000000 0.000000 -0.033113 0.000000
# 6 0.000000 0.000000 0.000000 0.000000 0.000000 0.027266
#
#
# Mechanical properties :
#
#
# Convention : Reuss Voigt Hill
#
# Bulk Modulus (GPa) = 71.61204 72.54973 72.08088
# Shear Modulus (GPa) = 49.76563 22.54440 36.15502
#
# Velocity S-wave (km/s) = 5.12981 3.45267 4.37241
# Velocity P-wave (km/s) = 8.54127 7.36595 7.97529
#
# Compressibility (1/GPa) = 0.01396413
#
# Stress axis : x y z
#
# Youngs Moduli (GPa) = 60.90946 72.78985 51.59107
#
# Poissons Ratio (x) = 0.32718 0.37703
# Poissons Ratio (y) = 0.27378 0.30876
# Poissons Ratio (z) = 0.44513 0.43562
#
# Static dielectric constant tensor:
#      x y z
#    x 1.633230 0.000000 0.000000 
#    y 0.000000 1.627790 0.000000 
#    z 0.000000 0.000000 1.640610 
# 
# From -- ./inp_files/57970.got.cif
#   From: 2010.05.17/outbox.cif.g08.bks.cpg/sg65_29_cif.got.tgz:57970.got - 2010.06.03 17:01:31.
