data_PCOD9490961
_publ_section_title
;
Structure prediction by ZEFSAII (Michael W. Deem and Ramdas Pophale) SiO2 
 PCOD9490961
Probable space group: C M M M
;
_chemical_formula_sum "Si O2"
_cell_formula_units_Z 72
_cell_length_a 16.068058
_cell_length_b 8.968319
_cell_length_c 26.697913
_cell_angle_alpha 90.000000
_cell_angle_beta 90.000000
_cell_angle_gamma 90.000000
_cell_volume 3847.261901
_symmetry_space_group_name_H-M "C M M M"
_symmetry_group_IT_number 65
_symmetry_cell_setting 'orthorhombic'
loop_
_space_group_symop_operation_xyz
x,y,z
-x,-y,z
x,-y,-z
-x,y,-z
-x,-y,-z
x,y,-z
-x,y,z
x,-y,z
1/2+x,1/2+y,z
1/2-x,1/2-y,z
1/2+x,1/2-y,-z
1/2-x,1/2+y,-z
1/2-x,1/2-y,-z
1/2+x,1/2+y,-z
1/2-x,1/2+y,z
1/2+x,1/2-y,z
loop_
_atom_site_type_symbol
_atom_site_label
_atom_site_fract_x
_atom_site_fract_y
_atom_site_fract_z
Si Si1 0.500000 0.180491 0.378473
Si Si2 0.402430 0.673460 0.099557
Si Si3 0.162451 0.679410 0.441518
Si Si4 0.163812 0.820093 0.793703
Si Si5 0.000000 0.819757 0.731174
Si Si6 0.840635 0.676620 0.000000
O O1 0.583100 0.225226 0.408762
O O2 0.500000 0.249745 0.323600
O O3 0.500000 0.000000 0.375416
O O4 0.500000 0.677819 0.112578
O O5 0.380906 0.500000 0.089131
O O6 0.352473 0.724490 0.148468
O O7 0.385691 0.767280 0.050114
O O8 0.149184 0.719972 0.500000
O O9 0.169074 0.500000 0.439050
O O10 0.250000 0.750000 0.425090
O O11 0.250000 0.750000 0.775748
O O12 0.083371 0.775843 0.761297
O O13 0.168855 0.000000 0.792701
O O14 0.000000 0.000000 0.727999
O O15 0.750000 0.750000 0.000000
O O16 0.834451 0.500000 0.000000
#
# Coordination Sequence:
#
# PCOD9490961 Si02
#       6
#     8  16  16  16   8   8
#     4  10  21  36  56  82 113 149 190 233 283 335
#     4  10  20  38  62  84 111 147 184 225 281 343
#     4   9  18  34  56  82 114 151 190 232 278 331
#     4  10  21  39  62  85 110 146 189 234 282 338
#     4  10  22  41  59  80 113 150 189 235 286 337
#     4  12  25  38  53  81 117 149 185 229 278 337
#
# _framework density 18.714607000000001
#
# number of rings (size 3 to 8) (size 9 to 14) (size 15 to 20)
#    0.000    2.000    1.111    2.333    0.000    8.444 
#    0.000    4.444    0.000    3.333    0.000    0.000 
#    0.000    0.000    0.000    0.000    0.000    0.000 
#
# Total GULP energy -201049.809127 kJ/mol
# GULP energy per Si atom -5584.716920 kJ/mol
# Density = 1.867201 g / cm^3
# Si number density = 18.714607 Si / 1000 Ang^3
#
#
#
# Elastic Constant Matrix: (Units=GPa)
#
#
# Indices 1 2 3 4 5 6 
#
# 1 165.0414 38.7771 86.6664 0.0000 0.0000 0.0000
# 2 38.7771 32.7076 37.3248 0.0000 0.0000 0.0000
# 3 86.6664 37.3248 121.5547 0.0000 0.0000 0.0000
# 4 0.0000 0.0000 0.0000 28.1779 0.0000 0.0000
# 5 0.0000 0.0000 0.0000 0.0000 5.7434 0.0000
# 6 0.0000 0.0000 0.0000 0.0000 0.0000 33.5462
#
#
#
# Elastic Compliance Matrix: (Units=1/GPa)
#
#
# Indices 1 2 3 4 5 6 
#
# 1 0.010386 -0.005947 -0.005579 0.000000 0.000000 0.000000
# 2 -0.005947 0.050471 -0.011258 0.000000 0.000000 0.000000
# 3 -0.005579 -0.011258 0.015661 0.000000 0.000000 0.000000
# 4 0.000000 0.000000 0.000000 0.035489 0.000000 0.000000
# 5 0.000000 0.000000 0.000000 0.000000 0.174114 0.000000
# 6 0.000000 0.000000 0.000000 0.000000 0.000000 0.029810
#
#
# Mechanical properties :
#
#
# Convention : Reuss Voigt Hill
#
# Bulk Modulus (GPa) = 32.30874 71.64893 51.97884
# Shear Modulus (GPa) = 13.44754 23.92918 18.68836
#
# Velocity S-wave (km/s) = 2.68350 3.57968 3.16349
# Velocity P-wave (km/s) = 5.18681 7.44672 6.41703
#
# Compressibility (1/GPa) = 0.03095137
#
# Stress axis : x y z
#
# Youngs Moduli (GPa) = 96.28432 19.81325 63.85140
#
# Poissons Ratio (x) = 0.11782 0.35623
# Poissons Ratio (y) = 0.57257 0.71884
# Poissons Ratio (z) = 0.53717 0.22306
#
# Static dielectric constant tensor:
#      x y z
#    x 1.646480 0.000000 0.000000 
#    y 0.000000 1.629090 0.000000 
#    z 0.000000 0.000000 1.639580 
# 
# From -- ./inp_files/72575.got.cif
#   From: 2010.05.17/outbox.cif.g08.bks.cpg/sg65_37_cif.got.tgz:72575.got - 2010.06.03 17:01:31.
