data_PCOD9490314
_publ_section_title
;
Structure prediction by ZEFSAII (Michael W. Deem and Ramdas Pophale) SiO2 
 PCOD9490314
Probable space group: C M M M
;
_chemical_formula_sum "Si O2"
_cell_formula_units_Z 72
_cell_length_a 28.264074
_cell_length_b 14.861818
_cell_length_c 8.875650
_cell_angle_alpha 90.000000
_cell_angle_beta 90.000000
_cell_angle_gamma 90.000000
_cell_volume 3728.265809
_symmetry_space_group_name_H-M "C M M M"
_symmetry_group_IT_number 65
_symmetry_cell_setting 'orthorhombic'
loop_
_space_group_symop_operation_xyz
x,y,z
-x,-y,z
x,-y,-z
-x,y,-z
-x,-y,-z
x,y,-z
-x,y,z
x,-y,z
1/2+x,1/2+y,z
1/2-x,1/2-y,z
1/2+x,1/2-y,-z
1/2-x,1/2+y,-z
1/2-x,1/2-y,-z
1/2+x,1/2+y,-z
1/2-x,1/2+y,z
1/2+x,1/2-y,z
loop_
_atom_site_type_symbol
_atom_site_label
_atom_site_fract_x
_atom_site_fract_y
_atom_site_fract_z
Si Si1 0.709803 0.130463 0.174388
Si Si2 0.500000 0.394295 0.819713
Si Si3 0.090955 0.201425 0.319240
Si Si4 0.887893 0.403818 0.680252
Si Si5 0.187358 0.156328 0.173508
O O1 0.667232 0.095162 0.274293
O O2 0.763469 0.111441 0.226229
O O3 0.700709 0.237812 0.172409
O O4 0.705620 0.101394 0.000000
O O5 0.500000 0.500000 0.782079
O O6 0.546303 0.347447 0.751984
O O7 0.500000 0.385183 0.000000
O O8 0.088185 0.200665 0.500000
O O9 0.092707 0.306786 0.266690
O O10 0.139458 0.152249 0.267961
O O11 0.892253 0.402502 0.500000
O O12 0.908694 0.500000 0.734725
O O13 0.178625 0.128691 0.000000
#
# Coordination Sequence:
#
# PCOD9490314 Si02
#       5
#    16   8  16  16  16
#     4   8  14  25  44  71 103 143 187 223 254 292
#     4  11  25  45  66  83 100 126 163 215 280 337
#     4  10  20  35  58  84 108 138 177 221 267 316
#     4   9  18  32  50  77 115 153 183 212 253 307
#     4   8  14  27  47  72 105 142 179 220 263 305
#
# _framework density 19.311926
#
# number of rings (size 3 to 8) (size 9 to 14) (size 15 to 20)
#    0.000    3.000    0.000    2.333    0.000    3.111 
#    0.000    6.111    0.000    4.667    0.000    0.000 
#    0.000    0.000    0.000    0.000    0.000    0.000 
#
# Total GULP energy -200464.722744 kJ/mol
# GULP energy per Si atom -5568.464521 kJ/mol
# Density = 1.926797 g / cm^3
# Si number density = 19.311926 Si / 1000 Ang^3
#
#
#
# Elastic Constant Matrix: (Units=GPa)
#
#
# Indices 1 2 3 4 5 6 
#
# 1 139.1867 61.7546 41.6262 0.0000 0.0000 0.0000
# 2 61.7546 103.8590 29.4496 0.0000 0.0000 0.0000
# 3 41.6262 29.4496 29.1331 0.0000 0.0000 0.0000
# 4 0.0000 0.0000 0.0000 -14.3823 0.0000 0.0000
# 5 0.0000 0.0000 0.0000 0.0000 63.8391 0.0000
# 6 0.0000 0.0000 0.0000 0.0000 0.0000 -12.5621
#
#
#
# Elastic Compliance Matrix: (Units=1/GPa)
#
#
# Indices 1 2 3 4 5 6 
#
# 1 0.013426 -0.003565 -0.015579 0.000000 0.000000 0.000000
# 2 -0.003565 0.014444 -0.009507 0.000000 0.000000 0.000000
# 3 -0.015579 -0.009507 0.066194 0.000000 0.000000 0.000000
# 4 0.000000 0.000000 0.000000 -0.069530 0.000000 0.000000
# 5 0.000000 0.000000 0.000000 0.000000 0.015664 0.000000
# 6 0.000000 0.000000 0.000000 0.000000 0.000000 -0.079605
#
#
# Mechanical properties :
#
#
# Convention : Reuss Voigt Hill
#
# Bulk Modulus (GPa) = 27.20153 59.75997 43.48075
# Shear Modulus (GPa) = 165.84073 16.66885 91.25479
#
# Velocity S-wave (km/s) = 9.27692 2.94111 6.88154
# Velocity P-wave (km/s) = 11.35184 6.52267 9.25768
#
# Compressibility (1/GPa) = 0.03676264
#
# Stress axis : x y z
#
# Youngs Moduli (GPa) = 74.48443 69.23248 15.10700
#
# Poissons Ratio (x) = 0.24685 0.23535
# Poissons Ratio (y) = 0.26557 0.14362
# Poissons Ratio (z) = 1.16037 0.65816
#
# Static dielectric constant tensor:
#      x y z
#    x 1.656770 0.000000 0.000000 
#    y 0.000000 1.790450 0.000000 
#    z 0.000000 0.000000 1.646420 
# 
# From -- ./inp_files/15783.got.cif
#   From: 2010.05.17/outbox.cif.g08.bks.cpg/sg65_8_cif.got.tgz:15783.got - 2010.06.03 17:01:31.
