data_PCOD9490794
_publ_section_title
;
Structure prediction by ZEFSAII (Michael W. Deem and Ramdas Pophale) SiO2 
 PCOD9490794
Probable space group: C M M M
;
_chemical_formula_sum "Si O2"
_cell_formula_units_Z 116
_cell_length_a 14.925941
_cell_length_b 17.068058
_cell_length_c 23.104959
_cell_angle_alpha 90.000000
_cell_angle_beta 90.000000
_cell_angle_gamma 90.000000
_cell_volume 5886.146036
_symmetry_space_group_name_H-M "C M M M"
_symmetry_group_IT_number 65
_symmetry_cell_setting 'orthorhombic'
loop_
_space_group_symop_operation_xyz
x,y,z
-x,-y,z
x,-y,-z
-x,y,-z
-x,-y,-z
x,y,-z
-x,y,z
x,-y,z
1/2+x,1/2+y,z
1/2-x,1/2-y,z
1/2+x,1/2-y,-z
1/2-x,1/2+y,-z
1/2-x,1/2-y,-z
1/2+x,1/2+y,-z
1/2-x,1/2+y,z
1/2+x,1/2-y,z
loop_
_atom_site_type_symbol
_atom_site_label
_atom_site_fract_x
_atom_site_fract_y
_atom_site_fract_z
Si Si1 0.108844 0.411884 0.567495
Si Si2 0.716464 0.409359 0.065940
Si Si3 0.652454 0.712460 0.840144
Si Si4 0.099251 0.622118 0.878026
Si Si5 0.896646 0.714861 0.658857
Si Si6 0.000000 0.000000 0.299959
Si Si7 0.150902 0.585817 0.252621
Si Si8 0.853516 0.134609 0.277898
O O1 0.131146 0.400283 0.500000
O O2 0.139592 0.500000 0.584253
O O3 0.140293 0.340706 0.607687
O O4 0.000000 0.412534 0.571905
O O5 0.691779 0.500000 0.074436
O O6 0.669141 0.354321 0.112541
O O7 0.822615 0.400560 0.077987
O O8 0.696400 0.386467 0.000000
O O9 0.750000 0.750000 0.824424
O O10 0.600634 0.784261 0.868455
O O11 0.613965 0.675461 0.781934
O O12 0.127538 0.589829 0.814984
O O13 0.000000 0.595945 0.893729
O O14 0.895320 0.656588 0.713866
O O15 0.847111 0.794652 0.675959
O O16 0.000000 0.735724 0.645763
O O17 0.078203 0.931338 0.297512
O O18 0.123521 0.500000 0.274552
O O19 0.256584 0.598740 0.262862
#
# Coordination Sequence:
#
# PCOD9490794 Si02
#       8
#    16  16  16  16  16   4  16  16
#     4   8  15  30  53  85 125 166 205 243 289 345
#     4  10  22  40  61  83 108 149 198 245 297 355
#     4  10  20  37  59  80 110 151 191 238 292 352
#     4  11  23  37  56  87 117 152 186 237 296 360
#     4  11  21  34  57  88 124 157 196 245 293 350
#     4  12  28  36  64  84 114 158 198 256 296 350
#     4  12  23  36  56  81 122 160 193 235 300 362
#     4  12  22  41  55  86 116 153 201 247 301 349
#
# _framework density 19.707291999999999
#
# number of rings (size 3 to 8) (size 9 to 14) (size 15 to 20)
#    0.000    1.379    5.517    2.069    1.931    5.241 
#    0.000    0.690    0.000    1.655    0.000    2.414 
#    0.000    0.000    0.000    0.000    0.000    0.000 
#
# Total GULP energy -323442.404772 kJ/mol
# GULP energy per Si atom -5576.593186 kJ/mol
# Density = 1.966244 g / cm^3
# Si number density = 19.707292 Si / 1000 Ang^3
#
#
#
# Elastic Constant Matrix: (Units=GPa)
#
#
# Indices 1 2 3 4 5 6 
#
# 1 50.0169 15.0840 -4.2395 0.0000 0.0000 0.0000
# 2 15.0840 146.6271 50.0436 0.0000 0.0000 0.0000
# 3 -4.2395 50.0436 81.5919 0.0000 0.0000 0.0000
# 4 0.0000 0.0000 0.0000 12.2757 0.0000 0.0000
# 5 0.0000 0.0000 0.0000 0.0000 23.7245 0.0000
# 6 0.0000 0.0000 0.0000 0.0000 0.0000 9.7851
#
#
#
# Elastic Compliance Matrix: (Units=1/GPa)
#
#
# Indices 1 2 3 4 5 6 
#
# 1 0.021232 -0.003239 0.003090 0.000000 0.000000 0.000000
# 2 -0.003239 0.009120 -0.005762 0.000000 0.000000 0.000000
# 3 0.003090 -0.005762 0.015951 0.000000 0.000000 0.000000
# 4 0.000000 0.000000 0.000000 0.081462 0.000000 0.000000
# 5 0.000000 0.000000 0.000000 0.000000 0.042151 0.000000
# 6 0.000000 0.000000 0.000000 0.000000 0.000000 0.102196
#
#
# Mechanical properties :
#
#
# Convention : Reuss Voigt Hill
#
# Bulk Modulus (GPa) = 29.00194 44.44580 36.72387
# Shear Modulus (GPa) = 16.92472 23.64690 20.28581
#
# Velocity S-wave (km/s) = 2.93372 3.46772 3.21184
# Velocity P-wave (km/s) = 5.12093 6.21574 5.69470
#
# Compressibility (1/GPa) = 0.03448045
#
# Stress axis : x y z
#
# Youngs Moduli (GPa) = 47.09909 109.65314 62.69374
#
# Poissons Ratio (x) = 0.35513 -0.19370
# Poissons Ratio (y) = 0.15254 0.36122
# Poissons Ratio (z) = -0.14552 0.63179
#
# Static dielectric constant tensor:
#      x y z
#    x 1.731310 0.000000 0.000000 
#    y 0.000000 1.708690 0.000000 
#    z 0.000000 0.000000 1.689910 
# 
# From -- ./inp_files/70164.got.cif
#   From: 2010.05.17/outbox.cif.g08.bks.cpg/sg65_36_cif.got.tgz:70164.got - 2010.06.03 17:01:31.
