data_PCOD9490762
_publ_section_title
;
Structure prediction by ZEFSAII (Michael W. Deem and Ramdas Pophale) SiO2 
 PCOD9490762
Probable space group: C M M M
;
_chemical_formula_sum "Si O2"
_cell_formula_units_Z 72
_cell_length_a 29.386339
_cell_length_b 7.781678
_cell_length_c 17.455986
_cell_angle_alpha 90.000000
_cell_angle_beta 90.000000
_cell_angle_gamma 90.000000
_cell_volume 3991.748082
_symmetry_space_group_name_H-M "C M M M"
_symmetry_group_IT_number 65
_symmetry_cell_setting 'orthorhombic'
loop_
_space_group_symop_operation_xyz
x,y,z
-x,-y,z
x,-y,-z
-x,y,-z
-x,-y,-z
x,y,-z
-x,y,z
x,-y,z
1/2+x,1/2+y,z
1/2-x,1/2-y,z
1/2+x,1/2-y,-z
1/2-x,1/2+y,-z
1/2-x,1/2-y,-z
1/2+x,1/2+y,-z
1/2-x,1/2+y,z
1/2+x,1/2-y,z
loop_
_atom_site_type_symbol
_atom_site_label
_atom_site_fract_x
_atom_site_fract_y
_atom_site_fract_z
Si Si1 0.448931 0.000000 0.200643
Si Si2 0.696610 0.204352 0.500000
Si Si3 0.698483 0.705905 0.913724
Si Si4 0.552501 0.000000 0.386258
Si Si5 0.880714 0.202864 0.199692
Si Si6 0.878870 0.803110 0.618393
O O1 0.450096 0.000000 0.293559
O O2 0.421986 0.828053 0.178862
O O3 0.500000 0.000000 0.171276
O O4 0.750000 0.250000 0.500000
O O5 0.667864 0.272702 0.427394
O O6 0.692936 0.000000 0.500000
O O7 0.695392 0.500000 0.917310
O O8 0.750000 0.750000 0.892506
O O9 0.662143 0.760635 0.850907
O O10 0.689913 0.773670 0.000000
O O11 0.582645 0.166973 0.407183
O O12 0.500000 0.000000 0.413155
O O13 0.871488 0.221608 0.290557
O O14 0.889971 0.000000 0.186049
O O15 0.893677 0.000000 0.605867
#
# Coordination Sequence:
#
# PCOD9490762 Si02
#       6
#     8   8  16   8  16  16
#     4   9  18  32  54  82 108 141 183 223 268 317
#     4  12  24  40  58  78 107 145 184 224 270 317
#     4   9  18  32  50  76 107 139 176 218 268 321
#     4   9  18  35  58  84 112 142 177 225 278 320
#     4   9  19  34  54  79 108 142 177 220 267 315
#     4  10  20  37  56  80 111 140 181 225 265 322
#
# _framework density 18.037212
#
# number of rings (size 3 to 8) (size 9 to 14) (size 15 to 20)
#    0.000    2.444    1.111    1.000    1.556    1.778 
#    0.000    7.778    0.000    2.667    0.000    3.111 
#    0.000    0.000    0.000    0.000    0.000    0.000 
#
# Total GULP energy -200729.244691 kJ/mol
# GULP energy per Si atom -5575.812353 kJ/mol
# Density = 1.799616 g / cm^3
# Si number density = 18.037212 Si / 1000 Ang^3
#
#
#
# Elastic Constant Matrix: (Units=GPa)
#
#
# Indices 1 2 3 4 5 6 
#
# 1 181.5518 76.5203 73.2703 0.0000 0.0000 0.0000
# 2 76.5203 108.6912 44.9393 0.0000 0.0000 0.0000
# 3 73.2703 44.9393 62.7332 0.0000 0.0000 0.0000
# 4 0.0000 0.0000 0.0000 2.0410 0.0000 0.0000
# 5 0.0000 0.0000 0.0000 0.0000-1082.2961 0.0000
# 6 0.0000 0.0000 0.0000 0.0000 0.0000 28.9053
#
#
#
# Elastic Compliance Matrix: (Units=1/GPa)
#
#
# Indices 1 2 3 4 5 6 
#
# 1 0.011309 -0.003553 -0.010664 0.000000 0.000000 0.000000
# 2 -0.003553 0.014188 -0.006014 0.000000 0.000000 0.000000
# 3 -0.010664 -0.006014 0.032704 0.000000 0.000000 0.000000
# 4 0.000000 0.000000 0.000000 0.489954 0.000000 0.000000
# 5 0.000000 0.000000 0.000000 0.000000 -0.000924 0.000000
# 6 0.000000 0.000000 0.000000 0.000000 0.000000 0.034596
#
#
# Mechanical properties :
#
#
# Convention : Reuss Voigt Hill
#
# Bulk Modulus (GPa) = 56.37095 82.49290 69.43193
# Shear Modulus (GPa) = 7.95923 -199.72021 -95.88049
#
# Velocity S-wave (km/s) = 2.10292 -10.53409 -7.29880
# Velocity P-wave (km/s) = 6.10055 10.10555 5.69672
#
# Compressibility (1/GPa) = 0.01773963
#
# Stress axis : x y z
#
# Youngs Moduli (GPa) = 88.42432 70.48071 30.57769
#
# Poissons Ratio (x) = 0.25041 0.32607
# Poissons Ratio (y) = 0.31416 0.18390
# Poissons Ratio (z) = 0.94292 0.42389
#
# Static dielectric constant tensor:
#      x y z
#    x 1.590180 0.000000 0.000000 
#    y 0.000000 1.610930 0.000000 
#    z 0.000000 0.000000 1.632090 
# 
# From -- ./inp_files/57173.got.cif
#   From: 2010.05.17/outbox.cif.g08.bks.cpg/sg65_29_cif.got.tgz:57173.got - 2010.06.03 17:01:31.
