data_PCOD9490559
_publ_section_title
;
Structure prediction by ZEFSAII (Michael W. Deem and Ramdas Pophale) SiO2 
 PCOD9490559
Probable space group: C M M M
;
_chemical_formula_sum "Si O2"
_cell_formula_units_Z 104
_cell_length_a 8.633571
_cell_length_b 19.527119
_cell_length_c 34.043963
_cell_angle_alpha 90.000000
_cell_angle_beta 90.000000
_cell_angle_gamma 90.000000
_cell_volume 5739.429791
_symmetry_space_group_name_H-M "C M M M"
_symmetry_group_IT_number 65
_symmetry_cell_setting 'orthorhombic'
loop_
_space_group_symop_operation_xyz
x,y,z
-x,-y,z
x,-y,-z
-x,y,-z
-x,-y,-z
x,y,-z
-x,y,z
x,-y,z
1/2+x,1/2+y,z
1/2-x,1/2-y,z
1/2+x,1/2-y,-z
1/2-x,1/2+y,-z
1/2-x,1/2-y,-z
1/2+x,1/2+y,-z
1/2-x,1/2+y,z
1/2+x,1/2-y,z
loop_
_atom_site_type_symbol
_atom_site_label
_atom_site_fract_x
_atom_site_fract_y
_atom_site_fract_z
Si Si1 0.186795 0.825571 0.841691
Si Si2 0.185597 0.673346 0.386588
Si Si3 0.313217 0.578361 0.454367
Si Si4 0.813879 0.173643 0.931270
Si Si5 0.314163 0.079512 0.000000
Si Si6 0.313052 0.420775 0.229457
Si Si7 0.813171 0.420793 0.313979
O O1 0.250000 0.750000 0.834003
O O2 0.231574 0.844435 0.886347
O O3 0.240160 0.876473 0.807597
O O4 0.000000 0.823979 0.840882
O O5 0.250000 0.750000 0.385621
O O6 0.239904 0.632612 0.425126
O O7 0.238774 0.628840 0.348894
O O8 0.000000 0.676031 0.385988
O O9 0.271489 0.590251 0.500000
O O10 0.500000 0.581997 0.451687
O O11 0.267272 0.500000 0.444205
O O12 0.750000 0.250000 0.939522
O O13 0.000000 0.175403 0.933892
O O14 0.748442 0.119736 0.962104
O O15 0.500000 0.082169 0.000000
O O16 0.265501 0.000000 0.000000
O O17 0.500000 0.417739 0.231120
O O18 0.267534 0.500000 0.224195
O O19 0.247560 0.397915 0.271455
O O20 0.762455 0.500000 0.320419
O O21 0.000000 0.420745 0.313332
#
# Coordination Sequence:
#
# PCOD9490559 Si02
#       7
#    16  16  16  16   8  16  16
#     4   9  19  34  53  78 106 136 171 212 255 304
#     4  11  23  37  54  78 109 143 179 221 267 314
#     4   9  19  37  60  84 109 138 174 216 262 315
#     4  10  20  36  58  80 105 140 179 217 260 313
#     4  11  24  39  54  77 109 139 172 219 268 313
#     4   9  18  33  53  77 104 135 172 213 258 307
#     4   9  19  36  55  75 101 135 176 219 262 311
#
# _framework density 18.120266999999998
#
# number of rings (size 3 to 8) (size 9 to 14) (size 15 to 20)
#    0.000    2.385    0.000    2.308    0.000    5.846 
#    0.000    6.923    0.000    1.846    0.000    0.000 
#    0.000    0.000    0.000    0.000    0.000    0.000 
#
# Total GULP energy -290228.992491 kJ/mol
# GULP energy per Si atom -5581.326779 kJ/mol
# Density = 1.807902 g / cm^3
# Si number density = 18.120267 Si / 1000 Ang^3
#
#
#
# Elastic Constant Matrix: (Units=GPa)
#
#
# Indices 1 2 3 4 5 6 
#
# 1 24.9401 36.6139 37.1353 0.0000 0.0000 0.0000
# 2 36.6139 138.4002 124.1943 0.0000 0.0000 0.0000
# 3 37.1353 124.1943 161.3980 0.0000 0.0000 0.0000
# 4 0.0000 0.0000 0.0000 46.2870 0.0000 0.0000
# 5 0.0000 0.0000 0.0000 0.0000 22.9827 0.0000
# 6 0.0000 0.0000 0.0000 0.0000 0.0000 21.3914
#
#
#
# Elastic Compliance Matrix: (Units=1/GPa)
#
#
# Indices 1 2 3 4 5 6 
#
# 1 0.067172 -0.012606 -0.005755 0.000000 0.000000 0.000000
# 2 -0.012606 0.025712 -0.016885 0.000000 0.000000 0.000000
# 3 -0.005755 -0.016885 0.020513 0.000000 0.000000 0.000000
# 4 0.000000 0.000000 0.000000 0.021604 0.000000 0.000000
# 5 0.000000 0.000000 0.000000 0.000000 0.043511 0.000000
# 6 0.000000 0.000000 0.000000 0.000000 0.000000 0.046748
#
#
# Mechanical properties :
#
#
# Convention : Reuss Voigt Hill
#
# Bulk Modulus (GPa) = 23.30742 80.06947 51.68844
# Shear Modulus (GPa) = 16.12634 26.58521 21.35578
#
# Velocity S-wave (km/s) = 2.98646 3.83450 3.43674
# Velocity P-wave (km/s) = 4.97820 7.99301 6.65848
#
# Compressibility (1/GPa) = 0.04290480
#
# Stress axis : x y z
#
# Youngs Moduli (GPa) = 14.88726 38.89254 48.75071
#
# Poissons Ratio (x) = 0.49028 0.28056
# Poissons Ratio (y) = 0.18767 0.82314
# Poissons Ratio (z) = 0.08567 0.65668
#
# Static dielectric constant tensor:
#      x y z
#    x 1.614810 0.000000 0.000000 
#    y 0.000000 1.595520 0.000000 
#    z 0.000000 0.000000 1.615240 
# 
# From -- ./inp_files/76893.got.cif
#   From: 2010.05.17/outbox.cif.g08.bks.cpg/sg65_39_cif.got.tgz:76893.got - 2010.06.03 17:01:31.
