data_PCOD9490298
_publ_section_title
;
Structure prediction by ZEFSAII (Michael W. Deem and Ramdas Pophale) SiO2 
 PCOD9490298
Probable space group: C M M M
;
_chemical_formula_sum "Si O2"
_cell_formula_units_Z 72
_cell_length_a 25.440162
_cell_length_b 9.657627
_cell_length_c 13.445006
_cell_angle_alpha 90.000000
_cell_angle_beta 90.000000
_cell_angle_gamma 90.000000
_cell_volume 3303.324975
_symmetry_space_group_name_H-M "C M M M"
_symmetry_group_IT_number 65
_symmetry_cell_setting 'orthorhombic'
loop_
_space_group_symop_operation_xyz
x,y,z
-x,-y,z
x,-y,-z
-x,y,-z
-x,-y,-z
x,y,-z
-x,y,z
x,-y,z
1/2+x,1/2+y,z
1/2-x,1/2-y,z
1/2+x,1/2-y,-z
1/2-x,1/2+y,-z
1/2-x,1/2-y,-z
1/2+x,1/2+y,-z
1/2-x,1/2+y,z
1/2+x,1/2-y,z
loop_
_atom_site_type_symbol
_atom_site_label
_atom_site_fract_x
_atom_site_fract_y
_atom_site_fract_z
Si Si1 0.437722 0.000000 0.610684
Si Si2 0.059464 0.797909 0.315280
Si Si3 0.393210 0.655812 0.111300
Si Si4 0.301128 0.166832 0.197368
Si Si5 0.827816 0.153990 0.385996
O O1 0.427960 0.135995 0.672512
O O2 0.500000 0.000000 0.595711
O O3 0.412902 0.000000 0.500000
O O4 0.065079 0.837014 0.200291
O O5 0.108835 0.858129 0.374417
O O6 0.000000 0.826182 0.351052
O O7 0.369287 0.500000 0.118282
O O8 0.350202 0.772250 0.135508
O O9 0.414240 0.672086 0.000000
O O10 0.250000 0.250000 0.159616
O O11 0.309767 0.229194 0.308881
O O12 0.297449 0.000000 0.194760
O O13 0.814909 0.185295 0.500000
O O14 0.806434 0.000000 0.359905
#
# Coordination Sequence:
#
# PCOD9490298 Si02
#       5
#     8  16  16  16  16
#     4   9  18  32  51  79 117 159 200 244 295 351
#     4  10  20  35  57  87 121 163 209 253 300 353
#     4  10  23  42  62  88 123 160 202 254 311 369
#     4  11  23  41  66  92 119 154 197 248 306 369
#     4  10  22  38  57  87 126 164 204 251 303 360
#
# _framework density 21.796220000000002
#
# number of rings (size 3 to 8) (size 9 to 14) (size 15 to 20)
#    0.000    1.889    0.000    4.667    6.222    5.333 
#    0.000    2.222    0.000    2.000    0.000    0.000 
#    0.000    0.000    0.000    0.000    0.000    0.000 
#
# Total GULP energy -200818.915403 kJ/mol
# GULP energy per Si atom -5578.303206 kJ/mol
# Density = 2.174661 g / cm^3
# Si number density = 21.796220 Si / 1000 Ang^3
#
#
#
# Elastic Constant Matrix: (Units=GPa)
#
#
# Indices 1 2 3 4 5 6 
#
# 1 64.6922 9.3114 -22.6574 0.0000 0.0000 0.0000
# 2 9.3114 193.1596 29.8176 0.0000 0.0000 0.0000
# 3 -22.6574 29.8176 102.7478 0.0000 0.0000 0.0000
# 4 0.0000 0.0000 0.0000 30.4262 0.0000 0.0000
# 5 0.0000 0.0000 0.0000 0.0000 -3.8819 0.0000
# 6 0.0000 0.0000 0.0000 0.0000 0.0000 27.2389
#
#
#
# Elastic Compliance Matrix: (Units=1/GPa)
#
#
# Indices 1 2 3 4 5 6 
#
# 1 0.017144 -0.001476 0.004209 0.000000 0.000000 0.000000
# 2 -0.001476 0.005547 -0.001935 0.000000 0.000000 0.000000
# 3 0.004209 -0.001935 0.011222 0.000000 0.000000 0.000000
# 4 0.000000 0.000000 0.000000 0.032866 0.000000 0.000000
# 5 0.000000 0.000000 0.000000 0.000000 -0.257605 0.000000
# 6 0.000000 0.000000 0.000000 0.000000 0.000000 0.036712
#
#
# Mechanical properties :
#
#
# Convention : Reuss Voigt Hill
#
# Bulk Modulus (GPa) = 28.16201 43.72696 35.94449
# Shear Modulus (GPa) = -34.75319 33.69852 -0.52734
#
# Velocity S-wave (km/s) = -3.99740 3.93628 -0.49241
# Velocity P-wave (km/s) = 2.89084 6.38469 4.02538
#
# Compressibility (1/GPa) = 0.03550882
#
# Stress axis : x y z
#
# Youngs Moduli (GPa) = 58.32797 180.27871 89.10803
#
# Poissons Ratio (x) = 0.26613 -0.37506
# Poissons Ratio (y) = 0.08610 0.17245
# Poissons Ratio (z) = -0.24550 0.34889
#
# Static dielectric constant tensor:
#      x y z
#    x 1.835110 0.000000 0.000000 
#    y 0.000000 1.855100 0.000000 
#    z 0.000000 0.000000 1.794230 
# 
# From -- ./inp_files/46493.got.cif
#   From: 2010.05.17/outbox.cif.g08.bks.cpg/sg65_24_cif.got.tgz:46493.got - 2010.06.03 17:01:31.
