data_PCOD9490077
_publ_section_title
;
Structure prediction by ZEFSAII (Michael W. Deem and Ramdas Pophale) SiO2 
 PCOD9490077
Probable space group: C M M M
;
_chemical_formula_sum "Si O2"
_cell_formula_units_Z 100
_cell_length_a 30.304634
_cell_length_b 21.683354
_cell_length_c 7.278433
_cell_angle_alpha 90.000000
_cell_angle_beta 90.000000
_cell_angle_gamma 90.000000
_cell_volume 4782.702773
_symmetry_space_group_name_H-M "C M M M"
_symmetry_group_IT_number 65
_symmetry_cell_setting 'orthorhombic'
loop_
_space_group_symop_operation_xyz
x,y,z
-x,-y,z
x,-y,-z
-x,y,-z
-x,-y,-z
x,y,-z
-x,y,z
x,-y,z
1/2+x,1/2+y,z
1/2-x,1/2-y,z
1/2+x,1/2-y,-z
1/2-x,1/2+y,-z
1/2-x,1/2-y,-z
1/2+x,1/2+y,-z
1/2-x,1/2+y,z
1/2+x,1/2-y,z
loop_
_atom_site_type_symbol
_atom_site_label
_atom_site_fract_x
_atom_site_fract_y
_atom_site_fract_z
Si Si1 0.700764 0.812520 0.790656
Si Si2 0.356131 0.932430 0.277109
Si Si3 0.270824 0.500000 0.500000
Si Si4 0.716764 0.613893 0.223083
Si Si5 0.641094 0.701282 0.223364
Si Si6 0.048661 0.248840 0.221518
Si Si7 0.951525 0.604924 0.714850
O O1 0.672652 0.875592 0.788451
O O2 0.748515 0.832349 0.720709
O O3 0.670225 0.759315 0.709421
O O4 0.708196 0.793040 0.000000
O O5 0.355544 0.929641 0.500000
O O6 0.406704 0.924694 0.213054
O O7 0.339147 0.000000 0.224760
O O8 0.272009 0.445904 0.339363
O O9 0.667928 0.639604 0.266554
O O10 0.720548 0.605413 0.000000
O O11 0.590920 0.710644 0.286299
O O12 0.639534 0.704500 0.000000
O O13 0.053897 0.321060 0.270788
O O14 0.000000 0.229073 0.285536
O O15 0.048296 0.246571 0.000000
O O16 0.952962 0.588379 0.500000
O O17 0.000000 0.589265 0.792113
#
# Coordination Sequence:
#
# PCOD9490077 Si02
#       7
#    16  16   4  16  16  16  16
#     4  10  20  35  56  79 108 148 190 235 282 331
#     4  10  21  32  45  68 101 144 192 241 283 330
#     4  12  26  44  62  90 117 150 193 238 280 352
#     4  10  23  41  62  86 117 155 191 234 286 341
#     4   9  17  35  58  83 115 147 184 233 287 338
#     4   9  16  28  51  80 108 139 177 225 282 338
#     4   9  17  30  45  65  96 139 186 234 286 333
#
# _framework density 20.90868
#
# number of rings (size 3 to 8) (size 9 to 14) (size 15 to 20)
#    0.000    2.400    1.600    0.720    2.240    2.560 
#    2.880    2.400    0.000    0.000    0.000    4.480 
#    0.000    3.840    0.000    0.000    0.000    0.000 
#
# Total GULP energy -278651.364501 kJ/mol
# GULP energy per Si atom -5573.027290 kJ/mol
# Density = 2.086109 g / cm^3
# Si number density = 20.908680 Si / 1000 Ang^3
#
#
#
# Elastic Constant Matrix: (Units=GPa)
#
#
# Indices 1 2 3 4 5 6 
#
# 1 116.9027 25.6052 8.8239 0.0000 0.0000 0.0000
# 2 25.6052 26.4571 9.2812 0.0000 0.0000 0.0000
# 3 8.8239 9.2812 105.7254 0.0000 0.0000 0.0000
# 4 0.0000 0.0000 0.0000 19.2228 0.0000 0.0000
# 5 0.0000 0.0000 0.0000 0.0000 3.3983 0.0000
# 6 0.0000 0.0000 0.0000 0.0000 0.0000 6.3661
#
#
#
# Elastic Compliance Matrix: (Units=1/GPa)
#
#
# Indices 1 2 3 4 5 6 
#
# 1 0.010855 -0.010512 0.000017 0.000000 0.000000 0.000000
# 2 -0.010512 0.049177 -0.003440 0.000000 0.000000 0.000000
# 3 0.000017 -0.003440 0.009759 0.000000 0.000000 0.000000
# 4 0.000000 0.000000 0.000000 0.052022 0.000000 0.000000
# 5 0.000000 0.000000 0.000000 0.000000 0.294264 0.000000
# 6 0.000000 0.000000 0.000000 0.000000 0.000000 0.157082
#
#
# Mechanical properties :
#
#
# Convention : Reuss Voigt Hill
#
# Bulk Modulus (GPa) = 23.85380 37.38954 30.62167
# Shear Modulus (GPa) = 8.13005 19.48911 13.80958
#
# Velocity S-wave (km/s) = 1.97403 3.05635 2.57275
# Velocity P-wave (km/s) = 4.07788 5.51146 4.84795
#
# Compressibility (1/GPa) = 0.04192205
#
# Stress axis : x y z
#
# Youngs Moduli (GPa) = 92.12169 20.33477 102.46933
#
# Poissons Ratio (x) = 0.21375 -0.00172
# Poissons Ratio (y) = 0.96834 0.35247
# Poissons Ratio (z) = -0.00155 0.06995
#
# Static dielectric constant tensor:
#      x y z
#    x 1.798140 0.000000 0.000000 
#    y 0.000000 1.701230 0.000000 
#    z 0.000000 0.000000 1.712580 
# 
# From -- ./inp_files/12840.got.cif
#   From: 2010.05.17/outbox.cif.g08.bks.cpg/sg65_7_cif.got.tgz:12840.got - 2010.06.03 17:01:31.
