data_PCOD9490232
_publ_section_title
;
Structure prediction by ZEFSAII (Michael W. Deem and Ramdas Pophale) SiO2 
 PCOD9490232
Probable space group: C M M M
;
_chemical_formula_sum "Si O2"
_cell_formula_units_Z 52
_cell_length_a 18.410577
_cell_length_b 16.364435
_cell_length_c 7.150763
_cell_angle_alpha 90.000000
_cell_angle_beta 90.000000
_cell_angle_gamma 90.000000
_cell_volume 2154.372514
_symmetry_space_group_name_H-M "C M M M"
_symmetry_group_IT_number 65
_symmetry_cell_setting 'orthorhombic'
loop_
_space_group_symop_operation_xyz
x,y,z
-x,-y,z
x,-y,-z
-x,y,-z
-x,-y,-z
x,y,-z
-x,y,z
x,-y,z
1/2+x,1/2+y,z
1/2-x,1/2-y,z
1/2+x,1/2-y,-z
1/2-x,1/2+y,-z
1/2-x,1/2-y,-z
1/2+x,1/2+y,-z
1/2-x,1/2+y,z
1/2+x,1/2-y,z
loop_
_atom_site_type_symbol
_atom_site_label
_atom_site_fract_x
_atom_site_fract_y
_atom_site_fract_z
Si Si1 0.113520 0.906629 0.776384
Si Si2 0.077736 0.596172 0.773857
Si Si3 0.500000 0.665588 0.500000
Si Si4 0.232296 0.341612 0.226513
O O1 0.198307 0.896400 0.725026
O O2 0.063558 0.845279 0.662581
O O3 0.090274 0.000000 0.734766
O O4 0.107039 0.893652 0.000000
O O5 0.078265 0.500000 0.729130
O O6 0.152875 0.633197 0.706588
O O7 0.000000 0.631627 0.709181
O O8 0.077596 0.602180 0.000000
O O9 0.250000 0.250000 0.282998
O O10 0.228746 0.343923 0.000000
#
# Coordination Sequence:
#
# PCOD9490232 Si02
#       4
#    16  16   4  16
#     4  10  20  35  57  83 112 147 188 234 279 328
#     4   8  13  23  42  68  98 134 178 225 268 316
#     4  12  23  38  58  82 110 146 195 238 277 328
#     4   9  17  30  47  75 112 145 179 221 276 337
#
# _framework density 24.136959999999998
#
# number of rings (size 3 to 8) (size 9 to 14) (size 15 to 20)
#    0.000    2.769    0.000    3.692    0.000    4.923 
#    2.769    0.769    0.000    0.000    0.000    0.000 
#    0.000    4.923    0.000    0.615    0.000    0.000 
#
# Total GULP energy -144850.403846 kJ/mol
# GULP energy per Si atom -5571.169379 kJ/mol
# Density = 2.408202 g / cm^3
# Si number density = 24.136960 Si / 1000 Ang^3
#
#
#
# Elastic Constant Matrix: (Units=GPa)
#
#
# Indices 1 2 3 4 5 6 
#
# 1 258.9208 41.5923 21.3207 0.0000 0.0000 0.0000
# 2 41.5923 25.2389 -5.6126 0.0000 0.0000 0.0000
# 3 21.3207 -5.6126 141.8562 0.0000 0.0000 0.0000
# 4 0.0000 0.0000 0.0000 -51.1763 0.0000 0.0000
# 5 0.0000 0.0000 0.0000 0.0000 -571.6252 0.0000
# 6 0.0000 0.0000 0.0000 0.0000 0.0000 -187.3950
#
#
#
# Elastic Compliance Matrix: (Units=1/GPa)
#
#
# Indices 1 2 3 4 5 6 
#
# 1 0.005443 -0.009232 -0.001183 0.000000 0.000000 0.000000
# 2 -0.009232 0.055634 0.003589 0.000000 0.000000 0.000000
# 3 -0.001183 0.003589 0.007369 0.000000 0.000000 0.000000
# 4 0.000000 0.000000 0.000000 -0.019540 0.000000 0.000000
# 5 0.000000 0.000000 0.000000 0.000000 -0.001749 0.000000
# 6 0.000000 0.000000 0.000000 0.000000 0.000000 -0.005336
#
#
# Mechanical properties :
#
#
# Convention : Reuss Voigt Hill
#
# Bulk Modulus (GPa) = 18.25087 60.06853 39.15970
# Shear Modulus (GPa) = 67.80815 -137.45826 -34.82505
#
# Velocity S-wave (km/s) = 5.30604 -7.55466 -3.80255
# Velocity P-wave (km/s) = 6.71689 7.15239 1.73783
#
# Compressibility (1/GPa) = 0.05479190
#
# Stress axis : x y z
#
# Youngs Moduli (GPa) = 183.73296 17.97469 135.69934
#
# Poissons Ratio (x) = 0.16595 0.16057
# Poissons Ratio (y) = 1.69629 -0.48699
# Poissons Ratio (z) = 0.21741 -0.06451
#
# Static dielectric constant tensor:
#      x y z
#    x 1.909190 0.000000 0.000000 
#    y 0.000000 1.918320 0.000000 
#    z 0.000000 0.000000 1.927050 
# 
# From -- ./inp_files/8392.got.cif
#   From: 2010.05.17/outbox.cif.g08.bks.cpg/sg65_5_cif.got.tgz:8392.got - 2010.06.03 17:01:31.
