data_PCOD9490495
_publ_section_title
;
Structure prediction by ZEFSAII (Michael W. Deem and Ramdas Pophale) SiO2 
 PCOD9490495
Probable space group: C M M M
;
_chemical_formula_sum "Si O2"
_cell_formula_units_Z 82
_cell_length_a 23.825739
_cell_length_b 21.009150
_cell_length_c 7.527118
_cell_angle_alpha 90.000000
_cell_angle_beta 90.000000
_cell_angle_gamma 90.000000
_cell_volume 3767.763080
_symmetry_space_group_name_H-M "C M M M"
_symmetry_group_IT_number 65
_symmetry_cell_setting 'orthorhombic'
loop_
_space_group_symop_operation_xyz
x,y,z
-x,-y,z
x,-y,-z
-x,y,-z
-x,-y,-z
x,y,-z
-x,y,z
x,-y,z
1/2+x,1/2+y,z
1/2-x,1/2-y,z
1/2+x,1/2-y,-z
1/2-x,1/2+y,-z
1/2-x,1/2-y,-z
1/2+x,1/2+y,-z
1/2-x,1/2+y,z
1/2+x,1/2-y,z
loop_
_atom_site_type_symbol
_atom_site_label
_atom_site_fract_x
_atom_site_fract_y
_atom_site_fract_z
Si Si1 0.500000 0.611364 0.208685
Si Si2 0.124454 0.135229 0.211616
Si Si3 0.500000 0.500000 0.500000
Si Si4 0.000000 0.425924 0.282119
Si Si5 0.619485 0.877138 0.709774
Si Si6 0.189221 0.259849 0.704577
Si Si7 0.674702 0.500000 0.216647
Si Si8 0.694929 0.000000 0.212822
O O1 0.558523 0.646800 0.239486
O O2 0.500000 0.554196 0.344392
O O3 0.500000 0.590859 0.000000
O O4 0.159160 0.192130 0.293989
O O5 0.143226 0.064703 0.274546
O O6 0.134935 0.136461 0.000000
O O7 0.942294 0.393712 0.219169
O O8 0.000000 0.500000 0.230188
O O9 0.000000 0.425357 0.500000
O O10 0.610776 0.866116 0.500000
O O11 0.650307 0.814889 0.785085
O O12 0.660578 0.937651 0.729510
O O13 0.199220 0.280431 0.500000
O O14 0.250000 0.250000 0.789534
O O15 0.740000 0.500000 0.273373
O O16 0.673416 0.500000 0.000000
O O17 0.696490 0.000000 0.000000
#
# Coordination Sequence:
#
# PCOD9490495 Si02
#       8
#     8  16   2   8  16  16   8   8
#     4  10  23  40  62  95 128 162 213 264 317 384
#     4  10  21  40  62  84 120 159 201 256 307 368
#     4  12  22  36  68  94 120 176 198 258 328 380
#     4   9  16  31  56  81 101 138 193 227 264 345
#     4  10  20  36  57  78 110 152 188 235 294 352
#     4  10  22  38  57  86 122 156 199 250 300 367
#     4   9  19  35  56  81 109 151 193 237 295 356
#     4  11  21  33  54  85 113 139 193 246 288 360
#
# _framework density 21.763577000000002
#
# number of rings (size 3 to 8) (size 9 to 14) (size 15 to 20)
#    0.000    2.049    0.976    2.195    1.366    3.512 
#    0.000    2.927    0.000    0.000    0.000    0.000 
#    0.000    0.000    0.000    0.000    0.000    0.000 
#
# Total GULP energy -228746.760818 kJ/mol
# GULP energy per Si atom -5579.189288 kJ/mol
# Density = 2.171404 g / cm^3
# Si number density = 21.763577 Si / 1000 Ang^3
#
#
#
# Elastic Constant Matrix: (Units=GPa)
#
#
# Indices 1 2 3 4 5 6 
#
# 1 210.4140 89.7460 14.2853 0.0000 0.0000 0.0000
# 2 89.7460 148.4497 -5.5863 0.0000 0.0000 0.0000
# 3 14.2853 -5.5863 51.3291 0.0000 0.0000 0.0000
# 4 0.0000 0.0000 0.0000 24.7274 0.0000 0.0000
# 5 0.0000 0.0000 0.0000 0.0000 110.6134 0.0000
# 6 0.0000 0.0000 0.0000 0.0000 0.0000 18.4119
#
#
#
# Elastic Compliance Matrix: (Units=1/GPa)
#
#
# Indices 1 2 3 4 5 6 
#
# 1 0.006664 -0.004116 -0.002303 0.000000 0.000000 0.000000
# 2 -0.004116 0.009306 0.002158 0.000000 0.000000 0.000000
# 3 -0.002303 0.002158 0.020358 0.000000 0.000000 0.000000
# 4 0.000000 0.000000 0.000000 0.040441 0.000000 0.000000
# 5 0.000000 0.000000 0.000000 0.000000 0.009040 0.000000
# 6 0.000000 0.000000 0.000000 0.000000 0.000000 0.054313
#
#
# Mechanical properties :
#
#
# Convention : Reuss Voigt Hill
#
# Bulk Modulus (GPa) = 35.96137 67.45363 51.70750
# Shear Modulus (GPa) = 31.66341 51.53375 41.59858
#
# Velocity S-wave (km/s) = 3.81843 4.87138 4.37668
# Velocity P-wave (km/s) = 6.00000 7.91843 7.02501
#
# Compressibility (1/GPa) = 0.02780761
#
# Stress axis : x y z
#
# Youngs Moduli (GPa) = 150.05489 107.46249 49.12114
#
# Poissons Ratio (x) = 0.44227 0.11311
# Poissons Ratio (y) = 0.61756 -0.10601
# Poissons Ratio (z) = 0.34552 -0.23192
#
# Static dielectric constant tensor:
#      x y z
#    x 1.811100 0.000000 0.000000 
#    y 0.000000 1.765840 0.000000 
#    z 0.000000 0.000000 1.799910 
# 
# From -- ./inp_files/13934.got.cif
#   From: 2010.05.17/outbox.cif.g08.bks.cpg/sg65_7_cif.got.tgz:13934.got - 2010.06.03 17:01:31.
