data_PCOD9490430
_publ_section_title
;
Structure prediction by ZEFSAII (Michael W. Deem and Ramdas Pophale) SiO2 
 PCOD9490430
Probable space group: C M M M
;
_chemical_formula_sum "Si O2"
_cell_formula_units_Z 104
_cell_length_a 26.372096
_cell_length_b 13.967803
_cell_length_c 14.055477
_cell_angle_alpha 90.000000
_cell_angle_beta 90.000000
_cell_angle_gamma 90.000000
_cell_volume 5177.478904
_symmetry_space_group_name_H-M "C M M M"
_symmetry_group_IT_number 65
_symmetry_cell_setting 'orthorhombic'
loop_
_space_group_symop_operation_xyz
x,y,z
-x,-y,z
x,-y,-z
-x,y,-z
-x,-y,-z
x,y,-z
-x,y,z
x,-y,z
1/2+x,1/2+y,z
1/2-x,1/2-y,z
1/2+x,1/2-y,-z
1/2-x,1/2+y,-z
1/2-x,1/2-y,-z
1/2+x,1/2+y,-z
1/2-x,1/2+y,z
1/2+x,1/2-y,z
loop_
_atom_site_type_symbol
_atom_site_label
_atom_site_fract_x
_atom_site_fract_y
_atom_site_fract_z
Si Si1 0.939334 0.608786 0.780092
Si Si2 0.439395 0.248328 0.389855
Si Si3 0.727715 0.889095 0.891723
Si Si4 0.871266 0.254715 0.109366
Si Si5 0.250000 0.750000 0.748275
Si Si6 0.364444 0.387240 0.711479
Si Si7 0.246490 0.109701 0.611567
O O1 0.919747 0.500000 0.786271
O O2 0.925910 0.660475 0.680381
O O3 0.918045 0.677077 0.862312
O O4 0.000000 0.605408 0.785313
O O5 0.428881 0.226756 0.500000
O O6 0.500000 0.265524 0.379963
O O7 0.407129 0.339245 0.355177
O O8 0.676243 0.828468 0.883448
O O9 0.764885 0.833582 0.822029
O O10 0.721586 0.000000 0.867508
O O11 0.745758 0.882652 0.000000
O O12 0.868493 0.173039 0.190118
O O13 0.873521 0.220511 0.000000
O O14 0.280129 0.816591 0.672945
O O15 0.372349 0.500000 0.728497
O O16 0.310498 0.379373 0.654839
O O17 0.246828 0.130589 0.500000
O O18 0.262002 0.000000 0.625474
#
# Coordination Sequence:
#
# PCOD9490430 Si02
#       7
#    16  16  16  16   8  16  16
#     4   9  18  32  52  79 108 139 175 213 253 301
#     4   9  18  32  52  79 108 139 175 213 254 302
#     4  10  21  36  55  79 107 139 173 213 263 312
#     4  10  20  36  55  76 104 137 172 213 260 311
#     4  12  20  36  56  80 106 140 172 216 260 308
#     4  10  20  36  55  76 104 137 171 214 262 308
#     4  10  21  36  55  79 105 137 175 213 259 310
#
# _framework density 20.086995999999999
#
# number of rings (size 3 to 8) (size 9 to 14) (size 15 to 20)
#    0.000    2.154    1.538    1.846    0.000    3.077 
#    0.000    3.077    0.000    0.000    0.000    4.308 
#    0.000    0.000    0.000    0.000    0.000    0.000 
#
# Total GULP energy -289743.752347 kJ/mol
# GULP energy per Si atom -5571.995237 kJ/mol
# Density = 2.004128 g / cm^3
# Si number density = 20.086996 Si / 1000 Ang^3
#
#
#
# Elastic Constant Matrix: (Units=GPa)
#
#
# Indices 1 2 3 4 5 6 
#
# 1 18.7367 -0.7353 -0.1843 0.0000 0.0000 0.0000
# 2 -0.7353 119.7181 20.9819 0.0000 0.0000 0.0000
# 3 -0.1843 20.9819 97.0512 0.0000 0.0000 0.0000
# 4 0.0000 0.0000 0.0000 32.4003 0.0000 0.0000
# 5 0.0000 0.0000 0.0000 0.0000 22.8629 0.0000
# 6 0.0000 0.0000 0.0000 0.0000 0.0000 24.3827
#
#
#
# Elastic Compliance Matrix: (Units=1/GPa)
#
#
# Indices 1 2 3 4 5 6 
#
# 1 0.053384 0.000322 0.000032 0.000000 0.000000 0.000000
# 2 0.000322 0.008684 -0.001877 0.000000 0.000000 0.000000
# 3 0.000032 -0.001877 0.010710 0.000000 0.000000 0.000000
# 4 0.000000 0.000000 0.000000 0.030864 0.000000 0.000000
# 5 0.000000 0.000000 0.000000 0.000000 0.043739 0.000000
# 6 0.000000 0.000000 0.000000 0.000000 0.000000 0.041013
#
#
# Mechanical properties :
#
#
# Convention : Reuss Voigt Hill
#
# Bulk Modulus (GPa) = 14.34061 30.62564 22.48313
# Shear Modulus (GPa) = 23.29020 30.29211 26.79116
#
# Velocity S-wave (km/s) = 3.40879 3.88757 3.65602
# Velocity P-wave (km/s) = 4.75898 5.95235 5.38880
#
# Compressibility (1/GPa) = 0.06973202
#
# Stress axis : x y z
#
# Youngs Moduli (GPa) = 18.73219 115.15612 93.37372
#
# Poissons Ratio (x) = -0.03712 -0.00296
# Poissons Ratio (y) = -0.00604 0.17524
# Poissons Ratio (z) = -0.00059 0.21612
#
# Static dielectric constant tensor:
#      x y z
#    x 1.802820 0.000000 0.000000 
#    y 0.000000 1.753570 0.000000 
#    z 0.000000 0.000000 1.726030 
# 
# From -- ./inp_files/33988.got.cif
#   From: 2010.05.17/outbox.cif.g08.bks.cpg/sg65_17_cif.got.tgz:33988.got - 2010.06.03 17:01:31.
