data_PCOD9490349
_publ_section_title
;
Structure prediction by ZEFSAII (Michael W. Deem and Ramdas Pophale) SiO2 
 PCOD9490349
Probable space group: C M M M
;
_chemical_formula_sum "Si O2"
_cell_formula_units_Z 96
_cell_length_a 22.715766
_cell_length_b 18.770639
_cell_length_c 10.826175
_cell_angle_alpha 90.000000
_cell_angle_beta 90.000000
_cell_angle_gamma 90.000000
_cell_volume 4616.166730
_symmetry_space_group_name_H-M "C M M M"
_symmetry_group_IT_number 65
_symmetry_cell_setting 'orthorhombic'
loop_
_space_group_symop_operation_xyz
x,y,z
-x,-y,z
x,-y,-z
-x,y,-z
-x,-y,-z
x,y,-z
-x,y,z
x,-y,z
1/2+x,1/2+y,z
1/2-x,1/2-y,z
1/2+x,1/2-y,-z
1/2-x,1/2+y,-z
1/2-x,1/2-y,-z
1/2+x,1/2+y,-z
1/2-x,1/2+y,z
1/2+x,1/2-y,z
loop_
_atom_site_type_symbol
_atom_site_label
_atom_site_fract_x
_atom_site_fract_y
_atom_site_fract_z
Si Si1 0.070448 0.915393 0.138721
Si Si2 0.932939 0.316199 0.863177
Si Si3 0.312718 0.221846 0.770916
Si Si4 0.929924 0.419664 0.366377
Si Si5 0.357304 0.646441 0.361816
Si Si6 0.231778 0.579666 0.645438
O O1 0.098688 0.873463 0.252182
O O2 0.000000 0.907691 0.142469
O O3 0.083505 0.000000 0.150980
O O4 0.089903 0.892977 0.000000
O O5 0.871400 0.273416 0.854598
O O6 0.923309 0.371258 0.752479
O O7 0.000000 0.284038 0.846219
O O8 0.934412 0.348633 0.000000
O O9 0.250000 0.250000 0.823606
O O10 0.329762 0.275219 0.659471
O O11 0.299491 0.142547 0.720892
O O12 0.910327 0.389920 0.500000
O O13 0.906332 0.500000 0.353277
O O14 0.000000 0.426315 0.375207
O O15 0.382356 0.640692 0.500000
O O16 0.301526 0.594372 0.349137
O O17 0.216685 0.583688 0.500000
O O18 0.220239 0.500000 0.691538
#
# Coordination Sequence:
#
# PCOD9490349 Si02
#       6
#    16  16  16  16  16  16
#     4   9  19  36  57  84 122 166 206 244 294 361
#     4  10  22  39  58  82 113 150 194 245 297 345
#     4  10  22  39  58  84 121 160 199 244 302 366
#     4   8  15  30  53  81 113 150 192 237 288 349
#     4  10  20  35  58  88 119 151 194 251 309 361
#     4   9  18  35  60  87 115 151 196 246 301 361
#
# _framework density 20.796475999999998
#
# number of rings (size 3 to 8) (size 9 to 14) (size 15 to 20)
#    0.000    2.667    0.000    2.000    0.000    7.333 
#    0.000    8.333    0.000    1.000    0.000    0.000 
#    0.000    0.000    0.000    0.000    0.000    0.000 
#
# Total GULP energy -267336.735465 kJ/mol
# GULP energy per Si atom -5569.515322 kJ/mol
# Density = 2.074914 g / cm^3
# Si number density = 20.796476 Si / 1000 Ang^3
#
#
#
# Elastic Constant Matrix: (Units=GPa)
#
#
# Indices 1 2 3 4 5 6 
#
# 1 119.1988 30.7591 55.5897 0.0000 0.0000 0.0000
# 2 30.7591 102.7410 41.6329 0.0000 0.0000 0.0000
# 3 55.5897 41.6329 135.8127 0.0000 0.0000 0.0000
# 4 0.0000 0.0000 0.0000 28.3935 0.0000 0.0000
# 5 0.0000 0.0000 0.0000 0.0000 -2.1332 0.0000
# 6 0.0000 0.0000 0.0000 0.0000 0.0000 15.2899
#
#
#
# Elastic Compliance Matrix: (Units=1/GPa)
#
#
# Indices 1 2 3 4 5 6 
#
# 1 0.010598 -0.001616 -0.003843 0.000000 0.000000 0.000000
# 2 -0.001616 0.011360 -0.002821 0.000000 0.000000 0.000000
# 3 -0.003843 -0.002821 0.009801 0.000000 0.000000 0.000000
# 4 0.000000 0.000000 0.000000 0.035219 0.000000 0.000000
# 5 0.000000 0.000000 0.000000 0.000000 -0.468777 0.000000
# 6 0.000000 0.000000 0.000000 0.000000 0.000000 0.065403
#
#
# Mechanical properties :
#
#
# Convention : Reuss Voigt Hill
#
# Bulk Modulus (GPa) = 65.78914 68.19065 66.98990
# Shear Modulus (GPa) = -15.88464 23.62809 3.87172
#
# Velocity S-wave (km/s) = -2.76672 3.37435 1.36593
# Velocity P-wave (km/s) = 4.63650 6.93126 5.89659
#
# Compressibility (1/GPa) = 0.01520008
#
# Stress axis : x y z
#
# Youngs Moduli (GPa) = 94.35379 88.02727 102.03331
#
# Poissons Ratio (x) = 0.14224 0.39209
# Poissons Ratio (y) = 0.15246 0.28784
# Poissons Ratio (z) = 0.36258 0.24833
#
# Static dielectric constant tensor:
#      x y z
#    x 1.805270 0.000000 0.000000 
#    y 0.000000 1.775030 0.000000 
#    z 0.000000 0.000000 1.736590 
# 
# From -- ./inp_files/30792.got.cif
#   From: 2010.05.17/outbox.cif.g08.bks.cpg/sg65_16_cif.got.tgz:30792.got - 2010.06.03 17:01:31.
