data_PCOD9490919
_publ_section_title
;
Structure prediction by ZEFSAII (Michael W. Deem and Ramdas Pophale) SiO2 
 PCOD9490919
Probable space group: C M M M
;
_chemical_formula_sum "Si O2"
_cell_formula_units_Z 68
_cell_length_a 21.642428
_cell_length_b 7.543451
_cell_length_c 20.179969
_cell_angle_alpha 90.000000
_cell_angle_beta 90.000000
_cell_angle_gamma 90.000000
_cell_volume 3294.553389
_symmetry_space_group_name_H-M "C M M M"
_symmetry_group_IT_number 65
_symmetry_cell_setting 'orthorhombic'
loop_
_space_group_symop_operation_xyz
x,y,z
-x,-y,z
x,-y,-z
-x,y,-z
-x,-y,-z
x,y,-z
-x,y,z
x,-y,z
1/2+x,1/2+y,z
1/2-x,1/2-y,z
1/2+x,1/2-y,-z
1/2-x,1/2+y,-z
1/2-x,1/2-y,-z
1/2+x,1/2+y,-z
1/2-x,1/2+y,z
1/2+x,1/2-y,z
loop_
_atom_site_type_symbol
_atom_site_label
_atom_site_fract_x
_atom_site_fract_y
_atom_site_fract_z
Si Si1 0.500000 0.000000 0.283238
Si Si2 0.892321 0.796221 0.294636
Si Si3 0.431739 0.283774 0.077091
Si Si4 0.177927 0.288559 0.574975
Si Si5 0.179594 0.789696 0.167609
O O1 0.553637 0.843882 0.285821
O O2 0.864886 0.790275 0.368407
O O3 0.838254 0.743401 0.242767
O O4 0.911207 0.000000 0.279288
O O5 0.500000 0.226704 0.101518
O O6 0.431843 0.500000 0.078579
O O7 0.374458 0.216979 0.120104
O O8 0.425903 0.233036 0.000000
O O9 0.164488 0.225641 0.500000
O O10 0.169332 0.500000 0.576278
O O11 0.250000 0.250000 0.588185
O O12 0.250000 0.750000 0.150228
O O13 0.174598 0.000000 0.162336
#
# Coordination Sequence:
#
# PCOD9490919 Si02
#       5
#     4  16  16  16  16
#     4  12  26  44  65  92 125 172 204 256 322 374
#     4  11  24  42  64  92 126 162 212 260 313 378
#     4   8  15  31  55  82 115 157 204 253 306 368
#     4  10  20  37  63  94 127 165 211 262 315 372
#     4  10  22  36  57  89 121 158 206 257 312 372
#
# _framework density 20.640128000000001
#
# number of rings (size 3 to 8) (size 9 to 14) (size 15 to 20)
#    0.000    2.118    1.176    2.471    3.294    3.765 
#    0.000    1.176    0.000    1.412    0.000    2.471 
#    0.000    0.000    0.000    0.000    0.000    0.000 
#
# Total GULP energy -189317.353029 kJ/mol
# GULP energy per Si atom -5568.157442 kJ/mol
# Density = 2.059315 g / cm^3
# Si number density = 20.640128 Si / 1000 Ang^3
#
#
#
# Elastic Constant Matrix: (Units=GPa)
#
#
# Indices 1 2 3 4 5 6 
#
# 1 173.3829 32.0914 70.9566 0.0000 0.0000 0.0000
# 2 32.0914 95.3506 12.7220 0.0000 0.0000 0.0000
# 3 70.9566 12.7220 74.3022 0.0000 0.0000 0.0000
# 4 0.0000 0.0000 0.0000 -85.2315 0.0000 0.0000
# 5 0.0000 0.0000 0.0000 0.0000 -48.3301 0.0000
# 6 0.0000 0.0000 0.0000 0.0000 0.0000 41.1372
#
#
#
# Elastic Compliance Matrix: (Units=1/GPa)
#
#
# Indices 1 2 3 4 5 6 
#
# 1 0.009867 -0.002112 -0.009061 0.000000 0.000000 0.000000
# 2 -0.002112 0.011185 0.000102 0.000000 0.000000 0.000000
# 3 -0.009061 0.000102 0.022094 0.000000 0.000000 0.000000
# 4 0.000000 0.000000 0.000000 -0.011733 0.000000 0.000000
# 5 0.000000 0.000000 0.000000 0.000000 -0.020691 0.000000
# 6 0.000000 0.000000 0.000000 0.000000 0.000000 0.024309
#
#
# Mechanical properties :
#
#
# Convention : Reuss Voigt Hill
#
# Bulk Modulus (GPa) = 47.61108 63.84177 55.72642
# Shear Modulus (GPa) = 77.91426 -3.33383 37.29021
#
# Velocity S-wave (km/s) = 6.15068 -1.27229 4.25512
# Velocity P-wave (km/s) = 8.57662 5.37026 7.15536
#
# Compressibility (1/GPa) = 0.02100351
#
# Stress axis : x y z
#
# Youngs Moduli (GPa) = 101.35290 89.40705 45.26144
#
# Poissons Ratio (x) = 0.18881 0.41010
# Poissons Ratio (y) = 0.21404 -0.00460
# Poissons Ratio (z) = 0.91833 -0.00909
#
# Static dielectric constant tensor:
#      x y z
#    x 1.737080 0.000000 0.000000 
#    y 0.000000 1.780000 0.000000 
#    z 0.000000 0.000000 1.752670 
# 
# From -- ./inp_files/49201.got.cif
#   From: 2010.05.17/outbox.cif.g08.bks.cpg/sg65_25_cif.got.tgz:49201.got - 2010.06.03 17:01:31.
