data_PCOD9490159
_publ_section_title
;
Structure prediction by ZEFSAII (Michael W. Deem and Ramdas Pophale) SiO2 
 PCOD9490159
Probable space group: C M M M
;
_chemical_formula_sum "Si O2"
_cell_formula_units_Z 64
_cell_length_a 9.468104
_cell_length_b 15.308614
_cell_length_c 23.038637
_cell_angle_alpha 90.000000
_cell_angle_beta 90.000000
_cell_angle_gamma 90.000000
_cell_volume 3339.301821
_symmetry_space_group_name_H-M "C M M M"
_symmetry_group_IT_number 65
_symmetry_cell_setting 'orthorhombic'
loop_
_space_group_symop_operation_xyz
x,y,z
-x,-y,z
x,-y,-z
-x,y,-z
-x,-y,-z
x,y,-z
-x,y,z
x,-y,z
1/2+x,1/2+y,z
1/2-x,1/2-y,z
1/2+x,1/2-y,-z
1/2-x,1/2+y,-z
1/2-x,1/2-y,-z
1/2+x,1/2+y,-z
1/2-x,1/2+y,z
1/2+x,1/2-y,z
loop_
_atom_site_type_symbol
_atom_site_label
_atom_site_fract_x
_atom_site_fract_y
_atom_site_fract_z
Si Si1 0.338028 0.606943 0.887103
Si Si2 0.330302 0.836907 0.354983
Si Si3 0.662330 0.893050 0.000000
Si Si4 0.336974 0.105773 0.775439
Si Si5 0.828260 0.500000 0.566286
O O1 0.500000 0.635687 0.891423
O O2 0.338313 0.500000 0.887196
O O3 0.245885 0.634372 0.942407
O O4 0.264679 0.634678 0.827210
O O5 0.500000 0.827187 0.358619
O O6 0.250000 0.750000 0.371826
O O7 0.297249 0.859544 0.287927
O O8 0.286547 0.915368 0.397070
O O9 0.500000 0.863986 0.000000
O O10 0.660718 0.000000 0.000000
O O11 0.500000 0.130018 0.787920
O O12 0.332561 0.000000 0.772597
O O13 0.778220 0.500000 0.500000
O O14 0.000000 0.500000 0.565007
#
# Coordination Sequence:
#
# PCOD9490159 Si02
#       5
#    16  16   8  16   8
#     4   9  16  24  37  61  93 128 169 221 278 324
#     4  10  20  35  56  83 112 146 187 231 276 327
#     4   9  15  23  35  55  88 131 176 218 265 324
#     4   9  16  29  48  68  95 134 180 222 266 325
#     4   9  18  36  61  85 113 152 191 224 267 329
#
# _framework density 19.165683000000001
#
# number of rings (size 3 to 8) (size 9 to 14) (size 15 to 20)
#    0.000    2.750    1.250    1.125    0.000    6.000 
#    0.000    0.625    0.000    0.750    0.000    0.875 
#    0.000    0.000    0.000    0.000    0.000    0.000 
#
# Total GULP energy -178648.000975 kJ/mol
# GULP energy per Si atom -5582.750030 kJ/mol
# Density = 1.912206 g / cm^3
# Si number density = 19.165683 Si / 1000 Ang^3
#
#
#
# Elastic Constant Matrix: (Units=GPa)
#
#
# Indices 1 2 3 4 5 6 
#
# 1 94.6584 44.8315 89.2449 0.0000 0.0000 0.0000
# 2 44.8315 75.8499 67.3333 0.0000 0.0000 0.0000
# 3 89.2449 67.3333 181.9317 0.0000 0.0000 0.0000
# 4 0.0000 0.0000 0.0000 -14.0646 0.0000 0.0000
# 5 0.0000 0.0000 0.0000 0.0000 7.4709 0.0000
# 6 0.0000 0.0000 0.0000 0.0000 0.0000 17.4227
#
#
#
# Elastic Compliance Matrix: (Units=1/GPa)
#
#
# Indices 1 2 3 4 5 6 
#
# 1 0.020770 -0.004813 -0.008407 0.000000 0.000000 0.000000
# 2 -0.004813 0.020750 -0.005319 0.000000 0.000000 0.000000
# 3 -0.008407 -0.005319 0.011589 0.000000 0.000000 0.000000
# 4 0.000000 0.000000 0.000000 -0.071100 0.000000 0.000000
# 5 0.000000 0.000000 0.000000 0.000000 0.133853 0.000000
# 6 0.000000 0.000000 0.000000 0.000000 0.000000 0.057396
#
#
# Mechanical properties :
#
#
# Convention : Reuss Voigt Hill
#
# Bulk Modulus (GPa) = 62.37717 83.91770 73.14743
# Shear Modulus (GPa) = 23.18236 12.23449 17.70842
#
# Velocity S-wave (km/s) = 3.48167 2.52931 3.04298
# Velocity P-wave (km/s) = 6.98424 7.23950 7.11301
#
# Compressibility (1/GPa) = 0.01603151
#
# Stress axis : x y z
#
# Youngs Moduli (GPa) = 48.14546 48.19228 86.28725
#
# Poissons Ratio (x) = 0.23195 0.72545
# Poissons Ratio (y) = 0.23173 0.45894
# Poissons Ratio (z) = 0.40478 0.25632
#
# Static dielectric constant tensor:
#      x y z
#    x 1.638670 0.000000 0.000000 
#    y 0.000000 1.680590 0.000000 
#    z 0.000000 0.000000 1.641280 
# 
# From -- ./inp_files/66760.got.cif
#   From: 2010.05.17/outbox.cif.g08.bks.cpg/sg65_34_cif.got.tgz:66760.got - 2010.06.03 17:01:31.
