data_PCOD9490402
_publ_section_title
;
Structure prediction by ZEFSAII (Michael W. Deem and Ramdas Pophale) SiO2 
 PCOD9490402
Probable space group: C M M M
;
_chemical_formula_sum "Si O2"
_cell_formula_units_Z 88
_cell_length_a 19.882368
_cell_length_b 14.103564
_cell_length_c 15.833284
_cell_angle_alpha 90.000000
_cell_angle_beta 90.000000
_cell_angle_gamma 90.000000
_cell_volume 4439.846784
_symmetry_space_group_name_H-M "C M M M"
_symmetry_group_IT_number 65
_symmetry_cell_setting 'orthorhombic'
loop_
_space_group_symop_operation_xyz
x,y,z
-x,-y,z
x,-y,-z
-x,y,-z
-x,-y,-z
x,y,-z
-x,y,z
x,-y,z
1/2+x,1/2+y,z
1/2-x,1/2-y,z
1/2+x,1/2-y,-z
1/2-x,1/2+y,-z
1/2-x,1/2-y,-z
1/2+x,1/2+y,-z
1/2-x,1/2+y,z
1/2+x,1/2-y,z
loop_
_atom_site_type_symbol
_atom_site_label
_atom_site_fract_x
_atom_site_fract_y
_atom_site_fract_z
Si Si1 0.000000 0.894054 0.813779
Si Si2 0.373459 0.607332 0.311466
Si Si3 0.500000 0.810223 0.860190
Si Si4 0.000000 0.387448 0.330326
Si Si5 0.354604 0.114444 0.907577
Si Si6 0.866114 0.298774 0.402998
Si Si7 0.223145 0.387696 0.259050
O O1 0.934818 0.885776 0.753731
O O2 0.000000 0.802784 0.873043
O O3 0.000000 0.000000 0.851841
O O4 0.372724 0.500000 0.346188
O O5 0.379285 0.688911 0.380806
O O6 0.303173 0.622480 0.262565
O O7 0.500000 0.834102 0.759857
O O8 0.568360 0.854067 0.895824
O O9 0.933802 0.356143 0.380619
O O10 0.000000 0.500000 0.314962
O O11 0.310939 0.147342 0.827513
O O12 0.352703 0.000000 0.906419
O O13 0.330263 0.146312 0.000000
O O14 0.847183 0.311420 0.500000
O O15 0.809793 0.336170 0.338752
O O16 0.207896 0.500000 0.266658
#
# Coordination Sequence:
#
# PCOD9490402 Si02
#       7
#     8  16   8   8  16  16  16
#     4  10  20  38  64  87 109 152 205 251 301 355
#     4  10  21  39  61  84 113 154 206 260 304 349
#     4  12  19  34  62  91 124 160 194 248 301 356
#     4  12  23  38  60  89 123 161 198 237 297 367
#     4  10  20  35  60  95 129 160 198 245 302 367
#     4  12  24  38  58  86 122 164 204 247 297 357
#     4  10  21  37  59  88 123 159 197 248 308 365
#
# _framework density 19.820504
#
# number of rings (size 3 to 8) (size 9 to 14) (size 15 to 20)
#    0.000    1.273    3.636    2.455    0.000    4.364 
#    0.000    1.818    0.000   13.636    0.000    7.636 
#    0.000    0.000    0.000    0.000    0.000    0.000 
#
# Total GULP energy -245924.282609 kJ/mol
# GULP energy per Si atom -5589.188241 kJ/mol
# Density = 1.977539 g / cm^3
# Si number density = 19.820504 Si / 1000 Ang^3
#
#
#
# Elastic Constant Matrix: (Units=GPa)
#
#
# Indices 1 2 3 4 5 6 
#
# 1 102.4134 10.2600 10.4644 0.0000 0.0000 0.0000
# 2 10.2600 80.7543 11.2733 0.0000 0.0000 0.0000
# 3 10.4644 11.2733 85.3044 0.0000 0.0000 0.0000
# 4 0.0000 0.0000 0.0000 19.1170 0.0000 0.0000
# 5 0.0000 0.0000 0.0000 0.0000 -1.3741 0.0000
# 6 0.0000 0.0000 0.0000 0.0000 0.0000 15.2809
#
#
#
# Elastic Compliance Matrix: (Units=1/GPa)
#
#
# Indices 1 2 3 4 5 6 
#
# 1 0.009986 -0.001118 -0.001077 0.000000 0.000000 0.000000
# 2 -0.001118 0.012741 -0.001547 0.000000 0.000000 0.000000
# 3 -0.001077 -0.001547 0.012059 0.000000 0.000000 0.000000
# 4 0.000000 0.000000 0.000000 0.052310 0.000000 0.000000
# 5 0.000000 0.000000 0.000000 0.000000 -0.727747 0.000000
# 6 0.000000 0.000000 0.000000 0.000000 0.000000 0.065441
#
#
# Mechanical properties :
#
#
# Convention : Reuss Voigt Hill
#
# Bulk Modulus (GPa) = 36.62676 36.94081 36.78378
# Shear Modulus (GPa) = -8.95057 22.36970 6.70957
#
# Velocity S-wave (km/s) = -2.12735 3.36313 1.84188
# Velocity P-wave (km/s) = 3.53344 5.81025 4.80854
#
# Compressibility (1/GPa) = 0.02730244
#
# Stress axis : x y z
#
# Youngs Moduli (GPa) = 100.13550 78.48525 82.92378
#
# Poissons Ratio (x) = 0.08778 0.08933
# Poissons Ratio (y) = 0.11199 0.12825
# Poissons Ratio (z) = 0.10787 0.12139
#
# Static dielectric constant tensor:
#      x y z
#    x 1.681580 0.000000 0.000000 
#    y 0.000000 1.726760 0.000000 
#    z 0.000000 0.000000 1.676670 
# 
# From -- ./inp_files/44065.got.cif
#   From: 2010.05.17/outbox.cif.g08.bks.cpg/sg65_23_cif.got.tgz:44065.got - 2010.06.03 17:01:31.
