data_PCOD9490946
_publ_section_title
;
Structure prediction by ZEFSAII (Michael W. Deem and Ramdas Pophale) SiO2 
 PCOD9490946
Probable space group: C M M M
;
_chemical_formula_sum "Si O2"
_cell_formula_units_Z 104
_cell_length_a 26.641578
_cell_length_b 9.492105
_cell_length_c 23.565734
_cell_angle_alpha 90.000000
_cell_angle_beta 90.000000
_cell_angle_gamma 90.000000
_cell_volume 5959.412530
_symmetry_space_group_name_H-M "C M M M"
_symmetry_group_IT_number 65
_symmetry_cell_setting 'orthorhombic'
loop_
_space_group_symop_operation_xyz
x,y,z
-x,-y,z
x,-y,-z
-x,y,-z
-x,-y,-z
x,y,-z
-x,y,z
x,-y,z
1/2+x,1/2+y,z
1/2-x,1/2-y,z
1/2+x,1/2-y,-z
1/2-x,1/2+y,-z
1/2-x,1/2-y,-z
1/2+x,1/2+y,-z
1/2-x,1/2+y,z
1/2+x,1/2-y,z
loop_
_atom_site_type_symbol
_atom_site_label
_atom_site_fract_x
_atom_site_fract_y
_atom_site_fract_z
Si Si1 0.611908 0.333610 0.150335
Si Si2 0.408194 0.833096 0.620401
Si Si3 0.000000 0.162035 0.432264
Si Si4 0.059289 0.666629 0.249244
Si Si5 0.300929 0.832090 0.567353
Si Si6 0.801721 0.831975 0.935599
Si Si7 0.940447 0.652777 0.064690
O O1 0.612188 0.500000 0.160213
O O2 0.594310 0.251836 0.206125
O O3 0.662996 0.292177 0.117324
O O4 0.572791 0.284437 0.102703
O O5 0.450484 0.743163 0.588738
O O6 0.419839 0.815934 0.687080
O O7 0.351619 0.793495 0.601484
O O8 0.414329 0.000000 0.606850
O O9 0.000000 0.161001 0.500000
O O10 0.000000 0.000000 0.411704
O O11 0.060822 0.500000 0.235595
O O12 0.000000 0.708961 0.246350
O O13 0.309667 0.805543 0.500000
O O14 0.250000 0.750000 0.583764
O O15 0.292991 0.000000 0.574417
O O16 0.750000 0.750000 0.931206
O O17 0.794147 0.000000 0.932436
O O18 0.821714 0.804200 0.000000
O O19 0.921076 0.500000 0.086703
O O20 0.000000 0.643055 0.063892
O O21 0.923476 0.667184 0.000000
#
# Coordination Sequence:
#
# PCOD9490946 Si02
#       7
#    16  16   8  16  16  16  16
#     4  11  22  34  51  77 106 137 173 217 270 326
#     4  10  20  38  60  81 108 151 200 239 279 334
#     4  11  23  35  53  87 123 149 178 231 298 351
#     4  10  21  38  57  77 105 145 190 232 270 317
#     4   9  18  33  56  85 114 145 183 228 279 336
#     4   9  19  36  56  78 104 133 170 220 277 335
#     4   9  18  32  49  71 100 133 170 212 256 308
#
# _framework density 17.451384999999998
#
# number of rings (size 3 to 8) (size 9 to 14) (size 15 to 20)
#    0.000    2.231    0.769    2.538    0.000    7.077 
#    0.000    4.615    0.000    3.692    0.000    0.000 
#    0.000    0.000    0.000    0.000    0.000    0.000 
#
# Total GULP energy -289735.196235 kJ/mol
# GULP energy per Si atom -5571.830697 kJ/mol
# Density = 1.741167 g / cm^3
# Si number density = 17.451385 Si / 1000 Ang^3
#
#
#
# Elastic Constant Matrix: (Units=GPa)
#
#
# Indices 1 2 3 4 5 6 
#
# 1 145.8905 68.5999 63.3643 0.0000 0.0000 0.0000
# 2 68.5999 52.7889 51.9028 0.0000 0.0000 0.0000
# 3 63.3643 51.9028 90.4087 0.0000 0.0000 0.0000
# 4 0.0000 0.0000 0.0000 49.1823 0.0000 0.0000
# 5 0.0000 0.0000 0.0000 0.0000 29.4727 0.0000
# 6 0.0000 0.0000 0.0000 0.0000 0.0000 29.9762
#
#
#
# Elastic Compliance Matrix: (Units=1/GPa)
#
#
# Indices 1 2 3 4 5 6 
#
# 1 0.017756 -0.024884 0.001842 0.000000 0.000000 0.000000
# 2 -0.024884 0.078369 -0.027550 0.000000 0.000000 0.000000
# 3 0.001842 -0.027550 0.025587 0.000000 0.000000 0.000000
# 4 0.000000 0.000000 0.000000 0.020333 0.000000 0.000000
# 5 0.000000 0.000000 0.000000 0.000000 0.033930 0.000000
# 6 0.000000 0.000000 0.000000 0.000000 0.000000 0.033360
#
#
# Mechanical properties :
#
#
# Convention : Reuss Voigt Hill
#
# Bulk Modulus (GPa) = 48.72134 72.98023 60.85079
# Shear Modulus (GPa) = 15.75498 28.74096 22.24797
#
# Velocity S-wave (km/s) = 3.00791 4.06262 3.57438
# Velocity P-wave (km/s) = 6.32790 7.99478 7.20967
#
# Compressibility (1/GPa) = 0.02052489
#
# Stress axis : x y z
#
# Youngs Moduli (GPa) = 56.32045 12.76023 39.08307
#
# Poissons Ratio (x) = 0.31753 -0.07197
# Poissons Ratio (y) = 1.40149 1.07675
# Poissons Ratio (z) = -0.10372 0.35155
#
# Static dielectric constant tensor:
#      x y z
#    x 1.597670 0.000000 0.000000 
#    y 0.000000 1.607990 0.000000 
#    z 0.000000 0.000000 1.594690 
# 
# From -- ./inp_files/65945.got.cif
#   From: 2010.05.17/outbox.cif.g08.bks.cpg/sg65_33_cif.got.tgz:65945.got - 2010.06.03 17:01:31.
