data_PCOD9490340
_publ_section_title
;
Structure prediction by ZEFSAII (Michael W. Deem and Ramdas Pophale) SiO2 
 PCOD9490340
Probable space group: C M M M
;
_chemical_formula_sum "Si O2"
_cell_formula_units_Z 44
_cell_length_a 17.965392
_cell_length_b 11.576138
_cell_length_c 10.893832
_cell_angle_alpha 90.000000
_cell_angle_beta 90.000000
_cell_angle_gamma 90.000000
_cell_volume 2265.588683
_symmetry_space_group_name_H-M "C M M M"
_symmetry_group_IT_number 65
_symmetry_cell_setting 'orthorhombic'
loop_
_space_group_symop_operation_xyz
x,y,z
-x,-y,z
x,-y,-z
-x,y,-z
-x,-y,-z
x,y,-z
-x,y,z
x,-y,z
1/2+x,1/2+y,z
1/2-x,1/2-y,z
1/2+x,1/2-y,-z
1/2-x,1/2+y,-z
1/2-x,1/2-y,-z
1/2+x,1/2+y,-z
1/2-x,1/2+y,z
1/2+x,1/2-y,z
loop_
_atom_site_type_symbol
_atom_site_label
_atom_site_fract_x
_atom_site_fract_y
_atom_site_fract_z
Si Si1 0.150011 0.366042 0.500000
Si Si2 0.912882 0.363003 0.000000
Si Si3 0.293944 0.500000 0.500000
Si Si4 0.416334 0.500000 0.293325
Si Si5 0.412763 0.760232 0.749990
O O1 0.118939 0.500000 0.500000
O O2 0.238253 0.391328 0.500000
O O3 0.125086 0.299623 0.377108
O O4 0.880259 0.319691 0.871410
O O5 0.912027 0.500000 0.000000
O O6 0.000000 0.323766 0.000000
O O7 0.348775 0.500000 0.386714
O O8 0.500000 0.500000 0.350441
O O9 0.410523 0.377257 0.227039
O O10 0.500000 0.793396 0.736600
#
# Coordination Sequence:
#
# PCOD9490340 Si02
#       5
#     8   8   4   8  16
#     4  10  22  35  54  85 111 152 184 238 281 326
#     4   9  18  33  57  86 118 150 184 231 280 331
#     4  10  23  38  55  84 114 148 192 228 297 330
#     4  10  21  37  58  82 112 147 188 236 283 337
#     4  10  20  35  58  87 116 150 189 231 279 331
#
# _framework density 19.420999999999999
#
# number of rings (size 3 to 8) (size 9 to 14) (size 15 to 20)
#    0.545    1.636    0.000    3.000    0.000    9.455 
#    0.000    3.636    0.000    6.545    0.000    0.000 
#    0.000    0.000    0.000    0.000    0.000    0.000 
#
# Total GULP energy -122555.238673 kJ/mol
# GULP energy per Si atom -5570.692667 kJ/mol
# Density = 1.937680 g / cm^3
# Si number density = 19.421000 Si / 1000 Ang^3
#
#
#
# Elastic Constant Matrix: (Units=GPa)
#
#
# Indices 1 2 3 4 5 6 
#
# 1 70.6023 14.2677 31.8123 0.0000 0.0000 0.0000
# 2 14.2677 101.2848 54.7650 0.0000 0.0000 0.0000
# 3 31.8123 54.7650 155.7060 0.0000 0.0000 0.0000
# 4 0.0000 0.0000 0.0000-1212.1897 0.0000 0.0000
# 5 0.0000 0.0000 0.0000 0.0000 0.9665 0.0000
# 6 0.0000 0.0000 0.0000 0.0000 0.0000 27.2261
#
#
#
# Elastic Compliance Matrix: (Units=1/GPa)
#
#
# Indices 1 2 3 4 5 6 
#
# 1 0.015628 -0.000587 -0.002987 0.000000 0.000000 0.000000
# 2 -0.000587 0.012214 -0.004176 0.000000 0.000000 0.000000
# 3 -0.002987 -0.004176 0.008501 0.000000 0.000000 0.000000
# 4 0.000000 0.000000 0.000000 -0.000825 0.000000 0.000000
# 5 0.000000 0.000000 0.000000 0.000000 1.034682 0.000000
# 6 0.000000 0.000000 0.000000 0.000000 0.000000 0.036729
#
#
# Mechanical properties :
#
#
# Convention : Reuss Voigt Hill
#
# Bulk Modulus (GPa) = 47.97374 58.80924 53.39149
# Shear Modulus (GPa) = 4.42722 -221.68289 -108.62783
#
# Velocity S-wave (km/s) = 1.51147 -10.69550 -7.48696
# Velocity P-wave (km/s) = 5.27273 11.05342 6.86936
#
# Compressibility (1/GPa) = 0.02084474
#
# Stress axis : x y z
#
# Youngs Moduli (GPa) = 63.98719 81.87493 117.62848
#
# Poissons Ratio (x) = 0.04803 0.35132
# Poissons Ratio (y) = 0.03753 0.49121
# Poissons Ratio (z) = 0.19111 0.34191
#
# Static dielectric constant tensor:
#      x y z
#    x 1.676130 0.000000 0.000000 
#    y 0.000000 1.723730 0.000000 
#    z 0.000000 0.000000 1.672170 
# 
# From -- ./inp_files/25835.got.cif
#   From: 2010.05.17/outbox.cif.g08.bks.cpg/sg65_13_cif.got.tgz:25835.got - 2010.06.03 17:01:31.
