data_PCOD9490882
_publ_section_title
;
Structure prediction by ZEFSAII (Michael W. Deem and Ramdas Pophale) SiO2 
 PCOD9490882
Probable space group: C M M M
;
_chemical_formula_sum "Si O2"
_cell_formula_units_Z 112
_cell_length_a 24.418082
_cell_length_b 14.555134
_cell_length_c 15.453293
_cell_angle_alpha 90.000000
_cell_angle_beta 90.000000
_cell_angle_gamma 90.000000
_cell_volume 5492.230998
_symmetry_space_group_name_H-M "C M M M"
_symmetry_group_IT_number 65
_symmetry_cell_setting 'orthorhombic'
loop_
_space_group_symop_operation_xyz
x,y,z
-x,-y,z
x,-y,-z
-x,y,-z
-x,-y,-z
x,y,-z
-x,y,z
x,-y,z
1/2+x,1/2+y,z
1/2-x,1/2-y,z
1/2+x,1/2-y,-z
1/2-x,1/2+y,-z
1/2-x,1/2-y,-z
1/2+x,1/2+y,-z
1/2-x,1/2+y,z
1/2+x,1/2-y,z
loop_
_atom_site_type_symbol
_atom_site_label
_atom_site_fract_x
_atom_site_fract_y
_atom_site_fract_z
Si Si1 0.938937 0.731976 0.822998
Si Si2 0.363480 0.607905 0.766403
Si Si3 0.558653 0.888736 0.651668
Si Si4 0.177525 0.603244 0.602571
Si Si5 0.295407 0.612682 0.400274
Si Si6 0.645736 0.902635 0.897432
Si Si7 0.264369 0.357490 0.899336
O O1 0.914440 0.828347 0.791381
O O2 0.942971 0.660883 0.743512
O O3 0.892429 0.683476 0.879690
O O4 0.000000 0.740765 0.861056
O O5 0.377085 0.500000 0.763126
O O6 0.339316 0.637086 0.672663
O O7 0.315284 0.621344 0.837643
O O8 0.500000 0.865800 0.607727
O O9 0.617145 0.857103 0.614732
O O10 0.559905 0.000000 0.655819
O O11 0.185192 0.595557 0.500000
O O12 0.175682 0.500000 0.640460
O O13 0.235064 0.645935 0.630763
O O14 0.306295 0.642910 0.500000
O O15 0.293056 0.500000 0.402170
O O16 0.707427 0.897748 0.862256
O O17 0.620189 0.000000 0.869039
O O18 0.653228 0.904908 0.000000
O O19 0.250000 0.250000 0.902007
O O20 0.274471 0.386405 0.000000
#
# Coordination Sequence:
#
# PCOD9490882 Si02
#       7
#    16  16  16  16  16  16  16
#     4  11  24  40  56  79 114 152 197 250 295 346
#     4  11  23  38  62  89 115 159 204 244 304 364
#     4   9  18  32  50  73 104 145 188 229 278 339
#     4   8  14  26  47  76 108 140 175 222 282 348
#     4   8  16  32  54  83 115 145 188 248 307 361
#     4  10  21  38  62  91 121 155 195 241 294 352
#     4  10  20  37  61  92 129 161 192 237 292 354
#
# _framework density 20.392441000000002
#
# number of rings (size 3 to 8) (size 9 to 14) (size 15 to 20)
#    0.000    2.429    1.429    1.714    2.000    2.571 
#    0.000    2.857    0.000    3.429    0.000    4.000 
#    0.000    0.000    0.000    0.000    0.000    0.000 
#
# Total GULP energy -311984.694804 kJ/mol
# GULP energy per Si atom -5571.155264 kJ/mol
# Density = 2.034603 g / cm^3
# Si number density = 20.392441 Si / 1000 Ang^3
#
#
#
# Elastic Constant Matrix: (Units=GPa)
#
#
# Indices 1 2 3 4 5 6 
#
# 1 77.5929 26.1672 10.5415 0.0000 0.0000 0.0000
# 2 26.1672 69.7355 4.7208 0.0000 0.0000 0.0000
# 3 10.5415 4.7208 48.1008 0.0000 0.0000 0.0000
# 4 0.0000 0.0000 0.0000 78.8073 0.0000 0.0000
# 5 0.0000 0.0000 0.0000 0.0000 0.3334 0.0000
# 6 0.0000 0.0000 0.0000 0.0000 0.0000 10.1070
#
#
#
# Elastic Compliance Matrix: (Units=1/GPa)
#
#
# Indices 1 2 3 4 5 6 
#
# 1 0.015114 -0.005483 -0.002774 0.000000 0.000000 0.000000
# 2 -0.005483 0.016425 -0.000410 0.000000 0.000000 0.000000
# 3 -0.002774 -0.000410 0.021438 0.000000 0.000000 0.000000
# 4 0.000000 0.000000 0.000000 0.012689 0.000000 0.000000
# 5 0.000000 0.000000 0.000000 0.000000 2.999155 0.000000
# 6 0.000000 0.000000 0.000000 0.000000 0.000000 0.098941
#
#
# Mechanical properties :
#
#
# Convention : Reuss Voigt Hill
#
# Bulk Modulus (GPa) = 28.05735 30.92090 29.48913
# Shear Modulus (GPa) = 1.56594 28.11619 14.84106
#
# Velocity S-wave (km/s) = 0.87725 3.71719 2.70065
# Velocity P-wave (km/s) = 3.84898 5.79820 4.92107
#
# Compressibility (1/GPa) = 0.03564128
#
# Stress axis : x y z
#
# Youngs Moduli (GPa) = 66.16428 60.88179 46.64638
#
# Poissons Ratio (x) = 0.33384 0.12940
# Poissons Ratio (y) = 0.36281 0.01914
# Poissons Ratio (z) = 0.18355 0.02498
#
# Static dielectric constant tensor:
#      x y z
#    x 1.778300 0.000000 0.000000 
#    y 0.000000 1.778270 0.000000 
#    z 0.000000 0.000000 1.751620 
# 
# From -- ./inp_files/45756.got.cif
#   From: 2010.05.17/outbox.cif.g08.bks.cpg/sg65_23_cif.got.tgz:45756.got - 2010.06.03 17:01:31.
