data_PCOD9490132
_publ_section_title
;
Structure prediction by ZEFSAII (Michael W. Deem and Ramdas Pophale) SiO2 
 PCOD9490132
Probable space group: C M M M
;
_chemical_formula_sum "Si O2"
_cell_formula_units_Z 72
_cell_length_a 8.642667
_cell_length_b 18.888768
_cell_length_c 23.902253
_cell_angle_alpha 90.000000
_cell_angle_beta 90.000000
_cell_angle_gamma 90.000000
_cell_volume 3902.026832
_symmetry_space_group_name_H-M "C M M M"
_symmetry_group_IT_number 65
_symmetry_cell_setting 'orthorhombic'
loop_
_space_group_symop_operation_xyz
x,y,z
-x,-y,z
x,-y,-z
-x,y,-z
-x,-y,-z
x,y,-z
-x,y,z
x,-y,z
1/2+x,1/2+y,z
1/2-x,1/2-y,z
1/2+x,1/2-y,-z
1/2-x,1/2+y,-z
1/2-x,1/2-y,-z
1/2+x,1/2+y,-z
1/2-x,1/2+y,z
1/2+x,1/2-y,z
loop_
_atom_site_type_symbol
_atom_site_label
_atom_site_fract_x
_atom_site_fract_y
_atom_site_fract_z
Si Si1 0.185603 0.329182 0.277541
Si Si2 0.684959 0.582925 0.381113
Si Si3 0.178412 0.585943 0.500000
Si Si4 0.186948 0.328638 0.063295
Si Si5 0.688811 0.081034 0.169323
O O1 0.250000 0.250000 0.276323
O O2 0.242034 0.370557 0.332347
O O3 0.237478 0.372574 0.222539
O O4 0.000000 0.326730 0.277465
O O5 0.500000 0.586555 0.378300
O O6 0.730950 0.500000 0.374317
O O7 0.740020 0.607613 0.442461
O O8 0.183088 0.500000 0.500000
O O9 0.000000 0.608252 0.500000
O O10 0.250000 0.250000 0.074321
O O11 0.238539 0.382015 0.111622
O O12 0.000000 0.325983 0.064521
O O13 0.233734 0.349029 0.000000
O O14 0.500000 0.080261 0.169275
O O15 0.741134 0.000000 0.173711
#
# Coordination Sequence:
#
# PCOD9490132 Si02
#       5
#    16  16   8  16  16
#     4  11  22  36  54  75 103 139 178 220 268 320
#     4  10  20  35  56  82 111 141 176 218 262 310
#     4   9  17  31  54  83 112 143 178 213 255 309
#     4   9  17  30  50  75 103 136 172 211 257 310
#     4   9  18  32  51  76 103 132 171 219 266 312
#
# _framework density 18.451948000000002
#
# number of rings (size 3 to 8) (size 9 to 14) (size 15 to 20)
#    0.000    2.333    0.000    3.000    0.000    4.000 
#    0.000    3.889    0.000    3.333    0.000    3.111 
#    0.000    0.000    0.000    0.000    0.000    0.000 
#
# Total GULP energy -200934.746808 kJ/mol
# GULP energy per Si atom -5581.520745 kJ/mol
# Density = 1.840995 g / cm^3
# Si number density = 18.451948 Si / 1000 Ang^3
#
#
#
# Elastic Constant Matrix: (Units=GPa)
#
#
# Indices 1 2 3 4 5 6 
#
# 1 34.2265 36.2082 40.0950 0.0000 0.0000 0.0000
# 2 36.2082 142.5449 121.8598 0.0000 0.0000 0.0000
# 3 40.0950 121.8598 192.5465 0.0000 0.0000 0.0000
# 4 0.0000 0.0000 0.0000 1533.7492 0.0000 0.0000
# 5 0.0000 0.0000 0.0000 0.0000 9.2214 0.0000
# 6 0.0000 0.0000 0.0000 0.0000 0.0000 22.1461
#
#
#
# Elastic Compliance Matrix: (Units=1/GPa)
#
#
# Indices 1 2 3 4 5 6 
#
# 1 0.041522 -0.006875 -0.004295 0.000000 0.000000 0.000000
# 2 -0.006875 0.016424 -0.008963 0.000000 0.000000 0.000000
# 3 -0.004295 -0.008963 0.011760 0.000000 0.000000 0.000000
# 4 0.000000 0.000000 0.000000 0.000652 0.000000 0.000000
# 5 0.000000 0.000000 0.000000 0.000000 0.108443 0.000000
# 6 0.000000 0.000000 0.000000 0.000000 0.000000 0.045155
#
#
# Mechanical properties :
#
#
# Convention : Reuss Voigt Hill
#
# Bulk Modulus (GPa) = 33.96741 85.07153 59.51947
# Shear Modulus (GPa) = 18.24581 324.43368 171.33975
#
# Velocity S-wave (km/s) = 3.14798 13.27433 9.64670
# Velocity P-wave (km/s) = 5.62686 16.76748 12.50620
#
# Compressibility (1/GPa) = 0.02943999
#
# Stress axis : x y z
#
# Youngs Moduli (GPa) = 24.08361 60.88697 85.03171
#
# Poissons Ratio (x) = 0.41862 0.36522
# Poissons Ratio (y) = 0.16558 0.76212
# Poissons Ratio (z) = 0.10344 0.54571
#
# Static dielectric constant tensor:
#      x y z
#    x 1.624230 0.000000 0.000000 
#    y 0.000000 1.607090 0.000000 
#    z 0.000000 0.000000 1.627930 
# 
# From -- ./inp_files/59223.got.cif
#   From: 2010.05.17/outbox.cif.g08.bks.cpg/sg65_30_cif.got.tgz:59223.got - 2010.06.03 17:01:31.
