data_PCOD9490574
_publ_section_title
;
Structure prediction by ZEFSAII (Michael W. Deem and Ramdas Pophale) SiO2 
 PCOD9490574
Probable space group: C M M M
;
_chemical_formula_sum "Si O2"
_cell_formula_units_Z 100
_cell_length_a 7.496617
_cell_length_b 22.178213
_cell_length_c 27.189292
_cell_angle_alpha 90.000000
_cell_angle_beta 90.000000
_cell_angle_gamma 90.000000
_cell_volume 4520.534337
_symmetry_space_group_name_H-M "C M M M"
_symmetry_group_IT_number 65
_symmetry_cell_setting 'orthorhombic'
loop_
_space_group_symop_operation_xyz
x,y,z
-x,-y,z
x,-y,-z
-x,y,-z
-x,-y,-z
x,y,-z
-x,y,z
x,-y,z
1/2+x,1/2+y,z
1/2-x,1/2-y,z
1/2+x,1/2-y,-z
1/2-x,1/2+y,-z
1/2-x,1/2-y,-z
1/2+x,1/2+y,-z
1/2-x,1/2+y,z
1/2+x,1/2-y,z
loop_
_atom_site_type_symbol
_atom_site_label
_atom_site_fract_x
_atom_site_fract_y
_atom_site_fract_z
Si Si1 0.214237 0.931684 0.089768
Si Si2 0.287077 0.682081 0.842535
Si Si3 0.000000 0.574740 0.000000
Si Si4 0.792356 0.389269 0.445082
Si Si5 0.208710 0.132098 0.743335
Si Si6 0.718591 0.000000 0.379897
Si Si7 0.789821 0.817866 0.643830
Si Si8 0.286512 0.000000 0.266675
O O1 0.266853 0.874999 0.124272
O O2 0.342672 0.927700 0.042745
O O3 0.000000 0.925771 0.078661
O O4 0.237203 0.000000 0.110778
O O5 0.500000 0.677215 0.839430
O O6 0.250000 0.750000 0.860713
O O7 0.214082 0.672095 0.787277
O O8 0.716588 0.383754 0.500000
O O9 0.717851 0.442384 0.410819
O O10 0.784066 0.331525 0.410089
O O11 0.000000 0.404476 0.450871
O O12 0.285347 0.141821 0.688615
O O13 0.000000 0.147708 0.738759
O O14 0.223721 0.062091 0.757068
O O15 0.500000 0.000000 0.377876
O O16 0.778884 0.000000 0.323545
O O17 0.750000 0.750000 0.658619
O O18 0.000000 0.827550 0.639277
O O19 0.500000 0.000000 0.266472
#
# Coordination Sequence:
#
# PCOD9490574 Si02
#       8
#    16  16   4  16  16   8  16   8
#     4  10  22  41  68 102 139 180 230 281 333 390
#     4  10  23  42  66  93 132 175 215 268 327 384
#     4  12  23  42  74 106 138 184 233 284 335 382
#     4  10  20  36  58  81 109 146 186 235 296 361
#     4  10  22  40  61  88 122 164 202 247 315 376
#     4   9  17  33  56  83 113 141 179 236 294 358
#     4  11  23  38  58  81 110 148 197 246 299 367
#     4  11  21  34  59  93 122 152 199 256 303 365
#
# _framework density 22.121279000000001
#
# number of rings (size 3 to 8) (size 9 to 14) (size 15 to 20)
#    0.000    1.760    1.600    2.400    2.240    3.520 
#    0.000    0.800    0.000    0.960    0.000    0.000 
#    0.000    0.000    0.000    0.000    0.000    0.000 
#
# Total GULP energy -278494.499516 kJ/mol
# GULP energy per Si atom -5569.889990 kJ/mol
# Density = 2.207093 g / cm^3
# Si number density = 22.121279 Si / 1000 Ang^3
#
#
#
# Elastic Constant Matrix: (Units=GPa)
#
#
# Indices 1 2 3 4 5 6 
#
# 1 79.1285 -7.4221 19.0077 0.0000 0.0000 0.0000
# 2 -7.4221 118.9971 43.7667 0.0000 0.0000 0.0000
# 3 19.0077 43.7667 98.7218 0.0000 0.0000 0.0000
# 4 0.0000 0.0000 0.0000 114.0344 0.0000 0.0000
# 5 0.0000 0.0000 0.0000 0.0000 3.1053 0.0000
# 6 0.0000 0.0000 0.0000 0.0000 0.0000 -125.8549
#
#
#
# Elastic Compliance Matrix: (Units=1/GPa)
#
#
# Indices 1 2 3 4 5 6 
#
# 1 0.013709 0.002182 -0.003607 0.000000 0.000000 0.000000
# 2 0.002182 0.010388 -0.005025 0.000000 0.000000 0.000000
# 3 -0.003607 -0.005025 0.013052 0.000000 0.000000 0.000000
# 4 0.000000 0.000000 0.000000 0.008769 0.000000 0.000000
# 5 0.000000 0.000000 0.000000 0.000000 0.322033 0.000000
# 6 0.000000 0.000000 0.000000 0.000000 0.000000 -0.007946
#
#
# Mechanical properties :
#
#
# Convention : Reuss Voigt Hill
#
# Bulk Modulus (GPa) = 41.24125 45.28353 43.26239
# Shear Modulus (GPa) = 13.12376 14.35663 13.74019
#
# Velocity S-wave (km/s) = 2.43834 2.55030 2.49495
# Velocity P-wave (km/s) = 5.15859 5.40251 5.28196
#
# Compressibility (1/GPa) = 0.02424757
#
# Stress axis : x y z
#
# Youngs Moduli (GPa) = 72.94672 96.26548 76.61787
#
# Poissons Ratio (x) = -0.21001 0.27633
# Poissons Ratio (y) = -0.15914 0.38503
# Poissons Ratio (z) = 0.26309 0.48377
#
# Static dielectric constant tensor:
#      x y z
#    x 1.849020 0.000000 0.000000 
#    y 0.000000 1.902140 0.000000 
#    z 0.000000 0.000000 1.810200 
# 
# From -- ./inp_files/73408.got.cif
#   From: 2010.05.17/outbox.cif.g08.bks.cpg/sg65_37_cif.got.tgz:73408.got - 2010.06.03 17:01:31.
