data_PCOD9490471
_publ_section_title
;
Structure prediction by ZEFSAII (Michael W. Deem and Ramdas Pophale) SiO2 
 PCOD9490471
Probable space group: C M M M
;
_chemical_formula_sum "Si O2"
_cell_formula_units_Z 72
_cell_length_a 8.514944
_cell_length_b 27.886929
_cell_length_c 16.496832
_cell_angle_alpha 90.000000
_cell_angle_beta 90.000000
_cell_angle_gamma 90.000000
_cell_volume 3917.265780
_symmetry_space_group_name_H-M "C M M M"
_symmetry_group_IT_number 65
_symmetry_cell_setting 'orthorhombic'
loop_
_space_group_symop_operation_xyz
x,y,z
-x,-y,z
x,-y,-z
-x,y,-z
-x,-y,-z
x,y,-z
-x,y,z
x,-y,z
1/2+x,1/2+y,z
1/2-x,1/2-y,z
1/2+x,1/2-y,-z
1/2-x,1/2+y,-z
1/2-x,1/2-y,-z
1/2+x,1/2+y,-z
1/2-x,1/2+y,z
1/2+x,1/2-y,z
loop_
_atom_site_type_symbol
_atom_site_label
_atom_site_fract_x
_atom_site_fract_y
_atom_site_fract_z
Si Si1 0.191208 0.946770 0.245217
Si Si2 0.812846 0.304207 0.000000
Si Si3 0.687122 0.197861 0.670298
Si Si4 0.810111 0.102664 0.590192
Si Si5 0.189040 0.848165 0.166035
O O1 0.239624 0.932100 0.336544
O O2 0.238350 0.902743 0.187652
O O3 0.000000 0.947518 0.244298
O O4 0.246542 0.000000 0.223638
O O5 0.750000 0.250000 0.000000
O O6 0.751980 0.330412 0.919442
O O7 0.000000 0.303374 0.000000
O O8 0.500000 0.197863 0.670205
O O9 0.750000 0.250000 0.646893
O O10 0.749960 0.155551 0.612808
O O11 0.748409 0.184507 0.760359
O O12 0.759370 0.088478 0.500000
O O13 0.000000 0.103778 0.591551
O O14 0.000000 0.845923 0.166680
#
# Coordination Sequence:
#
# PCOD9490471 Si02
#       5
#    16   8  16  16  16
#     4   8  15  30  54  81 106 135 173 217 261 303
#     4  12  24  38  57  82 111 141 174 211 255 306
#     4  11  21  34  52  73 101 138 177 216 262 316
#     4   9  18  32  50  75 106 137 174 220 264 309
#     4  10  20  36  56  80 109 138 173 215 257 305
#
# _framework density 18.380165999999999
#
# number of rings (size 3 to 8) (size 9 to 14) (size 15 to 20)
#    0.000    2.222    0.000    5.667    0.000    1.333 
#    0.000    2.778    0.000   20.000    0.000    6.222 
#    0.000    0.000    0.000    0.000    0.000    0.000 
#
# Total GULP energy -200941.406767 kJ/mol
# GULP energy per Si atom -5581.705744 kJ/mol
# Density = 1.833833 g / cm^3
# Si number density = 18.380166 Si / 1000 Ang^3
#
#
#
# Elastic Constant Matrix: (Units=GPa)
#
#
# Indices 1 2 3 4 5 6 
#
# 1 38.9527 5.9131 15.3027 0.0000 0.0000 0.0000
# 2 5.9131 112.4280 31.4144 0.0000 0.0000 0.0000
# 3 15.3027 31.4144 102.6962 0.0000 0.0000 0.0000
# 4 0.0000 0.0000 0.0000 5.3068 0.0000 0.0000
# 5 0.0000 0.0000 0.0000 0.0000 24.1790 0.0000
# 6 0.0000 0.0000 0.0000 0.0000 0.0000 18.1803
#
#
#
# Elastic Compliance Matrix: (Units=1/GPa)
#
#
# Indices 1 2 3 4 5 6 
#
# 1 0.027279 -0.000327 -0.003965 0.000000 0.000000 0.000000
# 2 -0.000327 0.009730 -0.002928 0.000000 0.000000 0.000000
# 3 -0.003965 -0.002928 0.011224 0.000000 0.000000 0.000000
# 4 0.000000 0.000000 0.000000 0.188437 0.000000 0.000000
# 5 0.000000 0.000000 0.000000 0.000000 0.041358 0.000000
# 6 0.000000 0.000000 0.000000 0.000000 0.000000 0.055005
#
#
# Mechanical properties :
#
#
# Convention : Reuss Voigt Hill
#
# Bulk Modulus (GPa) = 29.59083 39.92636 34.75860
# Shear Modulus (GPa) = 13.93781 22.96302 18.45041
#
# Velocity S-wave (km/s) = 2.75672 3.53843 3.17175
# Velocity P-wave (km/s) = 5.12513 6.20191 5.68905
#
# Compressibility (1/GPa) = 0.03379425
#
# Stress axis : x y z
#
# Youngs Moduli (GPa) = 36.65772 102.77712 89.09641
#
# Poissons Ratio (x) = 0.03360 0.35326
# Poissons Ratio (y) = 0.01198 0.26084
# Poissons Ratio (z) = 0.14534 0.30089
#
# Static dielectric constant tensor:
#      x y z
#    x 1.625280 0.000000 0.000000 
#    y 0.000000 1.622950 0.000000 
#    z 0.000000 0.000000 1.619280 
# 
# From -- ./inp_files/36572.got.cif
#   From: 2010.05.17/outbox.cif.g08.bks.cpg/sg65_19_cif.got.tgz:36572.got - 2010.06.03 17:01:31.
