data_PCOD9490491
_publ_section_title
;
Structure prediction by ZEFSAII (Michael W. Deem and Ramdas Pophale) SiO2 
 PCOD9490491
Probable space group: C M M M
;
_chemical_formula_sum "Si O2"
_cell_formula_units_Z 88
_cell_length_a 23.634338
_cell_length_b 23.035602
_cell_length_c 7.914398
_cell_angle_alpha 90.000000
_cell_angle_beta 90.000000
_cell_angle_gamma 90.000000
_cell_volume 4308.845230
_symmetry_space_group_name_H-M "C M M M"
_symmetry_group_IT_number 65
_symmetry_cell_setting 'orthorhombic'
loop_
_space_group_symop_operation_xyz
x,y,z
-x,-y,z
x,-y,-z
-x,y,-z
-x,-y,-z
x,y,-z
-x,y,z
x,-y,z
1/2+x,1/2+y,z
1/2-x,1/2-y,z
1/2+x,1/2-y,-z
1/2-x,1/2+y,-z
1/2-x,1/2-y,-z
1/2+x,1/2+y,-z
1/2-x,1/2+y,z
1/2+x,1/2-y,z
loop_
_atom_site_type_symbol
_atom_site_label
_atom_site_fract_x
_atom_site_fract_y
_atom_site_fract_z
Si Si1 0.438398 0.711093 0.706781
Si Si2 0.711224 0.000000 0.807588
Si Si3 0.500000 0.933537 0.200865
Si Si4 0.839993 0.872289 0.701083
Si Si5 0.347830 0.500000 0.190014
Si Si6 0.787650 0.626955 0.302617
Si Si7 0.407036 0.839545 0.295613
O O1 0.436800 0.709995 0.500000
O O2 0.500000 0.688351 0.758548
O O3 0.385806 0.672940 0.768340
O O4 0.433138 0.778239 0.758025
O O5 0.779398 0.000000 0.814839
O O6 0.696590 0.940969 0.714074
O O7 0.689272 0.000000 0.000000
O O8 0.445462 0.894650 0.249382
O O9 0.500000 0.000000 0.269336
O O10 0.500000 0.938002 0.000000
O O11 0.835564 0.863519 0.500000
O O12 0.861185 0.938313 0.726955
O O13 0.775667 0.865334 0.770628
O O14 0.369913 0.500000 0.000000
O O15 0.783967 0.642694 0.500000
O O16 0.842541 0.658247 0.229258
O O17 0.404750 0.839181 0.500000
#
# Coordination Sequence:
#
# PCOD9490491 Si02
#       7
#    16   8   8  16   8  16  16
#     4   9  17  32  55  79 103 136 176 215 259 313
#     4   9  17  29  47  69 101 141 172 205 255 310
#     4  11  25  41  55  77 109 142 181 222 257 299
#     4   9  17  31  53  79 108 137 170 215 261 310
#     4   9  17  31  50  74 104 137 172 209 256 310
#     4   9  18  30  48  78 106 133 170 214 262 310
#     4  10  20  36  57  78 105 139 176 217 262 312
#
# _framework density 20.423103999999999
#
# number of rings (size 3 to 8) (size 9 to 14) (size 15 to 20)
#    0.000    2.636    0.909    0.818    1.273    4.364 
#    0.000    5.000    0.000    2.727    0.000    6.364 
#    0.000    0.000    0.000    0.000    0.000    0.000 
#
# Total GULP energy -245148.781289 kJ/mol
# GULP energy per Si atom -5571.563211 kJ/mol
# Density = 2.037662 g / cm^3
# Si number density = 20.423104 Si / 1000 Ang^3
#
#
#
# Elastic Constant Matrix: (Units=GPa)
#
#
# Indices 1 2 3 4 5 6 
#
# 1 154.0157 76.5956 9.1023 0.0000 0.0000 0.0000
# 2 76.5956 96.9541 -0.3217 0.0000 0.0000 0.0000
# 3 9.1023 -0.3217 21.9821 0.0000 0.0000 0.0000
# 4 0.0000 0.0000 0.0000 -53.6593 0.0000 0.0000
# 5 0.0000 0.0000 0.0000 0.0000 -0.4655 0.0000
# 6 0.0000 0.0000 0.0000 0.0000 0.0000 42.9362
#
#
#
# Elastic Compliance Matrix: (Units=1/GPa)
#
#
# Indices 1 2 3 4 5 6 
#
# 1 0.011171 -0.008841 -0.004755 0.000000 0.000000 0.000000
# 2 -0.008841 0.017312 0.003914 0.000000 0.000000 0.000000
# 3 -0.004755 0.003914 0.047518 0.000000 0.000000 0.000000
# 4 0.000000 0.000000 0.000000 -0.018636 0.000000 0.000000
# 5 0.000000 0.000000 0.000000 0.000000 -2.148149 0.000000
# 6 0.000000 0.000000 0.000000 0.000000 0.000000 0.023290
#
#
# Mechanical properties :
#
#
# Convention : Reuss Voigt Hill
#
# Bulk Modulus (GPa) = 17.65636 49.30047 33.47842
# Shear Modulus (GPa) = -2.46396 10.26731 3.90167
#
# Velocity S-wave (km/s) = -1.09958 2.24460 1.38368
# Velocity P-wave (km/s) = 2.65555 5.55964 4.35669
#
# Compressibility (1/GPa) = 0.05663681
#
# Stress axis : x y z
#
# Youngs Moduli (GPa) = 89.52101 57.76504 21.04478
#
# Poissons Ratio (x) = 0.51069 0.10006
# Poissons Ratio (y) = 0.79143 -0.08237
# Poissons Ratio (z) = 0.42566 -0.22610
#
# Static dielectric constant tensor:
#      x y z
#    x 1.754500 0.000000 0.000000 
#    y 0.000000 1.734940 0.000000 
#    z 0.000000 0.000000 1.740540 
# 
# From -- ./inp_files/14072.got.cif
#   From: 2010.05.17/outbox.cif.g08.bks.cpg/sg65_8_cif.got.tgz:14072.got - 2010.06.03 17:01:31.
