data_PCOD9490735
_publ_section_title
;
Structure prediction by ZEFSAII (Michael W. Deem and Ramdas Pophale) SiO2 
 PCOD9490735
Probable space group: C M M M
;
_chemical_formula_sum "Si O2"
_cell_formula_units_Z 88
_cell_length_a 30.362870
_cell_length_b 8.885919
_cell_length_c 16.927476
_cell_angle_alpha 90.000000
_cell_angle_beta 90.000000
_cell_angle_gamma 90.000000
_cell_volume 4567.066938
_symmetry_space_group_name_H-M "C M M M"
_symmetry_group_IT_number 65
_symmetry_cell_setting 'orthorhombic'
loop_
_space_group_symop_operation_xyz
x,y,z
-x,-y,z
x,-y,-z
-x,y,-z
-x,-y,-z
x,y,-z
-x,y,z
x,-y,z
1/2+x,1/2+y,z
1/2-x,1/2-y,z
1/2+x,1/2-y,-z
1/2-x,1/2+y,-z
1/2-x,1/2-y,-z
1/2+x,1/2+y,-z
1/2-x,1/2+y,z
1/2+x,1/2-y,z
loop_
_atom_site_type_symbol
_atom_site_label
_atom_site_fract_x
_atom_site_fract_y
_atom_site_fract_z
Si Si1 0.202123 0.818607 0.909309
Si Si2 0.113218 0.321256 0.365737
Si Si3 0.447980 0.319158 0.500000
Si Si4 0.620474 0.676884 0.197567
Si Si5 0.205769 0.170575 0.594858
Si Si6 0.050977 0.328265 0.094479
O O1 0.250000 0.750000 0.893296
O O2 0.165751 0.772844 0.845089
O O3 0.204809 0.000000 0.907520
O O4 0.189529 0.775556 0.000000
O O5 0.110268 0.500000 0.373332
O O6 0.077624 0.245690 0.423856
O O7 0.108415 0.267533 0.275929
O O8 0.161982 0.264255 0.388865
O O9 0.443970 0.500000 0.500000
O O10 0.500000 0.280637 0.500000
O O11 0.623863 0.500000 0.215949
O O12 0.582241 0.709168 0.135013
O O13 0.209999 0.161100 0.500000
O O14 0.250000 0.250000 0.625716
O O15 0.201541 0.000000 0.625742
O O16 0.063956 0.500000 0.116340
O O17 0.000000 0.307768 0.117057
O O18 0.053697 0.317408 0.000000
#
# Coordination Sequence:
#
# PCOD9490735 Si02
#       6
#    16  16   8  16  16  16
#     4   9  19  36  58  85 118 159 205 249 293 345
#     4  12  25  41  63  90 123 159 200 248 303 364
#     4  11  25  47  72  93 116 151 197 249 307 371
#     4  11  23  38  58  86 122 159 200 250 300 353
#     4  10  20  36  61  89 120 154 193 239 290 347
#     4   9  19  37  60  86 117 152 192 241 298 361
#
# _framework density 19.268383
#
# number of rings (size 3 to 8) (size 9 to 14) (size 15 to 20)
#    0.000    1.727    0.909    4.091    0.000    5.818 
#    0.000    4.545    0.000    0.000    0.000    0.000 
#    0.000    0.000    0.000    0.000    0.000    0.000 
#
# Total GULP energy -245777.750433 kJ/mol
# GULP energy per Si atom -5585.857964 kJ/mol
# Density = 1.922453 g / cm^3
# Si number density = 19.268383 Si / 1000 Ang^3
#
#
#
# Elastic Constant Matrix: (Units=GPa)
#
#
# Indices 1 2 3 4 5 6 
#
# 1 122.6423 55.7137 54.9219 0.0000 0.0000 0.0000
# 2 55.7137 92.6498 36.6968 0.0000 0.0000 0.0000
# 3 54.9219 36.6968 75.8083 0.0000 0.0000 0.0000
# 4 0.0000 0.0000 0.0000 27.5268 0.0000 0.0000
# 5 0.0000 0.0000 0.0000 0.0000 -849.3573 0.0000
# 6 0.0000 0.0000 0.0000 0.0000 0.0000 30.6367
#
#
#
# Elastic Compliance Matrix: (Units=1/GPa)
#
#
# Indices 1 2 3 4 5 6 
#
# 1 0.013982 -0.005438 -0.007497 0.000000 0.000000 0.000000
# 2 -0.005438 0.015469 -0.003548 0.000000 0.000000 0.000000
# 3 -0.007497 -0.003548 0.020340 0.000000 0.000000 0.000000
# 4 0.000000 0.000000 0.000000 0.036328 0.000000 0.000000
# 5 0.000000 0.000000 0.000000 0.000000 -0.001177 0.000000
# 6 0.000000 0.000000 0.000000 0.000000 0.000000 0.032641
#
#
# Mechanical properties :
#
#
# Convention : Reuss Voigt Hill
#
# Bulk Modulus (GPa) = 59.43907 65.08504 62.26205
# Shear Modulus (GPa) = 32.01913 -148.65423 -58.31755
#
# Velocity S-wave (km/s) = 4.08087 -8.79300 -5.50742
# Velocity P-wave (km/s) = 7.28832 8.32091 2.83883
#
# Compressibility (1/GPa) = 0.01682395
#
# Stress axis : x y z
#
# Youngs Moduli (GPa) = 71.52281 64.64573 49.16389
#
# Poissons Ratio (x) = 0.35156 0.36858
# Poissons Ratio (y) = 0.38896 0.17444
# Poissons Ratio (z) = 0.53620 0.22937
#
# Static dielectric constant tensor:
#      x y z
#    x 1.649220 0.000000 0.000000 
#    y 0.000000 1.661760 0.000000 
#    z 0.000000 0.000000 1.669160 
# 
# From -- ./inp_files/58031.got.cif
#   From: 2010.05.17/outbox.cif.g08.bks.cpg/sg65_30_cif.got.tgz:58031.got - 2010.06.03 17:01:31.
