data_PCOD9490277
_publ_section_title
;
Structure prediction by ZEFSAII (Michael W. Deem and Ramdas Pophale) SiO2 
 PCOD9490277
Probable space group: C M M M
;
_chemical_formula_sum "Si O2"
_cell_formula_units_Z 84
_cell_length_a 26.769218
_cell_length_b 15.368472
_cell_length_c 11.212000
_cell_angle_alpha 90.000000
_cell_angle_beta 90.000000
_cell_angle_gamma 90.000000
_cell_volume 4612.638969
_symmetry_space_group_name_H-M "C M M M"
_symmetry_group_IT_number 65
_symmetry_cell_setting 'orthorhombic'
loop_
_space_group_symop_operation_xyz
x,y,z
-x,-y,z
x,-y,-z
-x,y,-z
-x,-y,-z
x,y,-z
-x,y,z
x,-y,z
1/2+x,1/2+y,z
1/2-x,1/2-y,z
1/2+x,1/2-y,-z
1/2-x,1/2+y,-z
1/2-x,1/2-y,-z
1/2+x,1/2+y,-z
1/2-x,1/2+y,z
1/2+x,1/2-y,z
loop_
_atom_site_type_symbol
_atom_site_label
_atom_site_fract_x
_atom_site_fract_y
_atom_site_fract_z
Si Si1 0.084519 0.000000 0.140685
Si Si2 0.141248 0.000000 0.500000
Si Si3 0.806127 0.000000 0.244669
Si Si4 0.055695 0.811231 0.765596
Si Si5 0.055748 0.144426 0.500000
Si Si6 0.876873 0.661695 0.856700
Si Si7 0.263281 0.148370 0.141527
Si Si8 0.556789 0.000000 0.854475
O O1 0.143838 0.000000 0.164567
O O2 0.063112 0.087619 0.200084
O O3 0.073686 0.000000 0.000000
O O4 0.174378 0.000000 0.619366
O O5 0.102756 0.919539 0.500000
O O6 0.773251 0.915482 0.212281
O O7 0.057952 0.803348 0.622971
O O8 0.099599 0.753394 0.819622
O O9 0.000000 0.784056 0.807262
O O10 0.000000 0.102039 0.500000
O O11 0.820664 0.641440 0.817109
O O12 0.913911 0.585825 0.815952
O O13 0.874996 0.661145 0.000000
O O14 0.250000 0.250000 0.152738
O O15 0.260063 0.125683 0.000000
O O16 0.500000 0.000000 0.813790
O O17 0.556680 0.000000 0.000000
#
# Coordination Sequence:
#
# PCOD9490277 Si02
#       8
#     8   4   8  16   8  16  16   8
#     4  12  23  34  54  85 120 153 184 232 300 360
#     4  12  23  40  64  86 114 156 205 250 290 336
#     4  12  23  40  60  85 117 154 202 248 292 341
#     4  11  22  37  58  85 120 157 195 240 287 352
#     4  10  21  40  61  82 114 164 208 235 279 348
#     4  10  20  35  57  85 116 151 192 240 296 352
#     4  10  21  37  58  84 115 153 195 239 295 358
#     4   9  17  30  50  78 111 146 184 230 287 345
#
# _framework density 18.210833000000001
#
# number of rings (size 3 to 8) (size 9 to 14) (size 15 to 20)
#    0.000    1.429    1.905    4.143    0.000    7.238 
#    0.000    1.429    0.000    0.571    0.000    2.667 
#    0.000    0.000    0.000    0.000    0.000    0.000 
#
# Total GULP energy -234498.861282 kJ/mol
# GULP energy per Si atom -5583.306221 kJ/mol
# Density = 1.816938 g / cm^3
# Si number density = 18.210833 Si / 1000 Ang^3
#
#
#
# Elastic Constant Matrix: (Units=GPa)
#
#
# Indices 1 2 3 4 5 6 
#
# 1 142.7925 32.6034 27.2773 0.0000 0.0000 0.0000
# 2 32.6034 65.6449 11.3624 0.0000 0.0000 0.0000
# 3 27.2773 11.3624 58.9652 0.0000 0.0000 0.0000
# 4 0.0000 0.0000 0.0000 -1.6897 0.0000 0.0000
# 5 0.0000 0.0000 0.0000 0.0000 162.7634 0.0000
# 6 0.0000 0.0000 0.0000 0.0000 0.0000 33.7035
#
#
#
# Elastic Compliance Matrix: (Units=1/GPa)
#
#
# Indices 1 2 3 4 5 6 
#
# 1 0.008447 -0.003640 -0.003206 0.000000 0.000000 0.000000
# 2 -0.003640 0.017328 -0.001655 0.000000 0.000000 0.000000
# 3 -0.003206 -0.001655 0.018761 0.000000 0.000000 0.000000
# 4 0.000000 0.000000 0.000000 -0.591826 0.000000 0.000000
# 5 0.000000 0.000000 0.000000 0.000000 0.006144 0.000000
# 6 0.000000 0.000000 0.000000 0.000000 0.000000 0.029670
#
#
# Mechanical properties :
#
#
# Convention : Reuss Voigt Hill
#
# Bulk Modulus (GPa) = 36.31974 45.54320 40.93147
# Shear Modulus (GPa) = -10.30301 52.03274 20.86487
#
# Velocity S-wave (km/s) = -2.38116 5.35112 3.38855
# Velocity P-wave (km/s) = 3.52526 7.95251 6.15101
#
# Compressibility (1/GPa) = 0.02753324
#
# Stress axis : x y z
#
# Youngs Moduli (GPa) = 118.38835 57.71028 53.30156
#
# Poissons Ratio (x) = 0.21008 0.17089
# Poissons Ratio (y) = 0.43097 0.08822
# Poissons Ratio (z) = 0.37955 0.09551
#
# Static dielectric constant tensor:
#      x y z
#    x 1.638800 0.000000 0.000000 
#    y 0.000000 1.625660 0.000000 
#    z 0.000000 0.000000 1.603210 
# 
# From -- ./inp_files/30628.got.cif
#   From: 2010.05.17/outbox.cif.g08.bks.cpg/sg65_16_cif.got.tgz:30628.got - 2010.06.03 17:01:31.
