data_PCOD9490343
_publ_section_title
;
Structure prediction by ZEFSAII (Michael W. Deem and Ramdas Pophale) SiO2 
 PCOD9490343
Probable space group: C M M M
;
_chemical_formula_sum "Si O2"
_cell_formula_units_Z 42
_cell_length_a 9.186821
_cell_length_b 34.139013
_cell_length_c 7.328477
_cell_angle_alpha 90.000000
_cell_angle_beta 90.000000
_cell_angle_gamma 90.000000
_cell_volume 2298.422924
_symmetry_space_group_name_H-M "C M M M"
_symmetry_group_IT_number 65
_symmetry_cell_setting 'orthorhombic'
loop_
_space_group_symop_operation_xyz
x,y,z
-x,-y,z
x,-y,-z
-x,y,-z
-x,-y,-z
x,y,-z
-x,y,z
x,-y,z
1/2+x,1/2+y,z
1/2-x,1/2-y,z
1/2+x,1/2-y,-z
1/2-x,1/2+y,-z
1/2-x,1/2-y,-z
1/2+x,1/2+y,-z
1/2-x,1/2+y,z
1/2+x,1/2-y,z
loop_
_atom_site_type_symbol
_atom_site_label
_atom_site_fract_x
_atom_site_fract_y
_atom_site_fract_z
Si Si1 0.000000 0.000000 0.500000
Si Si2 0.339052 0.418969 0.500000
Si Si3 0.328450 0.869339 0.217911
Si Si4 0.832246 0.210744 0.777740
O O1 0.875319 0.035144 0.500000
O O2 0.500000 0.399519 0.500000
O O3 0.250886 0.403918 0.674517
O O4 0.500000 0.868320 0.258090
O O5 0.253879 0.828410 0.274255
O O6 0.310526 0.873709 0.000000
O O7 0.750000 0.250000 0.717784
O O8 0.000000 0.209999 0.719004
O O9 0.832661 0.211404 0.000000
#
# Coordination Sequence:
#
# PCOD9490343 Si02
#       4
#     2   8  16  16
#     4   8  24  44  64  88 112 146 186 240 310 360
#     4  10  21  41  62  84 110 145 187 236 293 356
#     4  10  20  35  58  87 118 154 194 237 286 342
#     4   9  16  27  46  76 115 158 199 237 277 326
#
# _framework density 18.273398
#
# number of rings (size 3 to 8) (size 9 to 14) (size 15 to 20)
#    0.571    1.905    0.000    2.857    0.000    6.857 
#    0.000    4.762    0.000    2.286    0.000    0.000 
#    0.000    0.000    0.000    0.000    0.000    0.000 
#
# Total GULP energy -116913.719113 kJ/mol
# GULP energy per Si atom -5567.319958 kJ/mol
# Density = 1.823181 g / cm^3
# Si number density = 18.273398 Si / 1000 Ang^3
#
#
#
# Elastic Constant Matrix: (Units=GPa)
#
#
# Indices 1 2 3 4 5 6 
#
# 1 185.8617 102.9641 51.1552 0.0000 0.0000 0.0000
# 2 102.9641 188.9827 45.5820 0.0000 0.0000 0.0000
# 3 51.1552 45.5820 76.3763 0.0000 0.0000 0.0000
# 4 0.0000 0.0000 0.0000 6.7555 0.0000 0.0000
# 5 0.0000 0.0000 0.0000 0.0000 10.1399 0.0000
# 6 0.0000 0.0000 0.0000 0.0000 0.0000 41.0360
#
#
#
# Elastic Compliance Matrix: (Units=1/GPa)
#
#
# Indices 1 2 3 4 5 6 
#
# 1 0.008392 -0.003757 -0.003378 0.000000 0.000000 0.000000
# 2 -0.003757 0.007864 -0.002177 0.000000 0.000000 0.000000
# 3 -0.003378 -0.002177 0.016655 0.000000 0.000000 0.000000
# 4 0.000000 0.000000 0.000000 0.148027 0.000000 0.000000
# 5 0.000000 0.000000 0.000000 0.000000 0.098620 0.000000
# 6 0.000000 0.000000 0.000000 0.000000 0.000000 0.024369
#
#
# Mechanical properties :
#
#
# Convention : Reuss Voigt Hill
#
# Bulk Modulus (GPa) = 69.99876 94.51370 82.25623
# Shear Modulus (GPa) = 15.27598 28.35425 21.81511
#
# Velocity S-wave (km/s) = 2.89445 3.94340 3.45892
# Velocity P-wave (km/s) = 7.03988 8.51869 7.81435
#
# Compressibility (1/GPa) = 0.01428597
#
# Stress axis : x y z
#
# Youngs Moduli (GPa) = 119.16764 127.16977 60.04336
#
# Poissons Ratio (x) = 0.47780 0.20284
# Poissons Ratio (y) = 0.44774 0.13069
# Poissons Ratio (z) = 0.40257 0.27679
#
# Static dielectric constant tensor:
#      x y z
#    x 1.612290 0.000000 0.000000 
#    y 0.000000 1.577370 0.000000 
#    z 0.000000 0.000000 1.692360 
# 
# From -- ./inp_files/2903.got.cif
#   From: 2010.05.17/outbox.cif.g08.bks.cpg/sg65_2_cif.got.tgz:2903.got - 2010.06.03 17:01:31.
