data_PCOD9490177
_publ_section_title
;
Structure prediction by ZEFSAII (Michael W. Deem and Ramdas Pophale) SiO2 
 PCOD9490177
Probable space group: C M M M
;
_chemical_formula_sum "Si O2"
_cell_formula_units_Z 88
_cell_length_a 28.793125
_cell_length_b 8.711445
_cell_length_c 18.568454
_cell_angle_alpha 90.000000
_cell_angle_beta 90.000000
_cell_angle_gamma 90.000000
_cell_volume 4657.520207
_symmetry_space_group_name_H-M "C M M M"
_symmetry_group_IT_number 65
_symmetry_cell_setting 'orthorhombic'
loop_
_space_group_symop_operation_xyz
x,y,z
-x,-y,z
x,-y,-z
-x,y,-z
-x,-y,-z
x,y,-z
-x,y,z
x,-y,z
1/2+x,1/2+y,z
1/2-x,1/2-y,z
1/2+x,1/2-y,-z
1/2-x,1/2+y,-z
1/2-x,1/2-y,-z
1/2+x,1/2+y,-z
1/2-x,1/2+y,z
1/2+x,1/2-y,z
loop_
_atom_site_type_symbol
_atom_site_label
_atom_site_fract_x
_atom_site_fract_y
_atom_site_fract_z
Si Si1 0.301693 0.816461 0.423192
Si Si2 0.445065 0.315187 0.583322
Si Si3 0.698326 0.680484 0.272589
Si Si4 0.605556 0.820541 0.723849
Si Si5 0.944508 0.826481 0.149256
Si Si6 0.556666 0.822194 0.000000
O O1 0.325650 0.790958 0.500000
O O2 0.250000 0.750000 0.430633
O O3 0.316960 0.722917 0.354487
O O4 0.300304 0.000000 0.409600
O O5 0.434467 0.268001 0.500000
O O6 0.500000 0.280830 0.595297
O O7 0.439768 0.500000 0.586541
O O8 0.414467 0.244154 0.647653
O O9 0.701279 0.500000 0.262316
O O10 0.750000 0.750000 0.260294
O O11 0.652606 0.752980 0.238048
O O12 0.567670 0.781287 0.784092
O O13 0.613411 0.000000 0.712934
O O14 0.927448 0.761347 0.072835
O O15 0.000000 0.834230 0.143796
O O16 0.927227 0.000000 0.162899
O O17 0.500000 0.818938 0.000000
O O18 0.570624 0.000000 0.000000
#
# Coordination Sequence:
#
# PCOD9490177 Si02
#       6
#    16  16  16  16  16   8
#     4   9  16  27  44  65  88 115 151 198 254 313
#     4   9  19  37  58  78 104 141 184 229 277 328
#     4  11  22  37  54  71  96 130 171 220 273 326
#     4  12  24  36  53  79 109 142 183 228 274 324
#     4  10  20  35  56  83 116 151 184 218 261 316
#     4   9  17  31  53  83 118 151 180 213 259 315
#
# _framework density 18.894174
#
# number of rings (size 3 to 8) (size 9 to 14) (size 15 to 20)
#    0.000    1.909    0.000    6.818    0.000    6.909 
#    0.000    0.909    0.000    0.000    0.000    0.636 
#    0.000    0.000    0.000    0.000    0.000    0.000 
#
# Total GULP energy -245010.048243 kJ/mol
# GULP energy per Si atom -5568.410187 kJ/mol
# Density = 1.885117 g / cm^3
# Si number density = 18.894174 Si / 1000 Ang^3
#
#
#
# Elastic Constant Matrix: (Units=GPa)
#
#
# Indices 1 2 3 4 5 6 
#
# 1 87.0120 40.4972 18.7970 0.0000 0.0000 0.0000
# 2 40.4972 100.1199 13.2169 0.0000 0.0000 0.0000
# 3 18.7970 13.2169 66.0337 0.0000 0.0000 0.0000
# 4 0.0000 0.0000 0.0000 8.2500 0.0000 0.0000
# 5 0.0000 0.0000 0.0000 0.0000 -0.6399 0.0000
# 6 0.0000 0.0000 0.0000 0.0000 0.0000 19.4136
#
#
#
# Elastic Compliance Matrix: (Units=1/GPa)
#
#
# Indices 1 2 3 4 5 6 
#
# 1 0.014746 -0.005557 -0.003085 0.000000 0.000000 0.000000
# 2 -0.005557 0.012353 -0.000891 0.000000 0.000000 0.000000
# 3 -0.003085 -0.000891 0.016200 0.000000 0.000000 0.000000
# 4 0.000000 0.000000 0.000000 0.121212 0.000000 0.000000
# 5 0.000000 0.000000 0.000000 0.000000 -1.562646 0.000000
# 6 0.000000 0.000000 0.000000 0.000000 0.000000 0.051510
#
#
# Mechanical properties :
#
#
# Convention : Reuss Voigt Hill
#
# Bulk Modulus (GPa) = 41.26558 44.24307 42.75433
# Shear Modulus (GPa) = -3.78937 17.44836 6.82950
#
# Velocity S-wave (km/s) = -1.41772 3.04218 1.90327
# Velocity P-wave (km/s) = 4.38268 5.98388 5.24475
#
# Compressibility (1/GPa) = 0.02423327
#
# Stress axis : x y z
#
# Youngs Moduli (GPa) = 67.81709 80.94952 61.72741
#
# Poissons Ratio (x) = 0.44985 0.19044
# Poissons Ratio (y) = 0.37687 0.05498
# Poissons Ratio (z) = 0.20923 0.07210
#
# Static dielectric constant tensor:
#      x y z
#    x 1.459860 0.000000 0.000000 
#    y 0.000000 1.673440 0.000000 
#    z 0.000000 0.000000 1.735700 
# 
# From -- ./inp_files/57964.got.cif
#   From: 2010.05.17/outbox.cif.g08.bks.cpg/sg65_29_cif.got.tgz:57964.got - 2010.06.03 17:01:31.
