data_PCOD9490951
_publ_section_title
;
Structure prediction by ZEFSAII (Michael W. Deem and Ramdas Pophale) SiO2 
 PCOD9490951
Probable space group: C M M M
;
_chemical_formula_sum "Si O2"
_cell_formula_units_Z 96
_cell_length_a 22.797656
_cell_length_b 24.676175
_cell_length_c 8.495607
_cell_angle_alpha 90.000000
_cell_angle_beta 90.000000
_cell_angle_gamma 90.000000
_cell_volume 4779.279745
_symmetry_space_group_name_H-M "C M M M"
_symmetry_group_IT_number 65
_symmetry_cell_setting 'orthorhombic'
loop_
_space_group_symop_operation_xyz
x,y,z
-x,-y,z
x,-y,-z
-x,y,-z
-x,-y,-z
x,y,-z
-x,y,z
x,-y,z
1/2+x,1/2+y,z
1/2-x,1/2-y,z
1/2+x,1/2-y,-z
1/2-x,1/2+y,-z
1/2-x,1/2-y,-z
1/2+x,1/2+y,-z
1/2-x,1/2+y,z
1/2+x,1/2-y,z
loop_
_atom_site_type_symbol
_atom_site_label
_atom_site_fract_x
_atom_site_fract_y
_atom_site_fract_z
Si Si1 0.500000 0.403315 0.185071
Si Si2 0.700257 0.682256 0.816903
Si Si3 0.176367 0.500000 0.178700
Si Si4 0.500000 0.280909 0.309596
Si Si5 0.876640 0.276153 0.312610
Si Si6 0.681289 0.120983 0.189133
Si Si7 0.291255 0.500000 0.329727
Si Si8 0.880321 0.097977 0.322821
O O1 0.500000 0.339202 0.226933
O O2 0.558512 0.425127 0.264839
O O3 0.500000 0.412252 0.000000
O O4 0.677978 0.737302 0.736037
O O5 0.756567 0.647982 0.754691
O O6 0.644347 0.643299 0.792858
O O7 0.710810 0.693627 0.000000
O O8 0.165063 0.560329 0.248845
O O9 0.247056 0.500000 0.186350
O O10 0.153438 0.500000 0.000000
O O11 0.500000 0.288446 0.500000
O O12 0.560406 0.249808 0.268474
O O13 0.875753 0.282082 0.500000
O O14 0.866340 0.334181 0.233380
O O15 0.686846 0.115873 0.000000
O O16 0.259214 0.500000 0.500000
O O17 0.332430 0.551529 0.325764
O O18 0.886343 0.121081 0.500000
#
# Coordination Sequence:
#
# PCOD9490951 Si02
#       8
#     8  16   8   8  16  16   8  16
#     4  12  24  37  57  82 108 151 200 241 287 340
#     4  11  21  35  57  86 118 151 190 234 284 341
#     4  10  20  38  61  84 115 154 186 231 290 341
#     4  10  22  40  59  82 113 150 186 235 292 340
#     4  11  23  38  59  85 117 152 190 234 288 346
#     4  10  22  38  58  86 120 152 188 234 285 341
#     4  10  22  37  57  82 110 151 198 241 285 337
#     4  11  22  37  56  80 113 151 194 244 289 334
#
# _framework density 20.086708999999999
#
# number of rings (size 3 to 8) (size 9 to 14) (size 15 to 20)
#    0.000    1.333    3.333    2.750    0.000    5.667 
#    0.000    1.667    0.000    0.500    0.000    3.500 
#    0.000    0.000    0.000    0.000    0.000    0.000 
#
# Total GULP energy -267841.882955 kJ/mol
# GULP energy per Si atom -5580.039228 kJ/mol
# Density = 2.004099 g / cm^3
# Si number density = 20.086709 Si / 1000 Ang^3
#
#
#
# Elastic Constant Matrix: (Units=GPa)
#
#
# Indices 1 2 3 4 5 6 
#
# 1 40.8808 5.6879 4.2596 0.0000 0.0000 0.0000
# 2 5.6879 116.7797 7.7956 0.0000 0.0000 0.0000
# 3 4.2596 7.7956 27.6682 0.0000 0.0000 0.0000
# 4 0.0000 0.0000 0.0000 20.1821 0.0000 0.0000
# 5 0.0000 0.0000 0.0000 0.0000 24.9275 0.0000
# 6 0.0000 0.0000 0.0000 0.0000 0.0000 -35.6026
#
#
#
# Elastic Compliance Matrix: (Units=1/GPa)
#
#
# Indices 1 2 3 4 5 6 
#
# 1 0.024969 -0.000978 -0.003569 0.000000 0.000000 0.000000
# 2 -0.000978 0.008766 -0.002319 0.000000 0.000000 0.000000
# 3 -0.003569 -0.002319 0.037345 0.000000 0.000000 0.000000
# 4 0.000000 0.000000 0.000000 0.049549 0.000000 0.000000
# 5 0.000000 0.000000 0.000000 0.000000 0.040116 0.000000
# 6 0.000000 0.000000 0.000000 0.000000 0.000000 -0.028088
#
#
# Mechanical properties :
#
#
# Convention : Reuss Voigt Hill
#
# Bulk Modulus (GPa) = 17.43714 24.53498 20.98606
# Shear Modulus (GPa) = 30.21052 13.07377 21.64214
#
# Velocity S-wave (km/s) = 3.88236 2.55398 3.28599
# Velocity P-wave (km/s) = 5.36626 4.57582 4.98672
#
# Compressibility (1/GPa) = 0.05734886
#
# Stress axis : x y z
#
# Youngs Moduli (GPa) = 40.04929 114.08257 26.77706
#
# Poissons Ratio (x) = 0.11156 0.09556
# Poissons Ratio (y) = 0.03917 0.06210
# Poissons Ratio (z) = 0.14292 0.26458
#
# Static dielectric constant tensor:
#      x y z
#    x 1.710530 0.000000 0.000000 
#    y 0.000000 1.757180 0.000000 
#    z 0.000000 0.000000 1.722800 
# 
# From -- ./inp_files/14456.got.cif
#   From: 2010.05.17/outbox.cif.g08.bks.cpg/sg65_8_cif.got.tgz:14456.got - 2010.06.03 17:01:31.
