data_PCOD9490612
_publ_section_title
;
Structure prediction by ZEFSAII (Michael W. Deem and Ramdas Pophale) SiO2 
 PCOD9490612
Probable space group: C M M M
;
_chemical_formula_sum "Si O2"
_cell_formula_units_Z 90
_cell_length_a 20.440419
_cell_length_b 27.037066
_cell_length_c 7.520963
_cell_angle_alpha 90.000000
_cell_angle_beta 90.000000
_cell_angle_gamma 90.000000
_cell_volume 4156.452362
_symmetry_space_group_name_H-M "C M M M"
_symmetry_group_IT_number 65
_symmetry_cell_setting 'orthorhombic'
loop_
_space_group_symop_operation_xyz
x,y,z
-x,-y,z
x,-y,-z
-x,y,-z
-x,-y,-z
x,y,-z
-x,y,z
x,-y,z
1/2+x,1/2+y,z
1/2-x,1/2-y,z
1/2+x,1/2-y,-z
1/2-x,1/2+y,-z
1/2-x,1/2-y,-z
1/2+x,1/2+y,-z
1/2-x,1/2+y,z
1/2+x,1/2-y,z
loop_
_atom_site_type_symbol
_atom_site_label
_atom_site_fract_x
_atom_site_fract_y
_atom_site_fract_z
Si Si1 0.500000 0.426023 0.283460
Si Si2 0.275195 0.650644 0.207649
Si Si3 0.868459 0.760039 0.292289
Si Si4 0.644702 0.552754 0.284827
Si Si5 0.000000 0.187477 0.716808
Si Si6 0.134041 0.352415 0.798479
Si Si7 0.000000 0.406676 0.220479
Si Si8 0.500000 0.000000 0.500000
O O1 0.500000 0.429782 0.500000
O O2 0.430785 0.447041 0.225338
O O3 0.500000 0.369046 0.230340
O O4 0.309791 0.700261 0.279129
O O5 0.321076 0.602914 0.225687
O O6 0.204551 0.636431 0.288376
O O7 0.265842 0.661205 0.000000
O O8 0.876894 0.748712 0.500000
O O9 0.864234 0.707159 0.201143
O O10 0.933844 0.786617 0.224116
O O11 0.645049 0.554357 0.500000
O O12 0.674973 0.500000 0.229681
O O13 0.000000 0.187881 0.500000
O O14 0.065714 0.374993 0.731724
O O15 0.137439 0.371645 0.000000
O O16 0.000000 0.456045 0.340910
O O17 0.000000 0.414114 0.000000
#
# Coordination Sequence:
#
# PCOD9490612 Si02
#       8
#     8  16  16  16   8  16   8   2
#     4   9  15  31  56  77 112 151 195 242 295 348
#     4  11  23  39  57  84 125 169 211 253 315 393
#     4  11  21  35  60  92 126 165 211 265 316 373
#     4  10  20  36  58  85 113 154 207 262 309 359
#     4   9  17  30  52  83 118 155 196 243 295 355
#     4  10  23  43  65  90 125 168 206 254 323 398
#     4  10  24  50  76 104 140 173 218 276 344 409
#     4  12  26  48  84 114 128 168 218 286 338 410
#
# _framework density 21.653079999999999
#
# number of rings (size 3 to 8) (size 9 to 14) (size 15 to 20)
#    0.000    1.778    1.778    2.533    1.244    4.978 
#    1.600    2.667    0.000    1.067    0.000    0.000 
#    0.000    0.000    0.000    0.000    0.000    0.000 
#
# Total GULP energy -250777.432540 kJ/mol
# GULP energy per Si atom -5572.831834 kJ/mol
# Density = 2.160380 g / cm^3
# Si number density = 21.653080 Si / 1000 Ang^3
#
#
#
# Elastic Constant Matrix: (Units=GPa)
#
#
# Indices 1 2 3 4 5 6 
#
# 1 163.7321 67.6048 9.0386 0.0000 0.0000 0.0000
# 2 67.6048 140.9798 5.6552 0.0000 0.0000 0.0000
# 3 9.0386 5.6552 76.9379 0.0000 0.0000 0.0000
# 4 0.0000 0.0000 0.0000 28.2927 0.0000 0.0000
# 5 0.0000 0.0000 0.0000 0.0000 9.5471 0.0000
# 6 0.0000 0.0000 0.0000 0.0000 0.0000 14.1765
#
#
#
# Elastic Compliance Matrix: (Units=1/GPa)
#
#
# Indices 1 2 3 4 5 6 
#
# 1 0.007646 -0.003641 -0.000631 0.000000 0.000000 0.000000
# 2 -0.003641 0.008848 -0.000223 0.000000 0.000000 0.000000
# 3 -0.000631 -0.000223 0.013088 0.000000 0.000000 0.000000
# 4 0.000000 0.000000 0.000000 0.035345 0.000000 0.000000
# 5 0.000000 0.000000 0.000000 0.000000 0.104743 0.000000
# 6 0.000000 0.000000 0.000000 0.000000 0.000000 0.070539
#
#
# Mechanical properties :
#
#
# Convention : Reuss Voigt Hill
#
# Bulk Modulus (GPa) = 48.55959 60.69412 54.62686
# Shear Modulus (GPa) = 19.52650 30.36001 24.94325
#
# Velocity S-wave (km/s) = 3.00624 3.74854 3.39772
# Velocity P-wave (km/s) = 5.87578 6.84299 6.37775
#
# Compressibility (1/GPa) = 0.02059325
#
# Stress axis : x y z
#
# Youngs Moduli (GPa) = 130.79143 113.01743 76.40620
#
# Poissons Ratio (x) = 0.41151 0.04818
# Poissons Ratio (y) = 0.47623 0.01701
# Poissons Ratio (z) = 0.08248 0.02516
#
# Static dielectric constant tensor:
#      x y z
#    x 1.834720 0.000000 0.000000 
#    y 0.000000 1.762170 0.000000 
#    z 0.000000 0.000000 1.848650 
# 
# From -- ./inp_files/11930.got.cif
#   From: 2010.05.17/outbox.cif.g08.bks.cpg/sg65_6_cif.got.tgz:11930.got - 2010.06.03 17:01:31.
