data_PCOD9490209
_publ_section_title
;
Structure prediction by ZEFSAII (Michael W. Deem and Ramdas Pophale) SiO2 
 PCOD9490209
Probable space group: C M M M
;
_chemical_formula_sum "Si O2"
_cell_formula_units_Z 72
_cell_length_a 15.911649
_cell_length_b 27.824072
_cell_length_c 7.674591
_cell_angle_alpha 90.000000
_cell_angle_beta 90.000000
_cell_angle_gamma 90.000000
_cell_volume 3397.747632
_symmetry_space_group_name_H-M "C M M M"
_symmetry_group_IT_number 65
_symmetry_cell_setting 'orthorhombic'
loop_
_space_group_symop_operation_xyz
x,y,z
-x,-y,z
x,-y,-z
-x,y,-z
-x,-y,-z
x,y,-z
-x,y,z
x,-y,z
1/2+x,1/2+y,z
1/2-x,1/2-y,z
1/2+x,1/2-y,-z
1/2-x,1/2+y,-z
1/2-x,1/2-y,-z
1/2+x,1/2+y,-z
1/2-x,1/2+y,z
1/2+x,1/2-y,z
loop_
_atom_site_type_symbol
_atom_site_label
_atom_site_fract_x
_atom_site_fract_y
_atom_site_fract_z
Si Si1 0.170108 0.279463 0.291847
Si Si2 0.667021 0.445457 0.291527
Si Si3 0.167676 0.389205 0.713835
Si Si4 0.000000 0.776992 0.791855
Si Si5 0.000000 0.886284 0.207471
Si Si6 0.500000 0.055253 0.287092
O O1 0.181391 0.283240 0.500000
O O2 0.250000 0.250000 0.221634
O O3 0.166959 0.334064 0.225890
O O4 0.083671 0.251329 0.261758
O O5 0.676566 0.448874 0.500000
O O6 0.661328 0.500000 0.223100
O O7 0.748920 0.417048 0.226943
O O8 0.582915 0.415440 0.259128
O O9 0.167881 0.388968 0.500000
O O10 0.083795 0.417024 0.768235
O O11 0.000000 0.831706 0.722153
O O12 0.000000 0.779253 0.000000
O O13 0.000000 0.883015 0.000000
O O14 0.500000 0.055034 0.500000
O O15 0.500000 0.000000 0.230276
#
# Coordination Sequence:
#
# PCOD9490209 Si02
#       6
#    16  16  16   8   8   8
#     4  10  20  35  57  82 107 139 179 224 274 326
#     4  10  20  35  57  84 111 140 177 221 267 317
#     4   9  17  30  50  78 109 137 169 212 261 313
#     4  11  24  39  55  78 110 147 186 230 277 325
#     4  11  24  39  54  75 106 145 184 223 272 323
#     4   9  15  24  42  70 104 137 164 197 247 305
#
# _framework density 21.190507
#
# number of rings (size 3 to 8) (size 9 to 14) (size 15 to 20)
#    0.000    2.111    0.000    3.667    0.000   10.222 
#    0.000    1.111    0.000    0.000    0.000    0.000 
#    0.000    5.333    0.000    0.000    0.000    0.000 
#
# Total GULP energy -201221.777858 kJ/mol
# GULP energy per Si atom -5589.493829 kJ/mol
# Density = 2.114228 g / cm^3
# Si number density = 21.190507 Si / 1000 Ang^3
#
#
#
# Elastic Constant Matrix: (Units=GPa)
#
#
# Indices 1 2 3 4 5 6 
#
# 1 240.6027 151.7586 -6.1184 0.0000 0.0000 0.0000
# 2 151.7586 262.8462 6.6269 0.0000 0.0000 0.0000
# 3 -6.1184 6.6269 35.3717 0.0000 0.0000 0.0000
# 4 0.0000 0.0000 0.0000 78.3957 0.0000 0.0000
# 5 0.0000 0.0000 0.0000 0.0000 14.4195 0.0000
# 6 0.0000 0.0000 0.0000 0.0000 0.0000 49.4286
#
#
#
# Elastic Compliance Matrix: (Units=1/GPa)
#
#
# Indices 1 2 3 4 5 6 
#
# 1 0.006659 -0.003892 0.001881 0.000000 0.000000 0.000000
# 2 -0.003892 0.006097 -0.001816 0.000000 0.000000 0.000000
# 3 0.001881 -0.001816 0.028937 0.000000 0.000000 0.000000
# 4 0.000000 0.000000 0.000000 0.012756 0.000000 0.000000
# 5 0.000000 0.000000 0.000000 0.000000 0.069351 0.000000
# 6 0.000000 0.000000 0.000000 0.000000 0.000000 0.020231
#
#
# Mechanical properties :
#
#
# Convention : Reuss Voigt Hill
#
# Bulk Modulus (GPa) = 29.37738 93.70608 61.54173
# Shear Modulus (GPa) = 30.66905 54.21900 42.44402
#
# Velocity S-wave (km/s) = 3.80847 5.06379 4.48031
# Velocity P-wave (km/s) = 5.76479 8.86037 7.47459
#
# Compressibility (1/GPa) = 0.03403980
#
# Stress axis : x y z
#
# Youngs Moduli (GPa) = 150.17319 164.00305 34.55818
#
# Poissons Ratio (x) = 0.63832 -0.06500
# Poissons Ratio (y) = 0.58449 0.06274
# Poissons Ratio (z) = -0.28248 0.29776
#
# Static dielectric constant tensor:
#      x y z
#    x 1.693370 0.000000 0.000000 
#    y 0.000000 1.748820 0.000000 
#    z 0.000000 0.000000 1.775750 
# 
# From -- ./inp_files/7376.got.cif
#   From: 2010.05.17/outbox.cif.g08.bks.cpg/sg65_4_cif.got.tgz:7376.got - 2010.06.03 17:01:31.
