data_PCOD9490811
_publ_section_title
;
Structure prediction by ZEFSAII (Michael W. Deem and Ramdas Pophale) SiO2 
 PCOD9490811
Probable space group: C M M M
;
_chemical_formula_sum "Si O2"
_cell_formula_units_Z 42
_cell_length_a 7.209437
_cell_length_b 24.494002
_cell_length_c 10.910181
_cell_angle_alpha 90.000000
_cell_angle_beta 90.000000
_cell_angle_gamma 90.000000
_cell_volume 1926.606653
_symmetry_space_group_name_H-M "C M M M"
_symmetry_group_IT_number 65
_symmetry_cell_setting 'orthorhombic'
loop_
_space_group_symop_operation_xyz
x,y,z
-x,-y,z
x,-y,-z
-x,y,-z
-x,-y,-z
x,y,-z
-x,y,z
x,-y,z
1/2+x,1/2+y,z
1/2-x,1/2-y,z
1/2+x,1/2-y,-z
1/2-x,1/2+y,-z
1/2-x,1/2-y,-z
1/2+x,1/2+y,-z
1/2-x,1/2+y,z
1/2+x,1/2-y,z
loop_
_atom_site_type_symbol
_atom_site_label
_atom_site_fract_x
_atom_site_fract_y
_atom_site_fract_z
Si Si1 0.000000 0.500000 0.500000
Si Si2 0.724083 0.396453 0.500000
Si Si3 0.775488 0.118134 0.766629
Si Si4 0.724799 0.500000 0.857487
Si Si5 0.720463 0.314347 0.000000
O O1 0.837779 0.452277 0.500000
O O2 0.500000 0.406514 0.500000
O O3 0.771661 0.366694 0.627632
O O4 0.714355 0.055793 0.793427
O O5 0.000000 0.117683 0.772743
O O6 0.709296 0.156624 0.876431
O O7 0.500000 0.500000 0.855455
O O8 0.779682 0.500000 0.000000
O O9 0.750000 0.250000 0.000000
O O10 0.500000 0.323541 0.000000
#
# Coordination Sequence:
#
# PCOD9490811 Si02
#       5
#     2   8  16   8   8
#     4  12  22  36  56  92 132 164 194 230 292 352
#     4  10  21  37  58  85 119 163 199 236 287 353
#     4   9  17  32  56  82 113 149 196 234 287 356
#     4   9  13  21  44  78 105 135 176 227 270 332
#     4  10  20  37  59  84 110 149 195 253 303 349
#
# _framework density 21.799987999999999
#
# number of rings (size 3 to 8) (size 9 to 14) (size 15 to 20)
#    0.000    2.476    1.905    1.429    0.000    3.048 
#    3.429    0.952    0.000    1.143    0.000    0.000 
#    0.000    0.000    0.000    0.000    0.000    0.000 
#
# Total GULP energy -117012.956306 kJ/mol
# GULP energy per Si atom -5572.045538 kJ/mol
# Density = 2.175037 g / cm^3
# Si number density = 21.799988 Si / 1000 Ang^3
#
#
#
# Elastic Constant Matrix: (Units=GPa)
#
#
# Indices 1 2 3 4 5 6 
#
# 1 118.4715 -3.2719 13.5159 0.0000 0.0000 0.0000
# 2 -3.2719 122.1813 99.5850 0.0000 0.0000 0.0000
# 3 13.5159 99.5850 260.6322 0.0000 0.0000 0.0000
# 4 0.0000 0.0000 0.0000 -2.8487 0.0000 0.0000
# 5 0.0000 0.0000 0.0000 0.0000 -20.9043 0.0000
# 6 0.0000 0.0000 0.0000 0.0000 0.0000 -9.2246
#
#
#
# Elastic Compliance Matrix: (Units=1/GPa)
#
#
# Indices 1 2 3 4 5 6 
#
# 1 0.008553 0.000858 -0.000771 0.000000 0.000000 0.000000
# 2 0.000858 0.011972 -0.004619 0.000000 0.000000 0.000000
# 3 -0.000771 -0.004619 0.005642 0.000000 0.000000 0.000000
# 4 0.000000 0.000000 0.000000 -0.351040 0.000000 0.000000
# 5 0.000000 0.000000 0.000000 0.000000 -0.047837 0.000000
# 6 0.000000 0.000000 0.000000 0.000000 0.000000 -0.108406
#
#
# Mechanical properties :
#
#
# Convention : Reuss Voigt Hill
#
# Bulk Modulus (GPa) = 58.47498 80.10480 69.28989
# Shear Modulus (GPa) = -10.72155 19.50154 4.39000
#
# Velocity S-wave (km/s) = -2.22009 2.99418 1.42061
# Velocity P-wave (km/s) = 4.50665 6.98417 5.87743
#
# Compressibility (1/GPa) = 0.01710133
#
# Stress axis : x y z
#
# Youngs Moduli (GPa) = 116.92462 83.52654 177.25236
#
# Poissons Ratio (x) = -0.07163 0.13670
# Poissons Ratio (y) = -0.10027 0.81872
# Poissons Ratio (z) = 0.09017 0.38581
#
# Static dielectric constant tensor:
#      x y z
#    x 1.869890 0.000000 0.000000 
#    y 0.000000 1.718180 0.000000 
#    z 0.000000 0.000000 1.846300 
# 
# From -- ./inp_files/19943.got.cif
#   From: 2010.05.17/outbox.cif.g08.bks.cpg/sg65_10_cif.got.tgz:19943.got - 2010.06.03 17:01:31.
