data_PCOD9490045
_publ_section_title
;
Structure prediction by ZEFSAII (Michael W. Deem and Ramdas Pophale) SiO2 
 PCOD9490045
Probable space group: C M M M
;
_chemical_formula_sum "Si O2"
_cell_formula_units_Z 88
_cell_length_a 13.637712
_cell_length_b 24.291775
_cell_length_c 14.295533
_cell_angle_alpha 90.000000
_cell_angle_beta 90.000000
_cell_angle_gamma 90.000000
_cell_volume 4735.884663
_symmetry_space_group_name_H-M "C M M M"
_symmetry_group_IT_number 65
_symmetry_cell_setting 'orthorhombic'
loop_
_space_group_symop_operation_xyz
x,y,z
-x,-y,z
x,-y,-z
-x,y,-z
-x,-y,-z
x,y,-z
-x,y,z
x,-y,z
1/2+x,1/2+y,z
1/2-x,1/2-y,z
1/2+x,1/2-y,-z
1/2-x,1/2+y,-z
1/2-x,1/2-y,-z
1/2+x,1/2+y,-z
1/2-x,1/2+y,z
1/2+x,1/2-y,z
loop_
_atom_site_type_symbol
_atom_site_label
_atom_site_fract_x
_atom_site_fract_y
_atom_site_fract_z
Si Si1 0.884321 0.865957 0.274542
Si Si2 0.117386 0.664701 0.792494
Si Si3 0.249805 0.564079 0.828196
Si Si4 0.881338 0.221509 0.892603
Si Si5 0.891052 0.065616 0.000000
Si Si6 0.764799 0.684993 0.396655
O O1 0.819483 0.920405 0.258764
O O2 0.859312 0.822752 0.189563
O O3 0.840615 0.839422 0.367570
O O4 0.000000 0.875249 0.273930
O O5 0.161271 0.607301 0.830188
O O6 0.148285 0.717640 0.855461
O O7 0.161099 0.671545 0.688018
O O8 0.000000 0.663724 0.790462
O O9 0.221769 0.500000 0.831328
O O10 0.324700 0.577273 0.911808
O O11 0.000000 0.222164 0.896586
O O12 0.847791 0.210296 0.000000
O O13 0.000000 0.091396 0.000000
O O14 0.904181 0.000000 0.000000
O O15 0.796287 0.666448 0.500000
O O16 0.750000 0.750000 0.397909
#
# Coordination Sequence:
#
# PCOD9490045 Si02
#       6
#    16  16  16  16   8  16
#     4  10  20  35  56  82 113 146 184 227 278 339
#     4  10  21  38  58  81 113 150 191 234 277 333
#     4  10  22  36  53  80 111 149 194 235 274 321
#     4   9  18  32  52  80 112 147 184 220 269 329
#     4   9  18  34  53  76 109 147 191 235 274 321
#     4  10  20  35  55  83 116 144 176 226 287 344
#
# _framework density 18.581534000000001
#
# number of rings (size 3 to 8) (size 9 to 14) (size 15 to 20)
#    0.000    2.273    1.818    0.545    2.545    2.182 
#    0.000    5.455    0.000   10.364    0.000   10.182 
#    0.000    0.000    0.000    0.000    0.000    0.000 
#
# Total GULP energy -245301.575692 kJ/mol
# GULP energy per Si atom -5575.035811 kJ/mol
# Density = 1.853924 g / cm^3
# Si number density = 18.581534 Si / 1000 Ang^3
#
#
#
# Elastic Constant Matrix: (Units=GPa)
#
#
# Indices 1 2 3 4 5 6 
#
# 1 80.2922 20.5933 12.1403 0.0000 0.0000 0.0000
# 2 20.5933 100.0515 24.7543 0.0000 0.0000 0.0000
# 3 12.1403 24.7543 92.3954 0.0000 0.0000 0.0000
# 4 0.0000 0.0000 0.0000 14.0315 0.0000 0.0000
# 5 0.0000 0.0000 0.0000 0.0000 21.7905 0.0000
# 6 0.0000 0.0000 0.0000 0.0000 0.0000 25.6708
#
#
#
# Elastic Compliance Matrix: (Units=1/GPa)
#
#
# Indices 1 2 3 4 5 6 
#
# 1 0.013249 -0.002459 -0.001082 0.000000 0.000000 0.000000
# 2 -0.002459 0.011161 -0.002667 0.000000 0.000000 0.000000
# 3 -0.001082 -0.002667 0.011680 0.000000 0.000000 0.000000
# 4 0.000000 0.000000 0.000000 0.071268 0.000000 0.000000
# 5 0.000000 0.000000 0.000000 0.000000 0.045892 0.000000
# 6 0.000000 0.000000 0.000000 0.000000 0.000000 0.038955
#
#
# Mechanical properties :
#
#
# Convention : Reuss Voigt Hill
#
# Bulk Modulus (GPa) = 42.24231 43.07943 42.66087
# Shear Modulus (GPa) = 23.52815 26.64866 25.08840
#
# Velocity S-wave (km/s) = 3.56225 3.79112 3.67847
# Velocity P-wave (km/s) = 6.30098 6.51136 6.40703
#
# Compressibility (1/GPa) = 0.02367295
#
# Stress axis : x y z
#
# Youngs Moduli (GPa) = 75.47824 89.59847 85.61820
#
# Poissons Ratio (x) = 0.22035 0.09263
# Poissons Ratio (y) = 0.18562 0.22835
# Poissons Ratio (z) = 0.08166 0.23896
#
# Static dielectric constant tensor:
#      x y z
#    x 1.661210 0.000000 0.000000 
#    y 0.000000 1.667310 0.000000 
#    z 0.000000 0.000000 1.621560 
# 
# From -- ./inp_files/40606.got.cif
#   From: 2010.05.17/outbox.cif.g08.bks.cpg/sg65_21_cif.got.tgz:40606.got - 2010.06.03 17:01:31.
