data_PCOD9490376
_publ_section_title
;
Structure prediction by ZEFSAII (Michael W. Deem and Ramdas Pophale) SiO2 
 PCOD9490376
Probable space group: C M M M
;
_chemical_formula_sum "Si O2"
_cell_formula_units_Z 80
_cell_length_a 29.826871
_cell_length_b 7.860325
_cell_length_c 16.229516
_cell_angle_alpha 90.000000
_cell_angle_beta 90.000000
_cell_angle_gamma 90.000000
_cell_volume 3804.992170
_symmetry_space_group_name_H-M "C M M M"
_symmetry_group_IT_number 65
_symmetry_cell_setting 'orthorhombic'
loop_
_space_group_symop_operation_xyz
x,y,z
-x,-y,z
x,-y,-z
-x,y,-z
-x,-y,-z
x,y,-z
-x,y,z
x,-y,z
1/2+x,1/2+y,z
1/2-x,1/2-y,z
1/2+x,1/2-y,-z
1/2-x,1/2+y,-z
1/2-x,1/2-y,-z
1/2+x,1/2+y,-z
1/2-x,1/2+y,z
1/2+x,1/2-y,z
loop_
_atom_site_type_symbol
_atom_site_label
_atom_site_fract_x
_atom_site_fract_y
_atom_site_fract_z
Si Si1 0.049257 0.707236 0.658349
Si Si2 0.801889 0.797696 0.751580
Si Si3 0.950428 0.705445 0.851903
Si Si4 0.145753 0.798002 0.089316
Si Si5 0.856767 0.704563 0.590157
O O1 0.049155 0.500000 0.654527
O O2 0.053714 0.751724 0.755049
O O3 0.092964 0.768153 0.610489
O O4 0.000000 0.764195 0.629357
O O5 0.750000 0.750000 0.754753
O O6 0.828693 0.725860 0.830863
O O7 0.824682 0.744722 0.666110
O O8 0.805500 0.000000 0.754941
O O9 0.949260 0.500000 0.856757
O O10 0.907344 0.773729 0.898354
O O11 0.000000 0.760737 0.880425
O O12 0.154570 0.000000 0.087523
O O13 0.159225 0.726577 0.000000
O O14 0.841965 0.766538 0.500000
O O15 0.859348 0.500000 0.586633
#
# Coordination Sequence:
#
# PCOD9490376 Si02
#       5
#    16  16  16  16  16
#     4   8  14  27  50  81 116 150 184 224 267 314
#     4  11  24  42  63  83 108 143 182 233 289 341
#     4   9  17  31  54  83 115 152 192 231 270 318
#     4  10  22  39  58  83 114 147 185 229 281 338
#     4  10  20  35  59  89 118 149 187 229 274 328
#
# _framework density 21.025010999999999
#
# number of rings (size 3 to 8) (size 9 to 14) (size 15 to 20)
#    0.000    2.400    2.000    1.800    0.000    3.600 
#    0.000    4.000    0.000    0.600    0.000    1.400 
#    0.000    0.000    0.000    0.000    0.000    0.000 
#
# Total GULP energy -223258.840320 kJ/mol
# GULP energy per Si atom -5581.471008 kJ/mol
# Density = 2.097716 g / cm^3
# Si number density = 21.025011 Si / 1000 Ang^3
#
#
#
# Elastic Constant Matrix: (Units=GPa)
#
#
# Indices 1 2 3 4 5 6 
#
# 1 138.8301 -1.3114 96.4562 0.0000 0.0000 0.0000
# 2 -1.3114 22.6913 14.4248 0.0000 0.0000 0.0000
# 3 96.4562 14.4248 178.6483 0.0000 0.0000 0.0000
# 4 0.0000 0.0000 0.0000 13.7465 0.0000 0.0000
# 5 0.0000 0.0000 0.0000 0.0000 -5.7007 0.0000
# 6 0.0000 0.0000 0.0000 0.0000 0.0000 14.1143
#
#
#
# Elastic Compliance Matrix: (Units=1/GPa)
#
#
# Indices 1 2 3 4 5 6 
#
# 1 0.012062 0.005099 -0.006924 0.000000 0.000000 0.000000
# 2 0.005099 0.048610 -0.006678 0.000000 0.000000 0.000000
# 3 -0.006924 -0.006678 0.009875 0.000000 0.000000 0.000000
# 4 0.000000 0.000000 0.000000 0.072746 0.000000 0.000000
# 5 0.000000 0.000000 0.000000 0.000000 -0.175417 0.000000
# 6 0.000000 0.000000 0.000000 0.000000 0.000000 0.070850
#
#
# Mechanical properties :
#
#
# Convention : Reuss Voigt Hill
#
# Bulk Modulus (GPa) = 18.67751 62.14544 40.41147
# Shear Modulus (GPa) = 67.95366 19.80536 43.87951
#
# Velocity S-wave (km/s) = 5.69127 3.07252 4.57334
# Velocity P-wave (km/s) = 7.21735 6.49686 6.86656
#
# Compressibility (1/GPa) = 0.05354034
#
# Stress axis : x y z
#
# Youngs Moduli (GPa) = 82.90469 20.57205 101.26216
#
# Poissons Ratio (x) = -0.10489 0.70117
# Poissons Ratio (y) = -0.42272 0.67622
# Poissons Ratio (z) = 0.57405 0.13738
#
# Static dielectric constant tensor:
#      x y z
#    x 1.690470 0.000000 0.000000 
#    y 0.000000 1.772520 0.000000 
#    z 0.000000 0.000000 1.789710 
# 
# From -- ./inp_files/57237.got.cif
#   From: 2010.05.17/outbox.cif.g08.bks.cpg/sg65_29_cif.got.tgz:57237.got - 2010.06.03 17:01:31.
