data_PCOD9490303
_publ_section_title
;
Structure prediction by ZEFSAII (Michael W. Deem and Ramdas Pophale) SiO2 
 PCOD9490303
Probable space group: C M M M
;
_chemical_formula_sum "Si O2"
_cell_formula_units_Z 52
_cell_length_a 14.880355
_cell_length_b 8.446359
_cell_length_c 17.936847
_cell_angle_alpha 90.000000
_cell_angle_beta 90.000000
_cell_angle_gamma 90.000000
_cell_volume 2254.389393
_symmetry_space_group_name_H-M "C M M M"
_symmetry_group_IT_number 65
_symmetry_cell_setting 'orthorhombic'
loop_
_space_group_symop_operation_xyz
x,y,z
-x,-y,z
x,-y,-z
-x,y,-z
-x,-y,-z
x,y,-z
-x,y,z
x,-y,z
1/2+x,1/2+y,z
1/2-x,1/2-y,z
1/2+x,1/2-y,-z
1/2-x,1/2+y,-z
1/2-x,1/2-y,-z
1/2+x,1/2+y,-z
1/2-x,1/2+y,z
1/2+x,1/2-y,z
loop_
_atom_site_type_symbol
_atom_site_label
_atom_site_fract_x
_atom_site_fract_y
_atom_site_fract_z
Si Si1 0.890529 0.685465 0.081470
Si Si2 0.652974 0.815629 0.608810
Si Si3 0.891156 0.178169 0.762239
Si Si4 0.500000 0.290716 0.500000
O O1 0.866990 0.500000 0.087298
O O2 0.859937 0.776113 0.154978
O O3 0.000000 0.692929 0.081573
O O4 0.861147 0.746088 0.000000
O O5 0.750000 0.750000 0.588744
O O6 0.640751 0.793308 0.697311
O O7 0.577823 0.718993 0.564814
O O8 0.641429 0.000000 0.589179
O O9 0.000000 0.182605 0.762759
O O10 0.862200 0.000000 0.743321
#
# Coordination Sequence:
#
# PCOD9490303 Si02
#       4
#    16  16  16   4
#     4   8  14  26  48  81 120 165 216 265 315 373
#     4  12  25  45  69  98 131 169 214 263 321 386
#     4  10  20  35  57  89 127 170 217 265 320 377
#     4  12  27  48  75 100 129 168 211 260 323 394
#
# _framework density 23.066113000000001
#
# number of rings (size 3 to 8) (size 9 to 14) (size 15 to 20)
#    0.000    1.846    1.538    4.615    0.000    1.846 
#    0.000    8.462    0.000    0.923    0.000    0.000 
#    0.000    0.000    0.000    0.000    0.000    0.000 
#
# Total GULP energy -144925.457682 kJ/mol
# GULP energy per Si atom -5574.056065 kJ/mol
# Density = 2.301361 g / cm^3
# Si number density = 23.066113 Si / 1000 Ang^3
#
#
#
# Elastic Constant Matrix: (Units=GPa)
#
#
# Indices 1 2 3 4 5 6 
#
# 1 115.1053 2.6933 19.9025 0.0000 0.0000 0.0000
# 2 2.6933 45.8918 18.5804 0.0000 0.0000 0.0000
# 3 19.9025 18.5804 165.7683 0.0000 0.0000 0.0000
# 4 0.0000 0.0000 0.0000 -11.9911 0.0000 0.0000
# 5 0.0000 0.0000 0.0000 0.0000 291.7527 0.0000
# 6 0.0000 0.0000 0.0000 0.0000 0.0000 3.0264
#
#
#
# Elastic Compliance Matrix: (Units=1/GPa)
#
#
# Indices 1 2 3 4 5 6 
#
# 1 0.008872 -0.000094 -0.001055 0.000000 0.000000 0.000000
# 2 -0.000094 0.022827 -0.002547 0.000000 0.000000 0.000000
# 3 -0.001055 -0.002547 0.006445 0.000000 0.000000 0.000000
# 4 0.000000 0.000000 0.000000 -0.083395 0.000000 0.000000
# 5 0.000000 0.000000 0.000000 0.000000 0.003428 0.000000
# 6 0.000000 0.000000 0.000000 0.000000 0.000000 0.330428
#
#
# Mechanical properties :
#
#
# Convention : Reuss Voigt Hill
#
# Bulk Modulus (GPa) = 32.51754 45.45752 38.98753
# Shear Modulus (GPa) = 16.32670 75.59687 45.96179
#
# Velocity S-wave (km/s) = 2.66338 5.73107 4.46871
# Velocity P-wave (km/s) = 4.85657 7.97144 6.60038
#
# Compressibility (1/GPa) = 0.03075263
#
# Stress axis : x y z
#
# Youngs Moduli (GPa) = 112.71087 43.80731 155.16684
#
# Poissons Ratio (x) = 0.00410 0.16366
# Poissons Ratio (y) = 0.01056 0.39527
# Poissons Ratio (z) = 0.11888 0.11159
#
# Static dielectric constant tensor:
#      x y z
#    x 1.817080 0.000000 0.000000 
#    y 0.000000 1.859190 0.000000 
#    z 0.000000 0.000000 1.855030 
# 
# From -- ./inp_files/53787.got.cif
#   From: 2010.05.17/outbox.cif.g08.bks.cpg/sg65_27_cif.got.tgz:53787.got - 2010.06.03 17:01:31.
