data_PCOD9490530
_publ_section_title
;
Structure prediction by ZEFSAII (Michael W. Deem and Ramdas Pophale) SiO2 
 PCOD9490530
Probable space group: C M M M
;
_chemical_formula_sum "Si O2"
_cell_formula_units_Z 72
_cell_length_a 27.619276
_cell_length_b 8.625007
_cell_length_c 16.307786
_cell_angle_alpha 90.000000
_cell_angle_beta 90.000000
_cell_angle_gamma 90.000000
_cell_volume 3884.782869
_symmetry_space_group_name_H-M "C M M M"
_symmetry_group_IT_number 65
_symmetry_cell_setting 'orthorhombic'
loop_
_space_group_symop_operation_xyz
x,y,z
-x,-y,z
x,-y,-z
-x,y,-z
-x,-y,-z
x,y,-z
-x,y,z
x,-y,z
1/2+x,1/2+y,z
1/2-x,1/2-y,z
1/2+x,1/2-y,-z
1/2-x,1/2+y,-z
1/2-x,1/2-y,-z
1/2+x,1/2+y,-z
1/2-x,1/2+y,z
1/2+x,1/2-y,z
loop_
_atom_site_type_symbol
_atom_site_label
_atom_site_fract_x
_atom_site_fract_y
_atom_site_fract_z
Si Si1 0.898820 0.685931 0.833740
Si Si2 0.446470 0.811884 0.662917
Si Si3 0.655784 0.187713 0.592011
Si Si4 0.698074 0.315630 0.242576
Si Si5 0.443851 0.314251 0.000000
O O1 0.897790 0.500000 0.836783
O O2 0.932986 0.730925 0.756522
O O3 0.845627 0.747347 0.811295
O O4 0.918447 0.751725 0.918366
O O5 0.500000 0.754972 0.640003
O O6 0.400370 0.766021 0.608320
O O7 0.447818 0.000000 0.659477
O O8 0.670382 0.230294 0.500000
O O9 0.686892 0.261961 0.664226
O O10 0.658454 0.000000 0.599971
O O11 0.697828 0.500000 0.238067
O O12 0.750000 0.250000 0.217437
O O13 0.441985 0.500000 0.000000
O O14 0.500000 0.264665 0.000000
#
# Coordination Sequence:
#
# PCOD9490530 Si02
#       5
#    16  16  16  16   8
#     4  10  20  36  57  82 111 144 185 227 269 321
#     4   8  14  26  47  75 105 138 177 220 264 311
#     4   9  18  32  50  76 109 142 181 228 273 322
#     4  11  22  38  59  80 105 139 179 225 280 335
#     4  11  23  37  56  87 124 155 183 219 265 313
#
# _framework density 18.533854000000002
#
# number of rings (size 3 to 8) (size 9 to 14) (size 15 to 20)
#    0.000    2.333    0.000    5.000    0.000    3.111 
#    0.000    2.778    0.000    6.000    0.000    6.222 
#    0.000    0.000    0.000    0.000    0.000    0.000 
#
# Total GULP energy -200945.941518 kJ/mol
# GULP energy per Si atom -5581.831709 kJ/mol
# Density = 1.849167 g / cm^3
# Si number density = 18.533854 Si / 1000 Ang^3
#
#
#
# Elastic Constant Matrix: (Units=GPa)
#
#
# Indices 1 2 3 4 5 6 
#
# 1 99.8529 24.4731 20.7444 0.0000 0.0000 0.0000
# 2 24.4731 55.5359 30.8554 0.0000 0.0000 0.0000
# 3 20.7444 30.8554 93.7507 0.0000 0.0000 0.0000
# 4 0.0000 0.0000 0.0000 24.2322 0.0000 0.0000
# 5 0.0000 0.0000 0.0000 0.0000 5.4937 0.0000
# 6 0.0000 0.0000 0.0000 0.0000 0.0000 20.4695
#
#
#
# Elastic Compliance Matrix: (Units=1/GPa)
#
#
# Indices 1 2 3 4 5 6 
#
# 1 0.011312 -0.004399 -0.001055 0.000000 0.000000 0.000000
# 2 -0.004399 0.023746 -0.006842 0.000000 0.000000 0.000000
# 3 -0.001055 -0.006842 0.013152 0.000000 0.000000 0.000000
# 4 0.000000 0.000000 0.000000 0.041267 0.000000 0.000000
# 5 0.000000 0.000000 0.000000 0.000000 0.182027 0.000000
# 6 0.000000 0.000000 0.000000 0.000000 0.000000 0.048853
#
#
# Mechanical properties :
#
#
# Convention : Reuss Voigt Hill
#
# Bulk Modulus (GPa) = 42.34036 44.58724 43.46380
# Shear Modulus (GPa) = 14.17144 21.57685 17.87414
#
# Velocity S-wave (km/s) = 2.76818 3.41572 3.10886
# Velocity P-wave (km/s) = 5.75427 6.29806 6.03230
#
# Compressibility (1/GPa) = 0.02361812
#
# Stress axis : x y z
#
# Youngs Moduli (GPa) = 88.40144 42.11221 76.03412
#
# Poissons Ratio (x) = 0.18523 0.08024
# Poissons Ratio (y) = 0.38884 0.52023
# Poissons Ratio (z) = 0.09330 0.28814
#
# Static dielectric constant tensor:
#      x y z
#    x 1.640010 0.000000 0.000000 
#    y 0.000000 1.626130 0.000000 
#    z 0.000000 0.000000 1.616720 
# 
# From -- ./inp_files/36561.got.cif
#   From: 2010.05.17/outbox.cif.g08.bks.cpg/sg65_19_cif.got.tgz:36561.got - 2010.06.03 17:01:31.
