data_PCOD9490127
_publ_section_title
;
Structure prediction by ZEFSAII (Michael W. Deem and Ramdas Pophale) SiO2 
 PCOD9490127
Probable space group: C M M M
;
_chemical_formula_sum "Si O2"
_cell_formula_units_Z 88
_cell_length_a 17.445433
_cell_length_b 9.146314
_cell_length_c 29.924293
_cell_angle_alpha 90.000000
_cell_angle_beta 90.000000
_cell_angle_gamma 90.000000
_cell_volume 4774.762327
_symmetry_space_group_name_H-M "C M M M"
_symmetry_group_IT_number 65
_symmetry_cell_setting 'orthorhombic'
loop_
_space_group_symop_operation_xyz
x,y,z
-x,-y,z
x,-y,-z
-x,y,-z
-x,-y,-z
x,y,-z
-x,y,z
x,-y,z
1/2+x,1/2+y,z
1/2-x,1/2-y,z
1/2+x,1/2-y,-z
1/2-x,1/2+y,-z
1/2-x,1/2-y,-z
1/2+x,1/2+y,-z
1/2-x,1/2+y,z
1/2+x,1/2-y,z
loop_
_atom_site_type_symbol
_atom_site_label
_atom_site_fract_x
_atom_site_fract_y
_atom_site_fract_z
Si Si1 0.168091 0.176126 0.827571
Si Si2 0.093698 0.830722 0.000000
Si Si3 0.911566 0.822104 0.264764
Si Si4 0.906899 0.328190 0.548700
Si Si5 0.406364 0.330149 0.637795
Si Si6 0.907828 0.332373 0.090001
O O1 0.250000 0.250000 0.833286
O O2 0.135426 0.219294 0.778873
O O3 0.116022 0.239384 0.867072
O O4 0.171462 0.000000 0.829855
O O5 0.119052 0.746501 0.955392
O O6 0.000000 0.829990 0.000000
O O7 0.117781 0.000000 0.000000
O O8 0.882011 0.771772 0.313422
O O9 0.000000 0.775264 0.259403
O O10 0.912142 0.000000 0.266870
O O11 0.880881 0.270767 0.500000
O O12 0.889555 0.500000 0.550654
O O13 0.878701 0.251427 0.593573
O O14 0.000000 0.314870 0.548956
O O15 0.500000 0.323451 0.638665
O O16 0.385368 0.500000 0.634208
O O17 0.879805 0.500000 0.092856
O O18 0.000000 0.337176 0.088059
#
# Coordination Sequence:
#
# PCOD9490127 Si02
#       6
#    16   8  16  16  16  16
#     4  11  22  36  53  73 101 135 170 207 250 299
#     4   9  17  31  54  83 110 137 170 203 239 287
#     4   8  15  29  49  70  91 120 159 201 244 290
#     4   8  13  20  29  45  75 113 145 173 215 273
#     4   8  13  22  37  57  79 105 144 190 229 270
#     4  10  20  35  56  82 110 137 168 207 247 287
#
# _framework density 18.430236000000001
#
# number of rings (size 3 to 8) (size 9 to 14) (size 15 to 20)
#    0.000    3.000    0.000    3.545    0.000    3.273 
#    0.000    4.091    0.000    4.364    0.000    0.000 
#    0.000    0.727    0.000    1.636    0.000    4.364 
#
# Total GULP energy -245093.945777 kJ/mol
# GULP energy per Si atom -5570.316949 kJ/mol
# Density = 1.838829 g / cm^3
# Si number density = 18.430236 Si / 1000 Ang^3
#
#
#
# Elastic Constant Matrix: (Units=GPa)
#
#
# Indices 1 2 3 4 5 6 
#
# 1 6.9392 10.5201 12.5430 0.0000 0.0000 0.0000
# 2 10.5201 76.2379 66.1362 0.0000 0.0000 0.0000
# 3 12.5430 66.1362 185.5323 0.0000 0.0000 0.0000
# 4 0.0000 0.0000 0.0000 -7.5697 0.0000 0.0000
# 5 0.0000 0.0000 0.0000 0.0000 -10.5649 0.0000
# 6 0.0000 0.0000 0.0000 0.0000 0.0000 11.7910
#
#
#
# Elastic Compliance Matrix: (Units=1/GPa)
#
#
# Indices 1 2 3 4 5 6 
#
# 1 0.185309 -0.021285 -0.004940 0.000000 0.000000 0.000000
# 2 -0.021285 0.021434 -0.006201 0.000000 0.000000 0.000000
# 3 -0.004940 -0.006201 0.007935 0.000000 0.000000 0.000000
# 4 0.000000 0.000000 0.000000 -0.132105 0.000000 0.000000
# 5 0.000000 0.000000 0.000000 0.000000 -0.094653 0.000000
# 6 0.000000 0.000000 0.000000 0.000000 0.000000 0.084810
#
#
# Mechanical properties :
#
#
# Convention : Reuss Voigt Hill
#
# Bulk Modulus (GPa) = 6.67453 49.67867 28.17660
# Shear Modulus (GPa) = 26.66323 10.69862 18.68092
#
# Velocity S-wave (km/s) = 3.80769 2.41196 3.18717
# Velocity P-wave (km/s) = 4.79174 5.89663 5.37266
#
# Compressibility (1/GPa) = 0.14982337
#
# Stress axis : x y z
#
# Youngs Moduli (GPa) = 5.39639 46.65550 126.03177
#
# Poissons Ratio (x) = 0.99307 0.62265
# Poissons Ratio (y) = 0.11486 0.78158
# Poissons Ratio (z) = 0.02666 0.28933
#
# Static dielectric constant tensor:
#      x y z
#    x 1.628330 0.000000 0.000000 
#    y 0.000000 1.621990 0.000000 
#    z 0.000000 0.000000 1.658430 
# 
# From -- ./inp_files/77879.got.cif
#   From: 2010.05.17/outbox.cif.g08.bks.cpg/sg65_39_cif.got.tgz:77879.got - 2010.06.03 17:01:31.
