data_PCOD9490678
_publ_section_title
;
Structure prediction by ZEFSAII (Michael W. Deem and Ramdas Pophale) SiO2 
 PCOD9490678
Probable space group: C M M M
;
_chemical_formula_sum "Si O2"
_cell_formula_units_Z 90
_cell_length_a 24.507199
_cell_length_b 8.028259
_cell_length_c 23.088870
_cell_angle_alpha 90.000000
_cell_angle_beta 90.000000
_cell_angle_gamma 90.000000
_cell_volume 4542.738427
_symmetry_space_group_name_H-M "C M M M"
_symmetry_group_IT_number 65
_symmetry_cell_setting 'orthorhombic'
loop_
_space_group_symop_operation_xyz
x,y,z
-x,-y,z
x,-y,-z
-x,y,-z
-x,-y,-z
x,y,-z
-x,y,z
x,-y,z
1/2+x,1/2+y,z
1/2-x,1/2-y,z
1/2+x,1/2-y,-z
1/2-x,1/2+y,-z
1/2-x,1/2-y,-z
1/2+x,1/2+y,-z
1/2-x,1/2+y,z
1/2+x,1/2-y,z
loop_
_atom_site_type_symbol
_atom_site_label
_atom_site_fract_x
_atom_site_fract_y
_atom_site_fract_z
Si Si1 0.312647 0.800209 0.720637
Si Si2 0.500000 0.747418 0.610226
Si Si3 0.893537 0.699503 0.815677
Si Si4 0.062346 0.799932 0.064406
Si Si5 0.000000 0.295667 0.259131
Si Si6 0.882585 0.804664 0.389410
Si Si7 0.186689 0.699085 0.500000
Si Si8 0.500000 0.500000 0.500000
O O1 0.250000 0.750000 0.715798
O O2 0.340496 0.742693 0.780586
O O3 0.348381 0.728921 0.668197
O O4 0.316301 0.000000 0.717183
O O5 0.500000 0.703550 0.679200
O O6 0.436956 0.808528 0.607806
O O7 0.500000 0.640870 0.551475
O O8 0.893197 0.500000 0.815629
O O9 0.900532 0.753352 0.881633
O O10 0.946771 0.748852 0.778216
O O11 0.000000 0.739607 0.075092
O O12 0.060143 0.000000 0.062516
O O13 0.078905 0.741527 0.000000
O O14 0.000000 0.500000 0.269315
O O15 0.844110 0.769500 0.443927
O O16 0.899489 0.000000 0.390704
O O17 0.183183 0.500000 0.500000
O O18 0.250000 0.750000 0.500000
#
# Coordination Sequence:
#
# PCOD9490678 Si02
#       8
#    16   8  16  16   8  16   8   2
#     4  11  24  42  62  88 120 157 203 256 310 369
#     4  12  24  42  67  88 127 161 195 244 301 365
#     4  10  20  36  59  87 123 159 200 250 304 366
#     4   9  18  32  51  83 127 168 205 246 297 361
#     4  10  20  38  60  91 124 155 194 251 313 371
#     4  12  24  42  66  92 121 156 194 244 301 365
#     4  12  27  47  67  88 114 154 201 249 302 359
#     4  12  24  44  54  88 128 156 198 238 280 350
#
# _framework density 19.811837000000001
#
# number of rings (size 3 to 8) (size 9 to 14) (size 15 to 20)
#    0.000    1.244    3.556    3.467    0.000    2.489 
#    1.600    1.556    0.000    0.533    0.000    0.000 
#    0.000    0.000    0.000    0.000    0.000    0.000 
#
# Total GULP energy -250775.488007 kJ/mol
# GULP energy per Si atom -5572.788622 kJ/mol
# Density = 1.976674 g / cm^3
# Si number density = 19.811837 Si / 1000 Ang^3
#
#
#
# Elastic Constant Matrix: (Units=GPa)
#
#
# Indices 1 2 3 4 5 6 
#
# 1 152.8477 18.1207 69.5288 0.0000 0.0000 0.0000
# 2 18.1207 58.4492 24.0331 0.0000 0.0000 0.0000
# 3 69.5288 24.0331 189.8205 0.0000 0.0000 0.0000
# 4 0.0000 0.0000 0.0000 30.5229 0.0000 0.0000
# 5 0.0000 0.0000 0.0000 0.0000 43.3564 0.0000
# 6 0.0000 0.0000 0.0000 0.0000 0.0000 -7.3928
#
#
#
# Elastic Compliance Matrix: (Units=1/GPa)
#
#
# Indices 1 2 3 4 5 6 
#
# 1 0.007948 -0.001337 -0.002742 0.000000 0.000000 0.000000
# 2 -0.001337 0.018273 -0.001824 0.000000 0.000000 0.000000
# 3 -0.002742 -0.001824 0.006503 0.000000 0.000000 0.000000
# 4 0.000000 0.000000 0.000000 0.032762 0.000000 0.000000
# 5 0.000000 0.000000 0.000000 0.000000 0.023065 0.000000
# 6 0.000000 0.000000 0.000000 0.000000 0.000000 -0.135266
#
#
# Mechanical properties :
#
#
# Convention : Reuss Voigt Hill
#
# Bulk Modulus (GPa) = 47.80228 69.38695 58.59462
# Shear Modulus (GPa) = -178.98342 32.59295 -73.19523
#
# Velocity S-wave (km/s) = -9.51513 4.06041 -6.08485
# Velocity P-wave (km/s) = 9.82530 7.55524 4.44156
#
# Compressibility (1/GPa) = 0.02091950
#
# Stress axis : x y z
#
# Youngs Moduli (GPa) = 125.81328 54.72481 153.76403
#
# Poissons Ratio (x) = 0.07315 0.42164
# Poissons Ratio (y) = 0.16817 0.28046
# Poissons Ratio (z) = 0.34500 0.09982
#
# Static dielectric constant tensor:
#      x y z
#    x 1.702270 0.000000 0.000000 
#    y 0.000000 1.756130 0.000000 
#    z 0.000000 0.000000 1.679210 
# 
# From -- ./inp_files/65290.got.cif
#   From: 2010.05.17/outbox.cif.g08.bks.cpg/sg65_33_cif.got.tgz:65290.got - 2010.06.03 17:01:31.
