data_PCOD9490057
_publ_section_title
;
Structure prediction by ZEFSAII (Michael W. Deem and Ramdas Pophale) SiO2 
 PCOD9490057
Probable space group: C M M M
;
_chemical_formula_sum "Si O2"
_cell_formula_units_Z 80
_cell_length_a 25.971101
_cell_length_b 19.077251
_cell_length_c 7.526982
_cell_angle_alpha 90.000000
_cell_angle_beta 90.000000
_cell_angle_gamma 90.000000
_cell_volume 3729.297520
_symmetry_space_group_name_H-M "C M M M"
_symmetry_group_IT_number 65
_symmetry_cell_setting 'orthorhombic'
loop_
_space_group_symop_operation_xyz
x,y,z
-x,-y,z
x,-y,-z
-x,y,-z
-x,-y,-z
x,y,-z
-x,y,z
x,-y,z
1/2+x,1/2+y,z
1/2-x,1/2-y,z
1/2+x,1/2-y,-z
1/2-x,1/2+y,-z
1/2-x,1/2-y,-z
1/2+x,1/2+y,-z
1/2-x,1/2+y,z
1/2+x,1/2-y,z
loop_
_atom_site_type_symbol
_atom_site_label
_atom_site_fract_x
_atom_site_fract_y
_atom_site_fract_z
Si Si1 0.441558 0.180197 0.783597
Si Si2 0.339626 0.421098 0.707692
Si Si3 0.558346 0.659661 0.214587
Si Si4 0.849305 0.580376 0.217844
Si Si5 0.745405 0.172725 0.794855
O O1 0.500000 0.163728 0.728150
O O2 0.429697 0.260267 0.728778
O O3 0.399192 0.124621 0.725930
O O4 0.441226 0.180301 0.000000
O O5 0.326771 0.422948 0.500000
O O6 0.334686 0.500000 0.779861
O O7 0.397512 0.392846 0.726185
O O8 0.299601 0.367100 0.791795
O O9 0.500000 0.642694 0.272727
O O10 0.558298 0.659297 0.000000
O O11 0.849781 0.500000 0.277024
O O12 0.798589 0.621944 0.279472
O O13 0.849127 0.578617 0.000000
O O14 0.750000 0.250000 0.713108
O O15 0.729531 0.183972 0.000000
#
# Coordination Sequence:
#
# PCOD9490057 Si02
#       5
#    16  16  16  16  16
#     4   8  14  26  45  70 100 131 163 201 246 298
#     4  11  24  38  52  75 108 141 171 210 264 321
#     4   9  18  34  56  78 100 132 175 218 258 306
#     4   9  16  25  41  69 101 130 163 204 250 300
#     4  10  20  35  56  77  99 134 179 223 264 308
#
# _framework density 21.451761999999999
#
# number of rings (size 3 to 8) (size 9 to 14) (size 15 to 20)
#    0.000    2.600    0.000    3.600    0.000    7.200 
#    0.000    4.000    0.000    0.000    0.000    0.000 
#    0.000    0.000    0.000   14.600    0.000   14.000 
#
# Total GULP energy -223385.848767 kJ/mol
# GULP energy per Si atom -5584.646219 kJ/mol
# Density = 2.140294 g / cm^3
# Si number density = 21.451762 Si / 1000 Ang^3
#
#
#
# Elastic Constant Matrix: (Units=GPa)
#
#
# Indices 1 2 3 4 5 6 
#
# 1 103.1896 79.7293 -10.2160 0.0000 0.0000 0.0000
# 2 79.7293 164.0345 -0.7534 0.0000 0.0000 0.0000
# 3 -10.2160 -0.7534 52.9996 0.0000 0.0000 0.0000
# 4 0.0000 0.0000 0.0000 7.8473 0.0000 0.0000
# 5 0.0000 0.0000 0.0000 0.0000 -344.4065 0.0000
# 6 0.0000 0.0000 0.0000 0.0000 0.0000 -36.8168
#
#
#
# Elastic Compliance Matrix: (Units=1/GPa)
#
#
# Indices 1 2 3 4 5 6 
#
# 1 0.015973 -0.007750 0.002969 0.000000 0.000000 0.000000
# 2 -0.007750 0.009857 -0.001354 0.000000 0.000000 0.000000
# 3 0.002969 -0.001354 0.019421 0.000000 0.000000 0.000000
# 4 0.000000 0.000000 0.000000 0.127433 0.000000 0.000000
# 5 0.000000 0.000000 0.000000 0.000000 -0.002904 0.000000
# 6 0.000000 0.000000 0.000000 0.000000 0.000000 -0.027161
#
#
# Mechanical properties :
#
#
# Convention : Reuss Voigt Hill
#
# Bulk Modulus (GPa) = 30.32071 50.86039 40.59055
# Shear Modulus (GPa) = 30.14187 -57.91095 -13.88454
#
# Velocity S-wave (km/s) = 3.75253 -5.20139 -2.54686
# Velocity P-wave (km/s) = 5.73937 3.50885 3.21157
#
# Compressibility (1/GPa) = 0.03298075
#
# Stress axis : x y z
#
# Youngs Moduli (GPa) = 62.60630 101.45112 51.49054
#
# Poissons Ratio (x) = 0.78625 -0.15286
# Poissons Ratio (y) = 0.48520 0.06970
# Poissons Ratio (z) = -0.18586 0.13734
#
# Static dielectric constant tensor:
#      x y z
#    x 1.737050 0.000000 0.000000 
#    y 0.000000 1.750360 0.000000 
#    z 0.000000 0.000000 1.852670 
# 
# From -- ./inp_files/9587.got.cif
#   From: 2010.05.17/outbox.cif.g08.bks.cpg/sg65_5_cif.got.tgz:9587.got - 2010.06.03 17:01:31.
