data_PCOD9490445
_publ_section_title
;
Structure prediction by ZEFSAII (Michael W. Deem and Ramdas Pophale) SiO2 
 PCOD9490445
Probable space group: C M M M
;
_chemical_formula_sum "Si O2"
_cell_formula_units_Z 64
_cell_length_a 31.944656
_cell_length_b 9.887015
_cell_length_c 11.477369
_cell_angle_alpha 90.000000
_cell_angle_beta 90.000000
_cell_angle_gamma 90.000000
_cell_volume 3624.981156
_symmetry_space_group_name_H-M "C M M M"
_symmetry_group_IT_number 65
_symmetry_cell_setting 'orthorhombic'
loop_
_space_group_symop_operation_xyz
x,y,z
-x,-y,z
x,-y,-z
-x,y,-z
-x,-y,-z
x,y,-z
-x,y,z
x,-y,z
1/2+x,1/2+y,z
1/2-x,1/2-y,z
1/2+x,1/2-y,-z
1/2-x,1/2+y,-z
1/2-x,1/2-y,-z
1/2+x,1/2+y,-z
1/2-x,1/2+y,z
1/2+x,1/2-y,z
loop_
_atom_site_type_symbol
_atom_site_label
_atom_site_fract_x
_atom_site_fract_y
_atom_site_fract_z
Si Si1 0.576200 0.653731 0.861002
Si Si2 0.500000 0.844720 0.858275
Si Si3 0.792163 0.336925 0.000000
Si Si4 0.816011 0.500000 0.362583
Si Si5 0.835595 0.764481 0.236020
Si Si6 0.282535 0.500000 0.357966
O O1 0.560694 0.500000 0.846111
O O2 0.541324 0.761642 0.823903
O O3 0.619490 0.672587 0.793058
O O4 0.584180 0.672312 0.000000
O O5 0.500000 0.000000 0.818746
O O6 0.500000 0.845692 0.000000
O O7 0.750000 0.250000 0.000000
O O8 0.816687 0.289787 0.885203
O O9 0.785953 0.500000 0.000000
O O10 0.815683 0.500000 0.500000
O O11 0.838173 0.633010 0.315805
O O12 0.766744 0.500000 0.326242
O O13 0.805087 0.870820 0.299970
O O14 0.286373 0.500000 0.500000
#
# Coordination Sequence:
#
# PCOD9490445 Si02
#       6
#    16   8   8   8  16   8
#     4  10  20  36  55  85 122 157 190 231 290 364
#     4   9  19  33  57  85 118 155 190 231 284 350
#     4  12  26  38  56  85 122 161 198 244 309 374
#     4  11  24  41  59  82 115 161 212 261 298 334
#     4  12  23  38  60  88 120 158 200 249 302 358
#     4  11  24  43  63  84 115 161 216 261 296 342
#
# _framework density 17.655263000000001
#
# number of rings (size 3 to 8) (size 9 to 14) (size 15 to 20)
#    0.000    1.125    3.750    3.375    3.500    3.500 
#    0.000    0.000    0.000    0.000    0.000    5.250 
#    0.000    0.000    0.000    0.000    0.000    0.000 
#
# Total GULP energy -178737.851561 kJ/mol
# GULP energy per Si atom -5585.557861 kJ/mol
# Density = 1.761508 g / cm^3
# Si number density = 17.655263 Si / 1000 Ang^3
#
#
#
# Elastic Constant Matrix: (Units=GPa)
#
#
# Indices 1 2 3 4 5 6 
#
# 1 76.0775 34.2976 17.5457 0.0000 0.0000 0.0000
# 2 34.2976 138.9492 29.3316 0.0000 0.0000 0.0000
# 3 17.5457 29.3316 58.6031 0.0000 0.0000 0.0000
# 4 0.0000 0.0000 0.0000 346.1948 0.0000 0.0000
# 5 0.0000 0.0000 0.0000 0.0000 11.7074 0.0000
# 6 0.0000 0.0000 0.0000 0.0000 0.0000 -159.0158
#
#
#
# Elastic Compliance Matrix: (Units=1/GPa)
#
#
# Indices 1 2 3 4 5 6 
#
# 1 0.015247 -0.003131 -0.002998 0.000000 0.000000 0.000000
# 2 -0.003131 0.008690 -0.003412 0.000000 0.000000 0.000000
# 3 -0.002998 -0.003412 0.019669 0.000000 0.000000 0.000000
# 4 0.000000 0.000000 0.000000 0.002889 0.000000 0.000000
# 5 0.000000 0.000000 0.000000 0.000000 0.085416 0.000000
# 6 0.000000 0.000000 0.000000 0.000000 0.000000 -0.006289
#
#
# Mechanical properties :
#
#
# Convention : Reuss Voigt Hill
#
# Bulk Modulus (GPa) = 40.77493 48.44218 44.60855
# Shear Modulus (GPa) = 32.70550 52.60759 42.65655
#
# Velocity S-wave (km/s) = 4.30868 5.46460 4.92070
# Velocity P-wave (km/s) = 6.92085 8.20446 7.58984
#
# Compressibility (1/GPa) = 0.02452487
#
# Stress axis : x y z
#
# Youngs Moduli (GPa) = 65.58528 115.07581 50.84051
#
# Poissons Ratio (x) = 0.36027 0.15242
# Poissons Ratio (y) = 0.20533 0.17347
# Poissons Ratio (z) = 0.19663 0.39265
#
# Static dielectric constant tensor:
#      x y z
#    x 1.583340 0.000000 0.000000 
#    y 0.000000 1.601080 0.000000 
#    z 0.000000 0.000000 1.603540 
# 
# From -- ./inp_files/21050.got.cif
#   From: 2010.05.17/outbox.cif.g08.bks.cpg/sg65_11_cif.got.tgz:21050.got - 2010.06.03 17:01:31.
