data_PCOD9490222
_publ_section_title
;
Structure prediction by ZEFSAII (Michael W. Deem and Ramdas Pophale) SiO2 
 PCOD9490222
Probable space group: C M M M
;
_chemical_formula_sum "Si O2"
_cell_formula_units_Z 88
_cell_length_a 25.666747
_cell_length_b 20.039573
_cell_length_c 8.550395
_cell_angle_alpha 90.000000
_cell_angle_beta 90.000000
_cell_angle_gamma 90.000000
_cell_volume 4397.901228
_symmetry_space_group_name_H-M "C M M M"
_symmetry_group_IT_number 65
_symmetry_cell_setting 'orthorhombic'
loop_
_space_group_symop_operation_xyz
x,y,z
-x,-y,z
x,-y,-z
-x,y,-z
-x,-y,-z
x,y,-z
-x,y,z
x,-y,z
1/2+x,1/2+y,z
1/2-x,1/2-y,z
1/2+x,1/2-y,-z
1/2-x,1/2+y,-z
1/2-x,1/2-y,-z
1/2+x,1/2+y,-z
1/2-x,1/2+y,z
1/2+x,1/2-y,z
loop_
_atom_site_type_symbol
_atom_site_label
_atom_site_fract_x
_atom_site_fract_y
_atom_site_fract_z
Si Si1 0.587299 0.821690 0.817747
Si Si2 0.000000 0.421497 0.687541
Si Si3 0.247652 0.423993 0.820364
Si Si4 0.702656 0.202281 0.319804
Si Si5 0.139430 0.074260 0.684879
Si Si6 0.556814 0.685552 0.316567
O O1 0.551831 0.880540 0.742442
O O2 0.645627 0.803813 0.756699
O O3 0.558522 0.752300 0.782904
O O4 0.590834 0.836651 0.000000
O O5 0.000000 0.500000 0.738521
O O6 0.000000 0.420802 0.500000
O O7 0.229662 0.500000 0.797052
O O8 0.223704 0.372348 0.700430
O O9 0.309178 0.422638 0.788738
O O10 0.236249 0.404533 0.000000
O O11 0.695275 0.222510 0.500000
O O12 0.750000 0.250000 0.256389
O O13 0.153405 0.081692 0.500000
O O14 0.100690 0.133037 0.727278
O O15 0.116308 0.000000 0.701650
O O16 0.564295 0.704070 0.500000
O O17 0.500000 0.653613 0.303542
#
# Coordination Sequence:
#
# PCOD9490222 Si02
#       6
#    16   8  16  16  16  16
#     4  12  25  41  64  93 126 162 202 254 315 377
#     4  11  25  47  73  97 124 163 212 265 321 384
#     4  10  21  37  57  83 116 153 193 240 298 359
#     4  11  24  41  63  91 123 162 209 258 309 370
#     4   9  18  33  54  82 116 157 204 248 292 345
#     4  10  20  35  57  82 115 158 200 246 294 347
#
# _framework density 20.009544999999999
#
# number of rings (size 3 to 8) (size 9 to 14) (size 15 to 20)
#    0.000    1.545    0.909    4.091    0.000    9.455 
#    0.000    1.818    0.000    0.000    0.000    3.818 
#    0.000    0.000    0.000    0.000    0.000    0.000 
#
# Total GULP energy -245413.133183 kJ/mol
# GULP energy per Si atom -5577.571209 kJ/mol
# Density = 1.996400 g / cm^3
# Si number density = 20.009545 Si / 1000 Ang^3
#
#
#
# Elastic Constant Matrix: (Units=GPa)
#
#
# Indices 1 2 3 4 5 6 
#
# 1 111.4073 43.8082 28.5349 0.0000 0.0000 0.0000
# 2 43.8082 75.7544 20.5492 0.0000 0.0000 0.0000
# 3 28.5349 20.5492 49.1112 0.0000 0.0000 0.0000
# 4 0.0000 0.0000 0.0000 -18.6219 0.0000 0.0000
# 5 0.0000 0.0000 0.0000 0.0000 93.4771 0.0000
# 6 0.0000 0.0000 0.0000 0.0000 0.0000 34.6695
#
#
#
# Elastic Compliance Matrix: (Units=1/GPa)
#
#
# Indices 1 2 3 4 5 6 
#
# 1 0.012546 -0.005954 -0.004799 0.000000 0.000000 0.000000
# 2 -0.005954 0.017716 -0.003953 0.000000 0.000000 0.000000
# 3 -0.004799 -0.003953 0.024804 0.000000 0.000000 0.000000
# 4 0.000000 0.000000 0.000000 -0.053700 0.000000 0.000000
# 5 0.000000 0.000000 0.000000 0.000000 0.010698 0.000000
# 6 0.000000 0.000000 0.000000 0.000000 0.000000 0.028844
#
#
# Mechanical properties :
#
#
# Convention : Reuss Voigt Hill
#
# Bulk Modulus (GPa) = 38.97876 46.89527 42.93701
# Shear Modulus (GPa) = 63.39467 31.46366 47.42917
#
# Velocity S-wave (km/s) = 5.63480 3.96969 4.87388
# Velocity P-wave (km/s) = 7.86492 6.67073 7.29231
#
# Compressibility (1/GPa) = 0.02565500
#
# Stress axis : x y z
#
# Youngs Moduli (GPa) = 79.70471 56.44624 40.31567
#
# Poissons Ratio (x) = 0.33607 0.19346
# Poissons Ratio (y) = 0.47454 0.15939
# Poissons Ratio (z) = 0.38247 0.22316
#
# Static dielectric constant tensor:
#      x y z
#    x 1.759760 0.000000 0.000000 
#    y 0.000000 1.703970 0.000000 
#    z 0.000000 0.000000 1.715380 
# 
# From -- ./inp_files/14008.got.cif
#   From: 2010.05.17/outbox.cif.g08.bks.cpg/sg65_8_cif.got.tgz:14008.got - 2010.06.03 17:01:31.
