data_PCOD9490439
_publ_section_title
;
Structure prediction by ZEFSAII (Michael W. Deem and Ramdas Pophale) SiO2 
 PCOD9490439
Probable space group: C M M M
;
_chemical_formula_sum "Si O2"
_cell_formula_units_Z 100
_cell_length_a 25.806226
_cell_length_b 10.369607
_cell_length_c 19.958531
_cell_angle_alpha 90.000000
_cell_angle_beta 90.000000
_cell_angle_gamma 90.000000
_cell_volume 5340.911314
_symmetry_space_group_name_H-M "C M M M"
_symmetry_group_IT_number 65
_symmetry_cell_setting 'orthorhombic'
loop_
_space_group_symop_operation_xyz
x,y,z
-x,-y,z
x,-y,-z
-x,y,-z
-x,-y,-z
x,y,-z
-x,y,z
x,-y,z
1/2+x,1/2+y,z
1/2-x,1/2-y,z
1/2+x,1/2-y,-z
1/2-x,1/2+y,-z
1/2-x,1/2-y,-z
1/2+x,1/2+y,-z
1/2-x,1/2+y,z
1/2+x,1/2-y,z
loop_
_atom_site_type_symbol
_atom_site_label
_atom_site_fract_x
_atom_site_fract_y
_atom_site_fract_z
Si Si1 0.167694 0.854606 0.261001
Si Si2 0.126372 0.500000 0.428050
Si Si3 0.439954 0.000000 0.292947
Si Si4 0.912246 0.153177 0.074046
Si Si5 0.334569 0.500000 0.500000
Si Si6 0.706232 0.348434 0.112434
Si Si7 0.810739 0.758678 0.404462
Si Si8 0.558662 0.267497 0.217566
O O1 0.194687 0.819306 0.190951
O O2 0.181628 0.769937 0.324549
O O3 0.106045 0.850364 0.246572
O O4 0.183829 0.000000 0.276853
O O5 0.097555 0.500000 0.500000
O O6 0.092534 0.500000 0.360909
O O7 0.161279 0.372114 0.426106
O O8 0.431417 0.126086 0.247777
O O9 0.500000 0.000000 0.312720
O O10 0.849845 0.167269 0.078165
O O11 0.936077 0.226220 0.137224
O O12 0.923116 0.000000 0.082973
O O13 0.930173 0.191667 0.000000
O O14 0.332652 0.384742 0.441829
O O15 0.720934 0.500000 0.105991
O O16 0.750000 0.250000 0.088277
O O17 0.750000 0.750000 0.419804
O O18 0.500000 0.307425 0.235842
#
# Coordination Sequence:
#
# PCOD9490439 Si02
#       8
#    16   8   8  16   4  16  16  16
#     4  10  20  36  55  81 112 149 191 240 296 339
#     4  12  25  41  64  92 119 161 206 239 292 362
#     4  10  22  42  64  88 116 154 201 248 295 346
#     4   9  19  36  57  83 117 151 187 237 294 348
#     4  12  24  40  58  82 121 158 185 242 290 342
#     4   9  18  34  53  78 112 152 195 239 285 339
#     4  12  24  38  57  85 120 158 196 237 288 349
#     4  10  20  37  60  85 113 146 190 242 294 350
#
# _framework density 18.723396000000001
#
# number of rings (size 3 to 8) (size 9 to 14) (size 15 to 20)
#    0.000    1.760    3.200    2.640    1.120    2.080 
#    7.200    1.200    0.000    1.440    0.000    1.120 
#    0.000    0.000    0.000    0.000    0.000    0.000 
#
# Total GULP energy -278429.012419 kJ/mol
# GULP energy per Si atom -5568.580248 kJ/mol
# Density = 1.868078 g / cm^3
# Si number density = 18.723396 Si / 1000 Ang^3
#
#
#
# Elastic Constant Matrix: (Units=GPa)
#
#
# Indices 1 2 3 4 5 6 
#
# 1 59.5541 31.5591 16.8614 0.0000 0.0000 0.0000
# 2 31.5591 100.3293 36.7458 0.0000 0.0000 0.0000
# 3 16.8614 36.7458 134.4186 0.0000 0.0000 0.0000
# 4 0.0000 0.0000 0.0000 19.3685 0.0000 0.0000
# 5 0.0000 0.0000 0.0000 0.0000 -23.8769 0.0000
# 6 0.0000 0.0000 0.0000 0.0000 0.0000 13.5803
#
#
#
# Elastic Compliance Matrix: (Units=1/GPa)
#
#
# Indices 1 2 3 4 5 6 
#
# 1 0.020245 -0.006043 -0.000888 0.000000 0.000000 0.000000
# 2 -0.006043 0.012880 -0.002763 0.000000 0.000000 0.000000
# 3 -0.000888 -0.002763 0.008306 0.000000 0.000000 0.000000
# 4 0.000000 0.000000 0.000000 0.051630 0.000000 0.000000
# 5 0.000000 0.000000 0.000000 0.000000 -0.041881 0.000000
# 6 0.000000 0.000000 0.000000 0.000000 0.000000 0.073636
#
#
# Mechanical properties :
#
#
# Convention : Reuss Voigt Hill
#
# Bulk Modulus (GPa) = 45.36385 51.62608 48.49496
# Shear Modulus (GPa) = 32.99208 15.75675 24.37441
#
# Velocity S-wave (km/s) = 4.20226 2.90410 3.61198
# Velocity P-wave (km/s) = 6.91566 6.23522 6.58424
#
# Compressibility (1/GPa) = 0.02204399
#
# Stress axis : x y z
#
# Youngs Moduli (GPa) = 49.39457 77.63973 120.39375
#
# Poissons Ratio (x) = 0.46919 0.10685
# Poissons Ratio (y) = 0.29850 0.33264
# Poissons Ratio (z) = 0.04384 0.21451
#
# Static dielectric constant tensor:
#      x y z
#    x 1.648930 0.000000 0.000000 
#    y 0.000000 1.640190 0.000000 
#    z 0.000000 0.000000 1.675150 
# 
# From -- ./inp_files/65989.got.cif
#   From: 2010.05.17/outbox.cif.g08.bks.cpg/sg65_33_cif.got.tgz:65989.got - 2010.06.03 17:01:31.
