data_PCOD9490646
_publ_section_title
;
Structure prediction by ZEFSAII (Michael W. Deem and Ramdas Pophale) SiO2 
 PCOD9490646
Probable space group: C M M M
;
_chemical_formula_sum "Si O2"
_cell_formula_units_Z 116
_cell_length_a 25.424053
_cell_length_b 25.393752
_cell_length_c 9.353154
_cell_angle_alpha 90.000000
_cell_angle_beta 90.000000
_cell_angle_gamma 90.000000
_cell_volume 6038.509365
_symmetry_space_group_name_H-M "C M M M"
_symmetry_group_IT_number 65
_symmetry_cell_setting 'orthorhombic'
loop_
_space_group_symop_operation_xyz
x,y,z
-x,-y,z
x,-y,-z
-x,y,-z
-x,-y,-z
x,y,-z
-x,y,z
x,-y,z
1/2+x,1/2+y,z
1/2-x,1/2-y,z
1/2+x,1/2-y,-z
1/2-x,1/2+y,-z
1/2-x,1/2-y,-z
1/2+x,1/2+y,-z
1/2-x,1/2+y,z
1/2+x,1/2-y,z
loop_
_atom_site_type_symbol
_atom_site_label
_atom_site_fract_x
_atom_site_fract_y
_atom_site_fract_z
Si Si1 0.939871 0.388792 0.160054
Si Si2 0.560839 0.651492 0.160052
Si Si3 0.340710 0.625873 0.329468
Si Si4 0.742042 0.563068 0.162694
Si Si5 0.500000 0.772173 0.500000
Si Si6 0.919089 0.728379 0.766359
Si Si7 0.345402 0.063676 0.334070
Si Si8 0.690055 0.732777 0.171741
O O1 0.934691 0.325594 0.157554
O O2 0.898288 0.411699 0.270729
O O3 0.000000 0.401884 0.198906
O O4 0.928989 0.409202 0.000000
O O5 0.500000 0.639512 0.186228
O O6 0.599059 0.626390 0.276667
O O7 0.567352 0.714987 0.164644
O O8 0.575646 0.633837 0.000000
O O9 0.336751 0.627552 0.500000
O O10 0.306881 0.579563 0.259871
O O11 0.317634 0.677949 0.253454
O O12 0.744509 0.500000 0.155707
O O13 0.795756 0.581348 0.238889
O O14 0.737727 0.583724 0.000000
O O15 0.546539 0.771932 0.623236
O O16 0.855341 0.729807 0.762202
O O17 0.337869 0.077958 0.500000
O O18 0.348696 0.000000 0.325821
O O19 0.750000 0.750000 0.191058
O O20 0.680538 0.728388 0.000000
#
# Coordination Sequence:
#
# PCOD9490646 Si02
#       8
#    16  16  16  16   4  16  16  16
#     4  11  23  38  59  84 112 151 200 245 291 347
#     4  10  20  36  59  84 118 159 202 241 280 337
#     4  11  23  36  57  89 123 154 190 238 293 351
#     4  10  21  41  67  89 113 149 195 242 290 351
#     4  12  24  36  56  88 121 158 199 262 296 354
#     4  11  22  37  57  82 118 159 200 246 294 348
#     4  10  23  41  61  85 114 146 184 237 302 361
#     4  10  23  41  59  82 119 162 203 246 294 351
#
# _framework density 19.210038999999998
#
# number of rings (size 3 to 8) (size 9 to 14) (size 15 to 20)
#    0.000    1.517    1.379    4.138    6.759    3.862 
#    0.000    1.379    0.000    0.414    0.000    2.897 
#    0.000    0.000    0.000    0.000    0.000    0.000 
#
# Total GULP energy -323192.578546 kJ/mol
# GULP energy per Si atom -5572.285837 kJ/mol
# Density = 1.916632 g / cm^3
# Si number density = 19.210039 Si / 1000 Ang^3
#
#
#
# Elastic Constant Matrix: (Units=GPa)
#
#
# Indices 1 2 3 4 5 6 
#
# 1 137.3259 16.0152 81.7063 0.0000 0.0000 0.0000
# 2 16.0152 11.5926 25.1268 0.0000 0.0000 0.0000
# 3 81.7063 25.1268 155.7193 0.0000 0.0000 0.0000
# 4 0.0000 0.0000 0.0000 -48.8225 0.0000 0.0000
# 5 0.0000 0.0000 0.0000 0.0000 56.3299 0.0000
# 6 0.0000 0.0000 0.0000 0.0000 0.0000 18.8143
#
#
#
# Elastic Compliance Matrix: (Units=1/GPa)
#
#
# Indices 1 2 3 4 5 6 
#
# 1 0.010708 -0.004022 -0.004969 0.000000 0.000000 0.000000
# 2 -0.004022 0.134169 -0.019539 0.000000 0.000000 0.000000
# 3 -0.004969 -0.019539 0.012182 0.000000 0.000000 0.000000
# 4 0.000000 0.000000 0.000000 -0.020482 0.000000 0.000000
# 5 0.000000 0.000000 0.000000 0.000000 0.017753 0.000000
# 6 0.000000 0.000000 0.000000 0.000000 0.000000 0.053151
#
#
# Mechanical properties :
#
#
# Convention : Reuss Voigt Hill
#
# Bulk Modulus (GPa) = 10.00015 61.14825 35.57420
# Shear Modulus (GPa) = 16.78563 17.38364 17.08463
#
# Velocity S-wave (km/s) = 2.95921 3.01146 2.98545
# Velocity P-wave (km/s) = 4.11009 6.63267 5.51748
#
# Compressibility (1/GPa) = 0.09999848
#
# Stress axis : x y z
#
# Youngs Moduli (GPa) = 93.39109 7.45327 82.08744
#
# Poissons Ratio (x) = 0.02997 0.40793
# Poissons Ratio (y) = 0.37557 1.60393
# Poissons Ratio (z) = 0.46410 0.14563
#
# Static dielectric constant tensor:
#      x y z
#    x 1.686150 0.000000 0.000000 
#    y 0.000000 1.678540 0.000000 
#    z 0.000000 0.000000 1.646200 
# 
# From -- ./inp_files/16876.got.cif
#   From: 2010.05.17/outbox.cif.g08.bks.cpg/sg65_9_cif.got.tgz:16876.got - 2010.06.03 17:01:31.
