data_PCOD9490325
_publ_section_title
;
Structure prediction by ZEFSAII (Michael W. Deem and Ramdas Pophale) SiO2 
 PCOD9490325
Probable space group: C M M M
;
_chemical_formula_sum "Si O2"
_cell_formula_units_Z 72
_cell_length_a 14.645583
_cell_length_b 8.612578
_cell_length_c 30.119047
_cell_angle_alpha 90.000000
_cell_angle_beta 90.000000
_cell_angle_gamma 90.000000
_cell_volume 3799.102918
_symmetry_space_group_name_H-M "C M M M"
_symmetry_group_IT_number 65
_symmetry_cell_setting 'orthorhombic'
loop_
_space_group_symop_operation_xyz
x,y,z
-x,-y,z
x,-y,-z
-x,y,-z
-x,-y,-z
x,y,-z
-x,y,z
x,-y,z
1/2+x,1/2+y,z
1/2-x,1/2-y,z
1/2+x,1/2-y,-z
1/2-x,1/2+y,-z
1/2-x,1/2-y,-z
1/2+x,1/2+y,-z
1/2-x,1/2+y,z
1/2+x,1/2-y,z
loop_
_atom_site_type_symbol
_atom_site_label
_atom_site_fract_x
_atom_site_fract_y
_atom_site_fract_z
Si Si1 0.000000 0.311247 0.449514
Si Si2 0.000000 0.186497 0.689502
Si Si3 0.647315 0.185010 0.858981
Si Si4 0.147690 0.686594 0.377479
Si Si5 0.500000 0.686272 0.792754
Si Si6 0.146179 0.186567 0.951498
O O1 0.089015 0.265321 0.421019
O O2 0.000000 0.500000 0.450723
O O3 0.000000 0.254367 0.500000
O O4 0.088513 0.251570 0.663910
O O5 0.000000 0.231167 0.741126
O O6 0.000000 0.000000 0.686392
O O7 0.750000 0.250000 0.855419
O O8 0.586976 0.248226 0.818921
O O9 0.607571 0.243012 0.906325
O O10 0.649259 0.000000 0.858957
O O11 0.149347 0.500000 0.375888
O O12 0.250000 0.750000 0.377995
O O13 0.500000 0.500000 0.795520
O O14 0.250000 0.250000 0.952568
O O15 0.146585 0.000000 0.947753
O O16 0.106167 0.226565 0.000000
#
# Coordination Sequence:
#
# PCOD9490325 Si02
#       6
#     8   8  16  16   8  16
#     4   8  16  32  53  81 119 160 199 238 280 325
#     4  10  22  40  61  82 107 141 184 236 289 340
#     4  11  22  37  58  83 112 145 180 222 272 330
#     4  10  20  35  58  85 116 153 192 237 283 332
#     4  11  24  42  61  82 109 141 180 230 285 338
#     4   9  16  28  49  76 106 141 179 219 264 317
#
# _framework density 18.951841999999999
#
# number of rings (size 3 to 8) (size 9 to 14) (size 15 to 20)
#    0.000    2.111    0.000    6.000    0.000    4.444 
#    0.000    0.556    0.000   14.667    0.000    0.000 
#    0.000    0.000    0.000    0.000    0.000    0.000 
#
# Total GULP energy -200977.393952 kJ/mol
# GULP energy per Si atom -5582.705388 kJ/mol
# Density = 1.890871 g / cm^3
# Si number density = 18.951842 Si / 1000 Ang^3
#
#
#
# Elastic Constant Matrix: (Units=GPa)
#
#
# Indices 1 2 3 4 5 6 
#
# 1 157.6653 44.8666 97.6711 0.0000 0.0000 0.0000
# 2 44.8666 93.6877 71.3087 0.0000 0.0000 0.0000
# 3 97.6711 71.3087 221.3888 0.0000 0.0000 0.0000
# 4 0.0000 0.0000 0.0000 27.1260 0.0000 0.0000
# 5 0.0000 0.0000 0.0000 0.0000 11.5741 0.0000
# 6 0.0000 0.0000 0.0000 0.0000 0.0000 24.8861
#
#
#
# Elastic Compliance Matrix: (Units=1/GPa)
#
#
# Indices 1 2 3 4 5 6 
#
# 1 0.008926 -0.001692 -0.003393 0.000000 0.000000 0.000000
# 2 -0.001692 0.014461 -0.003911 0.000000 0.000000 0.000000
# 3 -0.003393 -0.003911 0.007274 0.000000 0.000000 0.000000
# 4 0.000000 0.000000 0.000000 0.036865 0.000000 0.000000
# 5 0.000000 0.000000 0.000000 0.000000 0.086400 0.000000
# 6 0.000000 0.000000 0.000000 0.000000 0.000000 0.040183
#
#
# Mechanical properties :
#
#
# Convention : Reuss Voigt Hill
#
# Bulk Modulus (GPa) = 78.93932 100.04830 89.49381
# Shear Modulus (GPa) = 23.11349 29.97692 26.54521
#
# Velocity S-wave (km/s) = 3.49605 3.98143 3.74661
# Velocity P-wave (km/s) = 7.61837 8.60471 8.12652
#
# Compressibility (1/GPa) = 0.01266796
#
# Stress axis : x y z
#
# Youngs Moduli (GPa) = 112.03355 69.15048 137.48321
#
# Poissons Ratio (x) = 0.11702 0.46646
# Poissons Ratio (y) = 0.18958 0.53775
# Poissons Ratio (z) = 0.38011 0.27047
#
# Static dielectric constant tensor:
#      x y z
#    x 1.639860 0.000000 0.000000 
#    y 0.000000 1.630710 0.000000 
#    z 0.000000 0.000000 1.664990 
# 
# From -- ./inp_files/74647.got.cif
#   From: 2010.05.17/outbox.cif.g08.bks.cpg/sg65_38_cif.got.tgz:74647.got - 2010.06.03 17:01:31.
