data_PCOD9490235
_publ_section_title
;
Structure prediction by ZEFSAII (Michael W. Deem and Ramdas Pophale) SiO2 
 PCOD9490235
Probable space group: C M M M
;
_chemical_formula_sum "Si O2"
_cell_formula_units_Z 104
_cell_length_a 32.031327
_cell_length_b 19.842035
_cell_length_c 8.446725
_cell_angle_alpha 90.000000
_cell_angle_beta 90.000000
_cell_angle_gamma 90.000000
_cell_volume 5368.457231
_symmetry_space_group_name_H-M "C M M M"
_symmetry_group_IT_number 65
_symmetry_cell_setting 'orthorhombic'
loop_
_space_group_symop_operation_xyz
x,y,z
-x,-y,z
x,-y,-z
-x,y,-z
-x,-y,-z
x,y,-z
-x,y,z
x,-y,z
1/2+x,1/2+y,z
1/2-x,1/2-y,z
1/2+x,1/2-y,-z
1/2-x,1/2+y,-z
1/2-x,1/2-y,-z
1/2+x,1/2+y,-z
1/2-x,1/2+y,z
1/2+x,1/2-y,z
loop_
_atom_site_type_symbol
_atom_site_label
_atom_site_fract_x
_atom_site_fract_y
_atom_site_fract_z
Si Si1 0.708558 0.709968 0.808215
Si Si2 0.589841 0.076221 0.809623
Si Si3 0.500000 0.918179 0.320632
Si Si4 0.626955 0.789859 0.809881
Si Si5 0.953921 0.786899 0.312382
Si Si6 0.827396 0.076661 0.688703
Si Si7 0.078651 0.922965 0.188520
O O1 0.750000 0.750000 0.760110
O O2 0.667564 0.750571 0.751280
O O3 0.703991 0.634265 0.744971
O O4 0.707956 0.707193 0.000000
O O5 0.543163 0.099437 0.763368
O O6 0.621556 0.133356 0.752174
O O7 0.596614 0.000000 0.749138
O O8 0.591819 0.073510 0.000000
O O9 0.500000 0.892426 0.500000
O O10 0.500000 0.000000 0.324519
O O11 0.584721 0.750801 0.766987
O O12 0.630212 0.791831 0.000000
O O13 0.951559 0.775970 0.500000
O O14 0.947570 0.865890 0.275260
O O15 0.000000 0.765259 0.256523
O O16 0.833422 0.081377 0.500000
O O17 0.872444 0.087851 0.770423
O O18 0.814151 0.000000 0.726703
O O19 0.068362 0.000000 0.234041
O O20 0.073091 0.916042 0.000000
#
# Coordination Sequence:
#
# PCOD9490235 Si02
#       7
#    16  16   8  16  16  16  16
#     4  10  21  38  60  88 118 148 188 236 287 342
#     4   9  18  33  52  74 102 138 182 227 273 327
#     4   9  17  29  47  73 103 135 174 219 268 323
#     4  10  21  37  57  80 109 148 188 232 284 339
#     4  11  24  38  53  79 115 153 192 235 283 335
#     4  10  20  35  58  87 117 151 192 235 282 338
#     4  10  20  35  57  83 112 149 192 237 284 333
#
# _framework density 19.372418
#
# number of rings (size 3 to 8) (size 9 to 14) (size 15 to 20)
#    0.000    2.077    1.538    1.615    1.077    5.231 
#    0.000    2.308    0.000    2.769    0.000    2.154 
#    0.000    0.000    0.000    0.000    0.000    0.000 
#
# Total GULP energy -290315.640999 kJ/mol
# GULP energy per Si atom -5582.993096 kJ/mol
# Density = 1.932833 g / cm^3
# Si number density = 19.372418 Si / 1000 Ang^3
#
#
#
# Elastic Constant Matrix: (Units=GPa)
#
#
# Indices 1 2 3 4 5 6 
#
# 1 98.0577 57.2115 4.8052 0.0000 0.0000 0.0000
# 2 57.2115 115.0461 8.1817 0.0000 0.0000 0.0000
# 3 4.8052 8.1817 7.1708 0.0000 0.0000 0.0000
# 4 0.0000 0.0000 0.0000 15.9363 0.0000 0.0000
# 5 0.0000 0.0000 0.0000 0.0000 -25.5955 0.0000
# 6 0.0000 0.0000 0.0000 0.0000 0.0000 30.0258
#
#
#
# Elastic Compliance Matrix: (Units=1/GPa)
#
#
# Indices 1 2 3 4 5 6 
#
# 1 0.014383 -0.007038 -0.001608 0.000000 0.000000 0.000000
# 2 -0.007038 0.012904 -0.010007 0.000000 0.000000 0.000000
# 3 -0.001608 -0.010007 0.151949 0.000000 0.000000 0.000000
# 4 0.000000 0.000000 0.000000 0.062750 0.000000 0.000000
# 5 0.000000 0.000000 0.000000 0.000000 -0.039069 0.000000
# 6 0.000000 0.000000 0.000000 0.000000 0.000000 0.033305
#
#
# Mechanical properties :
#
#
# Convention : Reuss Voigt Hill
#
# Bulk Modulus (GPa) = 7.04566 40.07458 23.56012
# Shear Modulus (GPa) = 15.58420 14.07840 14.83130
#
# Velocity S-wave (km/s) = 2.83937 2.69871 2.76993
# Velocity P-wave (km/s) = 3.79397 5.51743 4.73477
#
# Compressibility (1/GPa) = 0.14193134
#
# Stress axis : x y z
#
# Youngs Moduli (GPa) = 69.52453 77.49564 6.58114
#
# Poissons Ratio (x) = 0.54545 0.01058
# Poissons Ratio (y) = 0.48934 0.06585
# Poissons Ratio (z) = 0.11178 0.77547
#
# Static dielectric constant tensor:
#      x y z
#    x 1.653320 0.000000 0.000000 
#    y 0.000000 1.724050 0.000000 
#    z 0.000000 0.000000 1.662260 
# 
# From -- ./inp_files/16423.got.cif
#   From: 2010.05.17/outbox.cif.g08.bks.cpg/sg65_9_cif.got.tgz:16423.got - 2010.06.03 17:01:31.
