data_PCOD9490105
_publ_section_title
;
Structure prediction by ZEFSAII (Michael W. Deem and Ramdas Pophale) SiO2 
 PCOD9490105
Probable space group: C M M M
;
_chemical_formula_sum "Si O2"
_cell_formula_units_Z 104
_cell_length_a 29.010151
_cell_length_b 8.884680
_cell_length_c 23.859856
_cell_angle_alpha 90.000000
_cell_angle_beta 90.000000
_cell_angle_gamma 90.000000
_cell_volume 6149.780259
_symmetry_space_group_name_H-M "C M M M"
_symmetry_group_IT_number 65
_symmetry_cell_setting 'orthorhombic'
loop_
_space_group_symop_operation_xyz
x,y,z
-x,-y,z
x,-y,-z
-x,y,-z
-x,-y,-z
x,y,-z
-x,y,z
x,-y,z
1/2+x,1/2+y,z
1/2-x,1/2-y,z
1/2+x,1/2-y,-z
1/2-x,1/2+y,-z
1/2-x,1/2-y,-z
1/2+x,1/2+y,-z
1/2-x,1/2+y,z
1/2+x,1/2-y,z
loop_
_atom_site_type_symbol
_atom_site_label
_atom_site_fract_x
_atom_site_fract_y
_atom_site_fract_z
Si Si1 0.055909 0.174485 0.500000
Si Si2 0.054376 0.182615 0.623174
Si Si3 0.700995 0.322310 0.902735
Si Si4 0.107432 0.320619 0.727702
Si Si5 0.299009 0.322391 0.767919
Si Si6 0.894086 0.679188 0.063246
Si Si7 0.944942 0.176517 0.832281
O O1 0.069032 0.237362 0.560809
O O2 0.000000 0.173513 0.500000
O O3 0.070805 0.000000 0.500000
O O4 0.084351 0.253577 0.672041
O O5 0.000000 0.217947 0.631204
O O6 0.057948 0.000000 0.624540
O O7 0.700672 0.500000 0.915271
O O8 0.750000 0.250000 0.918442
O O9 0.695322 0.303812 0.835320
O O10 0.657920 0.240026 0.930565
O O11 0.107877 0.500000 0.725844
O O12 0.158671 0.257522 0.737529
O O13 0.077675 0.264242 0.780718
O O14 0.299144 0.500000 0.756253
O O15 0.250000 0.250000 0.752887
O O16 0.894461 0.500000 0.072749
O O17 0.924562 0.760074 0.110049
O O18 0.910487 0.709127 0.000000
O O19 0.000000 0.191187 0.830990
O O20 0.932811 0.000000 0.827009
#
# Coordination Sequence:
#
# PCOD9490105 Si02
#       7
#     8  16  16  16  16  16  16
#     4   7  12  26  49  75 104 143 188 229 267 307
#     4   9  17  31  52  78 110 148 189 229 267 311
#     4  10  20  35  58  82 107 137 170 211 262 318
#     4  12  23  34  53  81 113 145 178 218 266 317
#     4  10  20  35  56  81 108 138 173 214 264 318
#     4  11  24  40  58  80 106 136 172 215 265 322
#     4  11  24  41  59  78 102 136 178 223 269 315
#
# _framework density 16.911173000000002
#
# number of rings (size 3 to 8) (size 9 to 14) (size 15 to 20)
#    0.000    1.769    1.538    4.615    0.000    6.462 
#    0.000    1.923    0.000    1.385    0.000    0.538 
#    0.000    0.000    0.000    0.000    0.000    0.000 
#
# Total GULP energy -290421.060911 kJ/mol
# GULP energy per Si atom -5585.020402 kJ/mol
# Density = 1.687268 g / cm^3
# Si number density = 16.911173 Si / 1000 Ang^3
#
#
#
# Elastic Constant Matrix: (Units=GPa)
#
#
# Indices 1 2 3 4 5 6 
#
# 1 75.8166 46.3201 54.5419 0.0000 0.0000 0.0000
# 2 46.3201 84.2503 55.1550 0.0000 0.0000 0.0000
# 3 54.5419 55.1550 113.8552 0.0000 0.0000 0.0000
# 4 0.0000 0.0000 0.0000 13.7893 0.0000 0.0000
# 5 0.0000 0.0000 0.0000 0.0000 23.7655 0.0000
# 6 0.0000 0.0000 0.0000 0.0000 0.0000 29.7776
#
#
#
# Elastic Compliance Matrix: (Units=1/GPa)
#
#
# Indices 1 2 3 4 5 6 
#
# 1 0.023361 -0.008080 -0.007277 0.000000 0.000000 0.000000
# 2 -0.008080 0.020176 -0.005903 0.000000 0.000000 0.000000
# 3 -0.007277 -0.005903 0.015129 0.000000 0.000000 0.000000
# 4 0.000000 0.000000 0.000000 0.072520 0.000000 0.000000
# 5 0.000000 0.000000 0.000000 0.000000 0.042078 0.000000
# 6 0.000000 0.000000 0.000000 0.000000 0.000000 0.033582
#
#
# Mechanical properties :
#
#
# Convention : Reuss Voigt Hill
#
# Bulk Modulus (GPa) = 61.93517 65.10624 63.52071
# Shear Modulus (GPa) = 19.62720 21.32682 20.47701
#
# Velocity S-wave (km/s) = 3.41046 3.55506 3.48351
# Velocity P-wave (km/s) = 7.22576 7.44539 7.33640
#
# Compressibility (1/GPa) = 0.01614591
#
# Stress axis : x y z
#
# Youngs Moduli (GPa) = 42.80633 49.56299 66.09881
#
# Poissons Ratio (x) = 0.40046 0.48099
# Poissons Ratio (y) = 0.34587 0.39021
# Poissons Ratio (z) = 0.31150 0.29259
#
# Static dielectric constant tensor:
#      x y z
#    x 1.547100 0.000000 0.000000 
#    y 0.000000 1.560960 0.000000 
#    z 0.000000 0.000000 1.576940 
# 
# From -- ./inp_files/65861.got.cif
#   From: 2010.05.17/outbox.cif.g08.bks.cpg/sg65_33_cif.got.tgz:65861.got - 2010.06.03 17:01:31.
