data_PCOD9490514
_publ_section_title
;
Structure prediction by ZEFSAII (Michael W. Deem and Ramdas Pophale) SiO2 
 PCOD9490514
Probable space group: C M M M
;
_chemical_formula_sum "Si O2"
_cell_formula_units_Z 72
_cell_length_a 25.620172
_cell_length_b 8.799159
_cell_length_c 17.759016
_cell_angle_alpha 90.000000
_cell_angle_beta 90.000000
_cell_angle_gamma 90.000000
_cell_volume 4003.520946
_symmetry_space_group_name_H-M "C M M M"
_symmetry_group_IT_number 65
_symmetry_cell_setting 'orthorhombic'
loop_
_space_group_symop_operation_xyz
x,y,z
-x,-y,z
x,-y,-z
-x,y,-z
-x,-y,-z
x,y,-z
-x,y,z
x,-y,z
1/2+x,1/2+y,z
1/2-x,1/2-y,z
1/2+x,1/2-y,-z
1/2-x,1/2+y,-z
1/2-x,1/2-y,-z
1/2+x,1/2+y,-z
1/2-x,1/2+y,z
1/2+x,1/2-y,z
loop_
_atom_site_type_symbol
_atom_site_label
_atom_site_fract_x
_atom_site_fract_y
_atom_site_fract_z
Si Si1 0.191468 0.182441 0.000000
Si Si2 0.307315 0.816694 0.414982
Si Si3 0.000000 0.173963 0.296795
Si Si4 0.000000 0.175916 0.885963
Si Si5 0.108570 0.682452 0.294237
Si Si6 0.888804 0.682872 0.118179
O O1 0.250000 0.250000 0.000000
O O2 0.157511 0.242301 0.929290
O O3 0.193826 0.000000 0.000000
O O4 0.324555 0.775455 0.500000
O O5 0.250000 0.750000 0.403493
O O6 0.346497 0.763528 0.350310
O O7 0.304495 0.000000 0.411601
O O8 0.000000 0.178672 0.205350
O O9 0.947157 0.255636 0.320317
O O10 0.000000 0.000000 0.320747
O O11 0.054101 0.257440 0.907834
O O12 0.000000 0.000000 0.909939
O O13 0.107022 0.500000 0.296335
O O14 0.117040 0.724098 0.206642
O O15 0.887279 0.500000 0.110542
#
# Coordination Sequence:
#
# PCOD9490514 Si02
#       6
#     8  16   8   8  16  16
#     4  12  26  43  58  75 104 140 176 216 262 310
#     4   9  18  33  52  75 103 135 172 214 258 303
#     4   9  17  29  49  77 107 137 170 212 257 301
#     4   9  17  32  54  82 110 136 171 214 260 308
#     4   9  18  33  54  78 105 138 173 209 254 309
#     4  10  20  36  57  81 107 137 174 216 262 309
#
# _framework density 17.984169000000001
#
# number of rings (size 3 to 8) (size 9 to 14) (size 15 to 20)
#    0.000    2.444    0.000    2.333    0.000    5.778 
#    0.000    5.000    0.000    3.333    0.000    0.000 
#    0.000    0.000    0.000    0.000    0.000    0.000 
#
# Total GULP energy -200840.397085 kJ/mol
# GULP energy per Si atom -5578.899919 kJ/mol
# Density = 1.794324 g / cm^3
# Si number density = 17.984169 Si / 1000 Ang^3
#
#
#
# Elastic Constant Matrix: (Units=GPa)
#
#
# Indices 1 2 3 4 5 6 
#
# 1 171.5381 58.1717 92.8507 0.0000 0.0000 0.0000
# 2 58.1717 59.8795 40.7872 0.0000 0.0000 0.0000
# 3 92.8507 40.7872 107.0891 0.0000 0.0000 0.0000
# 4 0.0000 0.0000 0.0000 16.6739 0.0000 0.0000
# 5 0.0000 0.0000 0.0000 0.0000 73.0011 0.0000
# 6 0.0000 0.0000 0.0000 0.0000 0.0000 35.4136
#
#
#
# Elastic Compliance Matrix: (Units=1/GPa)
#
#
# Indices 1 2 3 4 5 6 
#
# 1 0.012610 -0.006486 -0.008463 0.000000 0.000000 0.000000
# 2 -0.006486 0.025886 -0.004236 0.000000 0.000000 0.000000
# 3 -0.008463 -0.004236 0.018289 0.000000 0.000000 0.000000
# 4 0.000000 0.000000 0.000000 0.059974 0.000000 0.000000
# 5 0.000000 0.000000 0.000000 0.000000 0.013698 0.000000
# 6 0.000000 0.000000 0.000000 0.000000 0.000000 0.028238
#
#
# Mechanical properties :
#
#
# Convention : Reuss Voigt Hill
#
# Bulk Modulus (GPa) = 54.30096 80.23621 67.26859
# Shear Modulus (GPa) = 24.60582 34.79754 29.70168
#
# Velocity S-wave (km/s) = 3.70292 4.40352 4.06833
# Velocity P-wave (km/s) = 6.96717 8.40038 7.71712
#
# Compressibility (1/GPa) = 0.01841588
#
# Stress axis : x y z
#
# Youngs Moduli (GPa) = 79.30223 38.63061 54.67653
#
# Poissons Ratio (x) = 0.25054 0.46274
# Poissons Ratio (y) = 0.51432 0.23161
# Poissons Ratio (z) = 0.67115 0.16364
#
# Static dielectric constant tensor:
#      x y z
#    x 1.580590 0.000000 0.000000 
#    y 0.000000 1.602760 0.000000 
#    z 0.000000 0.000000 1.637340 
# 
# From -- ./inp_files/64392.got.cif
#   From: 2010.05.17/outbox.cif.g08.bks.cpg/sg65_33_cif.got.tgz:64392.got - 2010.06.03 17:01:31.
