data_PCOD9490955
_publ_section_title
;
Structure prediction by ZEFSAII (Michael W. Deem and Ramdas Pophale) SiO2 
 PCOD9490955
Probable space group: C M M M
;
_chemical_formula_sum "Si O2"
_cell_formula_units_Z 50
_cell_length_a 7.835885
_cell_length_b 16.495381
_cell_length_c 19.334496
_cell_angle_alpha 90.000000
_cell_angle_beta 90.000000
_cell_angle_gamma 90.000000
_cell_volume 2499.097847
_symmetry_space_group_name_H-M "C M M M"
_symmetry_group_IT_number 65
_symmetry_cell_setting 'orthorhombic'
loop_
_space_group_symop_operation_xyz
x,y,z
-x,-y,z
x,-y,-z
-x,y,-z
-x,-y,-z
x,y,-z
-x,y,z
x,-y,z
1/2+x,1/2+y,z
1/2-x,1/2-y,z
1/2+x,1/2-y,-z
1/2-x,1/2+y,-z
1/2-x,1/2-y,-z
1/2+x,1/2+y,-z
1/2-x,1/2+y,z
1/2+x,1/2-y,z
loop_
_atom_site_type_symbol
_atom_site_label
_atom_site_fract_x
_atom_site_fract_y
_atom_site_fract_z
Si Si1 0.500000 0.000000 0.500000
Si Si2 0.209948 0.000000 0.378208
Si Si3 0.299099 0.156371 0.000000
Si Si4 0.704264 0.590734 0.850754
Si Si5 0.203313 0.161119 0.711032
O O1 0.345596 0.000000 0.440280
O O2 0.246078 0.081909 0.334076
O O3 0.000000 0.000000 0.393778
O O4 0.250000 0.250000 0.000000
O O5 0.235349 0.118068 0.928746
O O6 0.500000 0.147666 0.000000
O O7 0.500000 0.587527 0.842581
O O8 0.772074 0.500000 0.840480
O O9 0.772041 0.647737 0.789285
O O10 0.250000 0.250000 0.683527
O O11 0.000000 0.161457 0.714468
#
# Coordination Sequence:
#
# PCOD9490955 Si02
#       5
#     2   8   8  16  16
#     4  12  26  44  80 106 132 180 226 252 344 394
#     4  10  23  47  71 101 142 176 215 273 326 400
#     4  12  25  38  51  79 121 165 219 279 334 381
#     4  10  20  38  61  87 120 170 216 265 331 393
#     4  10  21  39  67  97 131 171 219 271 327 386
#
# _framework density 20.007218999999999
#
# number of rings (size 3 to 8) (size 9 to 14) (size 15 to 20)
#    0.000    1.600    1.600    3.120    2.240    6.400 
#    0.000    0.800    0.000    0.000    0.000    0.000 
#    0.000    0.000    0.000    0.000    0.000    0.000 
#
# Total GULP energy -139175.828962 kJ/mol
# GULP energy per Si atom -5567.033158 kJ/mol
# Density = 1.996168 g / cm^3
# Si number density = 20.007219 Si / 1000 Ang^3
#
#
#
# Elastic Constant Matrix: (Units=GPa)
#
#
# Indices 1 2 3 4 5 6 
#
# 1 59.2401 28.3030 49.4656 0.0000 0.0000 0.0000
# 2 28.3030 161.5424 68.4859 0.0000 0.0000 0.0000
# 3 49.4656 68.4859 138.2965 0.0000 0.0000 0.0000
# 4 0.0000 0.0000 0.0000 -9.6798 0.0000 0.0000
# 5 0.0000 0.0000 0.0000 0.0000 15.7863 0.0000
# 6 0.0000 0.0000 0.0000 0.0000 0.0000 23.9036
#
#
#
# Elastic Compliance Matrix: (Units=1/GPa)
#
#
# Indices 1 2 3 4 5 6 
#
# 1 0.024135 -0.000720 -0.008276 0.000000 0.000000 0.000000
# 2 -0.000720 0.007857 -0.003633 0.000000 0.000000 0.000000
# 3 -0.008276 -0.003633 0.011990 0.000000 0.000000 0.000000
# 4 0.000000 0.000000 0.000000 -0.103308 0.000000 0.000000
# 5 0.000000 0.000000 0.000000 0.000000 0.063346 0.000000
# 6 0.000000 0.000000 0.000000 0.000000 0.000000 0.041835
#
#
# Mechanical properties :
#
#
# Convention : Reuss Voigt Hill
#
# Bulk Modulus (GPa) = 53.40877 72.39864 62.90371
# Shear Modulus (GPa) = 64.63769 20.19032 42.41400
#
# Velocity S-wave (km/s) = 5.69011 3.18016 4.60927
# Velocity P-wave (km/s) = 8.36197 7.05332 7.73537
#
# Compressibility (1/GPa) = 0.01872352
#
# Stress axis : x y z
#
# Youngs Moduli (GPa) = 41.43375 127.27859 83.40138
#
# Poissons Ratio (x) = 0.09163 0.69023
# Poissons Ratio (y) = 0.02983 0.30302
# Poissons Ratio (z) = 0.34291 0.46244
#
# Static dielectric constant tensor:
#      x y z
#    x 1.723070 0.000000 0.000000 
#    y 0.000000 1.755980 0.000000 
#    z 0.000000 0.000000 1.924390 
# 
# From -- ./inp_files/48696.got.cif
#   From: 2010.05.17/outbox.cif.g08.bks.cpg/sg65_25_cif.got.tgz:48696.got - 2010.06.03 17:01:31.
