data_PCOD9490933
_publ_section_title
;
Structure prediction by ZEFSAII (Michael W. Deem and Ramdas Pophale) SiO2 
 PCOD9490933
Probable space group: C M M M
;
_chemical_formula_sum "Si O2"
_cell_formula_units_Z 72
_cell_length_a 16.003086
_cell_length_b 18.313736
_cell_length_c 12.397683
_cell_angle_alpha 90.000000
_cell_angle_beta 90.000000
_cell_angle_gamma 90.000000
_cell_volume 3633.466965
_symmetry_space_group_name_H-M "C M M M"
_symmetry_group_IT_number 65
_symmetry_cell_setting 'orthorhombic'
loop_
_space_group_symop_operation_xyz
x,y,z
-x,-y,z
x,-y,-z
-x,y,-z
-x,-y,-z
x,y,-z
-x,y,z
x,-y,z
1/2+x,1/2+y,z
1/2-x,1/2-y,z
1/2+x,1/2-y,-z
1/2-x,1/2+y,-z
1/2-x,1/2-y,-z
1/2+x,1/2+y,-z
1/2-x,1/2+y,z
1/2+x,1/2-y,z
loop_
_atom_site_type_symbol
_atom_site_label
_atom_site_fract_x
_atom_site_fract_y
_atom_site_fract_z
Si Si1 0.399309 0.917491 0.871996
Si Si2 0.845190 0.719998 0.736144
Si Si3 0.815144 0.086520 0.500000
Si Si4 0.174699 0.309890 0.500000
Si Si5 0.102221 0.000000 0.877667
Si Si6 0.904126 0.127563 0.721245
O O1 0.500000 0.912325 0.857435
O O2 0.357180 0.851548 0.807567
O O3 0.373747 0.000000 0.838575
O O4 0.382977 0.910653 0.000000
O O5 0.750000 0.750000 0.738109
O O6 0.870443 0.701374 0.612874
O O7 0.897942 0.791036 0.767402
O O8 0.719500 0.111841 0.500000
O O9 0.855088 0.119400 0.608885
O O10 0.826985 0.000000 0.500000
O O11 0.250000 0.250000 0.500000
O O12 0.128435 0.929563 0.809312
O O13 0.000000 0.000000 0.882195
O O14 0.133127 0.000000 0.000000
O O15 0.000000 0.108744 0.697676
#
# Coordination Sequence:
#
# PCOD9490933 Si02
#       6
#    16  16   8   8   8  16
#     4   9  20  41  66  89 115 152 200 250 295 342
#     4  11  21  38  61  84 123 153 193 238 294 356
#     4  12  21  35  58  82 112 150 199 238 276 341
#     4  10  20  38  54  78 119 155 181 229 293 349
#     4   9  20  37  53  77 117 152 182 229 286 341
#     4  11  21  34  57  86 112 152 197 239 286 341
#
# _framework density 19.815784000000001
#
# number of rings (size 3 to 8) (size 9 to 14) (size 15 to 20)
#    0.000    1.667    5.556    1.667    0.000    2.667 
#    2.000    3.889    0.000    1.333    0.000    0.000 
#    0.000    0.000    0.000    0.000    0.000    0.000 
#
# Total GULP energy -200924.237082 kJ/mol
# GULP energy per Si atom -5581.228808 kJ/mol
# Density = 1.977068 g / cm^3
# Si number density = 19.815784 Si / 1000 Ang^3
#
#
#
# Elastic Constant Matrix: (Units=GPa)
#
#
# Indices 1 2 3 4 5 6 
#
# 1 18.0759 24.3010 16.7434 0.0000 0.0000 0.0000
# 2 24.3010 179.9478 86.4625 0.0000 0.0000 0.0000
# 3 16.7434 86.4625 124.6903 0.0000 0.0000 0.0000
# 4 0.0000 0.0000 0.0000 32.9407 0.0000 0.0000
# 5 0.0000 0.0000 0.0000 0.0000 37.8702 0.0000
# 6 0.0000 0.0000 0.0000 0.0000 0.0000 29.3396
#
#
#
# Elastic Compliance Matrix: (Units=1/GPa)
#
#
# Indices 1 2 3 4 5 6 
#
# 1 0.069035 -0.007301 -0.004207 0.000000 0.000000 0.000000
# 2 -0.007301 0.009106 -0.005334 0.000000 0.000000 0.000000
# 3 -0.004207 -0.005334 0.012283 0.000000 0.000000 0.000000
# 4 0.000000 0.000000 0.000000 0.030358 0.000000 0.000000
# 5 0.000000 0.000000 0.000000 0.000000 0.026406 0.000000
# 6 0.000000 0.000000 0.000000 0.000000 0.000000 0.034084
#
#
# Mechanical properties :
#
#
# Convention : Reuss Voigt Hill
#
# Bulk Modulus (GPa) = 17.62428 64.19199 40.90814
# Shear Modulus (GPa) = 21.37941 33.04390 27.21165
#
# Velocity S-wave (km/s) = 3.28824 4.08800 3.70973
# Velocity P-wave (km/s) = 4.83012 7.39912 6.24808
#
# Compressibility (1/GPa) = 0.05673989
#
# Stress axis : x y z
#
# Youngs Moduli (GPa) = 14.48536 109.81735 81.41071
#
# Poissons Ratio (x) = 0.80182 0.34251
# Poissons Ratio (y) = 0.10576 0.43423
# Poissons Ratio (z) = 0.06094 0.58575
#
# Static dielectric constant tensor:
#      x y z
#    x 1.754520 0.000000 0.000000 
#    y 0.000000 1.716860 0.000000 
#    z 0.000000 0.000000 1.703760 
# 
# From -- ./inp_files/26387.got.cif
#   From: 2010.05.17/outbox.cif.g08.bks.cpg/sg65_14_cif.got.tgz:26387.got - 2010.06.03 17:01:31.
