data_PCOD9490221
_publ_section_title
;
Structure prediction by ZEFSAII (Michael W. Deem and Ramdas Pophale) SiO2 
 PCOD9490221
Probable space group: C M M M
;
_chemical_formula_sum "Si O2"
_cell_formula_units_Z 72
_cell_length_a 20.065625
_cell_length_b 22.569096
_cell_length_c 8.613020
_cell_angle_alpha 90.000000
_cell_angle_beta 90.000000
_cell_angle_gamma 90.000000
_cell_volume 3900.518222
_symmetry_space_group_name_H-M "C M M M"
_symmetry_group_IT_number 65
_symmetry_cell_setting 'orthorhombic'
loop_
_space_group_symop_operation_xyz
x,y,z
-x,-y,z
x,-y,-z
-x,y,-z
-x,-y,-z
x,y,-z
-x,y,z
x,-y,z
1/2+x,1/2+y,z
1/2-x,1/2-y,z
1/2+x,1/2-y,-z
1/2-x,1/2+y,-z
1/2-x,1/2-y,-z
1/2+x,1/2+y,-z
1/2-x,1/2+y,z
1/2+x,1/2-y,z
loop_
_atom_site_type_symbol
_atom_site_label
_atom_site_fract_x
_atom_site_fract_y
_atom_site_fract_z
Si Si1 0.422920 0.718560 0.187057
Si Si2 0.924970 0.644598 0.189093
Si Si3 0.659906 0.388862 0.684377
Si Si4 0.577596 0.500000 0.813531
Si Si5 0.798916 0.431228 0.188049
O O1 0.500000 0.703848 0.226093
O O2 0.411394 0.787018 0.232290
O O3 0.372858 0.672694 0.263275
O O4 0.416903 0.714573 0.000000
O O5 0.866591 0.601035 0.240432
O O6 0.000000 0.628819 0.240637
O O7 0.925789 0.643289 0.000000
O O8 0.661229 0.393001 0.500000
O O9 0.614707 0.442003 0.751278
O O10 0.733924 0.398043 0.750066
O O11 0.500000 0.500000 0.768062
O O12 0.581501 0.500000 0.000000
O O13 0.796842 0.500000 0.236396
O O14 0.797213 0.429926 0.000000
#
# Coordination Sequence:
#
# PCOD9490221 Si02
#       5
#    16  16  16   8  16
#     4   9  18  35  58  81 109 145 185 231 280 330
#     4   8  16  33  58  87 112 138 182 237 284 326
#     4  12  24  36  53  79 114 150 184 226 272 325
#     4  11  23  39  59  81 106 141 186 229 273 328
#     4  10  20  35  57  82 112 149 187 229 277 330
#
# _framework density 18.459085999999999
#
# number of rings (size 3 to 8) (size 9 to 14) (size 15 to 20)
#    0.000    2.111    1.111    4.333    0.000    5.333 
#    0.000    7.778    0.000    2.000    0.000    1.556 
#    0.000    0.000    0.000    0.000    0.000    0.000 
#
# Total GULP energy -201021.042941 kJ/mol
# GULP energy per Si atom -5583.917859 kJ/mol
# Density = 1.841707 g / cm^3
# Si number density = 18.459086 Si / 1000 Ang^3
#
#
#
# Elastic Constant Matrix: (Units=GPa)
#
#
# Indices 1 2 3 4 5 6 
#
# 1 165.2783 85.3460 34.5866 0.0000 0.0000 0.0000
# 2 85.3460 83.0779 24.4335 0.0000 0.0000 0.0000
# 3 34.5866 24.4335 26.9617 0.0000 0.0000 0.0000
# 4 0.0000 0.0000 0.0000 -9.2445 0.0000 0.0000
# 5 0.0000 0.0000 0.0000 0.0000 -20.8977 0.0000
# 6 0.0000 0.0000 0.0000 0.0000 0.0000 50.6157
#
#
#
# Elastic Compliance Matrix: (Units=1/GPa)
#
#
# Indices 1 2 3 4 5 6 
#
# 1 0.013689 -0.012131 -0.006566 0.000000 0.000000 0.000000
# 2 -0.012131 0.027162 -0.009053 0.000000 0.000000 0.000000
# 3 -0.006566 -0.009053 0.053717 0.000000 0.000000 0.000000
# 4 0.000000 0.000000 0.000000 -0.108172 0.000000 0.000000
# 5 0.000000 0.000000 0.000000 0.000000 -0.047852 0.000000
# 6 0.000000 0.000000 0.000000 0.000000 0.000000 0.019757
#
#
# Mechanical properties :
#
#
# Convention : Reuss Voigt Hill
#
# Bulk Modulus (GPa) = 25.59722 62.67222 44.13472
# Shear Modulus (GPa) = 186.40332 12.82480 99.61406
#
# Velocity S-wave (km/s) = 10.05988 2.63871 7.35404
# Velocity P-wave (km/s) = 12.19967 6.58099 9.80156
#
# Compressibility (1/GPa) = 0.03906675
#
# Stress axis : x y z
#
# Youngs Moduli (GPa) = 73.05204 36.81618 18.61614
#
# Poissons Ratio (x) = 0.44663 0.12224
# Poissons Ratio (y) = 0.88623 0.16853
# Poissons Ratio (z) = 0.47968 0.33329
#
# Static dielectric constant tensor:
#      x y z
#    x 1.621560 0.000000 0.000000 
#    y 0.000000 1.617080 0.000000 
#    z 0.000000 0.000000 1.613920 
# 
# From -- ./inp_files/9231.got.cif
#   From: 2010.05.17/outbox.cif.g08.bks.cpg/sg65_5_cif.got.tgz:9231.got - 2010.06.03 17:01:31.
