data_PCOD9490412
_publ_section_title
;
Structure prediction by ZEFSAII (Michael W. Deem and Ramdas Pophale) SiO2 
 PCOD9490412
Probable space group: C M M M
;
_chemical_formula_sum "Si O2"
_cell_formula_units_Z 96
_cell_length_a 29.954426
_cell_length_b 11.825064
_cell_length_c 14.576886
_cell_angle_alpha 90.000000
_cell_angle_beta 90.000000
_cell_angle_gamma 90.000000
_cell_volume 5163.322587
_symmetry_space_group_name_H-M "C M M M"
_symmetry_group_IT_number 65
_symmetry_cell_setting 'orthorhombic'
loop_
_space_group_symop_operation_xyz
x,y,z
-x,-y,z
x,-y,-z
-x,y,-z
-x,-y,-z
x,y,-z
-x,y,z
x,-y,z
1/2+x,1/2+y,z
1/2-x,1/2-y,z
1/2+x,1/2-y,-z
1/2-x,1/2+y,-z
1/2-x,1/2-y,-z
1/2+x,1/2+y,-z
1/2-x,1/2+y,z
1/2+x,1/2-y,z
loop_
_atom_site_type_symbol
_atom_site_label
_atom_site_fract_x
_atom_site_fract_y
_atom_site_fract_z
Si Si1 0.626019 0.865421 0.106155
Si Si2 0.049183 0.247863 0.778371
Si Si3 0.199556 0.777461 0.199669
Si Si4 0.575422 0.629126 0.395541
Si Si5 0.183353 0.131130 0.603806
Si Si6 0.050846 0.000000 0.134772
Si Si7 0.842715 0.000000 0.895495
O O1 0.584630 0.816141 0.162941
O O2 0.669072 0.822499 0.160816
O O3 0.624202 0.000000 0.104116
O O4 0.626122 0.823670 0.000000
O O5 0.059422 0.227154 0.671697
O O6 0.050395 0.118879 0.813610
O O7 0.000000 0.295720 0.791603
O O8 0.250000 0.750000 0.171346
O O9 0.198442 0.795230 0.309732
O O10 0.176732 0.890389 0.156906
O O11 0.561088 0.647055 0.500000
O O12 0.561320 0.500000 0.369977
O O13 0.629313 0.629387 0.392710
O O14 0.196072 0.167272 0.500000
O O15 0.198053 0.000000 0.615762
O O16 0.102834 0.000000 0.099431
O O17 0.000000 0.000000 0.091393
O O18 0.826330 0.000000 0.000000
#
# Coordination Sequence:
#
# PCOD9490412 Si02
#       7
#    16  16  16  16  16   8   8
#     4  11  26  46  64  83 114 162 217 263 303 361
#     4  11  21  36  61  91 126 160 198 253 311 369
#     4  12  25  41  65  92 127 164 206 258 315 367
#     4   9  16  29  55  91 128 162 193 235 300 375
#     4   9  17  34  63  94 123 157 199 247 306 372
#     4  10  20  35  61  96 129 161 198 252 321 384
#     4  12  24  41  65  93 126 166 210 265 323 376
#
# _framework density 18.592679
#
# number of rings (size 3 to 8) (size 9 to 14) (size 15 to 20)
#    0.000    1.500    5.000    1.500    1.167    2.833 
#    0.000    3.333    0.000    2.000    0.000    1.167 
#    0.000    0.000    0.000    0.000    0.000    0.000 
#
# Total GULP energy -267485.644912 kJ/mol
# GULP energy per Si atom -5572.617602 kJ/mol
# Density = 1.855036 g / cm^3
# Si number density = 18.592679 Si / 1000 Ang^3
#
#
#
# Elastic Constant Matrix: (Units=GPa)
#
#
# Indices 1 2 3 4 5 6 
#
# 1 133.0801 32.0274 53.1197 0.0000 0.0000 0.0000
# 2 32.0274 58.5734 41.6746 0.0000 0.0000 0.0000
# 3 53.1197 41.6746 136.6961 0.0000 0.0000 0.0000
# 4 0.0000 0.0000 0.0000 23.6321 0.0000 0.0000
# 5 0.0000 0.0000 0.0000 0.0000 106.7524 0.0000
# 6 0.0000 0.0000 0.0000 0.0000 0.0000 4.9120
#
#
#
# Elastic Compliance Matrix: (Units=1/GPa)
#
#
# Indices 1 2 3 4 5 6 
#
# 1 0.009348 -0.003227 -0.002649 0.000000 0.000000 0.000000
# 2 -0.003227 0.022916 -0.005732 0.000000 0.000000 0.000000
# 3 -0.002649 -0.005732 0.010092 0.000000 0.000000 0.000000
# 4 0.000000 0.000000 0.000000 0.042315 0.000000 0.000000
# 5 0.000000 0.000000 0.000000 0.000000 0.009367 0.000000
# 6 0.000000 0.000000 0.000000 0.000000 0.000000 0.203584
#
#
# Mechanical properties :
#
#
# Convention : Reuss Voigt Hill
#
# Bulk Modulus (GPa) = 52.24647 64.66589 58.45618
# Shear Modulus (GPa) = 15.28027 40.49448 27.88738
#
# Velocity S-wave (km/s) = 2.86989 4.67195 3.87707
# Velocity P-wave (km/s) = 6.25646 7.99741 7.17990
#
# Compressibility (1/GPa) = 0.01914005
#
# Stress axis : x y z
#
# Youngs Moduli (GPa) = 106.97276 43.63855 99.08371
#
# Poissons Ratio (x) = 0.14081 0.26246
# Poissons Ratio (y) = 0.34518 0.56798
# Poissons Ratio (z) = 0.28336 0.25015
#
# Static dielectric constant tensor:
#      x y z
#    x 1.648890 0.000000 0.000000 
#    y 0.000000 1.614220 0.000000 
#    z 0.000000 0.000000 1.688200 
# 
# From -- ./inp_files/47730.got.cif
#   From: 2010.05.17/outbox.cif.g08.bks.cpg/sg65_24_cif.got.tgz:47730.got - 2010.06.03 17:01:31.
