data_PCOD9490310
_publ_section_title
;
Structure prediction by ZEFSAII (Michael W. Deem and Ramdas Pophale) SiO2 
 PCOD9490310
Probable space group: C M M M
;
_chemical_formula_sum "Si O2"
_cell_formula_units_Z 96
_cell_length_a 19.128282
_cell_length_b 8.829148
_cell_length_c 31.650555
_cell_angle_alpha 90.000000
_cell_angle_beta 90.000000
_cell_angle_gamma 90.000000
_cell_volume 5345.349329
_symmetry_space_group_name_H-M "C M M M"
_symmetry_group_IT_number 65
_symmetry_cell_setting 'orthorhombic'
loop_
_space_group_symop_operation_xyz
x,y,z
-x,-y,z
x,-y,-z
-x,y,-z
-x,-y,-z
x,y,-z
-x,y,z
x,-y,z
1/2+x,1/2+y,z
1/2-x,1/2-y,z
1/2+x,1/2-y,-z
1/2-x,1/2+y,-z
1/2-x,1/2-y,-z
1/2+x,1/2+y,-z
1/2-x,1/2+y,z
1/2+x,1/2-y,z
loop_
_atom_site_type_symbol
_atom_site_label
_atom_site_fract_x
_atom_site_fract_y
_atom_site_fract_z
Si Si1 0.171989 0.181019 0.708279
Si Si2 0.917043 0.180671 0.548407
Si Si3 0.327786 0.179985 0.622786
Si Si4 0.418225 0.818684 0.877955
Si Si5 0.671946 0.681381 0.802506
Si Si6 0.674146 0.680821 0.049488
O O1 0.250000 0.250000 0.709553
O O2 0.139703 0.254390 0.666415
O O3 0.143224 0.213806 0.755090
O O4 0.175223 0.000000 0.703036
O O5 0.898110 0.220188 0.500000
O O6 0.873202 0.269742 0.582910
O O7 0.000000 0.207736 0.553351
O O8 0.905500 0.000000 0.553612
O O9 0.250000 0.250000 0.618489
O O10 0.322236 0.000000 0.625800
O O11 0.500000 0.779802 0.875953
O O12 0.376830 0.750256 0.838298
O O13 0.383071 0.752529 0.920074
O O14 0.411116 0.000000 0.877800
O O15 0.676804 0.500000 0.807075
O O16 0.750000 0.750000 0.806073
O O17 0.676439 0.500000 0.055077
O O18 0.750000 0.750000 0.060138
O O19 0.660550 0.713305 0.000000
#
# Coordination Sequence:
#
# PCOD9490310 Si02
#       6
#    16  16  16  16  16  16
#     4   9  17  31  52  78 106 137 174 217 265 314
#     4   9  19  37  58  77 101 136 176 218 265 317
#     4  11  21  33  53  80 110 141 174 217 265 314
#     4  11  24  39  55  78 111 148 182 221 269 317
#     4  10  20  35  58  83 107 139 179 222 265 314
#     4  10  21  38  61  86 111 141 179 223 267 315
#
# _framework density 17.959537000000001
#
# number of rings (size 3 to 8) (size 9 to 14) (size 15 to 20)
#    0.000    2.000    0.000    5.500    0.000    5.667 
#    0.000    3.333    0.000    1.000    0.000    0.000 
#    0.000    0.000    0.000    0.000    0.000    0.000 
#
# Total GULP energy -267939.070491 kJ/mol
# GULP energy per Si atom -5582.063969 kJ/mol
# Density = 1.791866 g / cm^3
# Si number density = 17.959537 Si / 1000 Ang^3
#
#
#
# Elastic Constant Matrix: (Units=GPa)
#
#
# Indices 1 2 3 4 5 6 
#
# 1 82.9376 58.0774 85.1438 0.0000 0.0000 0.0000
# 2 58.0774 99.0838 80.3088 0.0000 0.0000 0.0000
# 3 85.1438 80.3088 146.7929 0.0000 0.0000 0.0000
# 4 0.0000 0.0000 0.0000 28.2895 0.0000 0.0000
# 5 0.0000 0.0000 0.0000 0.0000 -0.0426 0.0000
# 6 0.0000 0.0000 0.0000 0.0000 0.0000 25.8283
#
#
#
# Elastic Compliance Matrix: (Units=1/GPa)
#
#
# Indices 1 2 3 4 5 6 
#
# 1 0.032097 -0.006691 -0.014957 0.000000 0.000000 0.000000
# 2 -0.006691 0.019528 -0.006803 0.000000 0.000000 0.000000
# 3 -0.014957 -0.006803 0.019209 0.000000 0.000000 0.000000
# 4 0.000000 0.000000 0.000000 0.035349 0.000000 0.000000
# 5 0.000000 0.000000 0.000000 0.000000-23.464571 0.000000
# 6 0.000000 0.000000 0.000000 0.000000 0.000000 0.038717
#
#
# Mechanical properties :
#
#
# Convention : Reuss Voigt Hill
#
# Bulk Modulus (GPa) = 71.76756 86.20825 78.98790
# Shear Modulus (GPa) = -0.21498 17.83397 8.80950
#
# Velocity S-wave (km/s) = -0.34635 3.15462 2.21717
# Velocity P-wave (km/s) = 6.31566 7.83418 7.11554
#
# Compressibility (1/GPa) = 0.01393387
#
# Stress axis : x y z
#
# Youngs Moduli (GPa) = 31.15537 51.20868 52.05838
#
# Poissons Ratio (x) = 0.34264 0.77862
# Poissons Ratio (y) = 0.20846 0.35413
# Poissons Ratio (z) = 0.46598 0.34835
#
# Static dielectric constant tensor:
#      x y z
#    x 1.608330 0.000000 0.000000 
#    y 0.000000 1.599340 0.000000 
#    z 0.000000 0.000000 1.639130 
# 
# From -- ./inp_files/75318.got.cif
#   From: 2010.05.17/outbox.cif.g08.bks.cpg/sg65_38_cif.got.tgz:75318.got - 2010.06.03 17:01:31.
