data_PCOD9490591
_publ_section_title
;
Structure prediction by ZEFSAII (Michael W. Deem and Ramdas Pophale) SiO2 
 PCOD9490591
Probable space group: C M M M
;
_chemical_formula_sum "Si O2"
_cell_formula_units_Z 68
_cell_length_a 9.412097
_cell_length_b 24.413066
_cell_length_c 17.266848
_cell_angle_alpha 90.000000
_cell_angle_beta 90.000000
_cell_angle_gamma 90.000000
_cell_volume 3967.544308
_symmetry_space_group_name_H-M "C M M M"
_symmetry_group_IT_number 65
_symmetry_cell_setting 'orthorhombic'
loop_
_space_group_symop_operation_xyz
x,y,z
-x,-y,z
x,-y,-z
-x,y,-z
-x,-y,-z
x,y,-z
-x,y,z
x,-y,z
1/2+x,1/2+y,z
1/2-x,1/2-y,z
1/2+x,1/2-y,-z
1/2-x,1/2+y,-z
1/2-x,1/2-y,-z
1/2+x,1/2+y,-z
1/2-x,1/2+y,z
1/2+x,1/2-y,z
loop_
_atom_site_type_symbol
_atom_site_label
_atom_site_fract_x
_atom_site_fract_y
_atom_site_fract_z
Si Si1 0.274005 0.500000 0.000000
Si Si2 0.838688 0.000000 0.821967
Si Si3 0.668863 0.876428 0.000000
Si Si4 0.330684 0.192892 0.148075
Si Si5 0.331514 0.903465 0.738043
Si Si6 0.165824 0.065987 0.410832
O O1 0.345571 0.500000 0.084770
O O2 0.196475 0.441143 0.000000
O O3 0.753069 0.947700 0.789989
O O4 0.000000 0.000000 0.791149
O O5 0.721077 0.844666 0.076139
O O6 0.500000 0.870678 0.000000
O O7 0.500000 0.202344 0.139019
O O8 0.250000 0.250000 0.149956
O O9 0.310244 0.155885 0.224013
O O10 0.500000 0.915942 0.739764
O O11 0.267786 0.907721 0.652376
O O12 0.198309 0.080389 0.500000
O O13 0.000000 0.079432 0.396016
O O14 0.179026 0.000000 0.403944
#
# Coordination Sequence:
#
# PCOD9490591 Si02
#       6
#     4   8   8  16  16  16
#     4  12  22  38  56  82 117 150 189 224 279 336
#     4  12  24  37  53  80 116 150 189 230 279 333
#     4  10  20  36  58  82 112 147 184 230 281 332
#     4  10  22  39  57  80 107 146 193 237 280 325
#     4  11  22  36  57  84 113 146 188 232 278 333
#     4   9  18  33  54  83 119 152 180 217 273 336
#
# _framework density 17.139064999999999
#
# number of rings (size 3 to 8) (size 9 to 14) (size 15 to 20)
#    0.000    1.647    3.529    2.471    0.000    3.294 
#    0.000    1.176    0.000    0.706    0.000    0.000 
#    0.000    0.000    0.000    0.000    0.000    0.000 
#
# Total GULP energy -189655.799080 kJ/mol
# GULP energy per Si atom -5578.111738 kJ/mol
# Density = 1.710006 g / cm^3
# Si number density = 17.139065 Si / 1000 Ang^3
#
#
#
# Elastic Constant Matrix: (Units=GPa)
#
#
# Indices 1 2 3 4 5 6 
#
# 1 84.9204 63.7943 67.5347 0.0000 0.0000 0.0000
# 2 63.7943 127.0410 54.0177 0.0000 0.0000 0.0000
# 3 67.5347 54.0177 131.5688 0.0000 0.0000 0.0000
# 4 0.0000 0.0000 0.0000 10.6217 0.0000 0.0000
# 5 0.0000 0.0000 0.0000 0.0000 2.4298 0.0000
# 6 0.0000 0.0000 0.0000 0.0000 0.0000 -71.1138
#
#
#
# Elastic Compliance Matrix: (Units=1/GPa)
#
#
# Indices 1 2 3 4 5 6 
#
# 1 0.026420 -0.009087 -0.009831 0.000000 0.000000 0.000000
# 2 -0.009087 0.012662 -0.000534 0.000000 0.000000 0.000000
# 3 -0.009831 -0.000534 0.012866 0.000000 0.000000 0.000000
# 4 0.000000 0.000000 0.000000 0.094147 0.000000 0.000000
# 5 0.000000 0.000000 0.000000 0.000000 0.411560 0.000000
# 6 0.000000 0.000000 0.000000 0.000000 0.000000 -0.014062
#
#
# Mechanical properties :
#
#
# Convention : Reuss Voigt Hill
#
# Bulk Modulus (GPa) = 76.66229 79.35817 78.01023
# Shear Modulus (GPa) = 8.52015 -1.06689 3.72663
#
# Velocity S-wave (km/s) = 2.23203 -0.78983 1.47617
# Velocity P-wave (km/s) = 7.17421 6.75065 6.96565
#
# Compressibility (1/GPa) = 0.01304422
#
# Stress axis : x y z
#
# Youngs Moduli (GPa) = 37.84974 78.97865 77.72421
#
# Poissons Ratio (x) = 0.71768 0.76409
# Poissons Ratio (y) = 0.34394 0.04151
# Poissons Ratio (z) = 0.37209 0.04218
#
# Static dielectric constant tensor:
#      x y z
#    x 1.577530 0.000000 0.000000 
#    y 0.000000 1.548080 0.000000 
#    z 0.000000 0.000000 1.605340 
# 
# From -- ./inp_files/49269.got.cif
#   From: 2010.05.17/outbox.cif.g08.bks.cpg/sg65_25_cif.got.tgz:49269.got - 2010.06.03 17:01:31.
