data_PCOD9490390
_publ_section_title
;
Structure prediction by ZEFSAII (Michael W. Deem and Ramdas Pophale) SiO2 
 PCOD9490390
Probable space group: C M M M
;
_chemical_formula_sum "Si O2"
_cell_formula_units_Z 96
_cell_length_a 18.362162
_cell_length_b 24.135183
_cell_length_c 12.666700
_cell_angle_alpha 90.000000
_cell_angle_beta 90.000000
_cell_angle_gamma 90.000000
_cell_volume 5613.553881
_symmetry_space_group_name_H-M "C M M M"
_symmetry_group_IT_number 65
_symmetry_cell_setting 'orthorhombic'
loop_
_space_group_symop_operation_xyz
x,y,z
-x,-y,z
x,-y,-z
-x,y,-z
-x,-y,-z
x,y,-z
-x,y,z
x,-y,z
1/2+x,1/2+y,z
1/2-x,1/2-y,z
1/2+x,1/2-y,-z
1/2-x,1/2+y,-z
1/2-x,1/2-y,-z
1/2+x,1/2+y,-z
1/2-x,1/2+y,z
1/2+x,1/2-y,z
loop_
_atom_site_type_symbol
_atom_site_label
_atom_site_fract_x
_atom_site_fract_y
_atom_site_fract_z
Si Si1 0.867262 0.248976 0.000000
Si Si2 0.584648 0.000000 0.126966
Si Si3 0.801254 0.092573 0.624271
Si Si4 0.082601 0.708099 0.220249
Si Si5 0.755454 0.154455 0.000000
Si Si6 0.082979 0.000000 0.372257
Si Si7 0.673293 0.723003 0.623617
Si Si8 0.184541 0.601298 0.799895
O O1 0.910163 0.262078 0.893206
O O2 0.831112 0.188086 0.000000
O O3 0.803744 0.295747 0.000000
O O4 0.629022 0.053634 0.165016
O O5 0.500000 0.000000 0.161923
O O6 0.584470 0.000000 0.000000
O O7 0.784864 0.082140 0.500000
O O8 0.868594 0.053477 0.656021
O O9 0.821667 0.157137 0.634893
O O10 0.732473 0.083253 0.699835
O O11 0.109674 0.750872 0.308108
O O12 0.136890 0.655897 0.223860
O O13 0.000000 0.690040 0.236664
O O14 0.738507 0.118304 0.896129
O O15 0.078288 0.000000 0.500000
O O16 0.000000 0.000000 0.331811
O O17 0.664636 0.736559 0.500000
O O18 0.750000 0.750000 0.659809
#
# Coordination Sequence:
#
# PCOD9490390 Si02
#       8
#     8   8  16  16   8   8  16  16
#     4   9  19  32  50  74 108 138 178 224 277 332
#     4  11  23  38  55  79 113 146 181 234 292 337
#     4  10  20  35  60  85 111 150 188 233 285 333
#     4  11  22  34  53  81 114 149 185 230 285 338
#     4   9  18  31  53  78  97 139 181 229 271 319
#     4   9  19  36  56  83 113 140 184 241 288 329
#     4  10  20  36  56  81 114 150 188 231 280 338
#     4  11  20  36  56  80 111 143 191 234 274 338
#
# _framework density 17.101465999999999
#
# number of rings (size 3 to 8) (size 9 to 14) (size 15 to 20)
#    0.000    1.833    2.500    2.250    2.333    1.000 
#    0.000    1.667    0.000    2.000    0.000    0.583 
#    0.000    0.000    0.000    0.000    0.000    0.000 
#
# Total GULP energy -267806.175346 kJ/mol
# GULP energy per Si atom -5579.295320 kJ/mol
# Density = 1.706254 g / cm^3
# Si number density = 17.101466 Si / 1000 Ang^3
#
#
#
# Elastic Constant Matrix: (Units=GPa)
#
#
# Indices 1 2 3 4 5 6 
#
# 1 116.9819 48.0303 51.2364 0.0000 0.0000 0.0000
# 2 48.0303 89.0951 32.1401 0.0000 0.0000 0.0000
# 3 51.2364 32.1401 67.7641 0.0000 0.0000 0.0000
# 4 0.0000 0.0000 0.0000 4.6761 0.0000 0.0000
# 5 0.0000 0.0000 0.0000 0.0000 -3.0239 0.0000
# 6 0.0000 0.0000 0.0000 0.0000 0.0000 23.2540
#
#
#
# Elastic Compliance Matrix: (Units=1/GPa)
#
#
# Indices 1 2 3 4 5 6 
#
# 1 0.014161 -0.004550 -0.008549 0.000000 0.000000 0.000000
# 2 -0.004550 0.015003 -0.003675 0.000000 0.000000 0.000000
# 3 -0.008549 -0.003675 0.022964 0.000000 0.000000 0.000000
# 4 0.000000 0.000000 0.000000 0.213854 0.000000 0.000000
# 5 0.000000 0.000000 0.000000 0.000000 -0.330702 0.000000
# 6 0.000000 0.000000 0.000000 0.000000 0.000000 0.043003
#
#
# Mechanical properties :
#
#
# Convention : Reuss Voigt Hill
#
# Bulk Modulus (GPa) = 53.82448 59.62829 56.72639
# Shear Modulus (GPa) = 277.38812 14.47686 145.93249
#
# Velocity S-wave (km/s) = 12.74965 2.91267 9.24763
# Velocity P-wave (km/s) = 15.75690 6.80107 12.13537
#
# Compressibility (1/GPa) = 0.01857891
#
# Stress axis : x y z
#
# Youngs Moduli (GPa) = 70.61767 66.65472 43.54616
#
# Poissons Ratio (x) = 0.30328 0.37227
# Poissons Ratio (y) = 0.32131 0.16005
# Poissons Ratio (z) = 0.60370 0.24499
#
# Static dielectric constant tensor:
#      x y z
#    x 1.565800 0.000000 0.000000 
#    y 0.000000 1.578090 0.000000 
#    z 0.000000 0.000000 1.579520 
# 
# From -- ./inp_files/29129.got.cif
#   From: 2010.05.17/outbox.cif.g08.bks.cpg/sg65_15_cif.got.tgz:29129.got - 2010.06.03 17:01:31.
