data_PCOD9490644
_publ_section_title
;
Structure prediction by ZEFSAII (Michael W. Deem and Ramdas Pophale) SiO2 
 PCOD9490644
Probable space group: C M M M
;
_chemical_formula_sum "Si O2"
_cell_formula_units_Z 88
_cell_length_a 8.758136
_cell_length_b 23.889806
_cell_length_c 23.179772
_cell_angle_alpha 90.000000
_cell_angle_beta 90.000000
_cell_angle_gamma 90.000000
_cell_volume 4849.907635
_symmetry_space_group_name_H-M "C M M M"
_symmetry_group_IT_number 65
_symmetry_cell_setting 'orthorhombic'
loop_
_space_group_symop_operation_xyz
x,y,z
-x,-y,z
x,-y,-z
-x,y,-z
-x,-y,-z
x,y,-z
-x,y,z
x,-y,z
1/2+x,1/2+y,z
1/2-x,1/2-y,z
1/2+x,1/2-y,-z
1/2-x,1/2+y,-z
1/2-x,1/2-y,-z
1/2+x,1/2+y,-z
1/2-x,1/2+y,z
1/2+x,1/2-y,z
loop_
_atom_site_type_symbol
_atom_site_label
_atom_site_fract_x
_atom_site_fract_y
_atom_site_fract_z
Si Si1 0.183399 0.882243 0.833244
Si Si2 0.317098 0.688088 0.719239
Si Si3 0.182441 0.310462 0.066846
Si Si4 0.683737 0.500000 0.355372
Si Si5 0.314105 0.500000 0.220128
Si Si6 0.183503 0.617828 0.613458
Si Si7 0.816084 0.687613 0.500000
O O1 0.217933 0.839994 0.780765
O O2 0.257259 0.858222 0.890883
O O3 0.234827 0.943715 0.812577
O O4 0.000000 0.883721 0.840374
O O5 0.500000 0.689181 0.712355
O O6 0.250000 0.750000 0.716085
O O7 0.245399 0.650332 0.669226
O O8 0.250000 0.250000 0.084237
O O9 0.000000 0.307424 0.069977
O O10 0.226971 0.320215 0.000000
O O11 0.500000 0.500000 0.356866
O O12 0.731818 0.500000 0.287467
O O13 0.747608 0.555796 0.384751
O O14 0.500000 0.500000 0.220772
O O15 0.229229 0.652973 0.556874
O O16 0.000000 0.614731 0.615174
O O17 0.750000 0.750000 0.500000
O O18 0.000000 0.691844 0.500000
#
# Coordination Sequence:
#
# PCOD9490644 Si02
#       7
#    16  16  16   8   8  16   8
#     4  10  20  36  59  84 113 150 191 237 287 340
#     4  11  22  36  56  85 118 151 189 242 296 349
#     4  10  21  37  57  83 116 152 192 239 288 341
#     4  11  21  40  64  88 119 154 194 242 292 347
#     4   9  18  37  59  83 115 151 188 234 285 334
#     4  11  23  40  61  87 117 154 197 242 292 349
#     4  10  24  43  62  85 119 156 196 244 293 348
#
# _framework density 18.144676
#
# number of rings (size 3 to 8) (size 9 to 14) (size 15 to 20)
#    0.000    1.636    1.818    3.000    0.000    7.273 
#    0.000    2.727    0.000    2.727    0.000    0.000 
#    0.000    0.000    0.000    0.000    0.000    0.000 
#
# Total GULP energy -245866.942342 kJ/mol
# GULP energy per Si atom -5587.885053 kJ/mol
# Density = 1.810338 g / cm^3
# Si number density = 18.144676 Si / 1000 Ang^3
#
#
#
# Elastic Constant Matrix: (Units=GPa)
#
#
# Indices 1 2 3 4 5 6 
#
# 1 37.8371 43.6074 38.4362 0.0000 0.0000 0.0000
# 2 43.6074 177.4550 71.3696 0.0000 0.0000 0.0000
# 3 38.4362 71.3696 107.0678 0.0000 0.0000 0.0000
# 4 0.0000 0.0000 0.0000 44.2230 0.0000 0.0000
# 5 0.0000 0.0000 0.0000 0.0000 18.1795 0.0000
# 6 0.0000 0.0000 0.0000 0.0000 0.0000 30.0066
#
#
#
# Elastic Compliance Matrix: (Units=1/GPa)
#
#
# Indices 1 2 3 4 5 6 
#
# 1 0.046408 -0.006427 -0.012376 0.000000 0.000000 0.000000
# 2 -0.006427 0.008589 -0.003418 0.000000 0.000000 0.000000
# 3 -0.012376 -0.003418 0.016061 0.000000 0.000000 0.000000
# 4 0.000000 0.000000 0.000000 0.022613 0.000000 0.000000
# 5 0.000000 0.000000 0.000000 0.000000 0.055007 0.000000
# 6 0.000000 0.000000 0.000000 0.000000 0.000000 0.033326
#
#
# Mechanical properties :
#
#
# Convention : Reuss Voigt Hill
#
# Bulk Modulus (GPa) = 37.57090 69.90959 53.74024
# Shear Modulus (GPa) = 21.24782 29.74495 25.49638
#
# Velocity S-wave (km/s) = 3.42573 4.05325 3.75263
# Velocity P-wave (km/s) = 6.03314 7.77931 6.96119
#
# Compressibility (1/GPa) = 0.02661635
#
# Stress axis : x y z
#
# Youngs Moduli (GPa) = 21.54812 116.42324 62.26133
#
# Poissons Ratio (x) = 0.74822 0.77054
# Poissons Ratio (y) = 0.13848 0.21283
# Poissons Ratio (z) = 0.26668 0.39798
#
# Static dielectric constant tensor:
#      x y z
#    x 1.611770 0.000000 0.000000 
#    y 0.000000 1.650250 0.000000 
#    z 0.000000 0.000000 1.606950 
# 
# From -- ./inp_files/59859.got.cif
#   From: 2010.05.17/outbox.cif.g08.bks.cpg/sg65_30_cif.got.tgz:59859.got - 2010.06.03 17:01:31.
