data_PCOD9490106
_publ_section_title
;
Structure prediction by ZEFSAII (Michael W. Deem and Ramdas Pophale) SiO2 
 PCOD9490106
Probable space group: C M M M
;
_chemical_formula_sum "Si O2"
_cell_formula_units_Z 88
_cell_length_a 8.897106
_cell_length_b 18.644522
_cell_length_c 29.443503
_cell_angle_alpha 90.000000
_cell_angle_beta 90.000000
_cell_angle_gamma 90.000000
_cell_volume 4884.155661
_symmetry_space_group_name_H-M "C M M M"
_symmetry_group_IT_number 65
_symmetry_cell_setting 'orthorhombic'
loop_
_space_group_symop_operation_xyz
x,y,z
-x,-y,z
x,-y,-z
-x,y,-z
-x,-y,-z
x,y,-z
-x,y,z
x,-y,z
1/2+x,1/2+y,z
1/2-x,1/2-y,z
1/2+x,1/2-y,-z
1/2-x,1/2+y,-z
1/2-x,1/2-y,-z
1/2+x,1/2+y,-z
1/2-x,1/2+y,z
1/2+x,1/2-y,z
loop_
_atom_site_type_symbol
_atom_site_label
_atom_site_fract_x
_atom_site_fract_y
_atom_site_fract_z
Si Si1 0.319233 0.670892 0.910593
Si Si2 0.827005 0.087233 0.267300
Si Si3 0.181385 0.328995 0.449711
Si Si4 0.678763 0.914776 0.827349
Si Si5 0.317297 0.582319 0.000000
Si Si6 0.319962 0.915286 0.361011
O O1 0.500000 0.675407 0.910028
O O2 0.250000 0.750000 0.912724
O O3 0.261838 0.629751 0.866067
O O4 0.271969 0.625095 0.954877
O O5 0.734498 0.108058 0.222646
O O6 0.757657 0.111963 0.315001
O O7 0.000000 0.109268 0.262922
O O8 0.822338 0.000000 0.268586
O O9 0.222104 0.357893 0.500000
O O10 0.250000 0.250000 0.446012
O O11 0.230081 0.375855 0.406798
O O12 0.000000 0.324480 0.448242
O O13 0.500000 0.905448 0.830964
O O14 0.712190 0.000000 0.832580
O O15 0.263997 0.500000 0.000000
O O16 0.500000 0.580278 0.000000
O O17 0.500000 0.907060 0.356221
O O18 0.288967 0.000000 0.365446
#
# Coordination Sequence:
#
# PCOD9490106 Si02
#       6
#    16  16  16  16   8  16
#     4  11  22  37  57  81 113 148 181 219 265 314
#     4   9  17  30  50  76 104 134 169 210 258 310
#     4   9  18  32  49  69  95 129 166 203 247 301
#     4  10  20  35  56  81 108 139 178 221 263 311
#     4   9  19  36  59  85 110 141 182 223 262 310
#     4   9  17  30  49  73 100 129 164 209 257 302
#
# _framework density 18.017444000000001
#
# number of rings (size 3 to 8) (size 9 to 14) (size 15 to 20)
#    0.000    2.455    0.000    2.455    0.000    5.091 
#    0.000    4.091    0.000    5.455    0.000    5.091 
#    0.000    0.000    0.000    0.000    0.000    0.000 
#
# Total GULP energy -245451.656141 kJ/mol
# GULP energy per Si atom -5578.446730 kJ/mol
# Density = 1.797644 g / cm^3
# Si number density = 18.017444 Si / 1000 Ang^3
#
#
#
# Elastic Constant Matrix: (Units=GPa)
#
#
# Indices 1 2 3 4 5 6 
#
# 1 49.4736 42.9763 59.0718 0.0000 0.0000 0.0000
# 2 42.9763 75.5242 78.4007 0.0000 0.0000 0.0000
# 3 59.0718 78.4007 194.9118 0.0000 0.0000 0.0000
# 4 0.0000 0.0000 0.0000 -24.9576 0.0000 0.0000
# 5 0.0000 0.0000 0.0000 0.0000 25.9023 0.0000
# 6 0.0000 0.0000 0.0000 0.0000 0.0000 20.9234
#
#
#
# Elastic Compliance Matrix: (Units=1/GPa)
#
#
# Indices 1 2 3 4 5 6 
#
# 1 0.043146 -0.018848 -0.005495 0.000000 0.000000 0.000000
# 2 -0.018848 0.030966 -0.006744 0.000000 0.000000 0.000000
# 3 -0.005495 -0.006744 0.009508 0.000000 0.000000 0.000000
# 4 0.000000 0.000000 0.000000 -0.040068 0.000000 0.000000
# 5 0.000000 0.000000 0.000000 0.000000 0.038607 0.000000
# 6 0.000000 0.000000 0.000000 0.000000 0.000000 0.047793
#
#
# Mechanical properties :
#
#
# Convention : Reuss Voigt Hill
#
# Bulk Modulus (GPa) = 46.62350 75.64524 61.13437
# Shear Modulus (GPa) = 25.09087 13.67101 19.38094
#
# Velocity S-wave (km/s) = 3.73579 2.75756 3.28331
# Velocity P-wave (km/s) = 6.67392 7.22595 6.95542
#
# Compressibility (1/GPa) = 0.02144841
#
# Stress axis : x y z
#
# Youngs Moduli (GPa) = 23.17688 32.29311 105.16911
#
# Poissons Ratio (x) = 0.60865 0.57792
# Poissons Ratio (y) = 0.43683 0.70923
# Poissons Ratio (z) = 0.12736 0.21777
#
# Static dielectric constant tensor:
#      x y z
#    x 1.604310 0.000000 0.000000 
#    y 0.000000 1.593890 0.000000 
#    z 0.000000 0.000000 1.613660 
# 
# From -- ./inp_files/67480.got.cif
#   From: 2010.05.17/outbox.cif.g08.bks.cpg/sg65_34_cif.got.tgz:67480.got - 2010.06.03 17:01:31.
