data_PCOD9490131
_publ_section_title
;
Structure prediction by ZEFSAII (Michael W. Deem and Ramdas Pophale) SiO2 
 PCOD9490131
Probable space group: C M M M
;
_chemical_formula_sum "Si O2"
_cell_formula_units_Z 88
_cell_length_a 8.227062
_cell_length_b 18.638356
_cell_length_c 30.078075
_cell_angle_alpha 90.000000
_cell_angle_beta 90.000000
_cell_angle_gamma 90.000000
_cell_volume 4612.139247
_symmetry_space_group_name_H-M "C M M M"
_symmetry_group_IT_number 65
_symmetry_cell_setting 'orthorhombic'
loop_
_space_group_symop_operation_xyz
x,y,z
-x,-y,z
x,-y,-z
-x,y,-z
-x,-y,-z
x,y,-z
-x,y,z
x,-y,z
1/2+x,1/2+y,z
1/2-x,1/2-y,z
1/2+x,1/2-y,-z
1/2-x,1/2+y,-z
1/2-x,1/2-y,-z
1/2+x,1/2+y,-z
1/2-x,1/2+y,z
1/2+x,1/2-y,z
loop_
_atom_site_type_symbol
_atom_site_label
_atom_site_fract_x
_atom_site_fract_y
_atom_site_fract_z
Si Si1 0.805976 0.831835 0.819032
Si Si2 0.693772 0.082461 0.905273
Si Si3 0.301028 0.582630 0.731940
Si Si4 0.803324 0.832761 0.644739
Si Si5 0.303564 0.666673 0.452240
Si Si6 0.306224 0.582938 0.000000
O O1 0.750000 0.750000 0.818338
O O2 0.751781 0.871536 0.863765
O O3 0.745337 0.874102 0.775382
O O4 0.000000 0.833117 0.817625
O O5 0.500000 0.079717 0.904773
O O6 0.747381 0.113543 0.953085
O O7 0.757090 0.000000 0.901620
O O8 0.500000 0.583443 0.731874
O O9 0.250005 0.500000 0.733862
O O10 0.246501 0.621162 0.686642
O O11 0.750000 0.750000 0.649330
O O12 0.748569 0.861177 0.596035
O O13 0.000000 0.833898 0.644928
O O14 0.247318 0.635662 0.500000
O O15 0.500000 0.663673 0.452367
O O16 0.250000 0.750000 0.452300
O O17 0.245033 0.500000 0.000000
O O18 0.500000 0.582485 0.000000
#
# Coordination Sequence:
#
# PCOD9490131 Si02
#       6
#    16  16  16  16  16   8
#     4  11  22  36  54  75 101 132 168 210 256 305
#     4  10  20  35  56  82 111 141 174 211 250 293
#     4   9  18  32  50  71  94 124 162 201 244 298
#     4   9  16  27  45  67  92 122 156 197 242 288
#     4   8  13  21  35  58  87 117 150 189 233 281
#     4   9  17  31  54  83 112 143 178 211 245 289
#
# _framework density 19.080082999999998
#
# number of rings (size 3 to 8) (size 9 to 14) (size 15 to 20)
#    0.000    2.636    0.000    2.455    0.000    2.909 
#    0.000    1.364    0.000    3.273    0.000    3.818 
#    0.000    0.000    0.000   29.455    0.000   13.818 
#
# Total GULP energy -245240.939289 kJ/mol
# GULP energy per Si atom -5573.657711 kJ/mol
# Density = 1.903666 g / cm^3
# Si number density = 19.080083 Si / 1000 Ang^3
#
#
#
# Elastic Constant Matrix: (Units=GPa)
#
#
# Indices 1 2 3 4 5 6 
#
# 1 21.4649 10.4053 25.3651 0.0000 0.0000 0.0000
# 2 10.4053 94.7353 97.9988 0.0000 0.0000 0.0000
# 3 25.3651 97.9988 256.4561 0.0000 0.0000 0.0000
# 4 0.0000 0.0000 0.0000 40.2944 0.0000 0.0000
# 5 0.0000 0.0000 0.0000 0.0000 -17.8738 0.0000
# 6 0.0000 0.0000 0.0000 0.0000 0.0000 13.9094
#
#
#
# Elastic Compliance Matrix: (Units=1/GPa)
#
#
# Indices 1 2 3 4 5 6 
#
# 1 0.052778 -0.000657 -0.004969 0.000000 0.000000 0.000000
# 2 -0.000657 0.017464 -0.006609 0.000000 0.000000 0.000000
# 3 -0.004969 -0.006609 0.006916 0.000000 0.000000 0.000000
# 4 0.000000 0.000000 0.000000 0.024817 0.000000 0.000000
# 5 0.000000 0.000000 0.000000 0.000000 -0.055948 0.000000
# 6 0.000000 0.000000 0.000000 0.000000 0.000000 0.071894
#
#
# Mechanical properties :
#
#
# Convention : Reuss Voigt Hill
#
# Bulk Modulus (GPa) = 18.97910 71.13276 45.05593
# Shear Modulus (GPa) = 31.25920 23.19181 27.22551
#
# Velocity S-wave (km/s) = 4.05200 3.49018 3.78154
# Velocity P-wave (km/s) = 5.64449 7.32147 6.53698
#
# Compressibility (1/GPa) = 0.05268954
#
# Stress axis : x y z
#
# Youngs Moduli (GPa) = 18.94730 57.26054 144.59035
#
# Poissons Ratio (x) = 0.03759 0.71850
# Poissons Ratio (y) = 0.01244 0.95553
# Poissons Ratio (z) = 0.09415 0.37841
#
# Static dielectric constant tensor:
#      x y z
#    x 1.654760 0.000000 0.000000 
#    y 0.000000 1.538100 0.000000 
#    z 0.000000 0.000000 1.709770 
# 
# From -- ./inp_files/76508.got.cif
#   From: 2010.05.17/outbox.cif.g08.bks.cpg/sg65_39_cif.got.tgz:76508.got - 2010.06.03 17:01:31.
