data_PCOD9490019
_publ_section_title
;
Structure prediction by ZEFSAII (Michael W. Deem and Ramdas Pophale) SiO2 
 PCOD9490019
Probable space group: C M M M
;
_chemical_formula_sum "Si O2"
_cell_formula_units_Z 72
_cell_length_a 21.755901
_cell_length_b 21.931591
_cell_length_c 7.679770
_cell_angle_alpha 90.000000
_cell_angle_beta 90.000000
_cell_angle_gamma 90.000000
_cell_volume 3664.337151
_symmetry_space_group_name_H-M "C M M M"
_symmetry_group_IT_number 65
_symmetry_cell_setting 'orthorhombic'
loop_
_space_group_symop_operation_xyz
x,y,z
-x,-y,z
x,-y,-z
-x,y,-z
-x,-y,-z
x,y,-z
-x,y,z
x,-y,z
1/2+x,1/2+y,z
1/2-x,1/2-y,z
1/2+x,1/2-y,-z
1/2-x,1/2+y,-z
1/2-x,1/2-y,-z
1/2+x,1/2+y,-z
1/2-x,1/2+y,z
1/2+x,1/2-y,z
loop_
_atom_site_type_symbol
_atom_site_label
_atom_site_fract_x
_atom_site_fract_y
_atom_site_fract_z
Si Si1 0.428603 0.500000 0.195723
Si Si2 0.763293 0.569748 0.799635
Si Si3 0.570068 0.261175 0.710477
Si Si4 0.301825 0.199370 0.791329
Si Si5 0.133328 0.883122 0.302572
O O1 0.500000 0.500000 0.174652
O O2 0.409838 0.559153 0.299321
O O3 0.400363 0.500000 0.000000
O O4 0.767137 0.500000 0.726225
O O5 0.795000 0.630179 0.719922
O O6 0.693206 0.593327 0.795798
O O7 0.783971 0.564876 0.000000
O O8 0.566667 0.262732 0.500000
O O9 0.500000 0.248207 0.772006
O O10 0.627982 0.219108 0.758581
O O11 0.595124 0.326951 0.772330
O O12 0.250000 0.250000 0.729251
O O13 0.291922 0.196322 0.000000
O O14 0.152317 0.867397 0.500000
#
# Coordination Sequence:
#
# PCOD9490019 Si02
#       5
#     8  16  16  16  16
#     4  11  23  35  47  67 101 147 190 223 264 319
#     4  10  20  35  55  79 112 146 178 222 277 332
#     4  10  22  38  55  79 112 147 183 228 282 333
#     4  10  20  35  57  84 110 141 187 234 274 326
#     4  11  21  33  52  77 107 142 182 224 268 324
#
# _framework density 19.648848000000001
#
# number of rings (size 3 to 8) (size 9 to 14) (size 15 to 20)
#    0.000    1.667    3.333    1.667    0.000    4.444 
#    0.000    0.000    0.000    0.667    0.000    4.667 
#    0.000    0.000    0.000    0.000    0.000    0.000 
#
# Total GULP energy -200433.146246 kJ/mol
# GULP energy per Si atom -5567.587396 kJ/mol
# Density = 1.960413 g / cm^3
# Si number density = 19.648848 Si / 1000 Ang^3
#
#
#
# Elastic Constant Matrix: (Units=GPa)
#
#
# Indices 1 2 3 4 5 6 
#
# 1 125.3063 100.6425 -5.3127 0.0000 0.0000 0.0000
# 2 100.6425 159.1839 9.6801 0.0000 0.0000 0.0000
# 3 -5.3127 9.6801 41.9201 0.0000 0.0000 0.0000
# 4 0.0000 0.0000 0.0000 12.1312 0.0000 0.0000
# 5 0.0000 0.0000 0.0000 0.0000 20.1554 0.0000
# 6 0.0000 0.0000 0.0000 0.0000 0.0000 46.2848
#
#
#
# Elastic Compliance Matrix: (Units=1/GPa)
#
#
# Indices 1 2 3 4 5 6 
#
# 1 0.017090 -0.011093 0.004727 0.000000 0.000000 0.000000
# 2 -0.011093 0.013571 -0.004540 0.000000 0.000000 0.000000
# 3 0.004727 -0.004540 0.025502 0.000000 0.000000 0.000000
# 4 0.000000 0.000000 0.000000 0.082432 0.000000 0.000000
# 5 0.000000 0.000000 0.000000 0.000000 0.049615 0.000000
# 6 0.000000 0.000000 0.000000 0.000000 0.000000 0.021605
#
#
# Mechanical properties :
#
#
# Convention : Reuss Voigt Hill
#
# Bulk Modulus (GPa) = 29.10869 59.60336 44.35602
# Shear Modulus (GPa) = 20.56965 30.47429 25.52197
#
# Velocity S-wave (km/s) = 3.23904 3.94248 3.60794
# Velocity P-wave (km/s) = 5.36983 7.15013 6.32295
#
# Compressibility (1/GPa) = 0.03435400
#
# Stress axis : x y z
#
# Youngs Moduli (GPa) = 58.51353 73.68528 39.21214
#
# Poissons Ratio (x) = 0.81735 -0.18537
# Poissons Ratio (y) = 0.64906 0.17801
# Poissons Ratio (z) = -0.27661 0.33450
#
# Static dielectric constant tensor:
#      x y z
#    x 1.719630 0.000000 0.000000 
#    y 0.000000 1.739440 0.000000 
#    z 0.000000 0.000000 1.767770 
# 
# From -- ./inp_files/11222.got.cif
#   From: 2010.05.17/outbox.cif.g08.bks.cpg/sg65_6_cif.got.tgz:11222.got - 2010.06.03 17:01:31.
