data_PCOD9490995
_publ_section_title
;
Structure prediction by ZEFSAII (Michael W. Deem and Ramdas Pophale) SiO2 
 PCOD9490995
Probable space group: C M M M
;
_chemical_formula_sum "Si O2"
_cell_formula_units_Z 66
_cell_length_a 15.087654
_cell_length_b 8.013513
_cell_length_c 28.600505
_cell_angle_alpha 90.000000
_cell_angle_beta 90.000000
_cell_angle_gamma 90.000000
_cell_volume 3457.947245
_symmetry_space_group_name_H-M "C M M M"
_symmetry_group_IT_number 65
_symmetry_cell_setting 'orthorhombic'
loop_
_space_group_symop_operation_xyz
x,y,z
-x,-y,z
x,-y,-z
-x,y,-z
-x,-y,-z
x,y,-z
-x,y,z
x,-y,z
1/2+x,1/2+y,z
1/2-x,1/2-y,z
1/2+x,1/2-y,-z
1/2-x,1/2+y,-z
1/2-x,1/2-y,-z
1/2+x,1/2+y,-z
1/2-x,1/2+y,z
1/2+x,1/2-y,z
loop_
_atom_site_type_symbol
_atom_site_label
_atom_site_fract_x
_atom_site_fract_y
_atom_site_fract_z
Si Si1 0.000000 0.500000 0.000000
Si Si2 0.500000 0.308702 0.924295
Si Si3 0.147632 0.298966 0.852940
Si Si4 0.147470 0.701217 0.500000
Si Si5 0.351534 0.199227 0.253004
Si Si6 0.500000 0.196697 0.429369
Si Si7 0.000000 0.807890 0.675424
O O1 0.000000 0.348261 0.959770
O O2 0.500000 0.500000 0.943177
O O3 0.414743 0.285167 0.890927
O O4 0.138418 0.500000 0.856064
O O5 0.250000 0.250000 0.860150
O O6 0.123575 0.246449 0.799826
O O7 0.148575 0.500000 0.500000
O O8 0.250000 0.750000 0.500000
O O9 0.088754 0.760943 0.455433
O O10 0.250000 0.250000 0.260760
O O11 0.415610 0.267914 0.292433
O O12 0.358154 0.000000 0.253666
O O13 0.500000 0.217349 0.374105
O O14 0.500000 0.000000 0.438906
O O15 0.000000 0.000000 0.663348
#
# Coordination Sequence:
#
# PCOD9490995 Si02
#       7
#     2   8  16   8  16   8   8
#     4  12  26  48  64  90 132 154 210 256 308 368
#     4  12  24  42  69  91 124 164 200 252 311 364
#     4  10  20  38  64  94 124 157 204 251 296 360
#     4   9  19  37  62  84 104 139 191 245 297 352
#     4  10  21  37  59  87 122 159 198 246 293 348
#     4   9  20  39  57  78 111 151 190 237 294 360
#     4  12  24  36  54  83 123 161 201 238 299 356
#
# _framework density 19.086468
#
# number of rings (size 3 to 8) (size 9 to 14) (size 15 to 20)
#    0.000    1.697    1.212    4.182    0.000    7.758 
#    0.000    4.242    0.000    0.000    0.000    0.000 
#    0.000    0.000    0.000    0.000    0.000    0.000 
#
# Total GULP energy -183942.292032 kJ/mol
# GULP energy per Si atom -5574.008849 kJ/mol
# Density = 1.904303 g / cm^3
# Si number density = 19.086468 Si / 1000 Ang^3
#
#
#
# Elastic Constant Matrix: (Units=GPa)
#
#
# Indices 1 2 3 4 5 6 
#
# 1 114.2763 18.5041 73.1455 0.0000 0.0000 0.0000
# 2 18.5041 75.6868 23.1799 0.0000 0.0000 0.0000
# 3 73.1455 23.1799 128.3336 0.0000 0.0000 0.0000
# 4 0.0000 0.0000 0.0000 17.4977 0.0000 0.0000
# 5 0.0000 0.0000 0.0000 0.0000 -16.6492 0.0000
# 6 0.0000 0.0000 0.0000 0.0000 0.0000 33.3260
#
#
#
# Elastic Compliance Matrix: (Units=1/GPa)
#
#
# Indices 1 2 3 4 5 6 
#
# 1 0.013852 -0.001025 -0.007710 0.000000 0.000000 0.000000
# 2 -0.001025 0.014062 -0.001956 0.000000 0.000000 0.000000
# 3 -0.007710 -0.001956 0.012540 0.000000 0.000000 0.000000
# 4 0.000000 0.000000 0.000000 0.057151 0.000000 0.000000
# 5 0.000000 0.000000 0.000000 0.000000 -0.060063 0.000000
# 6 0.000000 0.000000 0.000000 0.000000 0.000000 0.030007
#
#
# Mechanical properties :
#
#
# Convention : Reuss Voigt Hill
#
# Bulk Modulus (GPa) = 52.43258 60.88396 56.65827
# Shear Modulus (GPa) = 52.47391 20.39937 36.43664
#
# Velocity S-wave (km/s) = 5.24904 3.27278 4.37398
# Velocity P-wave (km/s) = 8.01669 6.80071 7.43360
#
# Compressibility (1/GPa) = 0.01907211
#
# Stress axis : x y z
#
# Youngs Moduli (GPa) = 72.19425 71.11411 79.74714
#
# Poissons Ratio (x) = 0.07291 0.61482
# Poissons Ratio (y) = 0.07402 0.15595
# Poissons Ratio (z) = 0.55659 0.13907
#
# Static dielectric constant tensor:
#      x y z
#    x 1.643140 0.000000 0.000000 
#    y 0.000000 1.678460 0.000000 
#    z 0.000000 0.000000 1.662720 
# 
# From -- ./inp_files/72459.got.cif
#   From: 2010.05.17/outbox.cif.g08.bks.cpg/sg65_37_cif.got.tgz:72459.got - 2010.06.03 17:01:31.
