data_PCOD9490429
_publ_section_title
;
Structure prediction by ZEFSAII (Michael W. Deem and Ramdas Pophale) SiO2 
 PCOD9490429
Probable space group: C M M M
;
_chemical_formula_sum "Si O2"
_cell_formula_units_Z 80
_cell_length_a 15.112327
_cell_length_b 8.219763
_cell_length_c 31.529229
_cell_angle_alpha 90.000000
_cell_angle_beta 90.000000
_cell_angle_gamma 90.000000
_cell_volume 3916.552828
_symmetry_space_group_name_H-M "C M M M"
_symmetry_group_IT_number 65
_symmetry_cell_setting 'orthorhombic'
loop_
_space_group_symop_operation_xyz
x,y,z
-x,-y,z
x,-y,-z
-x,y,-z
-x,-y,-z
x,y,-z
-x,y,z
x,-y,z
1/2+x,1/2+y,z
1/2-x,1/2-y,z
1/2+x,1/2-y,-z
1/2-x,1/2+y,-z
1/2-x,1/2-y,-z
1/2+x,1/2+y,-z
1/2-x,1/2+y,z
1/2+x,1/2-y,z
loop_
_atom_site_type_symbol
_atom_site_label
_atom_site_fract_x
_atom_site_fract_y
_atom_site_fract_z
Si Si1 0.351410 0.193577 0.727972
Si Si2 0.500000 0.303133 0.888584
Si Si3 0.146794 0.802974 0.454365
Si Si4 0.147134 0.194956 0.362963
Si Si5 0.850357 0.803721 0.047557
Si Si6 0.500000 0.803238 0.208248
O O1 0.250000 0.250000 0.731886
O O2 0.388552 0.242564 0.681683
O O3 0.414127 0.255092 0.765554
O O4 0.350482 0.000000 0.729360
O O5 0.500000 0.500000 0.888773
O O6 0.584832 0.246215 0.915556
O O7 0.500000 0.248141 0.840314
O O8 0.109467 0.747349 0.500000
O O9 0.250000 0.750000 0.454402
O O10 0.109611 0.748802 0.408651
O O11 0.142738 0.000000 0.454312
O O12 0.250000 0.250000 0.363046
O O13 0.143226 0.000000 0.361973
O O14 0.750000 0.750000 0.054548
O O15 0.853500 0.000000 0.047315
O O16 0.877265 0.749228 0.000000
O O17 0.500000 0.000000 0.209586
#
# Coordination Sequence:
#
# PCOD9490429 Si02
#       6
#    16   8  16  16  16   8
#     4  10  20  36  55  74  98 130 168 212 261 309
#     4  10  21  36  56  80 108 143 179 218 261 305
#     4   8  13  20  31  52  85 120 151 187 234 289
#     4   9  15  24  41  65  91 122 160 201 246 297
#     4   9  18  34  56  83 114 147 182 217 255 301
#     4  10  24  41  55  75 105 139 174 215 265 316
#
# _framework density 20.426124999999999
#
# number of rings (size 3 to 8) (size 9 to 14) (size 15 to 20)
#    0.000    2.800    0.000    2.700    0.000    5.200 
#    0.000    4.000    0.000    3.000    0.000    0.700 
#    0.000    5.600    0.000    0.000    0.000    0.000 
#
# Total GULP energy -222967.737534 kJ/mol
# GULP energy per Si atom -5574.193438 kJ/mol
# Density = 2.037963 g / cm^3
# Si number density = 20.426125 Si / 1000 Ang^3
#
#
#
# Elastic Constant Matrix: (Units=GPa)
#
#
# Indices 1 2 3 4 5 6 
#
# 1 88.6960 11.0209 95.9974 0.0000 0.0000 0.0000
# 2 11.0209 21.5523 23.0703 0.0000 0.0000 0.0000
# 3 95.9974 23.0703 255.8961 0.0000 0.0000 0.0000
# 4 0.0000 0.0000 0.0000 28.5090 0.0000 0.0000
# 5 0.0000 0.0000 0.0000 0.0000 -352.0214 0.0000
# 6 0.0000 0.0000 0.0000 0.0000 0.0000 10.4114
#
#
#
# Elastic Compliance Matrix: (Units=1/GPa)
#
#
# Indices 1 2 3 4 5 6 
#
# 1 0.019086 -0.002319 -0.006951 0.000000 0.000000 0.000000
# 2 -0.002319 0.051637 -0.003785 0.000000 0.000000 0.000000
# 3 -0.006951 -0.003785 0.006857 0.000000 0.000000 0.000000
# 4 0.000000 0.000000 0.000000 0.035077 0.000000 0.000000
# 5 0.000000 0.000000 0.000000 0.000000 -0.002841 0.000000
# 6 0.000000 0.000000 0.000000 0.000000 0.000000 0.096049
#
#
# Mechanical properties :
#
#
# Convention : Reuss Voigt Hill
#
# Bulk Modulus (GPa) = 19.42940 69.59128 44.51034
# Shear Modulus (GPa) = 20.06986 -46.88315 -13.40665
#
# Velocity S-wave (km/s) = 3.13798 -4.79608 -2.56471
# Velocity P-wave (km/s) = 4.76045 1.86383 3.61495
#
# Compressibility (1/GPa) = 0.05146839
#
# Stress axis : x y z
#
# Youngs Moduli (GPa) = 52.39573 19.36610 145.84491
#
# Poissons Ratio (x) = 0.04491 1.01372
# Poissons Ratio (y) = 0.12152 0.55206
# Poissons Ratio (z) = 0.36419 0.07331
#
# Static dielectric constant tensor:
#      x y z
#    x 1.803630 0.000000 0.000000 
#    y 0.000000 1.708550 0.000000 
#    z 0.000000 0.000000 1.761720 
# 
# From -- ./inp_files/75077.got.cif
#   From: 2010.05.17/outbox.cif.g08.bks.cpg/sg65_38_cif.got.tgz:75077.got - 2010.06.03 17:01:31.
