data_PCOD9490457
_publ_section_title
;
Structure prediction by ZEFSAII (Michael W. Deem and Ramdas Pophale) SiO2 
 PCOD9490457
Probable space group: C M M M
;
_chemical_formula_sum "Si O2"
_cell_formula_units_Z 56
_cell_length_a 9.599409
_cell_length_b 41.189408
_cell_length_c 7.799103
_cell_angle_alpha 90.000000
_cell_angle_beta 90.000000
_cell_angle_gamma 90.000000
_cell_volume 3083.718328
_symmetry_space_group_name_H-M "C M M M"
_symmetry_group_IT_number 65
_symmetry_cell_setting 'orthorhombic'
loop_
_space_group_symop_operation_xyz
x,y,z
-x,-y,z
x,-y,-z
-x,y,-z
-x,-y,-z
x,y,-z
-x,y,z
x,-y,z
1/2+x,1/2+y,z
1/2-x,1/2-y,z
1/2+x,1/2-y,-z
1/2-x,1/2+y,-z
1/2-x,1/2-y,-z
1/2+x,1/2+y,-z
1/2-x,1/2+y,z
1/2+x,1/2-y,z
loop_
_atom_site_type_symbol
_atom_site_label
_atom_site_fract_x
_atom_site_fract_y
_atom_site_fract_z
Si Si1 0.330829 0.830880 0.190325
Si Si2 0.669174 0.783745 0.500000
Si Si3 0.161578 0.964011 0.709197
Si Si4 0.338481 0.097474 0.292143
O O1 0.500000 0.832239 0.195825
O O2 0.290837 0.805371 0.335140
O O3 0.284479 0.867717 0.228322
O O4 0.287443 0.821045 0.000000
O O5 0.500000 0.779292 0.500000
O O6 0.750000 0.750000 0.500000
O O7 0.165673 0.963801 0.500000
O O8 0.251733 0.933570 0.767865
O O9 0.000000 0.960490 0.758725
O O10 0.210044 0.000000 0.763533
O O11 0.334831 0.098513 0.500000
O O12 0.500000 0.094038 0.240633
#
# Coordination Sequence:
#
# PCOD9490457 Si02
#       4
#    16   8  16  16
#     4   9  17  31  52  75 100 131 163 197 241 290
#     4  10  20  36  56  78 103 130 161 195 236 289
#     4   8  14  24  38  60  92 128 162 196 241 293
#     4   9  15  25  44  68  91 118 159 205 241 278
#
# _framework density 18.159894000000001
#
# number of rings (size 3 to 8) (size 9 to 14) (size 15 to 20)
#    0.000    3.143    1.429    0.857    0.000    1.143 
#    0.000    4.286    0.000    3.429    0.000    6.000 
#    0.000    0.000    0.000    0.000    0.000    0.000 
#
# Total GULP energy -156031.681118 kJ/mol
# GULP energy per Si atom -5572.560040 kJ/mol
# Density = 1.811856 g / cm^3
# Si number density = 18.159894 Si / 1000 Ang^3
#
#
#
# Elastic Constant Matrix: (Units=GPa)
#
#
# Indices 1 2 3 4 5 6 
#
# 1 32.7178 61.2940 26.1486 0.0000 0.0000 0.0000
# 2 61.2940 204.1323 75.9797 0.0000 0.0000 0.0000
# 3 26.1486 75.9797 86.3083 0.0000 0.0000 0.0000
# 4 0.0000 0.0000 0.0000 -8.6606 0.0000 0.0000
# 5 0.0000 0.0000 0.0000 0.0000 1.9297 0.0000
# 6 0.0000 0.0000 0.0000 0.0000 0.0000 37.0950
#
#
#
# Elastic Compliance Matrix: (Units=1/GPa)
#
#
# Indices 1 2 3 4 5 6 
#
# 1 0.070813 -0.019748 -0.004069 0.000000 0.000000 0.000000
# 2 -0.019748 0.012794 -0.005280 0.000000 0.000000 0.000000
# 3 -0.004069 -0.005280 0.017467 0.000000 0.000000 0.000000
# 4 0.000000 0.000000 0.000000 -0.115466 0.000000 0.000000
# 5 0.000000 0.000000 0.000000 0.000000 0.518222 0.000000
# 6 0.000000 0.000000 0.000000 0.000000 0.000000 0.026958
#
#
# Mechanical properties :
#
#
# Convention : Reuss Voigt Hill
#
# Bulk Modulus (GPa) = 23.32088 72.22255 47.77172
# Shear Modulus (GPa) = 8.28809 16.72188 12.50499
#
# Velocity S-wave (km/s) = 2.13866 3.03778 2.62697
# Velocity P-wave (km/s) = 4.35526 7.22225 5.96361
#
# Compressibility (1/GPa) = 0.04288003
#
# Stress axis : x y z
#
# Youngs Moduli (GPa) = 14.12162 78.16399 57.25118
#
# Poissons Ratio (x) = 1.54361 0.23296
# Poissons Ratio (y) = 0.27888 0.30226
# Poissons Ratio (z) = 0.05746 0.41267
#
# Static dielectric constant tensor:
#      x y z
#    x 1.600380 0.000000 0.000000 
#    y 0.000000 1.607280 0.000000 
#    z 0.000000 0.000000 1.666320 
# 
# From -- ./inp_files/4431.got.cif
#   From: 2010.05.17/outbox.cif.g08.bks.cpg/sg65_3_cif.got.tgz:4431.got - 2010.06.03 17:01:31.
