data_PCOD9490700
_publ_section_title
;
Structure prediction by ZEFSAII (Michael W. Deem and Ramdas Pophale) SiO2 
 PCOD9490700
Probable space group: C M M M
;
_chemical_formula_sum "Si O2"
_cell_formula_units_Z 116
_cell_length_a 30.885739
_cell_length_b 7.747646
_cell_length_c 24.238482
_cell_angle_alpha 90.000000
_cell_angle_beta 90.000000
_cell_angle_gamma 90.000000
_cell_volume 5800.069314
_symmetry_space_group_name_H-M "C M M M"
_symmetry_group_IT_number 65
_symmetry_cell_setting 'orthorhombic'
loop_
_space_group_symop_operation_xyz
x,y,z
-x,-y,z
x,-y,-z
-x,y,-z
-x,-y,-z
x,y,-z
-x,y,z
x,-y,z
1/2+x,1/2+y,z
1/2-x,1/2-y,z
1/2+x,1/2-y,-z
1/2-x,1/2+y,-z
1/2-x,1/2-y,-z
1/2+x,1/2+y,-z
1/2-x,1/2+y,z
1/2+x,1/2-y,z
loop_
_atom_site_type_symbol
_atom_site_label
_atom_site_fract_x
_atom_site_fract_y
_atom_site_fract_z
Si Si1 0.548623 0.700647 0.348017
Si Si2 0.700117 0.291695 0.755510
Si Si3 0.950880 0.301031 0.225770
Si Si4 0.000000 0.500000 0.089255
Si Si5 0.573047 0.292679 0.065767
Si Si6 0.118195 0.297698 0.438112
Si Si7 0.131349 0.802929 0.159106
Si Si8 0.200182 0.793992 0.369238
O O1 0.500000 0.750703 0.366376
O O2 0.547876 0.500000 0.332230
O O3 0.558414 0.797566 0.291136
O O4 0.583596 0.722559 0.395454
O O5 0.695444 0.500000 0.753174
O O6 0.750000 0.250000 0.767314
O O7 0.667812 0.220408 0.801957
O O8 0.690469 0.228782 0.693101
O O9 0.951297 0.500000 0.206721
O O10 0.913254 0.204582 0.194043
O O11 0.000000 0.233839 0.217986
O O12 0.037187 0.655135 0.084829
O O13 0.563880 0.500000 0.077429
O O14 0.616540 0.242001 0.099115
O O15 0.576881 0.278457 0.000000
O O16 0.115527 0.224685 0.500000
O O17 0.108769 0.500000 0.440983
O O18 0.165827 0.275477 0.412647
O O19 0.145246 0.000000 0.151393
O O20 0.250000 0.750000 0.381686
O O21 0.195757 0.000000 0.368987
#
# Coordination Sequence:
#
# PCOD9490700 Si02
#       8
#    16  16  16   4  16  16  16  16
#     4  10  21  38  58  78 105 142 183 226 275 331
#     4   9  19  36  57  83 109 139 179 225 281 337
#     4  10  21  34  52  80 112 144 181 224 275 335
#     4  12  23  38  60  82 118 164 210 250 281 346
#     4  10  22  38  57  83 117 161 205 247 294 339
#     4  11  24  39  56  80 109 141 181 228 276 328
#     4  10  21  35  54  80 114 150 187 235 285 338
#     4  10  20  36  60  85 112 143 177 219 272 336
#
# _framework density 19.999760999999999
#
# number of rings (size 3 to 8) (size 9 to 14) (size 15 to 20)
#    0.000    1.931    0.000    3.310    1.931    6.069 
#    0.000    1.379    0.000    0.414    0.000    0.000 
#    0.000    0.000    0.000    0.000    0.000    0.000 
#
# Total GULP energy -323195.527645 kJ/mol
# GULP energy per Si atom -5572.336684 kJ/mol
# Density = 1.995424 g / cm^3
# Si number density = 19.999761 Si / 1000 Ang^3
#
#
#
# Elastic Constant Matrix: (Units=GPa)
#
#
# Indices 1 2 3 4 5 6 
#
# 1 48.1653 -5.0555 41.9774 0.0000 0.0000 0.0000
# 2 -5.0555 57.2214 9.0975 0.0000 0.0000 0.0000
# 3 41.9774 9.0975 86.7278 0.0000 0.0000 0.0000
# 4 0.0000 0.0000 0.0000 13.1738 0.0000 0.0000
# 5 0.0000 0.0000 0.0000 0.0000 -74.9902 0.0000
# 6 0.0000 0.0000 0.0000 0.0000 0.0000 22.6660
#
#
#
# Elastic Compliance Matrix: (Units=1/GPa)
#
#
# Indices 1 2 3 4 5 6 
#
# 1 0.038084 0.006402 -0.019105 0.000000 0.000000 0.000000
# 2 0.006402 0.018849 -0.005076 0.000000 0.000000 0.000000
# 3 -0.019105 -0.005076 0.021310 0.000000 0.000000 0.000000
# 4 0.000000 0.000000 0.000000 0.075908 0.000000 0.000000
# 5 0.000000 0.000000 0.000000 0.000000 -0.013335 0.000000
# 6 0.000000 0.000000 0.000000 0.000000 0.000000 0.044119
#
#
# Mechanical properties :
#
#
# Convention : Reuss Voigt Hill
#
# Bulk Modulus (GPa) = 23.42718 31.57259 27.49989
# Shear Modulus (GPa) = 21.30196 1.90960 11.60578
#
# Velocity S-wave (km/s) = 3.26714 0.97820 2.41155
# Velocity P-wave (km/s) = 5.09622 4.13480 4.64048
#
# Compressibility (1/GPa) = 0.04268547
#
# Stress axis : x y z
#
# Youngs Moduli (GPa) = 26.25762 53.05430 46.92686
#
# Poissons Ratio (x) = -0.33966 0.89653
# Poissons Ratio (y) = -0.16811 0.23820
# Poissons Ratio (z) = 0.50165 0.26930
#
# Static dielectric constant tensor:
#      x y z
#    x 1.679740 0.000000 0.000000 
#    y 0.000000 1.742540 0.000000 
#    z 0.000000 0.000000 1.746960 
# 
# From -- ./inp_files/68633.got.cif
#   From: 2010.05.17/outbox.cif.g08.bks.cpg/sg65_35_cif.got.tgz:68633.got - 2010.06.03 17:01:31.
