data_PCOD9490080
_publ_section_title
;
Structure prediction by ZEFSAII (Michael W. Deem and Ramdas Pophale) SiO2 
 PCOD9490080
Probable space group: C M M M
;
_chemical_formula_sum "Si O2"
_cell_formula_units_Z 104
_cell_length_a 32.130710
_cell_length_b 20.814801
_cell_length_c 9.061918
_cell_angle_alpha 90.000000
_cell_angle_beta 90.000000
_cell_angle_gamma 90.000000
_cell_volume 6060.559419
_symmetry_space_group_name_H-M "C M M M"
_symmetry_group_IT_number 65
_symmetry_cell_setting 'orthorhombic'
loop_
_space_group_symop_operation_xyz
x,y,z
-x,-y,z
x,-y,-z
-x,y,-z
-x,-y,-z
x,y,-z
-x,y,z
x,-y,z
1/2+x,1/2+y,z
1/2-x,1/2-y,z
1/2+x,1/2-y,-z
1/2-x,1/2+y,-z
1/2-x,1/2-y,-z
1/2+x,1/2+y,-z
1/2-x,1/2+y,z
1/2+x,1/2-y,z
loop_
_atom_site_type_symbol
_atom_site_label
_atom_site_fract_x
_atom_site_fract_y
_atom_site_fract_z
Si Si1 0.274903 0.427601 0.322965
Si Si2 0.950136 0.000000 0.668484
Si Si3 0.332564 0.323838 0.170006
Si Si4 0.130057 0.690404 0.177601
Si Si5 0.046782 0.260324 0.323490
Si Si6 0.323081 0.074046 0.323717
Si Si7 0.427826 0.630829 0.829245
O O1 0.278859 0.426964 0.500000
O O2 0.287390 0.500000 0.272222
O O3 0.301878 0.370192 0.257223
O O4 0.226010 0.419084 0.288615
O O5 0.936083 0.063231 0.753896
O O6 0.934345 0.000000 0.500000
O O7 0.000000 0.000000 0.664109
O O8 0.340580 0.250931 0.223964
O O9 0.378638 0.354460 0.173343
O O10 0.318524 0.320682 0.000000
O O11 0.084471 0.701682 0.246885
O O12 0.150203 0.625111 0.234529
O O13 0.126863 0.692898 0.000000
O O14 0.052539 0.259935 0.500000
O O15 0.050556 0.188019 0.260850
O O16 0.000000 0.284472 0.291524
O O17 0.327897 0.084530 0.500000
O O18 0.334625 0.000000 0.292832
O O19 0.441505 0.631466 0.000000
#
# Coordination Sequence:
#
# PCOD9490080 Si02
#       7
#    16   8  16  16  16  16  16
#     4   9  19  34  52  76 104 139 183 224 264 313
#     4  11  23  35  47  67  95 131 179 229 275 323
#     4   9  20  35  49  72 105 139 175 218 266 313
#     4  10  21  36  55  81 110 140 177 216 261 318
#     4  10  20  35  56  80 105 135 173 215 261 315
#     4   9  19  37  58  80 108 139 173 215 264 318
#     4  10  21  35  50  71 101 137 176 221 273 321
#
# _framework density 17.160132000000001
#
# number of rings (size 3 to 8) (size 9 to 14) (size 15 to 20)
#    0.000    2.385    0.000    3.923    1.077    9.231 
#    0.000    4.615    0.000    0.462    0.000    3.231 
#    0.000    0.000    0.000    0.000    0.000    0.000 
#
# Total GULP energy -290097.268502 kJ/mol
# GULP energy per Si atom -5578.793625 kJ/mol
# Density = 1.712107 g / cm^3
# Si number density = 17.160132 Si / 1000 Ang^3
#
#
#
# Elastic Constant Matrix: (Units=GPa)
#
#
# Indices 1 2 3 4 5 6 
#
# 1 76.4037 70.5776 49.3515 0.0000 0.0000 0.0000
# 2 70.5776 117.7214 57.2670 0.0000 0.0000 0.0000
# 3 49.3515 57.2670 71.8376 0.0000 0.0000 0.0000
# 4 0.0000 0.0000 0.0000 5.1500 0.0000 0.0000
# 5 0.0000 0.0000 0.0000 0.0000 80.1519 0.0000
# 6 0.0000 0.0000 0.0000 0.0000 0.0000 8.9147
#
#
#
# Elastic Compliance Matrix: (Units=1/GPa)
#
#
# Indices 1 2 3 4 5 6 
#
# 1 0.034528 -0.014965 -0.011791 0.000000 0.000000 0.000000
# 2 -0.014965 0.020361 -0.005951 0.000000 0.000000 0.000000
# 3 -0.011791 -0.005951 0.026764 0.000000 0.000000 0.000000
# 4 0.000000 0.000000 0.000000 0.194176 0.000000 0.000000
# 5 0.000000 0.000000 0.000000 0.000000 0.012476 0.000000
# 6 0.000000 0.000000 0.000000 0.000000 0.000000 0.112174
#
#
# Mechanical properties :
#
#
# Convention : Reuss Voigt Hill
#
# Bulk Modulus (GPa) = 61.57360 68.92834 65.25097
# Shear Modulus (GPa) = 10.60880 24.76110 17.68495
#
# Velocity S-wave (km/s) = 2.48911 3.80273 3.21375
# Velocity P-wave (km/s) = 6.64985 7.71595 7.20265
#
# Compressibility (1/GPa) = 0.01624073
#
# Stress axis : x y z
#
# Youngs Moduli (GPa) = 28.96179 49.11235 37.36326
#
# Poissons Ratio (x) = 0.73497 0.44054
# Poissons Ratio (y) = 0.43341 0.22234
# Poissons Ratio (z) = 0.34148 0.29226
#
# Static dielectric constant tensor:
#      x y z
#    x 1.573510 0.000000 0.000000 
#    y 0.000000 1.618410 0.000000 
#    z 0.000000 0.000000 1.578280 
# 
# From -- ./inp_files/16496.got.cif
#   From: 2010.05.17/outbox.cif.g08.bks.cpg/sg65_9_cif.got.tgz:16496.got - 2010.06.03 17:01:31.
