data_PCOD9490645
_publ_section_title
;
Structure prediction by ZEFSAII (Michael W. Deem and Ramdas Pophale) SiO2 
 PCOD9490645
Probable space group: C M M M
;
_chemical_formula_sum "Si O2"
_cell_formula_units_Z 88
_cell_length_a 8.803963
_cell_length_b 24.814208
_cell_length_c 22.393755
_cell_angle_alpha 90.000000
_cell_angle_beta 90.000000
_cell_angle_gamma 90.000000
_cell_volume 4892.215164
_symmetry_space_group_name_H-M "C M M M"
_symmetry_group_IT_number 65
_symmetry_cell_setting 'orthorhombic'
loop_
_space_group_symop_operation_xyz
x,y,z
-x,-y,z
x,-y,-z
-x,y,-z
-x,-y,-z
x,y,-z
-x,y,z
x,-y,z
1/2+x,1/2+y,z
1/2-x,1/2-y,z
1/2+x,1/2-y,-z
1/2-x,1/2+y,-z
1/2-x,1/2-y,-z
1/2+x,1/2+y,-z
1/2-x,1/2+y,z
1/2+x,1/2-y,z
loop_
_atom_site_type_symbol
_atom_site_label
_atom_site_fract_x
_atom_site_fract_y
_atom_site_fract_z
Si Si1 0.181028 0.596997 0.643730
Si Si2 0.822308 0.000000 0.428888
Si Si3 0.318124 0.690353 0.567872
Si Si4 0.317743 0.389083 0.107127
Si Si5 0.315304 0.310231 0.000000
Si Si6 0.683502 0.436702 0.229250
Si Si7 0.331139 0.000000 0.070129
O O1 0.241656 0.551659 0.598663
O O2 0.246234 0.652463 0.617745
O O3 0.244213 0.581221 0.708645
O O4 0.000000 0.597977 0.644918
O O5 0.813994 0.000000 0.500000
O O6 0.000000 0.000000 0.411168
O O7 0.283992 0.670395 0.500000
O O8 0.500000 0.691636 0.573980
O O9 0.250000 0.750000 0.572330
O O10 0.500000 0.386969 0.106255
O O11 0.271322 0.394589 0.176792
O O12 0.261385 0.446583 0.084215
O O13 0.266334 0.343319 0.059969
O O14 0.250000 0.250000 0.000000
O O15 0.500000 0.308104 0.000000
O O16 0.500000 0.435780 0.233871
O O17 0.724468 0.500000 0.216043
O O18 0.500000 0.000000 0.098495
O O19 0.350876 0.000000 0.000000
#
# Coordination Sequence:
#
# PCOD9490645 Si02
#       7
#    16   8  16  16   8  16   8
#     4  12  24  37  56  84 120 158 195 240 294 352
#     4  11  23  38  57  82 115 157 201 246 299 355
#     4  10  21  39  63  88 114 147 191 244 296 347
#     4  10  20  37  61  85 111 152 197 238 284 346
#     4  10  22  39  62  87 117 152 192 238 289 344
#     4  10  20  36  59  84 114 155 197 238 290 349
#     4  11  21  30  49  86 121 144 172 227 290 335
#
# _framework density 17.987763000000001
#
# number of rings (size 3 to 8) (size 9 to 14) (size 15 to 20)
#    0.000    1.455    2.727    3.273    0.000    5.818 
#    0.000    0.909    0.000    2.182    0.000    0.000 
#    0.000    0.000    0.000    0.000    0.000    0.000 
#
# Total GULP energy -245474.731756 kJ/mol
# GULP energy per Si atom -5578.971176 kJ/mol
# Density = 1.794682 g / cm^3
# Si number density = 17.987763 Si / 1000 Ang^3
#
#
#
# Elastic Constant Matrix: (Units=GPa)
#
#
# Indices 1 2 3 4 5 6 
#
# 1 33.1087 27.2969 49.7366 0.0000 0.0000 0.0000
# 2 27.2969 113.0585 66.9325 0.0000 0.0000 0.0000
# 3 49.7366 66.9325 123.6930 0.0000 0.0000 0.0000
# 4 0.0000 0.0000 0.0000 39.7881 0.0000 0.0000
# 5 0.0000 0.0000 0.0000 0.0000 13.3981 0.0000
# 6 0.0000 0.0000 0.0000 0.0000 0.0000 39.7001
#
#
#
# Elastic Compliance Matrix: (Units=1/GPa)
#
#
# Indices 1 2 3 4 5 6 
#
# 1 0.076290 -0.000381 -0.030470 0.000000 0.000000 0.000000
# 2 -0.000381 0.013016 -0.006890 0.000000 0.000000 0.000000
# 3 -0.030470 -0.006890 0.024065 0.000000 0.000000 0.000000
# 4 0.000000 0.000000 0.000000 0.025133 0.000000 0.000000
# 5 0.000000 0.000000 0.000000 0.000000 0.074637 0.000000
# 6 0.000000 0.000000 0.000000 0.000000 0.000000 0.025189
#
#
# Mechanical properties :
#
#
# Convention : Reuss Voigt Hill
#
# Bulk Modulus (GPa) = 26.39272 61.97690 44.18481
# Shear Modulus (GPa) = 15.31666 26.97019 21.14343
#
# Velocity S-wave (km/s) = 2.92122 3.87636 3.43218
# Velocity P-wave (km/s) = 5.10710 7.38680 6.35009
#
# Compressibility (1/GPa) = 0.03788924
#
# Stress axis : x y z
#
# Youngs Moduli (GPa) = 13.10783 76.82888 41.55451
#
# Poissons Ratio (x) = 0.02925 1.26617
# Poissons Ratio (y) = 0.00499 0.28631
# Poissons Ratio (z) = 0.39940 0.52935
#
# Static dielectric constant tensor:
#      x y z
#    x 1.614880 0.000000 0.000000 
#    y 0.000000 1.589630 0.000000 
#    z 0.000000 0.000000 1.644950 
# 
# From -- ./inp_files/59907.got.cif
#   From: 2010.05.17/outbox.cif.g08.bks.cpg/sg65_30_cif.got.tgz:59907.got - 2010.06.03 17:01:31.
