data_PCOD9490921
_publ_section_title
;
Structure prediction by ZEFSAII (Michael W. Deem and Ramdas Pophale) SiO2 
 PCOD9490921
Probable space group: C M M M
;
_chemical_formula_sum "Si O2"
_cell_formula_units_Z 100
_cell_length_a 7.891634
_cell_length_b 23.462098
_cell_length_c 27.754267
_cell_angle_alpha 90.000000
_cell_angle_beta 90.000000
_cell_angle_gamma 90.000000
_cell_volume 5138.821609
_symmetry_space_group_name_H-M "C M M M"
_symmetry_group_IT_number 65
_symmetry_cell_setting 'orthorhombic'
loop_
_space_group_symop_operation_xyz
x,y,z
-x,-y,z
x,-y,-z
-x,y,-z
-x,-y,-z
x,y,-z
-x,y,z
x,-y,z
1/2+x,1/2+y,z
1/2-x,1/2-y,z
1/2+x,1/2-y,-z
1/2-x,1/2+y,-z
1/2-x,1/2-y,-z
1/2+x,1/2+y,-z
1/2-x,1/2+y,z
1/2+x,1/2-y,z
loop_
_atom_site_type_symbol
_atom_site_label
_atom_site_fract_x
_atom_site_fract_y
_atom_site_fract_z
Si Si1 0.299754 0.378821 0.404579
Si Si2 0.703778 0.000000 0.556125
Si Si3 0.297126 0.313731 0.055994
Si Si4 0.305130 0.812271 0.686903
Si Si5 0.296099 0.315549 0.500000
Si Si6 0.192431 0.184870 0.793049
Si Si7 0.191315 0.594395 0.866845
Si Si8 0.000000 0.000000 0.865253
O O1 0.500000 0.367603 0.400120
O O2 0.269099 0.444281 0.416961
O O3 0.217735 0.357276 0.355475
O O4 0.231850 0.344904 0.451258
O O5 0.500000 0.000000 0.556228
O O6 0.760552 0.000000 0.500000
O O7 0.500000 0.319327 0.058070
O O8 0.250000 0.250000 0.073191
O O9 0.216823 0.363281 0.087740
O O10 0.243460 0.317864 0.000000
O O11 0.500000 0.808441 0.701758
O O12 0.250000 0.750000 0.668086
O O13 0.203481 0.824721 0.735557
O O14 0.500000 0.322462 0.500000
O O15 0.250000 0.250000 0.500000
O O16 0.250000 0.250000 0.801287
O O17 0.295287 0.136956 0.821075
O O18 0.000000 0.179955 0.809956
O O19 0.346937 0.549768 0.865451
O O20 0.000000 0.570015 0.868348
#
# Coordination Sequence:
#
# PCOD9490921 Si02
#       8
#    16   8  16  16   8  16  16   4
#     4  11  22  39  59  83 114 155 195 242 295 354
#     4  11  23  39  60  85 111 150 197 245 291 344
#     4  10  20  37  63  99 140 176 220 283 346 399
#     4  11  22  38  60  92 126 159 196 246 310 375
#     4  10  22  35  54  81 111 146 188 230 291 360
#     4  11  21  39  66  99 131 164 210 267 330 390
#     4  12  24  43  68  95 131 177 229 276 329 396
#     4  12  26  48  63  96 132 184 230 275 328 384
#
# _framework density 19.459714000000002
#
# number of rings (size 3 to 8) (size 9 to 14) (size 15 to 20)
#    0.000    1.040    2.400    6.240    0.000    3.840 
#    0.000    1.600    0.000    0.960    0.000    0.000 
#    0.000    0.000    0.000    0.000    0.000    0.000 
#
# Total GULP energy -278912.797697 kJ/mol
# GULP energy per Si atom -5578.255954 kJ/mol
# Density = 1.941542 g / cm^3
# Si number density = 19.459714 Si / 1000 Ang^3
#
#
#
# Elastic Constant Matrix: (Units=GPa)
#
#
# Indices 1 2 3 4 5 6 
#
# 1 114.3585 22.8466 8.0549 0.0000 0.0000 0.0000
# 2 22.8466 137.1240 55.6305 0.0000 0.0000 0.0000
# 3 8.0549 55.6305 85.3725 0.0000 0.0000 0.0000
# 4 0.0000 0.0000 0.0000 4.3347 0.0000 0.0000
# 5 0.0000 0.0000 0.0000 0.0000 55.2673 0.0000
# 6 0.0000 0.0000 0.0000 0.0000 0.0000 35.7498
#
#
#
# Elastic Compliance Matrix: (Units=1/GPa)
#
#
# Indices 1 2 3 4 5 6 
#
# 1 0.009047 -0.001578 0.000175 0.000000 0.000000 0.000000
# 2 -0.001578 0.010189 -0.006490 0.000000 0.000000 0.000000
# 3 0.000175 -0.006490 0.015926 0.000000 0.000000 0.000000
# 4 0.000000 0.000000 0.000000 0.230696 0.000000 0.000000
# 5 0.000000 0.000000 0.000000 0.000000 0.018094 0.000000
# 6 0.000000 0.000000 0.000000 0.000000 0.000000 0.027972
#
#
# Mechanical properties :
#
#
# Convention : Reuss Voigt Hill
#
# Bulk Modulus (GPa) = 51.61367 56.65766 54.13567
# Shear Modulus (GPa) = 14.96246 35.75856 25.36051
#
# Velocity S-wave (km/s) = 2.77590 4.29134 3.61395
# Velocity P-wave (km/s) = 6.07084 7.33026 6.73007
#
# Compressibility (1/GPa) = 0.01937471
#
# Stress axis : x y z
#
# Youngs Moduli (GPa) = 110.52847 98.14788 62.79020
#
# Poissons Ratio (x) = 0.15491 -0.01098
# Poissons Ratio (y) = 0.17445 0.40752
# Poissons Ratio (z) = -0.01933 0.63700
#
# Static dielectric constant tensor:
#      x y z
#    x 1.718010 0.000000 0.000000 
#    y 0.000000 1.652390 0.000000 
#    z 0.000000 0.000000 1.674020 
# 
# From -- ./inp_files/73417.got.cif
#   From: 2010.05.17/outbox.cif.g08.bks.cpg/sg65_37_cif.got.tgz:73417.got - 2010.06.03 17:01:31.
