data_PCOD9490118
_publ_section_title
;
Structure prediction by ZEFSAII (Michael W. Deem and Ramdas Pophale) SiO2 
 PCOD9490118
Probable space group: C M M M
;
_chemical_formula_sum "Si O2"
_cell_formula_units_Z 104
_cell_length_a 22.205100
_cell_length_b 8.648124
_cell_length_c 31.585691
_cell_angle_alpha 90.000000
_cell_angle_beta 90.000000
_cell_angle_gamma 90.000000
_cell_volume 6065.477888
_symmetry_space_group_name_H-M "C M M M"
_symmetry_group_IT_number 65
_symmetry_cell_setting 'orthorhombic'
loop_
_space_group_symop_operation_xyz
x,y,z
-x,-y,z
x,-y,-z
-x,y,-z
-x,-y,-z
x,y,-z
-x,y,z
x,-y,z
1/2+x,1/2+y,z
1/2-x,1/2-y,z
1/2+x,1/2-y,-z
1/2-x,1/2+y,-z
1/2-x,1/2-y,-z
1/2+x,1/2+y,-z
1/2-x,1/2+y,z
1/2+x,1/2-y,z
loop_
_atom_site_type_symbol
_atom_site_label
_atom_site_fract_x
_atom_site_fract_y
_atom_site_fract_z
Si Si1 0.571409 0.185369 0.908590
Si Si2 0.682321 0.814340 0.239848
Si Si3 0.500000 0.814191 0.550103
Si Si4 0.184240 0.684109 0.500000
Si Si5 0.877926 0.816067 0.416506
Si Si6 0.680430 0.685077 0.850430
Si Si7 0.072217 0.824771 0.000000
Si Si8 0.817863 0.685253 0.332845
O O1 0.500000 0.232492 0.899882
O O2 0.626057 0.255342 0.880543
O O3 0.586300 0.235990 0.956732
O O4 0.572815 0.000000 0.904609
O O5 0.750000 0.750000 0.243016
O O6 0.659915 0.737245 0.196793
O O7 0.655319 0.777457 0.286134
O O8 0.682704 0.000000 0.234689
O O9 0.500000 0.770483 0.500000
O O10 0.444001 0.744501 0.574373
O O11 0.500000 0.000000 0.551445
O O12 0.180215 0.500000 0.500000
O O13 0.250000 0.750000 0.500000
O O14 0.156381 0.747376 0.543114
O O15 0.853337 0.753968 0.372199
O O16 0.873913 0.000000 0.417184
O O17 0.684732 0.500000 0.853050
O O18 0.750000 0.750000 0.857453
O O19 0.000000 0.836900 0.000000
O O20 0.097103 0.000000 0.000000
O O21 0.815383 0.500000 0.336238
O O22 0.750000 0.750000 0.334964
#
# Coordination Sequence:
#
# PCOD9490118 Si02
#       8
#    16  16   8   8  16  16   8  16
#     4  10  20  35  56  81 111 148 190 235 282 336
#     4   9  17  31  53  79 108 142 180 220 265 319
#     4  11  23  41  63  81 102 138 178 216 254 305
#     4  12  24  39  56  79 110 140 170 210 260 310
#     4  12  24  38  58  82 108 138 174 216 258 309
#     4  11  21  34  55  82 114 149 188 234 282 335
#     4   9  17  31  52  79 110 145 188 233 279 335
#     4  10  20  35  56  83 113 143 176 217 265 318
#
# _framework density 17.146217
#
# number of rings (size 3 to 8) (size 9 to 14) (size 15 to 20)
#    0.000    1.538    0.769    6.692    0.000    4.000 
#    0.000    0.385    1.692    0.000    0.000    0.000 
#    0.000    0.000    0.000    0.000    0.000    0.000 
#
# Total GULP energy -289783.607079 kJ/mol
# GULP energy per Si atom -5572.761675 kJ/mol
# Density = 1.710719 g / cm^3
# Si number density = 17.146217 Si / 1000 Ang^3
#
#
#
# Elastic Constant Matrix: (Units=GPa)
#
#
# Indices 1 2 3 4 5 6 
#
# 1 110.2222 51.2358 84.6858 0.0000 0.0000 0.0000
# 2 51.2358 130.4829 74.8792 0.0000 0.0000 0.0000
# 3 84.6858 74.8792 183.3600 0.0000 0.0000 0.0000
# 4 0.0000 0.0000 0.0000 32.6354 0.0000 0.0000
# 5 0.0000 0.0000 0.0000 0.0000 39.7026 0.0000
# 6 0.0000 0.0000 0.0000 0.0000 0.0000 27.6843
#
#
#
# Elastic Compliance Matrix: (Units=1/GPa)
#
#
# Indices 1 2 3 4 5 6 
#
# 1 0.014634 -0.002439 -0.005763 0.000000 0.000000 0.000000
# 2 -0.002439 0.010416 -0.003127 0.000000 0.000000 0.000000
# 3 -0.005763 -0.003127 0.009392 0.000000 0.000000 0.000000
# 4 0.000000 0.000000 0.000000 0.030642 0.000000 0.000000
# 5 0.000000 0.000000 0.000000 0.000000 0.025187 0.000000
# 6 0.000000 0.000000 0.000000 0.000000 0.000000 0.036122
#
#
# Mechanical properties :
#
#
# Convention : Reuss Voigt Hill
#
# Bulk Modulus (GPa) = 84.85773 93.96299 89.41036
# Shear Modulus (GPa) = 32.68421 34.22208 33.45314
#
# Velocity S-wave (km/s) = 4.37075 4.47239 4.42186
# Velocity P-wave (km/s) = 8.66426 9.03270 8.85040
#
# Compressibility (1/GPa) = 0.01178443
#
# Stress axis : x y z
#
# Youngs Moduli (GPa) = 68.33387 96.00461 106.47021
#
# Poissons Ratio (x) = 0.23418 0.61355
# Poissons Ratio (y) = 0.16668 0.33294
# Poissons Ratio (z) = 0.39379 0.30022
#
# Static dielectric constant tensor:
#      x y z
#    x 1.544370 0.000000 0.000000 
#    y 0.000000 1.577450 0.000000 
#    z 0.000000 0.000000 1.588100 
# 
# From -- ./inp_files/75868.got.cif
#   From: 2010.05.17/outbox.cif.g08.bks.cpg/sg65_38_cif.got.tgz:75868.got - 2010.06.03 17:01:31.
