data_PCOD9490729
_publ_section_title
;
Structure prediction by ZEFSAII (Michael W. Deem and Ramdas Pophale) SiO2 
 PCOD9490729
Probable space group: C M M M
;
_chemical_formula_sum "Si O2"
_cell_formula_units_Z 76
_cell_length_a 19.472055
_cell_length_b 13.071024
_cell_length_c 12.995148
_cell_angle_alpha 90.000000
_cell_angle_beta 90.000000
_cell_angle_gamma 90.000000
_cell_volume 3307.521147
_symmetry_space_group_name_H-M "C M M M"
_symmetry_group_IT_number 65
_symmetry_cell_setting 'orthorhombic'
loop_
_space_group_symop_operation_xyz
x,y,z
-x,-y,z
x,-y,-z
-x,y,-z
-x,-y,-z
x,y,-z
-x,y,z
x,-y,z
1/2+x,1/2+y,z
1/2-x,1/2-y,z
1/2+x,1/2-y,-z
1/2-x,1/2+y,-z
1/2-x,1/2-y,-z
1/2+x,1/2+y,-z
1/2-x,1/2+y,z
1/2+x,1/2-y,z
loop_
_atom_site_type_symbol
_atom_site_label
_atom_site_fract_x
_atom_site_fract_y
_atom_site_fract_z
Si Si1 0.330408 0.810036 0.116947
Si Si2 0.419246 0.381393 0.823357
Si Si3 0.750000 0.750000 0.500000
Si Si4 0.426807 0.000000 0.877302
Si Si5 0.706113 0.879050 0.322364
Si Si6 0.078923 0.236940 0.381467
O O1 0.369158 0.701677 0.125052
O O2 0.387456 0.895944 0.142632
O O3 0.277564 0.841830 0.206616
O O4 0.305888 0.826036 0.000000
O O5 0.500000 0.365766 0.853274
O O6 0.402033 0.500000 0.842411
O O7 0.414455 0.352704 0.702226
O O8 0.757164 0.836851 0.408266
O O9 0.500000 0.000000 0.824625
O O10 0.434037 0.000000 0.000000
O O11 0.634534 0.824080 0.355786
O O12 0.700702 0.000000 0.325039
O O13 0.090984 0.206859 0.500000
O O14 0.000000 0.274185 0.373419
#
# Coordination Sequence:
#
# PCOD9490729 Si02
#       6
#    16  16   4   8  16  16
#     4  10  20  36  60  91 125 164 211 263 315 377
#     4   9  18  31  48  78 126 181 222 251 294 361
#     4  12  26  44  64  88 120 158 218 266 312 386
#     4   9  16  28  52  91 135 173 205 244 303 380
#     4  11  23  43  67  93 127 167 210 260 323 388
#     4   9  18  34  59  93 130 163 206 259 318 387
#
# _framework density 22.977933
#
# number of rings (size 3 to 8) (size 9 to 14) (size 15 to 20)
#    0.000    2.211    2.105    0.947    0.000    3.368 
#    0.000   13.158    0.000    0.000    0.000    0.000 
#    0.000    0.000    0.000    0.000    0.000    0.000 
#
# Total GULP energy -211687.655279 kJ/mol
# GULP energy per Si atom -5570.727771 kJ/mol
# Density = 2.292563 g / cm^3
# Si number density = 22.977933 Si / 1000 Ang^3
#
#
#
# Elastic Constant Matrix: (Units=GPa)
#
#
# Indices 1 2 3 4 5 6 
#
# 1 68.7487 43.1006 7.3385 0.0000 0.0000 0.0000
# 2 43.1006 163.2155 7.1120 0.0000 0.0000 0.0000
# 3 7.3385 7.1120 164.4483 0.0000 0.0000 0.0000
# 4 0.0000 0.0000 0.0000 25.6192 0.0000 0.0000
# 5 0.0000 0.0000 0.0000 0.0000 -8.0035 0.0000
# 6 0.0000 0.0000 0.0000 0.0000 0.0000 -22.3186
#
#
#
# Elastic Compliance Matrix: (Units=1/GPa)
#
#
# Indices 1 2 3 4 5 6 
#
# 1 0.017487 -0.004592 -0.000582 0.000000 0.000000 0.000000
# 2 -0.004592 0.007345 -0.000113 0.000000 0.000000 0.000000
# 3 -0.000582 -0.000113 0.006112 0.000000 0.000000 0.000000
# 4 0.000000 0.000000 0.000000 0.039033 0.000000 0.000000
# 5 0.000000 0.000000 0.000000 0.000000 -0.124945 0.000000
# 6 0.000000 0.000000 0.000000 0.000000 0.000000 -0.044806
#
#
# Mechanical properties :
#
#
# Convention : Reuss Voigt Hill
#
# Bulk Modulus (GPa) = 49.09307 56.83495 52.96401
# Shear Modulus (GPa) = -60.67162 21.65019 -19.51071
#
# Velocity S-wave (km/s) = -5.14409 3.07288 -2.91710
# Velocity P-wave (km/s) = 3.72431 6.11379 3.42841
#
# Compressibility (1/GPa) = 0.02036947
#
# Stress axis : x y z
#
# Youngs Moduli (GPa) = 57.18538 136.15593 163.61870
#
# Poissons Ratio (x) = 0.62529 0.09518
# Poissons Ratio (y) = 0.26262 0.01844
# Poissons Ratio (z) = 0.03327 0.01534
#
# Static dielectric constant tensor:
#      x y z
#    x 2.070670 0.000000 0.000000 
#    y 0.000000 1.868230 0.000000 
#    z 0.000000 0.000000 1.939210 
# 
# From -- ./inp_files/45364.got.cif
#   From: 2010.05.17/outbox.cif.g08.bks.cpg/sg65_23_cif.got.tgz:45364.got - 2010.06.03 17:01:31.
