data_PCOD9490152
_publ_section_title
;
Structure prediction by ZEFSAII (Michael W. Deem and Ramdas Pophale) SiO2 
 PCOD9490152
Probable space group: C M M M
;
_chemical_formula_sum "Si O2"
_cell_formula_units_Z 112
_cell_length_a 13.620933
_cell_length_b 24.214860
_cell_length_c 15.806624
_cell_angle_alpha 90.000000
_cell_angle_beta 90.000000
_cell_angle_gamma 90.000000
_cell_volume 5213.482761
_symmetry_space_group_name_H-M "C M M M"
_symmetry_group_IT_number 65
_symmetry_cell_setting 'orthorhombic'
loop_
_space_group_symop_operation_xyz
x,y,z
-x,-y,z
x,-y,-z
-x,y,-z
-x,-y,-z
x,y,-z
-x,y,z
x,-y,z
1/2+x,1/2+y,z
1/2-x,1/2-y,z
1/2+x,1/2-y,-z
1/2-x,1/2+y,-z
1/2-x,1/2-y,-z
1/2+x,1/2+y,-z
1/2-x,1/2+y,z
1/2+x,1/2-y,z
loop_
_atom_site_type_symbol
_atom_site_label
_atom_site_fract_x
_atom_site_fract_y
_atom_site_fract_z
Si Si1 0.618778 0.160513 0.588311
Si Si2 0.119012 0.904563 0.595565
Si Si3 0.381654 0.240710 0.176405
Si Si4 0.193476 0.060876 0.777692
Si Si5 0.381102 0.719557 0.636260
Si Si6 0.381761 0.650907 0.092271
Si Si7 0.883140 0.380957 0.224782
O O1 0.650909 0.134095 0.500000
O O2 0.500000 0.162081 0.587311
O O3 0.651272 0.224154 0.591954
O O4 0.639698 0.132215 0.676792
O O5 0.141250 0.924742 0.500000
O O6 0.165679 0.932645 0.678302
O O7 0.149853 0.839804 0.602523
O O8 0.000000 0.907493 0.604645
O O9 0.500000 0.238502 0.174769
O O10 0.355882 0.269416 0.265965
O O11 0.349100 0.285780 0.108718
O O12 0.354382 0.176181 0.176757
O O13 0.145247 0.109792 0.832010
O O14 0.309416 0.069907 0.794881
O O15 0.161645 0.000000 0.805032
O O16 0.500000 0.718596 0.630120
O O17 0.500000 0.652399 0.090708
O O18 0.345983 0.631989 0.000000
O O19 0.000000 0.390623 0.214675
#
# Coordination Sequence:
#
# PCOD9490152 Si02
#       7
#    16  16  16  16  16  16  16
#     4   8  13  24  47  79 111 144 188 241 293 344
#     4  10  20  35  56  82 117 161 203 243 296 361
#     4   8  14  31  59  88 119 149 179 226 292 360
#     4  12  26  41  58  83 119 160 207 258 292 331
#     4   8  12  23  47  77 112 149 179 217 279 351
#     4  10  21  40  68  98 125 152 182 226 294 367
#     4   9  20  38  60  84 114 158 202 245 300 351
#
# _framework density 21.482759999999999
#
# number of rings (size 3 to 8) (size 9 to 14) (size 15 to 20)
#    0.000    2.714    1.429    2.571    0.000    4.857 
#    0.000    2.857    0.000    3.857    0.000    4.000 
#    0.000    0.000    0.000    0.000    0.000    0.000 
#
# Total GULP energy -312406.432666 kJ/mol
# GULP energy per Si atom -5578.686298 kJ/mol
# Density = 2.143386 g / cm^3
# Si number density = 21.482760 Si / 1000 Ang^3
#
#
#
# Elastic Constant Matrix: (Units=GPa)
#
#
# Indices 1 2 3 4 5 6 
#
# 1 91.5823 10.4569 4.7790 0.0000 0.0000 0.0000
# 2 10.4569 73.2745 20.2911 0.0000 0.0000 0.0000
# 3 4.7790 20.2911 73.5556 0.0000 0.0000 0.0000
# 4 0.0000 0.0000 0.0000 -2.3255 0.0000 0.0000
# 5 0.0000 0.0000 0.0000 0.0000 1.1765 0.0000
# 6 0.0000 0.0000 0.0000 0.0000 0.0000 14.5929
#
#
#
# Elastic Compliance Matrix: (Units=1/GPa)
#
#
# Indices 1 2 3 4 5 6 
#
# 1 0.011106 -0.001500 -0.000308 0.000000 0.000000 0.000000
# 2 -0.001500 0.014979 -0.004035 0.000000 0.000000 0.000000
# 3 -0.000308 -0.004035 0.014728 0.000000 0.000000 0.000000
# 4 0.000000 0.000000 0.000000 -0.430017 0.000000 0.000000
# 5 0.000000 0.000000 0.000000 0.000000 0.849950 0.000000
# 6 0.000000 0.000000 0.000000 0.000000 0.000000 0.068526
#
#
# Mechanical properties :
#
#
# Convention : Reuss Voigt Hill
#
# Bulk Modulus (GPa) = 34.33026 34.38515 34.35771
# Shear Modulus (GPa) = 9.07992 16.21449 12.64720
#
# Velocity S-wave (km/s) = 2.05810 2.75028 2.42898
# Velocity P-wave (km/s) = 4.65433 5.11137 4.88819
#
# Compressibility (1/GPa) = 0.02912882
#
# Stress axis : x y z
#
# Youngs Moduli (GPa) = 90.03779 66.76192 67.89723
#
# Poissons Ratio (x) = 0.10012 0.02090
# Poissons Ratio (y) = 0.13503 0.27394
# Poissons Ratio (z) = 0.02772 0.26936
#
# Static dielectric constant tensor:
#      x y z
#    x 1.857870 0.000000 0.000000 
#    y 0.000000 1.735110 0.000000 
#    z 0.000000 0.000000 1.791230 
# 
# From -- ./inp_files/40868.got.cif
#   From: 2010.05.17/outbox.cif.g08.bks.cpg/sg65_21_cif.got.tgz:40868.got - 2010.06.03 17:01:31.
