data_PCOD9490276
_publ_section_title
;
Structure prediction by ZEFSAII (Michael W. Deem and Ramdas Pophale) SiO2 
 PCOD9490276
Probable space group: C M M M
;
_chemical_formula_sum "Si O2"
_cell_formula_units_Z 88
_cell_length_a 9.021988
_cell_length_b 18.363716
_cell_length_c 28.687605
_cell_angle_alpha 90.000000
_cell_angle_beta 90.000000
_cell_angle_gamma 90.000000
_cell_volume 4752.882799
_symmetry_space_group_name_H-M "C M M M"
_symmetry_group_IT_number 65
_symmetry_cell_setting 'orthorhombic'
loop_
_space_group_symop_operation_xyz
x,y,z
-x,-y,z
x,-y,-z
-x,y,-z
-x,-y,-z
x,y,-z
-x,y,z
x,-y,z
1/2+x,1/2+y,z
1/2-x,1/2-y,z
1/2+x,1/2-y,-z
1/2-x,1/2+y,-z
1/2-x,1/2-y,-z
1/2+x,1/2+y,-z
1/2-x,1/2+y,z
1/2+x,1/2-y,z
loop_
_atom_site_type_symbol
_atom_site_label
_atom_site_fract_x
_atom_site_fract_y
_atom_site_fract_z
Si Si1 0.323910 0.328874 0.862575
Si Si2 0.676106 0.085729 0.778446
Si Si3 0.677244 0.829222 0.317440
Si Si4 0.324124 0.913855 0.054340
Si Si5 0.329182 0.088549 0.500000
Si Si6 0.324250 0.587327 0.403431
O O1 0.500000 0.322290 0.861728
O O2 0.250000 0.250000 0.858059
O O3 0.267182 0.378365 0.820032
O O4 0.269293 0.366176 0.910262
O O5 0.500000 0.094180 0.788283
O O6 0.707767 0.125932 0.729826
O O7 0.707307 0.000000 0.774505
O O8 0.500000 0.823074 0.322600
O O9 0.750000 0.750000 0.314058
O O10 0.745027 0.871745 0.361279
O O11 0.500000 0.901332 0.062029
O O12 0.297243 0.000000 0.062181
O O13 0.292481 0.898344 0.000000
O O14 0.500000 0.112688 0.500000
O O15 0.245493 0.110659 0.547112
O O16 0.329073 0.000000 0.500000
O O17 0.500000 0.601147 0.403044
O O18 0.301957 0.500000 0.398654
#
# Coordination Sequence:
#
# PCOD9490276 Si02
#       6
#    16  16  16  16   8  16
#     4  12  25  39  58  85 118 155 193 236 286 339
#     4  10  22  41  64  88 115 148 187 233 284 340
#     4  11  23  39  59  84 115 151 190 232 283 339
#     4   9  19  38  63  88 116 152 192 235 285 340
#     4   9  17  31  54  83 114 149 190 235 281 333
#     4  10  20  35  57  85 116 150 190 236 284 335
#
# _framework density 18.515077999999999
#
# number of rings (size 3 to 8) (size 9 to 14) (size 15 to 20)
#    0.000    1.727    0.000    5.182    0.000    9.455 
#    0.000    1.364    0.000    0.000    0.000    0.000 
#    0.000    0.000    0.000    0.000    0.000    0.000 
#
# Total GULP energy -245966.142508 kJ/mol
# GULP energy per Si atom -5590.139602 kJ/mol
# Density = 1.847294 g / cm^3
# Si number density = 18.515078 Si / 1000 Ang^3
#
#
#
# Elastic Constant Matrix: (Units=GPa)
#
#
# Indices 1 2 3 4 5 6 
#
# 1 127.9389 92.2608 104.3723 0.0000 0.0000 0.0000
# 2 92.2608 110.3750 89.1954 0.0000 0.0000 0.0000
# 3 104.3723 89.1954 141.3633 0.0000 0.0000 0.0000
# 4 0.0000 0.0000 0.0000 -61.1102 0.0000 0.0000
# 5 0.0000 0.0000 0.0000 0.0000 -341.6391 0.0000
# 6 0.0000 0.0000 0.0000 0.0000 0.0000 31.0610
#
#
#
# Elastic Compliance Matrix: (Units=1/GPa)
#
#
# Indices 1 2 3 4 5 6 
#
# 1 0.026323 -0.012849 -0.011328 0.000000 0.000000 0.000000
# 2 -0.012849 0.024758 -0.006134 0.000000 0.000000 0.000000
# 3 -0.011328 -0.006134 0.019308 0.000000 0.000000 0.000000
# 4 0.000000 0.000000 0.000000 -0.016364 0.000000 0.000000
# 5 0.000000 0.000000 0.000000 0.000000 -0.002927 0.000000
# 6 0.000000 0.000000 0.000000 0.000000 0.000000 0.032195
#
#
# Mechanical properties :
#
#
# Convention : Reuss Voigt Hill
#
# Bulk Modulus (GPa) = 102.39093 105.70378 104.04736
# Shear Modulus (GPa) = 33.97395 -68.08107 -17.05356
#
# Velocity S-wave (km/s) = 4.28826 -6.07046 -3.03819
# Velocity P-wave (km/s) = 8.94094 2.84265 6.63404
#
# Compressibility (1/GPa) = 0.00976649
#
# Stress axis : x y z
#
# Youngs Moduli (GPa) = 37.98894 40.39150 51.79123
#
# Poissons Ratio (x) = 0.51900 0.58669
# Poissons Ratio (y) = 0.48812 0.31771
# Poissons Ratio (z) = 0.43034 0.24778
#
# Static dielectric constant tensor:
#      x y z
#    x 1.615400 0.000000 0.000000 
#    y 0.000000 1.614380 0.000000 
#    z 0.000000 0.000000 1.609390 
# 
# From -- ./inp_files/73176.got.cif
#   From: 2010.05.17/outbox.cif.g08.bks.cpg/sg65_37_cif.got.tgz:73176.got - 2010.06.03 17:01:31.
