data_PCOD9490021
_publ_section_title
;
Structure prediction by ZEFSAII (Michael W. Deem and Ramdas Pophale) SiO2 
 PCOD9490021
Probable space group: C M M M
;
_chemical_formula_sum "Si O2"
_cell_formula_units_Z 104
_cell_length_a 17.802301
_cell_length_b 28.202286
_cell_length_c 11.008049
_cell_angle_alpha 90.000000
_cell_angle_beta 90.000000
_cell_angle_gamma 90.000000
_cell_volume 5526.762553
_symmetry_space_group_name_H-M "C M M M"
_symmetry_group_IT_number 65
_symmetry_cell_setting 'orthorhombic'
loop_
_space_group_symop_operation_xyz
x,y,z
-x,-y,z
x,-y,-z
-x,y,-z
-x,-y,-z
x,y,-z
-x,y,z
x,-y,z
1/2+x,1/2+y,z
1/2-x,1/2-y,z
1/2+x,1/2-y,-z
1/2-x,1/2+y,-z
1/2-x,1/2-y,-z
1/2+x,1/2+y,-z
1/2-x,1/2+y,z
1/2+x,1/2-y,z
loop_
_atom_site_type_symbol
_atom_site_label
_atom_site_fract_x
_atom_site_fract_y
_atom_site_fract_z
Si Si1 0.369477 0.258458 0.500000
Si Si2 0.414582 0.863917 0.851956
Si Si3 0.728570 0.169759 0.500000
Si Si4 0.195684 0.445624 0.145805
Si Si5 0.676877 0.774528 0.139162
Si Si6 0.689817 0.610863 0.697348
Si Si7 0.915439 0.802439 0.753299
Si Si8 0.910592 0.057090 0.500000
O O1 0.344709 0.203270 0.500000
O O2 0.295814 0.291808 0.500000
O O3 0.410078 0.274872 0.623548
O O4 0.500000 0.858444 0.808405
O O5 0.376875 0.913990 0.821950
O O6 0.358885 0.822196 0.808964
O O7 0.416897 0.860307 0.000000
O O8 0.746675 0.135761 0.386490
O O9 0.188259 0.500000 0.184539
O O10 0.267847 0.421326 0.205877
O O11 0.202855 0.444197 0.000000
O O12 0.750000 0.750000 0.200057
O O13 0.612572 0.735284 0.148336
O O14 0.698020 0.785426 0.000000
O O15 0.641182 0.653574 0.752522
O O16 0.632879 0.580350 0.614027
O O17 0.000000 0.818232 0.772887
O O18 0.000000 0.068838 0.500000
O O19 0.903516 0.000000 0.500000
#
# Coordination Sequence:
#
# PCOD9490021 Si02
#       8
#     8  16   8  16  16  16  16   8
#     4   9  19  32  50  73 110 139 175 217 267 314
#     4   9  18  33  52  75 105 141 185 234 274 315
#     4   8  18  32  51  76  98 141 180 222 259 313
#     4  10  21  36  56  83 112 144 184 233 291 347
#     4  10  21  35  52  76 108 146 186 224 266 322
#     4  10  20  35  55  79 113 143 182 231 274 331
#     4  11  22  33  52  78 110 145 178 218 266 327
#     4  10  20  36  60  83 103 136 186 245 296 329
#
# _framework density 18.817526999999998
#
# number of rings (size 3 to 8) (size 9 to 14) (size 15 to 20)
#    0.000    2.231    0.000    3.000    6.462    3.077 
#    0.000    1.538    0.000    1.385    0.000    7.000 
#    0.000    5.538    0.000    0.000    0.000    0.000 
#
# Total GULP energy -290067.639296 kJ/mol
# GULP energy per Si atom -5578.223833 kJ/mol
# Density = 1.877470 g / cm^3
# Si number density = 18.817527 Si / 1000 Ang^3
#
#
#
# Elastic Constant Matrix: (Units=GPa)
#
#
# Indices 1 2 3 4 5 6 
#
# 1 110.5826 62.5637 19.1145 0.0000 0.0000 0.0000
# 2 62.5637 151.0774 20.5174 0.0000 0.0000 0.0000
# 3 19.1145 20.5174 20.4274 0.0000 0.0000 0.0000
# 4 0.0000 0.0000 0.0000 22.2550 0.0000 0.0000
# 5 0.0000 0.0000 0.0000 0.0000 10.4228 0.0000
# 6 0.0000 0.0000 0.0000 0.0000 0.0000 28.5943
#
#
#
# Elastic Compliance Matrix: (Units=1/GPa)
#
#
# Indices 1 2 3 4 5 6 
#
# 1 0.012774 -0.004246 -0.007689 0.000000 0.000000 0.000000
# 2 -0.004246 0.009076 -0.005143 0.000000 0.000000 0.000000
# 3 -0.007689 -0.005143 0.061314 0.000000 0.000000 0.000000
# 4 0.000000 0.000000 0.000000 0.044934 0.000000 0.000000
# 5 0.000000 0.000000 0.000000 0.000000 0.095944 0.000000
# 6 0.000000 0.000000 0.000000 0.000000 0.000000 0.034972
#
#
# Mechanical properties :
#
#
# Convention : Reuss Voigt Hill
#
# Bulk Modulus (GPa) = 20.40434 54.05318 37.22876
# Shear Modulus (GPa) = 16.15489 24.24722 20.20105
#
# Velocity S-wave (km/s) = 2.93320 3.59352 3.28002
# Velocity P-wave (km/s) = 4.72635 6.78271 5.84566
#
# Compressibility (1/GPa) = 0.04900918
#
# Stress axis : x y z
#
# Youngs Moduli (GPa) = 78.28312 110.18274 16.30955
#
# Poissons Ratio (x) = 0.46782 0.12540
# Poissons Ratio (y) = 0.33238 0.08388
# Poissons Ratio (z) = 0.60189 0.56666
#
# Static dielectric constant tensor:
#      x y z
#    x 1.651000 0.000000 0.000000 
#    y 0.000000 1.648050 0.000000 
#    z 0.000000 0.000000 1.677620 
# 
# From -- ./inp_files/27537.got.cif
#   From: 2010.05.17/outbox.cif.g08.bks.cpg/sg65_14_cif.got.tgz:27537.got - 2010.06.03 17:01:31.
