data_PCOD9490599
_publ_section_title
;
Structure prediction by ZEFSAII (Michael W. Deem and Ramdas Pophale) SiO2 
 PCOD9490599
Probable space group: C M M M
;
_chemical_formula_sum "Si O2"
_cell_formula_units_Z 104
_cell_length_a 8.845041
_cell_length_b 29.955994
_cell_length_c 20.570187
_cell_angle_alpha 90.000000
_cell_angle_beta 90.000000
_cell_angle_gamma 90.000000
_cell_volume 5450.317788
_symmetry_space_group_name_H-M "C M M M"
_symmetry_group_IT_number 65
_symmetry_cell_setting 'orthorhombic'
loop_
_space_group_symop_operation_xyz
x,y,z
-x,-y,z
x,-y,-z
-x,y,-z
-x,-y,-z
x,y,-z
-x,y,z
x,-y,z
1/2+x,1/2+y,z
1/2-x,1/2-y,z
1/2+x,1/2-y,-z
1/2-x,1/2+y,-z
1/2-x,1/2-y,-z
1/2+x,1/2+y,-z
1/2-x,1/2+y,z
1/2+x,1/2-y,z
loop_
_atom_site_type_symbol
_atom_site_label
_atom_site_fract_x
_atom_site_fract_y
_atom_site_fract_z
Si Si1 0.682494 0.606327 0.071428
Si Si2 0.322807 0.052807 0.190680
Si Si3 0.319601 0.799742 0.500000
Si Si4 0.180912 0.796591 0.264405
Si Si5 0.818312 0.796652 0.885812
Si Si6 0.182396 0.857468 0.383893
Si Si7 0.182414 0.050507 0.331973
O O1 0.500000 0.603882 0.076349
O O2 0.752110 0.580199 0.131658
O O3 0.724845 0.658527 0.077013
O O4 0.727226 0.589161 0.000000
O O5 0.500000 0.062983 0.196895
O O6 0.242496 0.060902 0.259721
O O7 0.305871 0.000000 0.177091
O O8 0.500000 0.796157 0.500000
O O9 0.250000 0.750000 0.500000
O O10 0.262281 0.827848 0.438024
O O11 0.250000 0.750000 0.288015
O O12 0.229750 0.803311 0.189799
O O13 0.219012 0.835863 0.313772
O O14 0.000000 0.792531 0.263743
O O15 0.750000 0.750000 0.909152
O O16 0.000000 0.792990 0.887674
O O17 0.227282 0.909490 0.380108
O O18 0.000000 0.854788 0.393346
O O19 0.000000 0.050816 0.329308
O O20 0.231607 0.000000 0.349203
#
# Coordination Sequence:
#
# PCOD9490599 Si02
#       7
#    16  16   8  16  16  16  16
#     4  10  21  36  53  73 100 139 186 230 273 328
#     4  10  21  36  55  81 112 143 176 221 277 332
#     4  12  26  42  59  82 115 155 194 229 269 320
#     4   9  17  29  48  73 100 130 166 213 266 317
#     4   9  18  33  51  74 103 133 170 218 271 325
#     4  10  20  36  58  83 112 147 186 227 270 317
#     4   9  18  35  61  89 114 143 181 224 270 321
#
# _framework density 19.081454999999998
#
# number of rings (size 3 to 8) (size 9 to 14) (size 15 to 20)
#    0.000    2.308    0.000    2.538    0.000    7.385 
#    0.000    5.000    0.000    2.308    0.000    0.000 
#    0.000    0.000    0.000    0.000    0.000    0.000 
#
# Total GULP energy -290207.973343 kJ/mol
# GULP energy per Si atom -5580.922564 kJ/mol
# Density = 1.903802 g / cm^3
# Si number density = 19.081455 Si / 1000 Ang^3
#
#
#
# Elastic Constant Matrix: (Units=GPa)
#
#
# Indices 1 2 3 4 5 6 
#
# 1 19.9868 40.5680 25.4142 0.0000 0.0000 0.0000
# 2 40.5680 125.0183 61.3863 0.0000 0.0000 0.0000
# 3 25.4142 61.3863 61.5388 0.0000 0.0000 0.0000
# 4 0.0000 0.0000 0.0000 19.1376 0.0000 0.0000
# 5 0.0000 0.0000 0.0000 0.0000 11.1855 0.0000
# 6 0.0000 0.0000 0.0000 0.0000 0.0000 27.8762
#
#
#
# Elastic Compliance Matrix: (Units=1/GPa)
#
#
# Indices 1 2 3 4 5 6 
#
# 1 0.170617 -0.040703 -0.029859 0.000000 0.000000 0.000000
# 2 -0.040703 0.025388 -0.008516 0.000000 0.000000 0.000000
# 3 -0.029859 -0.008516 0.037076 0.000000 0.000000 0.000000
# 4 0.000000 0.000000 0.000000 0.052253 0.000000 0.000000
# 5 0.000000 0.000000 0.000000 0.000000 0.089401 0.000000
# 6 0.000000 0.000000 0.000000 0.000000 0.000000 0.035873
#
#
# Mechanical properties :
#
#
# Convention : Reuss Voigt Hill
#
# Bulk Modulus (GPa) = 13.34664 51.25344 32.30004
# Shear Modulus (GPa) = 8.42121 16.91824 12.66973
#
# Velocity S-wave (km/s) = 2.10306 2.98087 2.57958
# Velocity P-wave (km/s) = 3.59262 6.22624 5.08296
#
# Compressibility (1/GPa) = 0.07492521
#
# Stress axis : x y z
#
# Youngs Moduli (GPa) = 5.86108 39.38819 26.97195
#
# Poissons Ratio (x) = 1.60323 0.80535
# Poissons Ratio (y) = 0.23857 0.22969
# Poissons Ratio (z) = 0.17500 0.33542
#
# Static dielectric constant tensor:
#      x y z
#    x 1.643200 0.000000 0.000000 
#    y 0.000000 1.674090 0.000000 
#    z 0.000000 0.000000 1.662250 
# 
# From -- ./inp_files/60838.got.cif
#   From: 2010.05.17/outbox.cif.g08.bks.cpg/sg65_31_cif.got.tgz:60838.got - 2010.06.03 17:01:31.
