data_PCOD9490134
_publ_section_title
;
Structure prediction by ZEFSAII (Michael W. Deem and Ramdas Pophale) SiO2 
 PCOD9490134
Probable space group: C M M M
;
_chemical_formula_sum "Si O2"
_cell_formula_units_Z 88
_cell_length_a 8.853298
_cell_length_b 16.414273
_cell_length_c 30.082198
_cell_angle_alpha 90.000000
_cell_angle_beta 90.000000
_cell_angle_gamma 90.000000
_cell_volume 4371.558560
_symmetry_space_group_name_H-M "C M M M"
_symmetry_group_IT_number 65
_symmetry_cell_setting 'orthorhombic'
loop_
_space_group_symop_operation_xyz
x,y,z
-x,-y,z
x,-y,-z
-x,y,-z
-x,-y,-z
x,y,-z
-x,y,z
x,-y,z
1/2+x,1/2+y,z
1/2-x,1/2-y,z
1/2+x,1/2-y,-z
1/2-x,1/2+y,-z
1/2-x,1/2-y,-z
1/2+x,1/2+y,-z
1/2-x,1/2+y,z
1/2+x,1/2-y,z
loop_
_atom_site_type_symbol
_atom_site_label
_atom_site_fract_x
_atom_site_fract_y
_atom_site_fract_z
Si Si1 0.183595 0.903732 0.047746
Si Si2 0.820846 0.340114 0.231833
Si Si3 0.326703 0.402168 0.856239
Si Si4 0.825506 0.900184 0.500000
Si Si5 0.179555 0.159652 0.679048
Si Si6 0.670587 0.097629 0.590901
O O1 0.232199 0.870350 0.095810
O O2 0.000000 0.900182 0.048655
O O3 0.223295 0.000000 0.046791
O O4 0.234200 0.868418 0.000000
O O5 0.750000 0.250000 0.229409
O O6 0.773537 0.381515 0.185950
O O7 0.748901 0.379493 0.276168
O O8 0.000000 0.336248 0.236812
O O9 0.500000 0.373100 0.849011
O O10 0.333735 0.500000 0.860242
O O11 0.742959 0.872259 0.455125
O O12 0.000000 0.875516 0.500000
O O13 0.822531 0.000000 0.500000
O O14 0.250000 0.250000 0.676745
O O15 0.229995 0.117354 0.633728
O O16 0.000000 0.163357 0.682951
O O17 0.500000 0.129546 0.596845
O O18 0.662199 0.000000 0.587201
#
# Coordination Sequence:
#
# PCOD9490134 Si02
#       6
#    16  16  16   8  16  16
#     4   7  10  19  39  68  99 129 161 198 242 293
#     4  11  22  37  55  73  98 133 172 211 255 308
#     4   9  17  30  50  77 106 133 165 207 252 299
#     4   9  17  31  52  79 110 143 178 213 253 301
#     4  11  22  38  58  78 103 134 171 213 259 310
#     4  10  20  35  56  82 111 142 176 213 254 300
#
# _framework density 20.130120000000002
#
# number of rings (size 3 to 8) (size 9 to 14) (size 15 to 20)
#    0.000    2.455    0.000    6.818    0.000    3.273 
#    0.000    0.455    0.000    1.091    0.000    2.545 
#    0.000    0.000    0.000    0.000    0.000    0.000 
#
# Total GULP energy -245341.342596 kJ/mol
# GULP energy per Si atom -5575.939604 kJ/mol
# Density = 2.008430 g / cm^3
# Si number density = 20.130120 Si / 1000 Ang^3
#
#
#
# Elastic Constant Matrix: (Units=GPa)
#
#
# Indices 1 2 3 4 5 6 
#
# 1 153.8766 7.6671 84.2625 0.0000 0.0000 0.0000
# 2 7.6671 4.8125 14.6447 0.0000 0.0000 0.0000
# 3 84.2625 14.6447 219.7701 0.0000 0.0000 0.0000
# 4 0.0000 0.0000 0.0000 32.9919 0.0000 0.0000
# 5 0.0000 0.0000 0.0000 0.0000 14.7247 0.0000
# 6 0.0000 0.0000 0.0000 0.0000 0.0000 15.0102
#
#
#
# Elastic Compliance Matrix: (Units=1/GPa)
#
#
# Indices 1 2 3 4 5 6 
#
# 1 0.008301 -0.004440 -0.002887 0.000000 0.000000 0.000000
# 2 -0.004440 0.263022 -0.015824 0.000000 0.000000 0.000000
# 3 -0.002887 -0.015824 0.006712 0.000000 0.000000 0.000000
# 4 0.000000 0.000000 0.000000 0.030311 0.000000 0.000000
# 5 0.000000 0.000000 0.000000 0.000000 0.067913 0.000000
# 6 0.000000 0.000000 0.000000 0.000000 0.000000 0.066621
#
#
# Mechanical properties :
#
#
# Convention : Reuss Voigt Hill
#
# Bulk Modulus (GPa) = 4.31533 65.73421 35.02477
# Shear Modulus (GPa) = 8.82728 30.67100 19.74914
#
# Velocity S-wave (km/s) = 2.09634 3.90761 3.13561
# Velocity P-wave (km/s) = 2.82982 7.28593 5.52687
#
# Compressibility (1/GPa) = 0.23173201
#
# Stress axis : x y z
#
# Youngs Moduli (GPa) = 120.47162 3.80196 148.99794
#
# Poissons Ratio (x) = 0.01688 0.43012
# Poissons Ratio (y) = 0.53490 2.35782
# Poissons Ratio (z) = 0.34777 0.06016
#
# Static dielectric constant tensor:
#      x y z
#    x 1.687130 0.000000 0.000000 
#    y 0.000000 1.736760 0.000000 
#    z 0.000000 0.000000 1.773850 
# 
# From -- ./inp_files/73152.got.cif
#   From: 2010.05.17/outbox.cif.g08.bks.cpg/sg65_37_cif.got.tgz:73152.got - 2010.06.03 17:01:31.
