data_PCOD9490660
_publ_section_title
;
Structure prediction by ZEFSAII (Michael W. Deem and Ramdas Pophale) SiO2 
 PCOD9490660
Probable space group: C M M M
;
_chemical_formula_sum "Si O2"
_cell_formula_units_Z 88
_cell_length_a 14.493127
_cell_length_b 19.032532
_cell_length_c 16.978824
_cell_angle_alpha 90.000000
_cell_angle_beta 90.000000
_cell_angle_gamma 90.000000
_cell_volume 4683.454151
_symmetry_space_group_name_H-M "C M M M"
_symmetry_group_IT_number 65
_symmetry_cell_setting 'orthorhombic'
loop_
_space_group_symop_operation_xyz
x,y,z
-x,-y,z
x,-y,-z
-x,y,-z
-x,-y,-z
x,y,-z
-x,y,z
x,-y,z
1/2+x,1/2+y,z
1/2-x,1/2-y,z
1/2+x,1/2-y,-z
1/2-x,1/2+y,-z
1/2-x,1/2-y,-z
1/2+x,1/2+y,-z
1/2-x,1/2+y,z
1/2+x,1/2-y,z
loop_
_atom_site_type_symbol
_atom_site_label
_atom_site_fract_x
_atom_site_fract_y
_atom_site_fract_z
Si Si1 0.388608 0.919421 0.500000
Si Si2 0.609401 0.136558 0.670607
Si Si3 0.283607 0.422822 0.745738
Si Si4 0.889146 0.722372 0.912560
Si Si5 0.782543 0.577739 0.912568
Si Si6 0.609486 0.713120 0.252190
O O1 0.500000 0.923227 0.500000
O O2 0.364413 0.879728 0.580385
O O3 0.353915 0.000000 0.500000
O O4 0.500000 0.121649 0.681801
O O5 0.676703 0.089088 0.723044
O O6 0.625135 0.217046 0.696255
O O7 0.313632 0.500000 0.718366
O O8 0.287973 0.420557 0.840551
O O9 0.339254 0.355496 0.716512
O O10 0.850495 0.643561 0.904383
O O11 0.858957 0.767114 0.836923
O O12 0.000000 0.719697 0.909838
O O13 0.861913 0.748829 0.000000
O O14 0.827984 0.500000 0.907821
O O15 0.740666 0.582766 0.000000
O O16 0.500000 0.700107 0.249939
#
# Coordination Sequence:
#
# PCOD9490660 Si02
#       6
#     8  16  16  16  16  16
#     4   9  18  34  57  86 118 144 167 203 260 328
#     4  10  20  36  59  86 112 138 169 212 265 323
#     4  11  22  35  54  78 108 146 184 224 270 318
#     4   9  17  30  49  73 102 141 185 225 268 315
#     4   9  18  30  45  71 106 142 179 220 269 322
#     4  10  21  37  54  76 108 143 186 232 266 309
#
# _framework density 18.789549999999998
#
# number of rings (size 3 to 8) (size 9 to 14) (size 15 to 20)
#    0.000    2.273    1.818    1.091    0.000    2.545 
#    0.000    7.273    0.000    0.000    0.000    5.091 
#    0.000    5.818    0.000    0.000    0.000    0.000 
#
# Total GULP energy -245286.633037 kJ/mol
# GULP energy per Si atom -5574.696205 kJ/mol
# Density = 1.874678 g / cm^3
# Si number density = 18.789550 Si / 1000 Ang^3
#
#
#
# Elastic Constant Matrix: (Units=GPa)
#
#
# Indices 1 2 3 4 5 6 
#
# 1 37.9120 32.0807 5.9483 0.0000 0.0000 0.0000
# 2 32.0807 133.7805 33.3916 0.0000 0.0000 0.0000
# 3 5.9483 33.3916 87.0449 0.0000 0.0000 0.0000
# 4 0.0000 0.0000 0.0000 4.2200 0.0000 0.0000
# 5 0.0000 0.0000 0.0000 0.0000 3.9683 0.0000
# 6 0.0000 0.0000 0.0000 0.0000 0.0000 17.1617
#
#
#
# Elastic Compliance Matrix: (Units=1/GPa)
#
#
# Indices 1 2 3 4 5 6 
#
# 1 0.033151 -0.008166 0.000867 0.000000 0.000000 0.000000
# 2 -0.008166 0.010278 -0.003385 0.000000 0.000000 0.000000
# 3 0.000867 -0.003385 0.012727 0.000000 0.000000 0.000000
# 4 0.000000 0.000000 0.000000 0.236969 0.000000 0.000000
# 5 0.000000 0.000000 0.000000 0.000000 0.251996 0.000000
# 6 0.000000 0.000000 0.000000 0.000000 0.000000 0.058269
#
#
# Mechanical properties :
#
#
# Convention : Reuss Voigt Hill
#
# Bulk Modulus (GPa) = 28.74456 44.61983 36.68220
# Shear Modulus (GPa) = 7.85726 17.55778 12.70752
#
# Velocity S-wave (km/s) = 2.04714 3.06018 2.60341
# Velocity P-wave (km/s) = 4.57374 6.02370 5.34809
#
# Compressibility (1/GPa) = 0.03478919
#
# Stress axis : x y z
#
# Youngs Moduli (GPa) = 30.16510 97.29520 78.57003
#
# Poissons Ratio (x) = 0.79452 -0.06814
# Poissons Ratio (y) = 0.24633 0.26594
# Poissons Ratio (z) = -0.02616 0.32932
#
# Static dielectric constant tensor:
#      x y z
#    x 1.643130 0.000000 0.000000 
#    y 0.000000 1.663100 0.000000 
#    z 0.000000 0.000000 1.688480 
# 
# From -- ./inp_files/53033.got.cif
#   From: 2010.05.17/outbox.cif.g08.bks.cpg/sg65_27_cif.got.tgz:53033.got - 2010.06.03 17:01:31.
