data_PCOD9490521
_publ_section_title
;
Structure prediction by ZEFSAII (Michael W. Deem and Ramdas Pophale) SiO2 
 PCOD9490521
Probable space group: C M M M
;
_chemical_formula_sum "Si O2"
_cell_formula_units_Z 88
_cell_length_a 15.224014
_cell_length_b 9.608004
_cell_length_c 27.810794
_cell_angle_alpha 90.000000
_cell_angle_beta 90.000000
_cell_angle_gamma 90.000000
_cell_volume 4067.951234
_symmetry_space_group_name_H-M "C M M M"
_symmetry_group_IT_number 65
_symmetry_cell_setting 'orthorhombic'
loop_
_space_group_symop_operation_xyz
x,y,z
-x,-y,z
x,-y,-z
-x,y,-z
-x,-y,-z
x,y,-z
-x,y,z
x,-y,z
1/2+x,1/2+y,z
1/2-x,1/2-y,z
1/2+x,1/2-y,-z
1/2-x,1/2+y,-z
1/2-x,1/2-y,-z
1/2+x,1/2+y,-z
1/2-x,1/2+y,z
1/2+x,1/2-y,z
loop_
_atom_site_type_symbol
_atom_site_label
_atom_site_fract_x
_atom_site_fract_y
_atom_site_fract_z
Si Si1 0.607774 0.000000 0.444092
Si Si2 0.108219 0.337774 0.000000
Si Si3 0.897921 0.840719 0.909561
Si Si4 0.392823 0.252008 0.378230
Si Si5 0.341568 0.169643 0.180144
Si Si6 0.894402 0.839836 0.727128
Si Si7 0.393092 0.500000 0.446220
O O1 0.636482 0.124211 0.409992
O O2 0.500000 0.000000 0.446394
O O3 0.636196 0.000000 0.500000
O O4 0.139147 0.250390 0.953506
O O5 0.136430 0.500000 0.000000
O O6 0.000000 0.341912 0.000000
O O7 0.895435 0.742417 0.862669
O O8 0.000000 0.859794 0.921373
O O9 0.861625 0.000000 0.902958
O O10 0.500000 0.245171 0.374914
O O11 0.361982 0.282466 0.324283
O O12 0.367466 0.373599 0.413636
O O13 0.250000 0.250000 0.173100
O O14 0.373331 0.229467 0.231367
O O15 0.339508 0.000000 0.178288
O O16 0.000000 0.850122 0.724604
O O17 0.862221 0.000000 0.736275
O O18 0.500000 0.500000 0.449370
O O19 0.358871 0.500000 0.500000
#
# Coordination Sequence:
#
# PCOD9490521 Si02
#       7
#     8   8  16  16  16  16   8
#     4   9  16  24  36  60  99 141 175 214 267 324
#     4   9  17  31  56  91 128 161 198 239 275 323
#     4  10  20  37  62  92 125 160 196 235 282 333
#     4   9  16  26  41  65  99 138 177 218 266 326
#     4  12  26  42  60  82 112 149 192 241 292 344
#     4  10  20  36  57  81 111 146 186 234 285 337
#     4   9  14  22  38  62  95 137 177 210 257 324
#
# _framework density 21.632511000000001
#
# number of rings (size 3 to 8) (size 9 to 14) (size 15 to 20)
#    0.000    2.091    0.909    3.545    1.273    6.909 
#    0.000    0.455    0.000    0.000    0.000    0.000 
#    0.000    4.364    0.000    0.000    0.000    0.000 
#
# Total GULP energy -245164.880308 kJ/mol
# GULP energy per Si atom -5571.929098 kJ/mol
# Density = 2.158327 g / cm^3
# Si number density = 21.632511 Si / 1000 Ang^3
#
#
#
# Elastic Constant Matrix: (Units=GPa)
#
#
# Indices 1 2 3 4 5 6 
#
# 1 35.1047 8.1281 -3.5235 0.0000 0.0000 0.0000
# 2 8.1281 268.4282 111.9628 0.0000 0.0000 0.0000
# 3 -3.5235 111.9628 179.9440 0.0000 0.0000 0.0000
# 4 0.0000 0.0000 0.0000 33.9732 0.0000 0.0000
# 5 0.0000 0.0000 0.0000 0.0000 682.5704 0.0000
# 6 0.0000 0.0000 0.0000 0.0000 0.0000 10.6526
#
#
#
# Elastic Compliance Matrix: (Units=1/GPa)
#
#
# Indices 1 2 3 4 5 6 
#
# 1 0.028986 -0.001505 0.001504 0.000000 0.000000 0.000000
# 2 -0.001505 0.005109 -0.003208 0.000000 0.000000 0.000000
# 3 0.001504 -0.003208 0.007583 0.000000 0.000000 0.000000
# 4 0.000000 0.000000 0.000000 0.029435 0.000000 0.000000
# 5 0.000000 0.000000 0.000000 0.000000 0.001465 0.000000
# 6 0.000000 0.000000 0.000000 0.000000 0.000000 0.093874
#
#
# Mechanical properties :
#
#
# Convention : Reuss Voigt Hill
#
# Bulk Modulus (GPa) = 28.36160 79.62353 53.99257
# Shear Modulus (GPa) = 27.08210 169.89988 98.49099
#
# Velocity S-wave (km/s) = 3.54208 8.87185 6.75485
# Velocity P-wave (km/s) = 5.46512 11.90938 9.26555
#
# Compressibility (1/GPa) = 0.03525894
#
# Stress axis : x y z
#
# Youngs Moduli (GPa) = 34.49987 195.72379 131.87242
#
# Poissons Ratio (x) = 0.29457 -0.19834
# Poissons Ratio (y) = 0.05192 0.42311
# Poissons Ratio (z) = -0.05189 0.62798
#
# Static dielectric constant tensor:
#      x y z
#    x 1.899450 0.000000 0.000000 
#    y 0.000000 1.719490 0.000000 
#    z 0.000000 0.000000 1.799720 
# 
# From -- ./inp_files/78018.got.cif
#   From: 2010.05.17/outbox.cif.g08.bks.cpg/sg65_40_cif.got.tgz:78018.got - 2010.06.03 17:01:31.
