data_PCOD9490915
_publ_section_title
;
Structure prediction by ZEFSAII (Michael W. Deem and Ramdas Pophale) SiO2 
 PCOD9490915
Probable space group: C M M M
;
_chemical_formula_sum "Si O2"
_cell_formula_units_Z 72
_cell_length_a 10.736608
_cell_length_b 25.360624
_cell_length_c 14.952805
_cell_angle_alpha 90.000000
_cell_angle_beta 90.000000
_cell_angle_gamma 90.000000
_cell_volume 4071.455589
_symmetry_space_group_name_H-M "C M M M"
_symmetry_group_IT_number 65
_symmetry_cell_setting 'orthorhombic'
loop_
_space_group_symop_operation_xyz
x,y,z
-x,-y,z
x,-y,-z
-x,y,-z
-x,-y,-z
x,y,-z
-x,y,z
x,-y,z
1/2+x,1/2+y,z
1/2-x,1/2-y,z
1/2+x,1/2-y,-z
1/2-x,1/2+y,-z
1/2-x,1/2-y,-z
1/2+x,1/2+y,-z
1/2-x,1/2+y,z
1/2+x,1/2-y,z
loop_
_atom_site_type_symbol
_atom_site_label
_atom_site_fract_x
_atom_site_fract_y
_atom_site_fract_z
Si Si1 0.500000 0.093352 0.893730
Si Si2 0.000000 0.436288 0.398810
Si Si3 0.796819 0.437848 0.748595
Si Si4 0.000000 0.279803 0.896783
Si Si5 0.146334 0.797318 0.500000
Si Si6 0.750000 0.250000 0.201565
Si Si7 0.856050 0.155956 0.307080
O O1 0.620105 0.073099 0.837374
O O2 0.500000 0.156738 0.887771
O O3 0.500000 0.078948 0.000000
O O4 0.882485 0.422709 0.337177
O O5 0.000000 0.500000 0.404580
O O6 0.000000 0.415203 0.500000
O O7 0.769677 0.500000 0.745227
O O8 0.679389 0.400314 0.734516
O O9 0.874827 0.257314 0.854366
O O10 0.000000 0.266269 0.000000
O O11 0.250000 0.750000 0.500000
O O12 0.160407 0.834016 0.412697
O O13 0.000000 0.777467 0.500000
O O14 0.767217 0.198517 0.261298
O O15 0.000000 0.168074 0.287267
#
# Coordination Sequence:
#
# PCOD9490915 Si02
#       7
#     8   8  16   8   8   8  16
#     4  10  20  37  63  92 118 150 198 249 300 358
#     4   8  16  32  53  80 111 142 181 234 288 344
#     4  10  21  37  58  85 116 154 198 241 296 355
#     4  11  23  38  61  94 122 153 195 243 305 365
#     4  10  22  40  59  87 120 158 199 248 298 359
#     4  12  21  39  64  86 118 160 192 243 299 358
#     4  11  23  39  59  85 119 155 200 244 296 358
#
# _framework density 17.684092
#
# number of rings (size 3 to 8) (size 9 to 14) (size 15 to 20)
#    0.000    1.667    4.444    1.333    1.556    1.333 
#    4.000    0.000    0.000    2.000    0.000    1.556 
#    0.000    0.000    0.000    0.000    0.000    0.000 
#
# Total GULP energy -200674.364903 kJ/mol
# GULP energy per Si atom -5574.287914 kJ/mol
# Density = 1.764384 g / cm^3
# Si number density = 17.684092 Si / 1000 Ang^3
#
#
#
# Elastic Constant Matrix: (Units=GPa)
#
#
# Indices 1 2 3 4 5 6 
#
# 1 83.7762 23.2517 44.6935 0.0000 0.0000 0.0000
# 2 23.2517 68.7886 35.7494 0.0000 0.0000 0.0000
# 3 44.6935 35.7494 134.5491 0.0000 0.0000 0.0000
# 4 0.0000 0.0000 0.0000 22.6053 0.0000 0.0000
# 5 0.0000 0.0000 0.0000 0.0000 30.1345 0.0000
# 6 0.0000 0.0000 0.0000 0.0000 0.0000 30.9069
#
#
#
# Elastic Compliance Matrix: (Units=1/GPa)
#
#
# Indices 1 2 3 4 5 6 
#
# 1 0.014982 -0.002875 -0.004213 0.000000 0.000000 0.000000
# 2 -0.002875 0.017418 -0.003673 0.000000 0.000000 0.000000
# 3 -0.004213 -0.003673 0.009807 0.000000 0.000000 0.000000
# 4 0.000000 0.000000 0.000000 0.044237 0.000000 0.000000
# 5 0.000000 0.000000 0.000000 0.000000 0.033185 0.000000
# 6 0.000000 0.000000 0.000000 0.000000 0.000000 0.032355
#
#
# Mechanical properties :
#
#
# Convention : Reuss Voigt Hill
#
# Bulk Modulus (GPa) = 48.34127 54.94478 51.64302
# Shear Modulus (GPa) = 27.71606 28.95729 28.33668
#
# Velocity S-wave (km/s) = 3.96319 4.05097 4.00732
# Velocity P-wave (km/s) = 6.95255 7.28135 7.11885
#
# Compressibility (1/GPa) = 0.02068626
#
# Stress axis : x y z
#
# Youngs Moduli (GPa) = 66.74723 57.41237 101.96285
#
# Poissons Ratio (x) = 0.16505 0.42954
# Poissons Ratio (y) = 0.19188 0.37451
# Poissons Ratio (z) = 0.28119 0.21087
#
# Static dielectric constant tensor:
#      x y z
#    x 1.596790 0.000000 0.000000 
#    y 0.000000 1.582660 0.000000 
#    z 0.000000 0.000000 1.604880 
# 
# From -- ./inp_files/36751.got.cif
#   From: 2010.05.17/outbox.cif.g08.bks.cpg/sg65_19_cif.got.tgz:36751.got - 2010.06.03 17:01:31.
