data_PCOD9490244
_publ_section_title
;
Structure prediction by ZEFSAII (Michael W. Deem and Ramdas Pophale) SiO2 
 PCOD9490244
Probable space group: C M M M
;
_chemical_formula_sum "Si O2"
_cell_formula_units_Z 80
_cell_length_a 9.038754
_cell_length_b 18.147456
_cell_length_c 27.971794
_cell_angle_alpha 90.000000
_cell_angle_beta 90.000000
_cell_angle_gamma 90.000000
_cell_volume 4588.224293
_symmetry_space_group_name_H-M "C M M M"
_symmetry_group_IT_number 65
_symmetry_cell_setting 'orthorhombic'
loop_
_space_group_symop_operation_xyz
x,y,z
-x,-y,z
x,-y,-z
-x,y,-z
-x,-y,-z
x,y,-z
-x,y,z
x,-y,z
1/2+x,1/2+y,z
1/2-x,1/2-y,z
1/2+x,1/2-y,-z
1/2-x,1/2+y,-z
1/2-x,1/2-y,-z
1/2+x,1/2+y,-z
1/2-x,1/2+y,z
1/2+x,1/2-y,z
loop_
_atom_site_type_symbol
_atom_site_label
_atom_site_fract_x
_atom_site_fract_y
_atom_site_fract_z
Si Si1 0.322156 0.830146 0.312806
Si Si2 0.823224 0.412629 0.411280
Si Si3 0.678461 0.914255 0.215862
Si Si4 0.176723 0.830555 0.500000
Si Si5 0.000000 0.087716 0.943734
Si Si6 0.667151 0.674151 0.131123
O O1 0.500000 0.822359 0.311683
O O2 0.250000 0.750000 0.313714
O O3 0.285210 0.875596 0.360592
O O4 0.277797 0.874618 0.265268
O O5 0.795697 0.500000 0.410029
O O6 0.733728 0.374149 0.453521
O O7 0.000000 0.402061 0.419438
O O8 0.500000 0.911188 0.212507
O O9 0.749012 0.871839 0.171396
O O10 0.722483 0.000000 0.216125
O O11 0.250000 0.750000 0.500000
O O12 0.000000 0.824461 0.500000
O O13 0.138206 0.125028 0.916138
O O14 0.000000 0.000000 0.936372
O O15 0.000000 0.102877 0.000000
O O16 0.500000 0.691209 0.148714
O O17 0.750000 0.750000 0.120967
#
# Coordination Sequence:
#
# PCOD9490244 Si02
#       6
#    16  16  16   8   8  16
#     4  10  21  36  55  81 112 148 188 231 281 337
#     4  10  21  39  61  83 110 144 184 227 279 338
#     4  10  20  35  57  83 116 154 193 237 288 344
#     4  12  25  40  59  83 111 143 183 230 279 334
#     4   9  20  38  60  84 115 155 197 242 293 345
#     4  10  21  35  57  84 116 150 194 239 287 343
#
# _framework density 17.435938
#
# number of rings (size 3 to 8) (size 9 to 14) (size 15 to 20)
#    0.600    1.300    0.000    4.200    0.000    9.200 
#    0.000    0.000    0.000    3.600    0.000    4.200 
#    0.000    0.000    0.000    0.000    0.000    0.000 
#
# Total GULP energy -223224.826241 kJ/mol
# GULP energy per Si atom -5580.620656 kJ/mol
# Density = 1.739625 g / cm^3
# Si number density = 17.435938 Si / 1000 Ang^3
#
#
#
# Elastic Constant Matrix: (Units=GPa)
#
#
# Indices 1 2 3 4 5 6 
#
# 1 51.1140 67.8280 60.6334 0.0000 0.0000 0.0000
# 2 67.8280 180.4656 112.6905 0.0000 0.0000 0.0000
# 3 60.6334 112.6905 182.3153 0.0000 0.0000 0.0000
# 4 0.0000 0.0000 0.0000 76.5388 0.0000 0.0000
# 5 0.0000 0.0000 0.0000 0.0000 9.3691 0.0000
# 6 0.0000 0.0000 0.0000 0.0000 0.0000 30.3742
#
#
#
# Elastic Compliance Matrix: (Units=1/GPa)
#
#
# Indices 1 2 3 4 5 6 
#
# 1 0.044177 -0.012100 -0.007213 0.000000 0.000000 0.000000
# 2 -0.012100 0.012338 -0.003602 0.000000 0.000000 0.000000
# 3 -0.007213 -0.003602 0.010111 0.000000 0.000000 0.000000
# 4 0.000000 0.000000 0.000000 0.013065 0.000000 0.000000
# 5 0.000000 0.000000 0.000000 0.000000 0.106734 0.000000
# 6 0.000000 0.000000 0.000000 0.000000 0.000000 0.032923
#
#
# Mechanical properties :
#
#
# Convention : Reuss Voigt Hill
#
# Bulk Modulus (GPa) = 48.08783 99.57765 73.83274
# Shear Modulus (GPa) = 18.37495 34.77262 26.57379
#
# Velocity S-wave (km/s) = 3.24984 4.47061 3.90818
# Velocity P-wave (km/s) = 6.45922 9.15877 7.92479
#
# Compressibility (1/GPa) = 0.02079528
#
# Stress axis : x y z
#
# Youngs Moduli (GPa) = 22.63635 81.04809 98.90585
#
# Poissons Ratio (x) = 0.98065 0.71343
# Poissons Ratio (y) = 0.27389 0.35630
# Poissons Ratio (z) = 0.16328 0.29197
#
# Static dielectric constant tensor:
#      x y z
#    x 1.584570 0.000000 0.000000 
#    y 0.000000 1.567200 0.000000 
#    z 0.000000 0.000000 1.566920 
# 
# From -- ./inp_files/72966.got.cif
#   From: 2010.05.17/outbox.cif.g08.bks.cpg/sg65_37_cif.got.tgz:72966.got - 2010.06.03 17:01:31.
