data_PCOD9490075
_publ_section_title
;
Structure prediction by ZEFSAII (Michael W. Deem and Ramdas Pophale) SiO2 
 PCOD9490075
Probable space group: C M M M
;
_chemical_formula_sum "Si O2"
_cell_formula_units_Z 104
_cell_length_a 29.576223
_cell_length_b 8.948762
_cell_length_c 23.597260
_cell_angle_alpha 90.000000
_cell_angle_beta 90.000000
_cell_angle_gamma 90.000000
_cell_volume 6245.500502
_symmetry_space_group_name_H-M "C M M M"
_symmetry_group_IT_number 65
_symmetry_cell_setting 'orthorhombic'
loop_
_space_group_symop_operation_xyz
x,y,z
-x,-y,z
x,-y,-z
-x,y,-z
-x,-y,-z
x,y,-z
-x,y,z
x,-y,z
1/2+x,1/2+y,z
1/2-x,1/2-y,z
1/2+x,1/2-y,-z
1/2-x,1/2+y,-z
1/2-x,1/2-y,-z
1/2+x,1/2+y,-z
1/2-x,1/2+y,z
1/2+x,1/2-y,z
loop_
_atom_site_type_symbol
_atom_site_label
_atom_site_fract_x
_atom_site_fract_y
_atom_site_fract_z
Si Si1 0.391865 0.820655 0.105043
Si Si2 0.298470 0.677554 0.068114
Si Si3 0.205386 0.330661 0.431185
Si Si4 0.054080 0.179137 0.000000
Si Si5 0.553525 0.319434 0.792623
Si Si6 0.393944 0.180384 0.564521
Si Si7 0.445838 0.671217 0.664229
O O1 0.341201 0.756381 0.097419
O O2 0.422254 0.751765 0.054512
O O3 0.415342 0.763939 0.162532
O O4 0.391337 0.000000 0.101666
O O5 0.298337 0.500000 0.079706
O O6 0.250000 0.750000 0.083265
O O7 0.304172 0.696987 0.000000
O O8 0.207559 0.334851 0.500000
O O9 0.206062 0.500000 0.410463
O O10 0.250000 0.250000 0.410218
O O11 0.156339 0.262895 0.419391
O O12 0.000000 0.204151 0.000000
O O13 0.061814 0.000000 0.000000
O O14 0.500000 0.285438 0.801354
O O15 0.557916 0.500000 0.798412
O O16 0.566343 0.279166 0.727918
O O17 0.404985 0.229092 0.500000
O O18 0.427425 0.232853 0.612731
O O19 0.391787 0.000000 0.563102
O O20 0.500000 0.670960 0.662826
O O21 0.430332 0.500000 0.657027
#
# Coordination Sequence:
#
# PCOD9490075 Si02
#       7
#    16  16  16   8  16  16  16
#     4  12  23  34  53  81 110 137 172 216 261 307
#     4  10  20  35  56  79 108 143 179 216 259 309
#     4   8  14  25  41  63  92 124 157 192 233 286
#     4  11  23  37  52  73 106 145 177 209 257 309
#     4   9  19  37  57  74  98 135 175 214 261 316
#     4   9  18  31  47  71 103 134 163 202 256 313
#     4   9  19  35  53  73  97 129 172 217 256 300
#
# _framework density 16.651986999999998
#
# number of rings (size 3 to 8) (size 9 to 14) (size 15 to 20)
#    0.000    2.385    0.769    4.385    0.000    5.538 
#    0.000    4.615    0.000    0.923    0.000    2.154 
#    0.000    0.000    0.000    0.000    0.000    0.000 
#
# Total GULP energy -289848.738228 kJ/mol
# GULP energy per Si atom -5574.014197 kJ/mol
# Density = 1.661409 g / cm^3
# Si number density = 16.651987 Si / 1000 Ang^3
#
#
#
# Elastic Constant Matrix: (Units=GPa)
#
#
# Indices 1 2 3 4 5 6 
#
# 1 98.3997 54.6336 66.2162 0.0000 0.0000 0.0000
# 2 54.6336 74.9070 51.9653 0.0000 0.0000 0.0000
# 3 66.2162 51.9653 105.0395 0.0000 0.0000 0.0000
# 4 0.0000 0.0000 0.0000 18.7488 0.0000 0.0000
# 5 0.0000 0.0000 0.0000 0.0000 -2.5479 0.0000
# 6 0.0000 0.0000 0.0000 0.0000 0.0000 31.6886
#
#
#
# Elastic Compliance Matrix: (Units=1/GPa)
#
#
# Indices 1 2 3 4 5 6 
#
# 1 0.021308 -0.009474 -0.008745 0.000000 0.000000 0.000000
# 2 -0.009474 0.024538 -0.006167 0.000000 0.000000 0.000000
# 3 -0.008745 -0.006167 0.018084 0.000000 0.000000 0.000000
# 4 0.000000 0.000000 0.000000 0.053337 0.000000 0.000000
# 5 0.000000 0.000000 0.000000 0.000000 -0.392479 0.000000
# 6 0.000000 0.000000 0.000000 0.000000 0.000000 0.031557
#
#
# Mechanical properties :
#
#
# Convention : Reuss Voigt Hill
#
# Bulk Modulus (GPa) = 65.97530 69.33072 67.65301
# Shear Modulus (GPa) = -26.33932 16.61332 -4.86300
#
# Velocity S-wave (km/s) = -3.98144 3.16203 -1.71076
# Velocity P-wave (km/s) = 4.30932 7.42002 6.06741
#
# Compressibility (1/GPa) = 0.01515719
#
# Stress axis : x y z
#
# Youngs Moduli (GPa) = 46.93132 40.75287 55.29683
#
# Poissons Ratio (x) = 0.38609 0.48358
# Poissons Ratio (y) = 0.44463 0.34103
# Poissons Ratio (z) = 0.41043 0.25133
#
# Static dielectric constant tensor:
#      x y z
#    x 1.566470 0.000000 0.000000 
#    y 0.000000 1.564110 0.000000 
#    z 0.000000 0.000000 1.540250 
# 
# From -- ./inp_files/72153.got.cif
#   From: 2010.05.17/outbox.cif.g08.bks.cpg/sg65_37_cif.got.tgz:72153.got - 2010.06.03 17:01:31.
