data_PCOD9490355
_publ_section_title
;
Structure prediction by ZEFSAII (Michael W. Deem and Ramdas Pophale) SiO2 
 PCOD9490355
Probable space group: C M M M
;
_chemical_formula_sum "Si O2"
_cell_formula_units_Z 104
_cell_length_a 28.260092
_cell_length_b 8.779525
_cell_length_c 22.303553
_cell_angle_alpha 90.000000
_cell_angle_beta 90.000000
_cell_angle_gamma 90.000000
_cell_volume 5533.738644
_symmetry_space_group_name_H-M "C M M M"
_symmetry_group_IT_number 65
_symmetry_cell_setting 'orthorhombic'
loop_
_space_group_symop_operation_xyz
x,y,z
-x,-y,z
x,-y,-z
-x,y,-z
-x,-y,-z
x,y,-z
-x,y,z
x,-y,z
1/2+x,1/2+y,z
1/2-x,1/2-y,z
1/2+x,1/2-y,-z
1/2-x,1/2+y,-z
1/2-x,1/2-y,-z
1/2+x,1/2+y,-z
1/2-x,1/2+y,z
1/2+x,1/2-y,z
loop_
_atom_site_type_symbol
_atom_site_label
_atom_site_fract_x
_atom_site_fract_y
_atom_site_fract_z
Si Si1 0.697429 0.815532 0.432784
Si Si2 0.943437 0.675962 0.000000
Si Si3 0.603886 0.317421 0.883381
Si Si4 0.445363 0.683391 0.758899
Si Si5 0.301503 0.182229 0.929572
Si Si6 0.618447 0.175021 0.344211
Si Si7 0.445456 0.331687 0.571419
O O1 0.679063 0.771452 0.500000
O O2 0.750000 0.750000 0.428330
O O3 0.666053 0.763806 0.376120
O O4 0.698248 0.000000 0.431404
O O5 0.923994 0.757656 0.941176
O O6 0.927000 0.500000 0.000000
O O7 0.000000 0.678700 0.000000
O O8 0.606738 0.500000 0.884573
O O9 0.575415 0.271320 0.823730
O O10 0.656570 0.249565 0.889368
O O11 0.500000 0.736967 0.750298
O O12 0.446723 0.500000 0.756551
O O13 0.408053 0.740304 0.709516
O O14 0.250000 0.250000 0.914943
O O15 0.300369 0.000000 0.924704
O O16 0.311233 0.220982 0.000000
O O17 0.582070 0.194951 0.399070
O O18 0.625650 0.000000 0.327277
O O19 0.443919 0.324787 0.500000
O O20 0.500000 0.327343 0.590399
O O21 0.426537 0.500000 0.589696
#
# Coordination Sequence:
#
# PCOD9490355 Si02
#       7
#    16   8  16  16  16  16  16
#     4   9  19  36  57  83 114 145 182 231 284 339
#     4  11  23  37  56  85 118 149 185 237 299 359
#     4  11  22  38  61  86 114 151 195 242 295 351
#     4  10  23  42  60  80 111 153 199 241 281 336
#     4  10  20  35  58  88 122 153 185 228 282 341
#     4  11  22  35  54  81 111 145 184 231 286 338
#     4   9  18  32  50  74 105 141 181 224 270 325
#
# _framework density 18.793803
#
# number of rings (size 3 to 8) (size 9 to 14) (size 15 to 20)
#    0.000    1.923    0.769    3.462    0.000    7.692 
#    0.000    3.077    0.000    1.846    0.000    0.000 
#    0.000    0.000    0.000    0.000    0.000    0.000 
#
# Total GULP energy -290103.373506 kJ/mol
# GULP energy per Si atom -5578.911029 kJ/mol
# Density = 1.875103 g / cm^3
# Si number density = 18.793803 Si / 1000 Ang^3
#
#
#
# Elastic Constant Matrix: (Units=GPa)
#
#
# Indices 1 2 3 4 5 6 
#
# 1 112.4417 26.2970 67.8429 0.0000 0.0000 0.0000
# 2 26.2970 28.1963 24.0638 0.0000 0.0000 0.0000
# 3 67.8429 24.0638 113.0828 0.0000 0.0000 0.0000
# 4 0.0000 0.0000 0.0000 19.2413 0.0000 0.0000
# 5 0.0000 0.0000 0.0000 0.0000 37.9348 0.0000
# 6 0.0000 0.0000 0.0000 0.0000 0.0000 30.9217
#
#
#
# Elastic Compliance Matrix: (Units=1/GPa)
#
#
# Indices 1 2 3 4 5 6 
#
# 1 0.015234 -0.007830 -0.007473 0.000000 0.000000 0.000000
# 2 -0.007830 0.047360 -0.005381 0.000000 0.000000 0.000000
# 3 -0.007473 -0.005381 0.014472 0.000000 0.000000 0.000000
# 4 0.000000 0.000000 0.000000 0.051972 0.000000 0.000000
# 5 0.000000 0.000000 0.000000 0.000000 0.026361 0.000000
# 6 0.000000 0.000000 0.000000 0.000000 0.000000 0.032340
#
#
# Mechanical properties :
#
#
# Convention : Reuss Voigt Hill
#
# Bulk Modulus (GPa) = 28.01273 54.45867 41.23570
# Shear Modulus (GPa) = 20.74654 26.65403 23.70029
#
# Velocity S-wave (km/s) = 3.32611 3.77003 3.55501
# Velocity P-wave (km/s) = 5.44870 6.92753 6.23214
#
# Compressibility (1/GPa) = 0.03569806
#
# Stress axis : x y z
#
# Youngs Moduli (GPa) = 65.64424 21.11485 69.10127
#
# Poissons Ratio (x) = 0.16532 0.51640
# Poissons Ratio (y) = 0.51397 0.37182
# Poissons Ratio (z) = 0.49057 0.11361
#
# Static dielectric constant tensor:
#      x y z
#    x 1.657450 0.000000 0.000000 
#    y 0.000000 1.660580 0.000000 
#    z 0.000000 0.000000 1.652240 
# 
# From -- ./inp_files/65892.got.cif
#   From: 2010.05.17/outbox.cif.g08.bks.cpg/sg65_33_cif.got.tgz:65892.got - 2010.06.03 17:01:31.
