data_PCOD9490792
_publ_section_title
;
Structure prediction by ZEFSAII (Michael W. Deem and Ramdas Pophale) SiO2 
 PCOD9490792
Probable space group: C M M M
;
_chemical_formula_sum "Si O2"
_cell_formula_units_Z 92
_cell_length_a 8.873079
_cell_length_b 20.858931
_cell_length_c 27.141804
_cell_angle_alpha 90.000000
_cell_angle_beta 90.000000
_cell_angle_gamma 90.000000
_cell_volume 5023.484952
_symmetry_space_group_name_H-M "C M M M"
_symmetry_group_IT_number 65
_symmetry_cell_setting 'orthorhombic'
loop_
_space_group_symop_operation_xyz
x,y,z
-x,-y,z
x,-y,-z
-x,y,-z
-x,-y,-z
x,y,-z
-x,y,z
x,-y,z
1/2+x,1/2+y,z
1/2-x,1/2-y,z
1/2+x,1/2-y,-z
1/2-x,1/2+y,-z
1/2-x,1/2-y,-z
1/2+x,1/2+y,-z
1/2-x,1/2+y,z
1/2+x,1/2-y,z
loop_
_atom_site_type_symbol
_atom_site_label
_atom_site_fract_x
_atom_site_fract_y
_atom_site_fract_z
Si Si1 0.680125 0.573487 0.365133
Si Si2 0.180616 0.075630 0.000000
Si Si3 0.666849 0.124745 0.098867
Si Si4 0.000000 0.500000 0.130330
Si Si5 0.178618 0.816785 0.809449
Si Si6 0.320231 0.925891 0.257764
Si Si7 0.318419 0.318602 0.443289
O O1 0.500000 0.580731 0.355568
O O2 0.703798 0.500000 0.381881
O O3 0.769615 0.582370 0.314354
O O4 0.725571 0.624941 0.406154
O O5 0.249346 0.108180 0.048455
O O6 0.000000 0.079160 0.000000
O O7 0.225349 0.000000 0.000000
O O8 0.500000 0.153113 0.088749
O O9 0.760251 0.167922 0.136003
O O10 0.628373 0.057049 0.125572
O O11 0.250000 0.750000 0.792164
O O12 0.234637 0.874531 0.775019
O O13 0.000000 0.812505 0.808962
O O14 0.500000 0.917654 0.252050
O O15 0.286503 0.000000 0.244019
O O16 0.272956 0.331840 0.500000
O O17 0.500000 0.314076 0.442307
O O18 0.250000 0.250000 0.428965
#
# Coordination Sequence:
#
# PCOD9490792 Si02
#       7
#    16   8  16   4  16  16  16
#     4   9  18  34  54  80 110 142 183 231 279 329
#     4  11  19  31  54  89 122 151 192 239 279 325
#     4  10  20  37  58  86 118 153 188 230 280 335
#     4   8  20  33  64  88 120 152 190 228 287 334
#     4  12  26  43  61  85 115 150 190 234 284 339
#     4  10  22  39  62  86 114 148 186 231 283 339
#     4   9  18  32  51  76 107 145 186 228 275 329
#
# _framework density 18.313977999999999
#
# number of rings (size 3 to 8) (size 9 to 14) (size 15 to 20)
#    0.522    1.478    0.870    2.870    1.217    3.478 
#    0.000    3.913    0.000    0.000    0.000    4.870 
#    0.000    0.000    0.000    0.000    0.000    0.000 
#
# Total GULP energy -256175.625869 kJ/mol
# GULP energy per Si atom -5569.035345 kJ/mol
# Density = 1.827229 g / cm^3
# Si number density = 18.313978 Si / 1000 Ang^3
#
#
#
# Elastic Constant Matrix: (Units=GPa)
#
#
# Indices 1 2 3 4 5 6 
#
# 1 98.2077 65.2795 49.5933 0.0000 0.0000 0.0000
# 2 65.2795 110.9138 71.5616 0.0000 0.0000 0.0000
# 3 49.5933 71.5616 89.9713 0.0000 0.0000 0.0000
# 4 0.0000 0.0000 0.0000 9.1577 0.0000 0.0000
# 5 0.0000 0.0000 0.0000 0.0000 14.1132 0.0000
# 6 0.0000 0.0000 0.0000 0.0000 0.0000 31.1081
#
#
#
# Elastic Compliance Matrix: (Units=1/GPa)
#
#
# Indices 1 2 3 4 5 6 
#
# 1 0.017091 -0.008177 -0.002917 0.000000 0.000000 0.000000
# 2 -0.008177 0.022433 -0.013335 0.000000 0.000000 0.000000
# 3 -0.002917 -0.013335 0.023329 0.000000 0.000000 0.000000
# 4 0.000000 0.000000 0.000000 0.109197 0.000000 0.000000
# 5 0.000000 0.000000 0.000000 0.000000 0.070856 0.000000
# 6 0.000000 0.000000 0.000000 0.000000 0.000000 0.032146
#
#
# Mechanical properties :
#
#
# Convention : Reuss Voigt Hill
#
# Bulk Modulus (GPa) = 71.45750 74.66241 73.05995
# Shear Modulus (GPa) = 15.21728 18.38637 16.80182
#
# Velocity S-wave (km/s) = 2.88568 3.17196 3.03220
# Velocity P-wave (km/s) = 7.08559 7.36693 7.22763
#
# Compressibility (1/GPa) = 0.01399433
#
# Stress axis : x y z
#
# Youngs Moduli (GPa) = 58.51098 44.57792 42.86515
#
# Poissons Ratio (x) = 0.36452 0.12503
# Poissons Ratio (y) = 0.47845 0.57162
# Poissons Ratio (z) = 0.17066 0.59446
#
# Static dielectric constant tensor:
#      x y z
#    x 1.617250 0.000000 0.000000 
#    y 0.000000 1.615150 0.000000 
#    z 0.000000 0.000000 1.627510 
# 
# From -- ./inp_files/73230.got.cif
#   From: 2010.05.17/outbox.cif.g08.bks.cpg/sg65_37_cif.got.tgz:73230.got - 2010.06.03 17:01:31.
