data_PCOD9490836
_publ_section_title
;
Structure prediction by ZEFSAII (Michael W. Deem and Ramdas Pophale) SiO2 
 PCOD9490836
Probable space group: C M M M
;
_chemical_formula_sum "Si O2"
_cell_formula_units_Z 72
_cell_length_a 15.383563
_cell_length_b 8.607835
_cell_length_c 26.688006
_cell_angle_alpha 90.000000
_cell_angle_beta 90.000000
_cell_angle_gamma 90.000000
_cell_volume 3534.003657
_symmetry_space_group_name_H-M "C M M M"
_symmetry_group_IT_number 65
_symmetry_cell_setting 'orthorhombic'
loop_
_space_group_symop_operation_xyz
x,y,z
-x,-y,z
x,-y,-z
-x,y,-z
-x,-y,-z
x,y,-z
-x,y,z
x,-y,z
1/2+x,1/2+y,z
1/2-x,1/2-y,z
1/2+x,1/2-y,-z
1/2-x,1/2+y,-z
1/2-x,1/2-y,-z
1/2+x,1/2+y,-z
1/2-x,1/2+y,z
1/2+x,1/2-y,z
loop_
_atom_site_type_symbol
_atom_site_label
_atom_site_fract_x
_atom_site_fract_y
_atom_site_fract_z
Si Si1 0.500000 0.810388 0.442596
Si Si2 0.151818 0.314106 0.631421
Si Si3 0.602847 0.810923 0.946206
Si Si4 0.603417 0.824246 0.839025
Si Si5 0.653138 0.316881 0.735231
O O1 0.500000 0.757592 0.500000
O O2 0.413979 0.762397 0.412068
O O3 0.500000 0.000000 0.442797
O O4 0.156856 0.500000 0.631428
O O5 0.250000 0.250000 0.625583
O O6 0.114406 0.260524 0.685352
O O7 0.500000 0.771207 0.947788
O O8 0.638262 0.758333 0.892101
O O9 0.607725 0.000000 0.944838
O O10 0.640276 0.758514 0.000000
O O11 0.500000 0.837817 0.846376
O O12 0.615532 0.726637 0.789100
O O13 0.638194 0.000000 0.830785
O O14 0.653023 0.500000 0.728157
O O15 0.750000 0.250000 0.736843
#
# Coordination Sequence:
#
# PCOD9490836 Si02
#       5
#     8  16  16  16  16
#     4   9  20  38  61  89 119 153 190 225 270 329
#     4  10  20  37  60  85 114 151 190 231 278 331
#     4   7  10  19  38  65  95 126 162 205 252 307
#     4   9  17  29  48  75 104 133 168 211 263 320
#     4  11  22  36  53  74 103 138 177 221 269 320
#
# _framework density 20.373494999999998
#
# number of rings (size 3 to 8) (size 9 to 14) (size 15 to 20)
#    0.000    2.778    0.000    6.000    1.556    0.889 
#    0.000    1.667    0.000    6.000    0.000    3.111 
#    0.000    0.000    0.000    0.000    0.000    0.000 
#
# Total GULP energy -200565.954362 kJ/mol
# GULP energy per Si atom -5571.276510 kJ/mol
# Density = 2.032712 g / cm^3
# Si number density = 20.373495 Si / 1000 Ang^3
#
#
#
# Elastic Constant Matrix: (Units=GPa)
#
#
# Indices 1 2 3 4 5 6 
#
# 1 58.1858 14.3626 57.2068 0.0000 0.0000 0.0000
# 2 14.3626 58.6725 37.5613 0.0000 0.0000 0.0000
# 3 57.2068 37.5613 221.7812 0.0000 0.0000 0.0000
# 4 0.0000 0.0000 0.0000 -10.0211 0.0000 0.0000
# 5 0.0000 0.0000 0.0000 0.0000 742.8426 0.0000
# 6 0.0000 0.0000 0.0000 0.0000 0.0000 16.3720
#
#
#
# Elastic Compliance Matrix: (Units=1/GPa)
#
#
# Indices 1 2 3 4 5 6 
#
# 1 0.023249 -0.002077 -0.005645 0.000000 0.000000 0.000000
# 2 -0.002077 0.019302 -0.002733 0.000000 0.000000 0.000000
# 3 -0.005645 -0.002733 0.006428 0.000000 0.000000 0.000000
# 4 0.000000 0.000000 0.000000 -0.099789 0.000000 0.000000
# 5 0.000000 0.000000 0.000000 0.000000 0.001346 0.000000
# 6 0.000000 0.000000 0.000000 0.000000 0.000000 0.061080
#
#
# Mechanical properties :
#
#
# Convention : Reuss Voigt Hill
#
# Bulk Modulus (GPa) = 35.62786 61.87789 48.75288
# Shear Modulus (GPa) = 119.37910 165.13929 142.25919
#
# Velocity S-wave (km/s) = 7.66306 9.01287 8.36524
# Velocity P-wave (km/s) = 9.78887 11.77909 10.82979
#
# Compressibility (1/GPa) = 0.02806792
#
# Stress axis : x y z
#
# Youngs Moduli (GPa) = 43.01212 51.80801 155.56995
#
# Poissons Ratio (x) = 0.10762 0.87822
# Poissons Ratio (y) = 0.08935 0.42520
# Poissons Ratio (z) = 0.24281 0.14160
#
# Static dielectric constant tensor:
#      x y z
#    x 1.755270 0.000000 0.000000 
#    y 0.000000 1.698780 0.000000 
#    z 0.000000 0.000000 1.806590 
# 
# From -- ./inp_files/74622.got.cif
#   From: 2010.05.17/outbox.cif.g08.bks.cpg/sg65_38_cif.got.tgz:74622.got - 2010.06.03 17:01:31.
