data_PCOD9490532
_publ_section_title
;
Structure prediction by ZEFSAII (Michael W. Deem and Ramdas Pophale) SiO2 
 PCOD9490532
Probable space group: C M M M
;
_chemical_formula_sum "Si O2"
_cell_formula_units_Z 116
_cell_length_a 30.225503
_cell_length_b 24.708464
_cell_length_c 7.539630
_cell_angle_alpha 90.000000
_cell_angle_beta 90.000000
_cell_angle_gamma 90.000000
_cell_volume 5630.789850
_symmetry_space_group_name_H-M "C M M M"
_symmetry_group_IT_number 65
_symmetry_cell_setting 'orthorhombic'
loop_
_space_group_symop_operation_xyz
x,y,z
-x,-y,z
x,-y,-z
-x,y,-z
-x,-y,-z
x,y,-z
-x,y,z
x,-y,z
1/2+x,1/2+y,z
1/2-x,1/2-y,z
1/2+x,1/2-y,-z
1/2-x,1/2+y,-z
1/2-x,1/2-y,-z
1/2+x,1/2+y,-z
1/2-x,1/2+y,z
1/2+x,1/2-y,z
loop_
_atom_site_type_symbol
_atom_site_label
_atom_site_fract_x
_atom_site_fract_y
_atom_site_fract_z
Si Si1 0.049714 0.646938 0.711190
Si Si2 0.720524 0.407982 0.203415
Si Si3 0.626357 0.357323 0.783751
Si Si4 0.550441 0.561523 0.783732
Si Si5 0.620992 0.938008 0.717197
Si Si6 0.263527 0.500000 0.500000
Si Si7 0.694932 0.853296 0.709653
Si Si8 0.623341 0.765179 0.210810
O O1 0.046263 0.639725 0.500000
O O2 0.077753 0.595246 0.776971
O O3 0.080689 0.699158 0.737761
O O4 0.000000 0.651813 0.782900
O O5 0.673056 0.384516 0.260244
O O6 0.735337 0.452989 0.343299
O O7 0.757347 0.360697 0.206088
O O8 0.716737 0.428077 0.000000
O O9 0.586076 0.395065 0.722582
O O10 0.622928 0.295775 0.718710
O O11 0.624478 0.355973 0.000000
O O12 0.500000 0.573175 0.728829
O O13 0.561664 0.500000 0.729611
O O14 0.550741 0.561904 0.000000
O O15 0.621308 0.938164 0.500000
O O16 0.663171 0.902495 0.773003
O O17 0.622405 0.000000 0.775089
O O18 0.700259 0.859033 0.500000
O O19 0.667039 0.798950 0.739524
O O20 0.622802 0.761938 0.000000
#
# Coordination Sequence:
#
# PCOD9490532 Si02
#       8
#    16  16  16  16  16   4  16  16
#     4   9  18  33  51  76 110 147 190 244 309 370
#     4  11  24  42  64  92 126 163 201 250 302 355
#     4   9  20  36  56  86 119 153 199 251 303 361
#     4   8  14  27  50  80 113 148 189 242 304 371
#     4   8  15  27  49  76 106 144 187 242 295 354
#     4  12  26  44  60  96 129 162 207 242 296 372
#     4  10  20  37  58  84 120 155 201 250 302 363
#     4  10  20  36  57  82 112 152 203 255 305 361
#
# _framework density 20.601018
#
# number of rings (size 3 to 8) (size 9 to 14) (size 15 to 20)
#    0.000    2.621    0.690    2.276    1.931    1.655 
#    2.483    5.517    0.000    3.724    0.000    4.345 
#    0.000    0.000    0.000    0.000    0.000    0.000 
#
# Total GULP energy -323204.015263 kJ/mol
# GULP energy per Si atom -5572.483022 kJ/mol
# Density = 2.055413 g / cm^3
# Si number density = 20.601018 Si / 1000 Ang^3
#
#
#
# Elastic Constant Matrix: (Units=GPa)
#
#
# Indices 1 2 3 4 5 6 
#
# 1 130.9355 68.0370 0.8122 0.0000 0.0000 0.0000
# 2 68.0370 117.3027 -2.5017 0.0000 0.0000 0.0000
# 3 0.8122 -2.5017 64.3617 0.0000 0.0000 0.0000
# 4 0.0000 0.0000 0.0000 35.1966 0.0000 0.0000
# 5 0.0000 0.0000 0.0000 0.0000 8.0322 0.0000
# 6 0.0000 0.0000 0.0000 0.0000 0.0000 -35.8232
#
#
#
# Elastic Compliance Matrix: (Units=1/GPa)
#
#
# Indices 1 2 3 4 5 6 
#
# 1 0.010942 -0.006355 -0.000385 0.000000 0.000000 0.000000
# 2 -0.006355 0.012223 0.000555 0.000000 0.000000 0.000000
# 3 -0.000385 0.000555 0.015564 0.000000 0.000000 0.000000
# 4 0.000000 0.000000 0.000000 0.028412 0.000000 0.000000
# 5 0.000000 0.000000 0.000000 0.000000 0.124498 0.000000
# 6 0.000000 0.000000 0.000000 0.000000 0.000000 -0.027915
#
#
# Mechanical properties :
#
#
# Convention : Reuss Voigt Hill
#
# Bulk Modulus (GPa) = 37.93747 49.47722 43.70735
# Shear Modulus (GPa) = 27.04482 17.89795 22.47138
#
# Velocity S-wave (km/s) = 3.62718 2.95072 3.30629
# Velocity P-wave (km/s) = 5.99977 5.97311 5.98645
#
# Compressibility (1/GPa) = 0.02635916
#
# Stress axis : x y z
#
# Youngs Moduli (GPa) = 91.39354 81.81630 64.25232
#
# Poissons Ratio (x) = 0.51990 0.02474
# Poissons Ratio (y) = 0.58076 -0.03568
# Poissons Ratio (z) = 0.03519 -0.04543
#
# Static dielectric constant tensor:
#      x y z
#    x 1.720420 0.000000 0.000000 
#    y 0.000000 1.724910 0.000000 
#    z 0.000000 0.000000 1.788780 
# 
# From -- ./inp_files/18939.got.cif
#   From: 2010.05.17/outbox.cif.g08.bks.cpg/sg65_10_cif.got.tgz:18939.got - 2010.06.03 17:01:31.
