data_PCOD9490954
_publ_section_title
;
Structure prediction by ZEFSAII (Michael W. Deem and Ramdas Pophale) SiO2 
 PCOD9490954
Probable space group: C M M M
;
_chemical_formula_sum "Si O2"
_cell_formula_units_Z 88
_cell_length_a 17.310990
_cell_length_b 10.814924
_cell_length_c 23.479041
_cell_angle_alpha 90.000000
_cell_angle_beta 90.000000
_cell_angle_gamma 90.000000
_cell_volume 4395.676587
_symmetry_space_group_name_H-M "C M M M"
_symmetry_group_IT_number 65
_symmetry_cell_setting 'orthorhombic'
loop_
_space_group_symop_operation_xyz
x,y,z
-x,-y,z
x,-y,-z
-x,y,-z
-x,-y,-z
x,y,-z
-x,y,z
x,-y,z
1/2+x,1/2+y,z
1/2-x,1/2-y,z
1/2+x,1/2-y,-z
1/2-x,1/2+y,-z
1/2-x,1/2-y,-z
1/2+x,1/2+y,-z
1/2-x,1/2+y,z
1/2+x,1/2-y,z
loop_
_atom_site_type_symbol
_atom_site_label
_atom_site_fract_x
_atom_site_fract_y
_atom_site_fract_z
Si Si1 0.409138 0.729203 0.096662
Si Si2 0.363230 0.000000 0.900305
Si Si3 0.910754 0.500000 0.769660
Si Si4 0.303763 0.500000 0.063408
Si Si5 0.914814 0.855512 0.672179
Si Si6 0.817372 0.852831 0.435596
Si Si7 0.839956 0.247733 0.778159
O O1 0.500000 0.707490 0.087896
O O2 0.387280 0.867005 0.074443
O O3 0.356541 0.621003 0.070894
O O4 0.388522 0.726180 0.164228
O O5 0.404004 0.000000 0.838688
O O6 0.270088 0.000000 0.894969
O O7 0.865962 0.378411 0.752100
O O8 0.000000 0.500000 0.753600
O O9 0.269561 0.500000 0.000000
O O10 0.875250 0.811766 0.614285
O O11 0.861575 0.843304 0.727738
O O12 0.000000 0.800483 0.683296
O O13 0.924255 0.000000 0.662695
O O14 0.849973 0.849136 0.500000
O O15 0.750000 0.750000 0.433762
O O16 0.794882 0.000000 0.426221
O O17 0.750000 0.250000 0.793046
#
# Coordination Sequence:
#
# PCOD9490954 Si02
#       7
#    16   8   8   8  16  16  16
#     4  11  23  41  66  91 121 158 197 246 302 358
#     4  10  20  41  66  89 115 153 202 241 286 351
#     4  10  20  38  61  86 119 154 192 240 296 358
#     4  12  27  44  62  91 126 157 195 245 299 355
#     4  10  21  35  53  82 120 153 192 242 290 351
#     4   9  18  35  58  82 111 151 199 248 299 348
#     4  11  22  36  60  87 119 152 195 240 292 354
#
# _framework density 20.019673000000001
#
# number of rings (size 3 to 8) (size 9 to 14) (size 15 to 20)
#    0.000    1.636    0.000    7.091    2.545    2.545 
#    1.636    1.818    0.000    3.000    0.000    2.545 
#    0.000    0.000    0.000    0.000    0.000    0.000 
#
# Total GULP energy -245347.958200 kJ/mol
# GULP energy per Si atom -5576.089959 kJ/mol
# Density = 1.997411 g / cm^3
# Si number density = 20.019673 Si / 1000 Ang^3
#
#
#
# Elastic Constant Matrix: (Units=GPa)
#
#
# Indices 1 2 3 4 5 6 
#
# 1 92.9001 11.5174 -1.7438 0.0000 0.0000 0.0000
# 2 11.5174 67.3098 3.0912 0.0000 0.0000 0.0000
# 3 -1.7438 3.0912 64.4803 0.0000 0.0000 0.0000
# 4 0.0000 0.0000 0.0000 19.2621 0.0000 0.0000
# 5 0.0000 0.0000 0.0000 0.0000 6.9402 0.0000
# 6 0.0000 0.0000 0.0000 0.0000 0.0000 31.1256
#
#
#
# Elastic Compliance Matrix: (Units=1/GPa)
#
#
# Indices 1 2 3 4 5 6 
#
# 1 0.011007 -0.001901 0.000389 0.000000 0.000000 0.000000
# 2 -0.001901 0.015218 -0.000781 0.000000 0.000000 0.000000
# 3 0.000389 -0.000781 0.015557 0.000000 0.000000 0.000000
# 4 0.000000 0.000000 0.000000 0.051915 0.000000 0.000000
# 5 0.000000 0.000000 0.000000 0.000000 0.144088 0.000000
# 6 0.000000 0.000000 0.000000 0.000000 0.000000 0.032128
#
#
# Mechanical properties :
#
#
# Convention : Reuss Voigt Hill
#
# Bulk Modulus (GPa) = 26.88545 27.82440 27.35493
# Shear Modulus (GPa) = 17.42781 25.58729 21.50755
#
# Velocity S-wave (km/s) = 2.95368 3.57894 3.28124
# Velocity P-wave (km/s) = 5.00909 5.56840 5.29614
#
# Compressibility (1/GPa) = 0.03719484
#
# Stress axis : x y z
#
# Youngs Moduli (GPa) = 90.84907 65.71220 64.28154
#
# Poissons Ratio (x) = 0.12494 -0.02499
# Poissons Ratio (y) = 0.17273 0.05020
# Poissons Ratio (z) = -0.03533 0.05132
#
# Static dielectric constant tensor:
#      x y z
#    x 1.744470 0.000000 0.000000 
#    y 0.000000 3.137350 0.000000 
#    z 0.000000 0.000000 1.692000 
# 
# From -- ./inp_files/69845.got.cif
#   From: 2010.05.17/outbox.cif.g08.bks.cpg/sg65_35_cif.got.tgz:69845.got - 2010.06.03 17:01:31.
