data_PCOD9490351
_publ_section_title
;
Structure prediction by ZEFSAII (Michael W. Deem and Ramdas Pophale) SiO2 
 PCOD9490351
Probable space group: C M M M
;
_chemical_formula_sum "Si O2"
_cell_formula_units_Z 64
_cell_length_a 18.274142
_cell_length_b 8.033635
_cell_length_c 22.859002
_cell_angle_alpha 90.000000
_cell_angle_beta 90.000000
_cell_angle_gamma 90.000000
_cell_volume 3355.879491
_symmetry_space_group_name_H-M "C M M M"
_symmetry_group_IT_number 65
_symmetry_cell_setting 'orthorhombic'
loop_
_space_group_symop_operation_xyz
x,y,z
-x,-y,z
x,-y,-z
-x,y,-z
-x,-y,-z
x,y,-z
-x,y,z
x,-y,z
1/2+x,1/2+y,z
1/2-x,1/2-y,z
1/2+x,1/2-y,-z
1/2-x,1/2+y,-z
1/2-x,1/2-y,-z
1/2+x,1/2+y,-z
1/2-x,1/2+y,z
1/2+x,1/2-y,z
loop_
_atom_site_type_symbol
_atom_site_label
_atom_site_fract_x
_atom_site_fract_y
_atom_site_fract_z
Si Si1 0.416851 0.299945 0.882461
Si Si2 0.087999 0.688584 0.646855
Si Si3 0.589052 0.500000 0.433025
Si Si4 0.165662 0.696961 0.000000
Si Si5 0.165317 0.200579 0.765124
O O1 0.500000 0.235575 0.883962
O O2 0.420285 0.500000 0.878344
O O3 0.373925 0.241728 0.824836
O O4 0.374566 0.259085 0.941767
O O5 0.104263 0.500000 0.626847
O O6 0.126120 0.722193 0.708768
O O7 0.000000 0.701731 0.654215
O O8 0.111092 0.833683 0.602011
O O9 0.500000 0.500000 0.434127
O O10 0.614511 0.500000 0.500000
O O11 0.250000 0.750000 0.000000
O O12 0.162398 0.500000 0.000000
O O13 0.250000 0.250000 0.766471
O O14 0.159116 0.000000 0.761134
#
# Coordination Sequence:
#
# PCOD9490351 Si02
#       5
#    16  16   8   8  16
#     4  10  22  40  62  86 116 153 194 241 298 356
#     4  10  20  35  58  88 120 156 198 245 297 353
#     4   9  18  34  58  88 122 157 196 244 293 349
#     4  12  25  40  59  83 115 155 197 248 295 352
#     4  11  22  37  58  86 117 154 195 245 297 356
#
# _framework density 19.071007000000002
#
# number of rings (size 3 to 8) (size 9 to 14) (size 15 to 20)
#    0.000    1.625    1.250    3.750    0.000    7.500 
#    0.000    2.500    0.000    0.750    0.000    0.000 
#    0.000    0.000    0.000    0.000    0.000    0.000 
#
# Total GULP energy -178802.507757 kJ/mol
# GULP energy per Si atom -5587.578367 kJ/mol
# Density = 1.902760 g / cm^3
# Si number density = 19.071007 Si / 1000 Ang^3
#
#
#
# Elastic Constant Matrix: (Units=GPa)
#
#
# Indices 1 2 3 4 5 6 
#
# 1 93.3004 43.4177 71.3095 0.0000 0.0000 0.0000
# 2 43.4177 104.7522 67.9666 0.0000 0.0000 0.0000
# 3 71.3095 67.9666 192.9778 0.0000 0.0000 0.0000
# 4 0.0000 0.0000 0.0000 5.3365 0.0000 0.0000
# 5 0.0000 0.0000 0.0000 0.0000 -4.4953 0.0000
# 6 0.0000 0.0000 0.0000 0.0000 0.0000 24.8794
#
#
#
# Elastic Compliance Matrix: (Units=1/GPa)
#
#
# Indices 1 2 3 4 5 6 
#
# 1 0.015922 -0.003606 -0.004614 0.000000 0.000000 0.000000
# 2 -0.003606 0.013191 -0.003313 0.000000 0.000000 0.000000
# 3 -0.004614 -0.003313 0.008054 0.000000 0.000000 0.000000
# 4 0.000000 0.000000 0.000000 0.187387 0.000000 0.000000
# 5 0.000000 0.000000 0.000000 0.000000 -0.222455 0.000000
# 6 0.000000 0.000000 0.000000 0.000000 0.000000 0.040194
#
#
# Mechanical properties :
#
#
# Convention : Reuss Voigt Hill
#
# Bulk Modulus (GPa) = 70.91714 84.04644 77.48179
# Shear Modulus (GPa) = 71.36825 19.03324 45.20075
#
# Velocity S-wave (km/s) = 6.12402 3.16257 4.87368
# Velocity P-wave (km/s) = 9.34192 7.58299 8.50803
#
# Compressibility (1/GPa) = 0.01410096
#
# Stress axis : x y z
#
# Youngs Moduli (GPa) = 62.80488 75.81096 124.16665
#
# Poissons Ratio (x) = 0.27338 0.57286
# Poissons Ratio (y) = 0.22648 0.41139
# Poissons Ratio (z) = 0.28976 0.25118
#
# Static dielectric constant tensor:
#      x y z
#    x 1.630100 0.000000 0.000000 
#    y 0.000000 1.682580 0.000000 
#    z 0.000000 0.000000 1.647050 
# 
# From -- ./inp_files/70286.got.cif
#   From: 2010.05.17/outbox.cif.g08.bks.cpg/sg65_36_cif.got.tgz:70286.got - 2010.06.03 17:01:31.
