data_PCOD9490965
_publ_section_title
;
Structure prediction by ZEFSAII (Michael W. Deem and Ramdas Pophale) SiO2 
 PCOD9490965
Probable space group: C M M M
;
_chemical_formula_sum "Si O2"
_cell_formula_units_Z 88
_cell_length_a 20.341687
_cell_length_b 26.400290
_cell_length_c 7.550263
_cell_angle_alpha 90.000000
_cell_angle_beta 90.000000
_cell_angle_gamma 90.000000
_cell_volume 4054.690829
_symmetry_space_group_name_H-M "C M M M"
_symmetry_group_IT_number 65
_symmetry_cell_setting 'orthorhombic'
loop_
_space_group_symop_operation_xyz
x,y,z
-x,-y,z
x,-y,-z
-x,y,-z
-x,-y,-z
x,y,-z
-x,y,z
x,-y,z
1/2+x,1/2+y,z
1/2-x,1/2-y,z
1/2+x,1/2-y,-z
1/2-x,1/2+y,-z
1/2-x,1/2-y,-z
1/2+x,1/2+y,-z
1/2-x,1/2+y,z
1/2+x,1/2-y,z
loop_
_atom_site_type_symbol
_atom_site_label
_atom_site_fract_x
_atom_site_fract_y
_atom_site_fract_z
Si Si1 0.627547 0.159316 0.210710
Si Si2 0.733443 0.695053 0.700356
Si Si3 0.000000 0.726544 0.290367
Si Si4 0.578574 0.500000 0.716963
Si Si5 0.864896 0.891696 0.702522
Si Si6 0.500000 0.342499 0.796771
Si Si7 0.423900 0.946632 0.215541
O O1 0.693666 0.173789 0.306026
O O2 0.565354 0.195800 0.238828
O O3 0.608975 0.103882 0.276841
O O4 0.640509 0.158077 0.000000
O O5 0.707119 0.705413 0.500000
O O6 0.750000 0.750000 0.786700
O O7 0.686052 0.650865 0.779173
O O8 0.000000 0.733075 0.500000
O O9 0.000000 0.781979 0.207537
O O10 0.500000 0.500000 0.769106
O O11 0.577594 0.500000 0.500000
O O12 0.617138 0.551654 0.773777
O O13 0.842206 0.899738 0.500000
O O14 0.934957 0.863762 0.706713
O O15 0.500000 0.360030 0.000000
O O16 0.500000 0.945522 0.267895
O O17 0.394278 0.000000 0.272660
O O18 0.423220 0.945549 0.000000
#
# Coordination Sequence:
#
# PCOD9490965 Si02
#       7
#    16  16   8   8  16   8  16
#     4  11  21  36  59  86 116 149 194 246 296 346
#     4  10  22  39  57  80 115 159 202 245 298 359
#     4  12  24  38  58  84 118 155 195 241 294 357
#     4   9  16  32  62  92 116 151 206 253 296 364
#     4  10  20  38  62  85 116 161 205 244 298 367
#     4  12  24  37  59  91 120 144 188 246 300 357
#     4   8  14  28  52  79 108 144 182 219 269 337
#
# _framework density 21.703257000000001
#
# number of rings (size 3 to 8) (size 9 to 14) (size 15 to 20)
#    0.000    1.909    1.818    3.818    0.000    2.545 
#    1.636    0.909    0.000    2.182    0.000    0.000 
#    0.000    0.000    0.000    0.000    0.000    0.000 
#
# Total GULP energy -245310.103394 kJ/mol
# GULP energy per Si atom -5575.229623 kJ/mol
# Density = 2.165386 g / cm^3
# Si number density = 21.703257 Si / 1000 Ang^3
#
#
#
# Elastic Constant Matrix: (Units=GPa)
#
#
# Indices 1 2 3 4 5 6 
#
# 1 120.1587 79.5546 -6.7510 0.0000 0.0000 0.0000
# 2 79.5546 223.8706 -7.6331 0.0000 0.0000 0.0000
# 3 -6.7510 -7.6331 73.2080 0.0000 0.0000 0.0000
# 4 0.0000 0.0000 0.0000 16.4388 0.0000 0.0000
# 5 0.0000 0.0000 0.0000 0.0000 22.4647 0.0000
# 6 0.0000 0.0000 0.0000 0.0000 0.0000 61.6083
#
#
#
# Elastic Compliance Matrix: (Units=1/GPa)
#
#
# Indices 1 2 3 4 5 6 
#
# 1 0.010909 -0.003856 0.000604 0.000000 0.000000 0.000000
# 2 -0.003856 0.005846 0.000254 0.000000 0.000000 0.000000
# 3 0.000604 0.000254 0.013742 0.000000 0.000000 0.000000
# 4 0.000000 0.000000 0.000000 0.060832 0.000000 0.000000
# 5 0.000000 0.000000 0.000000 0.000000 0.044514 0.000000
# 6 0.000000 0.000000 0.000000 0.000000 0.000000 0.016232
#
#
# Mechanical properties :
#
#
# Convention : Reuss Voigt Hill
#
# Bulk Modulus (GPa) = 40.81546 60.84204 50.82875
# Shear Modulus (GPa) = 30.07741 43.57351 36.82546
#
# Velocity S-wave (km/s) = 3.72674 4.48559 4.12366
# Velocity P-wave (km/s) = 6.11270 7.41093 6.79290
#
# Compressibility (1/GPa) = 0.02450052
#
# Stress axis : x y z
#
# Youngs Moduli (GPa) = 91.66461 171.06176 72.77028
#
# Poissons Ratio (x) = 0.65964 -0.04395
# Poissons Ratio (y) = 0.35347 -0.01848
# Poissons Ratio (z) = -0.05536 -0.04344
#
# Static dielectric constant tensor:
#      x y z
#    x 1.715600 0.000000 0.000000 
#    y 0.000000 1.871600 0.000000 
#    z 0.000000 0.000000 1.839030 
# 
# From -- ./inp_files/11881.got.cif
#   From: 2010.05.17/outbox.cif.g08.bks.cpg/sg65_6_cif.got.tgz:11881.got - 2010.06.03 17:01:31.
