data_PCOD9490090
_publ_section_title
;
Structure prediction by ZEFSAII (Michael W. Deem and Ramdas Pophale) SiO2 
 PCOD9490090
Probable space group: C M M M
;
_chemical_formula_sum "Si O2"
_cell_formula_units_Z 96
_cell_length_a 8.437791
_cell_length_b 18.827082
_cell_length_c 31.600574
_cell_angle_alpha 90.000000
_cell_angle_beta 90.000000
_cell_angle_gamma 90.000000
_cell_volume 5020.035050
_symmetry_space_group_name_H-M "C M M M"
_symmetry_group_IT_number 65
_symmetry_cell_setting 'orthorhombic'
loop_
_space_group_symop_operation_xyz
x,y,z
-x,-y,z
x,-y,-z
-x,y,-z
-x,-y,-z
x,y,-z
-x,y,z
x,-y,z
1/2+x,1/2+y,z
1/2-x,1/2-y,z
1/2+x,1/2-y,-z
1/2-x,1/2+y,-z
1/2-x,1/2-y,-z
1/2+x,1/2+y,-z
1/2-x,1/2+y,z
1/2+x,1/2-y,z
loop_
_atom_site_type_symbol
_atom_site_label
_atom_site_fract_x
_atom_site_fract_y
_atom_site_fract_z
Si Si1 0.189852 0.670769 0.451686
Si Si2 0.191294 0.581851 0.951853
Si Si3 0.806405 0.918139 0.791055
Si Si4 0.808583 0.918664 0.626242
Si Si5 0.810600 0.169952 0.127017
Si Si6 0.691726 0.330549 0.708231
O O1 0.241105 0.654707 0.500000
O O2 0.250000 0.750000 0.441339
O O3 0.253577 0.615924 0.417467
O O4 0.000000 0.670933 0.450575
O O5 0.239576 0.500000 0.943312
O O6 0.256977 0.633873 0.916562
O O7 0.000000 0.583994 0.950707
O O8 0.240454 0.599593 0.000000
O O9 0.753727 0.877683 0.833412
O O10 0.756575 0.874673 0.749529
O O11 0.000000 0.918846 0.791128
O O12 0.754218 0.000000 0.790100
O O13 0.754258 0.870719 0.665725
O O14 0.000000 0.918863 0.626990
O O15 0.754545 0.000000 0.630545
O O16 0.750000 0.250000 0.130640
O O17 0.000000 0.171030 0.128295
O O18 0.500000 0.329982 0.708095
O O19 0.750000 0.250000 0.709571
#
# Coordination Sequence:
#
# PCOD9490090 Si02
#       6
#    16  16  16  16  16  16
#     4  10  21  37  57  80 107 141 180 222 270 322
#     4   9  19  37  59  81 107 140 177 220 272 325
#     4   9  18  34  56  80 106 138 177 220 266 317
#     4  10  21  36  55  80 109 143 182 222 267 318
#     4  11  22  35  54  80 110 144 182 223 267 316
#     4  10  20  35  56  80 108 141 177 218 264 316
#
# _framework density 19.123372
#
# number of rings (size 3 to 8) (size 9 to 14) (size 15 to 20)
#    0.000    2.167    0.000    3.500    0.000    7.333 
#    0.000    3.333    0.000    3.500    0.000    0.000 
#    0.000    0.000    0.000    0.000    0.000    0.000 
#
# Total GULP energy -268106.194735 kJ/mol
# GULP energy per Si atom -5585.545724 kJ/mol
# Density = 1.907985 g / cm^3
# Si number density = 19.123372 Si / 1000 Ang^3
#
#
#
# Elastic Constant Matrix: (Units=GPa)
#
#
# Indices 1 2 3 4 5 6 
#
# 1 12.8620 24.8180 22.0622 0.0000 0.0000 0.0000
# 2 24.8180 201.9450 126.0874 0.0000 0.0000 0.0000
# 3 22.0622 126.0874 150.3084 0.0000 0.0000 0.0000
# 4 0.0000 0.0000 0.0000 42.2142 0.0000 0.0000
# 5 0.0000 0.0000 0.0000 0.0000 2.9877 0.0000
# 6 0.0000 0.0000 0.0000 0.0000 0.0000 17.8997
#
#
#
# Elastic Compliance Matrix: (Units=1/GPa)
#
#
# Indices 1 2 3 4 5 6 
#
# 1 0.108582 -0.007125 -0.009961 0.000000 0.000000 0.000000
# 2 -0.007125 0.010865 -0.008069 0.000000 0.000000 0.000000
# 3 -0.009961 -0.008069 0.014883 0.000000 0.000000 0.000000
# 4 0.000000 0.000000 0.000000 0.023689 0.000000 0.000000
# 5 0.000000 0.000000 0.000000 0.000000 0.334711 0.000000
# 6 0.000000 0.000000 0.000000 0.000000 0.000000 0.055867
#
#
# Mechanical properties :
#
#
# Convention : Reuss Voigt Hill
#
# Bulk Modulus (GPa) = 11.90161 79.00562 45.45362
# Shear Modulus (GPa) = 7.97558 25.43015 16.70287
#
# Velocity S-wave (km/s) = 2.04442 3.65059 2.95859
# Velocity P-wave (km/s) = 3.43656 7.69236 5.95745
#
# Compressibility (1/GPa) = 0.08402223
#
# Stress axis : x y z
#
# Youngs Moduli (GPa) = 9.20959 92.03720 67.18900
#
# Poissons Ratio (x) = 0.65576 0.66926
# Poissons Ratio (y) = 0.06562 0.54212
# Poissons Ratio (z) = 0.09174 0.74260
#
# Static dielectric constant tensor:
#      x y z
#    x 1.665640 0.000000 0.000000 
#    y 0.000000 1.630030 0.000000 
#    z 0.000000 0.000000 1.652590 
# 
# From -- ./inp_files/73135.got.cif
#   From: 2010.05.17/outbox.cif.g08.bks.cpg/sg65_37_cif.got.tgz:73135.got - 2010.06.03 17:01:31.
