data_PCOD9490404
_publ_section_title
;
Structure prediction by ZEFSAII (Michael W. Deem and Ramdas Pophale) SiO2 
 PCOD9490404
Probable space group: C M M M
;
_chemical_formula_sum "Si O2"
_cell_formula_units_Z 82
_cell_length_a 7.564248
_cell_length_b 29.260676
_cell_length_c 19.733887
_cell_angle_alpha 90.000000
_cell_angle_beta 90.000000
_cell_angle_gamma 90.000000
_cell_volume 4367.800075
_symmetry_space_group_name_H-M "C M M M"
_symmetry_group_IT_number 65
_symmetry_cell_setting 'orthorhombic'
loop_
_space_group_symop_operation_xyz
x,y,z
-x,-y,z
x,-y,-z
-x,y,-z
-x,-y,-z
x,y,-z
-x,y,z
x,-y,z
1/2+x,1/2+y,z
1/2-x,1/2-y,z
1/2+x,1/2-y,-z
1/2-x,1/2+y,-z
1/2-x,1/2-y,-z
1/2+x,1/2+y,-z
1/2-x,1/2+y,z
1/2+x,1/2-y,z
loop_
_atom_site_type_symbol
_atom_site_label
_atom_site_fract_x
_atom_site_fract_y
_atom_site_fract_z
Si Si1 0.000000 0.077197 0.618233
Si Si2 0.209331 0.300475 0.706933
Si Si3 0.500000 0.553967 0.778165
Si Si4 0.500000 0.500000 0.500000
Si Si5 0.710849 0.301819 0.922041
Si Si6 0.705369 0.124585 0.811084
Si Si7 0.787921 0.349569 0.421856
O O1 0.000000 0.060279 0.696002
O O2 0.826142 0.107885 0.604227
O O3 0.000000 0.039151 0.560246
O O4 0.250000 0.250000 0.730846
O O5 0.279888 0.341280 0.752875
O O6 0.260974 0.308783 0.629229
O O7 0.000000 0.305203 0.711259
O O8 0.500000 0.500000 0.792865
O O9 0.330250 0.580547 0.809019
O O10 0.500000 0.307071 0.921304
O O11 0.750000 0.250000 0.897417
O O12 0.786567 0.342709 0.876925
O O13 0.773919 0.304201 0.000000
O O14 0.500000 0.112554 0.798352
O O15 0.745984 0.340340 0.500000
O O16 0.000000 0.357992 0.417002
#
# Coordination Sequence:
#
# PCOD9490404 Si02
#       7
#     8  16   8   2  16  16  16
#     4  12  22  40  64  85 118 150 200 263 322 377
#     4  10  22  34  54  86 117 157 205 242 298 374
#     4  12  26  42  67  92 120 164 212 270 325 378
#     4  12  24  40  66 104 104 150 222 264 342 400
#     4  10  20  35  60  98 139 177 216 256 307 376
#     4  11  23  41  63  89 126 167 208 261 320 374
#     4  10  21  38  56  78 115 158 191 240 305 370
#
# _framework density 18.773752999999999
#
# number of rings (size 3 to 8) (size 9 to 14) (size 15 to 20)
#    0.000    1.366    4.390    1.171    2.732    3.512 
#    0.000    0.976    0.000    1.171    0.000    1.366 
#    0.000    0.000    0.000    0.000    0.000    0.000 
#
# Total GULP energy -228535.565067 kJ/mol
# GULP energy per Si atom -5574.038172 kJ/mol
# Density = 1.873102 g / cm^3
# Si number density = 18.773753 Si / 1000 Ang^3
#
#
#
# Elastic Constant Matrix: (Units=GPa)
#
#
# Indices 1 2 3 4 5 6 
#
# 1 81.0202 38.5974 21.9263 0.0000 0.0000 0.0000
# 2 38.5974 140.2794 50.6275 0.0000 0.0000 0.0000
# 3 21.9263 50.6275 95.1953 0.0000 0.0000 0.0000
# 4 0.0000 0.0000 0.0000 20.1994 0.0000 0.0000
# 5 0.0000 0.0000 0.0000 0.0000 19.9707 0.0000
# 6 0.0000 0.0000 0.0000 0.0000 0.0000 14.0731
#
#
#
# Elastic Compliance Matrix: (Units=1/GPa)
#
#
# Indices 1 2 3 4 5 6 
#
# 1 0.014374 -0.003416 -0.001494 0.000000 0.000000 0.000000
# 2 -0.003416 0.009634 -0.004337 0.000000 0.000000 0.000000
# 3 -0.001494 -0.004337 0.013155 0.000000 0.000000 0.000000
# 4 0.000000 0.000000 0.000000 0.049506 0.000000 0.000000
# 5 0.000000 0.000000 0.000000 0.000000 0.050073 0.000000
# 6 0.000000 0.000000 0.000000 0.000000 0.000000 0.071057
#
#
# Mechanical properties :
#
#
# Convention : Reuss Voigt Hill
#
# Bulk Modulus (GPa) = 53.56247 59.86637 56.71442
# Shear Modulus (GPa) = 21.50383 24.53822 23.02103
#
# Velocity S-wave (km/s) = 3.38808 3.61924 3.50556
# Velocity P-wave (km/s) = 6.62555 7.03013 6.83083
#
# Compressibility (1/GPa) = 0.01866979
#
# Stress axis : x y z
#
# Youngs Moduli (GPa) = 69.56902 103.80354 76.01534
#
# Poissons Ratio (x) = 0.35457 0.11358
# Poissons Ratio (y) = 0.23763 0.32965
# Poissons Ratio (z) = 0.10395 0.45016
#
# Static dielectric constant tensor:
#      x y z
#    x 1.668550 0.000000 0.000000 
#    y 0.000000 1.627590 0.000000 
#    z 0.000000 0.000000 1.695500 
# 
# From -- ./inp_files/60123.got.cif
#   From: 2010.05.17/outbox.cif.g08.bks.cpg/sg65_31_cif.got.tgz:60123.got - 2010.06.03 17:01:31.
