data_PCOD9490026
_publ_section_title
;
Structure prediction by ZEFSAII (Michael W. Deem and Ramdas Pophale) SiO2 
 PCOD9490026
Probable space group: C M M M
;
_chemical_formula_sum "Si O2"
_cell_formula_units_Z 56
_cell_length_a 8.221606
_cell_length_b 14.636122
_cell_length_c 20.218452
_cell_angle_alpha 90.000000
_cell_angle_beta 90.000000
_cell_angle_gamma 90.000000
_cell_volume 2432.935429
_symmetry_space_group_name_H-M "C M M M"
_symmetry_group_IT_number 65
_symmetry_cell_setting 'orthorhombic'
loop_
_space_group_symop_operation_xyz
x,y,z
-x,-y,z
x,-y,-z
-x,y,-z
-x,-y,-z
x,y,-z
-x,y,z
x,-y,z
1/2+x,1/2+y,z
1/2-x,1/2-y,z
1/2+x,1/2-y,-z
1/2-x,1/2+y,-z
1/2-x,1/2-y,-z
1/2+x,1/2+y,-z
1/2-x,1/2+y,z
1/2+x,1/2-y,z
loop_
_atom_site_type_symbol
_atom_site_label
_atom_site_fract_x
_atom_site_fract_y
_atom_site_fract_z
Si Si1 0.500000 0.611958 0.077196
Si Si2 0.192322 0.855300 0.287651
Si Si3 0.804688 0.643800 0.427944
Si Si4 0.177144 0.394680 0.147224
O O1 0.500000 0.500000 0.083981
O O2 0.664484 0.645989 0.112178
O O3 0.500000 0.633605 0.000000
O O4 0.250000 0.750000 0.289258
O O5 0.232307 0.894415 0.360121
O O6 0.286944 0.895691 0.225504
O O7 0.000000 0.861849 0.275864
O O8 0.756291 0.605610 0.500000
O O9 0.750000 0.750000 0.429420
O O10 0.000000 0.639463 0.423328
O O11 0.168391 0.500000 0.124758
O O12 0.000000 0.352335 0.134695
#
# Coordination Sequence:
#
# PCOD9490026 Si02
#       4
#     8  16  16  16
#     4   9  18  34  56  82 107 133 170 210 253 306
#     4  11  20  31  50  76 104 137 177 216 259 309
#     4   9  16  26  41  64  96 130 169 215 259 302
#     4  10  20  35  55  80 108 137 171 213 259 305
#
# _framework density 23.017461000000001
#
# number of rings (size 3 to 8) (size 9 to 14) (size 15 to 20)
#    0.000    2.143    1.429    5.143    0.000    2.286 
#    0.000    2.857    0.000    1.714    0.000    6.000 
#    0.000    0.000    0.000    0.000    0.000    0.000 
#
# Total GULP energy -156380.980164 kJ/mol
# GULP energy per Si atom -5585.035006 kJ/mol
# Density = 2.296507 g / cm^3
# Si number density = 23.017461 Si / 1000 Ang^3
#
#
#
# Elastic Constant Matrix: (Units=GPa)
#
#
# Indices 1 2 3 4 5 6 
#
# 1 202.9481 11.7029 77.8625 0.0000 0.0000 0.0000
# 2 11.7029 64.8493 -0.2516 0.0000 0.0000 0.0000
# 3 77.8625 -0.2516 135.5740 0.0000 0.0000 0.0000
# 4 0.0000 0.0000 0.0000 16.6454 0.0000 0.0000
# 5 0.0000 0.0000 0.0000 0.0000 24.3538 0.0000
# 6 0.0000 0.0000 0.0000 0.0000 0.0000 8.9232
#
#
#
# Elastic Compliance Matrix: (Units=1/GPa)
#
#
# Indices 1 2 3 4 5 6 
#
# 1 0.006408 -0.001171 -0.003682 0.000000 0.000000 0.000000
# 2 -0.001171 0.015634 0.000701 0.000000 0.000000 0.000000
# 3 -0.003682 0.000701 0.009492 0.000000 0.000000 0.000000
# 4 0.000000 0.000000 0.000000 0.060077 0.000000 0.000000
# 5 0.000000 0.000000 0.000000 0.000000 0.041061 0.000000
# 6 0.000000 0.000000 0.000000 0.000000 0.000000 0.112067
#
#
# Mechanical properties :
#
#
# Convention : Reuss Voigt Hill
#
# Bulk Modulus (GPa) = 43.04580 64.66656 53.85618
# Shear Modulus (GPa) = 19.17282 30.92166 25.04724
#
# Velocity S-wave (km/s) = 2.88925 3.66922 3.30234
# Velocity P-wave (km/s) = 5.46556 6.79017 6.16355
#
# Compressibility (1/GPa) = 0.02323107
#
# Stress axis : x y z
#
# Youngs Moduli (GPa) = 156.06593 63.96181 105.35123
#
# Poissons Ratio (x) = 0.07487 0.38792
# Poissons Ratio (y) = 0.18269 -0.07388
# Poissons Ratio (z) = 0.57466 -0.04486
#
# Static dielectric constant tensor:
#      x y z
#    x 1.832590 0.000000 0.000000 
#    y 0.000000 1.834320 0.000000 
#    z 0.000000 0.000000 1.851280 
# 
# From -- ./inp_files/53900.got.cif
#   From: 2010.05.17/outbox.cif.g08.bks.cpg/sg65_27_cif.got.tgz:53900.got - 2010.06.03 17:01:31.
