data_PCOD9490533
_publ_section_title
;
Structure prediction by ZEFSAII (Michael W. Deem and Ramdas Pophale) SiO2 
 PCOD9490533
Probable space group: C M M M
;
_chemical_formula_sum "Si O2"
_cell_formula_units_Z 120
_cell_length_a 26.596904
_cell_length_b 12.296667
_cell_length_c 19.830390
_cell_angle_alpha 90.000000
_cell_angle_beta 90.000000
_cell_angle_gamma 90.000000
_cell_volume 6485.593929
_symmetry_space_group_name_H-M "C M M M"
_symmetry_group_IT_number 65
_symmetry_cell_setting 'orthorhombic'
loop_
_space_group_symop_operation_xyz
x,y,z
-x,-y,z
x,-y,-z
-x,y,-z
-x,-y,-z
x,y,-z
-x,y,z
x,-y,z
1/2+x,1/2+y,z
1/2-x,1/2-y,z
1/2+x,1/2-y,-z
1/2-x,1/2+y,-z
1/2-x,1/2-y,-z
1/2+x,1/2+y,-z
1/2-x,1/2+y,z
1/2+x,1/2-y,z
loop_
_atom_site_type_symbol
_atom_site_label
_atom_site_fract_x
_atom_site_fract_y
_atom_site_fract_z
Si Si1 0.443490 0.874261 0.646010
Si Si2 0.555999 0.500000 0.417866
Si Si3 0.780511 0.132267 0.338238
Si Si4 0.400094 0.871957 0.925439
Si Si5 0.148888 0.120292 0.209378
Si Si6 0.555931 0.218186 0.208850
Si Si7 0.624399 0.300920 0.580351
Si Si8 0.807111 0.211012 0.076162
O O1 0.500000 0.834867 0.624868
O O2 0.441550 0.861418 0.726928
O O3 0.397767 0.807260 0.614088
O O4 0.439789 0.000000 0.627386
O O5 0.500000 0.500000 0.391856
O O6 0.555060 0.500000 0.500000
O O7 0.585401 0.606551 0.397056
O O8 0.750000 0.250000 0.339769
O O9 0.809593 0.135866 0.267044
O O10 0.822034 0.154793 0.395580
O O11 0.762641 0.000000 0.344677
O O12 0.434729 0.837484 0.863301
O O13 0.346582 0.810873 0.920177
O O14 0.391863 0.000000 0.922306
O O15 0.421073 0.844701 0.000000
O O16 0.102517 0.201106 0.217419
O O17 0.175109 0.135287 0.136864
O O18 0.128228 0.000000 0.215937
O O19 0.500000 0.267967 0.209821
O O20 0.623690 0.289193 0.500000
O O21 0.750000 0.250000 0.086076
O O22 0.810815 0.164955 0.000000
#
# Coordination Sequence:
#
# PCOD9490533 Si02
#       8
#    16   8  16  16  16  16  16  16
#     4  10  21  37  58  87 123 160 197 242 303 372
#     4   9  18  34  60  92 122 152 187 235 300 358
#     4  11  24  44  66  91 123 163 210 259 309 365
#     4   9  18  32  51  78 112 150 193 239 287 344
#     4  10  21  38  58  83 116 151 194 245 298 358
#     4  10  20  36  57  82 114 151 193 239 294 357
#     4  11  22  39  62  88 120 156 197 248 301 363
#     4   9  18  33  54  81 113 148 189 238 291 346
#
# _framework density 18.502547
#
# number of rings (size 3 to 8) (size 9 to 14) (size 15 to 20)
#    0.000    2.067    2.000    1.200    0.000    4.000 
#    0.000    4.667    0.000    0.000    0.000    3.733 
#    0.000    0.000    0.000    0.000    0.000    0.000 
#
# Total GULP energy -334026.900766 kJ/mol
# GULP energy per Si atom -5567.115013 kJ/mol
# Density = 1.846043 g / cm^3
# Si number density = 18.502547 Si / 1000 Ang^3
#
#
#
# Elastic Constant Matrix: (Units=GPa)
#
#
# Indices 1 2 3 4 5 6 
#
# 1 59.0023 30.0010 20.8162 0.0000 0.0000 0.0000
# 2 30.0010 94.9674 23.3599 0.0000 0.0000 0.0000
# 3 20.8162 23.3599 75.7434 0.0000 0.0000 0.0000
# 4 0.0000 0.0000 0.0000 18.0055 0.0000 0.0000
# 5 0.0000 0.0000 0.0000 0.0000 17.7050 0.0000
# 6 0.0000 0.0000 0.0000 0.0000 0.0000 11.6820
#
#
#
# Elastic Compliance Matrix: (Units=1/GPa)
#
#
# Indices 1 2 3 4 5 6 
#
# 1 0.021301 -0.005723 -0.004089 0.000000 0.000000 0.000000
# 2 -0.005723 0.012932 -0.002415 0.000000 0.000000 0.000000
# 3 -0.004089 -0.002415 0.015071 0.000000 0.000000 0.000000
# 4 0.000000 0.000000 0.000000 0.055538 0.000000 0.000000
# 5 0.000000 0.000000 0.000000 0.000000 0.056481 0.000000
# 6 0.000000 0.000000 0.000000 0.000000 0.000000 0.085602
#
#
# Mechanical properties :
#
#
# Convention : Reuss Voigt Hill
#
# Bulk Modulus (GPa) = 40.24325 42.00748 41.12536
# Shear Modulus (GPa) = 17.87853 19.84756 18.86305
#
# Velocity S-wave (km/s) = 3.11187 3.27875 3.19640
# Velocity P-wave (km/s) = 5.89143 6.08987 5.99147
#
# Compressibility (1/GPa) = 0.02484889
#
# Stress axis : x y z
#
# Youngs Moduli (GPa) = 46.94547 77.32654 66.35182
#
# Poissons Ratio (x) = 0.44258 0.27131
# Poissons Ratio (y) = 0.26869 0.16027
# Poissons Ratio (z) = 0.19196 0.18678
#
# Static dielectric constant tensor:
#      x y z
#    x 1.626430 0.000000 0.000000 
#    y 0.000000 1.660300 0.000000 
#    z 0.000000 0.000000 1.654520 
# 
# From -- ./inp_files/65477.got.cif
#   From: 2010.05.17/outbox.cif.g08.bks.cpg/sg65_33_cif.got.tgz:65477.got - 2010.06.03 17:01:31.
