data_PCOD9490758
_publ_section_title
;
Structure prediction by ZEFSAII (Michael W. Deem and Ramdas Pophale) SiO2 
 PCOD9490758
Probable space group: C M M M
;
_chemical_formula_sum "Si O2"
_cell_formula_units_Z 38
_cell_length_a 19.017739
_cell_length_b 13.618117
_cell_length_c 7.944121
_cell_angle_alpha 90.000000
_cell_angle_beta 90.000000
_cell_angle_gamma 90.000000
_cell_volume 2057.414491
_symmetry_space_group_name_H-M "C M M M"
_symmetry_group_IT_number 65
_symmetry_cell_setting 'orthorhombic'
loop_
_space_group_symop_operation_xyz
x,y,z
-x,-y,z
x,-y,-z
-x,y,-z
-x,-y,-z
x,y,-z
-x,y,z
x,-y,z
1/2+x,1/2+y,z
1/2-x,1/2-y,z
1/2+x,1/2-y,-z
1/2-x,1/2+y,-z
1/2-x,1/2-y,-z
1/2+x,1/2+y,-z
1/2-x,1/2+y,z
1/2+x,1/2-y,z
loop_
_atom_site_type_symbol
_atom_site_label
_atom_site_fract_x
_atom_site_fract_y
_atom_site_fract_z
Si Si1 0.000000 0.500000 0.000000
Si Si2 0.628613 0.840728 0.000000
Si Si3 0.751831 0.500000 0.000000
Si Si4 0.885365 0.000000 0.191879
Si Si5 0.917070 0.215196 0.310759
O O1 0.937818 0.414479 0.000000
O O2 0.623153 0.772793 0.835124
O O3 0.698819 0.905263 0.000000
O O4 0.698536 0.500000 0.158065
O O5 0.907819 0.099023 0.282734
O O6 0.914937 0.000000 0.000000
O O7 0.894779 0.242043 0.500000
O O8 0.000000 0.238144 0.294291
#
# Coordination Sequence:
#
# PCOD9490758 Si02
#       5
#     2   8   4   8  16
#     4  10  20  36  66  82 110 162 190 240 296 334
#     4  11  20  41  61  86 119 157 200 245 292 346
#     4   9  24  39  61  82 119 166 206 238 283 354
#     4  10  21  38  60  84 123 159 188 239 295 351
#     4  11  22  37  62  94 120 150 196 249 301 352
#
# _framework density 18.469784000000001
#
# number of rings (size 3 to 8) (size 9 to 14) (size 15 to 20)
#    0.632    0.842    4.211    1.263    0.000    5.895 
#    0.000   11.579    0.000    0.000    0.000    0.000 
#    0.000    0.000    0.000    0.000    0.000    0.000 
#
# Total GULP energy -105778.158379 kJ/mol
# GULP energy per Si atom -5567.271494 kJ/mol
# Density = 1.842775 g / cm^3
# Si number density = 18.469784 Si / 1000 Ang^3
#
#
#
# Elastic Constant Matrix: (Units=GPa)
#
#
# Indices 1 2 3 4 5 6 
#
# 1 57.6696 0.7691 24.2725 0.0000 0.0000 0.0000
# 2 0.7691 95.3079 49.6903 0.0000 0.0000 0.0000
# 3 24.2725 49.6903 148.4240 0.0000 0.0000 0.0000
# 4 0.0000 0.0000 0.0000 -7.8299 0.0000 0.0000
# 5 0.0000 0.0000 0.0000 0.0000 2.5942 0.0000
# 6 0.0000 0.0000 0.0000 0.0000 0.0000 30.6803
#
#
#
# Elastic Compliance Matrix: (Units=1/GPa)
#
#
# Indices 1 2 3 4 5 6 
#
# 1 0.018864 0.001764 -0.003675 0.000000 0.000000 0.000000
# 2 0.001764 0.012876 -0.004599 0.000000 0.000000 0.000000
# 3 -0.003675 -0.004599 0.008878 0.000000 0.000000 0.000000
# 4 0.000000 0.000000 0.000000 -0.127716 0.000000 0.000000
# 5 0.000000 0.000000 0.000000 0.000000 0.385476 0.000000
# 6 0.000000 0.000000 0.000000 0.000000 0.000000 0.032594
#
#
# Mechanical properties :
#
#
# Convention : Reuss Voigt Hill
#
# Bulk Modulus (GPa) = 36.23634 50.09614 43.16624
# Shear Modulus (GPa) = 14.15661 20.20023 17.17842
#
# Velocity S-wave (km/s) = 2.77153 3.31069 3.05303
# Velocity P-wave (km/s) = 5.46843 6.46501 5.98749
#
# Compressibility (1/GPa) = 0.02759661
#
# Stress axis : x y z
#
# Youngs Moduli (GPa) = 53.01226 77.66434 112.63483
#
# Poissons Ratio (x) = -0.13700 0.41398
# Poissons Ratio (y) = -0.09351 0.51803
# Poissons Ratio (z) = 0.19484 0.35719
#
# Static dielectric constant tensor:
#      x y z
#    x 1.628490 0.000000 0.000000 
#    y 0.000000 1.610090 0.000000 
#    z 0.000000 0.000000 1.641830 
# 
# From -- ./inp_files/3881.got.cif
#   From: 2010.05.17/outbox.cif.g08.bks.cpg/sg65_2_cif.got.tgz:3881.got - 2010.06.03 17:01:31.
