data_PCOD9490947
_publ_section_title
;
Structure prediction by ZEFSAII (Michael W. Deem and Ramdas Pophale) SiO2 
 PCOD9490947
Probable space group: C M M M
;
_chemical_formula_sum "Si O2"
_cell_formula_units_Z 64
_cell_length_a 11.418906
_cell_length_b 31.823537
_cell_length_c 10.006224
_cell_angle_alpha 90.000000
_cell_angle_beta 90.000000
_cell_angle_gamma 90.000000
_cell_volume 3636.161515
_symmetry_space_group_name_H-M "C M M M"
_symmetry_group_IT_number 65
_symmetry_cell_setting 'orthorhombic'
loop_
_space_group_symop_operation_xyz
x,y,z
-x,-y,z
x,-y,-z
-x,y,-z
-x,-y,-z
x,y,-z
-x,y,z
x,-y,z
1/2+x,1/2+y,z
1/2-x,1/2-y,z
1/2+x,1/2-y,-z
1/2-x,1/2+y,-z
1/2-x,1/2-y,-z
1/2+x,1/2+y,-z
1/2-x,1/2+y,z
1/2+x,1/2-y,z
loop_
_atom_site_type_symbol
_atom_site_label
_atom_site_fract_x
_atom_site_fract_y
_atom_site_fract_z
Si Si1 0.628207 0.725339 0.500000
Si Si2 0.131474 0.840319 0.260159
Si Si3 0.358485 0.283914 0.000000
Si Si4 0.284937 0.080550 0.339024
Si Si5 0.628075 0.500000 0.660251
Si Si6 0.000000 0.449004 0.839785
O O1 0.500000 0.748256 0.500000
O O2 0.750000 0.750000 0.500000
O O3 0.629585 0.694939 0.626422
O O4 0.222818 0.876003 0.300307
O O5 0.000000 0.859032 0.251843
O O6 0.156073 0.814400 0.126581
O O7 0.250000 0.250000 0.000000
O O8 0.500000 0.269380 0.000000
O O9 0.312774 0.080080 0.500000
O O10 0.391737 0.070809 0.240716
O O11 0.196997 0.042249 0.309451
O O12 0.500000 0.500000 0.721940
O O13 0.617792 0.500000 0.500000
O O14 0.000000 0.500000 0.823670
O O15 0.000000 0.440522 0.000000
#
# Coordination Sequence:
#
# PCOD9490947 Si02
#       6
#     8  16   8  16   8   8
#     4  10  20  38  60  85 120 157 197 254 317 368
#     4  10  21  38  61  89 123 158 199 256 311 364
#     4  10  22  42  64  87 122 167 211 254 315 386
#     4  11  21  38  62  89 122 160 207 250 304 365
#     4   9  18  31  57  90 118 153 198 247 296 357
#     4  11  25  43  61  83 125 171 205 253 307 361
#
# _framework density 17.600978000000001
#
# number of rings (size 3 to 8) (size 9 to 14) (size 15 to 20)
#    0.000    1.750    2.500    1.875    1.750    1.500 
#    4.500    0.000    0.000    0.750    0.000    0.000 
#    0.000    0.000    0.000    0.000    0.000    0.000 
#
# Total GULP energy -178227.791030 kJ/mol
# GULP energy per Si atom -5569.618470 kJ/mol
# Density = 1.756092 g / cm^3
# Si number density = 17.600978 Si / 1000 Ang^3
#
#
#
# Elastic Constant Matrix: (Units=GPa)
#
#
# Indices 1 2 3 4 5 6 
#
# 1 170.2646 74.8128 66.5014 0.0000 0.0000 0.0000
# 2 74.8128 80.3578 47.9029 0.0000 0.0000 0.0000
# 3 66.5014 47.9029 152.8821 0.0000 0.0000 0.0000
# 4 0.0000 0.0000 0.0000 20.3012 0.0000 0.0000
# 5 0.0000 0.0000 0.0000 0.0000 24.0424 0.0000
# 6 0.0000 0.0000 0.0000 0.0000 0.0000 47.0752
#
#
#
# Elastic Compliance Matrix: (Units=1/GPa)
#
#
# Indices 1 2 3 4 5 6 
#
# 1 0.010335 -0.008537 -0.001821 0.000000 0.000000 0.000000
# 2 -0.008537 0.022354 -0.003291 0.000000 0.000000 0.000000
# 3 -0.001821 -0.003291 0.008364 0.000000 0.000000 0.000000
# 4 0.000000 0.000000 0.000000 0.049258 0.000000 0.000000
# 5 0.000000 0.000000 0.000000 0.000000 0.041593 0.000000
# 6 0.000000 0.000000 0.000000 0.000000 0.000000 0.021243
#
#
# Mechanical properties :
#
#
# Convention : Reuss Voigt Hill
#
# Bulk Modulus (GPa) = 72.69338 86.88209 79.78774
# Shear Modulus (GPa) = 27.02271 32.56958 29.79615
#
# Velocity S-wave (km/s) = 3.92254 4.30634 4.11891
# Velocity P-wave (km/s) = 7.86800 8.61367 8.24927
#
# Compressibility (1/GPa) = 0.01375641
#
# Stress axis : x y z
#
# Youngs Moduli (GPa) = 96.75505 44.73532 119.55759
#
# Poissons Ratio (x) = 0.38189 0.21770
# Poissons Ratio (y) = 0.82597 0.39344
# Poissons Ratio (z) = 0.17618 0.14721
#
# Static dielectric constant tensor:
#      x y z
#    x 1.661510 0.000000 0.000000 
#    y 0.000000 1.567260 0.000000 
#    z 0.000000 0.000000 1.546120 
# 
# From -- ./inp_files/5017.got.cif
#   From: 2010.05.17/outbox.cif.g08.bks.cpg/sg65_3_cif.got.tgz:5017.got - 2010.06.03 17:01:31.
