data_PCOD9490097
_publ_section_title
;
Structure prediction by ZEFSAII (Michael W. Deem and Ramdas Pophale) SiO2 
 PCOD9490097
Probable space group: C M M M
;
_chemical_formula_sum "Si O2"
_cell_formula_units_Z 72
_cell_length_a 16.554075
_cell_length_b 8.701834
_cell_length_c 26.124212
_cell_angle_alpha 90.000000
_cell_angle_beta 90.000000
_cell_angle_gamma 90.000000
_cell_volume 3763.213969
_symmetry_space_group_name_H-M "C M M M"
_symmetry_group_IT_number 65
_symmetry_cell_setting 'orthorhombic'
loop_
_space_group_symop_operation_xyz
x,y,z
-x,-y,z
x,-y,-z
-x,y,-z
-x,-y,-z
x,y,-z
-x,y,z
x,-y,z
1/2+x,1/2+y,z
1/2-x,1/2-y,z
1/2+x,1/2-y,-z
1/2-x,1/2+y,-z
1/2-x,1/2-y,-z
1/2+x,1/2+y,-z
1/2-x,1/2+y,z
1/2+x,1/2-y,z
loop_
_atom_site_type_symbol
_atom_site_label
_atom_site_fract_x
_atom_site_fract_y
_atom_site_fract_z
Si Si1 0.839942 0.685742 0.733679
Si Si2 0.500000 0.686873 0.441056
Si Si3 0.660120 0.317040 0.055166
Si Si4 0.158024 0.814752 0.624288
Si Si5 0.404705 0.171836 0.157446
O O1 0.842466 0.500000 0.729926
O O2 0.750000 0.750000 0.737851
O O3 0.869854 0.756669 0.680412
O O4 0.881280 0.733892 0.786747
O O5 0.500000 0.500000 0.439940
O O6 0.500000 0.737359 0.500000
O O7 0.584804 0.732313 0.413749
O O8 0.663331 0.500000 0.055398
O O9 0.750000 0.250000 0.055813
O O10 0.619616 0.263113 0.107224
O O11 0.622634 0.268476 0.000000
O O12 0.250000 0.750000 0.614617
O O13 0.164595 0.000000 0.624141
O O14 0.500000 0.159342 0.157215
O O15 0.367923 0.000000 0.153368
#
# Coordination Sequence:
#
# PCOD9490097 Si02
#       5
#    16   8  16  16  16
#     4  10  20  35  56  80 110 144 181 227 276 327
#     4   9  20  38  59  85 119 157 194 235 284 339
#     4  10  21  37  57  79 103 136 179 226 274 326
#     4  10  20  36  59  86 115 152 195 238 287 341
#     4  10  22  37  53  78 110 144 179 220 275 331
#
# _framework density 19.132581999999999
#
# number of rings (size 3 to 8) (size 9 to 14) (size 15 to 20)
#    0.000    2.111    0.000    4.000    1.556    6.222 
#    0.000    3.889    0.000    4.667    0.000    0.000 
#    0.000    0.000    0.000    0.000    0.000    0.000 
#
# Total GULP energy -200591.798968 kJ/mol
# GULP energy per Si atom -5571.994416 kJ/mol
# Density = 1.908904 g / cm^3
# Si number density = 19.132582 Si / 1000 Ang^3
#
#
#
# Elastic Constant Matrix: (Units=GPa)
#
#
# Indices 1 2 3 4 5 6 
#
# 1 75.2213 21.1808 95.9402 0.0000 0.0000 0.0000
# 2 21.1808 47.0355 53.1405 0.0000 0.0000 0.0000
# 3 95.9402 53.1405 215.8736 0.0000 0.0000 0.0000
# 4 0.0000 0.0000 0.0000 26.2255 0.0000 0.0000
# 5 0.0000 0.0000 0.0000 0.0000 64.6450 0.0000
# 6 0.0000 0.0000 0.0000 0.0000 0.0000 15.0158
#
#
#
# Elastic Compliance Matrix: (Units=1/GPa)
#
#
# Indices 1 2 3 4 5 6 
#
# 1 0.030857 0.002214 -0.014259 0.000000 0.000000 0.000000
# 2 0.002214 0.029610 -0.008273 0.000000 0.000000 0.000000
# 3 -0.014259 -0.008273 0.013006 0.000000 0.000000 0.000000
# 4 0.000000 0.000000 0.000000 0.038131 0.000000 0.000000
# 5 0.000000 0.000000 0.000000 0.000000 0.015469 0.000000
# 6 0.000000 0.000000 0.000000 0.000000 0.000000 0.066597
#
#
# Mechanical properties :
#
#
# Convention : Reuss Voigt Hill
#
# Bulk Modulus (GPa) = 30.45287 75.40593 52.92940
# Shear Modulus (GPa) = 20.38735 32.36850 26.37792
#
# Velocity S-wave (km/s) = 3.26787 4.11761 3.71710
# Velocity P-wave (km/s) = 5.49454 7.88062 6.79316
#
# Compressibility (1/GPa) = 0.03283763
#
# Stress axis : x y z
#
# Youngs Moduli (GPa) = 32.40801 33.77199 76.88911
#
# Poissons Ratio (x) = -0.07477 1.09633
# Poissons Ratio (y) = -0.07175 0.63610
# Poissons Ratio (z) = 0.46209 0.27940
#
# Static dielectric constant tensor:
#      x y z
#    x 1.735700 0.000000 0.000000 
#    y 0.000000 1.686980 0.000000 
#    z 0.000000 0.000000 1.731950 
# 
# From -- ./inp_files/70364.got.cif
#   From: 2010.05.17/outbox.cif.g08.bks.cpg/sg65_36_cif.got.tgz:70364.got - 2010.06.03 17:01:31.
