data_PCOD9490396
_publ_section_title
;
Structure prediction by ZEFSAII (Michael W. Deem and Ramdas Pophale) SiO2 
 PCOD9490396
Probable space group: C M M M
;
_chemical_formula_sum "Si O2"
_cell_formula_units_Z 90
_cell_length_a 21.111743
_cell_length_b 19.626005
_cell_length_c 11.206941
_cell_angle_alpha 90.000000
_cell_angle_beta 90.000000
_cell_angle_gamma 90.000000
_cell_volume 4643.474673
_symmetry_space_group_name_H-M "C M M M"
_symmetry_group_IT_number 65
_symmetry_cell_setting 'orthorhombic'
loop_
_space_group_symop_operation_xyz
x,y,z
-x,-y,z
x,-y,-z
-x,y,-z
-x,-y,-z
x,y,-z
-x,y,z
x,-y,z
1/2+x,1/2+y,z
1/2-x,1/2-y,z
1/2+x,1/2-y,-z
1/2-x,1/2+y,-z
1/2-x,1/2-y,-z
1/2+x,1/2+y,-z
1/2-x,1/2+y,z
1/2+x,1/2-y,z
loop_
_atom_site_type_symbol
_atom_site_label
_atom_site_fract_x
_atom_site_fract_y
_atom_site_fract_z
Si Si1 0.609063 0.829026 0.240720
Si Si2 0.291970 0.075964 0.860669
Si Si3 0.894018 0.375608 0.500000
Si Si4 0.924132 0.182051 0.140314
Si Si5 0.164975 0.078404 0.266540
Si Si6 0.000000 0.424189 0.141948
Si Si7 0.500000 0.000000 0.500000
Si Si8 0.745235 0.581977 0.500000
O O1 0.675965 0.863475 0.211250
O O2 0.595901 0.831734 0.380868
O O3 0.600182 0.755991 0.182042
O O4 0.560314 0.882039 0.181880
O O5 0.217398 0.078296 0.838281
O O6 0.313562 0.000000 0.818832
O O7 0.307542 0.081754 0.000000
O O8 0.818906 0.395939 0.500000
O O9 0.943138 0.439343 0.500000
O O10 0.891237 0.126252 0.223929
O O11 0.000000 0.180974 0.152111
O O12 0.909035 0.171477 0.000000
O O13 0.204445 0.102031 0.383302
O O14 0.144764 0.000000 0.286558
O O15 0.000000 0.500000 0.196837
O O16 0.000000 0.429616 0.000000
O O17 0.747539 0.500000 0.500000
#
# Coordination Sequence:
#
# PCOD9490396 Si02
#       8
#    16  16   8  16  16   8   2   8
#     4  12  24  40  61  92 133 177 221 269 330 397
#     4  10  20  35  60  92 126 165 216 277 328 389
#     4  12  26  41  63  99 140 186 231 275 319 380
#     4  11  25  46  69  94 133 177 219 280 348 414
#     4  10  22  42  70 100 128 168 222 281 345 404
#     4  11  23  38  59  87 126 177 224 267 318 384
#     4  12  28  36  68 104 138 192 240 264 308 382
#     4  10  20  43  69  96 136 176 216 279 339 389
#
# _framework density 19.382038000000001
#
# number of rings (size 3 to 8) (size 9 to 14) (size 15 to 20)
#    0.000    1.156    3.111    3.200    3.733    4.267 
#    0.000    4.889    0.000    1.600    0.000    0.000 
#    0.000    0.000    0.000    0.000    0.000    0.000 
#
# Total GULP energy -251083.264102 kJ/mol
# GULP energy per Si atom -5579.628091 kJ/mol
# Density = 1.933792 g / cm^3
# Si number density = 19.382038 Si / 1000 Ang^3
#
#
#
# Elastic Constant Matrix: (Units=GPa)
#
#
# Indices 1 2 3 4 5 6 
#
# 1 67.0747 49.5447 34.4082 0.0000 0.0000 0.0000
# 2 49.5447 92.7613 28.4459 0.0000 0.0000 0.0000
# 3 34.4082 28.4459 99.0454 0.0000 0.0000 0.0000
# 4 0.0000 0.0000 0.0000 24.9556 0.0000 0.0000
# 5 0.0000 0.0000 0.0000 0.0000 18.7412 0.0000
# 6 0.0000 0.0000 0.0000 0.0000 0.0000 52.7871
#
#
#
# Elastic Compliance Matrix: (Units=1/GPa)
#
#
# Indices 1 2 3 4 5 6 
#
# 1 0.027379 -0.012837 -0.005825 0.000000 0.000000 0.000000
# 2 -0.012837 0.017840 -0.000664 0.000000 0.000000 0.000000
# 3 -0.005825 -0.000664 0.012311 0.000000 0.000000 0.000000
# 4 0.000000 0.000000 0.000000 0.040071 0.000000 0.000000
# 5 0.000000 0.000000 0.000000 0.000000 0.053358 0.000000
# 6 0.000000 0.000000 0.000000 0.000000 0.000000 0.018944
#
#
# Mechanical properties :
#
#
# Convention : Reuss Voigt Hill
#
# Bulk Modulus (GPa) = 52.97135 53.74211 53.35673
# Shear Modulus (GPa) = 23.27228 29.06227 26.16728
#
# Velocity S-wave (km/s) = 3.46889 3.87647 3.67833
# Velocity P-wave (km/s) = 6.59043 6.91549 6.75491
#
# Compressibility (1/GPa) = 0.01887813
#
# Stress axis : x y z
#
# Youngs Moduli (GPa) = 36.52465 56.05229 81.23104
#
# Poissons Ratio (x) = 0.71955 0.47313
# Poissons Ratio (y) = 0.46887 0.05395
# Poissons Ratio (z) = 0.21274 0.03723
#
# Static dielectric constant tensor:
#      x y z
#    x 1.744540 0.000000 0.000000 
#    y 0.000000 1.661750 0.000000 
#    z 0.000000 0.000000 1.725410 
# 
# From -- ./inp_files/28795.got.cif
#   From: 2010.05.17/outbox.cif.g08.bks.cpg/sg65_15_cif.got.tgz:28795.got - 2010.06.03 17:01:31.
