data_PCOD9490168
_publ_section_title
;
Structure prediction by ZEFSAII (Michael W. Deem and Ramdas Pophale) SiO2 
 PCOD9490168
Probable space group: C M M M
;
_chemical_formula_sum "Si O2"
_cell_formula_units_Z 72
_cell_length_a 14.998136
_cell_length_b 26.125272
_cell_length_c 9.966703
_cell_angle_alpha 90.000000
_cell_angle_beta 90.000000
_cell_angle_gamma 90.000000
_cell_volume 3905.257049
_symmetry_space_group_name_H-M "C M M M"
_symmetry_group_IT_number 65
_symmetry_cell_setting 'orthorhombic'
loop_
_space_group_symop_operation_xyz
x,y,z
-x,-y,z
x,-y,-z
-x,y,-z
-x,-y,-z
x,y,-z
-x,y,z
x,-y,z
1/2+x,1/2+y,z
1/2-x,1/2-y,z
1/2+x,1/2-y,-z
1/2-x,1/2+y,-z
1/2-x,1/2-y,-z
1/2+x,1/2+y,-z
1/2-x,1/2+y,z
1/2+x,1/2-y,z
loop_
_atom_site_type_symbol
_atom_site_label
_atom_site_fract_x
_atom_site_fract_y
_atom_site_fract_z
Si Si1 0.606876 0.252090 0.000000
Si Si2 0.395113 0.141056 0.500000
Si Si3 0.906457 0.812342 0.500000
Si Si4 0.894493 0.058134 0.243742
Si Si5 0.607806 0.631170 0.000000
Si Si6 0.650495 0.230338 0.297541
Si Si7 0.786340 0.909076 0.500000
O O1 0.636289 0.227054 0.139152
O O2 0.500000 0.253214 0.000000
O O3 0.641130 0.310838 0.000000
O O4 0.500000 0.126877 0.500000
O O5 0.374656 0.178192 0.627056
O O6 0.320535 0.096536 0.500000
O O7 0.904062 0.775659 0.629508
O O8 0.825193 0.851134 0.500000
O O9 0.000000 0.841671 0.500000
O O10 0.830594 0.065005 0.370552
O O11 0.000000 0.065828 0.277430
O O12 0.887554 0.000000 0.191489
O O13 0.867669 0.099462 0.132104
O O14 0.500000 0.633084 0.000000
O O15 0.750000 0.250000 0.324168
#
# Coordination Sequence:
#
# PCOD9490168 Si02
#       7
#     8   8   8  16   8  16   8
#     4  11  21  32  51  79 110 145 184 225 259 300
#     4  11  23  40  56  72 104 149 191 228 271 312
#     4  11  19  32  53  74 106 142 175 219 267 318
#     4  10  20  35  56  83 115 144 169 209 269 334
#     4   9  19  33  52  80 113 148 176 202 254 326
#     4  11  20  36  51  75 105 147 188 226 262 310
#     4  12  21  34  53  82 108 133 186 226 266 316
#
# _framework density 18.436686999999999
#
# number of rings (size 3 to 8) (size 9 to 14) (size 15 to 20)
#    0.000    1.333    2.222    6.667    0.000    4.000 
#    0.000    0.000    0.000    1.333    0.000    0.000 
#    0.000    1.778    0.000    0.000    0.000    0.000 
#
# Total GULP energy -201021.642535 kJ/mol
# GULP energy per Si atom -5583.934515 kJ/mol
# Density = 1.839472 g / cm^3
# Si number density = 18.436687 Si / 1000 Ang^3
#
#
#
# Elastic Constant Matrix: (Units=GPa)
#
#
# Indices 1 2 3 4 5 6 
#
# 1 120.2729 4.5398 18.4736 0.0000 0.0000 0.0000
# 2 4.5398 38.9149 24.3238 0.0000 0.0000 0.0000
# 3 18.4736 24.3238 127.2878 0.0000 0.0000 0.0000
# 4 0.0000 0.0000 0.0000 16.5784 0.0000 0.0000
# 5 0.0000 0.0000 0.0000 0.0000 13.5228 0.0000
# 6 0.0000 0.0000 0.0000 0.0000 0.0000 20.3952
#
#
#
# Elastic Compliance Matrix: (Units=1/GPa)
#
#
# Indices 1 2 3 4 5 6 
#
# 1 0.008506 -0.000251 -0.001187 0.000000 0.000000 0.000000
# 2 -0.000251 0.029190 -0.005542 0.000000 0.000000 0.000000
# 3 -0.001187 -0.005542 0.009087 0.000000 0.000000 0.000000
# 4 0.000000 0.000000 0.000000 0.060319 0.000000 0.000000
# 5 0.000000 0.000000 0.000000 0.000000 0.073949 0.000000
# 6 0.000000 0.000000 0.000000 0.000000 0.000000 0.049031
#
#
# Mechanical properties :
#
#
# Convention : Reuss Voigt Hill
#
# Bulk Modulus (GPa) = 30.46377 42.35001 36.40689
# Shear Modulus (GPa) = 19.60914 26.04185 22.82549
#
# Velocity S-wave (km/s) = 3.26482 3.76240 3.52241
# Velocity P-wave (km/s) = 5.54719 6.47260 6.02768
#
# Compressibility (1/GPa) = 0.03282587
#
# Stress axis : x y z
#
# Youngs Moduli (GPa) = 117.56208 34.25813 110.04246
#
# Poissons Ratio (x) = 0.00859 0.13058
# Poissons Ratio (y) = 0.02946 0.60982
# Poissons Ratio (z) = 0.13950 0.18985
#
# Static dielectric constant tensor:
#      x y z
#    x 1.671970 0.000000 0.000000 
#    y 0.000000 1.627590 0.000000 
#    z 0.000000 0.000000 1.649580 
# 
# From -- ./inp_files/7485.got.cif
#   From: 2010.05.17/outbox.cif.g08.bks.cpg/sg65_4_cif.got.tgz:7485.got - 2010.06.03 17:01:31.
