data_PCOD9490557
_publ_section_title
;
Structure prediction by ZEFSAII (Michael W. Deem and Ramdas Pophale) SiO2 
 PCOD9490557
Probable space group: C M M M
;
_chemical_formula_sum "Si O2"
_cell_formula_units_Z 104
_cell_length_a 24.653371
_cell_length_b 8.313166
_cell_length_c 28.986450
_cell_angle_alpha 90.000000
_cell_angle_beta 90.000000
_cell_angle_gamma 90.000000
_cell_volume 5940.702362
_symmetry_space_group_name_H-M "C M M M"
_symmetry_group_IT_number 65
_symmetry_cell_setting 'orthorhombic'
loop_
_space_group_symop_operation_xyz
x,y,z
-x,-y,z
x,-y,-z
-x,y,-z
-x,-y,-z
x,y,-z
-x,y,z
x,-y,z
1/2+x,1/2+y,z
1/2-x,1/2-y,z
1/2+x,1/2-y,-z
1/2-x,1/2+y,-z
1/2-x,1/2-y,-z
1/2+x,1/2+y,-z
1/2-x,1/2+y,z
1/2+x,1/2-y,z
loop_
_atom_site_type_symbol
_atom_site_label
_atom_site_fract_x
_atom_site_fract_y
_atom_site_fract_z
Si Si1 0.111006 0.690649 0.804641
Si Si2 0.063254 0.302744 0.100855
Si Si3 0.688336 0.308687 0.273865
Si Si4 0.934134 0.685979 0.000000
Si Si5 0.119103 0.805965 0.637993
Si Si6 0.000000 0.187658 0.349000
Si Si7 0.811616 0.692868 0.552218
Si Si8 0.500000 0.313011 0.761623
O O1 0.119277 0.500000 0.806028
O O2 0.101347 0.749091 0.857103
O O3 0.158447 0.764062 0.773713
O O4 0.053995 0.729334 0.779900
O O5 0.063194 0.500000 0.099838
O O6 0.080639 0.244168 0.049950
O O7 0.000000 0.256664 0.109243
O O8 0.689196 0.500000 0.277621
O O9 0.750000 0.250000 0.276098
O O10 0.652240 0.245900 0.317043
O O11 0.915614 0.500000 0.000000
O O12 0.000000 0.682972 0.000000
O O13 0.151048 0.764523 0.591820
O O14 0.057629 0.741006 0.636078
O O15 0.115577 0.000000 0.642875
O O16 0.000000 0.189662 0.293560
O O17 0.000000 0.000000 0.364077
O O18 0.827323 0.741793 0.500000
O O19 0.813123 0.500000 0.554778
O O20 0.750000 0.750000 0.559626
O O21 0.500000 0.500000 0.776237
#
# Coordination Sequence:
#
# PCOD9490557 Si02
#       8
#    16  16  16   8  16   8  16   8
#     4  11  20  31  49  76 105 134 172 214 255 305
#     4   8  13  22  38  65  99 131 165 205 247 296
#     4  11  23  38  54  75 103 136 171 212 259 307
#     4   7  10  18  34  58  93 132 163 198 247 295
#     4  10  20  36  58  80 105 136 171 208 247 297
#     4   9  18  35  54  76 104 137 172 206 241 292
#     4  10  21  37  57  81 107 135 171 215 260 303
#     4  11  19  33  51  71 103 141 177 212 250 299
#
# _framework density 17.506347999999999
#
# number of rings (size 3 to 8) (size 9 to 14) (size 15 to 20)
#    0.000    2.231    2.308    3.000    0.000    3.385 
#    0.000    0.769    0.000    2.308    0.000    3.231 
#    0.000    0.000    0.000    0.000    0.000    0.000 
#
# Total GULP energy -289897.929708 kJ/mol
# GULP energy per Si atom -5574.960187 kJ/mol
# Density = 1.746650 g / cm^3
# Si number density = 17.506348 Si / 1000 Ang^3
#
#
#
# Elastic Constant Matrix: (Units=GPa)
#
#
# Indices 1 2 3 4 5 6 
#
# 1 122.6855 15.5579 80.3111 0.0000 0.0000 0.0000
# 2 15.5579 14.7128 9.9513 0.0000 0.0000 0.0000
# 3 80.3111 9.9513 134.8673 0.0000 0.0000 0.0000
# 4 0.0000 0.0000 0.0000 4.3978 0.0000 0.0000
# 5 0.0000 0.0000 0.0000 0.0000 30.6217 0.0000
# 6 0.0000 0.0000 0.0000 0.0000 0.0000 12.0737
#
#
#
# Elastic Compliance Matrix: (Units=1/GPa)
#
#
# Indices 1 2 3 4 5 6 
#
# 1 0.014657 -0.010100 -0.007983 0.000000 0.000000 0.000000
# 2 -0.010100 0.078497 0.000222 0.000000 0.000000 0.000000
# 3 -0.007983 0.000222 0.012152 0.000000 0.000000 0.000000
# 4 0.000000 0.000000 0.000000 0.227387 0.000000 0.000000
# 5 0.000000 0.000000 0.000000 0.000000 0.032657 0.000000
# 6 0.000000 0.000000 0.000000 0.000000 0.000000 0.082825
#
#
# Mechanical properties :
#
#
# Convention : Reuss Voigt Hill
#
# Bulk Modulus (GPa) = 14.37076 53.76735 34.06906
# Shear Modulus (GPa) = 9.86016 20.51500 15.18758
#
# Velocity S-wave (km/s) = 2.37583 3.42696 2.94861
# Velocity P-wave (km/s) = 3.96898 6.81458 5.57635
#
# Compressibility (1/GPa) = 0.06958573
#
# Stress axis : x y z
#
# Youngs Moduli (GPa) = 68.22454 12.73927 82.29064
#
# Poissons Ratio (x) = 0.12867 0.65693
# Poissons Ratio (y) = 0.68906 -0.01830
# Poissons Ratio (z) = 0.54464 -0.00283
#
# Static dielectric constant tensor:
#      x y z
#    x 1.568120 0.000000 0.000000 
#    y 0.000000 1.605910 0.000000 
#    z 0.000000 0.000000 1.623650 
# 
# From -- ./inp_files/78310.got.cif
#   From: 2010.05.17/outbox.cif.g08.bks.cpg/sg65_40_cif.got.tgz:78310.got - 2010.06.03 17:01:31.
