data_PCOD9490194
_publ_section_title
;
Structure prediction by ZEFSAII (Michael W. Deem and Ramdas Pophale) SiO2 
 PCOD9490194
Probable space group: C M M M
;
_chemical_formula_sum "Si O2"
_cell_formula_units_Z 72
_cell_length_a 13.863466
_cell_length_b 29.231522
_cell_length_c 8.910714
_cell_angle_alpha 90.000000
_cell_angle_beta 90.000000
_cell_angle_gamma 90.000000
_cell_volume 3611.068732
_symmetry_space_group_name_H-M "C M M M"
_symmetry_group_IT_number 65
_symmetry_cell_setting 'orthorhombic'
loop_
_space_group_symop_operation_xyz
x,y,z
-x,-y,z
x,-y,-z
-x,y,-z
-x,-y,-z
x,y,-z
-x,y,z
x,-y,z
1/2+x,1/2+y,z
1/2-x,1/2-y,z
1/2+x,1/2-y,-z
1/2-x,1/2+y,-z
1/2-x,1/2-y,-z
1/2+x,1/2+y,-z
1/2-x,1/2+y,z
1/2+x,1/2-y,z
loop_
_atom_site_type_symbol
_atom_site_label
_atom_site_fract_x
_atom_site_fract_y
_atom_site_fract_z
Si Si1 0.385088 0.500000 0.178565
Si Si2 0.616750 0.679751 0.174380
Si Si3 0.382692 0.225816 0.328359
Si Si4 0.613438 0.870111 0.822167
Si Si5 0.291840 0.410058 0.321321
O O1 0.500000 0.500000 0.202963
O O2 0.339526 0.454962 0.251578
O O3 0.367577 0.500000 0.000000
O O4 0.500000 0.678885 0.177655
O O5 0.648787 0.726272 0.256677
O O6 0.654964 0.634776 0.256223
O O7 0.646555 0.680046 0.000000
O O8 0.349645 0.220258 0.500000
O O9 0.500000 0.227634 0.331457
O O10 0.359431 0.181193 0.230953
O O11 0.500000 0.876613 0.790377
O O12 0.681786 0.904491 0.733324
O O13 0.628333 0.874444 0.000000
O O14 0.298131 0.410752 0.500000
#
# Coordination Sequence:
#
# PCOD9490194 Si02
#       5
#     8  16  16  16  16
#     4  11  25  47  72  95 122 155 191 236 292 353
#     4  10  20  35  56  84 120 161 204 248 295 353
#     4   9  17  31  53  83 120 159 199 246 299 351
#     4  10  21  39  62  87 119 160 203 246 293 349
#     4  12  25  40  62  91 121 154 196 246 299 355
#
# _framework density 19.938694999999999
#
# number of rings (size 3 to 8) (size 9 to 14) (size 15 to 20)
#    0.000    1.667    0.000    5.000    0.000    9.778 
#    0.000    5.000    0.000    3.333    0.000    0.000 
#    0.000    0.000    0.000    0.000    0.000    0.000 
#
# Total GULP energy -201461.530968 kJ/mol
# GULP energy per Si atom -5596.153638 kJ/mol
# Density = 1.989331 g / cm^3
# Si number density = 19.938695 Si / 1000 Ang^3
#
#
#
# Elastic Constant Matrix: (Units=GPa)
#
#
# Indices 1 2 3 4 5 6 
#
# 1 76.1018 48.0136 55.6495 0.0000 0.0000 0.0000
# 2 48.0136 135.3123 85.9472 0.0000 0.0000 0.0000
# 3 55.6495 85.9472 173.6914 0.0000 0.0000 0.0000
# 4 0.0000 0.0000 0.0000 43.2658 0.0000 0.0000
# 5 0.0000 0.0000 0.0000 0.0000 26.1914 0.0000
# 6 0.0000 0.0000 0.0000 0.0000 0.0000 34.9599
#
#
#
# Elastic Compliance Matrix: (Units=1/GPa)
#
#
# Indices 1 2 3 4 5 6 
#
# 1 0.018604 -0.004106 -0.003929 0.000000 0.000000 0.000000
# 2 -0.004106 0.011684 -0.004466 0.000000 0.000000 0.000000
# 3 -0.003929 -0.004466 0.009226 0.000000 0.000000 0.000000
# 4 0.000000 0.000000 0.000000 0.023113 0.000000 0.000000
# 5 0.000000 0.000000 0.000000 0.000000 0.038180 0.000000
# 6 0.000000 0.000000 0.000000 0.000000 0.000000 0.028604
#
#
# Mechanical properties :
#
#
# Convention : Reuss Voigt Hill
#
# Bulk Modulus (GPa) = 68.90707 84.92514 76.91611
# Shear Modulus (GPa) = 31.39722 33.91645 32.65684
#
# Velocity S-wave (km/s) = 3.97254 4.12884 4.05144
# Velocity P-wave (km/s) = 7.46163 8.08797 7.78111
#
# Compressibility (1/GPa) = 0.01451230
#
# Stress axis : x y z
#
# Youngs Moduli (GPa) = 53.75304 85.58782 108.38879
#
# Poissons Ratio (x) = 0.35140 0.42584
# Poissons Ratio (y) = 0.22069 0.48407
# Poissons Ratio (z) = 0.21119 0.38224
#
# Static dielectric constant tensor:
#      x y z
#    x 1.763660 0.000000 0.000000 
#    y 0.000000 1.644560 0.000000 
#    z 0.000000 0.000000 1.663370 
# 
# From -- ./inp_files/7265.got.cif
#   From: 2010.05.17/outbox.cif.g08.bks.cpg/sg65_4_cif.got.tgz:7265.got - 2010.06.03 17:01:31.
