data_PCOD9490697
_publ_section_title
;
Structure prediction by ZEFSAII (Michael W. Deem and Ramdas Pophale) SiO2 
 PCOD9490697
Probable space group: C M M M
;
_chemical_formula_sum "Si O2"
_cell_formula_units_Z 72
_cell_length_a 27.569236
_cell_length_b 18.091948
_cell_length_c 7.583584
_cell_angle_alpha 90.000000
_cell_angle_beta 90.000000
_cell_angle_gamma 90.000000
_cell_volume 3782.549007
_symmetry_space_group_name_H-M "C M M M"
_symmetry_group_IT_number 65
_symmetry_cell_setting 'orthorhombic'
loop_
_space_group_symop_operation_xyz
x,y,z
-x,-y,z
x,-y,-z
-x,y,-z
-x,-y,-z
x,y,-z
-x,y,z
x,-y,z
1/2+x,1/2+y,z
1/2-x,1/2-y,z
1/2+x,1/2-y,-z
1/2-x,1/2+y,-z
1/2-x,1/2-y,-z
1/2+x,1/2+y,-z
1/2-x,1/2+y,z
1/2+x,1/2-y,z
loop_
_atom_site_type_symbol
_atom_site_label
_atom_site_fract_x
_atom_site_fract_y
_atom_site_fract_z
Si Si1 0.595070 0.194538 0.297740
Si Si2 0.558285 0.087526 0.000000
Si Si3 0.553466 0.646372 0.285553
Si Si4 0.696316 0.737453 0.794581
Si Si5 0.153839 0.081102 0.285997
O O1 0.581851 0.178721 0.500000
O O2 0.566852 0.269170 0.238701
O O3 0.651744 0.217806 0.289930
O O4 0.581091 0.128576 0.169016
O O5 0.500000 0.097945 0.000000
O O6 0.568084 0.000000 0.000000
O O7 0.552963 0.644096 0.500000
O O8 0.500000 0.626106 0.222760
O O9 0.598168 0.595582 0.229733
O O10 0.750000 0.750000 0.720589
O O11 0.683886 0.650828 0.779733
O O12 0.696616 0.759091 0.000000
O O13 0.154943 0.083691 0.500000
O O14 0.170246 0.000000 0.229608
#
# Coordination Sequence:
#
# PCOD9490697 Si02
#       5
#    16   8  16  16  16
#     4  10  20  37  60  86 116 150 192 240 291 350
#     4  11  24  40  59  86 119 153 194 247 304 360
#     4   8  14  26  48  77 106 142 184 218 256 315
#     4  10  20  36  60  85 108 146 197 242 290 347
#     4   9  18  31  48  76 113 147 181 224 274 330
#
# _framework density 19.034783000000001
#
# number of rings (size 3 to 8) (size 9 to 14) (size 15 to 20)
#    0.000    2.556    1.111    2.667    0.000    4.444 
#    0.000    4.444    0.000    0.000    0.000    3.111 
#    0.000    0.000    0.000    0.000    0.000    0.000 
#
# Total GULP energy -200876.340831 kJ/mol
# GULP energy per Si atom -5579.898356 kJ/mol
# Density = 1.899146 g / cm^3
# Si number density = 19.034783 Si / 1000 Ang^3
#
#
#
# Elastic Constant Matrix: (Units=GPa)
#
#
# Indices 1 2 3 4 5 6 
#
# 1 110.1080 36.5427 -3.9387 0.0000 0.0000 0.0000
# 2 36.5427 104.9354 22.9861 0.0000 0.0000 0.0000
# 3 -3.9387 22.9861 68.6835 0.0000 0.0000 0.0000
# 4 0.0000 0.0000 0.0000 24.1419 0.0000 0.0000
# 5 0.0000 0.0000 0.0000 0.0000 143.3758 0.0000
# 6 0.0000 0.0000 0.0000 0.0000 0.0000 8.0419
#
#
#
# Elastic Compliance Matrix: (Units=1/GPa)
#
#
# Indices 1 2 3 4 5 6 
#
# 1 0.010511 -0.004092 0.001972 0.000000 0.000000 0.000000
# 2 -0.004092 0.011877 -0.004209 0.000000 0.000000 0.000000
# 3 0.001972 -0.004209 0.016081 0.000000 0.000000 0.000000
# 4 0.000000 0.000000 0.000000 0.041422 0.000000 0.000000
# 5 0.000000 0.000000 0.000000 0.000000 0.006975 0.000000
# 6 0.000000 0.000000 0.000000 0.000000 0.000000 0.124349
#
#
# Mechanical properties :
#
#
# Convention : Reuss Voigt Hill
#
# Bulk Modulus (GPa) = 38.74458 43.87856 41.31157
# Shear Modulus (GPa) = 21.50753 50.32106 35.91429
#
# Velocity S-wave (km/s) = 3.36506 5.14721 4.34841
# Velocity P-wave (km/s) = 5.95793 7.64374 6.85287
#
# Compressibility (1/GPa) = 0.02581006
#
# Stress axis : x y z
#
# Youngs Moduli (GPa) = 95.14128 84.19748 62.18358
#
# Poissons Ratio (x) = 0.34456 -0.12264
# Poissons Ratio (y) = 0.38934 0.26176
# Poissons Ratio (z) = -0.18765 0.35443
#
# Static dielectric constant tensor:
#      x y z
#    x 1.671890 0.000000 0.000000 
#    y 0.000000 1.625650 0.000000 
#    z 0.000000 0.000000 1.706130 
# 
# From -- ./inp_files/15968.got.cif
#   From: 2010.05.17/outbox.cif.g08.bks.cpg/sg65_8_cif.got.tgz:15968.got - 2010.06.03 17:01:31.
