data_PCOD9490883
_publ_section_title
;
Structure prediction by ZEFSAII (Michael W. Deem and Ramdas Pophale) SiO2 
 PCOD9490883
Probable space group: C M M M
;
_chemical_formula_sum "Si O2"
_cell_formula_units_Z 66
_cell_length_a 15.682237
_cell_length_b 8.953900
_cell_length_c 25.701749
_cell_angle_alpha 90.000000
_cell_angle_beta 90.000000
_cell_angle_gamma 90.000000
_cell_volume 3608.967164
_symmetry_space_group_name_H-M "C M M M"
_symmetry_group_IT_number 65
_symmetry_cell_setting 'orthorhombic'
loop_
_space_group_symop_operation_xyz
x,y,z
-x,-y,z
x,-y,-z
-x,y,-z
-x,-y,-z
x,y,-z
-x,y,z
x,-y,z
1/2+x,1/2+y,z
1/2-x,1/2-y,z
1/2+x,1/2-y,-z
1/2-x,1/2+y,-z
1/2-x,1/2-y,-z
1/2+x,1/2+y,-z
1/2-x,1/2+y,z
1/2+x,1/2-y,z
loop_
_atom_site_type_symbol
_atom_site_label
_atom_site_fract_x
_atom_site_fract_y
_atom_site_fract_z
Si Si1 0.500000 0.000000 0.000000
Si Si2 0.500000 0.325754 0.562236
Si Si3 0.102374 0.824648 0.722147
Si Si4 0.000000 0.664988 0.892257
Si Si5 0.340752 0.678237 0.840060
Si Si6 0.839210 0.677375 0.382127
O O1 0.500000 0.127650 0.046666
O O2 0.500000 0.500000 0.578314
O O3 0.500000 0.317918 0.500000
O O4 0.583110 0.246395 0.585351
O O5 0.137425 0.790942 0.779469
O O6 0.143240 0.723976 0.677664
O O7 0.000000 0.805456 0.722148
O O8 0.119922 0.000000 0.710698
O O9 0.916398 0.752498 0.874107
O O10 0.000000 0.500000 0.866018
O O11 0.338151 0.500000 0.846554
O O12 0.250000 0.750000 0.853165
O O13 0.836622 0.500000 0.387407
O O14 0.750000 0.750000 0.398564
#
# Coordination Sequence:
#
# PCOD9490883 Si02
#       6
#     2   8  16   8  16  16
#     4   8  24  44  70  88 124 158 222 260 326 352
#     4  11  25  46  69  91 119 160 211 268 325 375
#     4  10  20  37  61  92 131 169 205 250 309 378
#     4  10  21  42  66  87 123 159 208 261 310 364
#     4  11  22  38  63  97 130 167 207 254 312 375
#     4  12  25  41  64  93 128 167 210 257 314 377
#
# _framework density 18.287780000000001
#
# number of rings (size 3 to 8) (size 9 to 14) (size 15 to 20)
#    0.364    0.848    2.424    4.364    0.000    5.333 
#    0.000    1.818    0.000    0.000    0.000    0.000 
#    0.000    0.000    0.000    0.000    0.000    0.000 
#
# Total GULP energy -184202.362271 kJ/mol
# GULP energy per Si atom -5581.889766 kJ/mol
# Density = 1.824616 g / cm^3
# Si number density = 18.287780 Si / 1000 Ang^3
#
#
#
# Elastic Constant Matrix: (Units=GPa)
#
#
# Indices 1 2 3 4 5 6 
#
# 1 181.2120 94.6740 61.8783 0.0000 0.0000 0.0000
# 2 94.6740 144.7389 71.0481 0.0000 0.0000 0.0000
# 3 61.8783 71.0481 97.0067 0.0000 0.0000 0.0000
# 4 0.0000 0.0000 0.0000 34.3967 0.0000 0.0000
# 5 0.0000 0.0000 0.0000 0.0000 -12.8356 0.0000
# 6 0.0000 0.0000 0.0000 0.0000 0.0000 32.2143
#
#
#
# Elastic Compliance Matrix: (Units=1/GPa)
#
#
# Indices 1 2 3 4 5 6 
#
# 1 0.008661 -0.004611 -0.002147 0.000000 0.000000 0.000000
# 2 -0.004611 0.013242 -0.006757 0.000000 0.000000 0.000000
# 3 -0.002147 -0.006757 0.016627 0.000000 0.000000 0.000000
# 4 0.000000 0.000000 0.000000 0.029073 0.000000 0.000000
# 5 0.000000 0.000000 0.000000 0.000000 -0.077909 0.000000
# 6 0.000000 0.000000 0.000000 0.000000 0.000000 0.031042
#
#
# Mechanical properties :
#
#
# Convention : Reuss Voigt Hill
#
# Bulk Modulus (GPa) = 86.96500 97.57314 92.26907
# Shear Modulus (GPa) = 96.89945 23.77890 60.33918
#
# Velocity S-wave (km/s) = 7.28704 3.60983 5.75029
# Velocity P-wave (km/s) = 10.88385 8.41692 9.72889
#
# Compressibility (1/GPa) = 0.01149888
#
# Stress axis : x y z
#
# Youngs Moduli (GPa) = 115.46577 75.51805 60.14169
#
# Poissons Ratio (x) = 0.34820 0.12915
# Poissons Ratio (y) = 0.53239 0.40639
# Poissons Ratio (z) = 0.24795 0.51030
#
# Static dielectric constant tensor:
#      x y z
#    x 1.517430 0.000000 0.000000 
#    y 0.000000 1.615490 0.000000 
#    z 0.000000 0.000000 1.603210 
# 
# From -- ./inp_files/74541.got.cif
#   From: 2010.05.17/outbox.cif.g08.bks.cpg/sg65_38_cif.got.tgz:74541.got - 2010.06.03 17:01:31.
