data_PCOD9490278
_publ_section_title
;
Structure prediction by ZEFSAII (Michael W. Deem and Ramdas Pophale) SiO2 
 PCOD9490278
Probable space group: C M M M
;
_chemical_formula_sum "Si O2"
_cell_formula_units_Z 64
_cell_length_a 15.997649
_cell_length_b 8.975685
_cell_length_c 22.988776
_cell_angle_alpha 90.000000
_cell_angle_beta 90.000000
_cell_angle_gamma 90.000000
_cell_volume 3300.955085
_symmetry_space_group_name_H-M "C M M M"
_symmetry_group_IT_number 65
_symmetry_cell_setting 'orthorhombic'
loop_
_space_group_symop_operation_xyz
x,y,z
-x,-y,z
x,-y,-z
-x,y,-z
-x,-y,-z
x,y,-z
-x,y,z
x,-y,z
1/2+x,1/2+y,z
1/2-x,1/2-y,z
1/2+x,1/2-y,-z
1/2-x,1/2+y,-z
1/2-x,1/2-y,-z
1/2+x,1/2+y,-z
1/2-x,1/2+y,z
1/2+x,1/2-y,z
loop_
_atom_site_type_symbol
_atom_site_label
_atom_site_fract_x
_atom_site_fract_y
_atom_site_fract_z
Si Si1 0.337659 0.321641 0.359578
Si Si2 0.840661 0.819579 0.000000
Si Si3 0.500000 0.681357 0.433206
Si Si4 0.400093 0.669565 0.873908
Si Si5 0.398540 0.826924 0.243025
O O1 0.331751 0.500000 0.361792
O O2 0.250000 0.250000 0.378001
O O3 0.416181 0.272498 0.399265
O O4 0.358597 0.269295 0.294212
O O5 0.750000 0.750000 0.000000
O O6 0.881544 0.774016 0.938818
O O7 0.840844 0.000000 0.000000
O O8 0.500000 0.500000 0.432981
O O9 0.500000 0.731139 0.500000
O O10 0.500000 0.662032 0.868914
O O11 0.367283 0.500000 0.868064
O O12 0.370595 0.769756 0.820401
O O13 0.500000 0.812847 0.246559
O O14 0.377332 0.000000 0.250886
#
# Coordination Sequence:
#
# PCOD9490278 Si02
#       5
#    16   8   8  16  16
#     4  11  22  38  62  91 123 161 202 245 296 351
#     4  10  21  35  51  73 103 140 180 232 288 346
#     4   9  20  40  65  91 123 162 201 242 291 351
#     4   9  18  34  56  78 103 141 190 235 283 344
#     4  10  20  35  57  85 117 150 191 243 296 349
#
# _framework density 19.388327
#
# number of rings (size 3 to 8) (size 9 to 14) (size 15 to 20)
#    0.000    2.125    1.250    1.875    0.000    5.000 
#    0.000    2.500    0.000    9.000    0.000    0.000 
#    0.000    0.000    0.000    0.000    0.000    0.000 
#
# Total GULP energy -178605.297824 kJ/mol
# GULP energy per Si atom -5581.415557 kJ/mol
# Density = 1.934420 g / cm^3
# Si number density = 19.388327 Si / 1000 Ang^3
#
#
#
# Elastic Constant Matrix: (Units=GPa)
#
#
# Indices 1 2 3 4 5 6 
#
# 1 87.2713 41.6193 61.0842 0.0000 0.0000 0.0000
# 2 41.6193 53.2492 38.3937 0.0000 0.0000 0.0000
# 3 61.0842 38.3937 152.1810 0.0000 0.0000 0.0000
# 4 0.0000 0.0000 0.0000 11.2149 0.0000 0.0000
# 5 0.0000 0.0000 0.0000 0.0000 -5.6415 0.0000
# 6 0.0000 0.0000 0.0000 0.0000 0.0000 28.8535
#
#
#
# Elastic Compliance Matrix: (Units=1/GPa)
#
#
# Indices 1 2 3 4 5 6 
#
# 1 0.021283 -0.012804 -0.005313 0.000000 0.000000 0.000000
# 2 -0.012804 0.030659 -0.002595 0.000000 0.000000 0.000000
# 3 -0.005313 -0.002595 0.009358 0.000000 0.000000 0.000000
# 4 0.000000 0.000000 0.000000 0.089167 0.000000 0.000000
# 5 0.000000 0.000000 0.000000 0.000000 -0.177256 0.000000
# 6 0.000000 0.000000 0.000000 0.000000 0.000000 0.034658
#
#
# Mechanical properties :
#
#
# Convention : Reuss Voigt Hill
#
# Bulk Modulus (GPa) = 50.31239 63.87731 57.09485
# Shear Modulus (GPa) = 89.41554 16.99233 53.20393
#
# Velocity S-wave (km/s) = 6.79841 2.96365 5.24412
# Velocity P-wave (km/s) = 9.36112 6.68796 8.13509
#
# Compressibility (1/GPa) = 0.01987582
#
# Stress axis : x y z
#
# Youngs Moduli (GPa) = 46.98515 32.61711 106.85721
#
# Poissons Ratio (x) = 0.41765 0.56768
# Poissons Ratio (y) = 0.60162 0.27732
# Poissons Ratio (z) = 0.24961 0.08465
#
# Static dielectric constant tensor:
#      x y z
#    x 1.679910 0.000000 0.000000 
#    y 0.000000 1.667510 0.000000 
#    z 0.000000 0.000000 1.683990 
# 
# From -- ./inp_files/66813.got.cif
#   From: 2010.05.17/outbox.cif.g08.bks.cpg/sg65_34_cif.got.tgz:66813.got - 2010.06.03 17:01:31.
