data_PCOD9490155
_publ_section_title
;
Structure prediction by ZEFSAII (Michael W. Deem and Ramdas Pophale) SiO2 
 PCOD9490155
Probable space group: C M M M
;
_chemical_formula_sum "Si O2"
_cell_formula_units_Z 88
_cell_length_a 16.102752
_cell_length_b 7.508845
_cell_length_c 32.293681
_cell_angle_alpha 90.000000
_cell_angle_beta 90.000000
_cell_angle_gamma 90.000000
_cell_volume 3904.728074
_symmetry_space_group_name_H-M "C M M M"
_symmetry_group_IT_number 65
_symmetry_cell_setting 'orthorhombic'
loop_
_space_group_symop_operation_xyz
x,y,z
-x,-y,z
x,-y,-z
-x,y,-z
-x,-y,-z
x,y,-z
-x,y,z
x,-y,z
1/2+x,1/2+y,z
1/2-x,1/2-y,z
1/2+x,1/2-y,-z
1/2-x,1/2+y,-z
1/2-x,1/2-y,-z
1/2+x,1/2+y,-z
1/2-x,1/2+y,z
1/2+x,1/2-y,z
loop_
_atom_site_type_symbol
_atom_site_label
_atom_site_fract_x
_atom_site_fract_y
_atom_site_fract_z
Si Si1 0.595765 0.787172 0.688571
Si Si2 0.152490 0.786846 0.866684
Si Si3 0.342939 0.786996 0.601115
Si Si4 0.906143 0.786556 0.777957
Si Si5 0.349548 0.713949 0.955468
Si Si6 0.500000 0.781789 0.452365
O O1 0.500000 0.718865 0.687277
O O2 0.643466 0.719296 0.648153
O O3 0.634975 0.751086 0.733647
O O4 0.591067 0.000000 0.685256
O O5 0.250000 0.750000 0.868462
O O6 0.124972 0.716127 0.822017
O O7 0.117523 0.719643 0.910939
O O8 0.137850 0.000000 0.866423
O O9 0.250000 0.750000 0.586451
O O10 0.417509 0.722432 0.571998
O O11 0.351426 0.000000 0.602479
O O12 0.000000 0.719808 0.773486
O O13 0.906939 0.000000 0.781388
O O14 0.360503 0.500000 0.955458
O O15 0.250000 0.750000 0.955624
O O16 0.381785 0.781083 0.000000
O O17 0.500000 0.725526 0.500000
O O18 0.500000 0.000000 0.452116
#
# Coordination Sequence:
#
# PCOD9490155 Si02
#       6
#    16  16  16  16  16   8
#     4   9  17  32  52  70  93 128 169 207 243 291
#     4   9  17  28  42  61  86 113 143 185 232 277
#     4  10  20  35  56  83 111 141 179 221 264 310
#     4   9  18  31  46  65  91 124 158 191 234 286
#     4   8  13  22  37  56  77 103 137 177 222 272
#     4   9  18  36  61  83 109 149 187 217 258 315
#
# _framework density 22.536781000000001
#
# number of rings (size 3 to 8) (size 9 to 14) (size 15 to 20)
#    0.000    3.000    0.909    0.000    0.000    2.545 
#    0.000    4.091    0.000    1.091    0.000    3.818 
#    0.000    0.000    0.000   34.000    0.000   18.545 
#
# Total GULP energy -245164.500406 kJ/mol
# GULP energy per Si atom -5571.920464 kJ/mol
# Density = 2.248549 g / cm^3
# Si number density = 22.536781 Si / 1000 Ang^3
#
#
#
# Elastic Constant Matrix: (Units=GPa)
#
#
# Indices 1 2 3 4 5 6 
#
# 1 82.1823 -3.1898 79.5357 0.0000 0.0000 0.0000
# 2 -3.1898 63.4309 10.4239 0.0000 0.0000 0.0000
# 3 79.5357 10.4239 252.3104 0.0000 0.0000 0.0000
# 4 0.0000 0.0000 0.0000 6.1926 0.0000 0.0000
# 5 0.0000 0.0000 0.0000 0.0000 26.0153 0.0000
# 6 0.0000 0.0000 0.0000 0.0000 0.0000 9.9398
#
#
#
# Elastic Compliance Matrix: (Units=1/GPa)
#
#
# Indices 1 2 3 4 5 6 
#
# 1 0.017716 0.001821 -0.005660 0.000000 0.000000 0.000000
# 2 0.001821 0.016060 -0.001238 0.000000 0.000000 0.000000
# 3 -0.005660 -0.001238 0.005799 0.000000 0.000000 0.000000
# 4 0.000000 0.000000 0.000000 0.161483 0.000000 0.000000
# 5 0.000000 0.000000 0.000000 0.000000 0.038439 0.000000
# 6 0.000000 0.000000 0.000000 0.000000 0.000000 0.100606
#
#
# Mechanical properties :
#
#
# Convention : Reuss Voigt Hill
#
# Bulk Modulus (GPa) = 33.98778 63.49591 48.74184
# Shear Modulus (GPa) = 13.88644 29.17313 21.52979
#
# Velocity S-wave (km/s) = 2.48497 3.60177 3.09417
# Velocity P-wave (km/s) = 4.83189 6.74778 5.86855
#
# Compressibility (1/GPa) = 0.02942234
#
# Stress axis : x y z
#
# Youngs Moduli (GPa) = 56.44466 62.26594 172.45249
#
# Poissons Ratio (x) = -0.11339 0.97608
# Poissons Ratio (y) = -0.10279 0.21342
# Poissons Ratio (z) = 0.31948 0.07706
#
# Static dielectric constant tensor:
#      x y z
#    x 1.825120 0.000000 0.000000 
#    y 0.000000 1.804350 0.000000 
#    z 0.000000 0.000000 1.917210 
# 
# From -- ./inp_files/74754.got.cif
#   From: 2010.05.17/outbox.cif.g08.bks.cpg/sg65_38_cif.got.tgz:74754.got - 2010.06.03 17:01:31.
