data_PCOD9490186
_publ_section_title
;
Structure prediction by ZEFSAII (Michael W. Deem and Ramdas Pophale) SiO2 
 PCOD9490186
Probable space group: C M M M
;
_chemical_formula_sum "Si O2"
_cell_formula_units_Z 104
_cell_length_a 16.817836
_cell_length_b 18.392523
_cell_length_c 19.037696
_cell_angle_alpha 90.000000
_cell_angle_beta 90.000000
_cell_angle_gamma 90.000000
_cell_volume 5888.786492
_symmetry_space_group_name_H-M "C M M M"
_symmetry_group_IT_number 65
_symmetry_cell_setting 'orthorhombic'
loop_
_space_group_symop_operation_xyz
x,y,z
-x,-y,z
x,-y,-z
-x,y,-z
-x,-y,-z
x,y,-z
-x,y,z
x,-y,z
1/2+x,1/2+y,z
1/2-x,1/2-y,z
1/2+x,1/2-y,-z
1/2-x,1/2+y,-z
1/2-x,1/2-y,-z
1/2+x,1/2+y,-z
1/2-x,1/2+y,z
1/2+x,1/2-y,z
loop_
_atom_site_type_symbol
_atom_site_label
_atom_site_fract_x
_atom_site_fract_y
_atom_site_fract_z
Si Si1 0.500000 0.582194 0.585169
Si Si2 0.335767 0.659313 0.583534
Si Si3 0.698717 0.083914 0.326496
Si Si4 0.226822 0.084240 0.170758
Si Si5 0.323531 0.192917 0.079883
Si Si6 0.907885 0.204939 0.813947
Si Si7 0.406643 0.217505 0.336214
O O1 0.500000 0.500000 0.611171
O O2 0.500000 0.581398 0.500000
O O3 0.418977 0.621234 0.606197
O O4 0.326840 0.653947 0.500000
O O5 0.264947 0.619023 0.622882
O O6 0.350797 0.741713 0.607708
O O7 0.733623 0.087145 0.247738
O O8 0.621815 0.134966 0.329762
O O9 0.684229 0.000000 0.344753
O O10 0.288221 0.121028 0.116299
O O11 0.149602 0.136289 0.173803
O O12 0.209195 0.000000 0.154177
O O13 0.250000 0.250000 0.078342
O O14 0.387502 0.233082 0.128819
O O15 0.349989 0.180692 0.000000
O O16 0.892568 0.240909 0.737661
O O17 0.000000 0.184077 0.817561
O O18 0.500000 0.222606 0.353953
#
# Coordination Sequence:
#
# PCOD9490186 Si02
#       7
#     8  16  16  16  16  16  16
#     4   9  18  34  54  80 119 151 176 224 284 341
#     4  11  22  37  58  86 114 149 193 235 287 345
#     4  11  23  38  58  83 114 153 193 239 291 341
#     4  10  20  35  56  84 117 151 187 230 282 339
#     4   9  18  34  58  83 109 149 191 226 269 325
#     4  10  20  35  56  84 116 151 189 230 280 337
#     4  11  22  38  60  83 112 152 195 240 288 341
#
# _framework density 17.660684
#
# number of rings (size 3 to 8) (size 9 to 14) (size 15 to 20)
#    0.000    1.769    3.846    0.923    0.000    3.385 
#    0.000    0.000    0.000    0.462    0.000    7.538 
#    0.000    0.000    0.000    0.000    0.000    0.000 
#
# Total GULP energy -290207.124304 kJ/mol
# GULP energy per Si atom -5580.906237 kJ/mol
# Density = 1.762049 g / cm^3
# Si number density = 17.660684 Si / 1000 Ang^3
#
#
#
# Elastic Constant Matrix: (Units=GPa)
#
#
# Indices 1 2 3 4 5 6 
#
# 1 37.6945 40.6113 10.7808 0.0000 0.0000 0.0000
# 2 40.6113 140.1348 26.2157 0.0000 0.0000 0.0000
# 3 10.7808 26.2157 78.9369 0.0000 0.0000 0.0000
# 4 0.0000 0.0000 0.0000 14.2056 0.0000 0.0000
# 5 0.0000 0.0000 0.0000 0.0000 19.8748 0.0000
# 6 0.0000 0.0000 0.0000 0.0000 0.0000 19.5850
#
#
#
# Elastic Compliance Matrix: (Units=1/GPa)
#
#
# Indices 1 2 3 4 5 6 
#
# 1 0.038777 -0.010926 -0.001667 0.000000 0.000000 0.000000
# 2 -0.010926 0.010687 -0.002057 0.000000 0.000000 0.000000
# 3 -0.001667 -0.002057 0.013579 0.000000 0.000000 0.000000
# 4 0.000000 0.000000 0.000000 0.070395 0.000000 0.000000
# 5 0.000000 0.000000 0.000000 0.000000 0.050315 0.000000
# 6 0.000000 0.000000 0.000000 0.000000 0.000000 0.051059
#
#
# Mechanical properties :
#
#
# Convention : Reuss Voigt Hill
#
# Bulk Modulus (GPa) = 29.63586 45.77576 37.70581
# Shear Modulus (GPa) = 18.15799 22.67697 20.41748
#
# Velocity S-wave (km/s) = 3.20997 3.58723 3.40383
# Velocity P-wave (km/s) = 5.52772 6.56761 6.06997
#
# Compressibility (1/GPa) = 0.03374291
#
# Stress axis : x y z
#
# Youngs Moduli (GPa) = 25.78841 93.57063 73.64166
#
# Poissons Ratio (x) = 1.02233 0.12279
# Poissons Ratio (y) = 0.28176 0.15149
# Poissons Ratio (z) = 0.04300 0.19249
#
# Static dielectric constant tensor:
#      x y z
#    x 1.586200 0.000000 0.000000 
#    y 0.000000 1.610560 0.000000 
#    z 0.000000 0.000000 1.598130 
# 
# From -- ./inp_files/54604.got.cif
#   From: 2010.05.17/outbox.cif.g08.bks.cpg/sg65_28_cif.got.tgz:54604.got - 2010.06.03 17:01:31.
