data_PCOD9490012
_publ_section_title
;
Structure prediction by ZEFSAII (Michael W. Deem and Ramdas Pophale) SiO2 
 PCOD9490012
Probable space group: C M M M
;
_chemical_formula_sum "Si O2"
_cell_formula_units_Z 96
_cell_length_a 23.961201
_cell_length_b 25.756388
_cell_length_c 9.085298
_cell_angle_alpha 90.000000
_cell_angle_beta 90.000000
_cell_angle_gamma 90.000000
_cell_volume 5607.027910
_symmetry_space_group_name_H-M "C M M M"
_symmetry_group_IT_number 65
_symmetry_cell_setting 'orthorhombic'
loop_
_space_group_symop_operation_xyz
x,y,z
-x,-y,z
x,-y,-z
-x,y,-z
-x,-y,-z
x,y,-z
-x,y,z
x,-y,z
1/2+x,1/2+y,z
1/2-x,1/2-y,z
1/2+x,1/2-y,-z
1/2-x,1/2+y,-z
1/2-x,1/2-y,-z
1/2+x,1/2+y,-z
1/2-x,1/2+y,z
1/2+x,1/2-y,z
loop_
_atom_site_type_symbol
_atom_site_label
_atom_site_fract_x
_atom_site_fract_y
_atom_site_fract_z
Si Si1 0.566148 0.744790 0.174810
Si Si2 0.064297 0.440174 0.677150
Si Si3 0.368328 0.651639 0.324648
Si Si4 0.255319 0.688648 0.176661
Si Si5 0.435067 0.561144 0.824353
Si Si6 0.132519 0.349539 0.176410
O O1 0.500000 0.749052 0.196682
O O2 0.592000 0.697635 0.265074
O O3 0.596854 0.798270 0.215413
O O4 0.576463 0.735632 0.000000
O O5 0.067108 0.437045 0.500000
O O6 0.075954 0.500000 0.718741
O O7 0.105998 0.399417 0.747898
O O8 0.000000 0.428462 0.720201
O O9 0.366842 0.651357 0.500000
O O10 0.307406 0.663609 0.258897
O O11 0.393918 0.598303 0.262916
O O12 0.250000 0.750000 0.211281
O O13 0.196836 0.661401 0.214428
O O14 0.263928 0.684911 0.000000
O O15 0.500000 0.573089 0.788640
O O16 0.426063 0.500000 0.795484
O O17 0.428400 0.569448 0.000000
O O18 0.129024 0.355354 0.000000
#
# Coordination Sequence:
#
# PCOD9490012 Si02
#       6
#    16  16  16  16  16  16
#     4  10  20  35  55  79 110 145 181 224 275 331
#     4   9  19  36  56  79 112 152 183 212 266 335
#     4  12  24  35  53  83 117 147 182 226 276 334
#     4  10  20  39  61  77 104 148 192 231 275 325
#     4   9  19  38  63  86 109 144 189 232 276 328
#     4  10  20  35  58  84 105 135 185 237 276 314
#
# _framework density 17.121369000000001
#
# number of rings (size 3 to 8) (size 9 to 14) (size 15 to 20)
#    0.000    2.000    1.667    3.500    0.000    6.000 
#    0.000    2.500    0.000    1.000    0.000    0.000 
#    0.000    0.000    0.000    0.000    0.000    0.000 
#
# Total GULP energy -268053.391202 kJ/mol
# GULP energy per Si atom -5584.445650 kJ/mol
# Density = 1.708240 g / cm^3
# Si number density = 17.121369 Si / 1000 Ang^3
#
#
#
# Elastic Constant Matrix: (Units=GPa)
#
#
# Indices 1 2 3 4 5 6 
#
# 1 150.0655 96.9346 76.6728 0.0000 0.0000 0.0000
# 2 96.9346 117.2464 65.1585 0.0000 0.0000 0.0000
# 3 76.6728 65.1585 59.4534 0.0000 0.0000 0.0000
# 4 0.0000 0.0000 0.0000 341.3118 0.0000 0.0000
# 5 0.0000 0.0000 0.0000 0.0000 18.5977 0.0000
# 6 0.0000 0.0000 0.0000 0.0000 0.0000 13.8780
#
#
#
# Elastic Compliance Matrix: (Units=1/GPa)
#
#
# Indices 1 2 3 4 5 6 
#
# 1 0.021029 -0.005921 -0.020631 0.000000 0.000000 0.000000
# 2 -0.005921 0.023484 -0.018102 0.000000 0.000000 0.000000
# 3 -0.020631 -0.018102 0.063266 0.000000 0.000000 0.000000
# 4 0.000000 0.000000 0.000000 0.002930 0.000000 0.000000
# 5 0.000000 0.000000 0.000000 0.000000 0.053770 0.000000
# 6 0.000000 0.000000 0.000000 0.000000 0.000000 0.072057
#
#
# Mechanical properties :
#
#
# Convention : Reuss Voigt Hill
#
# Bulk Modulus (GPa) = 54.13875 89.36636 71.75255
# Shear Modulus (GPa) = 15.06022 80.62413 47.84218
#
# Velocity S-wave (km/s) = 2.96905 6.86964 5.29185
# Velocity P-wave (km/s) = 6.59112 10.73461 8.90715
#
# Compressibility (1/GPa) = 0.01847106
#
# Stress axis : x y z
#
# Youngs Moduli (GPa) = 47.55304 42.58209 15.80634
#
# Poissons Ratio (x) = 0.25211 0.32610
# Poissons Ratio (y) = 0.28154 0.28613
# Poissons Ratio (z) = 0.98107 0.77083
#
# Static dielectric constant tensor:
#      x y z
#    x 1.564280 0.000000 0.000000 
#    y 0.000000 1.558520 0.000000 
#    z 0.000000 0.000000 1.566500 
# 
# From -- ./inp_files/14285.got.cif
#   From: 2010.05.17/outbox.cif.g08.bks.cpg/sg65_8_cif.got.tgz:14285.got - 2010.06.03 17:01:31.
