data_PCOD9490201
_publ_section_title
;
Structure prediction by ZEFSAII (Michael W. Deem and Ramdas Pophale) SiO2 
 PCOD9490201
Probable space group: C M M M
;
_chemical_formula_sum "Si O2"
_cell_formula_units_Z 96
_cell_length_a 17.638804
_cell_length_b 11.602941
_cell_length_c 26.676934
_cell_angle_alpha 90.000000
_cell_angle_beta 90.000000
_cell_angle_gamma 90.000000
_cell_volume 5459.754723
_symmetry_space_group_name_H-M "C M M M"
_symmetry_group_IT_number 65
_symmetry_cell_setting 'orthorhombic'
loop_
_space_group_symop_operation_xyz
x,y,z
-x,-y,z
x,-y,-z
-x,y,-z
-x,-y,-z
x,y,-z
-x,y,z
x,-y,z
1/2+x,1/2+y,z
1/2-x,1/2-y,z
1/2+x,1/2-y,-z
1/2-x,1/2+y,-z
1/2-x,1/2-y,-z
1/2+x,1/2+y,-z
1/2-x,1/2+y,z
1/2+x,1/2-y,z
loop_
_atom_site_type_symbol
_atom_site_label
_atom_site_fract_x
_atom_site_fract_y
_atom_site_fract_z
Si Si1 0.586817 0.636695 0.350374
Si Si2 0.908090 0.500000 0.410469
Si Si3 0.092689 0.257487 0.249456
Si Si4 0.159245 0.742244 0.444537
Si Si5 0.908252 0.500000 0.292050
Si Si6 0.911739 0.866526 0.150229
Si Si7 0.700211 0.367199 0.057872
O O1 0.500000 0.680519 0.354552
O O2 0.586263 0.500000 0.349935
O O3 0.616784 0.681402 0.297105
O O4 0.629856 0.682702 0.398495
O O5 0.872086 0.386319 0.434834
O O6 0.888456 0.500000 0.350921
O O7 0.000000 0.500000 0.415385
O O8 0.117006 0.386020 0.263321
O O9 0.118503 0.210850 0.195879
O O10 0.000000 0.252591 0.247690
O O11 0.133113 0.780532 0.500000
O O12 0.250000 0.750000 0.444119
O O13 0.000000 0.500000 0.291267
O O14 0.864910 0.857025 0.099353
O O15 0.000000 0.838220 0.141126
O O16 0.908684 0.000000 0.167130
O O17 0.733329 0.500000 0.064497
O O18 0.750000 0.250000 0.063909
O O19 0.673398 0.364581 0.000000
#
# Coordination Sequence:
#
# PCOD9490201 Si02
#       7
#    16   8  16  16   8  16  16
#     4  10  20  35  57  80 103 136 177 218 263 324
#     4  11  21  40  67  88 105 139 194 238 266 326
#     4   9  16  30  51  78 108 137 172 219 272 321
#     4  11  25  40  56  79 111 143 174 221 283 336
#     4   9  16  29  54  81 105 133 175 227 269 310
#     4   9  17  30  52  81 110 139 176 224 273 323
#     4   9  18  34  55  77 106 146 188 227 270 320
#
# _framework density 17.583207999999999
#
# number of rings (size 3 to 8) (size 9 to 14) (size 15 to 20)
#    0.000    2.333    1.667    1.250    1.167    4.333 
#    1.500    3.333    0.000    0.000    0.000    2.333 
#    0.000    0.000    0.000    0.000    0.000    0.000 
#
# Total GULP energy -267404.409425 kJ/mol
# GULP energy per Si atom -5570.925196 kJ/mol
# Density = 1.754319 g / cm^3
# Si number density = 17.583208 Si / 1000 Ang^3
#
#
#
# Elastic Constant Matrix: (Units=GPa)
#
#
# Indices 1 2 3 4 5 6 
#
# 1 35.9240 32.9005 41.9660 0.0000 0.0000 0.0000
# 2 32.9005 87.3390 59.5359 0.0000 0.0000 0.0000
# 3 41.9660 59.5359 135.2585 0.0000 0.0000 0.0000
# 4 0.0000 0.0000 0.0000 103.6931 0.0000 0.0000
# 5 0.0000 0.0000 0.0000 0.0000 145.0363 0.0000
# 6 0.0000 0.0000 0.0000 0.0000 0.0000 17.7890
#
#
#
# Elastic Compliance Matrix: (Units=1/GPa)
#
#
# Indices 1 2 3 4 5 6 
#
# 1 0.051287 -0.012105 -0.010585 0.000000 0.000000 0.000000
# 2 -0.012105 0.019215 -0.004702 0.000000 0.000000 0.000000
# 3 -0.010585 -0.004702 0.012747 0.000000 0.000000 0.000000
# 4 0.000000 0.000000 0.000000 0.009644 0.000000 0.000000
# 5 0.000000 0.000000 0.000000 0.000000 0.006895 0.000000
# 6 0.000000 0.000000 0.000000 0.000000 0.000000 0.056215
#
#
# Mechanical properties :
#
#
# Convention : Reuss Voigt Hill
#
# Bulk Modulus (GPa) = 35.12924 58.59180 46.86052
# Shear Modulus (GPa) = 22.69912 61.57829 42.13871
#
# Velocity S-wave (km/s) = 3.59688 5.92428 4.90075
# Velocity P-wave (km/s) = 6.10511 8.95495 7.66366
#
# Compressibility (1/GPa) = 0.02846631
#
# Stress axis : x y z
#
# Youngs Moduli (GPa) = 19.49806 52.04384 78.45054
#
# Poissons Ratio (x) = 0.62997 0.83037
# Poissons Ratio (y) = 0.23602 0.36887
# Poissons Ratio (z) = 0.20638 0.24471
#
# Static dielectric constant tensor:
#      x y z
#    x 1.602510 0.000000 0.000000 
#    y 0.000000 1.617920 0.000000 
#    z 0.000000 0.000000 1.584910 
# 
# From -- ./inp_files/70505.got.cif
#   From: 2010.05.17/outbox.cif.g08.bks.cpg/sg65_36_cif.got.tgz:70505.got - 2010.06.03 17:01:31.
