data_PCOD9490590
_publ_section_title
;
Structure prediction by ZEFSAII (Michael W. Deem and Ramdas Pophale) SiO2 
 PCOD9490590
Probable space group: C M M M
;
_chemical_formula_sum "Si O2"
_cell_formula_units_Z 104
_cell_length_a 27.311161
_cell_length_b 22.114817
_cell_length_c 9.015546
_cell_angle_alpha 90.000000
_cell_angle_beta 90.000000
_cell_angle_gamma 90.000000
_cell_volume 5445.221442
_symmetry_space_group_name_H-M "C M M M"
_symmetry_group_IT_number 65
_symmetry_cell_setting 'orthorhombic'
loop_
_space_group_symop_operation_xyz
x,y,z
-x,-y,z
x,-y,-z
-x,y,-z
-x,-y,-z
x,y,-z
-x,y,z
x,-y,z
1/2+x,1/2+y,z
1/2-x,1/2-y,z
1/2+x,1/2-y,-z
1/2-x,1/2+y,-z
1/2-x,1/2-y,-z
1/2+x,1/2+y,-z
1/2-x,1/2+y,z
1/2+x,1/2-y,z
loop_
_atom_site_type_symbol
_atom_site_label
_atom_site_fract_x
_atom_site_fract_y
_atom_site_fract_z
Si Si1 0.557130 0.344402 0.677698
Si Si2 0.058806 0.378603 0.668655
Si Si3 0.711002 0.195898 0.322604
Si Si4 0.559822 0.000000 0.828640
Si Si5 0.368377 0.428085 0.168844
Si Si6 0.391184 0.229945 0.824706
Si Si7 0.235997 0.929602 0.678716
O O1 0.559520 0.343446 0.500000
O O2 0.500000 0.343033 0.721295
O O3 0.586238 0.401093 0.742456
O O4 0.586203 0.287611 0.743132
O O5 0.076973 0.369852 0.500000
O O6 0.076215 0.441290 0.739035
O O7 0.075024 0.325711 0.775955
O O8 0.000000 0.380440 0.662022
O O9 0.701583 0.195309 0.500000
O O10 0.750000 0.250000 0.295669
O O11 0.662388 0.213785 0.235493
O O12 0.729751 0.128000 0.281774
O O13 0.500000 0.000000 0.829578
O O14 0.575531 0.000000 0.000000
O O15 0.373016 0.500000 0.163281
O O16 0.316874 0.415730 0.249772
O O17 0.367350 0.404348 0.000000
O O18 0.390911 0.238817 0.000000
O O19 0.231661 0.929151 0.500000
O O20 0.249756 0.000000 0.720467
#
# Coordination Sequence:
#
# PCOD9490590 Si02
#       7
#    16  16  16   8  16  16  16
#     4  11  24  41  61  85 116 156 201 248 295 349
#     4  10  20  36  58  82 111 150 194 236 281 339
#     4  10  21  38  60  84 113 151 196 244 293 353
#     4   9  17  31  53  81 111 143 183 231 281 331
#     4  10  21  37  60  91 125 159 193 235 291 353
#     4  12  25  39  58  85 116 151 191 241 300 354
#     4   9  18  35  60  88 118 155 199 245 294 351
#
# _framework density 19.099315000000001
#
# number of rings (size 3 to 8) (size 9 to 14) (size 15 to 20)
#    0.000    1.769    0.000    4.385    0.000    8.308 
#    1.385    1.538    0.000    0.000    0.000    0.000 
#    0.000    0.000    0.000    0.000    0.000    0.000 
#
# Total GULP energy -290329.669432 kJ/mol
# GULP energy per Si atom -5583.262874 kJ/mol
# Density = 1.905584 g / cm^3
# Si number density = 19.099315 Si / 1000 Ang^3
#
#
#
# Elastic Constant Matrix: (Units=GPa)
#
#
# Indices 1 2 3 4 5 6 
#
# 1 126.8538 75.2616 86.7704 0.0000 0.0000 0.0000
# 2 75.2616 95.0252 58.7354 0.0000 0.0000 0.0000
# 3 86.7704 58.7354 95.9277 0.0000 0.0000 0.0000
# 4 0.0000 0.0000 0.0000 24.5331 0.0000 0.0000
# 5 0.0000 0.0000 0.0000 0.0000 2.4559 0.0000
# 6 0.0000 0.0000 0.0000 0.0000 0.0000 22.6355
#
#
#
# Elastic Compliance Matrix: (Units=1/GPa)
#
#
# Indices 1 2 3 4 5 6 
#
# 1 0.024955 -0.009352 -0.016847 0.000000 0.000000 0.000000
# 2 -0.009352 0.020436 -0.004054 0.000000 0.000000 0.000000
# 3 -0.016847 -0.004054 0.028145 0.000000 0.000000 0.000000
# 4 0.000000 0.000000 0.000000 0.040761 0.000000 0.000000
# 5 0.000000 0.000000 0.000000 0.000000 0.407189 0.000000
# 6 0.000000 0.000000 0.000000 0.000000 0.000000 0.044178
#
#
# Mechanical properties :
#
#
# Convention : Reuss Voigt Hill
#
# Bulk Modulus (GPa) = 76.73654 84.37129 80.55392
# Shear Modulus (GPa) = 7.93005 16.39418 12.16211
#
# Velocity S-wave (km/s) = 2.03986 2.93296 2.52619
# Velocity P-wave (km/s) = 6.76852 7.46597 7.12578
#
# Compressibility (1/GPa) = 0.01303160
#
# Stress axis : x y z
#
# Youngs Moduli (GPa) = 40.07230 48.93381 35.53017
#
# Poissons Ratio (x) = 0.45761 0.59857
# Poissons Ratio (y) = 0.37474 0.14403
# Poissons Ratio (z) = 0.67509 0.19836
#
# Static dielectric constant tensor:
#      x y z
#    x 1.639160 0.000000 0.000000 
#    y 0.000000 0.633020 0.000000 
#    z 0.000000 0.000000 1.627430 
# 
# From -- ./inp_files/16499.got.cif
#   From: 2010.05.17/outbox.cif.g08.bks.cpg/sg65_9_cif.got.tgz:16499.got - 2010.06.03 17:01:31.
