data_PCOD9490044
_publ_section_title
;
Structure prediction by ZEFSAII (Michael W. Deem and Ramdas Pophale) SiO2 
 PCOD9490044
Probable space group: C M M M
;
_chemical_formula_sum "Si O2"
_cell_formula_units_Z 80
_cell_length_a 17.764192
_cell_length_b 11.221201
_cell_length_c 23.575179
_cell_angle_alpha 90.000000
_cell_angle_beta 90.000000
_cell_angle_gamma 90.000000
_cell_volume 4699.371721
_symmetry_space_group_name_H-M "C M M M"
_symmetry_group_IT_number 65
_symmetry_cell_setting 'orthorhombic'
loop_
_space_group_symop_operation_xyz
x,y,z
-x,-y,z
x,-y,-z
-x,y,-z
-x,-y,-z
x,y,-z
-x,y,z
x,-y,z
1/2+x,1/2+y,z
1/2-x,1/2-y,z
1/2+x,1/2-y,-z
1/2-x,1/2+y,-z
1/2-x,1/2-y,-z
1/2+x,1/2+y,-z
1/2-x,1/2+y,z
1/2+x,1/2-y,z
loop_
_atom_site_type_symbol
_atom_site_label
_atom_site_fract_x
_atom_site_fract_y
_atom_site_fract_z
Si Si1 0.160123 0.744275 0.391353
Si Si2 0.587028 0.360110 0.718254
Si Si3 0.085611 0.855974 0.936138
Si Si4 0.415058 0.359213 0.500000
Si Si5 0.910368 0.500000 0.568109
Si Si6 0.810194 0.857013 0.170518
O O1 0.250000 0.750000 0.389970
O O2 0.126280 0.789625 0.332365
O O3 0.128510 0.820868 0.443797
O O4 0.129121 0.613890 0.404958
O O5 0.500000 0.323837 0.725134
O O6 0.587858 0.500000 0.702669
O O7 0.632498 0.348836 0.776670
O O8 0.144569 0.827920 0.887255
O O9 0.000000 0.815385 0.923342
O O10 0.082774 0.000000 0.937624
O O11 0.105527 0.815359 0.000000
O O12 0.421590 0.500000 0.500000
O O13 0.500000 0.305705 0.500000
O O14 0.899122 0.500000 0.500000
O O15 0.000000 0.500000 0.578503
O O16 0.750000 0.750000 0.177838
O O17 0.785694 0.000000 0.168295
#
# Coordination Sequence:
#
# PCOD9490044 Si02
#       6
#    16  16  16   8   8  16
#     4  12  25  38  60  85 115 142 182 231 279 334
#     4  10  21  39  61  80 105 141 186 232 280 333
#     4   8  14  27  51  82 112 146 193 240 276 319
#     4  11  23  39  61  83 109 141 181 227 275 325
#     4  11  24  42  62  82 116 156 185 217 279 356
#     4  10  20  35  55  82 115 148 185 230 284 335
#
# _framework density 17.023551999999999
#
# number of rings (size 3 to 8) (size 9 to 14) (size 15 to 20)
#    0.000    1.800    1.000    4.500    2.800    4.400 
#    1.800    0.000    0.000    1.800    0.000    1.400 
#    0.000    0.000    0.000    0.000    0.000    0.000 
#
# Total GULP energy -223082.607441 kJ/mol
# GULP energy per Si atom -5577.065186 kJ/mol
# Density = 1.698481 g / cm^3
# Si number density = 17.023552 Si / 1000 Ang^3
#
#
#
# Elastic Constant Matrix: (Units=GPa)
#
#
# Indices 1 2 3 4 5 6 
#
# 1 153.0961 71.2455 72.2342 0.0000 0.0000 0.0000
# 2 71.2455 90.8161 52.4055 0.0000 0.0000 0.0000
# 3 72.2342 52.4055 112.5981 0.0000 0.0000 0.0000
# 4 0.0000 0.0000 0.0000 43.5439 0.0000 0.0000
# 5 0.0000 0.0000 0.0000 0.0000 22.2283 0.0000
# 6 0.0000 0.0000 0.0000 0.0000 0.0000 29.4827
#
#
#
# Elastic Compliance Matrix: (Units=1/GPa)
#
#
# Indices 1 2 3 4 5 6 
#
# 1 0.011704 -0.006629 -0.004423 0.000000 0.000000 0.000000
# 2 -0.006629 0.018810 -0.004501 0.000000 0.000000 0.000000
# 3 -0.004423 -0.004501 0.013813 0.000000 0.000000 0.000000
# 4 0.000000 0.000000 0.000000 0.022965 0.000000 0.000000
# 5 0.000000 0.000000 0.000000 0.000000 0.044988 0.000000
# 6 0.000000 0.000000 0.000000 0.000000 0.000000 0.033918
#
#
# Mechanical properties :
#
#
# Convention : Reuss Voigt Hill
#
# Bulk Modulus (GPa) = 75.64524 83.14229 79.39376
# Shear Modulus (GPa) = 27.51608 29.75930 28.63769
#
# Velocity S-wave (km/s) = 4.02475 4.18559 4.10596
# Velocity P-wave (km/s) = 8.13205 8.50321 8.31970
#
# Compressibility (1/GPa) = 0.01321960
#
# Stress axis : x y z
#
# Youngs Moduli (GPa) = 85.44327 53.16411 72.39306
#
# Poissons Ratio (x) = 0.35245 0.32017
# Poissons Ratio (y) = 0.56644 0.32588
# Poissons Ratio (z) = 0.37789 0.23932
#
# Static dielectric constant tensor:
#      x y z
#    x 1.572530 0.000000 0.000000 
#    y 0.000000 1.543100 0.000000 
#    z 0.000000 0.000000 1.564090 
# 
# From -- ./inp_files/63515.got.cif
#   From: 2010.05.17/outbox.cif.g08.bks.cpg/sg65_32_cif.got.tgz:63515.got - 2010.06.03 17:01:31.
