data_PCOD9490682
_publ_section_title
;
Structure prediction by ZEFSAII (Michael W. Deem and Ramdas Pophale) SiO2 
 PCOD9490682
Probable space group: C M M M
;
_chemical_formula_sum "Si O2"
_cell_formula_units_Z 56
_cell_length_a 19.802519
_cell_length_b 16.102308
_cell_length_c 7.466683
_cell_angle_alpha 90.000000
_cell_angle_beta 90.000000
_cell_angle_gamma 90.000000
_cell_volume 2380.873284
_symmetry_space_group_name_H-M "C M M M"
_symmetry_group_IT_number 65
_symmetry_cell_setting 'orthorhombic'
loop_
_space_group_symop_operation_xyz
x,y,z
-x,-y,z
x,-y,-z
-x,y,-z
-x,-y,-z
x,y,-z
-x,y,z
x,-y,z
1/2+x,1/2+y,z
1/2-x,1/2-y,z
1/2+x,1/2-y,-z
1/2-x,1/2+y,-z
1/2-x,1/2-y,-z
1/2+x,1/2+y,-z
1/2-x,1/2+y,z
1/2+x,1/2-y,z
loop_
_atom_site_type_symbol
_atom_site_label
_atom_site_fract_x
_atom_site_fract_y
_atom_site_fract_z
Si Si1 0.216056 0.500000 0.796493
Si Si2 0.145712 0.334778 0.215600
Si Si3 0.423962 0.320479 0.785803
Si Si4 0.500000 0.092429 0.784357
Si Si5 0.631629 0.500000 0.290615
O O1 0.191497 0.588582 0.717075
O O2 0.296126 0.500000 0.803279
O O3 0.186890 0.500000 0.000000
O O4 0.137807 0.239060 0.278590
O O5 0.069752 0.364355 0.258582
O O6 0.158783 0.330607 0.000000
O O7 0.500000 0.302400 0.716557
O O8 0.408058 0.416342 0.754051
O O9 0.427152 0.306868 0.000000
O O10 0.500000 0.000000 0.711344
O O11 0.500000 0.088270 0.000000
O O12 0.645919 0.500000 0.500000
#
# Coordination Sequence:
#
# PCOD9490682 Si02
#       5
#     8  16  16   8   8
#     4  10  20  36  59  88 120 152 184 219 270 339
#     4   9  16  28  54  91 122 143 170 220 283 341
#     4  10  20  37  63  91 114 139 180 236 290 336
#     4   9  12  20  44  85 126 145 161 208 280 341
#     4  12  27  43  55  72 109 159 204 241 276 320
#
# _framework density 23.520783000000002
#
# number of rings (size 3 to 8) (size 9 to 14) (size 15 to 20)
#    0.000    2.143    2.857    1.714    0.000    3.429 
#    0.000    7.143    0.000    0.000    0.000    1.000 
#    0.000    0.000    0.000    0.000    0.000    0.000 
#
# Total GULP energy -156085.146321 kJ/mol
# GULP energy per Si atom -5574.469511 kJ/mol
# Density = 2.346725 g / cm^3
# Si number density = 23.520783 Si / 1000 Ang^3
#
#
#
# Elastic Constant Matrix: (Units=GPa)
#
#
# Indices 1 2 3 4 5 6 
#
# 1 63.7554 33.0139 -2.0051 0.0000 0.0000 0.0000
# 2 33.0139 190.0598 2.6195 0.0000 0.0000 0.0000
# 3 -2.0051 2.6195 67.3315 0.0000 0.0000 0.0000
# 4 0.0000 0.0000 0.0000 -229.6349 0.0000 0.0000
# 5 0.0000 0.0000 0.0000 0.0000 97.3894 0.0000
# 6 0.0000 0.0000 0.0000 0.0000 0.0000 34.7354
#
#
#
# Elastic Compliance Matrix: (Units=1/GPa)
#
#
# Indices 1 2 3 4 5 6 
#
# 1 0.017262 -0.003007 0.000631 0.000000 0.000000 0.000000
# 2 -0.003007 0.005788 -0.000315 0.000000 0.000000 0.000000
# 3 0.000631 -0.000315 0.014883 0.000000 0.000000 0.000000
# 4 0.000000 0.000000 0.000000 -0.004355 0.000000 0.000000
# 5 0.000000 0.000000 0.000000 0.000000 0.010268 0.000000
# 6 0.000000 0.000000 0.000000 0.000000 0.000000 0.028789
#
#
# Mechanical properties :
#
#
# Convention : Reuss Voigt Hill
#
# Bulk Modulus (GPa) = 30.72064 43.15591 36.93828
# Shear Modulus (GPa) = 56.26350 -0.33412 27.96469
#
# Velocity S-wave (km/s) = 4.89619 -0.37731 3.45184
# Velocity P-wave (km/s) = 6.71215 4.26591 5.62366
#
# Compressibility (1/GPa) = 0.03255140
#
# Stress axis : x y z
#
# Youngs Moduli (GPa) = 57.93087 172.76557 67.19111
#
# Poissons Ratio (x) = 0.51953 -0.04240
# Poissons Ratio (y) = 0.17421 0.02115
# Poissons Ratio (z) = -0.03656 0.05438
#
# Static dielectric constant tensor:
#      x y z
#    x 1.733640 0.000000 0.000000 
#    y 0.000000 1.979730 0.000000 
#    z 0.000000 0.000000 1.953610 
# 
# From -- ./inp_files/8541.got.cif
#   From: 2010.05.17/outbox.cif.g08.bks.cpg/sg65_5_cif.got.tgz:8541.got - 2010.06.03 17:01:31.
