data_PCOD9490034
_publ_section_title
;
Structure prediction by ZEFSAII (Michael W. Deem and Ramdas Pophale) SiO2 
 PCOD9490034
Probable space group: C M M M
;
_chemical_formula_sum "Si O2"
_cell_formula_units_Z 104
_cell_length_a 33.346772
_cell_length_b 8.702250
_cell_length_c 21.012439
_cell_angle_alpha 90.000000
_cell_angle_beta 90.000000
_cell_angle_gamma 90.000000
_cell_volume 6097.640577
_symmetry_space_group_name_H-M "C M M M"
_symmetry_group_IT_number 65
_symmetry_cell_setting 'orthorhombic'
loop_
_space_group_symop_operation_xyz
x,y,z
-x,-y,z
x,-y,-z
-x,y,-z
-x,-y,-z
x,y,-z
-x,y,z
x,-y,z
1/2+x,1/2+y,z
1/2-x,1/2-y,z
1/2+x,1/2-y,-z
1/2-x,1/2+y,-z
1/2-x,1/2-y,-z
1/2+x,1/2+y,-z
1/2-x,1/2+y,z
1/2+x,1/2-y,z
loop_
_atom_site_type_symbol
_atom_site_label
_atom_site_fract_x
_atom_site_fract_y
_atom_site_fract_z
Si Si1 0.795225 0.815995 0.000000
Si Si2 0.372121 0.317600 0.323654
Si Si3 0.000000 0.180525 0.647899
Si Si4 0.663162 0.183605 0.125537
Si Si5 0.000000 0.682698 0.211025
Si Si6 0.706961 0.316550 0.248554
Si Si7 0.414530 0.684183 0.810453
Si Si8 0.925336 0.681529 0.425814
O O1 0.750000 0.750000 0.000000
O O2 0.818817 0.756636 0.938056
O O3 0.793339 0.000000 0.000000
O O4 0.376736 0.500000 0.335544
O O5 0.326824 0.287275 0.301676
O O6 0.399484 0.279866 0.261728
O O7 0.386703 0.223798 0.384121
O O8 0.000000 0.270579 0.714432
O O9 0.038571 0.225974 0.606725
O O10 0.000000 0.000000 0.662688
O O11 0.691027 0.238008 0.184128
O O12 0.618616 0.243494 0.142927
O O13 0.663242 0.000000 0.121042
O O14 0.040800 0.751922 0.181985
O O15 0.000000 0.500000 0.204943
O O16 0.708752 0.500000 0.238298
O O17 0.750000 0.250000 0.265460
O O18 0.413872 0.500000 0.816815
O O19 0.921170 0.720641 0.500000
O O20 0.933957 0.500000 0.420996
#
# Coordination Sequence:
#
# PCOD9490034 Si02
#       8
#     8  16   8  16   8  16  16  16
#     4  12  24  40  60  85 118 155 190 228 274 326
#     4   9  19  34  53  75 103 137 176 219 269 326
#     4  12  23  35  52  75 105 143 181 222 269 327
#     4  11  22  37  57  84 116 150 186 224 270 324
#     4  12  22  33  55  83 111 145 183 230 277 320
#     4  10  20  35  55  81 110 139 176 222 272 326
#     4  10  20  36  56  81 111 145 184 228 274 322
#     4  11  23  36  51  74 105 139 178 224 273 328
#
# _framework density 17.055776999999999
#
# number of rings (size 3 to 8) (size 9 to 14) (size 15 to 20)
#    0.000    1.385    1.538    6.462    0.000    5.231 
#    0.000    0.000    0.000    0.923    0.000    3.231 
#    0.000    0.000    0.000    0.000    0.000    0.000 
#
# Total GULP energy -290584.600833 kJ/mol
# GULP energy per Si atom -5588.165401 kJ/mol
# Density = 1.701696 g / cm^3
# Si number density = 17.055777 Si / 1000 Ang^3
#
#
#
# Elastic Constant Matrix: (Units=GPa)
#
#
# Indices 1 2 3 4 5 6 
#
# 1 139.1245 54.0275 41.6084 0.0000 0.0000 0.0000
# 2 54.0275 104.1765 37.5870 0.0000 0.0000 0.0000
# 3 41.6084 37.5870 75.3836 0.0000 0.0000 0.0000
# 4 0.0000 0.0000 0.0000 27.5493 0.0000 0.0000
# 5 0.0000 0.0000 0.0000 0.0000 16.6669 0.0000
# 6 0.0000 0.0000 0.0000 0.0000 0.0000 33.7564
#
#
#
# Elastic Compliance Matrix: (Units=1/GPa)
#
#
# Indices 1 2 3 4 5 6 
#
# 1 0.009690 -0.003775 -0.003467 0.000000 0.000000 0.000000
# 2 -0.003775 0.013175 -0.004486 0.000000 0.000000 0.000000
# 3 -0.003467 -0.004486 0.017415 0.000000 0.000000 0.000000
# 4 0.000000 0.000000 0.000000 0.036299 0.000000 0.000000
# 5 0.000000 0.000000 0.000000 0.000000 0.059999 0.000000
# 6 0.000000 0.000000 0.000000 0.000000 0.000000 0.029624
#
#
# Mechanical properties :
#
#
# Convention : Reuss Voigt Hill
#
# Bulk Modulus (GPa) = 59.42858 65.01450 62.22154
# Shear Modulus (GPa) = 25.60605 27.95862 26.78233
#
# Velocity S-wave (km/s) = 3.87888 4.05315 3.96697
# Velocity P-wave (km/s) = 7.41487 7.75278 7.58570
#
# Compressibility (1/GPa) = 0.01682692
#
# Stress axis : x y z
#
# Youngs Moduli (GPa) = 103.19387 75.89969 57.42013
#
# Poissons Ratio (x) = 0.28651 0.19905
# Poissons Ratio (y) = 0.38955 0.25757
# Poissons Ratio (z) = 0.35772 0.34047
#
# Static dielectric constant tensor:
#      x y z
#    x 1.582840 0.000000 0.000000 
#    y 0.000000 1.570070 0.000000 
#    z 0.000000 0.000000 1.549580 
# 
# From -- ./inp_files/66435.got.cif
#   From: 2010.05.17/outbox.cif.g08.bks.cpg/sg65_34_cif.got.tgz:66435.got - 2010.06.03 17:01:31.
