data_PCOD9490877
_publ_section_title
;
Structure prediction by ZEFSAII (Michael W. Deem and Ramdas Pophale) SiO2 
 PCOD9490877
Probable space group: C M M M
;
_chemical_formula_sum "Si O2"
_cell_formula_units_Z 64
_cell_length_a 22.907920
_cell_length_b 17.223487
_cell_length_c 7.959964
_cell_angle_alpha 90.000000
_cell_angle_beta 90.000000
_cell_angle_gamma 90.000000
_cell_volume 3140.637724
_symmetry_space_group_name_H-M "C M M M"
_symmetry_group_IT_number 65
_symmetry_cell_setting 'orthorhombic'
loop_
_space_group_symop_operation_xyz
x,y,z
-x,-y,z
x,-y,-z
-x,y,-z
-x,-y,-z
x,y,-z
-x,y,z
x,-y,z
1/2+x,1/2+y,z
1/2-x,1/2-y,z
1/2+x,1/2-y,-z
1/2-x,1/2+y,-z
1/2-x,1/2-y,-z
1/2+x,1/2+y,-z
1/2-x,1/2+y,z
1/2+x,1/2-y,z
loop_
_atom_site_type_symbol
_atom_site_label
_atom_site_fract_x
_atom_site_fract_y
_atom_site_fract_z
Si Si1 0.232218 0.089963 0.794490
Si Si2 0.000000 0.088184 0.299870
Si Si3 0.357874 0.148665 0.202284
Si Si4 0.883634 0.820426 0.202636
Si Si5 0.933792 0.500000 0.700598
O O1 0.292030 0.130764 0.738417
O O2 0.174080 0.134035 0.738087
O O3 0.232077 0.000000 0.742705
O O4 0.232289 0.090863 0.000000
O O5 0.057819 0.134394 0.248002
O O6 0.000000 0.083309 0.500000
O O7 0.000000 0.000000 0.230891
O O8 0.381251 0.231552 0.264223
O O9 0.399022 0.076639 0.245386
O O10 0.355033 0.152883 0.000000
O O11 0.880774 0.818373 0.000000
O O12 0.936185 0.500000 0.500000
O O13 0.000000 0.500000 0.767324
#
# Coordination Sequence:
#
# PCOD9490877 Si02
#       5
#    16   8  16  16   8
#     4   9  16  31  58  90 120 148 181 233 295 344
#     4  11  25  43  59  80 117 162 199 235 284 341
#     4  10  20  37  61  90 119 148 189 242 296 346
#     4  10  21  36  61  92 117 147 192 244 293 345
#     4  11  25  41  57  81 117 162 201 236 283 341
#
# _framework density 20.378026999999999
#
# number of rings (size 3 to 8) (size 9 to 14) (size 15 to 20)
#    0.000    2.000    1.250    2.250    1.750    7.000 
#    0.000    1.250    0.000    3.000    0.000    0.000 
#    0.000    0.000    0.000    0.000    0.000    0.000 
#
# Total GULP energy -178798.824073 kJ/mol
# GULP energy per Si atom -5587.463252 kJ/mol
# Density = 2.033165 g / cm^3
# Si number density = 20.378027 Si / 1000 Ang^3
#
#
#
# Elastic Constant Matrix: (Units=GPa)
#
#
# Indices 1 2 3 4 5 6 
#
# 1 227.3529 137.4475 10.6818 0.0000 0.0000 0.0000
# 2 137.4475 231.9840 14.4495 0.0000 0.0000 0.0000
# 3 10.6818 14.4495 19.3542 0.0000 0.0000 0.0000
# 4 0.0000 0.0000 0.0000 5.2826 0.0000 0.0000
# 5 0.0000 0.0000 0.0000 0.0000 345.5461 0.0000
# 6 0.0000 0.0000 0.0000 0.0000 0.0000 18.1301
#
#
#
# Elastic Compliance Matrix: (Units=1/GPa)
#
#
# Indices 1 2 3 4 5 6 
#
# 1 0.006865 -0.004018 -0.000789 0.000000 0.000000 0.000000
# 2 -0.004018 0.006873 -0.002913 0.000000 0.000000 0.000000
# 3 -0.000789 -0.002913 0.054279 0.000000 0.000000 0.000000
# 4 0.000000 0.000000 0.000000 0.189300 0.000000 0.000000
# 5 0.000000 0.000000 0.000000 0.000000 0.002894 0.000000
# 6 0.000000 0.000000 0.000000 0.000000 0.000000 0.055157
#
#
# Mechanical properties :
#
#
# Convention : Reuss Voigt Hill
#
# Bulk Modulus (GPa) = 19.02021 89.31649 54.16835
# Shear Modulus (GPa) = 14.35404 94.86590 54.60997
#
# Velocity S-wave (km/s) = 2.65691 6.83038 5.18234
# Velocity P-wave (km/s) = 4.33199 10.30196 7.90242
#
# Compressibility (1/GPa) = 0.05257566
#
# Stress axis : x y z
#
# Youngs Moduli (GPa) = 145.67341 145.50149 18.42332
#
# Poissons Ratio (x) = 0.58464 0.01453
# Poissons Ratio (y) = 0.58533 0.05368
# Poissons Ratio (z) = 0.11491 0.42392
#
# Static dielectric constant tensor:
#      x y z
#    x 1.690430 0.000000 0.000000 
#    y 0.000000 1.715400 0.000000 
#    z 0.000000 0.000000 1.735380 
# 
# From -- ./inp_files/6767.got.cif
#   From: 2010.05.17/outbox.cif.g08.bks.cpg/sg65_4_cif.got.tgz:6767.got - 2010.06.03 17:01:31.
