data_PCOD9490949
_publ_section_title
;
Structure prediction by ZEFSAII (Michael W. Deem and Ramdas Pophale) SiO2 
 PCOD9490949
Probable space group: C M M M
;
_chemical_formula_sum "Si O2"
_cell_formula_units_Z 96
_cell_length_a 26.642628
_cell_length_b 21.092145
_cell_length_c 9.273448
_cell_angle_alpha 90.000000
_cell_angle_beta 90.000000
_cell_angle_gamma 90.000000
_cell_volume 5211.215708
_symmetry_space_group_name_H-M "C M M M"
_symmetry_group_IT_number 65
_symmetry_cell_setting 'orthorhombic'
loop_
_space_group_symop_operation_xyz
x,y,z
-x,-y,z
x,-y,-z
-x,y,-z
-x,-y,-z
x,y,-z
-x,y,z
x,-y,z
1/2+x,1/2+y,z
1/2-x,1/2-y,z
1/2+x,1/2-y,-z
1/2-x,1/2+y,-z
1/2-x,1/2-y,-z
1/2+x,1/2+y,-z
1/2-x,1/2+y,z
1/2+x,1/2-y,z
loop_
_atom_site_type_symbol
_atom_site_label
_atom_site_fract_x
_atom_site_fract_y
_atom_site_fract_z
Si Si1 0.439936 0.875444 0.163973
Si Si2 0.879621 0.723613 0.671537
Si Si3 0.000000 0.926472 0.675256
Si Si4 0.938643 0.500000 0.333971
Si Si5 0.203782 0.072266 0.172859
Si Si6 0.719765 0.816041 0.169117
Si Si7 0.392146 0.627646 0.326687
O O1 0.500000 0.879402 0.158544
O O2 0.424004 0.813379 0.249662
O O3 0.421759 0.937348 0.249966
O O4 0.420936 0.874838 0.000000
O O5 0.882654 0.715912 0.500000
O O6 0.829131 0.692764 0.734264
O O7 0.882270 0.798323 0.704467
O O8 0.948105 0.893024 0.720168
O O9 0.000000 0.925173 0.500000
O O10 0.000000 0.000000 0.720205
O O11 0.922561 0.500000 0.500000
O O12 0.000000 0.500000 0.333850
O O13 0.244905 0.125298 0.213688
O O14 0.151386 0.087878 0.250202
O O15 0.219350 0.000000 0.205175
O O16 0.196889 0.077746 0.000000
O O17 0.750000 0.750000 0.180082
O O18 0.706284 0.824544 0.000000
O O19 0.388884 0.618773 0.500000
#
# Coordination Sequence:
#
# PCOD9490949 Si02
#       7
#    16  16   8   8  16  16  16
#     4  10  21  37  58  83 113 152 196 236 284 349
#     4  11  23  36  56  85 116 150 192 243 293 341
#     4   9  18  34  55  81 115 152 189 228 277 341
#     4   9  17  33  57  83 111 145 185 233 287 336
#     4  10  21  38  61  87 113 145 188 238 294 355
#     4  10  20  38  61  81 109 148 188 233 290 355
#     4  10  21  36  58  85 114 153 195 237 286 345
#
# _framework density 18.421804999999999
#
# number of rings (size 3 to 8) (size 9 to 14) (size 15 to 20)
#    0.000    2.000    1.667    1.750    1.167    4.667 
#    1.500    0.417    0.000    1.500    0.000    0.000 
#    0.000    0.000    0.000    0.000    0.000    0.000 
#
# Total GULP energy -267914.462659 kJ/mol
# GULP energy per Si atom -5581.551305 kJ/mol
# Density = 1.837988 g / cm^3
# Si number density = 18.421805 Si / 1000 Ang^3
#
#
#
# Elastic Constant Matrix: (Units=GPa)
#
#
# Indices 1 2 3 4 5 6 
#
# 1 83.7620 53.2780 27.6644 0.0000 0.0000 0.0000
# 2 53.2780 132.2132 46.1273 0.0000 0.0000 0.0000
# 3 27.6644 46.1273 57.2812 0.0000 0.0000 0.0000
# 4 0.0000 0.0000 0.0000 22.3952 0.0000 0.0000
# 5 0.0000 0.0000 0.0000 0.0000 32.1319 0.0000
# 6 0.0000 0.0000 0.0000 0.0000 0.0000 31.6021
#
#
#
# Elastic Compliance Matrix: (Units=1/GPa)
#
#
# Indices 1 2 3 4 5 6 
#
# 1 0.016586 -0.005408 -0.003655 0.000000 0.000000 0.000000
# 2 -0.005408 0.012282 -0.007279 0.000000 0.000000 0.000000
# 3 -0.003655 -0.007279 0.025084 0.000000 0.000000 0.000000
# 4 0.000000 0.000000 0.000000 0.044652 0.000000 0.000000
# 5 0.000000 0.000000 0.000000 0.000000 0.031122 0.000000
# 6 0.000000 0.000000 0.000000 0.000000 0.000000 0.031644
#
#
# Mechanical properties :
#
#
# Convention : Reuss Voigt Hill
#
# Bulk Modulus (GPa) = 47.01825 58.59953 52.80889
# Shear Modulus (GPa) = 24.85781 26.97161 25.91471
#
# Velocity S-wave (km/s) = 3.67736 3.83052 3.75472
# Velocity P-wave (km/s) = 6.60373 7.17236 6.89391
#
# Compressibility (1/GPa) = 0.02126834
#
# Stress axis : x y z
#
# Youngs Moduli (GPa) = 60.29237 81.41723 39.86553
#
# Poissons Ratio (x) = 0.44034 0.14571
# Poissons Ratio (y) = 0.32609 0.29017
# Poissons Ratio (z) = 0.22037 0.59261
#
# Static dielectric constant tensor:
#      x y z
#    x 1.636310 0.000000 0.000000 
#    y 0.000000 1.627670 0.000000 
#    z 0.000000 0.000000 1.617720 
# 
# From -- ./inp_files/14377.got.cif
#   From: 2010.05.17/outbox.cif.g08.bks.cpg/sg65_8_cif.got.tgz:14377.got - 2010.06.03 17:01:31.
