data_PCOD9490381
_publ_section_title
;
Structure prediction by ZEFSAII (Michael W. Deem and Ramdas Pophale) SiO2 
 PCOD9490381
Probable space group: C M M M
;
_chemical_formula_sum "Si O2"
_cell_formula_units_Z 88
_cell_length_a 21.205746
_cell_length_b 16.067429
_cell_length_c 12.864250
_cell_angle_alpha 90.000000
_cell_angle_beta 90.000000
_cell_angle_gamma 90.000000
_cell_volume 4383.130650
_symmetry_space_group_name_H-M "C M M M"
_symmetry_group_IT_number 65
_symmetry_cell_setting 'orthorhombic'
loop_
_space_group_symop_operation_xyz
x,y,z
-x,-y,z
x,-y,-z
-x,y,-z
-x,-y,-z
x,y,-z
-x,y,z
x,-y,z
1/2+x,1/2+y,z
1/2-x,1/2-y,z
1/2+x,1/2-y,-z
1/2-x,1/2+y,-z
1/2-x,1/2-y,-z
1/2+x,1/2+y,-z
1/2-x,1/2+y,z
1/2+x,1/2-y,z
loop_
_atom_site_type_symbol
_atom_site_label
_atom_site_fract_x
_atom_site_fract_y
_atom_site_fract_z
Si Si1 0.244823 0.597912 0.206178
Si Si2 0.393379 0.404667 0.820445
Si Si3 0.071901 0.500000 0.625790
Si Si4 0.158048 0.341650 0.377110
Si Si5 0.303732 0.178059 0.000000
Si Si6 0.569092 0.719113 0.000000
Si Si7 0.071996 0.819036 0.617882
O O1 0.237003 0.500000 0.227971
O O2 0.318403 0.611770 0.183120
O O3 0.218489 0.648975 0.303968
O O4 0.207377 0.624799 0.103554
O O5 0.403955 0.500000 0.852306
O O6 0.418632 0.387891 0.705148
O O7 0.423797 0.340493 0.900109
O O8 0.068344 0.500000 0.500000
O O9 0.111102 0.582553 0.653180
O O10 0.000000 0.500000 0.665333
O O11 0.173292 0.349428 0.500000
O O12 0.120405 0.256043 0.362006
O O13 0.250000 0.250000 0.000000
O O14 0.372521 0.218394 0.000000
O O15 0.500000 0.758809 0.000000
O O16 0.082178 0.849414 0.500000
O O17 0.000000 0.786952 0.623536
#
# Coordination Sequence:
#
# PCOD9490381 Si02
#       7
#    16  16   8  16   8   8  16
#     4  11  23  40  63  91 124 160 206 249 300 371
#     4  11  24  41  62  89 120 159 203 256 314 365
#     4   9  16  30  54  85 121 163 205 245 300 364
#     4  10  20  35  59  90 124 161 203 255 304 355
#     4  12  23  43  71  89 119 166 204 242 311 376
#     4  12  25  42  67  98 121 148 202 264 308 358
#     4  10  22  39  58  84 121 164 207 250 302 367
#
# _framework density 20.076972999999999
#
# number of rings (size 3 to 8) (size 9 to 14) (size 15 to 20)
#    0.000    1.364    2.727    2.727    0.000    6.545 
#    0.000    5.455    0.000    0.545    0.000    0.000 
#    0.000    0.000    0.000    0.000    0.000    0.000 
#
# Total GULP energy -246015.576299 kJ/mol
# GULP energy per Si atom -5591.263098 kJ/mol
# Density = 2.003128 g / cm^3
# Si number density = 20.076973 Si / 1000 Ang^3
#
#
#
# Elastic Constant Matrix: (Units=GPa)
#
#
# Indices 1 2 3 4 5 6 
#
# 1 94.7529 21.2831 21.2752 0.0000 0.0000 0.0000
# 2 21.2831 22.8710 14.1325 0.0000 0.0000 0.0000
# 3 21.2752 14.1325 74.9110 0.0000 0.0000 0.0000
# 4 0.0000 0.0000 0.0000 23.7279 0.0000 0.0000
# 5 0.0000 0.0000 0.0000 0.0000 29.3110 0.0000
# 6 0.0000 0.0000 0.0000 0.0000 0.0000 3.6087
#
#
#
# Elastic Compliance Matrix: (Units=1/GPa)
#
#
# Indices 1 2 3 4 5 6 
#
# 1 0.013523 -0.011558 -0.001660 0.000000 0.000000 0.000000
# 2 -0.011558 0.059372 -0.007918 0.000000 0.000000 0.000000
# 3 -0.001660 -0.007918 0.015315 0.000000 0.000000 0.000000
# 4 0.000000 0.000000 0.000000 0.042144 0.000000 0.000000
# 5 0.000000 0.000000 0.000000 0.000000 0.034117 0.000000
# 6 0.000000 0.000000 0.000000 0.000000 0.000000 0.277106
#
#
# Mechanical properties :
#
#
# Convention : Reuss Voigt Hill
#
# Bulk Modulus (GPa) = 21.76926 33.99073 27.87999
# Shear Modulus (GPa) = 10.01679 20.38580 15.20130
#
# Velocity S-wave (km/s) = 2.23607 3.18996 2.75462
# Velocity P-wave (km/s) = 4.18726 5.52583 4.90244
#
# Compressibility (1/GPa) = 0.04593634
#
# Stress axis : x y z
#
# Youngs Moduli (GPa) = 73.95010 16.84289 65.29755
#
# Poissons Ratio (x) = 0.19467 0.10839
# Poissons Ratio (y) = 0.85472 0.51706
# Poissons Ratio (z) = 0.12276 0.13337
#
# Static dielectric constant tensor:
#      x y z
#    x 1.719870 0.000000 0.000000 
#    y 0.000000 1.682270 0.000000 
#    z 0.000000 0.000000 1.693580 
# 
# From -- ./inp_files/28790.got.cif
#   From: 2010.05.17/outbox.cif.g08.bks.cpg/sg65_15_cif.got.tgz:28790.got - 2010.06.03 17:01:31.
