data_PCOD9490743
_publ_section_title
;
Structure prediction by ZEFSAII (Michael W. Deem and Ramdas Pophale) SiO2 
 PCOD9490743
Probable space group: C M M M
;
_chemical_formula_sum "Si O2"
_cell_formula_units_Z 88
_cell_length_a 14.513707
_cell_length_b 19.560927
_cell_length_c 13.819712
_cell_angle_alpha 90.000000
_cell_angle_beta 90.000000
_cell_angle_gamma 90.000000
_cell_volume 3923.437839
_symmetry_space_group_name_H-M "C M M M"
_symmetry_group_IT_number 65
_symmetry_cell_setting 'orthorhombic'
loop_
_space_group_symop_operation_xyz
x,y,z
-x,-y,z
x,-y,-z
-x,y,-z
-x,-y,-z
x,y,-z
-x,y,z
x,-y,z
1/2+x,1/2+y,z
1/2-x,1/2-y,z
1/2+x,1/2-y,-z
1/2-x,1/2+y,-z
1/2-x,1/2-y,-z
1/2+x,1/2+y,-z
1/2-x,1/2+y,z
1/2+x,1/2-y,z
loop_
_atom_site_type_symbol
_atom_site_label
_atom_site_fract_x
_atom_site_fract_y
_atom_site_fract_z
Si Si1 0.190340 0.420891 0.296919
Si Si2 0.610948 0.426544 0.114750
Si Si3 0.000000 0.416875 0.388854
Si Si4 0.387777 0.136996 0.886292
Si Si5 0.323375 0.311363 0.390855
Si Si6 0.104639 0.216532 0.190786
O O1 0.201019 0.500000 0.323320
O O2 0.093870 0.392869 0.340766
O O3 0.168375 0.413617 0.182888
O O4 0.270273 0.376978 0.346794
O O5 0.500000 0.426521 0.132276
O O6 0.644625 0.500000 0.155025
O O7 0.646757 0.354482 0.153512
O O8 0.624617 0.427007 0.000000
O O9 0.000000 0.500000 0.381680
O O10 0.000000 0.397194 0.500000
O O11 0.500000 0.129358 0.872760
O O12 0.357198 0.212636 0.850001
O O13 0.369755 0.128555 0.000000
O O14 0.358285 0.323650 0.500000
O O15 0.250000 0.250000 0.395833
O O16 0.392289 0.287830 0.306635
O O17 0.000000 0.217155 0.154628
#
# Coordination Sequence:
#
# PCOD9490743 Si02
#       6
#    16  16   8  16  16  16
#     4  11  22  39  61  89 122 158 202 249 304 365
#     4   8  14  27  51  83 115 148 190 240 289 338
#     4   9  18  34  59  89 117 149 195 248 298 356
#     4  10  20  36  61  92 125 162 201 243 300 368
#     4  11  24  42  61  84 118 158 199 250 309 359
#     4  10  20  37  61  89 120 159 205 248 298 364
#
# _framework density 22.429309
#
# number of rings (size 3 to 8) (size 9 to 14) (size 15 to 20)
#    0.000    2.091    2.727    1.636    0.000    4.727 
#    0.000    3.636    0.000    0.000    0.000    3.818 
#    0.000    0.000    0.000    0.000    0.000    0.000 
#
# Total GULP energy -245668.069788 kJ/mol
# GULP energy per Si atom -5583.365222 kJ/mol
# Density = 2.237826 g / cm^3
# Si number density = 22.429309 Si / 1000 Ang^3
#
#
#
# Elastic Constant Matrix: (Units=GPa)
#
#
# Indices 1 2 3 4 5 6 
#
# 1 43.6605 -4.5222 -11.3751 0.0000 0.0000 0.0000
# 2 -4.5222 99.7703 -6.9170 0.0000 0.0000 0.0000
# 3 -11.3751 -6.9170 75.1223 0.0000 0.0000 0.0000
# 4 0.0000 0.0000 0.0000 24.2661 0.0000 0.0000
# 5 0.0000 0.0000 0.0000 0.0000 26.5508 0.0000
# 6 0.0000 0.0000 0.0000 0.0000 0.0000 19.3629
#
#
#
# Elastic Compliance Matrix: (Units=1/GPa)
#
#
# Indices 1 2 3 4 5 6 
#
# 1 0.024024 0.001350 0.003762 0.000000 0.000000 0.000000
# 2 0.001350 0.010163 0.001140 0.000000 0.000000 0.000000
# 3 0.003762 0.001140 0.013986 0.000000 0.000000 0.000000
# 4 0.000000 0.000000 0.000000 0.041210 0.000000 0.000000
# 5 0.000000 0.000000 0.000000 0.000000 0.037664 0.000000
# 6 0.000000 0.000000 0.000000 0.000000 0.000000 0.051645
#
#
# Mechanical properties :
#
#
# Convention : Reuss Voigt Hill
#
# Bulk Modulus (GPa) = 16.48063 19.21381 17.84722
# Shear Modulus (GPa) = 26.82203 30.12712 28.47458
#
# Velocity S-wave (km/s) = 3.46185 3.66895 3.56691
# Velocity P-wave (km/s) = 4.83146 5.15104 4.99381
#
# Compressibility (1/GPa) = 0.06067730
#
# Stress axis : x y z
#
# Youngs Moduli (GPa) = 41.62519 98.39371 71.49871
#
# Poissons Ratio (x) = -0.13281 -0.26898
# Poissons Ratio (y) = -0.05618 -0.08152
# Poissons Ratio (z) = -0.15659 -0.11219
#
# Static dielectric constant tensor:
#      x y z
#    x 1.853180 0.000000 0.000000 
#    y 0.000000 1.817380 0.000000 
#    z 0.000000 0.000000 1.828100 
# 
# From -- ./inp_files/26810.got.cif
#   From: 2010.05.17/outbox.cif.g08.bks.cpg/sg65_14_cif.got.tgz:26810.got - 2010.06.03 17:01:31.
