data_PCOD9490826
_publ_section_title
;
Structure prediction by ZEFSAII (Michael W. Deem and Ramdas Pophale) SiO2 
 PCOD9490826
Probable space group: C M M M
;
_chemical_formula_sum "Si O2"
_cell_formula_units_Z 82
_cell_length_a 24.260681
_cell_length_b 8.704986
_cell_length_c 20.683042
_cell_angle_alpha 90.000000
_cell_angle_beta 90.000000
_cell_angle_gamma 90.000000
_cell_volume 4368.028650
_symmetry_space_group_name_H-M "C M M M"
_symmetry_group_IT_number 65
_symmetry_cell_setting 'orthorhombic'
loop_
_space_group_symop_operation_xyz
x,y,z
-x,-y,z
x,-y,-z
-x,y,-z
-x,-y,-z
x,y,-z
-x,y,z
x,-y,z
1/2+x,1/2+y,z
1/2-x,1/2-y,z
1/2+x,1/2-y,-z
1/2-x,1/2+y,-z
1/2-x,1/2-y,-z
1/2+x,1/2+y,-z
1/2-x,1/2+y,z
1/2+x,1/2-y,z
loop_
_atom_site_type_symbol
_atom_site_label
_atom_site_fract_x
_atom_site_fract_y
_atom_site_fract_z
Si Si1 0.688381 0.686942 0.305596
Si Si2 0.387086 0.814703 0.809246
Si Si3 0.000000 0.500000 0.500000
Si Si4 0.500000 0.740482 0.610830
Si Si5 0.877995 0.174831 0.571557
Si Si6 0.000000 0.815633 0.241466
Si Si7 0.190648 0.684887 0.925792
O O1 0.687271 0.500000 0.302800
O O2 0.750000 0.750000 0.302567
O O3 0.653158 0.755011 0.246978
O O4 0.659194 0.743580 0.371969
O O5 0.445733 0.736399 0.796646
O O6 0.357837 0.771947 0.876815
O O7 0.392397 0.000000 0.806200
O O8 0.000000 0.371863 0.557564
O O9 0.440956 0.665376 0.595682
O O10 0.500000 0.766269 0.687931
O O11 0.875786 0.248378 0.500000
O O12 0.858354 0.000000 0.565112
O O13 0.000000 0.000000 0.252766
O O14 0.194437 0.500000 0.925161
O O15 0.250000 0.750000 0.904649
O O16 0.181109 0.734970 0.000000
#
# Coordination Sequence:
#
# PCOD9490826 Si02
#       7
#    16  16   2   8  16   8  16
#     4  11  23  39  58  84 117 158 202 249 303 364
#     4  11  23  39  62  91 123 158 201 255 307 365
#     4  12  28  36  58  96 124 156 192 264 316 374
#     4  12  22  39  57  86 117 149 197 247 310 357
#     4  10  20  37  60  80 106 145 195 244 296 357
#     4  12  25  41  64  91 122 165 204 249 306 373
#     4   9  19  37  62  92 125 163 206 251 303 359
#
# _framework density 18.772770000000001
#
# number of rings (size 3 to 8) (size 9 to 14) (size 15 to 20)
#    0.000    1.366    2.927    2.927    1.366    4.293 
#    1.756    0.488    0.000    2.927    0.000    0.000 
#    0.000    0.000    0.000    0.000    0.000    0.000 
#
# Total GULP energy -228426.701039 kJ/mol
# GULP energy per Si atom -5571.382952 kJ/mol
# Density = 1.873004 g / cm^3
# Si number density = 18.772770 Si / 1000 Ang^3
#
#
#
# Elastic Constant Matrix: (Units=GPa)
#
#
# Indices 1 2 3 4 5 6 
#
# 1 157.1082 31.6556 83.5211 0.0000 0.0000 0.0000
# 2 31.6556 43.2683 26.8507 0.0000 0.0000 0.0000
# 3 83.5211 26.8507 131.2117 0.0000 0.0000 0.0000
# 4 0.0000 0.0000 0.0000 25.2586 0.0000 0.0000
# 5 0.0000 0.0000 0.0000 0.0000 24.9472 0.0000
# 6 0.0000 0.0000 0.0000 0.0000 0.0000 57.0425
#
#
#
# Elastic Compliance Matrix: (Units=1/GPa)
#
#
# Indices 1 2 3 4 5 6 
#
# 1 0.010170 -0.003921 -0.005671 0.000000 0.000000 0.000000
# 2 -0.003921 0.027985 -0.003231 0.000000 0.000000 0.000000
# 3 -0.005671 -0.003231 0.011892 0.000000 0.000000 0.000000
# 4 0.000000 0.000000 0.000000 0.039591 0.000000 0.000000
# 5 0.000000 0.000000 0.000000 0.000000 0.040085 0.000000
# 6 0.000000 0.000000 0.000000 0.000000 0.000000 0.017531
#
#
# Mechanical properties :
#
#
# Convention : Reuss Voigt Hill
#
# Bulk Modulus (GPa) = 40.98147 68.40478 54.69313
# Shear Modulus (GPa) = 27.61916 34.08703 30.85310
#
# Velocity S-wave (km/s) = 3.83983 4.26581 4.05841
# Velocity P-wave (km/s) = 6.44490 7.79617 7.15252
#
# Compressibility (1/GPa) = 0.02440127
#
# Stress axis : x y z
#
# Youngs Moduli (GPa) = 98.32853 35.73303 84.08777
#
# Poissons Ratio (x) = 0.14011 0.47688
# Poissons Ratio (y) = 0.38556 0.27168
# Poissons Ratio (z) = 0.55764 0.11545
#
# Static dielectric constant tensor:
#      x y z
#    x 1.627750 0.000000 0.000000 
#    y 0.000000 1.655060 0.000000 
#    z 0.000000 0.000000 1.672800 
# 
# From -- ./inp_files/65120.got.cif
#   From: 2010.05.17/outbox.cif.g08.bks.cpg/sg65_33_cif.got.tgz:65120.got - 2010.06.03 17:01:31.
