data_PCOD9490653
_publ_section_title
;
Structure prediction by ZEFSAII (Michael W. Deem and Ramdas Pophale) SiO2 
 PCOD9490653
Probable space group: C M M M
;
_chemical_formula_sum "Si O2"
_cell_formula_units_Z 88
_cell_length_a 27.824712
_cell_length_b 19.882081
_cell_length_c 8.068621
_cell_angle_alpha 90.000000
_cell_angle_beta 90.000000
_cell_angle_gamma 90.000000
_cell_volume 4463.667464
_symmetry_space_group_name_H-M "C M M M"
_symmetry_group_IT_number 65
_symmetry_cell_setting 'orthorhombic'
loop_
_space_group_symop_operation_xyz
x,y,z
-x,-y,z
x,-y,-z
-x,y,-z
-x,-y,-z
x,y,-z
-x,y,z
x,-y,z
1/2+x,1/2+y,z
1/2-x,1/2-y,z
1/2+x,1/2-y,-z
1/2-x,1/2+y,-z
1/2-x,1/2-y,-z
1/2+x,1/2+y,-z
1/2-x,1/2+y,z
1/2+x,1/2-y,z
loop_
_atom_site_type_symbol
_atom_site_label
_atom_site_fract_x
_atom_site_fract_y
_atom_site_fract_z
Si Si1 0.056100 0.924758 0.700122
Si Si2 0.269088 0.679056 0.694652
Si Si3 0.308817 0.075731 0.802030
Si Si4 0.096662 0.655654 0.797316
Si Si5 0.376452 0.304845 0.804746
Si Si6 0.000000 0.578344 0.202698
O O1 0.059437 0.921463 0.500000
O O2 0.086907 0.865199 0.774876
O O3 0.000000 0.917725 0.744148
O O4 0.071931 0.000000 0.750823
O O5 0.258444 0.678187 0.500000
O O6 0.250000 0.750000 0.765588
O O7 0.239129 0.617921 0.769316
O O8 0.325861 0.677731 0.721330
O O9 0.355747 0.115872 0.740575
O O10 0.306538 0.000000 0.735019
O O11 0.314595 0.071424 0.000000
O O12 0.102217 0.733350 0.744984
O O13 0.048035 0.617997 0.743994
O O14 0.095898 0.655180 0.000000
O O15 0.366943 0.297531 0.000000
O O16 0.000000 0.500000 0.254682
O O17 0.000000 0.577943 0.000000
#
# Coordination Sequence:
#
# PCOD9490653 Si02
#       6
#    16  16  16  16  16   8
#     4   9  20  40  62  83 113 153 192 232 281 338
#     4  11  23  39  58  80 110 149 193 236 284 340
#     4  10  20  36  59  85 114 149 188 230 281 338
#     4   9  18  31  50  81 117 149 181 223 274 326
#     4  11  22  35  58  87 118 149 184 236 288 337
#     4   9  16  28  48  76 114 153 184 216 263 327
#
# _framework density 19.714728999999998
#
# number of rings (size 3 to 8) (size 9 to 14) (size 15 to 20)
#    0.000    2.091    1.818    2.182    1.273    4.727 
#    0.000    0.909    0.000    0.000    0.000    0.000 
#    0.000    5.091    0.000    0.000    0.000    0.000 
#
# Total GULP energy -245679.532042 kJ/mol
# GULP energy per Si atom -5583.625728 kJ/mol
# Density = 1.966986 g / cm^3
# Si number density = 19.714729 Si / 1000 Ang^3
#
#
#
# Elastic Constant Matrix: (Units=GPa)
#
#
# Indices 1 2 3 4 5 6 
#
# 1 111.4649 84.7810 -5.6233 0.0000 0.0000 0.0000
# 2 84.7810 186.6135 3.4186 0.0000 0.0000 0.0000
# 3 -5.6233 3.4186 7.1898 0.0000 0.0000 0.0000
# 4 0.0000 0.0000 0.0000 12.1320 0.0000 0.0000
# 5 0.0000 0.0000 0.0000 0.0000 -78.7825 0.0000
# 6 0.0000 0.0000 0.0000 0.0000 0.0000 35.6688
#
#
#
# Elastic Compliance Matrix: (Units=1/GPa)
#
#
# Indices 1 2 3 4 5 6 
#
# 1 0.015216 -0.007193 0.015321 0.000000 0.000000 0.000000
# 2 -0.007193 0.008806 -0.009813 0.000000 0.000000 0.000000
# 3 0.015321 -0.009813 0.155735 0.000000 0.000000 0.000000
# 4 0.000000 0.000000 0.000000 0.082427 0.000000 0.000000
# 5 0.000000 0.000000 0.000000 0.000000 -0.012693 0.000000
# 6 0.000000 0.000000 0.000000 0.000000 0.000000 0.028036
#
#
# Mechanical properties :
#
#
# Convention : Reuss Voigt Hill
#
# Bulk Modulus (GPa) = 5.66941 52.26896 28.96919
# Shear Modulus (GPa) = 14.71918 8.64978 11.68448
#
# Velocity S-wave (km/s) = 2.73538 2.09690 2.43714
# Velocity P-wave (km/s) = 3.58585 5.69499 4.75874
#
# Compressibility (1/GPa) = 0.17638504
#
# Stress axis : x y z
#
# Youngs Moduli (GPa) = 65.72167 113.55285 6.42118
#
# Poissons Ratio (x) = 0.81683 -0.09838
# Poissons Ratio (y) = 0.47276 0.06301
# Poissons Ratio (z) = -1.00691 1.11434
#
# Static dielectric constant tensor:
#      x y z
#    x 1.659310 0.000000 0.000000 
#    y 0.000000 1.687610 0.000000 
#    z 0.000000 0.000000 1.708310 
# 
# From -- ./inp_files/13992.got.cif
#   From: 2010.05.17/outbox.cif.g08.bks.cpg/sg65_7_cif.got.tgz:13992.got - 2010.06.03 17:01:31.
