data_PCOD9490824
_publ_section_title
;
Structure prediction by ZEFSAII (Michael W. Deem and Ramdas Pophale) SiO2 
 PCOD9490824
Probable space group: C M M M
;
_chemical_formula_sum "Si O2"
_cell_formula_units_Z 88
_cell_length_a 28.324479
_cell_length_b 14.788918
_cell_length_c 11.369054
_cell_angle_alpha 90.000000
_cell_angle_beta 90.000000
_cell_angle_gamma 90.000000
_cell_volume 4762.364809
_symmetry_space_group_name_H-M "C M M M"
_symmetry_group_IT_number 65
_symmetry_cell_setting 'orthorhombic'
loop_
_space_group_symop_operation_xyz
x,y,z
-x,-y,z
x,-y,-z
-x,y,-z
-x,-y,-z
x,y,-z
-x,y,z
x,-y,z
1/2+x,1/2+y,z
1/2-x,1/2-y,z
1/2+x,1/2-y,-z
1/2-x,1/2+y,-z
1/2-x,1/2-y,-z
1/2+x,1/2+y,-z
1/2-x,1/2+y,z
1/2+x,1/2-y,z
loop_
_atom_site_type_symbol
_atom_site_label
_atom_site_fract_x
_atom_site_fract_y
_atom_site_fract_z
Si Si1 0.500000 0.604861 0.356847
Si Si2 0.269305 0.852949 0.362054
Si Si3 0.197207 0.785261 0.000000
Si Si4 0.626583 0.897560 0.733180
Si Si5 0.594019 0.711329 0.359630
Si Si6 0.141844 0.598501 0.000000
Si Si7 0.676650 0.398472 0.766592
O O1 0.500000 0.500000 0.317903
O O2 0.500000 0.603216 0.500000
O O3 0.546659 0.659642 0.320545
O O4 0.276792 0.874083 0.500000
O O5 0.250000 0.750000 0.354500
O O6 0.318194 0.871967 0.293510
O O7 0.225635 0.904175 0.304403
O O8 0.250000 0.750000 0.000000
O O9 0.186462 0.844803 0.886106
O O10 0.169184 0.691951 0.000000
O O11 0.597005 0.816162 0.677271
O O12 0.616796 0.899787 0.873259
O O13 0.618894 0.000000 0.687979
O O14 0.597112 0.706501 0.500000
O O15 0.638606 0.658691 0.306197
O O16 0.168230 0.500000 0.000000
O O17 0.659179 0.500000 0.788512
#
# Coordination Sequence:
#
# PCOD9490824 Si02
#       7
#     8  16   8  16  16   8  16
#     4   9  20  40  65  92 121 156 199 244 299 368
#     4  11  21  35  52  79 120 160 200 245 294 352
#     4  12  23  39  56  81 121 158 202 256 295 346
#     4  11  22  37  59  87 118 157 201 248 300 357
#     4  11  22  39  63  91 123 158 198 250 307 366
#     4  10  20  37  60  79 107 154 203 238 282 342
#     4  12  24  37  57  85 119 162 206 250 298 354
#
# _framework density 18.478214000000001
#
# number of rings (size 3 to 8) (size 9 to 14) (size 15 to 20)
#    0.000    1.000    3.636    4.091    0.000    6.545 
#    0.000    0.455    0.000    3.818    0.000    5.727 
#    0.000    0.000    0.000    0.000    0.000    0.000 
#
# Total GULP energy -245557.668253 kJ/mol
# GULP energy per Si atom -5580.856097 kJ/mol
# Density = 1.843616 g / cm^3
# Si number density = 18.478214 Si / 1000 Ang^3
#
#
#
# Elastic Constant Matrix: (Units=GPa)
#
#
# Indices 1 2 3 4 5 6 
#
# 1 86.5889 47.9550 31.6850 0.0000 0.0000 0.0000
# 2 47.9550 187.3518 43.5099 0.0000 0.0000 0.0000
# 3 31.6850 43.5099 102.5078 0.0000 0.0000 0.0000
# 4 0.0000 0.0000 0.0000 72.8776 0.0000 0.0000
# 5 0.0000 0.0000 0.0000 0.0000 -31.9219 0.0000
# 6 0.0000 0.0000 0.0000 0.0000 0.0000 20.1400
#
#
#
# Elastic Compliance Matrix: (Units=1/GPa)
#
#
# Indices 1 2 3 4 5 6 
#
# 1 0.014338 -0.002930 -0.003188 0.000000 0.000000 0.000000
# 2 -0.002930 0.006520 -0.001862 0.000000 0.000000 0.000000
# 3 -0.003188 -0.001862 0.011531 0.000000 0.000000 0.000000
# 4 0.000000 0.000000 0.000000 0.013722 0.000000 0.000000
# 5 0.000000 0.000000 0.000000 0.000000 -0.031326 0.000000
# 6 0.000000 0.000000 0.000000 0.000000 0.000000 0.049652
#
#
# Mechanical properties :
#
#
# Convention : Reuss Voigt Hill
#
# Bulk Modulus (GPa) = 60.86651 69.19425 65.03038
# Shear Modulus (GPa) = 58.22598 29.10574 43.66586
#
# Velocity S-wave (km/s) = 5.61952 3.97311 4.86645
# Velocity P-wave (km/s) = 8.66698 7.65344 8.17593
#
# Compressibility (1/GPa) = 0.01642940
#
# Stress axis : x y z
#
# Youngs Moduli (GPa) = 69.74494 153.37929 86.72164
#
# Poissons Ratio (x) = 0.44933 0.27650
# Poissons Ratio (y) = 0.20432 0.16146
# Poissons Ratio (z) = 0.22237 0.28557
#
# Static dielectric constant tensor:
#      x y z
#    x 1.612020 0.000000 0.000000 
#    y 0.000000 1.679410 0.000000 
#    z 0.000000 0.000000 1.640250 
# 
# From -- ./inp_files/32275.got.cif
#   From: 2010.05.17/outbox.cif.g08.bks.cpg/sg65_17_cif.got.tgz:32275.got - 2010.06.03 17:01:31.
