data_PCOD9490564
_publ_section_title
;
Structure prediction by ZEFSAII (Michael W. Deem and Ramdas Pophale) SiO2 
 PCOD9490564
Probable space group: C M M M
;
_chemical_formula_sum "Si O2"
_cell_formula_units_Z 104
_cell_length_a 8.434467
_cell_length_b 24.453141
_cell_length_c 29.201772
_cell_angle_alpha 90.000000
_cell_angle_beta 90.000000
_cell_angle_gamma 90.000000
_cell_volume 6022.842429
_symmetry_space_group_name_H-M "C M M M"
_symmetry_group_IT_number 65
_symmetry_cell_setting 'orthorhombic'
loop_
_space_group_symop_operation_xyz
x,y,z
-x,-y,z
x,-y,-z
-x,y,-z
-x,-y,-z
x,y,-z
-x,y,z
x,-y,z
1/2+x,1/2+y,z
1/2-x,1/2-y,z
1/2+x,1/2-y,-z
1/2-x,1/2+y,-z
1/2-x,1/2-y,-z
1/2+x,1/2+y,-z
1/2-x,1/2+y,z
1/2+x,1/2-y,z
loop_
_atom_site_type_symbol
_atom_site_label
_atom_site_fract_x
_atom_site_fract_y
_atom_site_fract_z
Si Si1 0.689883 0.688149 0.948746
Si Si2 0.191256 0.500000 0.844016
Si Si3 0.689910 0.890637 0.308135
Si Si4 0.808273 0.687965 0.772529
Si Si5 0.808632 0.379580 0.137236
Si Si6 0.182610 0.933683 0.500000
Si Si7 0.810464 0.000000 0.259303
Si Si8 0.807874 0.063768 0.600287
O O1 0.500000 0.688151 0.946940
O O2 0.750000 0.750000 0.942921
O O3 0.755463 0.652069 0.907752
O O4 0.739247 0.669881 0.000000
O O5 0.248141 0.442369 0.864153
O O6 0.241791 0.500000 0.791421
O O7 0.000000 0.500000 0.846702
O O8 0.500000 0.889969 0.309247
O O9 0.743060 0.841254 0.274874
O O10 0.748274 0.946109 0.284203
O O11 0.752891 0.896146 0.359695
O O12 0.750000 0.750000 0.776281
O O13 0.755053 0.651643 0.816345
O O14 0.000000 0.688135 0.773117
O O15 0.000000 0.380056 0.138936
O O16 0.251906 0.919322 0.549616
O O17 0.000000 0.914210 0.500000
O O18 0.177588 0.000000 0.500000
O O19 0.000000 0.000000 0.259369
O O20 0.000000 0.063063 0.599172
O O21 0.759039 0.000000 0.609132
#
# Coordination Sequence:
#
# PCOD9490564 Si02
#       8
#    16   8  16  16  16   8   8  16
#     4  10  21  37  57  81 108 138 175 221 266 306
#     4  10  20  38  57  77 109 142 170 206 253 306
#     4  11  21  34  50  71 104 140 169 209 260 303
#     4  10  22  37  53  74 102 135 169 209 258 304
#     4  10  20  36  58  81 106 139 172 208 255 309
#     4   7  12  24  41  63  98 133 161 204 253 297
#     4  12  22  32  50  76 102 136 178 213 244 298
#     4   9  16  27  45  71  99 132 172 207 247 302
#
# _framework density 17.267595
#
# number of rings (size 3 to 8) (size 9 to 14) (size 15 to 20)
#    0.000    2.077    2.308    3.000    0.000    4.615 
#    0.000    0.769    0.000    3.692    0.000    0.538 
#    0.000    0.000    0.000    0.000    0.000    0.000 
#
# Total GULP energy -289949.075629 kJ/mol
# GULP energy per Si atom -5575.943762 kJ/mol
# Density = 1.722829 g / cm^3
# Si number density = 17.267595 Si / 1000 Ang^3
#
#
#
# Elastic Constant Matrix: (Units=GPa)
#
#
# Indices 1 2 3 4 5 6 
#
# 1 14.3161 14.2591 23.0593 0.0000 0.0000 0.0000
# 2 14.2591 110.7010 76.4002 0.0000 0.0000 0.0000
# 3 23.0593 76.4002 172.0591 0.0000 0.0000 0.0000
# 4 0.0000 0.0000 0.0000 15.7121 0.0000 0.0000
# 5 0.0000 0.0000 0.0000 0.0000 23.6294 0.0000
# 6 0.0000 0.0000 0.0000 0.0000 0.0000 21.4151
#
#
#
# Elastic Compliance Matrix: (Units=1/GPa)
#
#
# Indices 1 2 3 4 5 6 
#
# 1 0.090784 -0.004753 -0.010056 0.000000 0.000000 0.000000
# 2 -0.004753 0.013274 -0.005257 0.000000 0.000000 0.000000
# 3 -0.010056 -0.005257 0.009494 0.000000 0.000000 0.000000
# 4 0.000000 0.000000 0.000000 0.063645 0.000000 0.000000
# 5 0.000000 0.000000 0.000000 0.000000 0.042320 0.000000
# 6 0.000000 0.000000 0.000000 0.000000 0.000000 0.046696
#
#
# Mechanical properties :
#
#
# Convention : Reuss Voigt Hill
#
# Bulk Modulus (GPa) = 13.62055 58.27926 35.94991
# Shear Modulus (GPa) = 15.11403 24.37515 19.74459
#
# Velocity S-wave (km/s) = 2.96173 3.76122 3.38516
# Velocity P-wave (km/s) = 4.42728 7.25853 6.01195
#
# Compressibility (1/GPa) = 0.07341845
#
# Stress axis : x y z
#
# Youngs Moduli (GPa) = 11.01519 75.33701 105.33043
#
# Poissons Ratio (x) = 0.35811 1.05921
# Poissons Ratio (y) = 0.05236 0.55371
# Poissons Ratio (z) = 0.11077 0.39604
#
# Static dielectric constant tensor:
#      x y z
#    x 1.596850 0.000000 0.000000 
#    y 0.000000 1.574310 0.000000 
#    z 0.000000 0.000000 1.611550 
# 
# From -- ./inp_files/73632.got.cif
#   From: 2010.05.17/outbox.cif.g08.bks.cpg/sg65_37_cif.got.tgz:73632.got - 2010.06.03 17:01:31.
