data_PCOD9490991
_publ_section_title
;
Structure prediction by ZEFSAII (Michael W. Deem and Ramdas Pophale) SiO2 
 PCOD9490991
Probable space group: C M M M
;
_chemical_formula_sum "Si O2"
_cell_formula_units_Z 64
_cell_length_a 12.093861
_cell_length_b 16.867384
_cell_length_c 17.551195
_cell_angle_alpha 90.000000
_cell_angle_beta 90.000000
_cell_angle_gamma 90.000000
_cell_volume 3580.299817
_symmetry_space_group_name_H-M "C M M M"
_symmetry_group_IT_number 65
_symmetry_cell_setting 'orthorhombic'
loop_
_space_group_symop_operation_xyz
x,y,z
-x,-y,z
x,-y,-z
-x,y,-z
-x,-y,-z
x,y,-z
-x,y,z
x,-y,z
1/2+x,1/2+y,z
1/2-x,1/2-y,z
1/2+x,1/2-y,-z
1/2-x,1/2+y,-z
1/2-x,1/2-y,-z
1/2+x,1/2+y,-z
1/2-x,1/2+y,z
1/2+x,1/2-y,z
loop_
_atom_site_type_symbol
_atom_site_label
_atom_site_fract_x
_atom_site_fract_y
_atom_site_fract_z
Si Si1 0.623315 0.405732 0.581096
Si Si2 0.631239 0.090946 0.151662
Si Si3 0.500000 0.903239 0.592077
Si Si4 0.207235 0.660234 0.310474
Si Si5 0.635672 0.195677 0.000000
O O1 0.673481 0.377545 0.500000
O O2 0.500000 0.372344 0.586091
O O3 0.615980 0.500000 0.576128
O O4 0.691988 0.387612 0.654412
O O5 0.500000 0.087336 0.165854
O O6 0.682121 0.133577 0.224947
O O7 0.646453 0.141481 0.075182
O O8 0.671042 0.000000 0.143721
O O9 0.500000 0.891364 0.500000
O O10 0.604841 0.863328 0.634408
O O11 0.500000 0.000000 0.604581
O O12 0.250000 0.750000 0.313871
O O13 0.750000 0.250000 0.000000
O O14 0.500000 0.223825 0.000000
#
# Coordination Sequence:
#
# PCOD9490991 Si02
#       5
#    16  16   8  16   8
#     4   9  19  36  56  77 108 154 202 245 299 373
#     4  10  20  38  64  90 121 161 211 255 298 370
#     4  11  24  42  62  83 114 160 209 255 312 378
#     4  12  24  36  57  88 120 154 197 260 317 358
#     4  10  21  39  65  99 129 166 202 256 323 381
#
# _framework density 17.875598
#
# number of rings (size 3 to 8) (size 9 to 14) (size 15 to 20)
#    0.000    1.625    1.250    4.875    1.750    5.500 
#    0.000    1.250    0.000    3.000    0.000    0.000 
#    0.000    0.000    0.000    0.000    0.000    0.000 
#
# Total GULP energy -178175.949353 kJ/mol
# GULP energy per Si atom -5567.998417 kJ/mol
# Density = 1.783491 g / cm^3
# Si number density = 17.875598 Si / 1000 Ang^3
#
#
#
# Elastic Constant Matrix: (Units=GPa)
#
#
# Indices 1 2 3 4 5 6 
#
# 1 86.4399 57.1310 66.5825 0.0000 0.0000 0.0000
# 2 57.1310 103.6410 58.0226 0.0000 0.0000 0.0000
# 3 66.5825 58.0226 167.7255 0.0000 0.0000 0.0000
# 4 0.0000 0.0000 0.0000 22.7383 0.0000 0.0000
# 5 0.0000 0.0000 0.0000 0.0000 59.9860 0.0000
# 6 0.0000 0.0000 0.0000 0.0000 0.0000 33.3680
#
#
#
# Elastic Compliance Matrix: (Units=1/GPa)
#
#
# Indices 1 2 3 4 5 6 
#
# 1 0.021694 -0.008851 -0.005550 0.000000 0.000000 0.000000
# 2 -0.008851 0.015578 -0.001875 0.000000 0.000000 0.000000
# 3 -0.005550 -0.001875 0.008814 0.000000 0.000000 0.000000
# 4 0.000000 0.000000 0.000000 0.043979 0.000000 0.000000
# 5 0.000000 0.000000 0.000000 0.000000 0.016671 0.000000
# 6 0.000000 0.000000 0.000000 0.000000 0.000000 0.029969
#
#
# Mechanical properties :
#
#
# Convention : Reuss Voigt Hill
#
# Bulk Modulus (GPa) = 73.89522 80.14206 77.01864
# Shear Modulus (GPa) = 28.77409 34.95648 31.86529
#
# Velocity S-wave (km/s) = 4.01644 4.42695 4.22668
# Velocity P-wave (km/s) = 7.93331 8.42977 8.18531
#
# Compressibility (1/GPa) = 0.01353268
#
# Stress axis : x y z
#
# Youngs Moduli (GPa) = 46.09597 64.19409 113.45678
#
# Poissons Ratio (x) = 0.56821 0.62966
# Poissons Ratio (y) = 0.40802 0.21275
# Poissons Ratio (z) = 0.25582 0.12037
#
# Static dielectric constant tensor:
#      x y z
#    x 1.662800 0.000000 0.000000 
#    y 0.000000 1.608870 0.000000 
#    z 0.000000 0.000000 1.618460 
# 
# From -- ./inp_files/37815.got.cif
#   From: 2010.05.17/outbox.cif.g08.bks.cpg/sg65_19_cif.got.tgz:37815.got - 2010.06.03 17:01:31.
