data_PCOD9490000
_publ_section_title
;
Structure prediction by ZEFSAII (Michael W. Deem and Ramdas Pophale) SiO2 
 PCOD9490000
Probable space group: C M M M
;
_chemical_formula_sum "Si O2"
_cell_formula_units_Z 96
_cell_length_a 29.968595
_cell_length_b 8.469618
_cell_length_c 20.986728
_cell_angle_alpha 90.000000
_cell_angle_beta 90.000000
_cell_angle_gamma 90.000000
_cell_volume 5326.904852
_symmetry_space_group_name_H-M "C M M M"
_symmetry_group_IT_number 65
_symmetry_cell_setting 'orthorhombic'
loop_
_space_group_symop_operation_xyz
x,y,z
-x,-y,z
x,-y,-z
-x,y,-z
-x,-y,-z
x,y,-z
-x,y,z
x,-y,z
1/2+x,1/2+y,z
1/2-x,1/2-y,z
1/2+x,1/2-y,-z
1/2-x,1/2+y,-z
1/2-x,1/2-y,-z
1/2+x,1/2+y,-z
1/2-x,1/2+y,z
1/2+x,1/2-y,z
loop_
_atom_site_type_symbol
_atom_site_label
_atom_site_fract_x
_atom_site_fract_y
_atom_site_fract_z
Si Si1 0.857132 0.689330 0.187517
Si Si2 0.800452 0.812149 0.692618
Si Si3 0.548998 0.191999 0.237303
Si Si4 0.299174 0.311089 0.072992
Si Si5 0.145960 0.308628 0.570748
Si Si6 0.450931 0.191770 0.613025
O O1 0.857455 0.500000 0.186538
O O2 0.827652 0.743306 0.247597
O O3 0.907771 0.746989 0.199220
O O4 0.835097 0.750318 0.122980
O O5 0.750000 0.750000 0.693368
O O6 0.824938 0.760242 0.627715
O O7 0.800181 0.000000 0.697414
O O8 0.500000 0.245868 0.215299
O O9 0.553533 0.232986 0.312119
O O10 0.548972 0.000000 0.235152
O O11 0.298447 0.500000 0.074172
O O12 0.250000 0.250000 0.091403
O O13 0.307631 0.258636 0.000000
O O14 0.161879 0.265397 0.500000
O O15 0.146878 0.500000 0.576033
O O16 0.094202 0.257197 0.578648
O O17 0.500000 0.246594 0.590581
O O18 0.451680 0.000000 0.608999
#
# Coordination Sequence:
#
# PCOD9490000 Si02
#       6
#    16  16  16  16  16  16
#     4  11  20  34  59  86 113 141 178 223 267 313
#     4  12  25  40  57  76 103 137 179 225 271 324
#     4   8  14  26  49  80 110 139 173 217 264 309
#     4  10  21  37  56  81 115 150 184 220 263 317
#     4  10  20  35  55  79 107 138 176 222 272 323
#     4   8  13  25  48  78 109 137 170 214 263 314
#
# _framework density 18.021720999999999
#
# number of rings (size 3 to 8) (size 9 to 14) (size 15 to 20)
#    0.000    2.167    1.667    4.000    0.000    2.000 
#    0.000    1.667    0.000    4.000    0.000    4.667 
#    0.000    0.000    0.000    0.000    0.000    0.000 
#
# Total GULP energy -267855.892736 kJ/mol
# GULP energy per Si atom -5580.331099 kJ/mol
# Density = 1.798070 g / cm^3
# Si number density = 18.021721 Si / 1000 Ang^3
#
#
#
# Elastic Constant Matrix: (Units=GPa)
#
#
# Indices 1 2 3 4 5 6 
#
# 1 139.7332 18.5014 63.0596 0.0000 0.0000 0.0000
# 2 18.5014 35.5356 17.2172 0.0000 0.0000 0.0000
# 3 63.0596 17.2172 84.4094 0.0000 0.0000 0.0000
# 4 0.0000 0.0000 0.0000 19.1226 0.0000 0.0000
# 5 0.0000 0.0000 0.0000 0.0000 4.2391 0.0000
# 6 0.0000 0.0000 0.0000 0.0000 0.0000 17.4251
#
#
#
# Elastic Compliance Matrix: (Units=1/GPa)
#
#
# Indices 1 2 3 4 5 6 
#
# 1 0.010913 -0.001922 -0.007761 0.000000 0.000000 0.000000
# 2 -0.001922 0.031565 -0.005003 0.000000 0.000000 0.000000
# 3 -0.007761 -0.005003 0.018666 0.000000 0.000000 0.000000
# 4 0.000000 0.000000 0.000000 0.052294 0.000000 0.000000
# 5 0.000000 0.000000 0.000000 0.000000 0.235900 0.000000
# 6 0.000000 0.000000 0.000000 0.000000 0.000000 0.057388
#
#
# Mechanical properties :
#
#
# Convention : Reuss Voigt Hill
#
# Bulk Modulus (GPa) = 31.47331 50.80386 41.13858
# Shear Modulus (GPa) = 11.19348 18.88402 15.03875
#
# Velocity S-wave (km/s) = 2.49491 3.24056 2.89187
# Velocity P-wave (km/s) = 5.07951 6.50024 5.83329
#
# Compressibility (1/GPa) = 0.03177296
#
# Stress axis : x y z
#
# Youngs Moduli (GPa) = 91.63039 31.68042 53.57473
#
# Poissons Ratio (x) = 0.06088 0.41580
# Poissons Ratio (y) = 0.17609 0.26802
# Poissons Ratio (z) = 0.71115 0.15849
#
# Static dielectric constant tensor:
#      x y z
#    x 1.628310 0.000000 0.000000 
#    y 0.000000 1.625310 0.000000 
#    z 0.000000 0.000000 1.598220 
# 
# From -- ./inp_files/65738.got.cif
#   From: 2010.05.17/outbox.cif.g08.bks.cpg/sg65_33_cif.got.tgz:65738.got - 2010.06.03 17:01:31.
