data_PCOD9490975
_publ_section_title
;
Structure prediction by ZEFSAII (Michael W. Deem and Ramdas Pophale) SiO2 
 PCOD9490975
Probable space group: C M M M
;
_chemical_formula_sum "Si O2"
_cell_formula_units_Z 48
_cell_length_a 14.407935
_cell_length_b 10.239696
_cell_length_c 15.657622
_cell_angle_alpha 90.000000
_cell_angle_beta 90.000000
_cell_angle_gamma 90.000000
_cell_volume 2310.013980
_symmetry_space_group_name_H-M "C M M M"
_symmetry_group_IT_number 65
_symmetry_cell_setting 'orthorhombic'
loop_
_space_group_symop_operation_xyz
x,y,z
-x,-y,z
x,-y,-z
-x,y,-z
-x,-y,-z
x,y,-z
-x,y,z
x,-y,z
1/2+x,1/2+y,z
1/2-x,1/2-y,z
1/2+x,1/2-y,-z
1/2-x,1/2+y,-z
1/2-x,1/2-y,-z
1/2+x,1/2+y,-z
1/2-x,1/2+y,z
1/2+x,1/2-y,z
loop_
_atom_site_type_symbol
_atom_site_label
_atom_site_fract_x
_atom_site_fract_y
_atom_site_fract_z
Si Si1 0.602950 0.000000 0.141156
Si Si2 0.110353 0.843504 0.592040
Si Si3 0.690909 0.500000 0.096414
Si Si4 0.392010 0.716358 0.220705
O O1 0.697919 0.000000 0.089350
O O2 0.608189 0.867363 0.195369
O O3 0.500000 0.000000 0.099626
O O4 0.146421 0.794620 0.500000
O O5 0.146462 0.797312 0.683401
O O6 0.000000 0.813483 0.592337
O O7 0.119733 0.000000 0.592229
O O8 0.659573 0.374242 0.151791
O O9 0.651433 0.500000 0.000000
O O10 0.500000 0.671590 0.221129
#
# Coordination Sequence:
#
# PCOD9490975 Si02
#       4
#     8  16   8  16
#     4  10  24  42  60  82 118 160 192 236 301 354
#     4   8  13  25  52  88 120 152 191 233 278 332
#     4  12  25  41  63  87 112 150 201 250 292 346
#     4  10  20  38  62  91 123 154 191 239 291 346
#
# _framework density 20.779095999999999
#
# number of rings (size 3 to 8) (size 9 to 14) (size 15 to 20)
#    0.000    2.333    1.667    2.500    0.000    4.333 
#    0.000    4.167    0.000   11.000    0.000    0.000 
#    0.000    0.000    0.000    0.000    0.000    0.000 
#
# Total GULP energy -133771.449604 kJ/mol
# GULP energy per Si atom -5573.810400 kJ/mol
# Density = 2.073180 g / cm^3
# Si number density = 20.779096 Si / 1000 Ang^3
#
#
#
# Elastic Constant Matrix: (Units=GPa)
#
#
# Indices 1 2 3 4 5 6 
#
# 1 111.1339 24.9138 48.5789 0.0000 0.0000 0.0000
# 2 24.9138 107.1705 75.7192 0.0000 0.0000 0.0000
# 3 48.5789 75.7192 230.1287 0.0000 0.0000 0.0000
# 4 0.0000 0.0000 0.0000 -24.5980 0.0000 0.0000
# 5 0.0000 0.0000 0.0000 0.0000 21.7322 0.0000
# 6 0.0000 0.0000 0.0000 0.0000 0.0000 32.7336
#
#
#
# Elastic Compliance Matrix: (Units=1/GPa)
#
#
# Indices 1 2 3 4 5 6 
#
# 1 0.010009 -0.001087 -0.001755 0.000000 0.000000 0.000000
# 2 -0.001087 0.012275 -0.003809 0.000000 0.000000 0.000000
# 3 -0.001755 -0.003809 0.005969 0.000000 0.000000 0.000000
# 4 0.000000 0.000000 0.000000 -0.040654 0.000000 0.000000
# 5 0.000000 0.000000 0.000000 0.000000 0.046015 0.000000
# 6 0.000000 0.000000 0.000000 0.000000 0.000000 0.030550
#
#
# Mechanical properties :
#
#
# Convention : Reuss Voigt Hill
#
# Bulk Modulus (GPa) = 66.88681 82.98410 74.93546
# Shear Modulus (GPa) = 60.64261 25.92165 43.28213
#
# Velocity S-wave (km/s) = 5.40812 3.53581 4.56890
# Velocity P-wave (km/s) = 8.44135 7.52943 7.99840
#
# Compressibility (1/GPa) = 0.01495063
#
# Stress axis : x y z
#
# Youngs Moduli (GPa) = 99.90968 81.46612 167.52194
#
# Poissons Ratio (x) = 0.08852 0.29406
# Poissons Ratio (y) = 0.10856 0.63817
# Poissons Ratio (z) = 0.17537 0.31034
#
# Static dielectric constant tensor:
#      x y z
#    x 1.797470 0.000000 0.000000 
#    y 0.000000 1.691750 0.000000 
#    z 0.000000 0.000000 1.766510 
# 
# From -- ./inp_files/52294.got.cif
#   From: 2010.05.17/outbox.cif.g08.bks.cpg/sg65_27_cif.got.tgz:52294.got - 2010.06.03 17:01:31.
