data_PCOD9490603
_publ_section_title
;
Structure prediction by ZEFSAII (Michael W. Deem and Ramdas Pophale) SiO2 
 PCOD9490603
Probable space group: C M M M
;
_chemical_formula_sum "Si O2"
_cell_formula_units_Z 80
_cell_length_a 18.545622
_cell_length_b 25.023614
_cell_length_c 9.451030
_cell_angle_alpha 90.000000
_cell_angle_beta 90.000000
_cell_angle_gamma 90.000000
_cell_volume 4386.019697
_symmetry_space_group_name_H-M "C M M M"
_symmetry_group_IT_number 65
_symmetry_cell_setting 'orthorhombic'
loop_
_space_group_symop_operation_xyz
x,y,z
-x,-y,z
x,-y,-z
-x,y,-z
-x,-y,-z
x,y,-z
-x,y,z
x,-y,z
1/2+x,1/2+y,z
1/2-x,1/2-y,z
1/2+x,1/2-y,-z
1/2-x,1/2+y,-z
1/2-x,1/2-y,-z
1/2+x,1/2+y,-z
1/2-x,1/2+y,z
1/2+x,1/2-y,z
loop_
_atom_site_type_symbol
_atom_site_label
_atom_site_fract_x
_atom_site_fract_y
_atom_site_fract_z
Si Si1 0.416127 0.500000 0.827599
Si Si2 0.915221 0.688442 0.335446
Si Si3 0.823694 0.897254 0.166489
Si Si4 0.085997 0.500000 0.338502
Si Si5 0.154467 0.404596 0.834716
Si Si6 0.681979 0.712921 0.665901
O O1 0.500000 0.500000 0.784921
O O2 0.374358 0.554056 0.782921
O O3 0.413661 0.500000 0.000000
O O4 0.903015 0.672302 0.500000
O O5 0.868548 0.651600 0.232776
O O6 0.887358 0.748857 0.322469
O O7 0.000000 0.683169 0.305697
O O8 0.739922 0.913937 0.177485
O O9 0.828982 0.841530 0.249436
O O10 0.839187 0.887988 0.000000
O O11 0.112681 0.500000 0.500000
O O12 0.113322 0.551241 0.254807
O O13 0.000000 0.500000 0.341607
O O14 0.135205 0.406844 0.000000
O O15 0.694849 0.700444 0.500000
O O16 0.750000 0.750000 0.712575
#
# Coordination Sequence:
#
# PCOD9490603 Si02
#       6
#     8  16  16   8  16  16
#     4   9  19  38  61  85 116 153 192 238 294 351
#     4  10  21  37  56  80 113 151 189 233 286 342
#     4  10  21  37  60  87 115 148 190 238 288 339
#     4  11  24  39  55  77 108 147 188 228 276 337
#     4  11  22  36  56  82 113 145 185 235 283 336
#     4  10  20  36  58  83 113 150 193 235 283 346
#
# _framework density 18.239773
#
# number of rings (size 3 to 8) (size 9 to 14) (size 15 to 20)
#    0.000    1.800    2.000    2.100    0.000    8.000 
#    0.000    0.500    0.000    0.600    0.000    0.000 
#    0.000    0.000    0.000    0.000    0.000    0.000 
#
# Total GULP energy -223296.046128 kJ/mol
# GULP energy per Si atom -5582.401153 kJ/mol
# Density = 1.819826 g / cm^3
# Si number density = 18.239773 Si / 1000 Ang^3
#
#
#
# Elastic Constant Matrix: (Units=GPa)
#
#
# Indices 1 2 3 4 5 6 
#
# 1 91.1604 54.1207 50.8946 0.0000 0.0000 0.0000
# 2 54.1207 141.0753 68.4522 0.0000 0.0000 0.0000
# 3 50.8946 68.4522 86.2554 0.0000 0.0000 0.0000
# 4 0.0000 0.0000 0.0000 31.5821 0.0000 0.0000
# 5 0.0000 0.0000 0.0000 0.0000 20.1417 0.0000
# 6 0.0000 0.0000 0.0000 0.0000 0.0000 64.8088
#
#
#
# Elastic Compliance Matrix: (Units=1/GPa)
#
#
# Indices 1 2 3 4 5 6 
#
# 1 0.016962 -0.002685 -0.007878 0.000000 0.000000 0.000000
# 2 -0.002685 0.011952 -0.007901 0.000000 0.000000 0.000000
# 3 -0.007878 -0.007901 0.022512 0.000000 0.000000 0.000000
# 4 0.000000 0.000000 0.000000 0.031664 0.000000 0.000000
# 5 0.000000 0.000000 0.000000 0.000000 0.049648 0.000000
# 6 0.000000 0.000000 0.000000 0.000000 0.000000 0.015430
#
#
# Mechanical properties :
#
#
# Convention : Reuss Voigt Hill
#
# Bulk Modulus (GPa) = 68.97061 73.93625 71.45343
# Shear Modulus (GPa) = 26.32594 32.97477 29.65035
#
# Velocity S-wave (km/s) = 3.80323 4.25649 4.03623
# Velocity P-wave (km/s) = 7.56185 8.04865 7.80904
#
# Compressibility (1/GPa) = 0.01449893
#
# Stress axis : x y z
#
# Youngs Moduli (GPa) = 58.95697 83.66753 44.42093
#
# Poissons Ratio (x) = 0.22462 0.34993
# Poissons Ratio (y) = 0.15828 0.35097
# Poissons Ratio (z) = 0.46444 0.66107
#
# Static dielectric constant tensor:
#      x y z
#    x 1.627240 0.000000 0.000000 
#    y 0.000000 1.584250 0.000000 
#    z 0.000000 0.000000 1.614490 
# 
# From -- ./inp_files/9682.got.cif
#   From: 2010.05.17/outbox.cif.g08.bks.cpg/sg65_5_cif.got.tgz:9682.got - 2010.06.03 17:01:31.
