data_PCOD9490275
_publ_section_title
;
Structure prediction by ZEFSAII (Michael W. Deem and Ramdas Pophale) SiO2 
 PCOD9490275
Probable space group: C M M M
;
_chemical_formula_sum "Si O2"
_cell_formula_units_Z 96
_cell_length_a 29.142440
_cell_length_b 8.988806
_cell_length_c 20.630419
_cell_angle_alpha 90.000000
_cell_angle_beta 90.000000
_cell_angle_gamma 90.000000
_cell_volume 5404.256666
_symmetry_space_group_name_H-M "C M M M"
_symmetry_group_IT_number 65
_symmetry_cell_setting 'orthorhombic'
loop_
_space_group_symop_operation_xyz
x,y,z
-x,-y,z
x,-y,-z
-x,y,-z
-x,-y,-z
x,y,-z
-x,y,z
x,-y,z
1/2+x,1/2+y,z
1/2-x,1/2-y,z
1/2+x,1/2-y,-z
1/2-x,1/2+y,-z
1/2-x,1/2-y,-z
1/2+x,1/2+y,-z
1/2-x,1/2+y,z
1/2+x,1/2-y,z
loop_
_atom_site_type_symbol
_atom_site_label
_atom_site_fract_x
_atom_site_fract_y
_atom_site_fract_z
Si Si1 0.201785 0.825285 0.266357
Si Si2 0.298272 0.674866 0.890066
Si Si3 0.108769 0.322874 0.689835
Si Si4 0.445214 0.324803 0.191667
Si Si5 0.946415 0.177118 0.423784
Si Si6 0.392854 0.176505 0.073528
O O1 0.250000 0.750000 0.283874
O O2 0.196736 0.811549 0.188163
O O3 0.159184 0.744593 0.299570
O O4 0.202017 0.000000 0.281801
O O5 0.298264 0.500000 0.906388
O O6 0.250000 0.750000 0.908333
O O7 0.341672 0.757777 0.920146
O O8 0.110289 0.500000 0.693373
O O9 0.077612 0.258287 0.747893
O O10 0.086304 0.267938 0.623112
O O11 0.500000 0.308603 0.193000
O O12 0.433754 0.500000 0.195766
O O13 0.424210 0.257665 0.126166
O O14 0.938436 0.205350 0.500000
O O15 0.000000 0.211194 0.409998
O O16 0.940301 0.000000 0.412559
O O17 0.391740 0.000000 0.086633
O O18 0.409307 0.199801 0.000000
#
# Coordination Sequence:
#
# PCOD9490275 Si02
#       6
#    16  16  16  16  16  16
#     4  10  20  35  57  85 116 149 188 233 282 336
#     4  10  20  35  58  83 111 146 184 230 283 339
#     4  12  23  35  58  89 121 154 189 233 284 336
#     4  11  24  41  60  82 109 145 191 239 285 337
#     4   9  19  37  60  86 119 159 199 238 282 333
#     4  11  24  40  58  81 111 146 185 233 289 346
#
# _framework density 17.763774999999999
#
# number of rings (size 3 to 8) (size 9 to 14) (size 15 to 20)
#    0.000    1.500    1.667    4.500    0.000    7.333 
#    0.000    2.500    0.000    0.500    0.000    0.000 
#    0.000    0.000    0.000    0.000    0.000    0.000 
#
# Total GULP energy -268365.182332 kJ/mol
# GULP energy per Si atom -5590.941299 kJ/mol
# Density = 1.772334 g / cm^3
# Si number density = 17.763775 Si / 1000 Ang^3
#
#
#
# Elastic Constant Matrix: (Units=GPa)
#
#
# Indices 1 2 3 4 5 6 
#
# 1 103.1315 80.1864 60.0248 0.0000 0.0000 0.0000
# 2 80.1864 143.1596 70.8431 0.0000 0.0000 0.0000
# 3 60.0248 70.8431 72.7087 0.0000 0.0000 0.0000
# 4 0.0000 0.0000 0.0000 27.7476 0.0000 0.0000
# 5 0.0000 0.0000 0.0000 0.0000 77.8869 0.0000
# 6 0.0000 0.0000 0.0000 0.0000 0.0000 34.4477
#
#
#
# Elastic Compliance Matrix: (Units=1/GPa)
#
#
# Indices 1 2 3 4 5 6 
#
# 1 0.021175 -0.006199 -0.011442 0.000000 0.000000 0.000000
# 2 -0.006199 0.015304 -0.009794 0.000000 0.000000 0.000000
# 3 -0.011442 -0.009794 0.032741 0.000000 0.000000 0.000000
# 4 0.000000 0.000000 0.000000 0.036039 0.000000 0.000000
# 5 0.000000 0.000000 0.000000 0.000000 0.012839 0.000000
# 6 0.000000 0.000000 0.000000 0.000000 0.000000 0.029029
#
#
# Mechanical properties :
#
#
# Convention : Reuss Voigt Hill
#
# Bulk Modulus (GPa) = 69.67422 82.34537 76.00980
# Shear Modulus (GPa) = 24.18029 35.21280 29.69654
#
# Velocity S-wave (km/s) = 3.69347 4.45711 4.09314
# Velocity P-wave (km/s) = 7.58266 8.54074 8.07592
#
# Compressibility (1/GPa) = 0.01435251
#
# Stress axis : x y z
#
# Youngs Moduli (GPa) = 47.22502 65.34384 30.54236
#
# Poissons Ratio (x) = 0.40505 0.34945
# Poissons Ratio (y) = 0.29274 0.29912
# Poissons Ratio (z) = 0.54033 0.63995
#
# Static dielectric constant tensor:
#      x y z
#    x 1.581020 0.000000 0.000000 
#    y 0.000000 1.587410 0.000000 
#    z 0.000000 0.000000 1.594300 
# 
# From -- ./inp_files/60160.got.cif
#   From: 2010.05.17/outbox.cif.g08.bks.cpg/sg65_31_cif.got.tgz:60160.got - 2010.06.03 17:01:31.
