data_PCOD9490405
_publ_section_title
;
Structure prediction by ZEFSAII (Michael W. Deem and Ramdas Pophale) SiO2 
 PCOD9490405
Probable space group: C M M M
;
_chemical_formula_sum "Si O2"
_cell_formula_units_Z 72
_cell_length_a 14.358759
_cell_length_b 10.045499
_cell_length_c 28.264083
_cell_angle_alpha 90.000000
_cell_angle_beta 90.000000
_cell_angle_gamma 90.000000
_cell_volume 4076.836746
_symmetry_space_group_name_H-M "C M M M"
_symmetry_group_IT_number 65
_symmetry_cell_setting 'orthorhombic'
loop_
_space_group_symop_operation_xyz
x,y,z
-x,-y,z
x,-y,-z
-x,y,-z
-x,-y,-z
x,y,-z
-x,y,z
x,-y,z
1/2+x,1/2+y,z
1/2-x,1/2-y,z
1/2+x,1/2-y,-z
1/2-x,1/2+y,-z
1/2-x,1/2-y,-z
1/2+x,1/2+y,-z
1/2-x,1/2+y,z
1/2+x,1/2-y,z
loop_
_atom_site_type_symbol
_atom_site_label
_atom_site_fract_x
_atom_site_fract_y
_atom_site_fract_z
Si Si1 0.000000 0.147466 0.793247
Si Si2 0.185541 0.000000 0.054121
Si Si3 0.144841 0.773643 0.128996
Si Si4 0.500000 0.844837 0.293959
Si Si5 0.500000 0.838638 0.553853
Si Si6 0.399199 0.000000 0.919167
Si Si7 0.658420 0.159345 0.372089
O O1 0.086551 0.165763 0.828618
O O2 0.000000 0.254194 0.751912
O O3 0.000000 0.000000 0.772581
O O4 0.150798 0.127323 0.083925
O O5 0.299163 0.000000 0.054407
O O6 0.153549 0.000000 0.000000
O O7 0.250000 0.750000 0.144908
O O8 0.104739 0.632908 0.112284
O O9 0.409106 0.821787 0.326719
O O10 0.500000 0.000000 0.280491
O O11 0.500000 0.790090 0.500000
O O12 0.592438 0.802380 0.583371
O O13 0.500000 0.000000 0.553196
O O14 0.500000 0.000000 0.944418
O O15 0.750000 0.250000 0.369900
O O16 0.679553 0.000000 0.375069
#
# Coordination Sequence:
#
# PCOD9490405 Si02
#       7
#     8   8  16   8   8   8  16
#     4  12  23  39  61  84 109 142 182 225 276 340
#     4  10  22  42  60  78 115 151 174 215 271 324
#     4  10  22  39  59  84 113 142 174 218 271 324
#     4   9  22  39  56  81 109 145 186 232 286 342
#     4   8  15  30  53  81 117 165 205 237 284 339
#     4  10  20  35  61  85 112 138 179 223 255 309
#     4   9  18  35  56  81 117 151 194 244 286 337
#
# _framework density 17.660751999999999
#
# number of rings (size 3 to 8) (size 9 to 14) (size 15 to 20)
#    0.000    2.333    2.222    1.333    1.556    6.444 
#    0.000    5.000    0.000    0.667    0.000    0.000 
#    0.000    0.000    0.000    0.000    0.000    0.000 
#
# Total GULP energy -200704.011432 kJ/mol
# GULP energy per Si atom -5575.111429 kJ/mol
# Density = 1.762056 g / cm^3
# Si number density = 17.660752 Si / 1000 Ang^3
#
#
#
# Elastic Constant Matrix: (Units=GPa)
#
#
# Indices 1 2 3 4 5 6 
#
# 1 137.0689 69.1564 65.3208 0.0000 0.0000 0.0000
# 2 69.1564 109.7964 61.7342 0.0000 0.0000 0.0000
# 3 65.3208 61.7342 132.8470 0.0000 0.0000 0.0000
# 4 0.0000 0.0000 0.0000 19.0592 0.0000 0.0000
# 5 0.0000 0.0000 0.0000 0.0000 5.2044 0.0000
# 6 0.0000 0.0000 0.0000 0.0000 0.0000 94.1693
#
#
#
# Elastic Compliance Matrix: (Units=1/GPa)
#
#
# Indices 1 2 3 4 5 6 
#
# 1 0.011576 -0.005538 -0.003118 0.000000 0.000000 0.000000
# 2 -0.005538 0.014978 -0.004238 0.000000 0.000000 0.000000
# 3 -0.003118 -0.004238 0.011030 0.000000 0.000000 0.000000
# 4 0.000000 0.000000 0.000000 0.052468 0.000000 0.000000
# 5 0.000000 0.000000 0.000000 0.000000 0.192146 0.000000
# 6 0.000000 0.000000 0.000000 0.000000 0.000000 0.010619
#
#
# Mechanical properties :
#
#
# Convention : Reuss Voigt Hill
#
# Bulk Modulus (GPa) = 84.76959 85.79279 85.28119
# Shear Modulus (GPa) = 15.50212 35.91998 25.71105
#
# Velocity S-wave (km/s) = 2.96594 4.51476 3.81967
# Velocity P-wave (km/s) = 7.73512 8.70982 8.23690
#
# Compressibility (1/GPa) = 0.01179668
#
# Stress axis : x y z
#
# Youngs Moduli (GPa) = 86.38824 66.76291 90.66211
#
# Poissons Ratio (x) = 0.36971 0.28272
# Poissons Ratio (y) = 0.47839 0.38419
# Poissons Ratio (z) = 0.26939 0.28291
#
# Static dielectric constant tensor:
#      x y z
#    x 1.620860 0.000000 0.000000 
#    y 0.000000 1.597130 0.000000 
#    z 0.000000 0.000000 1.572900 
# 
# From -- ./inp_files/77584.got.cif
#   From: 2010.05.17/outbox.cif.g08.bks.cpg/sg65_39_cif.got.tgz:77584.got - 2010.06.03 17:01:31.
