data_PCOD9490540
_publ_section_title
;
Structure prediction by ZEFSAII (Michael W. Deem and Ramdas Pophale) SiO2 
 PCOD9490540
Probable space group: C M M M
;
_chemical_formula_sum "Si O2"
_cell_formula_units_Z 100
_cell_length_a 7.461547
_cell_length_b 29.562834
_cell_length_c 21.032557
_cell_angle_alpha 90.000000
_cell_angle_beta 90.000000
_cell_angle_gamma 90.000000
_cell_volume 4639.455551
_symmetry_space_group_name_H-M "C M M M"
_symmetry_group_IT_number 65
_symmetry_cell_setting 'orthorhombic'
loop_
_space_group_symop_operation_xyz
x,y,z
-x,-y,z
x,-y,-z
-x,y,-z
-x,-y,-z
x,y,-z
-x,y,z
x,-y,z
1/2+x,1/2+y,z
1/2-x,1/2-y,z
1/2+x,1/2-y,-z
1/2-x,1/2+y,-z
1/2-x,1/2-y,-z
1/2+x,1/2+y,-z
1/2-x,1/2+y,z
1/2+x,1/2-y,z
loop_
_atom_site_type_symbol
_atom_site_label
_atom_site_fract_x
_atom_site_fract_y
_atom_site_fract_z
Si Si1 0.710665 0.050665 0.164482
Si Si2 0.779864 0.643021 0.109692
Si Si3 0.213149 0.302020 0.622589
Si Si4 0.000000 0.166390 0.000000
Si Si5 0.708094 0.605003 0.568685
Si Si6 0.212721 0.697803 0.234391
Si Si7 0.716011 0.447779 0.309113
O O1 0.500000 0.046945 0.152223
O O2 0.772960 0.090190 0.118086
O O3 0.728313 0.065822 0.238072
O O4 0.789160 0.000000 0.158692
O O5 0.659420 0.664379 0.055166
O O6 0.730648 0.666494 0.176676
O O7 0.000000 0.646631 0.100819
O O8 0.250000 0.250000 0.605211
O O9 0.285984 0.341114 0.577959
O O10 0.285681 0.310056 0.694501
O O11 0.000000 0.307425 0.623073
O O12 0.787675 0.592832 0.500000
O O13 0.500000 0.590962 0.566951
O O14 0.784609 0.582257 0.632469
O O15 0.250000 0.750000 0.218528
O O16 0.000000 0.691891 0.239520
O O17 0.500000 0.446166 0.308747
O O18 0.771317 0.500000 0.317984
#
# Coordination Sequence:
#
# PCOD9490540 Si02
#       7
#    16  16  16   4  16  16  16
#     4   9  18  35  60  86 112 145 183 234 293 336
#     4  10  22  41  60  84 121 153 192 239 279 339
#     4  10  20  36  57  84 109 138 182 236 292 339
#     4  12  26  40  63  88 114 168 194 220 283 346
#     4  10  21  35  50  73 110 154 194 228 278 343
#     4   9  19  35  60  86 112 141 182 239 288 335
#     4   9  18  32  53  82 112 141 186 241 284 331
#
# _framework density 21.554255000000001
#
# number of rings (size 3 to 8) (size 9 to 14) (size 15 to 20)
#    0.000    2.400    0.000    1.680    2.240    3.520 
#    0.000    2.800    0.000    1.920    0.000    3.360 
#    0.000    0.000    0.000    0.000    0.000    0.000 
#
# Total GULP energy -278474.716141 kJ/mol
# GULP energy per Si atom -5569.494323 kJ/mol
# Density = 2.150520 g / cm^3
# Si number density = 21.554255 Si / 1000 Ang^3
#
#
#
# Elastic Constant Matrix: (Units=GPa)
#
#
# Indices 1 2 3 4 5 6 
#
# 1 78.3558 -5.3442 -1.7312 0.0000 0.0000 0.0000
# 2 -5.3442 27.3145 7.3360 0.0000 0.0000 0.0000
# 3 -1.7312 7.3360 7.8921 0.0000 0.0000 0.0000
# 4 0.0000 0.0000 0.0000 13.4210 0.0000 0.0000
# 5 0.0000 0.0000 0.0000 0.0000 12.3584 0.0000
# 6 0.0000 0.0000 0.0000 0.0000 0.0000 12.1434
#
#
#
# Elastic Compliance Matrix: (Units=1/GPa)
#
#
# Indices 1 2 3 4 5 6 
#
# 1 0.012937 0.002358 0.000646 0.000000 0.000000 0.000000
# 2 0.002358 0.049221 -0.045236 0.000000 0.000000 0.000000
# 3 0.000646 -0.045236 0.168900 0.000000 0.000000 0.000000
# 4 0.000000 0.000000 0.000000 0.074510 0.000000 0.000000
# 5 0.000000 0.000000 0.000000 0.000000 0.080917 0.000000
# 6 0.000000 0.000000 0.000000 0.000000 0.000000 0.082349
#
#
# Mechanical properties :
#
#
# Convention : Reuss Voigt Hill
#
# Bulk Modulus (GPa) = 6.82154 12.67597 9.74875
# Shear Modulus (GPa) = 8.30338 15.13801 11.72069
#
# Velocity S-wave (km/s) = 1.96486 2.65301 2.33443
# Velocity P-wave (km/s) = 2.88431 3.90875 3.43494
#
# Compressibility (1/GPa) = 0.14659453
#
# Stress axis : x y z
#
# Youngs Moduli (GPa) = 77.29536 20.31642 5.92065
#
# Poissons Ratio (x) = -0.04790 -0.00383
# Poissons Ratio (y) = -0.18224 0.26783
# Poissons Ratio (z) = -0.04996 0.91904
#
# Static dielectric constant tensor:
#      x y z
#    x 1.808230 0.000000 0.000000 
#    y 0.000000 1.799730 0.000000 
#    z 0.000000 0.000000 1.777890 
# 
# From -- ./inp_files/60845.got.cif
#   From: 2010.05.17/outbox.cif.g08.bks.cpg/sg65_31_cif.got.tgz:60845.got - 2010.06.03 17:01:31.
