data_PCOD9490401
_publ_section_title
;
Structure prediction by ZEFSAII (Michael W. Deem and Ramdas Pophale) SiO2 
 PCOD9490401
Probable space group: C M M M
;
_chemical_formula_sum "Si O2"
_cell_formula_units_Z 64
_cell_length_a 8.328672
_cell_length_b 25.108471
_cell_length_c 15.096613
_cell_angle_alpha 90.000000
_cell_angle_beta 90.000000
_cell_angle_gamma 90.000000
_cell_volume 3157.007022
_symmetry_space_group_name_H-M "C M M M"
_symmetry_group_IT_number 65
_symmetry_cell_setting 'orthorhombic'
loop_
_space_group_symop_operation_xyz
x,y,z
-x,-y,z
x,-y,-z
-x,y,-z
-x,-y,-z
x,y,-z
-x,y,z
x,-y,z
1/2+x,1/2+y,z
1/2-x,1/2-y,z
1/2+x,1/2-y,-z
1/2-x,1/2+y,-z
1/2-x,1/2-y,-z
1/2+x,1/2+y,-z
1/2-x,1/2+y,z
1/2+x,1/2-y,z
loop_
_atom_site_type_symbol
_atom_site_label
_atom_site_fract_x
_atom_site_fract_y
_atom_site_fract_z
Si Si1 0.321217 0.500000 0.309947
Si Si2 0.233789 0.000000 0.897211
Si Si3 0.192829 0.605826 0.600445
Si Si4 0.693019 0.810511 0.743541
Si Si5 0.809902 0.115264 0.900753
O O1 0.500000 0.500000 0.346966
O O2 0.331944 0.500000 0.203583
O O3 0.236763 0.447083 0.345425
O O4 0.295635 0.061081 0.895745
O O5 0.166081 0.000000 0.000000
O O6 0.255471 0.603851 0.500000
O O7 0.247324 0.656981 0.656374
O O8 0.000000 0.608157 0.595824
O O9 0.500000 0.811981 0.748018
O O10 0.750000 0.750000 0.742792
O O11 0.762294 0.842844 0.826992
O O12 0.000000 0.099600 0.889792
O O13 0.793666 0.137278 0.000000
#
# Coordination Sequence:
#
# PCOD9490401 Si02
#       5
#     8   8  16  16  16
#     4  12  22  35  63  97 126 155 195 242 287 344
#     4  10  20  35  60  94 129 161 191 231 290 352
#     4  10  23  43  63  85 119 160 196 238 299 361
#     4  11  24  41  62  86 115 153 201 250 299 349
#     4  10  20  37  62  90 122 160 197 236 289 351
#
# _framework density 20.272364
#
# number of rings (size 3 to 8) (size 9 to 14) (size 15 to 20)
#    0.000    1.500    2.500    2.625    0.000    7.250 
#    0.000    0.625    0.000    3.750    0.000    0.000 
#    0.000    0.000    0.000    0.000    0.000    0.000 
#
# Total GULP energy -178231.221128 kJ/mol
# GULP energy per Si atom -5569.725660 kJ/mol
# Density = 2.022622 g / cm^3
# Si number density = 20.272364 Si / 1000 Ang^3
#
#
#
# Elastic Constant Matrix: (Units=GPa)
#
#
# Indices 1 2 3 4 5 6 
#
# 1 29.6641 17.6303 29.3480 0.0000 0.0000 0.0000
# 2 17.6303 177.2664 95.4957 0.0000 0.0000 0.0000
# 3 29.3480 95.4957 195.1339 0.0000 0.0000 0.0000
# 4 0.0000 0.0000 0.0000 11.8938 0.0000 0.0000
# 5 0.0000 0.0000 0.0000 0.0000 5.7985 0.0000
# 6 0.0000 0.0000 0.0000 0.0000 0.0000 -122.2965
#
#
#
# Elastic Compliance Matrix: (Units=1/GPa)
#
#
# Indices 1 2 3 4 5 6 
#
# 1 0.039732 -0.000995 -0.005489 0.000000 0.000000 0.000000
# 2 -0.000995 0.007686 -0.003612 0.000000 0.000000 0.000000
# 3 -0.005489 -0.003612 0.007718 0.000000 0.000000 0.000000
# 4 0.000000 0.000000 0.000000 0.084077 0.000000 0.000000
# 5 0.000000 0.000000 0.000000 0.000000 0.172458 0.000000
# 6 0.000000 0.000000 0.000000 0.000000 0.000000 -0.008177
#
#
# Mechanical properties :
#
#
# Convention : Reuss Voigt Hill
#
# Bulk Modulus (GPa) = 28.61616 76.33472 52.47544
# Shear Modulus (GPa) = 14.91051 -3.61480 5.64785
#
# Velocity S-wave (km/s) = 2.71497 -1.33678 1.67094
# Velocity P-wave (km/s) = 4.89638 5.94589 5.44648
#
# Compressibility (1/GPa) = 0.03494529
#
# Stress axis : x y z
#
# Youngs Moduli (GPa) = 25.16836 130.10923 129.57131
#
# Poissons Ratio (x) = 0.12942 0.71121
# Poissons Ratio (y) = 0.02503 0.46798
# Poissons Ratio (z) = 0.13815 0.46992
#
# Static dielectric constant tensor:
#      x y z
#    x 1.755730 0.000000 0.000000 
#    y 0.000000 1.694130 0.000000 
#    z 0.000000 0.000000 1.705270 
# 
# From -- ./inp_files/36065.got.cif
#   From: 2010.05.17/outbox.cif.g08.bks.cpg/sg65_19_cif.got.tgz:36065.got - 2010.06.03 17:01:31.
