data_PCOD9490176
_publ_section_title
;
Structure prediction by ZEFSAII (Michael W. Deem and Ramdas Pophale) SiO2 
 PCOD9490176
Probable space group: C M M M
;
_chemical_formula_sum "Si O2"
_cell_formula_units_Z 80
_cell_length_a 7.728091
_cell_length_b 18.019598
_cell_length_c 30.288153
_cell_angle_alpha 90.000000
_cell_angle_beta 90.000000
_cell_angle_gamma 90.000000
_cell_volume 4217.840143
_symmetry_space_group_name_H-M "C M M M"
_symmetry_group_IT_number 65
_symmetry_cell_setting 'orthorhombic'
loop_
_space_group_symop_operation_xyz
x,y,z
-x,-y,z
x,-y,-z
-x,y,-z
-x,-y,-z
x,y,-z
-x,y,z
x,-y,z
1/2+x,1/2+y,z
1/2-x,1/2-y,z
1/2+x,1/2-y,-z
1/2-x,1/2+y,-z
1/2-x,1/2-y,-z
1/2+x,1/2+y,-z
1/2-x,1/2+y,z
1/2+x,1/2-y,z
loop_
_atom_site_type_symbol
_atom_site_label
_atom_site_fract_x
_atom_site_fract_y
_atom_site_fract_z
Si Si1 0.289657 0.086061 0.138125
Si Si2 0.000000 0.410989 0.716409
Si Si3 0.197923 0.909618 0.550006
Si Si4 0.197905 0.836048 0.771814
Si Si5 0.291940 0.836744 0.048814
Si Si6 0.000000 0.409394 0.614469
O O1 0.500000 0.091457 0.139894
O O2 0.217200 0.133426 0.178465
O O3 0.229999 0.116996 0.090768
O O4 0.243323 0.000000 0.143265
O O5 0.831919 0.380428 0.741468
O O6 0.000000 0.386674 0.665324
O O7 0.000000 0.500000 0.718457
O O8 0.247855 0.887493 0.500000
O O9 0.332128 0.884664 0.586926
O O10 0.000000 0.886503 0.558086
O O11 0.199534 0.000000 0.550313
O O12 0.250000 0.750000 0.771221
O O13 0.000000 0.844905 0.757248
O O14 0.500000 0.844302 0.047946
O O15 0.250000 0.750000 0.055007
O O16 0.226646 0.858871 0.000000
O O17 0.000000 0.500000 0.614331
#
# Coordination Sequence:
#
# PCOD9490176 Si02
#       6
#    16   8  16  16  16   8
#     4  10  20  35  56  83 116 147 185 242 298 354
#     4  11  24  41  60  91 126 155 198 256 309 363
#     4   8  13  22  39  66 104 151 198 237 280 344
#     4  12  24  42  66  87 113 155 201 248 302 365
#     4   9  18  32  51  76 107 147 190 230 280 345
#     4   9  17  28  45  70 110 154 189 234 298 355
#
# _framework density 18.967054999999998
#
# number of rings (size 3 to 8) (size 9 to 14) (size 15 to 20)
#    0.000    2.200    2.000    2.100    0.000    6.400 
#    0.000    4.000    0.000    0.000    0.000    4.200 
#    0.000    3.200    0.000    0.000    0.000    0.000 
#
# Total GULP energy -223287.127819 kJ/mol
# GULP energy per Si atom -5582.178195 kJ/mol
# Density = 1.892388 g / cm^3
# Si number density = 18.967055 Si / 1000 Ang^3
#
#
#
# Elastic Constant Matrix: (Units=GPa)
#
#
# Indices 1 2 3 4 5 6 
#
# 1 113.6647 34.1376 77.4546 0.0000 0.0000 0.0000
# 2 34.1376 64.5186 48.4636 0.0000 0.0000 0.0000
# 3 77.4546 48.4636 162.0310 0.0000 0.0000 0.0000
# 4 0.0000 0.0000 0.0000 7.3823 0.0000 0.0000
# 5 0.0000 0.0000 0.0000 0.0000 -9.0530 0.0000
# 6 0.0000 0.0000 0.0000 0.0000 0.0000 17.2952
#
#
#
# Elastic Compliance Matrix: (Units=1/GPa)
#
#
# Indices 1 2 3 4 5 6 
#
# 1 0.013471 -0.002954 -0.005556 0.000000 0.000000 0.000000
# 2 -0.002954 0.020639 -0.004761 0.000000 0.000000 0.000000
# 3 -0.005556 -0.004761 0.010251 0.000000 0.000000 0.000000
# 4 0.000000 0.000000 0.000000 0.135459 0.000000 0.000000
# 5 0.000000 0.000000 0.000000 0.000000 -0.110460 0.000000
# 6 0.000000 0.000000 0.000000 0.000000 0.000000 0.057820
#
#
# Mechanical properties :
#
#
# Convention : Reuss Voigt Hill
#
# Bulk Modulus (GPa) = 56.11933 73.36955 64.74444
# Shear Modulus (GPa) = 31.31624 15.13545 23.22584
#
# Velocity S-wave (km/s) = 4.06776 2.82793 3.50313
# Velocity P-wave (km/s) = 7.19127 7.03061 7.11139
#
# Compressibility (1/GPa) = 0.01781917
#
# Stress axis : x y z
#
# Youngs Moduli (GPa) = 74.23347 48.45265 97.54754
#
# Poissons Ratio (x) = 0.14315 0.54195
# Poissons Ratio (y) = 0.21932 0.46440
# Poissons Ratio (z) = 0.41243 0.23067
#
# Static dielectric constant tensor:
#      x y z
#    x 1.676770 0.000000 0.000000 
#    y 0.000000 1.628950 0.000000 
#    z 0.000000 0.000000 1.647920 
# 
# From -- ./inp_files/72971.got.cif
#   From: 2010.05.17/outbox.cif.g08.bks.cpg/sg65_37_cif.got.tgz:72971.got - 2010.06.03 17:01:31.
