data_PCOD9490886
_publ_section_title
;
Structure prediction by ZEFSAII (Michael W. Deem and Ramdas Pophale) SiO2 
 PCOD9490886
Probable space group: C M M M
;
_chemical_formula_sum "Si O2"
_cell_formula_units_Z 56
_cell_length_a 17.037923
_cell_length_b 11.078533
_cell_length_c 16.049979
_cell_angle_alpha 90.000000
_cell_angle_beta 90.000000
_cell_angle_gamma 90.000000
_cell_volume 3029.516871
_symmetry_space_group_name_H-M "C M M M"
_symmetry_group_IT_number 65
_symmetry_cell_setting 'orthorhombic'
loop_
_space_group_symop_operation_xyz
x,y,z
-x,-y,z
x,-y,-z
-x,y,-z
-x,-y,-z
x,y,-z
-x,y,z
x,-y,z
1/2+x,1/2+y,z
1/2-x,1/2-y,z
1/2+x,1/2-y,-z
1/2-x,1/2+y,-z
1/2-x,1/2-y,-z
1/2+x,1/2+y,-z
1/2-x,1/2+y,z
1/2+x,1/2-y,z
loop_
_atom_site_type_symbol
_atom_site_label
_atom_site_fract_x
_atom_site_fract_y
_atom_site_fract_z
Si Si1 0.410575 0.642748 0.332286
Si Si2 0.094037 0.500000 0.098469
Si Si3 0.811985 0.138489 0.000000
Si Si4 0.404267 0.738154 0.154306
Si Si5 0.188492 0.141833 0.500000
O O1 0.500000 0.684861 0.346162
O O2 0.412790 0.500000 0.315452
O O3 0.380603 0.702844 0.247609
O O4 0.362164 0.658936 0.416251
O O5 0.122324 0.624629 0.136968
O O6 0.000000 0.500000 0.110550
O O7 0.107021 0.500000 0.000000
O O8 0.750000 0.250000 0.000000
O O9 0.865236 0.158306 0.082289
O O10 0.781635 0.000000 0.000000
O O11 0.500000 0.729661 0.148180
O O12 0.250000 0.250000 0.500000
O O13 0.216145 0.000000 0.500000
#
# Coordination Sequence:
#
# PCOD9490886 Si02
#       5
#    16   8   8  16   8
#     4   9  18  35  61  88 111 142 191 246 289 330
#     4   9  16  30  56  85 113 151 187 228 285 342
#     4  12  27  39  54  82 118 157 192 237 291 343
#     4  10  20  37  62  86 113 148 197 247 288 337
#     4  10  21  39  61  85 117 154 188 226 284 352
#
# _framework density 18.484794999999998
#
# number of rings (size 3 to 8) (size 9 to 14) (size 15 to 20)
#    0.000    2.143    1.429    1.714    2.000    5.143 
#    2.571    0.000    0.000    0.857    0.000    0.000 
#    0.000    0.000    0.000    0.000    0.000    0.000 
#
# Total GULP energy -156176.196460 kJ/mol
# GULP energy per Si atom -5577.721302 kJ/mol
# Density = 1.844272 g / cm^3
# Si number density = 18.484795 Si / 1000 Ang^3
#
#
#
# Elastic Constant Matrix: (Units=GPa)
#
#
# Indices 1 2 3 4 5 6 
#
# 1 21.7215 33.1430 15.3119 0.0000 0.0000 0.0000
# 2 33.1430 113.8412 66.9009 0.0000 0.0000 0.0000
# 3 15.3119 66.9009 129.7911 0.0000 0.0000 0.0000
# 4 0.0000 0.0000 0.0000 39.0205 0.0000 0.0000
# 5 0.0000 0.0000 0.0000 0.0000 3.6962 0.0000
# 6 0.0000 0.0000 0.0000 0.0000 0.0000 27.2274
#
#
#
# Elastic Compliance Matrix: (Units=1/GPa)
#
#
# Indices 1 2 3 4 5 6 
#
# 1 0.084170 -0.026782 0.003875 0.000000 0.000000 0.000000
# 2 -0.026782 0.021123 -0.007728 0.000000 0.000000 0.000000
# 3 0.003875 -0.007728 0.011231 0.000000 0.000000 0.000000
# 4 0.000000 0.000000 0.000000 0.025628 0.000000 0.000000
# 5 0.000000 0.000000 0.000000 0.000000 0.270549 0.000000
# 6 0.000000 0.000000 0.000000 0.000000 0.000000 0.036728
#
#
# Mechanical properties :
#
#
# Convention : Reuss Voigt Hill
#
# Bulk Modulus (GPa) = 18.09840 55.11839 36.60839
# Shear Modulus (GPa) = 9.44972 23.98870 16.71921
#
# Velocity S-wave (km/s) = 2.26346 3.60634 3.01073
# Velocity P-wave (km/s) = 4.07961 6.87196 5.65098
#
# Compressibility (1/GPa) = 0.05525351
#
# Stress axis : x y z
#
# Youngs Moduli (GPa) = 11.88073 47.34194 89.03845
#
# Poissons Ratio (x) = 1.26790 -0.34501
# Poissons Ratio (y) = 0.31819 0.68811
# Poissons Ratio (z) = -0.04604 0.36587
#
# Static dielectric constant tensor:
#      x y z
#    x 1.674930 0.000000 0.000000 
#    y 0.000000 1.641420 0.000000 
#    z 0.000000 0.000000 1.608840 
# 
# From -- ./inp_files/41824.got.cif
#   From: 2010.05.17/outbox.cif.g08.bks.cpg/sg65_21_cif.got.tgz:41824.got - 2010.06.03 17:01:31.
