data_PCOD9490485
_publ_section_title
;
Structure prediction by ZEFSAII (Michael W. Deem and Ramdas Pophale) SiO2 
 PCOD9490485
Probable space group: C M M M
;
_chemical_formula_sum "Si O2"
_cell_formula_units_Z 64
_cell_length_a 14.597891
_cell_length_b 15.644254
_cell_length_c 13.045014
_cell_angle_alpha 90.000000
_cell_angle_beta 90.000000
_cell_angle_gamma 90.000000
_cell_volume 2979.130478
_symmetry_space_group_name_H-M "C M M M"
_symmetry_group_IT_number 65
_symmetry_cell_setting 'orthorhombic'
loop_
_space_group_symop_operation_xyz
x,y,z
-x,-y,z
x,-y,-z
-x,y,-z
-x,-y,-z
x,y,-z
-x,y,z
x,-y,z
1/2+x,1/2+y,z
1/2-x,1/2-y,z
1/2+x,1/2-y,-z
1/2-x,1/2+y,-z
1/2-x,1/2-y,-z
1/2+x,1/2+y,-z
1/2-x,1/2+y,z
1/2+x,1/2-y,z
loop_
_atom_site_type_symbol
_atom_site_label
_atom_site_fract_x
_atom_site_fract_y
_atom_site_fract_z
Si Si1 0.894718 0.326408 0.769230
Si Si2 0.227739 0.900907 0.689633
Si Si3 0.609300 0.000000 0.109989
Si Si4 0.897593 0.896252 0.500000
Si Si5 0.607391 0.353447 0.120241
O O1 0.813633 0.336302 0.688062
O O2 0.873824 0.412727 0.831950
O O3 0.886129 0.245839 0.844536
O O4 0.000000 0.328075 0.731807
O O5 0.156173 0.873582 0.602663
O O6 0.173483 0.898274 0.798118
O O7 0.255168 0.000000 0.669078
O O8 0.500000 0.000000 0.098360
O O9 0.655599 0.000000 0.000000
O O10 0.000000 0.861228 0.500000
O O11 0.903183 0.000000 0.500000
O O12 0.500000 0.378991 0.132798
O O13 0.630676 0.363678 0.000000
#
# Coordination Sequence:
#
# PCOD9490485 Si02
#       5
#    16  16   8   8  16
#     4  10  20  36  56  83 120 156 192 234 283 348
#     4  11  22  38  61  89 114 150 197 246 294 349
#     4   9  16  28  50  77 107 150 196 229 264 324
#     4   9  20  40  64  85 111 150 199 248 292 344
#     4  10  22  39  58  84 121 160 195 237 292 348
#
# _framework density 21.482778
#
# number of rings (size 3 to 8) (size 9 to 14) (size 15 to 20)
#    0.000    2.000    1.250    2.250    0.000    8.000 
#    0.000    4.375    0.000    5.250    0.000    0.000 
#    0.000    0.000    0.000    0.000    0.000    0.000 
#
# Total GULP energy -178581.246139 kJ/mol
# GULP energy per Si atom -5580.663942 kJ/mol
# Density = 2.143388 g / cm^3
# Si number density = 21.482778 Si / 1000 Ang^3
#
#
#
# Elastic Constant Matrix: (Units=GPa)
#
#
# Indices 1 2 3 4 5 6 
#
# 1 151.1774 12.0998 86.1609 0.0000 0.0000 0.0000
# 2 12.0998 56.2947 0.0293 0.0000 0.0000 0.0000
# 3 86.1609 0.0293 97.1677 0.0000 0.0000 0.0000
# 4 0.0000 0.0000 0.0000 19.0772 0.0000 0.0000
# 5 0.0000 0.0000 0.0000 0.0000 27.0957 0.0000
# 6 0.0000 0.0000 0.0000 0.0000 0.0000 30.2245
#
#
#
# Elastic Compliance Matrix: (Units=1/GPa)
#
#
# Indices 1 2 3 4 5 6 
#
# 1 0.013853 -0.002971 -0.012283 0.000000 0.000000 0.000000
# 2 -0.002971 0.018401 0.002629 0.000000 0.000000 0.000000
# 3 -0.012283 0.002629 0.021182 0.000000 0.000000 0.000000
# 4 0.000000 0.000000 0.000000 0.052419 0.000000 0.000000
# 5 0.000000 0.000000 0.000000 0.000000 0.036906 0.000000
# 6 0.000000 0.000000 0.000000 0.000000 0.000000 0.033086
#
#
# Mechanical properties :
#
#
# Convention : Reuss Voigt Hill
#
# Bulk Modulus (GPa) = 35.47842 55.69108 45.58475
# Shear Modulus (GPa) = 23.75389 29.03614 26.39501
#
# Velocity S-wave (km/s) = 3.32884 3.68040 3.50903
# Velocity P-wave (km/s) = 5.59693 6.63629 6.13864
#
# Compressibility (1/GPa) = 0.02818615
#
# Stress axis : x y z
#
# Youngs Moduli (GPa) = 72.18690 54.34514 47.20951
#
# Poissons Ratio (x) = 0.16147 0.57987
# Poissons Ratio (y) = 0.21448 -0.12411
# Poissons Ratio (z) = 0.88666 -0.14287
#
# Static dielectric constant tensor:
#      x y z
#    x 1.826570 0.000000 0.000000 
#    y 0.000000 1.801800 0.000000 
#    z 0.000000 0.000000 1.844070 
# 
# From -- ./inp_files/23934.got.cif
#   From: 2010.05.17/outbox.cif.g08.bks.cpg/sg65_12_cif.got.tgz:23934.got - 2010.06.03 17:01:31.
