data_PCOD9490727
_publ_section_title
;
Structure prediction by ZEFSAII (Michael W. Deem and Ramdas Pophale) SiO2 
 PCOD9490727
Probable space group: C M M M
;
_chemical_formula_sum "Si O2"
_cell_formula_units_Z 88
_cell_length_a 23.789034
_cell_length_b 23.355495
_cell_length_c 7.905845
_cell_angle_alpha 90.000000
_cell_angle_beta 90.000000
_cell_angle_gamma 90.000000
_cell_volume 4392.524360
_symmetry_space_group_name_H-M "C M M M"
_symmetry_group_IT_number 65
_symmetry_cell_setting 'orthorhombic'
loop_
_space_group_symop_operation_xyz
x,y,z
-x,-y,z
x,-y,-z
-x,y,-z
-x,-y,-z
x,y,-z
-x,y,z
x,-y,z
1/2+x,1/2+y,z
1/2-x,1/2-y,z
1/2+x,1/2-y,-z
1/2-x,1/2+y,-z
1/2-x,1/2-y,-z
1/2+x,1/2+y,-z
1/2-x,1/2+y,z
1/2+x,1/2-y,z
loop_
_atom_site_type_symbol
_atom_site_label
_atom_site_fract_x
_atom_site_fract_y
_atom_site_fract_z
Si Si1 0.431809 0.060756 0.800393
Si Si2 0.739831 0.345565 0.190906
Si Si3 0.327991 0.758026 0.308452
Si Si4 0.935436 0.685558 0.794659
Si Si5 0.434792 0.430393 0.000000
Si Si6 0.852108 0.068380 0.693075
O O1 0.500000 0.060650 0.793438
O O2 0.415994 0.122585 0.731296
O O3 0.412154 0.000000 0.726240
O O4 0.417114 0.060464 0.000000
O O5 0.697296 0.291446 0.192829
O O6 0.794412 0.317193 0.276088
O O7 0.705512 0.396883 0.276032
O O8 0.754361 0.362045 0.000000
O O9 0.317819 0.739455 0.500000
O O10 0.392806 0.768300 0.274007
O O11 0.000000 0.694591 0.746141
O O12 0.933058 0.684910 0.000000
O O13 0.398315 0.413929 0.834020
O O14 0.437085 0.500000 0.000000
O O15 0.500000 0.410280 0.000000
O O16 0.871159 0.078808 0.500000
O O17 0.842962 0.000000 0.712596
#
# Coordination Sequence:
#
# PCOD9490727 Si02
#       6
#    16  16  16  16   8  16
#     4   7  10  19  39  66  93 124 165 211 256 304
#     4  11  21  38  62  83 107 141 190 239 285 342
#     4  11  22  36  55  80 109 144 188 232 287 347
#     4   9  17  31  51  75 105 140 180 227 279 333
#     4   9  18  34  56  85 120 158 197 232 278 346
#     4  10  20  36  60  90 123 156 191 238 294 346
#
# _framework density 20.034037999999999
#
# number of rings (size 3 to 8) (size 9 to 14) (size 15 to 20)
#    0.000    2.455    0.909    6.000    0.000    0.727 
#    0.000    3.636    0.000    6.000    0.000    2.545 
#    0.000    0.000    0.000    0.000    0.000    0.000 
#
# Total GULP energy -245206.885414 kJ/mol
# GULP energy per Si atom -5572.883759 kJ/mol
# Density = 1.998844 g / cm^3
# Si number density = 20.034038 Si / 1000 Ang^3
#
#
#
# Elastic Constant Matrix: (Units=GPa)
#
#
# Indices 1 2 3 4 5 6 
#
# 1 66.0898 26.0335 11.4093 0.0000 0.0000 0.0000
# 2 26.0335 30.1973 9.3658 0.0000 0.0000 0.0000
# 3 11.4093 9.3658 88.4533 0.0000 0.0000 0.0000
# 4 0.0000 0.0000 0.0000 12.5704 0.0000 0.0000
# 5 0.0000 0.0000 0.0000 0.0000 48.8832 0.0000
# 6 0.0000 0.0000 0.0000 0.0000 0.0000 24.9666
#
#
#
# Elastic Compliance Matrix: (Units=1/GPa)
#
#
# Indices 1 2 3 4 5 6 
#
# 1 0.022980 -0.019534 -0.000896 0.000000 0.000000 0.000000
# 2 -0.019534 0.050844 -0.002864 0.000000 0.000000 0.000000
# 3 -0.000896 -0.002864 0.011724 0.000000 0.000000 0.000000
# 4 0.000000 0.000000 0.000000 0.079552 0.000000 0.000000
# 5 0.000000 0.000000 0.000000 0.000000 0.020457 0.000000
# 6 0.000000 0.000000 0.000000 0.000000 0.000000 0.040053
#
#
# Mechanical properties :
#
#
# Convention : Reuss Voigt Hill
#
# Bulk Modulus (GPa) = 25.66639 30.92862 28.29751
# Shear Modulus (GPa) = 17.53248 26.47949 22.00598
#
# Velocity S-wave (km/s) = 2.96148 3.63950 3.31785
# Velocity P-wave (km/s) = 4.95308 5.75611 5.36963
#
# Compressibility (1/GPa) = 0.03896146
#
# Stress axis : x y z
#
# Youngs Moduli (GPa) = 43.51592 19.66798 85.29367
#
# Poissons Ratio (x) = 0.38419 0.07641
# Poissons Ratio (y) = 0.85002 0.24428
# Poissons Ratio (z) = 0.03898 0.05633
#
# Static dielectric constant tensor:
#      x y z
#    x 1.697740 0.000000 0.000000 
#    y 0.000000 1.735940 0.000000 
#    z 0.000000 0.000000 1.734450 
# 
# From -- ./inp_files/11838.got.cif
#   From: 2010.05.17/outbox.cif.g08.bks.cpg/sg65_6_cif.got.tgz:11838.got - 2010.06.03 17:01:31.
