data_PCOD9490341
_publ_section_title
;
Structure prediction by ZEFSAII (Michael W. Deem and Ramdas Pophale) SiO2 
 PCOD9490341
Probable space group: C M M M
;
_chemical_formula_sum "Si O2"
_cell_formula_units_Z 64
_cell_length_a 17.473602
_cell_length_b 9.948599
_cell_length_c 19.539249
_cell_angle_alpha 90.000000
_cell_angle_beta 90.000000
_cell_angle_gamma 90.000000
_cell_volume 3396.661220
_symmetry_space_group_name_H-M "C M M M"
_symmetry_group_IT_number 65
_symmetry_cell_setting 'orthorhombic'
loop_
_space_group_symop_operation_xyz
x,y,z
-x,-y,z
x,-y,-z
-x,y,-z
-x,-y,-z
x,y,-z
-x,y,z
x,-y,z
1/2+x,1/2+y,z
1/2-x,1/2-y,z
1/2+x,1/2-y,-z
1/2-x,1/2+y,-z
1/2-x,1/2-y,-z
1/2+x,1/2+y,-z
1/2-x,1/2+y,z
1/2+x,1/2-y,z
loop_
_atom_site_type_symbol
_atom_site_label
_atom_site_fract_x
_atom_site_fract_y
_atom_site_fract_z
Si Si1 0.907075 0.000000 0.923930
Si Si2 0.092365 0.754758 0.170127
Si Si3 0.407957 0.847958 0.580244
Si Si4 0.671955 0.335832 0.688380
Si Si5 0.906576 0.500000 0.080202
O O1 0.884978 0.127252 0.880744
O O2 0.000000 0.000000 0.927970
O O3 0.876285 0.000000 0.000000
O O4 0.127577 0.788763 0.243266
O O5 0.116642 0.624508 0.127592
O O6 0.000000 0.750235 0.177822
O O7 0.387938 0.836032 0.500000
O O8 0.500000 0.844330 0.585624
O O9 0.373385 0.727126 0.623996
O O10 0.383753 0.000000 0.603205
O O11 0.679444 0.500000 0.686335
O O12 0.750000 0.250000 0.689106
O O13 0.000000 0.500000 0.076607
O O14 0.881317 0.500000 0.000000
#
# Coordination Sequence:
#
# PCOD9490341 Si02
#       5
#     8  16  16  16   8
#     4   9  16  30  55  85 114 143 186 247 305 352
#     4  10  20  35  58  87 116 151 195 245 298 355
#     4   9  20  41  69  98 125 154 191 237 291 351
#     4  12  26  41  59  85 121 164 206 247 293 349
#     4   9  18  32  55  89 120 147 188 243 301 358
#
# _framework density 18.842032
#
# number of rings (size 3 to 8) (size 9 to 14) (size 15 to 20)
#    0.000    2.000    1.250    3.000    3.500    5.500 
#    0.000    1.250    0.000    4.500    0.000    0.000 
#    0.000    0.000    0.000    0.000    0.000    0.000 
#
# Total GULP energy -178320.777671 kJ/mol
# GULP energy per Si atom -5572.524302 kJ/mol
# Density = 1.879915 g / cm^3
# Si number density = 18.842032 Si / 1000 Ang^3
#
#
#
# Elastic Constant Matrix: (Units=GPa)
#
#
# Indices 1 2 3 4 5 6 
#
# 1 34.4418 41.8660 40.9457 0.0000 0.0000 0.0000
# 2 41.8660 216.7625 94.5172 0.0000 0.0000 0.0000
# 3 40.9457 94.5172 137.9631 0.0000 0.0000 0.0000
# 4 0.0000 0.0000 0.0000 48.1692 0.0000 0.0000
# 5 0.0000 0.0000 0.0000 0.0000 -30.6459 0.0000
# 6 0.0000 0.0000 0.0000 0.0000 0.0000 21.4373
#
#
#
# Elastic Compliance Matrix: (Units=1/GPa)
#
#
# Indices 1 2 3 4 5 6 
#
# 1 0.047542 -0.004321 -0.011150 0.000000 0.000000 0.000000
# 2 -0.004321 0.006971 -0.003494 0.000000 0.000000 0.000000
# 3 -0.011150 -0.003494 0.012951 0.000000 0.000000 0.000000
# 4 0.000000 0.000000 0.000000 0.020760 0.000000 0.000000
# 5 0.000000 0.000000 0.000000 0.000000 -0.032631 0.000000
# 6 0.000000 0.000000 0.000000 0.000000 0.000000 0.046648
#
#
# Mechanical properties :
#
#
# Convention : Reuss Voigt Hill
#
# Bulk Modulus (GPa) = 33.85724 82.64724 58.25224
# Shear Modulus (GPa) = 33.33028 21.91469 27.62249
#
# Velocity S-wave (km/s) = 4.21043 3.41409 3.83300
# Velocity P-wave (km/s) = 6.45329 7.71361 7.11143
#
# Compressibility (1/GPa) = 0.02953578
#
# Stress axis : x y z
#
# Youngs Moduli (GPa) = 21.03423 143.44781 77.21494
#
# Poissons Ratio (x) = 0.61977 0.86093
# Poissons Ratio (y) = 0.09088 0.26976
# Poissons Ratio (z) = 0.23453 0.50115
#
# Static dielectric constant tensor:
#      x y z
#    x 1.671750 0.000000 0.000000 
#    y 0.000000 1.845450 0.000000 
#    z 0.000000 0.000000 1.647700 
# 
# From -- ./inp_files/55307.got.cif
#   From: 2010.05.17/outbox.cif.g08.bks.cpg/sg65_28_cif.got.tgz:55307.got - 2010.06.03 17:01:31.
