data_PCOD9490753
_publ_section_title
;
Structure prediction by ZEFSAII (Michael W. Deem and Ramdas Pophale) SiO2 
 PCOD9490753
Probable space group: C M M M
;
_chemical_formula_sum "Si O2"
_cell_formula_units_Z 104
_cell_length_a 7.623561
_cell_length_b 30.780564
_cell_length_c 21.291616
_cell_angle_alpha 90.000000
_cell_angle_beta 90.000000
_cell_angle_gamma 90.000000
_cell_volume 4996.237536
_symmetry_space_group_name_H-M "C M M M"
_symmetry_group_IT_number 65
_symmetry_cell_setting 'orthorhombic'
loop_
_space_group_symop_operation_xyz
x,y,z
-x,-y,z
x,-y,-z
-x,y,-z
-x,-y,-z
x,y,-z
-x,y,z
x,-y,z
1/2+x,1/2+y,z
1/2-x,1/2-y,z
1/2+x,1/2-y,-z
1/2-x,1/2+y,-z
1/2-x,1/2-y,-z
1/2+x,1/2+y,-z
1/2-x,1/2+y,z
1/2+x,1/2-y,z
loop_
_atom_site_type_symbol
_atom_site_label
_atom_site_fract_x
_atom_site_fract_y
_atom_site_fract_z
Si Si1 0.294995 0.389033 0.362679
Si Si2 0.290530 0.798716 0.572610
Si Si3 0.798747 0.126521 0.223249
Si Si4 0.705323 0.952495 0.860902
Si Si5 0.710566 0.701919 0.136588
Si Si6 0.210194 0.925920 0.000000
Si Si7 0.000000 0.448747 0.575474
Si Si8 0.786833 0.824255 0.000000
O O1 0.500000 0.402806 0.363908
O O2 0.283698 0.340295 0.391128
O O3 0.226173 0.385829 0.290946
O O4 0.169718 0.422405 0.399355
O O5 0.228094 0.799974 0.500000
O O6 0.500000 0.803662 0.572725
O O7 0.250000 0.750000 0.597182
O O8 0.796344 0.085981 0.176220
O O9 0.717123 0.166083 0.184255
O O10 0.000000 0.138996 0.237004
O O11 0.500000 0.950283 0.845146
O O12 0.773924 0.000000 0.843684
O O13 0.723641 0.946412 0.935601
O O14 0.500000 0.695617 0.133094
O O15 0.750000 0.750000 0.158765
O O16 0.777869 0.695998 0.065212
O O17 0.257914 0.875102 0.000000
O O18 0.000000 0.929266 0.000000
O O19 0.000000 0.500000 0.594065
O O20 0.000000 0.446853 0.500000
O O21 0.000000 0.820981 0.000000
#
# Coordination Sequence:
#
# PCOD9490753 Si02
#       8
#    16  16  16  16  16   8   8   8
#     4  11  24  43  68  99 138 180 221 274 336 398
#     4  10  20  36  62  98 136 173 215 264 322 392
#     4  10  23  42  62  87 122 165 212 257 309 382
#     4  11  24  39  58  87 120 153 197 258 321 377
#     4  10  20  37  57  84 118 157 206 260 310 368
#     4  11  20  37  62  84 112 154 200 256 317 377
#     4  11  26  48  74 104 136 175 227 279 330 397
#     4   9  17  33  57  77 108 151 199 257 313 359
#
# _framework density 20.815664999999999
#
# number of rings (size 3 to 8) (size 9 to 14) (size 15 to 20)
#    0.000    1.615    2.308    2.077    1.077    6.154 
#    0.000    3.846    0.000    0.000    0.000    0.000 
#    0.000    0.000    0.000    0.000    0.000    0.000 
#
# Total GULP energy -290509.593585 kJ/mol
# GULP energy per Si atom -5586.722954 kJ/mol
# Density = 2.076829 g / cm^3
# Si number density = 20.815665 Si / 1000 Ang^3
#
#
#
# Elastic Constant Matrix: (Units=GPa)
#
#
# Indices 1 2 3 4 5 6 
#
# 1 79.4102 20.7754 18.0706 0.0000 0.0000 0.0000
# 2 20.7754 158.0506 60.6026 0.0000 0.0000 0.0000
# 3 18.0706 60.6026 114.0022 0.0000 0.0000 0.0000
# 4 0.0000 0.0000 0.0000 91.4050 0.0000 0.0000
# 5 0.0000 0.0000 0.0000 0.0000 14.8291 0.0000
# 6 0.0000 0.0000 0.0000 0.0000 0.0000 23.5177
#
#
#
# Elastic Compliance Matrix: (Units=1/GPa)
#
#
# Indices 1 2 3 4 5 6 
#
# 1 0.013235 -0.001175 -0.001473 0.000000 0.000000 0.000000
# 2 -0.001175 0.008051 -0.004094 0.000000 0.000000 0.000000
# 3 -0.001473 -0.004094 0.011182 0.000000 0.000000 0.000000
# 4 0.000000 0.000000 0.000000 0.010940 0.000000 0.000000
# 5 0.000000 0.000000 0.000000 0.000000 0.067435 0.000000
# 6 0.000000 0.000000 0.000000 0.000000 0.000000 0.042521
#
#
# Mechanical properties :
#
#
# Convention : Reuss Voigt Hill
#
# Bulk Modulus (GPa) = 52.67529 61.15114 56.91321
# Shear Modulus (GPa) = 28.87222 42.75132 35.81177
#
# Velocity S-wave (km/s) = 3.72834 4.53681 4.15230
# Velocity P-wave (km/s) = 6.62530 7.54220 7.09857
#
# Compressibility (1/GPa) = 0.01898424
#
# Stress axis : x y z
#
# Youngs Moduli (GPa) = 75.55439 124.20497 89.43327
#
# Poissons Ratio (x) = 0.14592 0.13178
# Poissons Ratio (y) = 0.08876 0.36612
# Poissons Ratio (z) = 0.11133 0.50846
#
# Static dielectric constant tensor:
#      x y z
#    x 1.714080 0.000000 0.000000 
#    y 0.000000 1.728050 0.000000 
#    z 0.000000 0.000000 1.741980 
# 
# From -- ./inp_files/60477.got.cif
#   From: 2010.05.17/outbox.cif.g08.bks.cpg/sg65_31_cif.got.tgz:60477.got - 2010.06.03 17:01:31.
