data_PCOD9490218
_publ_section_title
;
Structure prediction by ZEFSAII (Michael W. Deem and Ramdas Pophale) SiO2 
 PCOD9490218
Probable space group: C M M M
;
_chemical_formula_sum "Si O2"
_cell_formula_units_Z 58
_cell_length_a 11.969405
_cell_length_b 25.701475
_cell_length_c 11.382861
_cell_angle_alpha 90.000000
_cell_angle_beta 90.000000
_cell_angle_gamma 90.000000
_cell_volume 3501.725049
_symmetry_space_group_name_H-M "C M M M"
_symmetry_group_IT_number 65
_symmetry_cell_setting 'orthorhombic'
loop_
_space_group_symop_operation_xyz
x,y,z
-x,-y,z
x,-y,-z
-x,y,-z
-x,-y,-z
x,y,-z
-x,y,z
x,-y,z
1/2+x,1/2+y,z
1/2-x,1/2-y,z
1/2+x,1/2-y,-z
1/2-x,1/2+y,-z
1/2-x,1/2-y,-z
1/2+x,1/2+y,-z
1/2-x,1/2+y,z
1/2+x,1/2-y,z
loop_
_atom_site_type_symbol
_atom_site_label
_atom_site_fract_x
_atom_site_fract_y
_atom_site_fract_z
Si Si1 0.750000 0.250000 0.296255
Si Si2 0.131072 0.057940 0.727741
Si Si3 0.000000 0.500000 0.500000
Si Si4 0.629389 0.191076 0.500000
Si Si5 0.633798 0.336716 0.136255
Si Si6 0.717532 0.075777 0.500000
O O1 0.661284 0.223934 0.384711
O O2 0.695286 0.294341 0.215929
O O3 0.156879 0.105317 0.815023
O O4 0.209853 0.062058 0.614635
O O5 0.000000 0.063057 0.693341
O O6 0.144820 0.000000 0.779947
O O7 0.899615 0.454927 0.500000
O O8 0.500000 0.178678 0.500000
O O9 0.697629 0.137573 0.500000
O O10 0.500000 0.328769 0.144170
O O11 0.666538 0.332175 0.000000
#
# Coordination Sequence:
#
# PCOD9490218 Si02
#       6
#     8  16   2   8  16   8
#     4  11  21  38  56  78 111 153 178 228 280 333
#     4  10  20  35  57  82 112 144 179 226 277 331
#     4  12  24  32  62  80 114 152 176 226 282 334
#     4  11  23  35  54  83 111 142 185 229 277 333
#     4  10  21  36  56  83 111 144 187 229 270 324
#     4  12  20  36  52  84 113 146 182 221 282 328
#
# _framework density 16.563265000000001
#
# number of rings (size 3 to 8) (size 9 to 14) (size 15 to 20)
#    0.000    1.379    4.828    1.655    0.000    1.655 
#    0.000    2.759    0.000    0.000    0.000    0.966 
#    0.000    0.000    0.000    0.000    0.000    0.000 
#
# Total GULP energy -161550.320659 kJ/mol
# GULP energy per Si atom -5570.700712 kJ/mol
# Density = 1.652557 g / cm^3
# Si number density = 16.563265 Si / 1000 Ang^3
#
#
#
# Elastic Constant Matrix: (Units=GPa)
#
#
# Indices 1 2 3 4 5 6 
#
# 1 54.9100 41.9386 42.9060 0.0000 0.0000 0.0000
# 2 41.9386 151.4743 70.9488 0.0000 0.0000 0.0000
# 3 42.9060 70.9488 124.6049 0.0000 0.0000 0.0000
# 4 0.0000 0.0000 0.0000 -2.5796 0.0000 0.0000
# 5 0.0000 0.0000 0.0000 0.0000 11.0641 0.0000
# 6 0.0000 0.0000 0.0000 0.0000 0.0000 34.3371
#
#
#
# Elastic Compliance Matrix: (Units=1/GPa)
#
#
# Indices 1 2 3 4 5 6 
#
# 1 0.026755 -0.004217 -0.006811 0.000000 0.000000 0.000000
# 2 -0.004217 0.009668 -0.004052 0.000000 0.000000 0.000000
# 3 -0.006811 -0.004052 0.012678 0.000000 0.000000 0.000000
# 4 0.000000 0.000000 0.000000 -0.387664 0.000000 0.000000
# 5 0.000000 0.000000 0.000000 0.000000 0.090383 0.000000
# 6 0.000000 0.000000 0.000000 0.000000 0.000000 0.029123
#
#
# Mechanical properties :
#
#
# Convention : Reuss Voigt Hill
#
# Bulk Modulus (GPa) = 52.80262 71.39735 62.09998
# Shear Modulus (GPa) = -27.38495 20.24405 -3.57045
#
# Velocity S-wave (km/s) = -4.07056 3.49983 -1.46980
# Velocity P-wave (km/s) = 3.13942 7.71564 5.89012
#
# Compressibility (1/GPa) = 0.01893845
#
# Stress axis : x y z
#
# Youngs Moduli (GPa) = 37.37617 103.43912 78.87534
#
# Poissons Ratio (x) = 0.43623 0.53726
# Poissons Ratio (y) = 0.15762 0.31964
# Poissons Ratio (z) = 0.25459 0.41918
#
# Static dielectric constant tensor:
#      x y z
#    x 1.530230 0.000000 0.000000 
#    y 0.000000 1.574630 0.000000 
#    z 0.000000 0.000000 1.527360 
# 
# From -- ./inp_files/4543.got.cif
#   From: 2010.05.17/outbox.cif.g08.bks.cpg/sg65_3_cif.got.tgz:4543.got - 2010.06.03 17:01:31.
