data_PCOD9490438
_publ_section_title
;
Structure prediction by ZEFSAII (Michael W. Deem and Ramdas Pophale) SiO2 
 PCOD9490438
Probable space group: C M M M
;
_chemical_formula_sum "Si O2"
_cell_formula_units_Z 116
_cell_length_a 14.035430
_cell_length_b 26.868128
_cell_length_c 18.593661
_cell_angle_alpha 90.000000
_cell_angle_beta 90.000000
_cell_angle_gamma 90.000000
_cell_volume 7011.776101
_symmetry_space_group_name_H-M "C M M M"
_symmetry_group_IT_number 65
_symmetry_cell_setting 'orthorhombic'
loop_
_space_group_symop_operation_xyz
x,y,z
-x,-y,z
x,-y,-z
-x,y,-z
-x,-y,-z
x,y,-z
-x,y,z
x,-y,z
1/2+x,1/2+y,z
1/2-x,1/2-y,z
1/2+x,1/2-y,-z
1/2-x,1/2+y,-z
1/2-x,1/2-y,-z
1/2+x,1/2+y,-z
1/2-x,1/2+y,z
1/2+x,1/2-y,z
loop_
_atom_site_type_symbol
_atom_site_label
_atom_site_fract_x
_atom_site_fract_y
_atom_site_fract_z
Si Si1 0.218280 0.325080 0.414528
Si Si2 0.385800 0.780898 0.082955
Si Si3 0.610965 0.693200 0.810174
Si Si4 0.106489 0.440466 0.083558
Si Si5 0.707286 0.132489 0.177909
Si Si6 0.605354 0.896142 0.325090
Si Si7 0.500000 0.000000 0.320565
Si Si8 0.611776 0.729861 0.650885
O O1 0.216158 0.320342 0.500000
O O2 0.174003 0.376972 0.388020
O O3 0.323833 0.313161 0.385091
O O4 0.153857 0.281474 0.378879
O O5 0.500000 0.788160 0.083943
O O6 0.367284 0.728325 0.121725
O O7 0.339439 0.823292 0.131537
O O8 0.354396 0.782437 0.000000
O O9 0.500000 0.678555 0.812940
O O10 0.684325 0.647908 0.808708
O O11 0.624665 0.725010 0.736990
O O12 0.109618 0.500000 0.086793
O O13 0.187794 0.416068 0.130355
O O14 0.000000 0.425339 0.110050
O O15 0.113125 0.425504 0.000000
O O16 0.652045 0.123774 0.252035
O O17 0.500000 0.872674 0.334824
O O18 0.581824 0.954932 0.321027
O O19 0.500000 0.725396 0.634960
#
# Coordination Sequence:
#
# PCOD9490438 Si02
#       8
#    16  16  16  16  16  16   4  16
#     4  11  22  35  56  86 115 147 185 223 277 335
#     4  10  21  34  48  75 111 146 185 226 274 330
#     4  10  22  37  52  72 105 147 186 228 267 311
#     4   9  19  33  51  80 111 135 166 217 280 335
#     4  12  20  31  57  76 101 142 187 229 271 320
#     4  10  21  37  55  82 111 142 183 226 277 342
#     4   8  24  40  57  84 115 146 188 228 292 346
#     4  10  20  36  55  80 116 152 191 228 270 326
#
# _framework density 16.543597999999999
#
# number of rings (size 3 to 8) (size 9 to 14) (size 15 to 20)
#    0.414    1.379    1.379    4.552    2.897    5.793 
#    0.000    0.690    0.000    0.414    0.000    2.414 
#    0.000    1.103    0.000    0.000    0.000    0.000 
#
# Total GULP energy -323028.051653 kJ/mol
# GULP energy per Si atom -5569.449166 kJ/mol
# Density = 1.650594 g / cm^3
# Si number density = 16.543598 Si / 1000 Ang^3
#
#
#
# Elastic Constant Matrix: (Units=GPa)
#
#
# Indices 1 2 3 4 5 6 
#
# 1 85.3333 40.2768 37.8052 0.0000 0.0000 0.0000
# 2 40.2768 54.4450 30.2156 0.0000 0.0000 0.0000
# 3 37.8052 30.2156 80.9742 0.0000 0.0000 0.0000
# 4 0.0000 0.0000 0.0000 18.1709 0.0000 0.0000
# 5 0.0000 0.0000 0.0000 0.0000 16.0334 0.0000
# 6 0.0000 0.0000 0.0000 0.0000 0.0000 28.4075
#
#
#
# Elastic Compliance Matrix: (Units=1/GPa)
#
#
# Indices 1 2 3 4 5 6 
#
# 1 0.019298 -0.011699 -0.004645 0.000000 0.000000 0.000000
# 2 -0.011699 0.030256 -0.005828 0.000000 0.000000 0.000000
# 3 -0.004645 -0.005828 0.016693 0.000000 0.000000 0.000000
# 4 0.000000 0.000000 0.000000 0.055033 0.000000 0.000000
# 5 0.000000 0.000000 0.000000 0.000000 0.062370 0.000000
# 6 0.000000 0.000000 0.000000 0.000000 0.000000 0.035202
#
#
# Mechanical properties :
#
#
# Convention : Reuss Voigt Hill
#
# Bulk Modulus (GPa) = 45.65325 48.59418 47.12372
# Shear Modulus (GPa) = 18.48459 20.01934 19.25197
#
# Velocity S-wave (km/s) = 3.34627 3.48242 3.41502
# Velocity P-wave (km/s) = 6.52577 6.75328 6.64050
#
# Compressibility (1/GPa) = 0.02190424
#
# Stress axis : x y z
#
# Youngs Moduli (GPa) = 51.81871 33.05141 59.90577
#
# Poissons Ratio (x) = 0.38665 0.27824
# Poissons Ratio (y) = 0.60620 0.34914
# Poissons Ratio (z) = 0.24068 0.19263
#
# Static dielectric constant tensor:
#      x y z
#    x 1.569310 0.000000 0.000000 
#    y 0.000000 1.557960 0.000000 
#    z 0.000000 0.000000 1.579090 
# 
# From -- ./inp_files/53654.got.cif
#   From: 2010.05.17/outbox.cif.g08.bks.cpg/sg65_27_cif.got.tgz:53654.got - 2010.06.03 17:01:31.
