data_PCOD9490014
_publ_section_title
;
Structure prediction by ZEFSAII (Michael W. Deem and Ramdas Pophale) SiO2 
 PCOD9490014
Probable space group: C M M M
;
_chemical_formula_sum "Si O2"
_cell_formula_units_Z 88
_cell_length_a 16.470169
_cell_length_b 9.200271
_cell_length_c 30.708151
_cell_angle_alpha 90.000000
_cell_angle_beta 90.000000
_cell_angle_gamma 90.000000
_cell_volume 4653.206680
_symmetry_space_group_name_H-M "C M M M"
_symmetry_group_IT_number 65
_symmetry_cell_setting 'orthorhombic'
loop_
_space_group_symop_operation_xyz
x,y,z
-x,-y,z
x,-y,-z
-x,y,-z
-x,-y,-z
x,y,-z
-x,y,z
x,-y,z
1/2+x,1/2+y,z
1/2-x,1/2-y,z
1/2+x,1/2-y,-z
1/2-x,1/2+y,-z
1/2-x,1/2-y,-z
1/2+x,1/2+y,-z
1/2-x,1/2+y,z
1/2+x,1/2-y,z
loop_
_atom_site_type_symbol
_atom_site_label
_atom_site_fract_x
_atom_site_fract_y
_atom_site_fract_z
Si Si1 0.097236 0.334016 0.451901
Si Si2 0.162144 0.826816 0.273249
Si Si3 0.663211 0.672642 0.369284
Si Si4 0.166050 0.324559 0.900905
Si Si5 0.094180 0.330532 0.808733
Si Si6 0.000000 0.323369 0.050497
O O1 0.126455 0.285321 0.500000
O O2 0.126740 0.500000 0.444936
O O3 0.119425 0.234612 0.411492
O O4 0.000000 0.339732 0.453899
O O5 0.250000 0.750000 0.270917
O O6 0.125939 0.795989 0.321438
O O7 0.110836 0.765019 0.233473
O O8 0.172071 0.000000 0.269446
O O9 0.672003 0.500000 0.372771
O O10 0.750000 0.750000 0.368753
O O11 0.172907 0.500000 0.904808
O O12 0.250000 0.250000 0.915045
O O13 0.148819 0.290009 0.850096
O O14 0.084421 0.277801 0.926643
O O15 0.110124 0.500000 0.798143
O O16 0.000000 0.319675 0.822178
O O17 0.000000 0.500000 0.052909
O O18 0.000000 0.280693 0.000000
#
# Coordination Sequence:
#
# PCOD9490014 Si02
#       6
#    16  16  16  16  16   8
#     4   9  19  36  56  77 102 133 170 213 262 319
#     4  10  21  36  53  76 106 140 179 223 271 327
#     4  10  21  36  54  76 104 137 174 218 267 320
#     4  10  20  36  58  85 116 152 195 241 289 344
#     4  10  20  35  55  79 110 147 187 230 277 335
#     4   9  18  36  61  85 115 157 199 239 288 349
#
# _framework density 18.911688999999999
#
# number of rings (size 3 to 8) (size 9 to 14) (size 15 to 20)
#    0.000    2.273    0.909    2.182    0.000    6.909 
#    0.000    5.000    0.000    0.545    0.000    0.000 
#    0.000    0.000    0.000    0.000    0.000    0.000 
#
# Total GULP energy -245384.168678 kJ/mol
# GULP energy per Si atom -5576.912925 kJ/mol
# Density = 1.886865 g / cm^3
# Si number density = 18.911689 Si / 1000 Ang^3
#
#
#
# Elastic Constant Matrix: (Units=GPa)
#
#
# Indices 1 2 3 4 5 6 
#
# 1 84.3240 29.4169 55.7687 0.0000 0.0000 0.0000
# 2 29.4169 50.9759 56.5679 0.0000 0.0000 0.0000
# 3 55.7687 56.5679 133.4010 0.0000 0.0000 0.0000
# 4 0.0000 0.0000 0.0000 14.2562 0.0000 0.0000
# 5 0.0000 0.0000 0.0000 0.0000 54.7846 0.0000
# 6 0.0000 0.0000 0.0000 0.0000 0.0000 31.6632
#
#
#
# Elastic Compliance Matrix: (Units=1/GPa)
#
#
# Indices 1 2 3 4 5 6 
#
# 1 0.016729 -0.003576 -0.005477 0.000000 0.000000 0.000000
# 2 -0.003576 0.037817 -0.014541 0.000000 0.000000 0.000000
# 3 -0.005477 -0.014541 0.015952 0.000000 0.000000 0.000000
# 4 0.000000 0.000000 0.000000 0.070145 0.000000 0.000000
# 5 0.000000 0.000000 0.000000 0.000000 0.018253 0.000000
# 6 0.000000 0.000000 0.000000 0.000000 0.000000 0.031582
#
#
# Mechanical properties :
#
#
# Convention : Reuss Voigt Hill
#
# Bulk Modulus (GPa) = 42.90087 61.35644 52.12866
# Shear Modulus (GPa) = 20.37182 28.60396 24.48789
#
# Velocity S-wave (km/s) = 3.28565 3.89331 3.60231
# Velocity P-wave (km/s) = 6.09328 7.26117 6.70271
#
# Compressibility (1/GPa) = 0.02330955
#
# Stress axis : x y z
#
# Youngs Moduli (GPa) = 59.77681 26.44318 62.68751
#
# Poissons Ratio (x) = 0.09455 0.34336
# Poissons Ratio (y) = 0.21374 0.91155
# Poissons Ratio (z) = 0.32742 0.38452
#
# Static dielectric constant tensor:
#      x y z
#    x 1.657800 0.000000 0.000000 
#    y 0.000000 1.634410 0.000000 
#    z 0.000000 0.000000 1.678930 
# 
# From -- ./inp_files/77907.got.cif
#   From: 2010.05.17/outbox.cif.g08.bks.cpg/sg65_39_cif.got.tgz:77907.got - 2010.06.03 17:01:31.
