data_PCOD9490114
_publ_section_title
;
Structure prediction by ZEFSAII (Michael W. Deem and Ramdas Pophale) SiO2 
 PCOD9490114
Probable space group: C M M M
;
_chemical_formula_sum "Si O2"
_cell_formula_units_Z 72
_cell_length_a 28.234698
_cell_length_b 16.592109
_cell_length_c 8.424681
_cell_angle_alpha 90.000000
_cell_angle_beta 90.000000
_cell_angle_gamma 90.000000
_cell_volume 3946.737156
_symmetry_space_group_name_H-M "C M M M"
_symmetry_group_IT_number 65
_symmetry_cell_setting 'orthorhombic'
loop_
_space_group_symop_operation_xyz
x,y,z
-x,-y,z
x,-y,-z
-x,y,-z
-x,-y,-z
x,y,-z
-x,y,z
x,-y,z
1/2+x,1/2+y,z
1/2-x,1/2-y,z
1/2+x,1/2-y,-z
1/2-x,1/2+y,-z
1/2-x,1/2-y,-z
1/2+x,1/2+y,-z
1/2-x,1/2+y,z
1/2+x,1/2-y,z
loop_
_atom_site_type_symbol
_atom_site_label
_atom_site_fract_x
_atom_site_fract_y
_atom_site_fract_z
Si Si1 0.944843 0.500000 0.189919
Si Si2 0.552878 0.323826 0.307000
Si Si3 0.106264 0.338895 0.309909
Si Si4 0.354475 0.410476 0.307864
Si Si5 0.804088 0.248896 0.189228
O O1 0.916447 0.579228 0.245631
O O2 0.000000 0.500000 0.247601
O O3 0.946252 0.500000 0.000000
O O4 0.551225 0.322336 0.500000
O O5 0.500000 0.336482 0.247388
O O6 0.574045 0.237334 0.257130
O O7 0.591061 0.391379 0.264163
O O8 0.105305 0.341938 0.500000
O O9 0.159609 0.315446 0.258088
O O10 0.350965 0.405306 0.500000
O O11 0.340369 0.500000 0.258425
O O12 0.324653 0.338331 0.234713
O O13 0.750000 0.250000 0.247854
O O14 0.803933 0.258773 0.000000
#
# Coordination Sequence:
#
# PCOD9490114 Si02
#       5
#     8  16  16  16  16
#     4  11  23  37  55  83 121 157 187 229 284 341
#     4   8  14  26  47  75 105 136 170 210 255 303
#     4  10  20  35  56  81 109 143 187 233 275 327
#     4   9  18  32  51  78 108 137 173 217 261 315
#     4  10  21  38  58  78 103 140 181 227 285 342
#
# _framework density 18.242916999999998
#
# number of rings (size 3 to 8) (size 9 to 14) (size 15 to 20)
#    0.000    2.556    0.000    3.667    0.000    4.444 
#    2.000    2.222    0.000    6.000    0.000    6.222 
#    0.000    0.000    0.000    0.000    0.000    0.000 
#
# Total GULP energy -200710.682888 kJ/mol
# GULP energy per Si atom -5575.296747 kJ/mol
# Density = 1.820140 g / cm^3
# Si number density = 18.242917 Si / 1000 Ang^3
#
#
#
# Elastic Constant Matrix: (Units=GPa)
#
#
# Indices 1 2 3 4 5 6 
#
# 1 154.1547 49.1190 20.1166 0.0000 0.0000 0.0000
# 2 49.1190 104.3302 17.9576 0.0000 0.0000 0.0000
# 3 20.1166 17.9576 29.7908 0.0000 0.0000 0.0000
# 4 0.0000 0.0000 0.0000 19.6871 0.0000 0.0000
# 5 0.0000 0.0000 0.0000 0.0000 16.1911 0.0000
# 6 0.0000 0.0000 0.0000 0.0000 0.0000 12.1335
#
#
#
# Elastic Compliance Matrix: (Units=1/GPa)
#
#
# Indices 1 2 3 4 5 6 
#
# 1 0.007941 -0.003141 -0.003468 0.000000 0.000000 0.000000
# 2 -0.003141 0.011937 -0.005074 0.000000 0.000000 0.000000
# 3 -0.003468 -0.005074 0.038968 0.000000 0.000000 0.000000
# 4 0.000000 0.000000 0.000000 0.050795 0.000000 0.000000
# 5 0.000000 0.000000 0.000000 0.000000 0.061762 0.000000
# 6 0.000000 0.000000 0.000000 0.000000 0.000000 0.082416
#
#
# Mechanical properties :
#
#
# Convention : Reuss Voigt Hill
#
# Bulk Modulus (GPa) = 28.18664 51.40691 39.79677
# Shear Modulus (GPa) = 17.30022 23.00786 20.15404
#
# Velocity S-wave (km/s) = 3.08283 3.55518 3.32740
# Velocity P-wave (km/s) = 5.30623 6.71511 6.05181
#
# Compressibility (1/GPa) = 0.03547780
#
# Stress axis : x y z
#
# Youngs Moduli (GPa) = 125.93548 83.77044 25.66192
#
# Poissons Ratio (x) = 0.26316 0.08900
# Poissons Ratio (y) = 0.39562 0.13022
# Poissons Ratio (z) = 0.43679 0.42508
#
# Static dielectric constant tensor:
#      x y z
#    x 1.638670 0.000000 0.000000 
#    y 0.000000 1.602250 0.000000 
#    z 0.000000 0.000000 1.634830 
# 
# From -- ./inp_files/7227.got.cif
#   From: 2010.05.17/outbox.cif.g08.bks.cpg/sg65_4_cif.got.tgz:7227.got - 2010.06.03 17:01:31.
