data_PCOD9490993
_publ_section_title
;
Structure prediction by ZEFSAII (Michael W. Deem and Ramdas Pophale) SiO2 
 PCOD9490993
Probable space group: C M M M
;
_chemical_formula_sum "Si O2"
_cell_formula_units_Z 104
_cell_length_a 33.113234
_cell_length_b 18.714696
_cell_length_c 8.731548
_cell_angle_alpha 90.000000
_cell_angle_beta 90.000000
_cell_angle_gamma 90.000000
_cell_volume 5410.976164
_symmetry_space_group_name_H-M "C M M M"
_symmetry_group_IT_number 65
_symmetry_cell_setting 'orthorhombic'
loop_
_space_group_symop_operation_xyz
x,y,z
-x,-y,z
x,-y,-z
-x,y,-z
-x,-y,-z
x,y,-z
-x,y,z
x,-y,z
1/2+x,1/2+y,z
1/2-x,1/2-y,z
1/2+x,1/2-y,-z
1/2-x,1/2+y,-z
1/2-x,1/2-y,-z
1/2+x,1/2+y,-z
1/2-x,1/2+y,z
1/2+x,1/2-y,z
loop_
_atom_site_type_symbol
_atom_site_label
_atom_site_fract_x
_atom_site_fract_y
_atom_site_fract_z
Si Si1 0.739355 0.418732 0.184812
Si Si2 0.500000 0.581908 0.813449
Si Si3 0.112263 0.418317 0.816344
Si Si4 0.577764 0.673568 0.183674
Si Si5 0.665823 0.337737 0.317857
Si Si6 0.547111 0.821855 0.682372
Si Si7 0.687414 0.183816 0.184833
O O1 0.750802 0.500000 0.226752
O O2 0.696654 0.396549 0.254441
O O3 0.772908 0.360484 0.231396
O O4 0.736905 0.415908 0.000000
O O5 0.500000 0.500000 0.762253
O O6 0.459520 0.623503 0.765772
O O7 0.500000 0.582288 0.000000
O O8 0.121948 0.500000 0.776996
O O9 0.072197 0.390454 0.734760
O O10 0.148919 0.365450 0.777062
O O11 0.106777 0.414306 0.000000
O O12 0.620721 0.652621 0.253422
O O13 0.566722 0.753542 0.235402
O O14 0.580662 0.671225 0.000000
O O15 0.664934 0.338763 0.500000
O O16 0.682085 0.260753 0.260148
O O17 0.550351 0.812455 0.500000
O O18 0.500000 0.826600 0.723487
O O19 0.688563 0.193291 0.000000
#
# Coordination Sequence:
#
# PCOD9490993 Si02
#       7
#    16   8  16  16  16  16  16
#     4  10  22  41  64  89 119 158 203 250 301 356
#     4   9  20  38  63  95 122 147 192 253 309 358
#     4  10  21  37  60  90 121 156 202 252 300 353
#     4  11  21  38  64  90 117 155 203 252 301 355
#     4  12  25  39  59  90 126 161 201 246 300 364
#     4  11  23  38  58  85 121 161 200 244 299 360
#     4  10  20  38  64  91 119 155 203 253 300 353
#
# _framework density 19.220192999999998
#
# number of rings (size 3 to 8) (size 9 to 14) (size 15 to 20)
#    0.000    1.462    2.308    3.231    0.000    6.769 
#    0.000    3.077    0.000    6.000    0.000    0.000 
#    0.000    0.000    0.000    0.000    0.000    0.000 
#
# Total GULP energy -290680.780329 kJ/mol
# GULP energy per Si atom -5590.015006 kJ/mol
# Density = 1.917645 g / cm^3
# Si number density = 19.220193 Si / 1000 Ang^3
#
#
#
# Elastic Constant Matrix: (Units=GPa)
#
#
# Indices 1 2 3 4 5 6 
#
# 1 120.8755 19.3174 25.8188 0.0000 0.0000 0.0000
# 2 19.3174 71.1081 14.0983 0.0000 0.0000 0.0000
# 3 25.8188 14.0983 24.7571 0.0000 0.0000 0.0000
# 4 0.0000 0.0000 0.0000 -23.6248 0.0000 0.0000
# 5 0.0000 0.0000 0.0000 0.0000 13.5563 0.0000
# 6 0.0000 0.0000 0.0000 0.0000 0.0000 13.6477
#
#
#
# Elastic Compliance Matrix: (Units=1/GPa)
#
#
# Indices 1 2 3 4 5 6 
#
# 1 0.010682 -0.000781 -0.010695 0.000000 0.000000 0.000000
# 2 -0.000781 0.015910 -0.008245 0.000000 0.000000 0.000000
# 3 -0.010695 -0.008245 0.056242 0.000000 0.000000 0.000000
# 4 0.000000 0.000000 0.000000 -0.042328 0.000000 0.000000
# 5 0.000000 0.000000 0.000000 0.000000 0.073767 0.000000
# 6 0.000000 0.000000 0.000000 0.000000 0.000000 0.073272
#
#
# Mechanical properties :
#
#
# Convention : Reuss Voigt Hill
#
# Bulk Modulus (GPa) = 23.04676 37.24553 30.14614
# Shear Modulus (GPa) = 20.70796 11.21625 15.96210
#
# Velocity S-wave (km/s) = 3.28595 2.41833 2.88494
# Velocity P-wave (km/s) = 5.13941 5.21710 5.17840
#
# Compressibility (1/GPa) = 0.04339005
#
# Stress axis : x y z
#
# Youngs Moduli (GPa) = 93.61198 62.85298 17.78030
#
# Poissons Ratio (x) = 0.04912 0.19017
# Poissons Ratio (y) = 0.07315 0.14660
# Poissons Ratio (z) = 1.00123 0.51824
#
# Static dielectric constant tensor:
#      x y z
#    x 1.660050 0.000000 0.000000 
#    y 0.000000 1.647340 0.000000 
#    z 0.000000 0.000000 1.644830 
# 
# From -- ./inp_files/16472.got.cif
#   From: 2010.05.17/outbox.cif.g08.bks.cpg/sg65_9_cif.got.tgz:16472.got - 2010.06.03 17:01:31.
