data_PCOD9490091
_publ_section_title
;
Structure prediction by ZEFSAII (Michael W. Deem and Ramdas Pophale) SiO2 
 PCOD9490091
Probable space group: C M M M
;
_chemical_formula_sum "Si O2"
_cell_formula_units_Z 88
_cell_length_a 8.407083
_cell_length_b 16.167216
_cell_length_c 31.785500
_cell_angle_alpha 90.000000
_cell_angle_beta 90.000000
_cell_angle_gamma 90.000000
_cell_volume 4320.257405
_symmetry_space_group_name_H-M "C M M M"
_symmetry_group_IT_number 65
_symmetry_cell_setting 'orthorhombic'
loop_
_space_group_symop_operation_xyz
x,y,z
-x,-y,z
x,-y,-z
-x,y,-z
-x,-y,-z
x,y,-z
-x,y,z
x,-y,z
1/2+x,1/2+y,z
1/2-x,1/2-y,z
1/2+x,1/2-y,-z
1/2-x,1/2+y,-z
1/2-x,1/2-y,-z
1/2+x,1/2+y,-z
1/2-x,1/2+y,z
1/2+x,1/2-y,z
loop_
_atom_site_type_symbol
_atom_site_label
_atom_site_fract_x
_atom_site_fract_y
_atom_site_fract_z
Si Si1 0.182476 0.599133 0.273976
Si Si2 0.305210 0.000000 0.951309
Si Si3 0.688268 0.161199 0.098817
Si Si4 0.307341 0.154332 0.545255
Si Si5 0.688238 0.403062 0.185042
Si Si6 0.192860 0.655769 0.635789
O O1 0.179926 0.500000 0.272324
O O2 0.270526 0.627634 0.231920
O O3 0.251370 0.620966 0.319708
O O4 0.000000 0.629276 0.271850
O O5 0.249091 0.917539 0.927333
O O6 0.500000 0.000000 0.949836
O O7 0.258566 0.000000 0.000000
O O8 0.500000 0.161458 0.094524
O O9 0.750000 0.250000 0.084521
O O10 0.730909 0.146437 0.147580
O O11 0.255373 0.117984 0.500000
O O12 0.500000 0.153776 0.545370
O O13 0.250000 0.250000 0.545120
O O14 0.256012 0.118004 0.590536
O O15 0.500000 0.399840 0.179164
O O16 0.739010 0.500000 0.181835
O O17 0.250000 0.750000 0.634807
O O18 0.000000 0.650443 0.636754
#
# Coordination Sequence:
#
# PCOD9490091 Si02
#       6
#    16   8  16  16  16  16
#     4   9  18  32  49  68  95 134 174 207 251 315
#     4   9  20  40  65  91 123 163 201 239 286 339
#     4  11  22  38  62  91 122 158 198 240 287 338
#     4   8  13  22  37  57  81 109 144 188 240 296
#     4  10  20  35  56  80 108 141 183 232 279 330
#     4   9  17  28  43  64  89 118 153 199 249 300
#
# _framework density 20.369157000000001
#
# number of rings (size 3 to 8) (size 9 to 14) (size 15 to 20)
#    0.000    2.636    0.909    1.091    0.000    2.545 
#    0.000    1.818    0.000    4.364    0.000    3.818 
#    0.000    0.000    0.000   34.000    0.000   18.545 
#
# Total GULP energy -245166.653689 kJ/mol
# GULP energy per Si atom -5571.969402 kJ/mol
# Density = 2.032280 g / cm^3
# Si number density = 20.369157 Si / 1000 Ang^3
#
#
#
# Elastic Constant Matrix: (Units=GPa)
#
#
# Indices 1 2 3 4 5 6 
#
# 1 11.3321 17.4802 15.9631 0.0000 0.0000 0.0000
# 2 17.4802 74.3373 59.7433 0.0000 0.0000 0.0000
# 3 15.9631 59.7433 166.0392 0.0000 0.0000 0.0000
# 4 0.0000 0.0000 0.0000 34.4198 0.0000 0.0000
# 5 0.0000 0.0000 0.0000 0.0000 9.5340 0.0000
# 6 0.0000 0.0000 0.0000 0.0000 0.0000 18.3480
#
#
#
# Elastic Compliance Matrix: (Units=1/GPa)
#
#
# Indices 1 2 3 4 5 6 
#
# 1 0.139071 -0.030889 -0.002256 0.000000 0.000000 0.000000
# 2 -0.030889 0.025786 -0.006308 0.000000 0.000000 0.000000
# 3 -0.002256 -0.006308 0.008509 0.000000 0.000000 0.000000
# 4 0.000000 0.000000 0.000000 0.029053 0.000000 0.000000
# 5 0.000000 0.000000 0.000000 0.000000 0.104888 0.000000
# 6 0.000000 0.000000 0.000000 0.000000 0.000000 0.054502
#
#
# Mechanical properties :
#
#
# Convention : Reuss Voigt Hill
#
# Bulk Modulus (GPa) = 10.58659 48.67576 29.63117
# Shear Modulus (GPa) = 10.58869 23.02849 16.80859
#
# Velocity S-wave (km/s) = 2.28247 3.36602 2.87574
# Velocity P-wave (km/s) = 3.48639 6.24944 5.06016
#
# Compressibility (1/GPa) = 0.09445911
#
# Stress axis : x y z
#
# Youngs Moduli (GPa) = 7.19057 38.78140 117.51716
#
# Poissons Ratio (x) = 1.19792 0.26512
# Poissons Ratio (y) = 0.22211 0.74134
# Poissons Ratio (z) = 0.01622 0.24465
#
# Static dielectric constant tensor:
#      x y z
#    x 1.710100 0.000000 0.000000 
#    y 0.000000 1.731250 0.000000 
#    z 0.000000 0.000000 1.777430 
# 
# From -- ./inp_files/76672.got.cif
#   From: 2010.05.17/outbox.cif.g08.bks.cpg/sg65_39_cif.got.tgz:76672.got - 2010.06.03 17:01:31.
