data_PCOD9490016
_publ_section_title
;
Structure prediction by ZEFSAII (Michael W. Deem and Ramdas Pophale) SiO2 
 PCOD9490016
Probable space group: C M M M
;
_chemical_formula_sum "Si O2"
_cell_formula_units_Z 88
_cell_length_a 23.220277
_cell_length_b 24.727991
_cell_length_c 8.923483
_cell_angle_alpha 90.000000
_cell_angle_beta 90.000000
_cell_angle_gamma 90.000000
_cell_volume 5123.781849
_symmetry_space_group_name_H-M "C M M M"
_symmetry_group_IT_number 65
_symmetry_cell_setting 'orthorhombic'
loop_
_space_group_symop_operation_xyz
x,y,z
-x,-y,z
x,-y,-z
-x,y,-z
-x,-y,-z
x,y,-z
-x,y,z
x,-y,z
1/2+x,1/2+y,z
1/2-x,1/2-y,z
1/2+x,1/2-y,-z
1/2-x,1/2+y,-z
1/2-x,1/2-y,-z
1/2+x,1/2+y,-z
1/2-x,1/2+y,z
1/2+x,1/2-y,z
loop_
_atom_site_type_symbol
_atom_site_label
_atom_site_fract_x
_atom_site_fract_y
_atom_site_fract_z
Si Si1 0.776418 0.936802 0.178944
Si Si2 0.346239 0.936737 0.678912
Si Si3 0.392037 0.626491 0.820054
Si Si4 0.432468 0.851478 0.821063
Si Si5 0.500000 0.564459 0.678130
Si Si6 0.568666 0.735753 0.677832
O O1 0.717767 0.922597 0.263800
O O2 0.831019 0.900462 0.219948
O O3 0.789646 0.000000 0.210080
O O4 0.766798 0.931823 0.000000
O O5 0.349294 0.931292 0.500000
O O6 0.392762 0.898390 0.755662
O O7 0.355918 0.000000 0.717607
O O8 0.443712 0.591229 0.750858
O O9 0.398516 0.686745 0.756457
O O10 0.397391 0.626761 0.000000
O O11 0.500000 0.861622 0.786975
O O12 0.416917 0.793881 0.747634
O O13 0.426207 0.848099 0.000000
O O14 0.500000 0.500000 0.701599
O O15 0.500000 0.575406 0.500000
O O16 0.578850 0.735785 0.500000
O O17 0.500000 0.726924 0.702288
#
# Coordination Sequence:
#
# PCOD9490016 Si02
#       6
#    16  16  16  16   8  16
#     4   9  19  36  56  78 107 145 186 227 274 327
#     4  10  21  37  58  84 113 145 179 219 272 330
#     4  11  21  34  55  80 108 144 188 233 277 328
#     4  10  21  37  59  85 112 143 181 223 270 324
#     4  11  23  35  49  75 111 147 186 235 284 327
#     4  10  20  35  55  79 111 147 183 225 277 331
#
# _framework density 17.174814000000001
#
# number of rings (size 3 to 8) (size 9 to 14) (size 15 to 20)
#    0.000    1.909    0.909    3.000    0.000    6.182 
#    0.000    4.545    0.000    5.455    0.000    0.000 
#    0.000    0.000    0.000    0.000    0.000    0.000 
#
# Total GULP energy -245753.303809 kJ/mol
# GULP energy per Si atom -5585.302359 kJ/mol
# Density = 1.713572 g / cm^3
# Si number density = 17.174814 Si / 1000 Ang^3
#
#
#
# Elastic Constant Matrix: (Units=GPa)
#
#
# Indices 1 2 3 4 5 6 
#
# 1 117.5886 102.9762 68.8336 0.0000 0.0000 0.0000
# 2 102.9762 134.0645 74.5106 0.0000 0.0000 0.0000
# 3 68.8336 74.5106 74.6184 0.0000 0.0000 0.0000
# 4 0.0000 0.0000 0.0000 34.8242 0.0000 0.0000
# 5 0.0000 0.0000 0.0000 0.0000 22.0922 0.0000
# 6 0.0000 0.0000 0.0000 0.0000 0.0000 21.5815
#
#
#
# Elastic Compliance Matrix: (Units=1/GPa)
#
#
# Indices 1 2 3 4 5 6 
#
# 1 0.029037 -0.016666 -0.010145 0.000000 0.000000 0.000000
# 2 -0.016666 0.026326 -0.010915 0.000000 0.000000 0.000000
# 3 -0.010145 -0.010915 0.033658 0.000000 0.000000 0.000000
# 4 0.000000 0.000000 0.000000 0.028716 0.000000 0.000000
# 5 0.000000 0.000000 0.000000 0.000000 0.045265 0.000000
# 6 0.000000 0.000000 0.000000 0.000000 0.000000 0.046336
#
#
# Mechanical properties :
#
#
# Convention : Reuss Voigt Hill
#
# Bulk Modulus (GPa) = 73.67916 90.99025 82.33470
# Shear Modulus (GPa) = 17.28238 21.02967 19.15602
#
# Velocity S-wave (km/s) = 3.17561 3.50301 3.34332
# Velocity P-wave (km/s) = 7.51257 8.33399 7.93391
#
# Compressibility (1/GPa) = 0.01357236
#
# Stress axis : x y z
#
# Youngs Moduli (GPa) = 34.43856 37.98492 29.71022
#
# Poissons Ratio (x) = 0.63304 0.30140
# Poissons Ratio (y) = 0.57394 0.32428
# Poissons Ratio (z) = 0.34936 0.41459
#
# Static dielectric constant tensor:
#      x y z
#    x 1.551800 0.000000 0.000000 
#    y 0.000000 1.562870 0.000000 
#    z 0.000000 0.000000 1.570190 
# 
# From -- ./inp_files/11745.got.cif
#   From: 2010.05.17/outbox.cif.g08.bks.cpg/sg65_6_cif.got.tgz:11745.got - 2010.06.03 17:01:31.
