data_PCOD9490945
_publ_section_title
;
Structure prediction by ZEFSAII (Michael W. Deem and Ramdas Pophale) SiO2 
 PCOD9490945
Probable space group: C M M M
;
_chemical_formula_sum "Si O2"
_cell_formula_units_Z 104
_cell_length_a 28.899192
_cell_length_b 7.868986
_cell_length_c 22.237315
_cell_angle_alpha 90.000000
_cell_angle_beta 90.000000
_cell_angle_gamma 90.000000
_cell_volume 5056.928592
_symmetry_space_group_name_H-M "C M M M"
_symmetry_group_IT_number 65
_symmetry_cell_setting 'orthorhombic'
loop_
_space_group_symop_operation_xyz
x,y,z
-x,-y,z
x,-y,-z
-x,y,-z
-x,-y,-z
x,y,-z
-x,y,z
x,-y,z
1/2+x,1/2+y,z
1/2-x,1/2-y,z
1/2+x,1/2-y,-z
1/2-x,1/2+y,-z
1/2-x,1/2-y,-z
1/2+x,1/2+y,-z
1/2-x,1/2+y,z
1/2+x,1/2-y,z
loop_
_atom_site_type_symbol
_atom_site_label
_atom_site_fract_x
_atom_site_fract_y
_atom_site_fract_z
Si Si1 0.623788 0.311510 0.158234
Si Si2 0.395549 0.798034 0.622124
Si Si3 0.946520 0.204237 0.500000
Si Si4 0.052652 0.703085 0.260477
Si Si5 0.301824 0.795247 0.569264
Si Si6 0.803905 0.794668 0.932894
Si Si7 0.948112 0.697937 0.071497
O O1 0.636852 0.500000 0.178948
O O2 0.591647 0.233165 0.209844
O O3 0.667977 0.227884 0.125171
O O4 0.588751 0.315132 0.102146
O O5 0.421797 0.771083 0.559557
O O6 0.425747 0.727889 0.677192
O O7 0.343489 0.730869 0.611066
O O8 0.391294 0.000000 0.633069
O O9 0.000000 0.256247 0.500000
O O10 0.944001 0.000000 0.500000
O O11 0.048056 0.500000 0.265623
O O12 0.000000 0.768186 0.248731
O O13 0.307834 0.733537 0.500000
O O14 0.250000 0.750000 0.588785
O O15 0.305063 0.000000 0.567261
O O16 0.750000 0.750000 0.928394
O O17 0.808760 0.000000 0.932388
O O18 0.819896 0.735228 0.000000
O O19 0.938526 0.500000 0.086870
O O20 0.000000 0.736091 0.092579
O O21 0.947297 0.712092 0.000000
#
# Coordination Sequence:
#
# PCOD9490945 Si02
#       7
#    16  16   8  16  16  16  16
#     4  11  22  35  53  78 109 144 179 222 275 329
#     4  10  20  38  60  81 106 144 191 233 274 328
#     4  11  23  35  52  83 116 141 172 225 290 347
#     4  10  22  39  58  79 106 146 194 236 273 322
#     4   9  17  31  53  82 111 138 172 215 265 324
#     4   9  19  36  57  82 110 140 179 226 276 331
#     4   9  18  32  50  74 104 137 176 221 264 312
#
# _framework density 20.565843000000001
#
# number of rings (size 3 to 8) (size 9 to 14) (size 15 to 20)
#    0.000    2.231    0.769    2.538    0.000    7.077 
#    0.000    3.077    0.000    3.692    0.000    0.000 
#    0.000    0.000    0.000    0.000    0.000    0.000 
#
# Total GULP energy -289925.125303 kJ/mol
# GULP energy per Si atom -5575.483179 kJ/mol
# Density = 2.051903 g / cm^3
# Si number density = 20.565843 Si / 1000 Ang^3
#
#
#
# Elastic Constant Matrix: (Units=GPa)
#
#
# Indices 1 2 3 4 5 6 
#
# 1 135.7654 6.1211 72.4641 0.0000 0.0000 0.0000
# 2 6.1211 13.4958 0.4306 0.0000 0.0000 0.0000
# 3 72.4641 0.4306 111.4800 0.0000 0.0000 0.0000
# 4 0.0000 0.0000 0.0000 22.5889 0.0000 0.0000
# 5 0.0000 0.0000 0.0000 0.0000 -44.4150 0.0000
# 6 0.0000 0.0000 0.0000 0.0000 0.0000 20.8710
#
#
#
# Elastic Compliance Matrix: (Units=1/GPa)
#
#
# Indices 1 2 3 4 5 6 
#
# 1 0.011610 -0.005026 -0.007527 0.000000 0.000000 0.000000
# 2 -0.005026 0.076281 0.002972 0.000000 0.000000 0.000000
# 3 -0.007527 0.002972 0.013852 0.000000 0.000000 0.000000
# 4 0.000000 0.000000 0.000000 0.044270 0.000000 0.000000
# 5 0.000000 0.000000 0.000000 0.000000 -0.022515 0.000000
# 6 0.000000 0.000000 0.000000 0.000000 0.000000 0.047913
#
#
# Mechanical properties :
#
#
# Convention : Reuss Voigt Hill
#
# Bulk Modulus (GPa) = 12.10925 46.53031 29.31978
# Shear Modulus (GPa) = 22.92532 11.92400 17.42466
#
# Velocity S-wave (km/s) = 3.34238 2.41051 2.91393
# Velocity P-wave (km/s) = 4.56028 5.51557 5.06052
#
# Compressibility (1/GPa) = 0.08258149
#
# Stress axis : x y z
#
# Youngs Moduli (GPa) = 86.13390 13.10935 72.19401
#
# Poissons Ratio (x) = 0.06588 0.54342
# Poissons Ratio (y) = 0.43287 -0.21457
# Poissons Ratio (z) = 0.64835 -0.03896
#
# Static dielectric constant tensor:
#      x y z
#    x 1.763770 0.000000 0.000000 
#    y 0.000000 1.779530 0.000000 
#    z 0.000000 0.000000 1.753830 
# 
# From -- ./inp_files/65944.got.cif
#   From: 2010.05.17/outbox.cif.g08.bks.cpg/sg65_33_cif.got.tgz:65944.got - 2010.06.03 17:01:31.
