data_PCOD9490713
_publ_section_title
;
Structure prediction by ZEFSAII (Michael W. Deem and Ramdas Pophale) SiO2 
 PCOD9490713
Probable space group: C M M M
;
_chemical_formula_sum "Si O2"
_cell_formula_units_Z 72
_cell_length_a 30.330983
_cell_length_b 8.775035
_cell_length_c 13.788551
_cell_angle_alpha 90.000000
_cell_angle_beta 90.000000
_cell_angle_gamma 90.000000
_cell_volume 3669.897823
_symmetry_space_group_name_H-M "C M M M"
_symmetry_group_IT_number 65
_symmetry_cell_setting 'orthorhombic'
loop_
_space_group_symop_operation_xyz
x,y,z
-x,-y,z
x,-y,-z
-x,y,-z
-x,-y,-z
x,y,-z
-x,y,z
x,-y,z
1/2+x,1/2+y,z
1/2-x,1/2-y,z
1/2+x,1/2-y,-z
1/2-x,1/2+y,-z
1/2-x,1/2-y,-z
1/2+x,1/2+y,-z
1/2-x,1/2+y,z
1/2+x,1/2-y,z
loop_
_atom_site_type_symbol
_atom_site_label
_atom_site_fract_x
_atom_site_fract_y
_atom_site_fract_z
Si Si1 0.052276 0.680915 0.000000
Si Si2 0.294963 0.174196 0.629522
Si Si3 0.611975 0.318342 0.393560
Si Si4 0.109962 0.183135 0.830118
Si Si5 0.295925 0.173991 0.861383
O O1 0.074082 0.753614 0.904449
O O2 0.061101 0.500000 0.000000
O O3 0.000000 0.705648 0.000000
O O4 0.250000 0.250000 0.597119
O O5 0.336560 0.275961 0.603104
O O6 0.292237 0.168872 0.745372
O O7 0.300709 0.000000 0.598754
O O8 0.593507 0.263205 0.500000
O O9 0.605414 0.500000 0.392714
O O10 0.600497 0.264550 0.282591
O O11 0.157683 0.237979 0.871906
O O12 0.110300 0.000000 0.828981
O O13 0.250000 0.250000 0.895348
O O14 0.299559 0.000000 0.895471
#
# Coordination Sequence:
#
# PCOD9490713 Si02
#       5
#     8  16  16  16  16
#     4  11  25  45  68  91 114 141 177 227 287 345
#     4   9  16  25  39  62  96 142 194 241 279 317
#     4   9  18  32  50  75 109 147 184 224 273 328
#     4  10  20  36  60  88 117 150 191 237 284 335
#     4   9  16  28  48  76 113 155 197 238 281 330
#
# _framework density 19.619076
#
# number of rings (size 3 to 8) (size 9 to 14) (size 15 to 20)
#    0.000    2.556    0.000    2.333    0.000    8.000 
#    0.000    0.556    0.000    0.667    0.000    4.667 
#    0.000    0.000    0.000    0.000    0.000    0.000 
#
# Total GULP energy -200411.876677 kJ/mol
# GULP energy per Si atom -5566.996574 kJ/mol
# Density = 1.957442 g / cm^3
# Si number density = 19.619076 Si / 1000 Ang^3
#
#
#
# Elastic Constant Matrix: (Units=GPa)
#
#
# Indices 1 2 3 4 5 6 
#
# 1 67.2604 36.4174 46.0821 0.0000 0.0000 0.0000
# 2 36.4174 55.5990 24.6308 0.0000 0.0000 0.0000
# 3 46.0821 24.6308 190.0212 0.0000 0.0000 0.0000
# 4 0.0000 0.0000 0.0000 6.6751 0.0000 0.0000
# 5 0.0000 0.0000 0.0000 0.0000 21.7959 0.0000
# 6 0.0000 0.0000 0.0000 0.0000 0.0000 25.0228
#
#
#
# Elastic Compliance Matrix: (Units=1/GPa)
#
#
# Indices 1 2 3 4 5 6 
#
# 1 0.026042 -0.015129 -0.004355 0.000000 0.000000 0.000000
# 2 -0.015129 0.027870 0.000056 0.000000 0.000000 0.000000
# 3 -0.004355 0.000056 0.006311 0.000000 0.000000 0.000000
# 4 0.000000 0.000000 0.000000 0.149811 0.000000 0.000000
# 5 0.000000 0.000000 0.000000 0.000000 0.045880 0.000000
# 6 0.000000 0.000000 0.000000 0.000000 0.000000 0.039964
#
#
# Mechanical properties :
#
#
# Convention : Reuss Voigt Hill
#
# Bulk Modulus (GPa) = 46.79443 58.57125 52.68284
# Shear Modulus (GPa) = 14.62604 24.41544 19.52074
#
# Velocity S-wave (km/s) = 2.73335 3.53154 3.15776
# Velocity P-wave (km/s) = 5.81935 6.82261 6.34086
#
# Compressibility (1/GPa) = 0.02137007
#
# Stress axis : x y z
#
# Youngs Moduli (GPa) = 38.39920 35.88050 158.44615
#
# Poissons Ratio (x) = 0.54282 0.68996
# Poissons Ratio (y) = 0.58093 -0.00891
# Poissons Ratio (z) = 0.16721 -0.00202
#
# Static dielectric constant tensor:
#      x y z
#    x 1.638180 0.000000 0.000000 
#    y 0.000000 1.673820 0.000000 
#    z 0.000000 0.000000 1.813380 
# 
# From -- ./inp_files/36601.got.cif
#   From: 2010.05.17/outbox.cif.g08.bks.cpg/sg65_19_cif.got.tgz:36601.got - 2010.06.03 17:01:31.
