data_PCOD9490917
_publ_section_title
;
Structure prediction by ZEFSAII (Michael W. Deem and Ramdas Pophale) SiO2 
 PCOD9490917
Probable space group: C M M M
;
_chemical_formula_sum "Si O2"
_cell_formula_units_Z 104
_cell_length_a 28.256161
_cell_length_b 22.239576
_cell_length_c 8.767914
_cell_angle_alpha 90.000000
_cell_angle_beta 90.000000
_cell_angle_gamma 90.000000
_cell_volume 5509.801348
_symmetry_space_group_name_H-M "C M M M"
_symmetry_group_IT_number 65
_symmetry_cell_setting 'orthorhombic'
loop_
_space_group_symop_operation_xyz
x,y,z
-x,-y,z
x,-y,-z
-x,y,-z
-x,-y,-z
x,y,-z
-x,y,z
x,-y,z
1/2+x,1/2+y,z
1/2-x,1/2-y,z
1/2+x,1/2-y,-z
1/2-x,1/2+y,-z
1/2-x,1/2-y,-z
1/2+x,1/2+y,-z
1/2-x,1/2+y,z
1/2+x,1/2-y,z
loop_
_atom_site_type_symbol
_atom_site_label
_atom_site_fract_x
_atom_site_fract_y
_atom_site_fract_z
Si Si1 0.054702 0.872451 0.315481
Si Si2 0.291984 0.500000 0.683143
Si Si3 0.230606 0.873093 0.817609
Si Si4 0.000000 0.572994 0.175319
Si Si5 0.097754 0.000000 0.315019
Si Si6 0.599718 0.930796 0.683615
Si Si7 0.138132 0.795599 0.817384
Si Si8 0.173443 0.671317 0.683098
O O1 0.058646 0.869633 0.500000
O O2 0.071882 0.939021 0.266225
O O3 0.089844 0.824382 0.242900
O O4 0.000000 0.863347 0.274920
O O5 0.289638 0.500000 0.500000
O O6 0.268887 0.560495 0.746612
O O7 0.347328 0.500000 0.731520
O O8 0.181329 0.840589 0.776206
O O9 0.274709 0.835816 0.753970
O O10 0.233345 0.876606 0.000000
O O11 0.048842 0.591065 0.255354
O O12 0.000000 0.500000 0.180552
O O13 0.000000 0.592152 0.000000
O O14 0.097065 0.000000 0.500000
O O15 0.597669 0.931324 0.500000
O O16 0.641423 0.885962 0.729710
O O17 0.607519 0.000000 0.734675
O O18 0.149107 0.731734 0.742279
O O19 0.137223 0.789751 0.000000
O O20 0.176765 0.672232 0.500000
#
# Coordination Sequence:
#
# PCOD9490917 Si02
#       8
#    16   8  16   8   8  16  16  16
#     4  10  20  37  63  93 124 160 207 260 309 361
#     4  11  21  36  63  93 122 161 207 255 304 361
#     4  11  24  41  61  88 123 161 199 246 307 364
#     4   9  17  31  55  85 113 145 183 222 273 342
#     4   9  17  33  60  93 125 157 200 256 310 355
#     4   9  19  37  59  84 114 146 184 237 294 346
#     4  11  24  42  61  83 121 164 203 247 301 366
#     4  11  24  40  63  91 117 154 203 250 299 360
#
# _framework density 18.875454000000001
#
# number of rings (size 3 to 8) (size 9 to 14) (size 15 to 20)
#    0.000    1.769    1.538    2.538    1.077    7.077 
#    1.385    0.385    0.000    0.923    0.000    0.000 
#    0.000    0.000    0.000    0.000    0.000    0.000 
#
# Total GULP energy -290545.896988 kJ/mol
# GULP energy per Si atom -5587.421096 kJ/mol
# Density = 1.883249 g / cm^3
# Si number density = 18.875454 Si / 1000 Ang^3
#
#
#
# Elastic Constant Matrix: (Units=GPa)
#
#
# Indices 1 2 3 4 5 6 
#
# 1 106.7715 46.2643 26.1328 0.0000 0.0000 0.0000
# 2 46.2643 108.2754 29.0713 0.0000 0.0000 0.0000
# 3 26.1328 29.0713 30.8018 0.0000 0.0000 0.0000
# 4 0.0000 0.0000 0.0000 11.3941 0.0000 0.0000
# 5 0.0000 0.0000 0.0000 0.0000 16.4843 0.0000
# 6 0.0000 0.0000 0.0000 0.0000 0.0000 14.5777
#
#
#
# Elastic Compliance Matrix: (Units=1/GPa)
#
#
# Indices 1 2 3 4 5 6 
#
# 1 0.012686 -0.003390 -0.007564 0.000000 0.000000 0.000000
# 2 -0.003390 0.013276 -0.009655 0.000000 0.000000 0.000000
# 3 -0.007564 -0.009655 0.047995 0.000000 0.000000 0.000000
# 4 0.000000 0.000000 0.000000 0.087764 0.000000 0.000000
# 5 0.000000 0.000000 0.000000 0.000000 0.060664 0.000000
# 6 0.000000 0.000000 0.000000 0.000000 0.000000 0.068598
#
#
# Mechanical properties :
#
#
# Convention : Reuss Voigt Hill
#
# Bulk Modulus (GPa) = 30.54246 49.86505 40.20375
# Shear Modulus (GPa) = 14.57248 18.11658 16.34453
#
# Velocity S-wave (km/s) = 2.78156 3.10142 2.94584
# Velocity P-wave (km/s) = 5.15095 6.26900 5.73727
#
# Compressibility (1/GPa) = 0.03274131
#
# Stress axis : x y z
#
# Youngs Moduli (GPa) = 78.82856 75.32270 20.83554
#
# Poissons Ratio (x) = 0.25531 0.15759
# Poissons Ratio (y) = 0.26720 0.20116
# Poissons Ratio (z) = 0.59623 0.72720
#
# Static dielectric constant tensor:
#      x y z
#    x 1.636960 0.000000 0.000000 
#    y 0.000000 1.637460 0.000000 
#    z 0.000000 0.000000 1.634560 
# 
# From -- ./inp_files/16547.got.cif
#   From: 2010.05.17/outbox.cif.g08.bks.cpg/sg65_9_cif.got.tgz:16547.got - 2010.06.03 17:01:31.
