data_PCOD9490031
_publ_section_title
;
Structure prediction by ZEFSAII (Michael W. Deem and Ramdas Pophale) SiO2 
 PCOD9490031
Probable space group: C M M M
;
_chemical_formula_sum "Si O2"
_cell_formula_units_Z 120
_cell_length_a 21.979973
_cell_length_b 13.767461
_cell_length_c 19.305314
_cell_angle_alpha 90.000000
_cell_angle_beta 90.000000
_cell_angle_gamma 90.000000
_cell_volume 5841.950588
_symmetry_space_group_name_H-M "C M M M"
_symmetry_group_IT_number 65
_symmetry_cell_setting 'orthorhombic'
loop_
_space_group_symop_operation_xyz
x,y,z
-x,-y,z
x,-y,-z
-x,y,-z
-x,-y,-z
x,y,-z
-x,y,z
x,-y,z
1/2+x,1/2+y,z
1/2-x,1/2-y,z
1/2+x,1/2-y,-z
1/2-x,1/2+y,-z
1/2-x,1/2-y,-z
1/2+x,1/2+y,-z
1/2-x,1/2+y,z
1/2+x,1/2-y,z
loop_
_atom_site_type_symbol
_atom_site_label
_atom_site_fract_x
_atom_site_fract_y
_atom_site_fract_z
Si Si1 0.872041 0.117663 0.075111
Si Si2 0.594554 0.387174 0.225728
Si Si3 0.625456 0.722614 0.418136
Si Si4 0.286554 0.612974 0.682981
Si Si5 0.568091 0.189909 0.702443
Si Si6 0.000000 0.104299 0.418173
Si Si7 0.821005 0.615131 0.778903
Si Si8 0.271113 0.117940 0.924050
O O1 0.906155 0.143812 0.145479
O O2 0.800440 0.141517 0.080566
O O3 0.874364 0.000000 0.074312
O O4 0.894996 0.152148 0.000000
O O5 0.573814 0.500000 0.232514
O O6 0.663797 0.386619 0.254779
O O7 0.564851 0.301553 0.269941
O O8 0.634886 0.739127 0.500000
O O9 0.682491 0.671180 0.380277
O O10 0.604584 0.812595 0.370410
O O11 0.564572 0.656641 0.408418
O O12 0.278970 0.500000 0.661438
O O13 0.224706 0.650311 0.718375
O O14 0.500000 0.152625 0.695029
O O15 0.610663 0.137494 0.757610
O O16 0.000000 0.091919 0.500000
O O17 0.000000 0.000000 0.382184
O O18 0.810867 0.500000 0.780938
O O19 0.804230 0.653503 0.854936
O O20 0.275155 0.000000 0.924182
O O21 0.293737 0.150370 0.000000
#
# Coordination Sequence:
#
# PCOD9490031 Si02
#       8
#    16  16  16  16  16   8  16  16
#     4   8  12  22  45  77 111 143 175 213 261 323
#     4   9  17  31  51  77 112 145 171 212 269 331
#     4  10  20  35  55  80 112 147 177 219 272 322
#     4   9  17  31  52  81 112 142 174 214 274 338
#     4  11  24  39  55  79 104 143 195 236 277 332
#     4   9  16  28  50  80 111 145 178 207 251 313
#     4  10  20  37  59  80 110 146 182 235 291 334
#     4   8  13  25  50  82 111 139 176 226 282 332
#
# _framework density 20.541084999999999
#
# number of rings (size 3 to 8) (size 9 to 14) (size 15 to 20)
#    0.000    2.733    2.000    1.200    0.000    4.000 
#    0.000    2.000    0.000    4.400    0.000    4.667 
#    0.000    0.000    0.000    0.000    0.000    0.000 
#
# Total GULP energy -334419.666830 kJ/mol
# GULP energy per Si atom -5573.661114 kJ/mol
# Density = 2.049433 g / cm^3
# Si number density = 20.541085 Si / 1000 Ang^3
#
#
#
# Elastic Constant Matrix: (Units=GPa)
#
#
# Indices 1 2 3 4 5 6 
#
# 1 72.0284 5.0065 41.1804 0.0000 0.0000 0.0000
# 2 5.0065 28.6873 13.1848 0.0000 0.0000 0.0000
# 3 41.1804 13.1848 190.0113 0.0000 0.0000 0.0000
# 4 0.0000 0.0000 0.0000 19.2727 0.0000 0.0000
# 5 0.0000 0.0000 0.0000 0.0000 9.9939 0.0000
# 6 0.0000 0.0000 0.0000 0.0000 0.0000 -60.1248
#
#
#
# Elastic Compliance Matrix: (Units=1/GPa)
#
#
# Indices 1 2 3 4 5 6 
#
# 1 0.015889 -0.001229 -0.003358 0.000000 0.000000 0.000000
# 2 -0.001229 0.036102 -0.002239 0.000000 0.000000 0.000000
# 3 -0.003358 -0.002239 0.006146 0.000000 0.000000 0.000000
# 4 0.000000 0.000000 0.000000 0.051887 0.000000 0.000000
# 5 0.000000 0.000000 0.000000 0.000000 0.100061 0.000000
# 6 0.000000 0.000000 0.000000 0.000000 0.000000 -0.016632
#
#
# Mechanical properties :
#
#
# Convention : Reuss Voigt Hill
#
# Bulk Modulus (GPa) = 22.47984 45.49672 33.98828
# Shear Modulus (GPa) = 22.52924 9.25206 15.89065
#
# Velocity S-wave (km/s) = 3.31537 2.12461 2.78439
# Velocity P-wave (km/s) = 5.06194 5.31186 5.18840
#
# Compressibility (1/GPa) = 0.04448431
#
# Stress axis : x y z
#
# Youngs Moduli (GPa) = 62.93727 27.69919 162.70756
#
# Poissons Ratio (x) = 0.03406 0.54641
# Poissons Ratio (y) = 0.07738 0.36425
# Poissons Ratio (z) = 0.21136 0.06201
#
# Static dielectric constant tensor:
#      x y z
#    x 1.756870 0.000000 0.000000 
#    y 0.000000 1.890140 0.000000 
#    z 0.000000 0.000000 1.766270 
# 
# From -- ./inp_files/64733.got.cif
#   From: 2010.05.17/outbox.cif.g08.bks.cpg/sg65_33_cif.got.tgz:64733.got - 2010.06.03 17:01:31.
