data_PCOD9490928
_publ_section_title
;
Structure prediction by ZEFSAII (Michael W. Deem and Ramdas Pophale) SiO2 
 PCOD9490928
Probable space group: C M M M
;
_chemical_formula_sum "Si O2"
_cell_formula_units_Z 88
_cell_length_a 22.977035
_cell_length_b 15.545177
_cell_length_c 11.432814
_cell_angle_alpha 90.000000
_cell_angle_beta 90.000000
_cell_angle_gamma 90.000000
_cell_volume 4083.596239
_symmetry_space_group_name_H-M "C M M M"
_symmetry_group_IT_number 65
_symmetry_cell_setting 'orthorhombic'
loop_
_space_group_symop_operation_xyz
x,y,z
-x,-y,z
x,-y,-z
-x,y,-z
-x,-y,-z
x,y,-z
-x,y,z
x,-y,z
1/2+x,1/2+y,z
1/2-x,1/2-y,z
1/2+x,1/2-y,-z
1/2-x,1/2+y,-z
1/2-x,1/2-y,-z
1/2+x,1/2+y,-z
1/2-x,1/2+y,z
1/2+x,1/2-y,z
loop_
_atom_site_type_symbol
_atom_site_label
_atom_site_fract_x
_atom_site_fract_y
_atom_site_fract_z
Si Si1 0.000000 0.403673 0.359291
Si Si2 0.435333 0.671292 0.204923
Si Si3 0.695020 0.500000 0.365850
Si Si4 0.620492 0.500000 0.871433
Si Si5 0.385672 0.796379 0.361601
Si Si6 0.731570 0.149319 0.739650
Si Si7 0.711080 0.840306 0.000000
Si Si8 0.432188 0.190544 0.000000
O O1 0.943808 0.348458 0.330456
O O2 0.000000 0.500000 0.309328
O O3 0.000000 0.411308 0.500000
O O4 0.500000 0.660962 0.254263
O O5 0.417168 0.586061 0.138246
O O6 0.391601 0.701901 0.305653
O O7 0.434025 0.748316 0.112287
O O8 0.672511 0.500000 0.500000
O O9 0.654046 0.500000 0.251708
O O10 0.732917 0.585797 0.342739
O O11 0.650138 0.500000 0.000000
O O12 0.379319 0.790886 0.500000
O O13 0.333818 0.848630 0.305510
O O14 0.750000 0.250000 0.733751
O O15 0.731113 0.120696 0.875822
O O16 0.750000 0.750000 0.000000
O O17 0.638327 0.839724 0.000000
O O18 0.500000 0.146957 0.000000
#
# Coordination Sequence:
#
# PCOD9490928 Si02
#       8
#     8  16   8   8  16  16   8   8
#     4   9  20  38  64  94 125 166 220 276 332 402
#     4  11  22  39  64  98 136 179 227 286 343 408
#     4  12  30  49  69 102 137 182 237 288 352 429
#     4  12  27  42  68  98 137 177 240 290 349 407
#     4  11  22  39  65  97 134 175 223 275 342 418
#     4  11  25  44  70  98 135 176 225 282 347 411
#     4  10  22  39  69 103 134 173 230 287 349 418
#     4  10  20  37  64  97 136 174 226 284 345 412
#
# _framework density 21.549633
#
# number of rings (size 3 to 8) (size 9 to 14) (size 15 to 20)
#    0.000    1.182    3.636    1.909    5.091    4.000 
#    0.000    0.000    0.000    1.636    0.000    1.909 
#    0.000    0.000    0.000    0.000    0.000    0.000 
#
# Total GULP energy -245245.049767 kJ/mol
# GULP energy per Si atom -5573.751131 kJ/mol
# Density = 2.150058 g / cm^3
# Si number density = 21.549633 Si / 1000 Ang^3
#
#
#
# Elastic Constant Matrix: (Units=GPa)
#
#
# Indices 1 2 3 4 5 6 
#
# 1 69.3919 -4.5204 7.7898 0.0000 0.0000 0.0000
# 2 -4.5204 60.6607 21.8512 0.0000 0.0000 0.0000
# 3 7.7898 21.8512 139.9094 0.0000 0.0000 0.0000
# 4 0.0000 0.0000 0.0000 -3.2211 0.0000 0.0000
# 5 0.0000 0.0000 0.0000 0.0000 30.8082 0.0000
# 6 0.0000 0.0000 0.0000 0.0000 0.0000 7.7425
#
#
#
# Elastic Compliance Matrix: (Units=1/GPa)
#
#
# Indices 1 2 3 4 5 6 
#
# 1 0.014623 0.001465 -0.001043 0.000000 0.000000 0.000000
# 2 0.001465 0.017615 -0.002833 0.000000 0.000000 0.000000
# 3 -0.001043 -0.002833 0.007648 0.000000 0.000000 0.000000
# 4 0.000000 0.000000 0.000000 -0.310451 0.000000 0.000000
# 5 0.000000 0.000000 0.000000 0.000000 0.032459 0.000000
# 6 0.000000 0.000000 0.000000 0.000000 0.000000 0.129157
#
#
# Mechanical properties :
#
#
# Convention : Reuss Voigt Hill
#
# Bulk Modulus (GPa) = 28.51797 35.57812 32.04804
# Shear Modulus (GPa) = -54.08895 23.38868 -15.35013
#
# Velocity S-wave (km/s) = -5.01540 3.29802 -2.67182
# Velocity P-wave (km/s) = 4.50295 5.57210 2.32075
#
# Compressibility (1/GPa) = 0.03506561
#
# Stress axis : x y z
#
# Youngs Moduli (GPa) = 68.38322 56.77064 130.75365
#
# Poissons Ratio (x) = -0.08320 0.13639
# Poissons Ratio (y) = -0.10021 0.37038
# Poissons Ratio (z) = 0.07133 0.16081
#
# Static dielectric constant tensor:
#      x y z
#    x 1.870440 0.000000 0.000000 
#    y 0.000000 1.831380 0.000000 
#    z 0.000000 0.000000 1.802020 
# 
# From -- ./inp_files/30633.got.cif
#   From: 2010.05.17/outbox.cif.g08.bks.cpg/sg65_16_cif.got.tgz:30633.got - 2010.06.03 17:01:31.
