data_PCOD9490596
_publ_section_title
;
Structure prediction by ZEFSAII (Michael W. Deem and Ramdas Pophale) SiO2 
 PCOD9490596
Probable space group: C M M M
;
_chemical_formula_sum "Si O2"
_cell_formula_units_Z 116
_cell_length_a 8.587841
_cell_length_b 26.452595
_cell_length_c 26.064406
_cell_angle_alpha 90.000000
_cell_angle_beta 90.000000
_cell_angle_gamma 90.000000
_cell_volume 5921.068832
_symmetry_space_group_name_H-M "C M M M"
_symmetry_group_IT_number 65
_symmetry_cell_setting 'orthorhombic'
loop_
_space_group_symop_operation_xyz
x,y,z
-x,-y,z
x,-y,-z
-x,y,-z
-x,-y,-z
x,y,-z
-x,y,z
x,-y,z
1/2+x,1/2+y,z
1/2-x,1/2-y,z
1/2+x,1/2-y,-z
1/2-x,1/2+y,-z
1/2-x,1/2-y,-z
1/2+x,1/2+y,-z
1/2-x,1/2+y,z
1/2+x,1/2-y,z
loop_
_atom_site_type_symbol
_atom_site_label
_atom_site_fract_x
_atom_site_fract_y
_atom_site_fract_z
Si Si1 0.324498 0.439804 0.184751
Si Si2 0.186956 0.840023 0.555528
Si Si3 0.318126 0.087474 0.920914
Si Si4 0.812777 0.803157 0.334350
Si Si5 0.324354 0.697449 0.938614
Si Si6 0.687614 0.943814 0.595164
Si Si7 0.814385 0.406123 0.707781
Si Si8 0.723347 0.500000 0.000000
O O1 0.500000 0.420082 0.176538
O O2 0.328590 0.500000 0.181774
O O3 0.215388 0.421628 0.138834
O O4 0.265452 0.425523 0.240973
O O5 0.246584 0.822454 0.500000
O O6 0.241105 0.810854 0.606308
O O7 0.235186 0.898183 0.564535
O O8 0.000000 0.836851 0.555095
O O9 0.500000 0.080161 0.933328
O O10 0.268549 0.145356 0.930773
O O11 0.229550 0.045269 0.955225
O O12 0.750000 0.750000 0.315427
O O13 0.740719 0.849307 0.303200
O O14 0.000000 0.805396 0.332602
O O15 0.500000 0.691599 0.918353
O O16 0.250000 0.750000 0.918717
O O17 0.334168 0.703286 0.000000
O O18 0.500000 0.939256 0.590683
O O19 0.726904 0.936243 0.655507
O O20 0.733289 0.000000 0.578476
O O21 0.000000 0.408940 0.713555
#
# Coordination Sequence:
#
# PCOD9490596 Si02
#       8
#    16  16  16  16  16  16  16   4
#     4  11  24  40  58  87 123 157 193 236 288 346
#     4   9  19  34  50  73 108 147 187 231 279 334
#     4  12  23  40  63  91 125 164 206 250 297 352
#     4  10  20  36  58  83 111 145 187 236 289 347
#     4  10  21  38  60  87 116 153 197 243 290 342
#     4   9  18  32  51  76 105 139 182 228 277 333
#     4  10  20  37  60  83 108 143 186 234 286 342
#     4  12  25  40  63  94 129 168 211 252 297 356
#
# _framework density 19.591055999999998
#
# number of rings (size 3 to 8) (size 9 to 14) (size 15 to 20)
#    0.000    1.793    1.379    3.103    0.000    4.138 
#    0.000    3.448    0.000    0.000    0.000    0.000 
#    0.000    0.000    0.000    0.000    0.000    0.000 
#
# Total GULP energy -323246.238803 kJ/mol
# GULP energy per Si atom -5573.211014 kJ/mol
# Density = 1.954647 g / cm^3
# Si number density = 19.591056 Si / 1000 Ang^3
#
#
#
# Elastic Constant Matrix: (Units=GPa)
#
#
# Indices 1 2 3 4 5 6 
#
# 1 23.7183 3.0330 5.9439 0.0000 0.0000 0.0000
# 2 3.0330 88.5766 -10.7545 0.0000 0.0000 0.0000
# 3 5.9439 -10.7545 53.5944 0.0000 0.0000 0.0000
# 4 0.0000 0.0000 0.0000 -2.2827 0.0000 0.0000
# 5 0.0000 0.0000 0.0000 0.0000 20.8313 0.0000
# 6 0.0000 0.0000 0.0000 0.0000 0.0000 22.7997
#
#
#
# Elastic Compliance Matrix: (Units=1/GPa)
#
#
# Indices 1 2 3 4 5 6 
#
# 1 0.043759 -0.002140 -0.005282 0.000000 0.000000 0.000000
# 2 -0.002140 0.011676 0.002580 0.000000 0.000000 0.000000
# 3 -0.005282 0.002580 0.019762 0.000000 0.000000 0.000000
# 4 0.000000 0.000000 0.000000 -0.438083 0.000000 0.000000
# 5 0.000000 0.000000 0.000000 0.000000 0.048005 0.000000
# 6 0.000000 0.000000 0.000000 0.000000 0.000000 0.043860
#
#
# Mechanical properties :
#
#
# Convention : Reuss Voigt Hill
#
# Bulk Modulus (GPa) = 15.26397 18.03711 16.65054
# Shear Modulus (GPa) = -20.87692 19.44745 -0.71474
#
# Velocity S-wave (km/s) = -3.26795 3.15408 -0.60466
# Velocity P-wave (km/s) = 2.53596 4.74248 2.83373
#
# Compressibility (1/GPa) = 0.06551375
#
# Stress axis : x y z
#
# Youngs Moduli (GPa) = 22.85246 85.64419 50.60142
#
# Poissons Ratio (x) = 0.18326 0.26730
# Poissons Ratio (y) = 0.04890 -0.13057
# Poissons Ratio (z) = 0.12072 -0.22099
#
# Static dielectric constant tensor:
#      x y z
#    x 1.706010 0.000000 0.000000 
#    y 0.000000 1.576810 0.000000 
#    z 0.000000 0.000000 1.682840 
# 
# From -- ./inp_files/73686.got.cif
#   From: 2010.05.17/outbox.cif.g08.bks.cpg/sg65_37_cif.got.tgz:73686.got - 2010.06.03 17:01:31.
