data_PCOD9490548
_publ_section_title
;
Structure prediction by ZEFSAII (Michael W. Deem and Ramdas Pophale) SiO2 
 PCOD9490548
Probable space group: C M M M
;
_chemical_formula_sum "Si O2"
_cell_formula_units_Z 82
_cell_length_a 10.072963
_cell_length_b 17.709807
_cell_length_c 24.823418
_cell_angle_alpha 90.000000
_cell_angle_beta 90.000000
_cell_angle_gamma 90.000000
_cell_volume 4428.255262
_symmetry_space_group_name_H-M "C M M M"
_symmetry_group_IT_number 65
_symmetry_cell_setting 'orthorhombic'
loop_
_space_group_symop_operation_xyz
x,y,z
-x,-y,z
x,-y,-z
-x,y,-z
-x,-y,-z
x,y,-z
-x,y,z
x,-y,z
1/2+x,1/2+y,z
1/2-x,1/2-y,z
1/2+x,1/2-y,-z
1/2-x,1/2+y,-z
1/2-x,1/2-y,-z
1/2+x,1/2+y,-z
1/2-x,1/2+y,z
1/2+x,1/2-y,z
loop_
_atom_site_type_symbol
_atom_site_label
_atom_site_fract_x
_atom_site_fract_y
_atom_site_fract_z
Si Si1 0.347156 0.092029 0.655726
Si Si2 0.000000 0.418382 0.112098
Si Si3 0.349390 0.589926 0.751721
Si Si4 0.848884 0.908009 0.438101
Si Si5 0.273724 0.661343 0.863948
Si Si6 0.000000 0.089633 0.064421
Si Si7 0.000000 0.500000 0.000000
O O1 0.500000 0.117860 0.656745
O O2 0.261324 0.112382 0.708301
O O3 0.262904 0.117585 0.603696
O O4 0.349822 0.000000 0.654356
O O5 0.868327 0.376391 0.128446
O O6 0.000000 0.500000 0.140142
O O7 0.000000 0.435977 0.048309
O O8 0.500000 0.600047 0.730624
O O9 0.334328 0.500000 0.763220
O O10 0.331955 0.635938 0.806540
O O11 0.823345 0.885476 0.500000
O O12 0.000000 0.885272 0.423468
O O13 0.848078 0.000000 0.437032
O O14 0.250000 0.750000 0.867493
O O15 0.372462 0.629065 0.909294
O O16 0.000000 0.000000 0.077773
O O17 0.000000 0.096420 0.000000
#
# Coordination Sequence:
#
# PCOD9490548 Si02
#       7
#    16   8  16  16  16   8   2
#     4   9  17  27  42  70 102 137 189 243 294 349
#     4  10  23  41  67  85 119 156 193 228 284 356
#     4  10  20  36  58  77 105 148 197 241 286 350
#     4   8  13  22  37  59  94 141 189 237 293 351
#     4  12  25  42  61  93 123 154 191 246 302 349
#     4  11  25  44  70  93 119 155 202 241 280 349
#     4   8  24  44  64  90 120 156 198 222 286 356
#
# _framework density 18.51745
#
# number of rings (size 3 to 8) (size 9 to 14) (size 15 to 20)
#    0.293    1.854    0.976    3.512    2.732    3.122 
#    1.756    1.951    0.000    0.000    0.000    0.000 
#    0.000    0.780    0.000    1.756    0.000    1.951 
#
# Total GULP energy -228446.949889 kJ/mol
# GULP energy per Si atom -5571.876827 kJ/mol
# Density = 1.847530 g / cm^3
# Si number density = 18.517450 Si / 1000 Ang^3
#
#
#
# Elastic Constant Matrix: (Units=GPa)
#
#
# Indices 1 2 3 4 5 6 
#
# 1 174.8519 55.4344 68.3902 0.0000 0.0000 0.0000
# 2 55.4344 79.0516 35.3754 0.0000 0.0000 0.0000
# 3 68.3902 35.3754 103.5093 0.0000 0.0000 0.0000
# 4 0.0000 0.0000 0.0000 0.4549 0.0000 0.0000
# 5 0.0000 0.0000 0.0000 0.0000 10.1616 0.0000
# 6 0.0000 0.0000 0.0000 0.0000 0.0000 18.8924
#
#
#
# Elastic Compliance Matrix: (Units=1/GPa)
#
#
# Indices 1 2 3 4 5 6 
#
# 1 0.008748 -0.004188 -0.004348 0.000000 0.000000 0.000000
# 2 -0.004188 0.016939 -0.003022 0.000000 0.000000 0.000000
# 3 -0.004348 -0.003022 0.013567 0.000000 0.000000 0.000000
# 4 0.000000 0.000000 0.000000 2.198275 0.000000 0.000000
# 5 0.000000 0.000000 0.000000 0.000000 0.098410 0.000000
# 6 0.000000 0.000000 0.000000 0.000000 0.000000 0.052931
#
#
# Mechanical properties :
#
#
# Convention : Reuss Voigt Hill
#
# Bulk Modulus (GPa) = 61.97088 75.09029 68.53059
# Shear Modulus (GPa) = 2.06837 19.11596 10.59216
#
# Velocity S-wave (km/s) = 1.05802 3.21646 2.39427
# Velocity P-wave (km/s) = 5.91873 7.37789 6.68822
#
# Compressibility (1/GPa) = 0.01613661
#
# Stress axis : x y z
#
# Youngs Moduli (GPa) = 114.31453 59.03420 73.70970
#
# Poissons Ratio (x) = 0.24726 0.32052
# Poissons Ratio (y) = 0.47880 0.22274
# Poissons Ratio (z) = 0.49708 0.17839
#
# Static dielectric constant tensor:
#      x y z
#    x 1.628990 0.000000 0.000000 
#    y 0.000000 1.612560 0.000000 
#    z 0.000000 0.000000 1.630310 
# 
# From -- ./inp_files/73033.got.cif
#   From: 2010.05.17/outbox.cif.g08.bks.cpg/sg65_37_cif.got.tgz:73033.got - 2010.06.03 17:01:31.
