data_PCOD9490778
_publ_section_title
;
Structure prediction by ZEFSAII (Michael W. Deem and Ramdas Pophale) SiO2 
 PCOD9490778
Probable space group: C M M M
;
_chemical_formula_sum "Si O2"
_cell_formula_units_Z 88
_cell_length_a 27.755168
_cell_length_b 19.625680
_cell_length_c 9.098727
_cell_angle_alpha 90.000000
_cell_angle_beta 90.000000
_cell_angle_gamma 90.000000
_cell_volume 4956.204393
_symmetry_space_group_name_H-M "C M M M"
_symmetry_group_IT_number 65
_symmetry_cell_setting 'orthorhombic'
loop_
_space_group_symop_operation_xyz
x,y,z
-x,-y,z
x,-y,-z
-x,y,-z
-x,-y,-z
x,y,-z
-x,y,z
x,-y,z
1/2+x,1/2+y,z
1/2-x,1/2-y,z
1/2+x,1/2-y,-z
1/2-x,1/2+y,-z
1/2-x,1/2-y,-z
1/2+x,1/2+y,-z
1/2-x,1/2+y,z
1/2+x,1/2-y,z
loop_
_atom_site_type_symbol
_atom_site_label
_atom_site_fract_x
_atom_site_fract_y
_atom_site_fract_z
Si Si1 0.598952 0.347464 0.322383
Si Si2 0.120761 0.307944 0.324379
Si Si3 0.442843 0.077260 0.824732
Si Si4 0.690200 0.420107 0.823382
Si Si5 0.000000 0.921016 0.678892
Si Si6 0.723194 0.177613 0.827151
O O1 0.601683 0.351860 0.500000
O O2 0.603092 0.267942 0.281061
O O3 0.644071 0.386940 0.253640
O O4 0.548585 0.381875 0.275412
O O5 0.120870 0.311087 0.500000
O O6 0.086291 0.365465 0.259249
O O7 0.174259 0.320066 0.263193
O O8 0.500000 0.084030 0.798295
O O9 0.428596 0.000000 0.782611
O O10 0.435108 0.083920 0.000000
O O11 0.693359 0.500000 0.789678
O O12 0.738740 0.380051 0.780377
O O13 0.685204 0.412056 0.000000
O O14 0.000000 0.921360 0.500000
O O15 0.000000 0.000000 0.727029
O O16 0.750000 0.250000 0.812882
O O17 0.711799 0.167421 0.000000
#
# Coordination Sequence:
#
# PCOD9490778 Si02
#       6
#    16  16  16  16   8  16
#     4  10  21  36  56  82 113 150 187 225 274 335
#     4  11  23  35  56  88 120 149 185 235 287 341
#     4   9  20  40  63  85 112 150 194 235 279 338
#     4  10  21  37  58  83 109 141 186 237 284 331
#     4   9  18  34  55  77 106 147 190 224 263 325
#     4  10  20  37  58  78 108 150 192 231 280 338
#
# _framework density 17.755523
#
# number of rings (size 3 to 8) (size 9 to 14) (size 15 to 20)
#    0.000    2.091    1.818    1.636    1.273    4.364 
#    0.000    3.182    0.000    1.636    0.000    0.000 
#    0.000    0.000    0.000    0.000    0.000    0.000 
#
# Total GULP energy -245648.672337 kJ/mol
# GULP energy per Si atom -5582.924371 kJ/mol
# Density = 1.771511 g / cm^3
# Si number density = 17.755523 Si / 1000 Ang^3
#
#
#
# Elastic Constant Matrix: (Units=GPa)
#
#
# Indices 1 2 3 4 5 6 
#
# 1 140.4238 116.1757 50.7102 0.0000 0.0000 0.0000
# 2 116.1757 186.7006 58.5720 0.0000 0.0000 0.0000
# 3 50.7102 58.5720 28.2071 0.0000 0.0000 0.0000
# 4 0.0000 0.0000 0.0000 25.9084 0.0000 0.0000
# 5 0.0000 0.0000 0.0000 0.0000 -8.5810 0.0000
# 6 0.0000 0.0000 0.0000 0.0000 0.0000 36.1868
#
#
#
# Elastic Compliance Matrix: (Units=1/GPa)
#
#
# Indices 1 2 3 4 5 6 
#
# 1 0.021079 -0.003523 -0.030580 0.000000 0.000000 0.000000
# 2 -0.003523 0.015955 -0.026798 0.000000 0.000000 0.000000
# 3 -0.030580 -0.026798 0.146074 0.000000 0.000000 0.000000
# 4 0.000000 0.000000 0.000000 0.038598 0.000000 0.000000
# 5 0.000000 0.000000 0.000000 0.000000 -0.116537 0.000000
# 6 0.000000 0.000000 0.000000 0.000000 0.000000 0.027634
#
#
# Mechanical properties :
#
#
# Convention : Reuss Voigt Hill
#
# Bulk Modulus (GPa) = 16.31146 89.58303 52.94724
# Shear Modulus (GPa) = 18.17908 19.36108 18.77008
#
# Velocity S-wave (km/s) = 3.20324 3.30574 3.25490
# Velocity P-wave (km/s) = 4.78411 8.07055 6.63406
#
# Compressibility (1/GPa) = 0.06130660
#
# Stress axis : x y z
#
# Youngs Moduli (GPa) = 47.44022 62.67482 6.84584
#
# Poissons Ratio (x) = 0.22080 0.20935
# Poissons Ratio (y) = 0.16713 0.18345
# Poissons Ratio (z) = 1.45074 1.67955
#
# Static dielectric constant tensor:
#      x y z
#    x 1.575160 0.000000 0.000000 
#    y 0.000000 1.596310 0.000000 
#    z 0.000000 0.000000 1.594040 
# 
# From -- ./inp_files/13956.got.cif
#   From: 2010.05.17/outbox.cif.g08.bks.cpg/sg65_7_cif.got.tgz:13956.got - 2010.06.03 17:01:31.
