data_PCOD9490024
_publ_section_title
;
Structure prediction by ZEFSAII (Michael W. Deem and Ramdas Pophale) SiO2 
 PCOD9490024
Probable space group: C M M M
;
_chemical_formula_sum "Si O2"
_cell_formula_units_Z 80
_cell_length_a 27.956987
_cell_length_b 8.527502
_cell_length_c 19.059680
_cell_angle_alpha 90.000000
_cell_angle_beta 90.000000
_cell_angle_gamma 90.000000
_cell_volume 4543.889895
_symmetry_space_group_name_H-M "C M M M"
_symmetry_group_IT_number 65
_symmetry_cell_setting 'orthorhombic'
loop_
_space_group_symop_operation_xyz
x,y,z
-x,-y,z
x,-y,-z
-x,y,-z
-x,-y,-z
x,y,-z
-x,y,z
x,-y,z
1/2+x,1/2+y,z
1/2-x,1/2-y,z
1/2+x,1/2-y,-z
1/2-x,1/2+y,-z
1/2-x,1/2-y,-z
1/2+x,1/2+y,-z
1/2-x,1/2+y,z
1/2+x,1/2-y,z
loop_
_atom_site_type_symbol
_atom_site_label
_atom_site_fract_x
_atom_site_fract_y
_atom_site_fract_z
Si Si1 0.946599 0.190620 0.212144
Si Si2 0.555279 0.691528 0.500000
Si Si3 0.849503 0.811400 0.142467
Si Si4 0.696029 0.186551 0.000000
Si Si5 0.104802 0.189774 0.355702
Si Si6 0.302217 0.186676 0.716065
O O1 0.903918 0.239444 0.160391
O O2 0.929772 0.233797 0.290707
O O3 0.000000 0.247759 0.196627
O O4 0.947739 0.000000 0.210231
O O5 0.554781 0.500000 0.500000
O O6 0.500000 0.742410 0.500000
O O7 0.582572 0.740632 0.429447
O O8 0.830385 0.746188 0.069689
O O9 0.817560 0.754037 0.207850
O O10 0.847985 0.000000 0.141111
O O11 0.750000 0.250000 0.000000
O O12 0.697296 0.000000 0.000000
O O13 0.156685 0.257593 0.337457
O O14 0.108239 0.000000 0.355538
O O15 0.250000 0.250000 0.697295
O O16 0.301435 0.000000 0.719776
#
# Coordination Sequence:
#
# PCOD9490024 Si02
#       6
#    16   8  16   8  16  16
#     4   8  14  27  50  77 103 133 170 210 247 289
#     4   9  16  28  52  83 110 137 172 215 258 303
#     4  10  20  35  55  80 107 134 170 212 254 302
#     4  12  24  38  55  76 105 137 170 209 257 308
#     4   9  17  30  50  78 108 136 172 214 255 302
#     4  11  21  35  54  75 101 134 173 214 260 309
#
# _framework density 17.606058999999998
#
# number of rings (size 3 to 8) (size 9 to 14) (size 15 to 20)
#    0.000    2.300    0.000    5.700    0.000    2.400 
#    0.000    1.500    0.000   24.000    0.000    0.000 
#    0.000    0.000    0.000    0.000    0.000    0.000 
#
# Total GULP energy -223223.043502 kJ/mol
# GULP energy per Si atom -5580.576088 kJ/mol
# Density = 1.756599 g / cm^3
# Si number density = 17.606059 Si / 1000 Ang^3
#
#
#
# Elastic Constant Matrix: (Units=GPa)
#
#
# Indices 1 2 3 4 5 6 
#
# 1 183.0702 41.6305 100.0945 0.0000 0.0000 0.0000
# 2 41.6305 69.2163 39.9996 0.0000 0.0000 0.0000
# 3 100.0945 39.9996 153.9960 0.0000 0.0000 0.0000
# 4 0.0000 0.0000 0.0000 19.9283 0.0000 0.0000
# 5 0.0000 0.0000 0.0000 0.0000 -9.4742 0.0000
# 6 0.0000 0.0000 0.0000 0.0000 0.0000 22.4265
#
#
#
# Elastic Compliance Matrix: (Units=1/GPa)
#
#
# Indices 1 2 3 4 5 6 
#
# 1 0.008783 -0.002334 -0.005103 0.000000 0.000000 0.000000
# 2 -0.002334 0.017619 -0.003060 0.000000 0.000000 0.000000
# 3 -0.005103 -0.003060 0.010605 0.000000 0.000000 0.000000
# 4 0.000000 0.000000 0.000000 0.050180 0.000000 0.000000
# 5 0.000000 0.000000 0.000000 0.000000 -0.105550 0.000000
# 6 0.000000 0.000000 0.000000 0.000000 0.000000 0.044590
#
#
# Mechanical properties :
#
#
# Convention : Reuss Voigt Hill
#
# Bulk Modulus (GPa) = 62.44041 85.52573 73.98307
# Shear Modulus (GPa) = 95.13312 21.54664 58.33988
#
# Velocity S-wave (km/s) = 7.35878 3.50211 5.76265
# Velocity P-wave (km/s) = 10.38000 8.06449 9.29463
#
# Compressibility (1/GPa) = 0.01601527
#
# Stress axis : x y z
#
# Youngs Moduli (GPa) = 113.85703 56.75610 94.29571
#
# Poissons Ratio (x) = 0.13246 0.48115
# Poissons Ratio (y) = 0.26572 0.28850
# Poissons Ratio (z) = 0.58096 0.17365
#
# Static dielectric constant tensor:
#      x y z
#    x 1.597030 0.000000 0.000000 
#    y 0.000000 1.601010 0.000000 
#    z 0.000000 0.000000 1.573480 
# 
# From -- ./inp_files/57244.got.cif
#   From: 2010.05.17/outbox.cif.g08.bks.cpg/sg65_29_cif.got.tgz:57244.got - 2010.06.03 17:01:31.
