data_PCOD9490214
_publ_section_title
;
Structure prediction by ZEFSAII (Michael W. Deem and Ramdas Pophale) SiO2 
 PCOD9490214
Probable space group: C M M M
;
_chemical_formula_sum "Si O2"
_cell_formula_units_Z 48
_cell_length_a 22.693258
_cell_length_b 12.686460
_cell_length_c 8.964067
_cell_angle_alpha 90.000000
_cell_angle_beta 90.000000
_cell_angle_gamma 90.000000
_cell_volume 2580.728982
_symmetry_space_group_name_H-M "C M M M"
_symmetry_group_IT_number 65
_symmetry_cell_setting 'orthorhombic'
loop_
_space_group_symop_operation_xyz
x,y,z
-x,-y,z
x,-y,-z
-x,y,-z
-x,-y,-z
x,y,-z
-x,y,z
x,-y,z
1/2+x,1/2+y,z
1/2-x,1/2-y,z
1/2+x,1/2-y,-z
1/2-x,1/2+y,-z
1/2-x,1/2-y,-z
1/2+x,1/2+y,-z
1/2-x,1/2+y,z
1/2+x,1/2-y,z
loop_
_atom_site_type_symbol
_atom_site_label
_atom_site_fract_x
_atom_site_fract_y
_atom_site_fract_z
Si Si1 0.758884 0.000000 0.821499
Si Si2 0.565924 0.269901 0.180284
Si Si3 0.895257 0.000000 0.818978
Si Si4 0.838997 0.380526 0.327431
O O1 0.723115 0.899769 0.756340
O O2 0.826630 0.000000 0.775140
O O3 0.755230 0.000000 0.000000
O O4 0.500000 0.234460 0.221921
O O5 0.574727 0.391363 0.228047
O O6 0.617168 0.199568 0.249697
O O7 0.570461 0.265661 0.000000
O O8 0.897068 0.000000 0.000000
O O9 0.829319 0.353307 0.500000
O O10 0.865198 0.500000 0.321657
#
# Coordination Sequence:
#
# PCOD9490214 Si02
#       4
#     8  16   8  16
#     4   9  17  34  58  81 106 138 179 221 266 321
#     4  10  20  35  57  82 109 142 180 219 262 318
#     4   9  19  35  56  83 111 140 175 222 270 311
#     4   9  20  37  54  78 111 143 176 221 272 316
#
# _framework density 18.599395999999999
#
# number of rings (size 3 to 8) (size 9 to 14) (size 15 to 20)
#    1.000    1.667    0.000    1.500    0.000    4.667 
#    0.000   14.167    0.000    2.000    0.000    0.000 
#    0.000    0.000    0.000    0.000    0.000    0.000 
#
# Total GULP energy -133671.151999 kJ/mol
# GULP energy per Si atom -5569.631333 kJ/mol
# Density = 1.855706 g / cm^3
# Si number density = 18.599396 Si / 1000 Ang^3
#
#
#
# Elastic Constant Matrix: (Units=GPa)
#
#
# Indices 1 2 3 4 5 6 
#
# 1 78.2215 -1.7861 24.5268 0.0000 0.0000 0.0000
# 2 -1.7861 27.1065 6.3883 0.0000 0.0000 0.0000
# 3 24.5268 6.3883 49.9910 0.0000 0.0000 0.0000
# 4 0.0000 0.0000 0.0000 7.3010 0.0000 0.0000
# 5 0.0000 0.0000 0.0000 0.0000 -9.4591 0.0000
# 6 0.0000 0.0000 0.0000 0.0000 0.0000 36.8833
#
#
#
# Elastic Compliance Matrix: (Units=1/GPa)
#
#
# Indices 1 2 3 4 5 6 
#
# 1 0.015322 0.002868 -0.007884 0.000000 0.000000 0.000000
# 2 0.002868 0.038574 -0.006336 0.000000 0.000000 0.000000
# 3 -0.007884 -0.006336 0.024681 0.000000 0.000000 0.000000
# 4 0.000000 0.000000 0.000000 0.136968 0.000000 0.000000
# 5 0.000000 0.000000 0.000000 0.000000 -0.105718 0.000000
# 6 0.000000 0.000000 0.000000 0.000000 0.000000 0.027113
#
#
# Mechanical properties :
#
#
# Convention : Reuss Voigt Hill
#
# Bulk Modulus (GPa) = 17.89805 23.73080 20.81442
# Shear Modulus (GPa) = 28.04765 15.35768 21.70267
#
# Velocity S-wave (km/s) = 3.88749 2.87663 3.41962
# Velocity P-wave (km/s) = 5.45838 4.88057 5.17754
#
# Compressibility (1/GPa) = 0.05587200
#
# Stress axis : x y z
#
# Youngs Moduli (GPa) = 65.26712 25.92437 40.51668
#
# Poissons Ratio (x) = -0.07434 0.31942
# Poissons Ratio (y) = -0.18716 0.25672
# Poissons Ratio (z) = 0.51454 0.16426
#
# Static dielectric constant tensor:
#      x y z
#    x 1.619450 0.000000 0.000000 
#    y 0.000000 1.648130 0.000000 
#    z 0.000000 0.000000 1.628520 
# 
# From -- ./inp_files/25863.got.cif
#   From: 2010.05.17/outbox.cif.g08.bks.cpg/sg65_13_cif.got.tgz:25863.got - 2010.06.03 17:01:31.
