data_PCOD9490705
_publ_section_title
;
Structure prediction by ZEFSAII (Michael W. Deem and Ramdas Pophale) SiO2 
 PCOD9490705
Probable space group: C M M M
;
_chemical_formula_sum "Si O2"
_cell_formula_units_Z 104
_cell_length_a 28.713365
_cell_length_b 21.620213
_cell_length_c 7.950260
_cell_angle_alpha 90.000000
_cell_angle_beta 90.000000
_cell_angle_gamma 90.000000
_cell_volume 4935.434490
_symmetry_space_group_name_H-M "C M M M"
_symmetry_group_IT_number 65
_symmetry_cell_setting 'orthorhombic'
loop_
_space_group_symop_operation_xyz
x,y,z
-x,-y,z
x,-y,-z
-x,y,-z
-x,-y,-z
x,y,-z
-x,y,z
x,-y,z
1/2+x,1/2+y,z
1/2-x,1/2-y,z
1/2+x,1/2-y,-z
1/2-x,1/2+y,-z
1/2-x,1/2-y,-z
1/2+x,1/2+y,-z
1/2-x,1/2+y,z
1/2+x,1/2-y,z
loop_
_atom_site_type_symbol
_atom_site_label
_atom_site_fract_x
_atom_site_fract_y
_atom_site_fract_z
Si Si1 0.129006 0.904838 0.307743
Si Si2 0.702809 0.164250 0.804524
Si Si3 0.552913 0.825816 0.297188
Si Si4 0.122976 0.571225 0.297141
Si Si5 0.270824 0.433231 0.196844
Si Si6 0.634350 0.733823 0.801240
Si Si7 0.447236 0.500000 0.200813
O O1 0.138700 0.920461 0.500000
O O2 0.173842 0.927780 0.206440
O O3 0.126400 0.831509 0.284704
O O4 0.082452 0.940344 0.255420
O O5 0.663039 0.111541 0.789789
O O6 0.747223 0.128611 0.729027
O O7 0.678416 0.226004 0.733909
O O8 0.712727 0.178900 0.000000
O O9 0.553538 0.818137 0.500000
O O10 0.500000 0.819152 0.238447
O O11 0.574794 0.893182 0.261327
O O12 0.588892 0.776423 0.222634
O O13 0.130469 0.574285 0.500000
O O14 0.123271 0.500000 0.245967
O O15 0.256204 0.500000 0.270783
O O16 0.257451 0.434161 0.000000
O O17 0.641582 0.722860 0.000000
O O18 0.500000 0.500000 0.267214
O O19 0.449169 0.500000 0.000000
#
# Coordination Sequence:
#
# PCOD9490705 Si02
#       7
#    16  16  16  16  16  16   8
#     4  12  25  41  63  91 122 152 187 231 286 347
#     4   9  19  35  56  83 112 153 201 241 283 335
#     4   9  18  33  52  75 106 144 188 238 291 346
#     4   9  17  29  47  74 109 148 189 237 289 340
#     4  10  20  36  60  86 118 157 197 239 285 340
#     4  10  21  38  59  82 114 152 195 243 290 345
#     4  11  25  47  73  97 121 151 191 239 294 355
#
# _framework density 21.072108
#
# number of rings (size 3 to 8) (size 9 to 14) (size 15 to 20)
#    0.000    2.077    0.769    2.538    0.000    4.615 
#    0.000    4.615    0.000    0.000    0.000    4.308 
#    0.000    0.000    0.000    0.000    0.000    0.000 
#
# Total GULP energy -290273.636828 kJ/mol
# GULP energy per Si atom -5582.185324 kJ/mol
# Density = 2.102415 g / cm^3
# Si number density = 21.072108 Si / 1000 Ang^3
#
#
#
# Elastic Constant Matrix: (Units=GPa)
#
#
# Indices 1 2 3 4 5 6 
#
# 1 105.5120 41.1850 -3.1744 0.0000 0.0000 0.0000
# 2 41.1850 146.4855 4.3082 0.0000 0.0000 0.0000
# 3 -3.1744 4.3082 31.7552 0.0000 0.0000 0.0000
# 4 0.0000 0.0000 0.0000 13.3120 0.0000 0.0000
# 5 0.0000 0.0000 0.0000 0.0000 35.2434 0.0000
# 6 0.0000 0.0000 0.0000 0.0000 0.0000 -272.6749
#
#
#
# Elastic Compliance Matrix: (Units=1/GPa)
#
#
# Indices 1 2 3 4 5 6 
#
# 1 0.010715 -0.003056 0.001486 0.000000 0.000000 0.000000
# 2 -0.003056 0.007726 -0.001354 0.000000 0.000000 0.000000
# 3 0.001486 -0.001354 0.031823 0.000000 0.000000 0.000000
# 4 0.000000 0.000000 0.000000 0.075120 0.000000 0.000000
# 5 0.000000 0.000000 0.000000 0.000000 0.028374 0.000000
# 6 0.000000 0.000000 0.000000 0.000000 0.000000 -0.003667
#
#
# Mechanical properties :
#
#
# Convention : Reuss Voigt Hill
#
# Bulk Modulus (GPa) = 22.51456 40.93226 31.72341
# Shear Modulus (GPa) = 29.28348 -28.72831 0.27758
#
# Velocity S-wave (km/s) = 3.73188 -3.69634 0.36334
# Velocity P-wave (km/s) = 5.41082 1.11793 3.90684
#
# Compressibility (1/GPa) = 0.04441570
#
# Stress axis : x y z
#
# Youngs Moduli (GPa) = 93.32455 129.43761 31.42374
#
# Poissons Ratio (x) = 0.39561 -0.04669
# Poissons Ratio (y) = 0.28523 0.04254
# Poissons Ratio (z) = -0.13866 0.17522
#
# Static dielectric constant tensor:
#      x y z
#    x 1.757900 0.000000 0.000000 
#    y 0.000000 1.768110 0.000000 
#    z 0.000000 0.000000 1.771940 
# 
# From -- ./inp_files/16469.got.cif
#   From: 2010.05.17/outbox.cif.g08.bks.cpg/sg65_9_cif.got.tgz:16469.got - 2010.06.03 17:01:31.
