data_PCOD9490296
_publ_section_title
;
Structure prediction by ZEFSAII (Michael W. Deem and Ramdas Pophale) SiO2 
 PCOD9490296
Probable space group: C M M M
;
_chemical_formula_sum "Si O2"
_cell_formula_units_Z 112
_cell_length_a 25.063341
_cell_length_b 15.572565
_cell_length_c 14.252046
_cell_angle_alpha 90.000000
_cell_angle_beta 90.000000
_cell_angle_gamma 90.000000
_cell_volume 5562.580777
_symmetry_space_group_name_H-M "C M M M"
_symmetry_group_IT_number 65
_symmetry_cell_setting 'orthorhombic'
loop_
_space_group_symop_operation_xyz
x,y,z
-x,-y,z
x,-y,-z
-x,y,-z
-x,-y,-z
x,y,-z
-x,y,z
x,-y,z
1/2+x,1/2+y,z
1/2-x,1/2-y,z
1/2+x,1/2-y,-z
1/2-x,1/2+y,-z
1/2-x,1/2-y,-z
1/2+x,1/2+y,-z
1/2-x,1/2+y,z
1/2+x,1/2-y,z
loop_
_atom_site_type_symbol
_atom_site_label
_atom_site_fract_x
_atom_site_fract_y
_atom_site_fract_z
Si Si1 0.561241 0.268994 0.788004
Si Si2 0.638646 0.598612 0.110823
Si Si3 0.935191 0.594714 0.107381
Si Si4 0.313644 0.099314 0.291408
Si Si5 0.618889 0.247143 0.389149
Si Si6 0.699844 0.403769 0.611207
Si Si7 0.759176 0.352231 0.891940
O O1 0.500000 0.286931 0.814500
O O2 0.601626 0.338191 0.830673
O O3 0.577500 0.176492 0.830230
O O4 0.568142 0.263985 0.676263
O O5 0.622744 0.500000 0.124596
O O6 0.701525 0.607620 0.133125
O O7 0.633707 0.619999 0.000000
O O8 0.917486 0.500000 0.140156
O O9 0.000000 0.592106 0.105173
O O10 0.917066 0.607075 0.000000
O O11 0.352000 0.163873 0.346107
O O12 0.254810 0.112403 0.335750
O O13 0.303804 0.119542 0.181692
O O14 0.328369 0.000000 0.304998
O O15 0.609335 0.238638 0.500000
O O16 0.657995 0.328366 0.372594
O O17 0.711337 0.403652 0.500000
O O18 0.680193 0.500000 0.636372
O O19 0.750000 0.250000 0.886517
O O20 0.771837 0.374814 0.000000
#
# Coordination Sequence:
#
# PCOD9490296 Si02
#       7
#    16  16  16  16  16  16  16
#     4  11  23  38  58  82 110 150 200 250 298 349
#     4  10  21  37  59  90 128 166 199 233 281 345
#     4   8  15  31  56  82 104 128 166 222 286 346
#     4  11  21  34  57  86 116 150 186 227 282 352
#     4  11  24  40  57  79 110 147 192 248 302 350
#     4   9  18  34  58  85 108 134 174 226 286 349
#     4  10  20  35  57  86 123 164 199 231 276 341
#
# _framework density 20.134539
#
# number of rings (size 3 to 8) (size 9 to 14) (size 15 to 20)
#    0.000    2.000    0.000    4.714    0.000    6.571 
#    0.000    1.429    0.000    0.000    0.000    6.000 
#    0.000    0.000    0.000    0.000    0.000    0.000 
#
# Total GULP energy -313010.646601 kJ/mol
# GULP energy per Si atom -5589.475832 kJ/mol
# Density = 2.008871 g / cm^3
# Si number density = 20.134539 Si / 1000 Ang^3
#
#
#
# Elastic Constant Matrix: (Units=GPa)
#
#
# Indices 1 2 3 4 5 6 
#
# 1 56.1902 23.2878 38.7322 0.0000 0.0000 0.0000
# 2 23.2878 80.0248 42.5438 0.0000 0.0000 0.0000
# 3 38.7322 42.5438 87.9674 0.0000 0.0000 0.0000
# 4 0.0000 0.0000 0.0000 -87.6642 0.0000 0.0000
# 5 0.0000 0.0000 0.0000 0.0000 25.1398 0.0000
# 6 0.0000 0.0000 0.0000 0.0000 0.0000 9.7718
#
#
#
# Elastic Compliance Matrix: (Units=1/GPa)
#
#
# Indices 1 2 3 4 5 6 
#
# 1 0.025782 -0.001976 -0.010396 0.000000 0.000000 0.000000
# 2 -0.001976 0.016972 -0.007338 0.000000 0.000000 0.000000
# 3 -0.010396 -0.007338 0.019494 0.000000 0.000000 0.000000
# 4 0.000000 0.000000 0.000000 -0.011407 0.000000 0.000000
# 5 0.000000 0.000000 0.000000 0.000000 0.039778 0.000000
# 6 0.000000 0.000000 0.000000 0.000000 0.000000 0.102335
#
#
# Mechanical properties :
#
#
# Convention : Reuss Voigt Hill
#
# Bulk Modulus (GPa) = 43.80633 48.14557 45.97595
# Shear Modulus (GPa) = 20.83470 -2.57596 9.12937
#
# Velocity S-wave (km/s) = 3.22028 -1.13232 2.13167
# Velocity P-wave (km/s) = 5.96917 4.71745 5.37984
#
# Compressibility (1/GPa) = 0.02282775
#
# Stress axis : x y z
#
# Youngs Moduli (GPa) = 38.78719 58.91903 51.29667
#
# Poissons Ratio (x) = 0.11641 0.53329
# Poissons Ratio (y) = 0.07663 0.37644
# Poissons Ratio (z) = 0.40324 0.43238
#
# Static dielectric constant tensor:
#      x y z
#    x 1.687750 0.000000 0.000000 
#    y 0.000000 1.720990 0.000000 
#    z 0.000000 0.000000 1.730810 
# 
# From -- ./inp_files/45769.got.cif
#   From: 2010.05.17/outbox.cif.g08.bks.cpg/sg65_23_cif.got.tgz:45769.got - 2010.06.03 17:01:31.
