data_PCOD9490908
_publ_section_title
;
Structure prediction by ZEFSAII (Michael W. Deem and Ramdas Pophale) SiO2 
 PCOD9490908
Probable space group: C M M M
;
_chemical_formula_sum "Si O2"
_cell_formula_units_Z 56
_cell_length_a 18.548567
_cell_length_b 16.702321
_cell_length_c 10.307070
_cell_angle_alpha 90.000000
_cell_angle_beta 90.000000
_cell_angle_gamma 90.000000
_cell_volume 3193.172752
_symmetry_space_group_name_H-M "C M M M"
_symmetry_group_IT_number 65
_symmetry_cell_setting 'orthorhombic'
loop_
_space_group_symop_operation_xyz
x,y,z
-x,-y,z
x,-y,-z
-x,y,-z
-x,-y,-z
x,y,-z
-x,y,z
x,-y,z
1/2+x,1/2+y,z
1/2-x,1/2-y,z
1/2+x,1/2-y,-z
1/2-x,1/2+y,-z
1/2-x,1/2-y,-z
1/2+x,1/2+y,-z
1/2-x,1/2+y,z
1/2+x,1/2-y,z
loop_
_atom_site_type_symbol
_atom_site_label
_atom_site_fract_x
_atom_site_fract_y
_atom_site_fract_z
Si Si1 0.818565 0.652211 0.658545
Si Si2 0.156725 0.831457 0.741917
Si Si3 0.914978 0.911494 0.500000
Si Si4 0.086649 0.096486 0.000000
Si Si5 0.417238 0.000000 0.656877
O O1 0.814890 0.661114 0.500000
O O2 0.842896 0.735630 0.722997
O O3 0.738151 0.638733 0.713014
O O4 0.872080 0.579512 0.691164
O O5 0.109134 0.865986 0.626779
O O6 0.124236 0.863786 0.875129
O O7 0.000000 0.917939 0.500000
O O8 0.881750 0.000000 0.500000
O O9 0.000000 0.110456 0.000000
O O10 0.097195 0.000000 0.000000
O O11 0.500000 0.000000 0.704820
O O12 0.420613 0.000000 0.500000
#
# Coordination Sequence:
#
# PCOD9490908 Si02
#       5
#    16  16   8   8   8
#     4  10  20  37  62  95 121 151 208 257 297 366
#     4  11  21  39  62  85 120 163 200 254 308 358
#     4  11  22  33  56  91 117 152 205 254 310 364
#     4  11  26  43  58  87 127 166 207 250 304 370
#     4   9  20  34  54  89 128 159 187 243 319 369
#
# _framework density 17.537416
#
# number of rings (size 3 to 8) (size 9 to 14) (size 15 to 20)
#    0.000    1.571    2.857    2.571    4.000    6.857 
#    0.000    0.000    0.000    0.000    0.000    3.000 
#    0.000    0.000    0.000    0.000    0.000    0.000 
#
# Total GULP energy -156252.299223 kJ/mol
# GULP energy per Si atom -5580.439258 kJ/mol
# Density = 1.749750 g / cm^3
# Si number density = 17.537416 Si / 1000 Ang^3
#
#
#
# Elastic Constant Matrix: (Units=GPa)
#
#
# Indices 1 2 3 4 5 6 
#
# 1 148.8197 106.5822 69.9996 0.0000 0.0000 0.0000
# 2 106.5822 115.6168 59.6409 0.0000 0.0000 0.0000
# 3 69.9996 59.6409 146.6423 0.0000 0.0000 0.0000
# 4 0.0000 0.0000 0.0000 47.4604 0.0000 0.0000
# 5 0.0000 0.0000 0.0000 0.0000 66.4176 0.0000
# 6 0.0000 0.0000 0.0000 0.0000 0.0000 29.7665
#
#
#
# Elastic Compliance Matrix: (Units=1/GPa)
#
#
# Indices 1 2 3 4 5 6 
#
# 1 0.020568 -0.017585 -0.002666 0.000000 0.000000 0.000000
# 2 -0.017585 0.025981 -0.002172 0.000000 0.000000 0.000000
# 3 -0.002666 -0.002172 0.008975 0.000000 0.000000 0.000000
# 4 0.000000 0.000000 0.000000 0.021070 0.000000 0.000000
# 5 0.000000 0.000000 0.000000 0.000000 0.015056 0.000000
# 6 0.000000 0.000000 0.000000 0.000000 0.000000 0.033595
#
#
# Mechanical properties :
#
#
# Convention : Reuss Voigt Hill
#
# Bulk Modulus (GPa) = 93.65936 98.16934 95.91435
# Shear Modulus (GPa) = 28.79319 40.38597 34.58958
#
# Velocity S-wave (km/s) = 4.05633 4.80400 4.44591
# Velocity P-wave (km/s) = 8.68676 9.32040 9.00915
#
# Compressibility (1/GPa) = 0.01067699
#
# Stress axis : x y z
#
# Youngs Moduli (GPa) = 48.61947 38.48940 111.41554
#
# Poissons Ratio (x) = 0.67685 0.29702
# Poissons Ratio (y) = 0.85500 0.24204
# Poissons Ratio (z) = 0.12961 0.08361
#
# Static dielectric constant tensor:
#      x y z
#    x 1.604550 0.000000 0.000000 
#    y 0.000000 1.633340 0.000000 
#    z 0.000000 0.000000 1.555340 
# 
# From -- ./inp_files/8528.got.cif
#   From: 2010.05.17/outbox.cif.g08.bks.cpg/sg65_5_cif.got.tgz:8528.got - 2010.06.03 17:01:31.
