data_PCOD9490205
_publ_section_title
;
Structure prediction by ZEFSAII (Michael W. Deem and Ramdas Pophale) SiO2 
 PCOD9490205
Probable space group: C M M M
;
_chemical_formula_sum "Si O2"
_cell_formula_units_Z 52
_cell_length_a 16.676884
_cell_length_b 21.177249
_cell_length_c 8.202917
_cell_angle_alpha 90.000000
_cell_angle_beta 90.000000
_cell_angle_gamma 90.000000
_cell_volume 2897.028504
_symmetry_space_group_name_H-M "C M M M"
_symmetry_group_IT_number 65
_symmetry_cell_setting 'orthorhombic'
loop_
_space_group_symop_operation_xyz
x,y,z
-x,-y,z
x,-y,-z
-x,y,-z
-x,-y,-z
x,y,-z
-x,y,z
x,-y,z
1/2+x,1/2+y,z
1/2-x,1/2-y,z
1/2+x,1/2-y,-z
1/2-x,1/2+y,-z
1/2-x,1/2-y,-z
1/2+x,1/2+y,-z
1/2-x,1/2+y,z
1/2+x,1/2-y,z
loop_
_atom_site_type_symbol
_atom_site_label
_atom_site_fract_x
_atom_site_fract_y
_atom_site_fract_z
Si Si1 0.000000 0.199971 0.500000
Si Si2 0.831177 0.070245 0.303973
Si Si3 0.340288 0.217686 0.500000
Si Si4 0.500000 0.390570 0.811525
Si Si5 0.785205 0.678419 0.821498
O O1 0.084647 0.236195 0.500000
O O2 0.000000 0.161987 0.330139
O O3 0.836489 0.081059 0.500000
O O4 0.782356 0.126950 0.221562
O O5 0.919225 0.071592 0.226169
O O6 0.796092 0.000000 0.279328
O O7 0.250000 0.250000 0.500000
O O8 0.343114 0.178474 0.666461
O O9 0.500000 0.368804 0.000000
O O10 0.750000 0.750000 0.829164
O O11 0.819516 0.664966 0.000000
#
# Coordination Sequence:
#
# PCOD9490205 Si02
#       5
#     4  16   8   8  16
#     4  12  24  38  61  88 121 162 204 248 298 354
#     4  11  22  37  57  83 118 160 203 243 294 358
#     4  10  20  36  56  80 117 152 191 245 296 339
#     4  12  23  35  53  80 118 165 203 236 287 351
#     4  10  20  35  57  81 108 148 194 240 291 344
#
# _framework density 17.949425999999999
#
# number of rings (size 3 to 8) (size 9 to 14) (size 15 to 20)
#    0.000    1.231    3.077    5.077    0.000    8.000 
#    0.000    0.000    0.000    0.000    0.000    2.154 
#    0.000    2.462    0.000    0.000    0.000    0.000 
#
# Total GULP energy -144889.262000 kJ/mol
# GULP energy per Si atom -5572.663923 kJ/mol
# Density = 1.790857 g / cm^3
# Si number density = 17.949426 Si / 1000 Ang^3
#
#
#
# Elastic Constant Matrix: (Units=GPa)
#
#
# Indices 1 2 3 4 5 6 
#
# 1 55.4237 46.5819 27.1543 0.0000 0.0000 0.0000
# 2 46.5819 111.9493 42.9983 0.0000 0.0000 0.0000
# 3 27.1543 42.9983 194.1141 0.0000 0.0000 0.0000
# 4 0.0000 0.0000 0.0000 -19.0902 0.0000 0.0000
# 5 0.0000 0.0000 0.0000 0.0000 13.9958 0.0000
# 6 0.0000 0.0000 0.0000 0.0000 0.0000 46.8411
#
#
#
# Elastic Compliance Matrix: (Units=1/GPa)
#
#
# Indices 1 2 3 4 5 6 
#
# 1 0.028123 -0.011139 -0.001467 0.000000 0.000000 0.000000
# 2 -0.011139 0.014175 -0.001582 0.000000 0.000000 0.000000
# 3 -0.001467 -0.001582 0.005707 0.000000 0.000000 0.000000
# 4 0.000000 0.000000 0.000000 -0.052383 0.000000 0.000000
# 5 0.000000 0.000000 0.000000 0.000000 0.071450 0.000000
# 6 0.000000 0.000000 0.000000 0.000000 0.000000 0.021349
#
#
# Mechanical properties :
#
#
# Convention : Reuss Voigt Hill
#
# Bulk Modulus (GPa) = 50.93999 66.10622 58.52310
# Shear Modulus (GPa) = 40.53874 24.66618 32.60246
#
# Velocity S-wave (km/s) = 4.75752 3.71105 4.26649
# Velocity P-wave (km/s) = 7.65637 7.43449 7.54624
#
# Compressibility (1/GPa) = 0.01963094
#
# Stress axis : x y z
#
# Youngs Moduli (GPa) = 35.55799 70.54731 175.21840
#
# Poissons Ratio (x) = 0.78580 0.25701
# Poissons Ratio (y) = 0.39607 0.27715
# Poissons Ratio (z) = 0.05216 0.11159
#
# Static dielectric constant tensor:
#      x y z
#    x 1.597480 0.000000 0.000000 
#    y 0.000000 1.666750 0.000000 
#    z 0.000000 0.000000 1.684030 
# 
# From -- ./inp_files/8417.got.cif
#   From: 2010.05.17/outbox.cif.g08.bks.cpg/sg65_5_cif.got.tgz:8417.got - 2010.06.03 17:01:31.
