data_PCOD9490922
_publ_section_title
;
Structure prediction by ZEFSAII (Michael W. Deem and Ramdas Pophale) SiO2 
 PCOD9490922
Probable space group: C M M M
;
_chemical_formula_sum "Si O2"
_cell_formula_units_Z 80
_cell_length_a 14.478978
_cell_length_b 21.782239
_cell_length_c 11.984340
_cell_angle_alpha 90.000000
_cell_angle_beta 90.000000
_cell_angle_gamma 90.000000
_cell_volume 3779.675789
_symmetry_space_group_name_H-M "C M M M"
_symmetry_group_IT_number 65
_symmetry_cell_setting 'orthorhombic'
loop_
_space_group_symop_operation_xyz
x,y,z
-x,-y,z
x,-y,-z
-x,y,-z
-x,-y,-z
x,y,-z
-x,y,z
x,-y,z
1/2+x,1/2+y,z
1/2-x,1/2-y,z
1/2+x,1/2-y,-z
1/2-x,1/2+y,-z
1/2-x,1/2-y,-z
1/2+x,1/2+y,-z
1/2-x,1/2+y,z
1/2+x,1/2-y,z
loop_
_atom_site_type_symbol
_atom_site_label
_atom_site_fract_x
_atom_site_fract_y
_atom_site_fract_z
Si Si1 0.608015 0.070741 0.247227
Si Si2 0.395488 0.500000 0.366172
Si Si3 0.140751 0.739806 0.000000
Si Si4 0.612176 0.570243 0.000000
Si Si5 0.395229 0.666770 0.189058
Si Si6 0.276775 0.622496 0.368046
Si Si7 0.607048 0.904130 0.000000
O O1 0.500000 0.089764 0.248366
O O2 0.673832 0.110717 0.324623
O O3 0.643616 0.073708 0.119101
O O4 0.612482 0.000000 0.284478
O O5 0.500000 0.500000 0.317404
O O6 0.404955 0.500000 0.500000
O O7 0.336656 0.560713 0.340899
O O8 0.250000 0.750000 0.000000
O O9 0.104335 0.774359 0.890792
O O10 0.115583 0.669063 0.000000
O O11 0.637139 0.611114 0.892405
O O12 0.645424 0.500000 0.000000
O O13 0.500000 0.568610 0.000000
O O14 0.500000 0.654079 0.226460
O O15 0.327193 0.672868 0.292596
O O16 0.280200 0.633114 0.500000
O O17 0.500000 0.923815 0.000000
#
# Coordination Sequence:
#
# PCOD9490922 Si02
#       7
#    16   8   8   8  16  16   8
#     4  10  21  38  60  89 122 154 193 245 305 365
#     4   9  18  32  49  72 107 148 191 236 275 323
#     4  11  21  38  61  88 118 150 195 246 304 363
#     4   8  16  30  48  75 110 148 188 230 286 348
#     4  10  21  36  56  83 117 155 195 245 296 350
#     4  11  22  36  54  83 117 157 205 240 284 348
#     4  10  20  37  64  89 111 144 187 242 304 367
#
# _framework density 21.165835999999999
#
# number of rings (size 3 to 8) (size 9 to 14) (size 15 to 20)
#    0.000    2.000    1.000    3.600    1.400    3.600 
#    0.000    1.000    0.000    5.400    0.000    5.600 
#    0.000    0.000    0.000    0.000    0.000    0.000 
#
# Total GULP energy -223530.270085 kJ/mol
# GULP energy per Si atom -5588.256752 kJ/mol
# Density = 2.111766 g / cm^3
# Si number density = 21.165836 Si / 1000 Ang^3
#
#
#
# Elastic Constant Matrix: (Units=GPa)
#
#
# Indices 1 2 3 4 5 6 
#
# 1 122.4466 2.4628 44.6172 0.0000 0.0000 0.0000
# 2 2.4628 55.0861 12.8797 0.0000 0.0000 0.0000
# 3 44.6172 12.8797 141.1534 0.0000 0.0000 0.0000
# 4 0.0000 0.0000 0.0000 9.6922 0.0000 0.0000
# 5 0.0000 0.0000 0.0000 0.0000 30.8522 0.0000
# 6 0.0000 0.0000 0.0000 0.0000 0.0000 19.9349
#
#
#
# Elastic Compliance Matrix: (Units=1/GPa)
#
#
# Indices 1 2 3 4 5 6 
#
# 1 0.009234 0.000275 -0.002944 0.000000 0.000000 0.000000
# 2 0.000275 0.018557 -0.001780 0.000000 0.000000 0.000000
# 3 -0.002944 -0.001780 0.008177 0.000000 0.000000 0.000000
# 4 0.000000 0.000000 0.000000 0.103175 0.000000 0.000000
# 5 0.000000 0.000000 0.000000 0.000000 0.032413 0.000000
# 6 0.000000 0.000000 0.000000 0.000000 0.000000 0.050163
#
#
# Mechanical properties :
#
#
# Convention : Reuss Voigt Hill
#
# Bulk Modulus (GPa) = 36.93956 48.73394 42.83675
# Shear Modulus (GPa) = 20.86450 29.34428 25.10439
#
# Velocity S-wave (km/s) = 3.14309 3.72748 3.44769
# Velocity P-wave (km/s) = 5.53736 6.44982 6.01093
#
# Compressibility (1/GPa) = 0.02707125
#
# Stress axis : x y z
#
# Youngs Moduli (GPa) = 108.29558 53.88695 122.28696
#
# Poissons Ratio (x) = -0.01484 0.36000
# Poissons Ratio (y) = -0.02983 0.21772
# Poissons Ratio (z) = 0.31881 0.09594
#
# Static dielectric constant tensor:
#      x y z
#    x 1.792760 0.000000 0.000000 
#    y 0.000000 1.747870 0.000000 
#    z 0.000000 0.000000 1.744470 
# 
# From -- ./inp_files/24725.got.cif
#   From: 2010.05.17/outbox.cif.g08.bks.cpg/sg65_13_cif.got.tgz:24725.got - 2010.06.03 17:01:31.
