data_PCOD9490604
_publ_section_title
;
Structure prediction by ZEFSAII (Michael W. Deem and Ramdas Pophale) SiO2 
 PCOD9490604
Probable space group: C M M M
;
_chemical_formula_sum "Si O2"
_cell_formula_units_Z 88
_cell_length_a 24.149653
_cell_length_b 24.579960
_cell_length_c 8.158338
_cell_angle_alpha 90.000000
_cell_angle_beta 90.000000
_cell_angle_gamma 90.000000
_cell_volume 4842.769080
_symmetry_space_group_name_H-M "C M M M"
_symmetry_group_IT_number 65
_symmetry_cell_setting 'orthorhombic'
loop_
_space_group_symop_operation_xyz
x,y,z
-x,-y,z
x,-y,-z
-x,y,-z
-x,-y,-z
x,y,-z
-x,y,z
x,-y,z
1/2+x,1/2+y,z
1/2-x,1/2-y,z
1/2+x,1/2-y,-z
1/2-x,1/2+y,-z
1/2-x,1/2-y,-z
1/2+x,1/2+y,-z
1/2-x,1/2+y,z
1/2+x,1/2-y,z
loop_
_atom_site_type_symbol
_atom_site_label
_atom_site_fract_x
_atom_site_fract_y
_atom_site_fract_z
Si Si1 0.433961 0.937829 0.500000
Si Si2 0.655972 0.561830 0.806541
Si Si3 0.936562 0.264405 0.804576
Si Si4 0.062971 0.856043 0.693488
Si Si5 0.882020 0.622700 0.189880
Si Si6 0.221837 0.563507 0.307122
O O1 0.500000 0.936659 0.500000
O O2 0.413405 0.910289 0.667883
O O3 0.414149 0.000000 0.500000
O O4 0.640830 0.500000 0.756028
O O5 0.607044 0.603506 0.770931
O O6 0.713659 0.576303 0.719629
O O7 0.667162 0.561414 0.000000
O O8 0.922268 0.207074 0.723467
O O9 0.895423 0.314248 0.772686
O O10 0.000000 0.279311 0.755235
O O11 0.936955 0.255538 0.000000
O O12 0.062350 0.866181 0.500000
O O13 0.000000 0.863542 0.757542
O O14 0.818808 0.603226 0.209607
O O15 0.899846 0.612865 0.000000
O O16 0.208840 0.567831 0.500000
O O17 0.213726 0.500000 0.257095
#
# Coordination Sequence:
#
# PCOD9490604 Si02
#       6
#     8  16  16  16  16  16
#     4  11  24  38  54  82 117 152 194 246 299 350
#     4  10  21  37  58  84 114 150 190 234 286 344
#     4   9  19  36  57  81 110 148 193 239 287 341
#     4  10  21  36  57  85 115 149 187 233 289 346
#     4  11  22  37  59  85 115 154 199 244 292 349
#     4  10  20  36  58  83 113 150 193 241 291 345
#
# _framework density 18.171420999999999
#
# number of rings (size 3 to 8) (size 9 to 14) (size 15 to 20)
#    0.000    1.909    0.909    2.727    1.273    5.818 
#    0.000    3.636    0.000    5.455    0.000    0.000 
#    0.000    0.000    0.000    0.000    0.000    0.000 
#
# Total GULP energy -245531.058883 kJ/mol
# GULP energy per Si atom -5580.251338 kJ/mol
# Density = 1.813006 g / cm^3
# Si number density = 18.171421 Si / 1000 Ang^3
#
#
#
# Elastic Constant Matrix: (Units=GPa)
#
#
# Indices 1 2 3 4 5 6 
#
# 1 91.7113 63.2978 26.9148 0.0000 0.0000 0.0000
# 2 63.2978 84.2184 29.8088 0.0000 0.0000 0.0000
# 3 26.9148 29.8088 66.1499 0.0000 0.0000 0.0000
# 4 0.0000 0.0000 0.0000 26.2479 0.0000 0.0000
# 5 0.0000 0.0000 0.0000 0.0000 29.0355 0.0000
# 6 0.0000 0.0000 0.0000 0.0000 0.0000 58.3153
#
#
#
# Elastic Compliance Matrix: (Units=1/GPa)
#
#
# Indices 1 2 3 4 5 6 
#
# 1 0.022846 -0.016515 -0.001853 0.000000 0.000000 0.000000
# 2 -0.016515 0.026065 -0.005026 0.000000 0.000000 0.000000
# 3 -0.001853 -0.005026 0.018136 0.000000 0.000000 0.000000
# 4 0.000000 0.000000 0.000000 0.038098 0.000000 0.000000
# 5 0.000000 0.000000 0.000000 0.000000 0.034441 0.000000
# 6 0.000000 0.000000 0.000000 0.000000 0.000000 0.017148
#
#
# Mechanical properties :
#
#
# Convention : Reuss Voigt Hill
#
# Bulk Modulus (GPa) = 49.36189 53.56913 51.46551
# Shear Modulus (GPa) = 23.77822 30.85694 27.31758
#
# Velocity S-wave (km/s) = 3.62131 4.12527 3.88148
# Velocity P-wave (km/s) = 6.68646 7.22734 6.96215
#
# Compressibility (1/GPa) = 0.02025854
#
# Stress axis : x y z
#
# Youngs Moduli (GPa) = 43.77132 38.36524 55.13818
#
# Poissons Ratio (x) = 0.63359 0.10220
# Poissons Ratio (y) = 0.72287 0.27713
# Poissons Ratio (z) = 0.08113 0.19283
#
# Static dielectric constant tensor:
#      x y z
#    x 1.625730 0.000000 0.000000 
#    y 0.000000 1.604450 0.000000 
#    z 0.000000 0.000000 1.630110 
# 
# From -- ./inp_files/13978.got.cif
#   From: 2010.05.17/outbox.cif.g08.bks.cpg/sg65_7_cif.got.tgz:13978.got - 2010.06.03 17:01:31.
