data_PCOD9490795
_publ_section_title
;
Structure prediction by ZEFSAII (Michael W. Deem and Ramdas Pophale) SiO2 
 PCOD9490795
Probable space group: C M M M
;
_chemical_formula_sum "Si O2"
_cell_formula_units_Z 104
_cell_length_a 8.716656
_cell_length_b 29.395685
_cell_length_c 23.625465
_cell_angle_alpha 90.000000
_cell_angle_beta 90.000000
_cell_angle_gamma 90.000000
_cell_volume 6053.601897
_symmetry_space_group_name_H-M "C M M M"
_symmetry_group_IT_number 65
_symmetry_cell_setting 'orthorhombic'
loop_
_space_group_symop_operation_xyz
x,y,z
-x,-y,z
x,-y,-z
-x,y,-z
-x,-y,-z
x,y,-z
-x,y,z
x,-y,z
1/2+x,1/2+y,z
1/2-x,1/2-y,z
1/2+x,1/2-y,-z
1/2-x,1/2+y,-z
1/2-x,1/2-y,-z
1/2+x,1/2+y,-z
1/2-x,1/2+y,z
1/2+x,1/2-y,z
loop_
_atom_site_type_symbol
_atom_site_label
_atom_site_fract_x
_atom_site_fract_y
_atom_site_fract_z
Si Si1 0.315306 0.051635 0.717259
Si Si2 0.817541 0.800790 0.000000
Si Si3 0.186609 0.550672 0.849512
Si Si4 0.183742 0.699304 0.775878
Si Si5 0.683716 0.357964 0.671326
Si Si6 0.314788 0.853181 0.892451
Si Si7 0.185141 0.200086 0.435623
O O1 0.500000 0.055897 0.714877
O O2 0.271254 0.057615 0.783505
O O3 0.240574 0.090830 0.680418
O O4 0.274662 0.000000 0.700945
O O5 0.750000 0.750000 0.000000
O O6 0.760076 0.827635 0.944785
O O7 0.000000 0.797909 0.000000
O O8 0.238040 0.500000 0.867080
O O9 0.235940 0.594279 0.885368
O O10 0.000000 0.550387 0.850738
O O11 0.250000 0.750000 0.777414
O O12 0.249677 0.671941 0.722653
O O13 0.221489 0.672820 0.833925
O O14 0.000000 0.700981 0.771140
O O15 0.500000 0.356583 0.673950
O O16 0.733795 0.335689 0.611971
O O17 0.500000 0.852427 0.899187
O O18 0.232739 0.188609 0.500000
O O19 0.250000 0.250000 0.422018
O O20 0.000000 0.202542 0.434725
#
# Coordination Sequence:
#
# PCOD9490795 Si02
#       7
#    16   8  16  16  16  16  16
#     4   9  17  32  54  79 108 141 176 215 262 316
#     4  12  26  42  59  78 103 139 180 223 265 314
#     4   8  14  29  55  83 107 134 171 211 253 305
#     4  11  22  35  52  77 108 140 173 217 268 318
#     4  11  21  32  51  79 109 139 174 219 269 322
#     4  10  20  37  59  81 105 138 177 217 259 310
#     4   9  19  35  52  72 101 140 183 223 263 312
#
# _framework density 17.179853999999999
#
# number of rings (size 3 to 8) (size 9 to 14) (size 15 to 20)
#    0.000    2.154    1.538    3.462    0.000    5.231 
#    0.000    0.385    0.000    3.231    0.000    3.231 
#    0.000    0.000    0.000    0.000    0.000    0.000 
#
# Total GULP energy -290193.021975 kJ/mol
# GULP energy per Si atom -5580.635038 kJ/mol
# Density = 1.714075 g / cm^3
# Si number density = 17.179854 Si / 1000 Ang^3
#
#
#
# Elastic Constant Matrix: (Units=GPa)
#
#
# Indices 1 2 3 4 5 6 
#
# 1 29.5282 46.2741 42.4050 0.0000 0.0000 0.0000
# 2 46.2741 185.3569 100.7457 0.0000 0.0000 0.0000
# 3 42.4050 100.7457 119.8524 0.0000 0.0000 0.0000
# 4 0.0000 0.0000 0.0000 28.0887 0.0000 0.0000
# 5 0.0000 0.0000 0.0000 0.0000 21.2947 0.0000
# 6 0.0000 0.0000 0.0000 0.0000 0.0000 27.8364
#
#
#
# Elastic Compliance Matrix: (Units=1/GPa)
#
#
# Indices 1 2 3 4 5 6 
#
# 1 0.074612 -0.007878 -0.019777 0.000000 0.000000 0.000000
# 2 -0.007878 0.010765 -0.006262 0.000000 0.000000 0.000000
# 3 -0.019777 -0.006262 0.020604 0.000000 0.000000 0.000000
# 4 0.000000 0.000000 0.000000 0.035601 0.000000 0.000000
# 5 0.000000 0.000000 0.000000 0.000000 0.046960 0.000000
# 6 0.000000 0.000000 0.000000 0.000000 0.000000 0.035924
#
#
# Mechanical properties :
#
#
# Convention : Reuss Voigt Hill
#
# Bulk Modulus (GPa) = 26.21281 79.28747 52.75014
# Shear Modulus (GPa) = 16.39259 25.13148 20.76204
#
# Velocity S-wave (km/s) = 3.09232 3.82887 3.48014
# Velocity P-wave (km/s) = 5.29537 8.11163 6.84980
#
# Compressibility (1/GPa) = 0.03814928
#
# Stress axis : x y z
#
# Youngs Moduli (GPa) = 13.40262 92.89363 48.53374
#
# Poissons Ratio (x) = 0.73179 0.95984
# Poissons Ratio (y) = 0.10558 0.30390
# Poissons Ratio (z) = 0.26506 0.58167
#
# Static dielectric constant tensor:
#      x y z
#    x 1.581680 0.000000 0.000000 
#    y 0.000000 1.581550 0.000000 
#    z 0.000000 0.000000 1.565130 
# 
# From -- ./inp_files/60830.got.cif
#   From: 2010.05.17/outbox.cif.g08.bks.cpg/sg65_31_cif.got.tgz:60830.got - 2010.06.03 17:01:31.
