data_PCOD9490274
_publ_section_title
;
Structure prediction by ZEFSAII (Michael W. Deem and Ramdas Pophale) SiO2 
 PCOD9490274
Probable space group: C M M M
;
_chemical_formula_sum "Si O2"
_cell_formula_units_Z 88
_cell_length_a 8.758033
_cell_length_b 18.597434
_cell_length_c 29.150187
_cell_angle_alpha 90.000000
_cell_angle_beta 90.000000
_cell_angle_gamma 90.000000
_cell_volume 4747.893279
_symmetry_space_group_name_H-M "C M M M"
_symmetry_group_IT_number 65
_symmetry_cell_setting 'orthorhombic'
loop_
_space_group_symop_operation_xyz
x,y,z
-x,-y,z
x,-y,-z
-x,y,-z
-x,-y,-z
x,y,-z
-x,y,z
x,-y,z
1/2+x,1/2+y,z
1/2-x,1/2-y,z
1/2+x,1/2-y,-z
1/2-x,1/2+y,-z
1/2-x,1/2-y,-z
1/2+x,1/2+y,-z
1/2-x,1/2+y,z
1/2+x,1/2-y,z
loop_
_atom_site_type_symbol
_atom_site_label
_atom_site_fract_x
_atom_site_fract_y
_atom_site_fract_z
Si Si1 0.183110 0.170209 0.682443
Si Si2 0.315956 0.416141 0.774345
Si Si3 0.316515 0.829507 0.859684
Si Si4 0.314244 0.916988 0.051489
Si Si5 0.823883 0.912636 0.500000
Si Si6 0.817551 0.415259 0.403247
O O1 0.250000 0.250000 0.685332
O O2 0.227108 0.125018 0.727689
O O3 0.244415 0.130037 0.637498
O O4 0.000000 0.173575 0.680557
O O5 0.500000 0.411529 0.779007
O O6 0.274017 0.500000 0.771710
O O7 0.239548 0.378242 0.817700
O O8 0.500000 0.826479 0.859541
O O9 0.250000 0.750000 0.854955
O O10 0.263944 0.865687 0.907538
O O11 0.500000 0.916405 0.051495
O O12 0.268149 0.000000 0.059648
O O13 0.264713 0.896137 0.000000
O O14 0.742211 0.890429 0.546977
O O15 0.000000 0.889950 0.500000
O O16 0.819764 0.000000 0.500000
O O17 0.777080 0.500000 0.397833
O O18 0.000000 0.409427 0.401867
#
# Coordination Sequence:
#
# PCOD9490274 Si02
#       6
#    16  16  16  16   8  16
#     4  11  23  39  58  81 111 146 183 223 273 330
#     4  10  22  40  61  84 110 141 179 226 277 329
#     4  11  22  35  54  81 112 147 185 225 273 328
#     4   8  15  30  52  77 105 139 182 230 276 324
#     4   9  17  31  54  83 114 149 188 229 273 323
#     4  10  20  35  57  85 115 147 186 231 276 323
#
# _framework density 18.534537
#
# number of rings (size 3 to 8) (size 9 to 14) (size 15 to 20)
#    0.000    2.091    0.000    4.091    0.000    7.273 
#    0.000    0.455    0.000    1.636    0.000    6.364 
#    0.000    0.000    0.000    0.000    0.000    0.000 
#
# Total GULP energy -245736.556807 kJ/mol
# GULP energy per Si atom -5584.921746 kJ/mol
# Density = 1.849235 g / cm^3
# Si number density = 18.534537 Si / 1000 Ang^3
#
#
#
# Elastic Constant Matrix: (Units=GPa)
#
#
# Indices 1 2 3 4 5 6 
#
# 1 43.1464 52.1120 58.0501 0.0000 0.0000 0.0000
# 2 52.1120 145.2485 113.1870 0.0000 0.0000 0.0000
# 3 58.0501 113.1870 194.6607 0.0000 0.0000 0.0000
# 4 0.0000 0.0000 0.0000 -24.9384 0.0000 0.0000
# 5 0.0000 0.0000 0.0000 0.0000 107.0314 0.0000
# 6 0.0000 0.0000 0.0000 0.0000 0.0000 17.0217
#
#
#
# Elastic Compliance Matrix: (Units=1/GPa)
#
#
# Indices 1 2 3 4 5 6 
#
# 1 0.046313 -0.010703 -0.007587 0.000000 0.000000 0.000000
# 2 -0.010703 0.015063 -0.005566 0.000000 0.000000 0.000000
# 3 -0.007587 -0.005566 0.010636 0.000000 0.000000 0.000000
# 4 0.000000 0.000000 0.000000 -0.040099 0.000000 0.000000
# 5 0.000000 0.000000 0.000000 0.000000 0.009343 0.000000
# 6 0.000000 0.000000 0.000000 0.000000 0.000000 0.058749
#
#
# Mechanical properties :
#
#
# Convention : Reuss Voigt Hill
#
# Bulk Modulus (GPa) = 41.15678 92.19487 66.67583
# Shear Modulus (GPa) = 32.08873 30.47005 31.27939
#
# Velocity S-wave (km/s) = 4.16540 4.05898 4.11253
# Velocity P-wave (km/s) = 6.73704 8.47451 7.65523
#
# Compressibility (1/GPa) = 0.02429733
#
# Stress axis : x y z
#
# Youngs Moduli (GPa) = 21.59236 66.38975 94.01653
#
# Poissons Ratio (x) = 0.71059 0.71334
# Poissons Ratio (y) = 0.23111 0.52333
# Poissons Ratio (z) = 0.16383 0.36955
#
# Static dielectric constant tensor:
#      x y z
#    x 1.623250 0.000000 0.000000 
#    y 0.000000 1.612230 0.000000 
#    z 0.000000 0.000000 1.620890 
# 
# From -- ./inp_files/67579.got.cif
#   From: 2010.05.17/outbox.cif.g08.bks.cpg/sg65_34_cif.got.tgz:67579.got - 2010.06.03 17:01:31.
