data_PCOD9490802
_publ_section_title
;
Structure prediction by ZEFSAII (Michael W. Deem and Ramdas Pophale) SiO2 
 PCOD9490802
Probable space group: C M M M
;
_chemical_formula_sum "Si O2"
_cell_formula_units_Z 88
_cell_length_a 11.479586
_cell_length_b 17.075830
_cell_length_c 24.347418
_cell_angle_alpha 90.000000
_cell_angle_beta 90.000000
_cell_angle_gamma 90.000000
_cell_volume 4772.665094
_symmetry_space_group_name_H-M "C M M M"
_symmetry_group_IT_number 65
_symmetry_cell_setting 'orthorhombic'
loop_
_space_group_symop_operation_xyz
x,y,z
-x,-y,z
x,-y,-z
-x,y,-z
-x,-y,-z
x,y,-z
-x,y,z
x,-y,z
1/2+x,1/2+y,z
1/2-x,1/2-y,z
1/2+x,1/2-y,-z
1/2-x,1/2+y,-z
1/2-x,1/2-y,-z
1/2+x,1/2+y,-z
1/2-x,1/2+y,z
1/2+x,1/2-y,z
loop_
_atom_site_type_symbol
_atom_site_label
_atom_site_fract_x
_atom_site_fract_y
_atom_site_fract_z
Si Si1 0.500000 0.405133 0.935681
Si Si2 0.631441 0.093038 0.226093
Si Si3 0.139442 0.589915 0.560599
Si Si4 0.799784 0.837782 0.142863
Si Si5 0.247570 0.159300 0.334863
Si Si6 0.500000 0.411717 0.342307
Si Si7 0.000000 0.907816 0.787876
O O1 0.500000 0.500000 0.930469
O O2 0.618108 0.370256 0.906902
O O3 0.500000 0.385794 0.000000
O O4 0.500000 0.125503 0.230555
O O5 0.688640 0.116890 0.167851
O O6 0.704625 0.117259 0.280039
O O7 0.626976 0.000000 0.227131
O O8 0.181073 0.616065 0.500000
O O9 0.179987 0.500000 0.569241
O O10 0.174235 0.640508 0.612493
O O11 0.000000 0.587717 0.558543
O O12 0.750000 0.750000 0.134452
O O13 0.891154 0.856485 0.191913
O O14 0.250000 0.250000 0.321554
O O15 0.119663 0.132070 0.353850
O O16 0.500000 0.500000 0.364883
O O17 0.500000 0.416084 0.276375
O O18 0.000000 0.000000 0.808991
#
# Coordination Sequence:
#
# PCOD9490802 Si02
#       7
#     8  16  16  16  16   8   8
#     4  10  23  45  71  92 116 164 219 250 283 355
#     4  11  23  37  58  87 124 163 199 241 298 368
#     4   9  19  39  65  84 106 150 203 250 302 369
#     4  11  22  35  62  91 125 154 193 253 303 344
#     4  12  25  36  58  86 124 157 198 255 308 360
#     4  11  23  38  58  83 117 165 204 239 294 365
#     4  10  20  37  59  81 118 168 209 235 278 362
#
# _framework density 18.438334999999999
#
# number of rings (size 3 to 8) (size 9 to 14) (size 15 to 20)
#    0.000    1.364    1.818    5.455    5.091    2.182 
#    0.000    0.455    0.000    1.636    0.000    2.545 
#    0.000    0.000    0.000    0.000    0.000    0.000 
#
# Total GULP energy -245019.645586 kJ/mol
# GULP energy per Si atom -5568.628309 kJ/mol
# Density = 1.839637 g / cm^3
# Si number density = 18.438335 Si / 1000 Ang^3
#
#
#
# Elastic Constant Matrix: (Units=GPa)
#
#
# Indices 1 2 3 4 5 6 
#
# 1 103.6099 38.5456 19.0846 0.0000 0.0000 0.0000
# 2 38.5456 99.8765 23.0519 0.0000 0.0000 0.0000
# 3 19.0846 23.0519 100.1987 0.0000 0.0000 0.0000
# 4 0.0000 0.0000 0.0000 57.1392 0.0000 0.0000
# 5 0.0000 0.0000 0.0000 0.0000 21.2319 0.0000
# 6 0.0000 0.0000 0.0000 0.0000 0.0000 25.7043
#
#
#
# Elastic Compliance Matrix: (Units=1/GPa)
#
#
# Indices 1 2 3 4 5 6 
#
# 1 0.011410 -0.004121 -0.001225 0.000000 0.000000 0.000000
# 2 -0.004121 0.012062 -0.001990 0.000000 0.000000 0.000000
# 3 -0.001225 -0.001990 0.010671 0.000000 0.000000 0.000000
# 4 0.000000 0.000000 0.000000 0.017501 0.000000 0.000000
# 5 0.000000 0.000000 0.000000 0.000000 0.047099 0.000000
# 6 0.000000 0.000000 0.000000 0.000000 0.000000 0.038904
#
#
# Mechanical properties :
#
#
# Convention : Reuss Voigt Hill
#
# Bulk Modulus (GPa) = 51.35749 51.67213 51.51481
# Shear Modulus (GPa) = 31.48402 35.68195 33.58299
#
# Velocity S-wave (km/s) = 4.13671 4.40387 4.27238
# Velocity P-wave (km/s) = 7.12254 7.34465 7.23445
#
# Compressibility (1/GPa) = 0.01947136
#
# Stress axis : x y z
#
# Youngs Moduli (GPa) = 87.63988 82.90459 93.70851
#
# Poissons Ratio (x) = 0.34164 0.11482
# Poissons Ratio (y) = 0.36115 0.18649
# Poissons Ratio (z) = 0.10738 0.16499
#
# Static dielectric constant tensor:
#      x y z
#    x 1.679170 0.000000 0.000000 
#    y 0.000000 1.635130 0.000000 
#    z 0.000000 0.000000 1.629670 
# 
# From -- ./inp_files/74315.got.cif
#   From: 2010.05.17/outbox.cif.g08.bks.cpg/sg65_38_cif.got.tgz:74315.got - 2010.06.03 17:01:31.
