data_PCOD9490864
_publ_section_title
;
Structure prediction by ZEFSAII (Michael W. Deem and Ramdas Pophale) SiO2 
 PCOD9490864
Probable space group: C M M M
;
_chemical_formula_sum "Si O2"
_cell_formula_units_Z 88
_cell_length_a 8.271603
_cell_length_b 21.883174
_cell_length_c 26.695161
_cell_angle_alpha 90.000000
_cell_angle_beta 90.000000
_cell_angle_gamma 90.000000
_cell_volume 4832.062468
_symmetry_space_group_name_H-M "C M M M"
_symmetry_group_IT_number 65
_symmetry_cell_setting 'orthorhombic'
loop_
_space_group_symop_operation_xyz
x,y,z
-x,-y,z
x,-y,-z
-x,y,-z
-x,-y,-z
x,y,-z
-x,y,z
x,-y,z
1/2+x,1/2+y,z
1/2-x,1/2-y,z
1/2+x,1/2-y,-z
1/2-x,1/2+y,-z
1/2-x,1/2-y,-z
1/2+x,1/2+y,-z
1/2-x,1/2+y,z
1/2+x,1/2-y,z
loop_
_atom_site_type_symbol
_atom_site_label
_atom_site_fract_x
_atom_site_fract_y
_atom_site_fract_z
Si Si1 0.320601 0.573198 0.884005
Si Si2 0.000000 0.425516 0.941462
Si Si3 0.689128 0.680538 0.704160
Si Si4 0.806487 0.181652 0.500000
Si Si5 0.806265 0.000000 0.440340
Si Si6 0.310287 0.874439 0.602757
Si Si7 0.308166 0.069844 0.772950
O O1 0.500000 0.597437 0.896676
O O2 0.325447 0.500000 0.892817
O O3 0.164980 0.596390 0.914698
O O4 0.284579 0.580675 0.825066
O O5 0.000000 0.500000 0.937303
O O6 0.000000 0.410222 0.000000
O O7 0.500000 0.679451 0.715279
O O8 0.750000 0.750000 0.713047
O O9 0.719924 0.661603 0.646562
O O10 0.770264 0.625560 0.735795
O O11 0.750000 0.250000 0.500000
O O12 0.730250 0.154532 0.549618
O O13 0.000000 0.172852 0.500000
O O14 0.746864 0.057093 0.407929
O O15 0.751079 0.000000 0.500000
O O16 0.000000 0.000000 0.442871
O O17 0.500000 0.872435 0.614109
O O18 0.500000 0.069605 0.783387
O O19 0.267353 0.000000 0.755062
#
# Coordination Sequence:
#
# PCOD9490864 Si02
#       7
#    16   8  16   8   8  16  16
#     4   9  16  28  47  73 108 153 201 247 298 355
#     4   9  16  26  42  70 112 158 200 247 300 354
#     4  12  26  44  63  87 121 156 195 248 302 358
#     4  12  24  41  62  85 110 144 186 228 278 352
#     4  11  23  41  65  91 118 148 186 234 280 339
#     4  12  25  42  63  87 116 149 186 232 291 349
#     4  10  20  37  61  87 117 156 201 248 301 361
#
# _framework density 18.211684000000002
#
# number of rings (size 3 to 8) (size 9 to 14) (size 15 to 20)
#    0.000    1.273    1.818    5.455    1.273    1.818 
#    0.000    1.818    0.000    0.000    0.000    0.000 
#    0.000    0.727    0.364    0.000    0.000    0.000 
#
# Total GULP energy -245490.518455 kJ/mol
# GULP energy per Si atom -5579.329965 kJ/mol
# Density = 1.817023 g / cm^3
# Si number density = 18.211684 Si / 1000 Ang^3
#
#
#
# Elastic Constant Matrix: (Units=GPa)
#
#
# Indices 1 2 3 4 5 6 
#
# 1 105.9157 19.6440 26.1765 0.0000 0.0000 0.0000
# 2 19.6440 105.9068 30.9681 0.0000 0.0000 0.0000
# 3 26.1765 30.9681 72.3320 0.0000 0.0000 0.0000
# 4 0.0000 0.0000 0.0000 6.3580 0.0000 0.0000
# 5 0.0000 0.0000 0.0000 0.0000 1057.1921 0.0000
# 6 0.0000 0.0000 0.0000 0.0000 0.0000 26.2169
#
#
#
# Elastic Compliance Matrix: (Units=1/GPa)
#
#
# Indices 1 2 3 4 5 6 
#
# 1 0.010452 -0.000952 -0.003375 0.000000 0.000000 0.000000
# 2 -0.000952 0.010880 -0.004314 0.000000 0.000000 0.000000
# 3 -0.003375 -0.004314 0.016893 0.000000 0.000000 0.000000
# 4 0.000000 0.000000 0.000000 0.157281 0.000000 0.000000
# 5 0.000000 0.000000 0.000000 0.000000 0.000946 0.000000
# 6 0.000000 0.000000 0.000000 0.000000 0.000000 0.038143
#
#
# Mechanical properties :
#
#
# Convention : Reuss Voigt Hill
#
# Bulk Modulus (GPa) = 47.74527 48.63688 48.19107
# Shear Modulus (GPa) = 19.31555 231.77779 125.54667
#
# Velocity S-wave (km/s) = 3.26024 11.29358 8.31186
# Velocity P-wave (km/s) = 6.35971 14.02941 10.89198
#
# Compressibility (1/GPa) = 0.02094449
#
# Stress axis : x y z
#
# Youngs Moduli (GPa) = 95.67434 91.91005 59.19456
#
# Poissons Ratio (x) = 0.08748 0.19978
# Poissons Ratio (y) = 0.09106 0.25535
# Poissons Ratio (z) = 0.32291 0.39648
#
# Static dielectric constant tensor:
#      x y z
#    x 1.648760 0.000000 0.000000 
#    y 0.000000 0.853570 0.000000 
#    z 0.000000 0.000000 1.600340 
# 
# From -- ./inp_files/67633.got.cif
#   From: 2010.05.17/outbox.cif.g08.bks.cpg/sg65_34_cif.got.tgz:67633.got - 2010.06.03 17:01:31.
