data_PCOD9490698
_publ_section_title
;
Structure prediction by ZEFSAII (Michael W. Deem and Ramdas Pophale) SiO2 
 PCOD9490698
Probable space group: C M M M
;
_chemical_formula_sum "Si O2"
_cell_formula_units_Z 72
_cell_length_a 15.779769
_cell_length_b 8.711070
_cell_length_c 28.687405
_cell_angle_alpha 90.000000
_cell_angle_beta 90.000000
_cell_angle_gamma 90.000000
_cell_volume 3943.332604
_symmetry_space_group_name_H-M "C M M M"
_symmetry_group_IT_number 65
_symmetry_cell_setting 'orthorhombic'
loop_
_space_group_symop_operation_xyz
x,y,z
-x,-y,z
x,-y,-z
-x,y,-z
-x,-y,-z
x,y,-z
-x,y,z
x,-y,z
1/2+x,1/2+y,z
1/2-x,1/2-y,z
1/2+x,1/2-y,-z
1/2-x,1/2+y,-z
1/2-x,1/2-y,-z
1/2+x,1/2+y,-z
1/2-x,1/2+y,z
1/2+x,1/2-y,z
loop_
_atom_site_type_symbol
_atom_site_label
_atom_site_fract_x
_atom_site_fract_y
_atom_site_fract_z
Si Si1 0.841344 0.315158 0.219593
Si Si2 0.000000 0.684499 0.611198
Si Si3 0.000000 0.184016 0.945512
Si Si4 0.158060 0.183766 0.445273
Si Si5 0.657716 0.815709 0.111185
Si Si6 0.000000 0.312677 0.718974
O O1 0.837881 0.500000 0.221410
O O2 0.750000 0.250000 0.233056
O O3 0.857911 0.272873 0.165541
O O4 0.916547 0.261962 0.253115
O O5 0.916940 0.746713 0.585230
O O6 0.000000 0.500000 0.609518
O O7 0.000000 0.734154 0.665227
O O8 0.916858 0.249704 0.920316
O O9 0.000000 0.000000 0.941808
O O10 0.000000 0.226134 0.000000
O O11 0.143918 0.221860 0.500000
O O12 0.250000 0.250000 0.432094
O O13 0.158738 0.000000 0.440935
O O14 0.750000 0.750000 0.098310
O O15 0.658907 0.000000 0.108069
O O16 0.000000 0.500000 0.719867
#
# Coordination Sequence:
#
# PCOD9490698 Si02
#       6
#    16   8   8  16  16   8
#     4   9  18  35  57  80 106 138 178 221 265 314
#     4  11  22  35  54  81 114 149 180 217 268 323
#     4  11  24  39  55  79 112 147 182 223 271 323
#     4  10  21  38  59  81 106 139 181 228 274 321
#     4  10  20  36  60  85 109 141 181 226 272 319
#     4   9  19  35  53  76 110 147 178 212 261 319
#
# _framework density 18.258668
#
# number of rings (size 3 to 8) (size 9 to 14) (size 15 to 20)
#    0.000    2.111    0.000    3.000    0.000    7.556 
#    0.000    5.000    0.000    0.000    0.000    0.000 
#    0.000    0.000    0.000    0.000    0.000    0.000 
#
# Total GULP energy -201078.919101 kJ/mol
# GULP energy per Si atom -5585.525531 kJ/mol
# Density = 1.821711 g / cm^3
# Si number density = 18.258668 Si / 1000 Ang^3
#
#
#
# Elastic Constant Matrix: (Units=GPa)
#
#
# Indices 1 2 3 4 5 6 
#
# 1 217.9634 58.0054 141.9002 0.0000 0.0000 0.0000
# 2 58.0054 40.6154 49.0391 0.0000 0.0000 0.0000
# 3 141.9002 49.0391 130.4985 0.0000 0.0000 0.0000
# 4 0.0000 0.0000 0.0000 21.7608 0.0000 0.0000
# 5 0.0000 0.0000 0.0000 0.0000 -15.7870 0.0000
# 6 0.0000 0.0000 0.0000 0.0000 0.0000 40.0439
#
#
#
# Elastic Compliance Matrix: (Units=1/GPa)
#
#
# Indices 1 2 3 4 5 6 
#
# 1 0.015955 -0.003367 -0.016084 0.000000 0.000000 0.000000
# 2 -0.003367 0.045781 -0.013543 0.000000 0.000000 0.000000
# 3 -0.016084 -0.013543 0.030241 0.000000 0.000000 0.000000
# 4 0.000000 0.000000 0.000000 0.045954 0.000000 0.000000
# 5 0.000000 0.000000 0.000000 0.000000 -0.063343 0.000000
# 6 0.000000 0.000000 0.000000 0.000000 0.000000 0.024973
#
#
# Mechanical properties :
#
#
# Convention : Reuss Voigt Hill
#
# Bulk Modulus (GPa) = 38.47568 98.55186 68.51377
# Shear Modulus (GPa) = 28.70096 18.54573 23.62335
#
# Velocity S-wave (km/s) = 3.96903 3.19050 3.60087
# Velocity P-wave (km/s) = 6.49019 8.22587 7.40903
#
# Compressibility (1/GPa) = 0.02599045
#
# Stress axis : x y z
#
# Youngs Moduli (GPa) = 62.67736 21.84302 33.06769
#
# Poissons Ratio (x) = 0.07354 0.53185
# Poissons Ratio (y) = 0.21101 0.44784
# Poissons Ratio (z) = 1.00808 0.29582
#
# Static dielectric constant tensor:
#      x y z
#    x 1.591080 0.000000 0.000000 
#    y 0.000000 1.615930 0.000000 
#    z 0.000000 0.000000 1.614580 
# 
# From -- ./inp_files/72576.got.cif
#   From: 2010.05.17/outbox.cif.g08.bks.cpg/sg65_37_cif.got.tgz:72576.got - 2010.06.03 17:01:31.
