data_PCOD9490359
_publ_section_title
;
Structure prediction by ZEFSAII (Michael W. Deem and Ramdas Pophale) SiO2 
 PCOD9490359
Probable space group: C M M M
;
_chemical_formula_sum "Si O2"
_cell_formula_units_Z 112
_cell_length_a 14.313216
_cell_length_b 14.308357
_cell_length_c 27.264243
_cell_angle_alpha 90.000000
_cell_angle_beta 90.000000
_cell_angle_gamma 90.000000
_cell_volume 5583.678915
_symmetry_space_group_name_H-M "C M M M"
_symmetry_group_IT_number 65
_symmetry_cell_setting 'orthorhombic'
loop_
_space_group_symop_operation_xyz
x,y,z
-x,-y,z
x,-y,-z
-x,y,-z
-x,-y,-z
x,y,-z
-x,y,z
x,-y,z
1/2+x,1/2+y,z
1/2-x,1/2-y,z
1/2+x,1/2-y,-z
1/2-x,1/2+y,-z
1/2-x,1/2-y,-z
1/2+x,1/2+y,-z
1/2-x,1/2+y,z
1/2+x,1/2-y,z
loop_
_atom_site_type_symbol
_atom_site_label
_atom_site_fract_x
_atom_site_fract_y
_atom_site_fract_z
Si Si1 0.887626 0.104477 0.650993
Si Si2 0.107226 0.398460 0.385060
Si Si3 0.286551 0.109299 0.906299
Si Si4 0.614434 0.783360 0.707029
Si Si5 0.391507 0.714019 0.057469
Si Si6 0.857635 0.223805 0.553921
Si Si7 0.889634 0.608144 0.196785
O O1 0.856173 0.179302 0.691737
O O2 0.870811 0.149032 0.597158
O O3 0.000000 0.099677 0.655471
O O4 0.849902 0.000000 0.655867
O O5 0.147155 0.500000 0.397903
O O6 0.150190 0.349566 0.337239
O O7 0.103321 0.322939 0.428037
O O8 0.000000 0.411540 0.371061
O O9 0.352515 0.180408 0.936479
O O10 0.181496 0.148582 0.913339
O O11 0.325470 0.117753 0.850943
O O12 0.292346 0.000000 0.920442
O O13 0.500000 0.784100 0.706269
O O14 0.640109 0.823316 0.759664
O O15 0.500000 0.707541 0.072960
O O16 0.385907 0.688626 0.000000
O O17 0.890658 0.194530 0.500000
O O18 0.750000 0.250000 0.551022
O O19 0.884206 0.500000 0.213941
O O20 0.000000 0.624894 0.184579
#
# Coordination Sequence:
#
# PCOD9490359 Si02
#       7
#    16  16  16  16  16  16  16
#     4   9  18  33  54  78 102 133 176 222 265 317
#     4   9  17  30  50  74  98 126 163 210 264 323
#     4  10  20  35  58  89 122 156 201 257 307 356
#     4   8  14  27  49  77 107 136 168 213 271 333
#     4  10  22  39  59  86 122 167 213 254 303 359
#     4  10  21  34  47  67  97 134 172 212 267 329
#     4   9  16  27  50  85 118 147 182 229 290 352
#
# _framework density 20.058461000000001
#
# number of rings (size 3 to 8) (size 9 to 14) (size 15 to 20)
#    0.000    2.714    0.000    3.000    0.000    6.286 
#    0.000    4.286   12.571    3.429    0.000    4.000 
#    0.000    0.000    0.000    0.000    0.000    0.000 
#
# Total GULP energy -312163.369762 kJ/mol
# GULP energy per Si atom -5574.345889 kJ/mol
# Density = 2.001281 g / cm^3
# Si number density = 20.058461 Si / 1000 Ang^3
#
#
#
# Elastic Constant Matrix: (Units=GPa)
#
#
# Indices 1 2 3 4 5 6 
#
# 1 106.3274 33.0920 32.8649 0.0000 0.0000 0.0000
# 2 33.0920 147.3181 62.2238 0.0000 0.0000 0.0000
# 3 32.8649 62.2238 93.9769 0.0000 0.0000 0.0000
# 4 0.0000 0.0000 0.0000 17.8717 0.0000 0.0000
# 5 0.0000 0.0000 0.0000 0.0000 38.4900 0.0000
# 6 0.0000 0.0000 0.0000 0.0000 0.0000 -2.2986
#
#
#
# Elastic Compliance Matrix: (Units=1/GPa)
#
#
# Indices 1 2 3 4 5 6 
#
# 1 0.010681 -0.001141 -0.002980 0.000000 0.000000 0.000000
# 2 -0.001141 0.009545 -0.005921 0.000000 0.000000 0.000000
# 3 -0.002980 -0.005921 0.015604 0.000000 0.000000 0.000000
# 4 0.000000 0.000000 0.000000 0.055954 0.000000 0.000000
# 5 0.000000 0.000000 0.000000 0.000000 0.025981 0.000000
# 6 0.000000 0.000000 0.000000 0.000000 0.000000 -0.435042
#
#
# Mechanical properties :
#
#
# Convention : Reuss Voigt Hill
#
# Bulk Modulus (GPa) = 63.50758 67.10931 65.30844
# Shear Modulus (GPa) = -17.12656 25.44205 4.15774
#
# Velocity S-wave (km/s) = -2.92521 3.56532 1.44129
# Velocity P-wave (km/s) = 4.50786 7.10480 5.94975
#
# Compressibility (1/GPa) = 0.01574615
#
# Stress axis : x y z
#
# Youngs Moduli (GPa) = 93.62413 104.76466 64.08765
#
# Poissons Ratio (x) = 0.11949 0.19099
# Poissons Ratio (y) = 0.10678 0.37948
# Poissons Ratio (z) = 0.27901 0.62033
#
# Static dielectric constant tensor:
#      x y z
#    x 1.719100 0.000000 0.000000 
#    y 0.000000 1.724630 0.000000 
#    z 0.000000 0.000000 1.695440 
# 
# From -- ./inp_files/74874.got.cif
#   From: 2010.05.17/outbox.cif.g08.bks.cpg/sg65_38_cif.got.tgz:74874.got - 2010.06.03 17:01:31.
