data_PCOD9490544
_publ_section_title
;
Structure prediction by ZEFSAII (Michael W. Deem and Ramdas Pophale) SiO2 
 PCOD9490544
Probable space group: C M M M
;
_chemical_formula_sum "Si O2"
_cell_formula_units_Z 66
_cell_length_a 8.180396
_cell_length_b 21.067839
_cell_length_c 20.590648
_cell_angle_alpha 90.000000
_cell_angle_beta 90.000000
_cell_angle_gamma 90.000000
_cell_volume 3548.659523
_symmetry_space_group_name_H-M "C M M M"
_symmetry_group_IT_number 65
_symmetry_cell_setting 'orthorhombic'
loop_
_space_group_symop_operation_xyz
x,y,z
-x,-y,z
x,-y,-z
-x,y,-z
-x,-y,-z
x,y,-z
-x,y,z
x,-y,z
1/2+x,1/2+y,z
1/2-x,1/2-y,z
1/2+x,1/2-y,-z
1/2-x,1/2+y,-z
1/2-x,1/2-y,-z
1/2+x,1/2+y,-z
1/2-x,1/2+y,z
1/2+x,1/2-y,z
loop_
_atom_site_type_symbol
_atom_site_label
_atom_site_fract_x
_atom_site_fract_y
_atom_site_fract_z
Si Si1 0.692209 0.678877 0.757091
Si Si2 0.308635 0.822077 0.614374
Si Si3 0.500000 0.000000 0.500000
Si Si4 0.806163 0.573778 0.857864
Si Si5 0.313510 0.576667 0.000000
Si Si6 0.814481 0.905124 0.500000
O O1 0.500000 0.683020 0.743753
O O2 0.750000 0.750000 0.776662
O O3 0.780610 0.660842 0.689782
O O4 0.726253 0.624870 0.810179
O O5 0.500000 0.827217 0.598913
O O6 0.250000 0.750000 0.607834
O O7 0.204852 0.863620 0.564993
O O8 0.350665 0.053093 0.500000
O O9 0.748673 0.500000 0.849189
O O10 0.771667 0.593590 0.932402
O O11 0.000000 0.574020 0.846731
O O12 0.316196 0.500000 0.000000
O O13 0.500000 0.599831 0.000000
O O14 0.000000 0.931835 0.500000
#
# Coordination Sequence:
#
# PCOD9490544 Si02
#       6
#    16  16   2  16   8   8
#     4  11  22  38  59  86 119 156 195 245 303 355
#     4  11  21  39  64  93 120 152 202 255 302 353
#     4  12  26  48  60  94 128 172 194 248 312 362
#     4  10  20  36  57  84 114 152 194 240 291 352
#     4   9  17  31  54  81 112 147 190 241 285 341
#     4  12  24  44  66  91 124 165 208 247 302 366
#
# _framework density 18.598571
#
# number of rings (size 3 to 8) (size 9 to 14) (size 15 to 20)
#    0.000    1.333    1.212    7.455    0.000    2.909 
#    2.182    0.606    0.000    0.000    0.000    0.000 
#    0.000    0.000    0.000    0.000    0.000    0.000 
#
# Total GULP energy -183882.689669 kJ/mol
# GULP energy per Si atom -5572.202717 kJ/mol
# Density = 1.855624 g / cm^3
# Si number density = 18.598571 Si / 1000 Ang^3
#
#
#
# Elastic Constant Matrix: (Units=GPa)
#
#
# Indices 1 2 3 4 5 6 
#
# 1 121.9854 20.2822 15.1529 0.0000 0.0000 0.0000
# 2 20.2822 77.2065 69.9200 0.0000 0.0000 0.0000
# 3 15.1529 69.9200 93.1862 0.0000 0.0000 0.0000
# 4 0.0000 0.0000 0.0000 35.3223 0.0000 0.0000
# 5 0.0000 0.0000 0.0000 0.0000 39.8204 0.0000
# 6 0.0000 0.0000 0.0000 0.0000 0.0000 13.6485
#
#
#
# Elastic Compliance Matrix: (Units=1/GPa)
#
#
# Indices 1 2 3 4 5 6 
#
# 1 0.008598 -0.003097 0.000926 0.000000 0.000000 0.000000
# 2 -0.003097 0.041530 -0.030657 0.000000 0.000000 0.000000
# 3 0.000926 -0.030657 0.033584 0.000000 0.000000 0.000000
# 4 0.000000 0.000000 0.000000 0.028311 0.000000 0.000000
# 5 0.000000 0.000000 0.000000 0.000000 0.025113 0.000000
# 6 0.000000 0.000000 0.000000 0.000000 0.000000 0.073268
#
#
# Mechanical properties :
#
#
# Convention : Reuss Voigt Hill
#
# Bulk Modulus (GPa) = 55.38948 55.89872 55.64410
# Shear Modulus (GPa) = 17.72560 30.22642 23.97601
#
# Velocity S-wave (km/s) = 3.09052 4.03575 3.59434
# Velocity P-wave (km/s) = 6.52544 7.19979 6.87089
#
# Compressibility (1/GPa) = 0.01805397
#
# Stress axis : x y z
#
# Youngs Moduli (GPa) = 116.31116 24.07913 29.77640
#
# Poissons Ratio (x) = 0.07457 -0.02756
# Poissons Ratio (y) = 0.36020 0.91286
# Poissons Ratio (z) = -0.10766 0.73820
#
# Static dielectric constant tensor:
#      x y z
#    x 1.650680 0.000000 0.000000 
#    y 0.000000 1.629310 0.000000 
#    z 0.000000 0.000000 1.647510 
# 
# From -- ./inp_files/59048.got.cif
#   From: 2010.05.17/outbox.cif.g08.bks.cpg/sg65_30_cif.got.tgz:59048.got - 2010.06.03 17:01:31.
