data_PCOD9490287
_publ_section_title
;
Structure prediction by ZEFSAII (Michael W. Deem and Ramdas Pophale) SiO2 
 PCOD9490287
Probable space group: C M M M
;
_chemical_formula_sum "Si O2"
_cell_formula_units_Z 88
_cell_length_a 19.122728
_cell_length_b 7.945359
_cell_length_c 31.102701
_cell_angle_alpha 90.000000
_cell_angle_beta 90.000000
_cell_angle_gamma 90.000000
_cell_volume 4725.649185
_symmetry_space_group_name_H-M "C M M M"
_symmetry_group_IT_number 65
_symmetry_cell_setting 'orthorhombic'
loop_
_space_group_symop_operation_xyz
x,y,z
-x,-y,z
x,-y,-z
-x,y,-z
-x,-y,-z
x,y,-z
-x,y,z
x,-y,z
1/2+x,1/2+y,z
1/2-x,1/2-y,z
1/2+x,1/2-y,-z
1/2-x,1/2+y,-z
1/2-x,1/2-y,-z
1/2+x,1/2+y,-z
1/2-x,1/2+y,z
1/2+x,1/2-y,z
loop_
_atom_site_type_symbol
_atom_site_label
_atom_site_fract_x
_atom_site_fract_y
_atom_site_fract_z
Si Si1 0.168700 0.702555 0.306476
Si Si2 0.415189 0.000000 0.451058
Si Si3 0.416852 0.692111 0.610165
Si Si4 0.579122 0.798122 0.871303
Si Si5 0.830813 0.799675 0.047010
Si Si6 0.081249 0.294906 0.775859
O O1 0.162361 0.500000 0.309113
O O2 0.250000 0.750000 0.307075
O O3 0.127309 0.778789 0.346789
O O4 0.131328 0.761209 0.262442
O O5 0.395503 0.832894 0.424552
O O6 0.500000 0.000000 0.452834
O O7 0.389205 0.000000 0.500000
O O8 0.500000 0.715809 0.619275
O O9 0.407511 0.500000 0.594921
O O10 0.500000 0.735034 0.878031
O O11 0.626345 0.756921 0.911773
O O12 0.602860 0.738758 0.823893
O O13 0.576002 0.000000 0.868522
O O14 0.750000 0.750000 0.051635
O O15 0.835154 0.000000 0.045654
O O16 0.855098 0.733606 0.000000
O O17 0.082345 0.500000 0.775434
O O18 0.000000 0.245714 0.768968
#
# Coordination Sequence:
#
# PCOD9490287 Si02
#       6
#    16   8  16  16  16  16
#     4  11  21  34  53  79 111 149 186 228 276 326
#     4   9  18  34  58  88 118 150 189 233 284 334
#     4  10  20  35  57  86 116 149 191 235 281 334
#     4   9  18  34  55  79 106 137 173 214 265 322
#     4  10  21  36  53  73  99 133 174 219 269 322
#     4   8  16  32  54  77 104 141 181 220 267 325
#
# _framework density 18.621780999999999
#
# number of rings (size 3 to 8) (size 9 to 14) (size 15 to 20)
#    0.000    2.455    0.909    2.727    0.000    3.636 
#    0.000    7.273    0.000    2.727    0.000    0.000 
#    0.000    0.000    0.000    0.000    0.000    0.000 
#
# Total GULP energy -245399.985125 kJ/mol
# GULP energy per Si atom -5577.272389 kJ/mol
# Density = 1.857940 g / cm^3
# Si number density = 18.621781 Si / 1000 Ang^3
#
#
#
# Elastic Constant Matrix: (Units=GPa)
#
#
# Indices 1 2 3 4 5 6 
#
# 1 71.0268 28.3408 87.1466 0.0000 0.0000 0.0000
# 2 28.3408 68.7501 52.5290 0.0000 0.0000 0.0000
# 3 87.1466 52.5290 200.4716 0.0000 0.0000 0.0000
# 4 0.0000 0.0000 0.0000 9.4894 0.0000 0.0000
# 5 0.0000 0.0000 0.0000 0.0000 -23.1277 0.0000
# 6 0.0000 0.0000 0.0000 0.0000 0.0000 19.5814
#
#
#
# Elastic Compliance Matrix: (Units=1/GPa)
#
#
# Indices 1 2 3 4 5 6 
#
# 1 0.030682 -0.003072 -0.012533 0.000000 0.000000 0.000000
# 2 -0.003072 0.018494 -0.003510 0.000000 0.000000 0.000000
# 3 -0.012533 -0.003510 0.011356 0.000000 0.000000 0.000000
# 4 0.000000 0.000000 0.000000 0.105381 0.000000 0.000000
# 5 0.000000 0.000000 0.000000 0.000000 -0.043238 0.000000
# 6 0.000000 0.000000 0.000000 0.000000 0.000000 0.051069
#
#
# Mechanical properties :
#
#
# Convention : Reuss Voigt Hill
#
# Bulk Modulus (GPa) = 44.84012 75.14235 59.99123
# Shear Modulus (GPa) = 22.78852 12.67075 17.72964
#
# Velocity S-wave (km/s) = 3.50202 2.61133 3.08895
# Velocity P-wave (km/s) = 6.36269 7.03786 6.70878
#
# Compressibility (1/GPa) = 0.02230146
#
# Stress axis : x y z
#
# Youngs Moduli (GPa) = 32.59217 54.07141 88.05809
#
# Poissons Ratio (x) = 0.16613 1.10361
# Poissons Ratio (y) = 0.10013 0.30912
# Poissons Ratio (z) = 0.40847 0.18981
#
# Static dielectric constant tensor:
#      x y z
#    x 1.604750 0.000000 0.000000 
#    y 0.000000 1.673290 0.000000 
#    z 0.000000 0.000000 1.649770 
# 
# From -- ./inp_files/70968.got.cif
#   From: 2010.05.17/outbox.cif.g08.bks.cpg/sg65_36_cif.got.tgz:70968.got - 2010.06.03 17:01:31.
