data_PCOD9490849
_publ_section_title
;
Structure prediction by ZEFSAII (Michael W. Deem and Ramdas Pophale) SiO2 
 PCOD9490849
Probable space group: C M M M
;
_chemical_formula_sum "Si O2"
_cell_formula_units_Z 80
_cell_length_a 20.626037
_cell_length_b 18.914313
_cell_length_c 11.403096
_cell_angle_alpha 90.000000
_cell_angle_beta 90.000000
_cell_angle_gamma 90.000000
_cell_volume 4448.659280
_symmetry_space_group_name_H-M "C M M M"
_symmetry_group_IT_number 65
_symmetry_cell_setting 'orthorhombic'
loop_
_space_group_symop_operation_xyz
x,y,z
-x,-y,z
x,-y,-z
-x,y,-z
-x,-y,-z
x,y,-z
-x,y,z
x,-y,z
1/2+x,1/2+y,z
1/2-x,1/2-y,z
1/2+x,1/2-y,-z
1/2-x,1/2+y,-z
1/2-x,1/2-y,-z
1/2+x,1/2+y,-z
1/2-x,1/2+y,z
1/2+x,1/2-y,z
loop_
_atom_site_type_symbol
_atom_site_label
_atom_site_fract_x
_atom_site_fract_y
_atom_site_fract_z
Si Si1 0.426724 0.810945 0.259105
Si Si2 0.824931 0.419428 0.638981
Si Si3 0.924402 0.152877 0.360201
Si Si4 0.071937 0.256049 0.000000
Si Si5 0.806465 0.082678 0.774602
Si Si6 0.205608 0.178880 0.000000
O O1 0.500000 0.834376 0.288968
O O2 0.372929 0.864661 0.301362
O O3 0.417043 0.734345 0.319147
O O4 0.422829 0.800375 0.119187
O O5 0.828761 0.411137 0.500000
O O6 0.843344 0.500000 0.669799
O O7 0.751397 0.409272 0.681118
O O8 0.912468 0.146635 0.500000
O O9 0.873296 0.108206 0.284862
O O10 0.000000 0.133436 0.338664
O O11 0.130651 0.202161 0.000000
O O12 0.000000 0.222502 0.000000
O O13 0.786320 0.131306 0.884483
O O14 0.811062 0.000000 0.807925
O O15 0.250000 0.250000 0.000000
#
# Coordination Sequence:
#
# PCOD9490849 Si02
#       6
#    16  16  16   8  16   8
#     4  10  20  37  60  88 117 149 197 249 293 347
#     4  10  22  39  58  83 118 158 195 238 298 358
#     4  10  21  37  60  89 119 155 198 242 290 346
#     4  10  20  37  61  85 115 150 187 238 294 342
#     4  11  24  40  59  87 122 155 193 243 293 347
#     4  12  23  39  64  88 114 155 199 243 292 345
#
# _framework density 17.982946999999999
#
# number of rings (size 3 to 8) (size 9 to 14) (size 15 to 20)
#    0.000    1.600    2.000    2.700    0.000    3.200 
#    0.000    5.500    0.000    3.600    0.000    0.000 
#    0.000    0.000    0.000    0.000    0.000    0.000 
#
# Total GULP energy -223320.206550 kJ/mol
# GULP energy per Si atom -5583.005164 kJ/mol
# Density = 1.794202 g / cm^3
# Si number density = 17.982947 Si / 1000 Ang^3
#
#
#
# Elastic Constant Matrix: (Units=GPa)
#
#
# Indices 1 2 3 4 5 6 
#
# 1 80.4941 60.5629 17.3186 0.0000 0.0000 0.0000
# 2 60.5629 87.6958 39.4879 0.0000 0.0000 0.0000
# 3 17.3186 39.4879 66.4163 0.0000 0.0000 0.0000
# 4 0.0000 0.0000 0.0000 14.8590 0.0000 0.0000
# 5 0.0000 0.0000 0.0000 0.0000 30.2544 0.0000
# 6 0.0000 0.0000 0.0000 0.0000 0.0000 33.8280
#
#
#
# Elastic Compliance Matrix: (Units=1/GPa)
#
#
# Indices 1 2 3 4 5 6 
#
# 1 0.027298 -0.021367 0.005586 0.000000 0.000000 0.000000
# 2 -0.021367 0.032297 -0.013630 0.000000 0.000000 0.000000
# 3 0.005586 -0.013630 0.021704 0.000000 0.000000 0.000000
# 4 0.000000 0.000000 0.000000 0.067299 0.000000 0.000000
# 5 0.000000 0.000000 0.000000 0.000000 0.033053 0.000000
# 6 0.000000 0.000000 0.000000 0.000000 0.000000 0.029561
#
#
# Mechanical properties :
#
#
# Convention : Reuss Voigt Hill
#
# Bulk Modulus (GPa) = 44.49394 52.14943 48.32168
# Shear Modulus (GPa) = 18.01622 23.60406 20.81014
#
# Velocity S-wave (km/s) = 3.16864 3.62689 3.40548
# Velocity P-wave (km/s) = 6.17924 6.82652 6.51093
#
# Compressibility (1/GPa) = 0.02247497
#
# Stress axis : x y z
#
# Youngs Moduli (GPa) = 36.63294 30.96287 46.07439
#
# Poissons Ratio (x) = 0.66159 -0.25736
# Poissons Ratio (y) = 0.78274 0.62801
# Poissons Ratio (z) = -0.20462 0.42204
#
# Static dielectric constant tensor:
#      x y z
#    x 1.610950 0.000000 0.000000 
#    y 0.000000 1.593130 0.000000 
#    z 0.000000 0.000000 1.640870 
# 
# From -- ./inp_files/28576.got.cif
#   From: 2010.05.17/outbox.cif.g08.bks.cpg/sg65_15_cif.got.tgz:28576.got - 2010.06.03 17:01:31.
