data_PCOD9490466
_publ_section_title
;
Structure prediction by ZEFSAII (Michael W. Deem and Ramdas Pophale) SiO2 
 PCOD9490466
Probable space group: C M M M
;
_chemical_formula_sum "Si O2"
_cell_formula_units_Z 120
_cell_length_a 9.616107
_cell_length_b 27.475069
_cell_length_c 23.524253
_cell_angle_alpha 90.000000
_cell_angle_beta 90.000000
_cell_angle_gamma 90.000000
_cell_volume 6215.182999
_symmetry_space_group_name_H-M "C M M M"
_symmetry_group_IT_number 65
_symmetry_cell_setting 'orthorhombic'
loop_
_space_group_symop_operation_xyz
x,y,z
-x,-y,z
x,-y,-z
-x,y,-z
-x,-y,-z
x,y,-z
-x,y,z
x,-y,z
1/2+x,1/2+y,z
1/2-x,1/2-y,z
1/2+x,1/2-y,-z
1/2-x,1/2+y,-z
1/2-x,1/2-y,-z
1/2+x,1/2+y,-z
1/2-x,1/2+y,z
1/2+x,1/2-y,z
loop_
_atom_site_type_symbol
_atom_site_label
_atom_site_fract_x
_atom_site_fract_y
_atom_site_fract_z
Si Si1 0.340116 0.405909 0.068296
Si Si2 0.335448 0.298023 0.889913
Si Si3 0.665575 0.298516 0.664834
Si Si4 0.833475 0.131476 0.434717
Si Si5 0.339313 0.000000 0.930601
Si Si6 0.836631 0.146850 0.221709
Si Si7 0.335362 0.054724 0.227916
Si Si8 0.841928 0.443580 0.635754
O O1 0.500000 0.411955 0.089551
O O2 0.295938 0.350372 0.082604
O O3 0.241464 0.450591 0.086698
O O4 0.345158 0.409094 0.000000
O O5 0.500000 0.290556 0.901152
O O6 0.250000 0.250000 0.906753
O O7 0.316011 0.309481 0.822880
O O8 0.500000 0.290047 0.668681
O O9 0.750000 0.250000 0.673905
O O10 0.698177 0.321569 0.603735
O O11 0.702298 0.335890 0.715272
O O12 0.788212 0.135293 0.500000
O O13 0.762138 0.087395 0.401642
O O14 0.000000 0.125179 0.433746
O O15 0.500000 0.000000 0.911344
O O16 0.341450 0.000000 0.000000
O O17 0.750825 0.099561 0.203817
O O18 0.000000 0.134831 0.221562
O O19 0.500000 0.060308 0.217381
O O20 0.314749 0.057497 0.296533
O O21 0.294310 0.000000 0.210189
O O22 0.835684 0.500000 0.618866
O O23 0.000000 0.425739 0.627269
#
# Coordination Sequence:
#
# PCOD9490466 Si02
#       8
#    16  16  16  16   8  16  16  16
#     4   9  18  35  58  82 113 155 194 229 277 334
#     4  10  22  38  56  82 114 147 188 234 277 326
#     4  10  21  36  54  75  97 127 167 210 259 311
#     4  10  21  36  52  73 102 132 166 210 255 304
#     4   9  17  31  55  87 117 147 191 241 282 325
#     4  10  20  36  56  79 106 138 177 218 263 317
#     4   9  18  33  54  80 108 137 172 214 261 316
#     4   9  18  33  53  77 104 133 166 204 247 302
#
# _framework density 19.307558
#
# number of rings (size 3 to 8) (size 9 to 14) (size 15 to 20)
#    0.000    2.467    1.333    1.400    0.000    4.533 
#    1.200    2.667    0.000    0.000    0.000    0.000 
#    0.000    0.000    0.000    0.000    0.000    0.000 
#
# Total GULP energy -334798.221098 kJ/mol
# GULP energy per Si atom -5579.970352 kJ/mol
# Density = 1.926361 g / cm^3
# Si number density = 19.307558 Si / 1000 Ang^3
#
#
#
# Elastic Constant Matrix: (Units=GPa)
#
#
# Indices 1 2 3 4 5 6 
#
# 1 49.9115 78.5097 17.0663 0.0000 0.0000 0.0000
# 2 78.5097 156.2082 24.1998 0.0000 0.0000 0.0000
# 3 17.0663 24.1998 57.8778 0.0000 0.0000 0.0000
# 4 0.0000 0.0000 0.0000 14.1528 0.0000 0.0000
# 5 0.0000 0.0000 0.0000 0.0000 14.2989 0.0000
# 6 0.0000 0.0000 0.0000 0.0000 0.0000 40.4523
#
#
#
# Elastic Compliance Matrix: (Units=1/GPa)
#
#
# Indices 1 2 3 4 5 6 
#
# 1 0.099915 -0.048815 -0.009052 0.000000 0.000000 0.000000
# 2 -0.048815 0.030694 0.001560 0.000000 0.000000 0.000000
# 3 -0.009052 0.001560 0.019294 0.000000 0.000000 0.000000
# 4 0.000000 0.000000 0.000000 0.070657 0.000000 0.000000
# 5 0.000000 0.000000 0.000000 0.000000 0.069936 0.000000
# 6 0.000000 0.000000 0.000000 0.000000 0.000000 0.024720
#
#
# Mechanical properties :
#
#
# Convention : Reuss Voigt Hill
#
# Bulk Modulus (GPa) = 26.81573 55.94990 41.38282
# Shear Modulus (GPa) = 11.35693 23.39557 17.37625
#
# Velocity S-wave (km/s) = 2.42794 3.48477 3.00321
# Velocity P-wave (km/s) = 4.66677 6.72552 5.78841
#
# Compressibility (1/GPa) = 0.03729154
#
# Stress axis : x y z
#
# Youngs Moduli (GPa) = 10.00849 32.57950 51.82832
#
# Poissons Ratio (x) = 1.59036 0.46912
# Poissons Ratio (y) = 0.48856 -0.08086
# Poissons Ratio (z) = 0.09059 -0.05083
#
# Static dielectric constant tensor:
#      x y z
#    x 1.653960 0.000000 0.000000 
#    y 0.000000 1.648020 0.000000 
#    z 0.000000 0.000000 1.707410 
# 
# From -- ./inp_files/73930.got.cif
#   From: 2010.05.17/outbox.cif.g08.bks.cpg/sg65_37_cif.got.tgz:73930.got - 2010.06.03 17:01:31.
