data_PCOD9490116
_publ_section_title
;
Structure prediction by ZEFSAII (Michael W. Deem and Ramdas Pophale) SiO2 
 PCOD9490116
Probable space group: C M M M
;
_chemical_formula_sum "Si O2"
_cell_formula_units_Z 88
_cell_length_a 27.732552
_cell_length_b 13.291935
_cell_length_c 13.060453
_cell_angle_alpha 90.000000
_cell_angle_beta 90.000000
_cell_angle_gamma 90.000000
_cell_volume 4814.334763
_symmetry_space_group_name_H-M "C M M M"
_symmetry_group_IT_number 65
_symmetry_cell_setting 'orthorhombic'
loop_
_space_group_symop_operation_xyz
x,y,z
-x,-y,z
x,-y,-z
-x,y,-z
-x,-y,-z
x,y,-z
-x,y,z
x,-y,z
1/2+x,1/2+y,z
1/2-x,1/2-y,z
1/2+x,1/2-y,-z
1/2-x,1/2+y,-z
1/2-x,1/2-y,-z
1/2+x,1/2+y,-z
1/2-x,1/2+y,z
1/2+x,1/2-y,z
loop_
_atom_site_type_symbol
_atom_site_label
_atom_site_fract_x
_atom_site_fract_y
_atom_site_fract_z
Si Si1 0.183614 0.831871 0.382504
Si Si2 0.207271 0.617347 0.321740
Si Si3 0.943192 0.114796 0.500000
Si Si4 0.054497 0.729159 0.878985
Si Si5 0.411503 0.383407 0.284714
Si Si6 0.845633 0.380263 0.114181
O O1 0.174164 0.865435 0.500000
O O2 0.182309 0.709943 0.380930
O O3 0.236572 0.868107 0.348744
O O4 0.145774 0.873119 0.299792
O O5 0.194118 0.500000 0.343040
O O6 0.192534 0.641061 0.203954
O O7 0.928664 0.162907 0.606899
O O8 0.000000 0.107142 0.500000
O O9 0.923018 0.000000 0.500000
O O10 0.065755 0.824989 0.809106
O O11 0.100427 0.657388 0.859098
O O12 0.000000 0.690971 0.856706
O O13 0.055655 0.752549 0.000000
O O14 0.425676 0.500000 0.280053
O O15 0.847764 0.500000 0.107894
O O16 0.833243 0.340711 0.000000
#
# Coordination Sequence:
#
# PCOD9490116 Si02
#       6
#    16  16   8  16  16  16
#     4  11  22  36  55  82 111 143 184 223 266 320
#     4  10  20  35  56  81 110 143 179 221 269 321
#     4   9  18  32  52  75  99 139 187 225 267 319
#     4  10  21  37  57  81 109 142 182 227 276 329
#     4  11  21  35  54  78 110 145 183 227 273 322
#     4   9  18  35  58  82 109 140 177 223 271 321
#
# _framework density 18.278745000000001
#
# number of rings (size 3 to 8) (size 9 to 14) (size 15 to 20)
#    0.000    1.909    2.727    2.182    0.000    4.000 
#    0.000    5.455    0.000    2.182    0.000    0.000 
#    0.000    5.818    0.000    0.000    0.000    0.000 
#
# Total GULP energy -244975.894314 kJ/mol
# GULP energy per Si atom -5567.633962 kJ/mol
# Density = 1.823714 g / cm^3
# Si number density = 18.278745 Si / 1000 Ang^3
#
#
#
# Elastic Constant Matrix: (Units=GPa)
#
#
# Indices 1 2 3 4 5 6 
#
# 1 52.1216 -2.0539 22.6052 0.0000 0.0000 0.0000
# 2 -2.0539 41.9892 18.3253 0.0000 0.0000 0.0000
# 3 22.6052 18.3253 57.8410 0.0000 0.0000 0.0000
# 4 0.0000 0.0000 0.0000 -140.8290 0.0000 0.0000
# 5 0.0000 0.0000 0.0000 0.0000 33.1720 0.0000
# 6 0.0000 0.0000 0.0000 0.0000 0.0000 15.5626
#
#
#
# Elastic Compliance Matrix: (Units=1/GPa)
#
#
# Indices 1 2 3 4 5 6 
#
# 1 0.024426 0.006221 -0.011517 0.000000 0.000000 0.000000
# 2 0.006221 0.029221 -0.011689 0.000000 0.000000 0.000000
# 3 -0.011517 -0.011689 0.025493 0.000000 0.000000 0.000000
# 4 0.000000 0.000000 0.000000 -0.007101 0.000000 0.000000
# 5 0.000000 0.000000 0.000000 0.000000 0.030146 0.000000
# 6 0.000000 0.000000 0.000000 0.000000 0.000000 0.064257
#
#
# Mechanical properties :
#
#
# Convention : Reuss Voigt Hill
#
# Bulk Modulus (GPa) = 22.13845 25.52278 23.83062
# Shear Modulus (GPa) = 23.20510 -10.88053 6.16228
#
# Velocity S-wave (km/s) = 3.56689 -2.44243 1.83810
# Velocity P-wave (km/s) = 5.39458 2.45753 4.19171
#
# Compressibility (1/GPa) = 0.04517027
#
# Stress axis : x y z
#
# Youngs Moduli (GPa) = 40.93990 34.22141 39.22601
#
# Poissons Ratio (x) = -0.21290 0.45177
# Poissons Ratio (y) = -0.25469 0.45853
# Poissons Ratio (z) = 0.47151 0.40003
#
# Static dielectric constant tensor:
#      x y z
#    x 1.662060 0.000000 0.000000 
#    y 0.000000 1.640720 0.000000 
#    z 0.000000 0.000000 1.667500 
# 
# From -- ./inp_files/32227.got.cif
#   From: 2010.05.17/outbox.cif.g08.bks.cpg/sg65_17_cif.got.tgz:32227.got - 2010.06.03 17:01:31.
