data_PCOD9490841
_publ_section_title
;
Structure prediction by ZEFSAII (Michael W. Deem and Ramdas Pophale) SiO2 
 PCOD9490841
Probable space group: C M M M
;
_chemical_formula_sum "Si O2"
_cell_formula_units_Z 68
_cell_length_a 23.708893
_cell_length_b 7.381823
_cell_length_c 20.546794
_cell_angle_alpha 90.000000
_cell_angle_beta 90.000000
_cell_angle_gamma 90.000000
_cell_volume 3595.994104
_symmetry_space_group_name_H-M "C M M M"
_symmetry_group_IT_number 65
_symmetry_cell_setting 'orthorhombic'
loop_
_space_group_symop_operation_xyz
x,y,z
-x,-y,z
x,-y,-z
-x,y,-z
-x,-y,-z
x,y,-z
-x,y,z
x,-y,z
1/2+x,1/2+y,z
1/2-x,1/2-y,z
1/2+x,1/2-y,-z
1/2-x,1/2+y,-z
1/2-x,1/2-y,-z
1/2+x,1/2+y,-z
1/2-x,1/2+y,z
1/2+x,1/2-y,z
loop_
_atom_site_type_symbol
_atom_site_label
_atom_site_fract_x
_atom_site_fract_y
_atom_site_fract_z
Si Si1 0.500000 0.218193 0.753360
Si Si2 0.378772 0.219619 0.299758
Si Si3 0.816128 0.283314 0.427320
Si Si4 0.816642 0.714223 0.832607
Si Si5 0.623912 0.500000 0.923602
Si Si6 0.000000 0.000000 0.131227
O O1 0.556721 0.268662 0.714776
O O2 0.500000 0.325968 0.820951
O O3 0.500000 0.000000 0.763628
O O4 0.353275 0.286617 0.367618
O O5 0.341324 0.273420 0.237539
O O6 0.376708 0.000000 0.301813
O O7 0.828982 0.213144 0.500000
O O8 0.823788 0.500000 0.429501
O O9 0.750000 0.250000 0.414415
O O10 0.827029 0.500000 0.839920
O O11 0.750000 0.750000 0.834847
O O12 0.848259 0.827755 0.887765
O O13 0.557155 0.500000 0.909851
O O14 0.635519 0.500000 0.000000
#
# Coordination Sequence:
#
# PCOD9490841 Si02
#       6
#     8  16  16  16   8   4
#     4  10  20  37  60  85 118 147 197 255 299 339
#     4   9  18  33  56  83 113 153 195 245 292 347
#     4   9  17  31  50  78 114 151 190 235 292 352
#     4  11  22  40  63  91 124 158 201 246 302 361
#     4  12  27  44  64  92 124 157 198 247 303 371
#     4  12  23  44  68  90 113 162 202 246 299 364
#
# _framework density 18.909929000000002
#
# number of rings (size 3 to 8) (size 9 to 14) (size 15 to 20)
#    0.000    1.882    3.529    0.882    0.000    0.941 
#    4.235    0.588    0.000    5.647    0.000    0.824 
#    0.000    0.000    0.000    0.000    0.000    0.000 
#
# Total GULP energy -189901.682226 kJ/mol
# GULP energy per Si atom -5585.343595 kJ/mol
# Density = 1.886689 g / cm^3
# Si number density = 18.909929 Si / 1000 Ang^3
#
#
#
# Elastic Constant Matrix: (Units=GPa)
#
#
# Indices 1 2 3 4 5 6 
#
# 1 147.1313 25.0035 87.1508 0.0000 0.0000 0.0000
# 2 25.0035 97.9349 40.6095 0.0000 0.0000 0.0000
# 3 87.1508 40.6095 171.9110 0.0000 0.0000 0.0000
# 4 0.0000 0.0000 0.0000 25.6207 0.0000 0.0000
# 5 0.0000 0.0000 0.0000 0.0000 25.9351 0.0000
# 6 0.0000 0.0000 0.0000 0.0000 0.0000 -4.4176
#
#
#
# Elastic Compliance Matrix: (Units=1/GPa)
#
#
# Indices 1 2 3 4 5 6 
#
# 1 0.009734 -0.000487 -0.004820 0.000000 0.000000 0.000000
# 2 -0.000487 0.011344 -0.002433 0.000000 0.000000 0.000000
# 3 -0.004820 -0.002433 0.008835 0.000000 0.000000 0.000000
# 4 0.000000 0.000000 0.000000 0.039031 0.000000 0.000000
# 5 0.000000 0.000000 0.000000 0.000000 0.038558 0.000000
# 6 0.000000 0.000000 0.000000 0.000000 0.000000 -0.226369
#
#
# Mechanical properties :
#
#
# Convention : Reuss Voigt Hill
#
# Bulk Modulus (GPa) = 69.27909 80.27833 74.77871
# Shear Modulus (GPa) = -50.72233 27.04186 -11.84023
#
# Velocity S-wave (km/s) = -5.18472 3.78568 -2.50499
# Velocity P-wave (km/s) = 0.93493 7.85199 5.59141
#
# Compressibility (1/GPa) = 0.01443437
#
# Stress axis : x y z
#
# Youngs Moduli (GPa) = 102.72913 88.15245 113.18407
#
# Poissons Ratio (x) = 0.04290 0.54554
# Poissons Ratio (y) = 0.04999 0.27538
# Poissons Ratio (z) = 0.49514 0.21448
#
# Static dielectric constant tensor:
#      x y z
#    x 1.625100 0.000000 0.000000 
#    y 0.000000 1.680650 0.000000 
#    z 0.000000 0.000000 1.634450 
# 
# From -- ./inp_files/49784.got.cif
#   From: 2010.05.17/outbox.cif.g08.bks.cpg/sg65_25_cif.got.tgz:49784.got - 2010.06.03 17:01:31.
