data_PCOD9490746
_publ_section_title
;
Structure prediction by ZEFSAII (Michael W. Deem and Ramdas Pophale) SiO2 
 PCOD9490746
Probable space group: C M M M
;
_chemical_formula_sum "Si O2"
_cell_formula_units_Z 52
_cell_length_a 14.250113
_cell_length_b 19.294545
_cell_length_c 7.672270
_cell_angle_alpha 90.000000
_cell_angle_beta 90.000000
_cell_angle_gamma 90.000000
_cell_volume 2109.486390
_symmetry_space_group_name_H-M "C M M M"
_symmetry_group_IT_number 65
_symmetry_cell_setting 'orthorhombic'
loop_
_space_group_symop_operation_xyz
x,y,z
-x,-y,z
x,-y,-z
-x,y,-z
-x,-y,-z
x,y,-z
-x,y,z
x,-y,z
1/2+x,1/2+y,z
1/2-x,1/2-y,z
1/2+x,1/2-y,-z
1/2-x,1/2+y,-z
1/2-x,1/2-y,-z
1/2+x,1/2+y,-z
1/2-x,1/2+y,z
1/2+x,1/2-y,z
loop_
_atom_site_type_symbol
_atom_site_label
_atom_site_fract_x
_atom_site_fract_y
_atom_site_fract_z
Si Si1 0.141921 0.726123 0.306217
Si Si2 0.500000 0.733709 0.000000
Si Si3 0.810202 0.420702 0.201186
Si Si4 0.399557 0.416738 0.705541
O O1 0.110993 0.746536 0.500000
O O2 0.250000 0.750000 0.289237
O O3 0.081517 0.757817 0.153039
O O4 0.137923 0.642308 0.292981
O O5 0.820044 0.500000 0.269458
O O6 0.699628 0.400727 0.209632
O O7 0.839676 0.421409 0.000000
O O8 0.395177 0.399909 0.500000
O O9 0.500000 0.392359 0.781362
O O10 0.403583 0.500000 0.716430
#
# Coordination Sequence:
#
# PCOD9490746 Si02
#       4
#    16   4  16  16
#     4  11  25  47  74 104 138 183 234 284 349 420
#     4  12  24  48  77 102 141 178 232 296 352 404
#     4  10  20  36  61  94 134 179 226 281 345 409
#     4   8  14  26  45  73 114 162 210 262 323 393
#
# _framework density 24.650548000000001
#
# number of rings (size 3 to 8) (size 9 to 14) (size 15 to 20)
#    0.000    2.154    1.538    2.769    0.000    2.462 
#    2.769    4.615    0.000    1.846    0.000    0.000 
#    0.000    0.000    0.000    0.000    0.000    0.000 
#
# Total GULP energy -144904.095644 kJ/mol
# GULP energy per Si atom -5573.234448 kJ/mol
# Density = 2.459444 g / cm^3
# Si number density = 24.650548 Si / 1000 Ang^3
#
#
#
# Elastic Constant Matrix: (Units=GPa)
#
#
# Indices 1 2 3 4 5 6 
#
# 1 62.3608 16.6443 53.1341 0.0000 0.0000 0.0000
# 2 16.6443 175.9717 1.9056 0.0000 0.0000 0.0000
# 3 53.1341 1.9056 152.8372 0.0000 0.0000 0.0000
# 4 0.0000 0.0000 0.0000 -18.7228 0.0000 0.0000
# 5 0.0000 0.0000 0.0000 0.0000 64.5358 0.0000
# 6 0.0000 0.0000 0.0000 0.0000 0.0000 29.2589
#
#
#
# Elastic Compliance Matrix: (Units=1/GPa)
#
#
# Indices 1 2 3 4 5 6 
#
# 1 0.023564 -0.002140 -0.008165 0.000000 0.000000 0.000000
# 2 -0.002140 0.005878 0.000671 0.000000 0.000000 0.000000
# 3 -0.008165 0.000671 0.009373 0.000000 0.000000 0.000000
# 4 0.000000 0.000000 0.000000 -0.053411 0.000000 0.000000
# 5 0.000000 0.000000 0.000000 0.000000 0.015495 0.000000
# 6 0.000000 0.000000 0.000000 0.000000 0.000000 0.034178
#
#
# Mechanical properties :
#
#
# Convention : Reuss Voigt Hill
#
# Bulk Modulus (GPa) = 51.16293 59.39309 55.27801
# Shear Modulus (GPa) = 82.15163 36.31341 59.23252
#
# Velocity S-wave (km/s) = 5.77917 3.84230 4.90724
# Velocity P-wave (km/s) = 8.08283 6.62047 7.38792
#
# Compressibility (1/GPa) = 0.01954540
#
# Stress axis : x y z
#
# Youngs Moduli (GPa) = 42.43698 170.12824 106.68608
#
# Poissons Ratio (x) = 0.36415 0.87115
# Poissons Ratio (y) = 0.09083 -0.07157
# Poissons Ratio (z) = 0.34652 -0.11413
#
# Static dielectric constant tensor:
#      x y z
#    x 1.905740 0.000000 0.000000 
#    y 0.000000 2.037500 0.000000 
#    z 0.000000 0.000000 2.121760 
# 
# From -- ./inp_files/6102.got.cif
#   From: 2010.05.17/outbox.cif.g08.bks.cpg/sg65_4_cif.got.tgz:6102.got - 2010.06.03 17:01:31.
