data_PCOD9490423
_publ_section_title
;
Structure prediction by ZEFSAII (Michael W. Deem and Ramdas Pophale) SiO2 
 PCOD9490423
Probable space group: C M M M
;
_chemical_formula_sum "Si O2"
_cell_formula_units_Z 96
_cell_length_a 19.046945
_cell_length_b 23.642264
_cell_length_c 12.264604
_cell_angle_alpha 90.000000
_cell_angle_beta 90.000000
_cell_angle_gamma 90.000000
_cell_volume 5522.909420
_symmetry_space_group_name_H-M "C M M M"
_symmetry_group_IT_number 65
_symmetry_cell_setting 'orthorhombic'
loop_
_space_group_symop_operation_xyz
x,y,z
-x,-y,z
x,-y,-z
-x,y,-z
-x,-y,-z
x,y,-z
-x,y,z
x,-y,z
1/2+x,1/2+y,z
1/2-x,1/2-y,z
1/2+x,1/2-y,-z
1/2-x,1/2+y,-z
1/2-x,1/2-y,-z
1/2+x,1/2+y,-z
1/2-x,1/2+y,z
1/2+x,1/2-y,z
loop_
_atom_site_type_symbol
_atom_site_label
_atom_site_fract_x
_atom_site_fract_y
_atom_site_fract_z
Si Si1 0.584383 0.500000 0.870128
Si Si2 0.415315 0.165653 0.878538
Si Si3 0.272318 0.066567 0.621318
Si Si4 0.143821 0.895052 0.266910
Si Si5 0.919701 0.565022 0.286151
Si Si6 0.084616 0.792666 0.870102
Si Si7 0.084131 0.933289 0.500000
O O1 0.500000 0.500000 0.854839
O O2 0.616553 0.554580 0.810766
O O3 0.598121 0.500000 0.000000
O O4 0.500000 0.169691 0.885655
O O5 0.402741 0.111962 0.803708
O O6 0.393363 0.228296 0.841383
O O7 0.387330 0.156251 0.000000
O O8 0.250844 0.083977 0.500000
O O9 0.226986 0.099444 0.710357
O O10 0.356063 0.071205 0.630306
O O11 0.255462 0.000000 0.634954
O O12 0.121398 0.837719 0.207621
O O13 0.110095 0.905196 0.386986
O O14 0.916800 0.500000 0.244855
O O15 0.000000 0.573824 0.325801
O O16 0.000000 0.798170 0.857426
O O17 0.098941 0.801360 0.000000
O O18 0.000000 0.931387 0.500000
O O19 0.105126 0.000000 0.500000
#
# Coordination Sequence:
#
# PCOD9490423 Si02
#       7
#     8  16  16  16  16  16   8
#     4  11  22  33  49  75 108 144 184 234 275 301
#     4   8  15  31  55  81 109 140 173 215 268 323
#     4  10  20  36  54  75 106 144 177 219 279 328
#     4  12  20  33  51  74 108 145 187 225 266 317
#     4   9  18  33  58  87 107 129 168 220 276 335
#     4   9  18  33  54  78 107 148 190 224 261 309
#     4  11  20  30  48  74 100 137 188 236 270 309
#
# _framework density 17.382142999999999
#
# number of rings (size 3 to 8) (size 9 to 14) (size 15 to 20)
#    0.000    2.167    2.500    3.000    0.000    2.000 
#    0.000    5.833    1.833    3.000    0.000    0.000 
#    0.000    0.000    0.000    0.000    0.000    0.000 
#
# Total GULP energy -267363.478388 kJ/mol
# GULP energy per Si atom -5570.072466 kJ/mol
# Density = 1.734258 g / cm^3
# Si number density = 17.382143 Si / 1000 Ang^3
#
#
#
# Elastic Constant Matrix: (Units=GPa)
#
#
# Indices 1 2 3 4 5 6 
#
# 1 86.2501 35.5706 42.3389 0.0000 0.0000 0.0000
# 2 35.5706 97.7148 61.6198 0.0000 0.0000 0.0000
# 3 42.3389 61.6198 93.8272 0.0000 0.0000 0.0000
# 4 0.0000 0.0000 0.0000 12.5893 0.0000 0.0000
# 5 0.0000 0.0000 0.0000 0.0000 21.8893 0.0000
# 6 0.0000 0.0000 0.0000 0.0000 0.0000 3.8572
#
#
#
# Elastic Compliance Matrix: (Units=1/GPa)
#
#
# Indices 1 2 3 4 5 6 
#
# 1 0.015130 -0.002052 -0.005480 0.000000 0.000000 0.000000
# 2 -0.002052 0.017747 -0.010729 0.000000 0.000000 0.000000
# 3 -0.005480 -0.010729 0.020177 0.000000 0.000000 0.000000
# 4 0.000000 0.000000 0.000000 0.079433 0.000000 0.000000
# 5 0.000000 0.000000 0.000000 0.000000 0.045684 0.000000
# 6 0.000000 0.000000 0.000000 0.000000 0.000000 0.259257
#
#
# Mechanical properties :
#
#
# Convention : Reuss Voigt Hill
#
# Bulk Modulus (GPa) = 60.48845 61.87229 61.18037
# Shear Modulus (GPa) = 10.42841 16.88468 13.65655
#
# Velocity S-wave (km/s) = 2.45204 3.12008 2.80601
# Velocity P-wave (km/s) = 6.54916 6.97513 6.76550
#
# Compressibility (1/GPa) = 0.01653208
#
# Stress axis : x y z
#
# Youngs Moduli (GPa) = 66.09175 56.34879 49.56254
#
# Poissons Ratio (x) = 0.11565 0.27159
# Poissons Ratio (y) = 0.13564 0.53174
# Poissons Ratio (z) = 0.36216 0.60455
#
# Static dielectric constant tensor:
#      x y z
#    x 1.620140 0.000000 0.000000 
#    y 0.000000 1.592310 0.000000 
#    z 0.000000 0.000000 1.583000 
# 
# From -- ./inp_files/27157.got.cif
#   From: 2010.05.17/outbox.cif.g08.bks.cpg/sg65_14_cif.got.tgz:27157.got - 2010.06.03 17:01:31.
