data_PCOD9490545
_publ_section_title
;
Structure prediction by ZEFSAII (Michael W. Deem and Ramdas Pophale) SiO2 
 PCOD9490545
Probable space group: C M M M
;
_chemical_formula_sum "Si O2"
_cell_formula_units_Z 72
_cell_length_a 27.491181
_cell_length_b 17.104554
_cell_length_c 7.644423
_cell_angle_alpha 90.000000
_cell_angle_beta 90.000000
_cell_angle_gamma 90.000000
_cell_volume 3594.594142
_symmetry_space_group_name_H-M "C M M M"
_symmetry_group_IT_number 65
_symmetry_cell_setting 'orthorhombic'
loop_
_space_group_symop_operation_xyz
x,y,z
-x,-y,z
x,-y,-z
-x,y,-z
-x,-y,-z
x,y,-z
-x,y,z
x,-y,z
1/2+x,1/2+y,z
1/2-x,1/2-y,z
1/2+x,1/2-y,-z
1/2-x,1/2+y,-z
1/2-x,1/2-y,-z
1/2+x,1/2+y,-z
1/2-x,1/2+y,z
1/2+x,1/2-y,z
loop_
_atom_site_type_symbol
_atom_site_label
_atom_site_fract_x
_atom_site_fract_y
_atom_site_fract_z
Si Si1 0.619616 0.650662 0.792165
Si Si2 0.944794 0.000000 0.708873
Si Si3 0.775817 0.905401 0.205597
Si Si4 0.088443 0.593164 0.500000
Si Si5 0.798741 0.594841 0.500000
Si Si6 0.055827 0.295606 0.206863
O O1 0.585197 0.576287 0.762613
O O2 0.673906 0.632542 0.727921
O O3 0.592246 0.727871 0.729106
O O4 0.624745 0.659815 0.000000
O O5 0.947312 0.000000 0.500000
O O6 0.000000 0.000000 0.778498
O O7 0.731174 0.880741 0.327878
O O8 0.781597 0.000000 0.217732
O O9 0.767953 0.887389 0.000000
O O10 0.085122 0.500000 0.500000
O O11 0.145253 0.617583 0.500000
O O12 0.064171 0.629823 0.671959
O O13 0.798309 0.500000 0.500000
O O14 0.000000 0.268233 0.225166
O O15 0.063964 0.311174 0.000000
#
# Coordination Sequence:
#
# PCOD9490545 Si02
#       6
#    16   8  16   8   8  16
#     4  10  20  36  57  84 121 166 206 239 282 338
#     4  11  23  31  47  85 125 167 215 251 275 319
#     4   9  17  31  54  86 120 159 203 238 275 329
#     4  11  25  45  67  90 111 144 196 252 317 381
#     4   9  20  36  58  84 112 150 191 244 306 353
#     4  10  23  42  64  90 122 158 192 240 305 361
#
# _framework density 20.030079000000001
#
# number of rings (size 3 to 8) (size 9 to 14) (size 15 to 20)
#    0.000    2.111    1.111    1.333    3.111    4.000 
#    0.000    5.556    0.000    4.000    0.000    0.000 
#    0.000    0.000    0.000    0.000    0.000    0.000 
#
# Total GULP energy -201030.109916 kJ/mol
# GULP energy per Si atom -5584.169720 kJ/mol
# Density = 1.998449 g / cm^3
# Si number density = 20.030079 Si / 1000 Ang^3
#
#
#
# Elastic Constant Matrix: (Units=GPa)
#
#
# Indices 1 2 3 4 5 6 
#
# 1 62.7545 1.2663 29.0092 0.0000 0.0000 0.0000
# 2 1.2663 68.6281 20.5793 0.0000 0.0000 0.0000
# 3 29.0092 20.5793 73.8535 0.0000 0.0000 0.0000
# 4 0.0000 0.0000 0.0000 20.0155 0.0000 0.0000
# 5 0.0000 0.0000 0.0000 0.0000 61.5937 0.0000
# 6 0.0000 0.0000 0.0000 0.0000 0.0000 -6.4926
#
#
#
# Elastic Compliance Matrix: (Units=1/GPa)
#
#
# Indices 1 2 3 4 5 6 
#
# 1 0.019755 0.002141 -0.008356 0.000000 0.000000 0.000000
# 2 0.002141 0.016132 -0.005336 0.000000 0.000000 0.000000
# 3 -0.008356 -0.005336 0.018310 0.000000 0.000000 0.000000
# 4 0.000000 0.000000 0.000000 0.049961 0.000000 0.000000
# 5 0.000000 0.000000 0.000000 0.000000 0.016235 0.000000
# 6 0.000000 0.000000 0.000000 0.000000 0.000000 -0.154022
#
#
# Mechanical properties :
#
#
# Convention : Reuss Voigt Hill
#
# Bulk Modulus (GPa) = 32.16078 34.10509 33.13294
# Shear Modulus (GPa) = -30851.57895 25.31541 -15413.13177
#
# Velocity S-wave (km/s) = -124.24195 3.55895 -87.81628
# Velocity P-wave (km/s) = 143.40616 5.82684 101.31973
#
# Compressibility (1/GPa) = 0.03109377
#
# Stress axis : x y z
#
# Youngs Moduli (GPa) = 50.62096 61.98884 54.61639
#
# Poissons Ratio (x) = -0.13273 0.45638
# Poissons Ratio (y) = -0.10839 0.29145
# Poissons Ratio (z) = 0.42300 0.33079
#
# Static dielectric constant tensor:
#      x y z
#    x 1.707110 0.000000 0.000000 
#    y 0.000000 1.671750 0.000000 
#    z 0.000000 0.000000 1.704220 
# 
# From -- ./inp_files/13648.got.cif
#   From: 2010.05.17/outbox.cif.g08.bks.cpg/sg65_7_cif.got.tgz:13648.got - 2010.06.03 17:01:31.
