data_PCOD9490861
_publ_section_title
;
Structure prediction by ZEFSAII (Michael W. Deem and Ramdas Pophale) SiO2 
 PCOD9490861
Probable space group: C M M M
;
_chemical_formula_sum "Si O2"
_cell_formula_units_Z 72
_cell_length_a 8.794749
_cell_length_b 15.730311
_cell_length_c 28.502360
_cell_angle_alpha 90.000000
_cell_angle_beta 90.000000
_cell_angle_gamma 90.000000
_cell_volume 3943.134395
_symmetry_space_group_name_H-M "C M M M"
_symmetry_group_IT_number 65
_symmetry_cell_setting 'orthorhombic'
loop_
_space_group_symop_operation_xyz
x,y,z
-x,-y,z
x,-y,-z
-x,y,-z
-x,-y,-z
x,y,-z
-x,y,z
x,-y,z
1/2+x,1/2+y,z
1/2-x,1/2-y,z
1/2+x,1/2-y,-z
1/2-x,1/2+y,-z
1/2-x,1/2-y,-z
1/2+x,1/2+y,-z
1/2-x,1/2+y,z
1/2+x,1/2-y,z
loop_
_atom_site_type_symbol
_atom_site_label
_atom_site_fract_x
_atom_site_fract_y
_atom_site_fract_z
Si Si1 0.182600 0.659027 0.220571
Si Si2 0.818006 0.000000 0.944780
Si Si3 0.818672 0.657994 0.444434
Si Si4 0.817263 0.657818 0.111475
Si Si5 0.181495 0.000000 0.388219
Si Si6 0.184540 0.500000 0.715741
O O1 0.250000 0.750000 0.234191
O O2 0.224484 0.641800 0.166224
O O3 0.230157 0.583116 0.254586
O O4 0.000000 0.664230 0.222076
O O5 0.749251 0.916798 0.920151
O O6 0.000000 0.000000 0.939281
O O7 0.782187 0.000000 0.000000
O O8 0.789999 0.643841 0.500000
O O9 0.750000 0.750000 0.432179
O O10 0.744020 0.583021 0.414876
O O11 0.000000 0.658431 0.437217
O O12 0.750000 0.750000 0.098731
O O13 0.000000 0.659447 0.108034
O O14 0.243218 0.000000 0.335326
O O15 0.000000 0.000000 0.388842
O O16 0.000000 0.500000 0.711765
#
# Coordination Sequence:
#
# PCOD9490861 Si02
#       6
#    16   8  16  16   8   8
#     4   9  19  36  59  84 109 141 182 229 278 330
#     4  11  24  39  55  80 114 151 190 231 278 332
#     4  10  21  39  63  88 113 145 187 234 283 334
#     4  10  20  37  61  87 113 144 185 231 281 334
#     4  12  25  38  55  83 118 155 192 229 276 333
#     4  10  21  38  56  77 112 152 186 226 278 331
#
# _framework density 18.259585999999999
#
# number of rings (size 3 to 8) (size 9 to 14) (size 15 to 20)
#    0.000    1.889    0.000    3.667    0.000    8.444 
#    0.000    3.333    0.000    0.000    0.000    0.000 
#    0.000    0.000    0.000    0.000    0.000    0.000 
#
# Total GULP energy -201169.983765 kJ/mol
# GULP energy per Si atom -5588.055105 kJ/mol
# Density = 1.821803 g / cm^3
# Si number density = 18.259586 Si / 1000 Ang^3
#
#
#
# Elastic Constant Matrix: (Units=GPa)
#
#
# Indices 1 2 3 4 5 6 
#
# 1 71.4822 84.4861 72.1510 0.0000 0.0000 0.0000
# 2 84.4861 217.3926 139.8335 0.0000 0.0000 0.0000
# 3 72.1510 139.8335 125.1169 0.0000 0.0000 0.0000
# 4 0.0000 0.0000 0.0000 -18.4337 0.0000 0.0000
# 5 0.0000 0.0000 0.0000 0.0000 26.2967 0.0000
# 6 0.0000 0.0000 0.0000 0.0000 0.0000 39.0071
#
#
#
# Elastic Compliance Matrix: (Units=1/GPa)
#
#
# Indices 1 2 3 4 5 6 
#
# 1 0.033747 -0.002125 -0.017085 0.000000 0.000000 0.000000
# 2 -0.002125 0.016497 -0.017212 0.000000 0.000000 0.000000
# 3 -0.017085 -0.017212 0.037082 0.000000 0.000000 0.000000
# 4 0.000000 0.000000 0.000000 -0.054249 0.000000 0.000000
# 5 0.000000 0.000000 0.000000 0.000000 0.038028 0.000000
# 6 0.000000 0.000000 0.000000 0.000000 0.000000 0.025636
#
#
# Mechanical properties :
#
#
# Convention : Reuss Voigt Hill
#
# Bulk Modulus (GPa) = 69.06025 111.88146 90.47085
# Shear Modulus (GPa) = 28.66741 17.20876 22.93809
#
# Velocity S-wave (km/s) = 3.96661 3.07327 3.54817
# Velocity P-wave (km/s) = 7.67347 8.60227 8.15111
#
# Compressibility (1/GPa) = 0.01448011
#
# Stress axis : x y z
#
# Youngs Moduli (GPa) = 29.63260 60.61568 26.96721
#
# Poissons Ratio (x) = 0.12882 0.46075
# Poissons Ratio (y) = 0.06297 0.46417
# Poissons Ratio (z) = 0.50629 1.04334
#
# Static dielectric constant tensor:
#      x y z
#    x 1.608390 0.000000 0.000000 
#    y 0.000000 1.593300 0.000000 
#    z 0.000000 0.000000 1.607100 
# 
# From -- ./inp_files/72588.got.cif
#   From: 2010.05.17/outbox.cif.g08.bks.cpg/sg65_37_cif.got.tgz:72588.got - 2010.06.03 17:01:31.
