data_PCOD9490507
_publ_section_title
;
Structure prediction by ZEFSAII (Michael W. Deem and Ramdas Pophale) SiO2 
 PCOD9490507
Probable space group: C M M M
;
_chemical_formula_sum "Si O2"
_cell_formula_units_Z 72
_cell_length_a 8.622887
_cell_length_b 14.643664
_cell_length_c 30.222322
_cell_angle_alpha 90.000000
_cell_angle_beta 90.000000
_cell_angle_gamma 90.000000
_cell_volume 3816.192544
_symmetry_space_group_name_H-M "C M M M"
_symmetry_group_IT_number 65
_symmetry_cell_setting 'orthorhombic'
loop_
_space_group_symop_operation_xyz
x,y,z
-x,-y,z
x,-y,-z
-x,y,-z
-x,-y,-z
x,y,-z
-x,y,z
x,-y,z
1/2+x,1/2+y,z
1/2-x,1/2-y,z
1/2+x,1/2-y,-z
1/2-x,1/2+y,-z
1/2-x,1/2-y,-z
1/2+x,1/2+y,-z
1/2-x,1/2+y,z
1/2+x,1/2-y,z
loop_
_atom_site_type_symbol
_atom_site_label
_atom_site_fract_x
_atom_site_fract_y
_atom_site_fract_z
Si Si1 0.813420 0.500000 0.190823
Si Si2 0.813833 0.000000 0.051420
Si Si3 0.186141 0.647710 0.118056
Si Si4 0.684016 0.500000 0.710679
Si Si5 0.186555 0.352704 0.355405
Si Si6 0.812458 0.646301 0.452406
O O1 0.769586 0.411327 0.161582
O O2 0.740277 0.500000 0.238946
O O3 0.000000 0.500000 0.195103
O O4 0.749520 0.088637 0.076972
O O5 0.000000 0.000000 0.054337
O O6 0.768714 0.000000 0.000000
O O7 0.250000 0.750000 0.118983
O O8 0.000000 0.649539 0.115768
O O9 0.500000 0.500000 0.709303
O O10 0.748212 0.413388 0.683832
O O11 0.250000 0.250000 0.352240
O O12 0.233779 0.390673 0.404255
O O13 0.000000 0.352227 0.353456
O O14 0.762837 0.605856 0.500000
O O15 0.750000 0.750000 0.452490
O O16 0.000000 0.646694 0.452537
#
# Coordination Sequence:
#
# PCOD9490507 Si02
#       6
#     8   8  16   8  16  16
#     4   9  21  41  60  81 110 144 186 237 290 339
#     4  10  21  37  58  87 125 166 205 244 284 327
#     4  10  21  38  62  89 118 153 193 239 287 338
#     4  12  25  39  57  81 110 145 184 228 280 337
#     4  10  20  36  57  80 109 142 177 222 273 329
#     4   8  14  26  47  74 101 132 170 211 260 318
#
# _framework density 18.866972000000001
#
# number of rings (size 3 to 8) (size 9 to 14) (size 15 to 20)
#    0.000    2.333    0.000    3.333    0.000    5.778 
#    0.000    2.778    0.000    3.333    0.000    0.000 
#    0.000    0.000    0.000    0.000    0.000    0.000 
#
# Total GULP energy -200830.101277 kJ/mol
# GULP energy per Si atom -5578.613924 kJ/mol
# Density = 1.882403 g / cm^3
# Si number density = 18.866972 Si / 1000 Ang^3
#
#
#
# Elastic Constant Matrix: (Units=GPa)
#
#
# Indices 1 2 3 4 5 6 
#
# 1 59.9066 45.3490 69.7795 0.0000 0.0000 0.0000
# 2 45.3490 154.4351 98.0618 0.0000 0.0000 0.0000
# 3 69.7795 98.0618 223.3731 0.0000 0.0000 0.0000
# 4 0.0000 0.0000 0.0000 12.2800 0.0000 0.0000
# 5 0.0000 0.0000 0.0000 0.0000 26.4886 0.0000
# 6 0.0000 0.0000 0.0000 0.0000 0.0000 23.3610
#
#
#
# Elastic Compliance Matrix: (Units=1/GPa)
#
#
# Indices 1 2 3 4 5 6 
#
# 1 0.027652 -0.003653 -0.007034 0.000000 0.000000 0.000000
# 2 -0.003653 0.009460 -0.003012 0.000000 0.000000 0.000000
# 3 -0.007034 -0.003012 0.007997 0.000000 0.000000 0.000000
# 4 0.000000 0.000000 0.000000 0.081433 0.000000 0.000000
# 5 0.000000 0.000000 0.000000 0.000000 0.037752 0.000000
# 6 0.000000 0.000000 0.000000 0.000000 0.000000 0.042806
#
#
# Mechanical properties :
#
#
# Convention : Reuss Voigt Hill
#
# Bulk Modulus (GPa) = 56.46605 96.01057 76.23831
# Shear Modulus (GPa) = 20.79843 27.39422 24.09633
#
# Velocity S-wave (km/s) = 3.32380 3.81460 3.57763
# Velocity P-wave (km/s) = 6.68758 8.39048 7.58696
#
# Compressibility (1/GPa) = 0.01770976
#
# Stress axis : x y z
#
# Youngs Moduli (GPa) = 36.16406 105.70315 125.05395
#
# Poissons Ratio (x) = 0.38615 0.87968
# Poissons Ratio (y) = 0.13211 0.37666
# Poissons Ratio (z) = 0.25439 0.31837
#
# Static dielectric constant tensor:
#      x y z
#    x 1.628040 0.000000 0.000000 
#    y 0.000000 1.542510 0.000000 
#    z 0.000000 0.000000 1.664370 
# 
# From -- ./inp_files/76385.got.cif
#   From: 2010.05.17/outbox.cif.g08.bks.cpg/sg65_39_cif.got.tgz:76385.got - 2010.06.03 17:01:31.
