data_PCOD9490663
_publ_section_title
;
Structure prediction by ZEFSAII (Michael W. Deem and Ramdas Pophale) SiO2 
 PCOD9490663
Probable space group: C M M M
;
_chemical_formula_sum "Si O2"
_cell_formula_units_Z 88
_cell_length_a 18.968915
_cell_length_b 11.350460
_cell_length_c 19.148698
_cell_angle_alpha 90.000000
_cell_angle_beta 90.000000
_cell_angle_gamma 90.000000
_cell_volume 4122.827866
_symmetry_space_group_name_H-M "C M M M"
_symmetry_group_IT_number 65
_symmetry_cell_setting 'orthorhombic'
loop_
_space_group_symop_operation_xyz
x,y,z
-x,-y,z
x,-y,-z
-x,y,-z
-x,-y,-z
x,y,-z
-x,y,z
x,-y,z
1/2+x,1/2+y,z
1/2-x,1/2-y,z
1/2+x,1/2-y,-z
1/2-x,1/2+y,-z
1/2-x,1/2-y,-z
1/2+x,1/2+y,-z
1/2-x,1/2+y,z
1/2+x,1/2-y,z
loop_
_atom_site_type_symbol
_atom_site_label
_atom_site_fract_x
_atom_site_fract_y
_atom_site_fract_z
Si Si1 0.289030 0.868742 0.916678
Si Si2 0.915061 0.370427 0.283779
Si Si3 0.584807 0.249890 0.144872
Si Si4 0.585416 0.500000 0.079693
Si Si5 0.580753 0.735242 0.420992
Si Si6 0.276170 0.374707 0.582628
O O1 0.250000 0.750000 0.889407
O O2 0.370946 0.843684 0.899663
O O3 0.268505 0.000000 0.890666
O O4 0.278683 0.870026 0.000000
O O5 0.886414 0.500000 0.267856
O O6 0.894759 0.276024 0.225169
O O7 0.901155 0.330853 0.362508
O O8 0.000000 0.376954 0.279076
O O9 0.500000 0.237204 0.137034
O O10 0.604732 0.380081 0.118674
O O11 0.500000 0.500000 0.076281
O O12 0.612397 0.500000 0.000000
O O13 0.585899 0.782865 0.500000
O O14 0.500000 0.696054 0.410204
O O15 0.639114 0.634937 0.414599
O O16 0.256492 0.374677 0.500000
O O17 0.252742 0.500000 0.612871
O O18 0.250000 0.250000 0.612379
#
# Coordination Sequence:
#
# PCOD9490663 Si02
#       6
#    16  16  16   8  16  16
#     4  10  22  38  58  86 120 158 194 233 285 345
#     4   9  18  33  53  80 116 154 190 237 297 353
#     4  10  20  36  59  86 115 151 195 245 296 348
#     4   9  18  32  54  86 117 145 182 234 291 341
#     4   9  18  33  54  82 113 147 191 243 295 349
#     4   9  18  33  53  78 108 143 183 232 292 352
#
# _framework density 21.344571999999999
#
# number of rings (size 3 to 8) (size 9 to 14) (size 15 to 20)
#    0.000    2.636    0.000    1.091    1.273    3.636 
#    1.636    7.273    0.000    2.182    0.000    0.000 
#    0.000    0.000    0.000    0.000    0.000    0.000 
#
# Total GULP energy -245192.566433 kJ/mol
# GULP energy per Si atom -5572.558328 kJ/mol
# Density = 2.129599 g / cm^3
# Si number density = 21.344572 Si / 1000 Ang^3
#
#
#
# Elastic Constant Matrix: (Units=GPa)
#
#
# Indices 1 2 3 4 5 6 
#
# 1 78.2903 42.6266 4.0962 0.0000 0.0000 0.0000
# 2 42.6266 192.7931 64.1052 0.0000 0.0000 0.0000
# 3 4.0962 64.1052 78.3894 0.0000 0.0000 0.0000
# 4 0.0000 0.0000 0.0000 13.0945 0.0000 0.0000
# 5 0.0000 0.0000 0.0000 0.0000 12.2664 0.0000
# 6 0.0000 0.0000 0.0000 0.0000 0.0000 11.9917
#
#
#
# Elastic Compliance Matrix: (Units=1/GPa)
#
#
# Indices 1 2 3 4 5 6 
#
# 1 0.014906 -0.004171 0.002632 0.000000 0.000000 0.000000
# 2 -0.004171 0.008291 -0.006562 0.000000 0.000000 0.000000
# 3 0.002632 -0.006562 0.017986 0.000000 0.000000 0.000000
# 4 0.000000 0.000000 0.000000 0.076368 0.000000 0.000000
# 5 0.000000 0.000000 0.000000 0.000000 0.081523 0.000000
# 6 0.000000 0.000000 0.000000 0.000000 0.000000 0.083391
#
#
# Mechanical properties :
#
#
# Convention : Reuss Voigt Hill
#
# Bulk Modulus (GPa) = 40.03109 63.45876 51.74492
# Shear Modulus (GPa) = 16.28691 23.38017 19.83354
#
# Velocity S-wave (km/s) = 2.76533 3.31323 3.05160
# Velocity P-wave (km/s) = 5.38437 6.66572 6.05901
#
# Compressibility (1/GPa) = 0.02498059
#
# Stress axis : x y z
#
# Youngs Moduli (GPa) = 67.08613 120.61062 55.59918
#
# Poissons Ratio (x) = 0.50306 -0.14634
# Poissons Ratio (y) = 0.27981 0.36486
# Poissons Ratio (z) = -0.17657 0.79149
#
# Static dielectric constant tensor:
#      x y z
#    x 1.821830 0.000000 0.000000 
#    y 0.000000 1.781380 0.000000 
#    z 0.000000 0.000000 1.749620 
# 
# From -- ./inp_files/55668.got.cif
#   From: 2010.05.17/outbox.cif.g08.bks.cpg/sg65_28_cif.got.tgz:55668.got - 2010.06.03 17:01:31.
