data_PCOD9490528
_publ_section_title
;
Structure prediction by ZEFSAII (Michael W. Deem and Ramdas Pophale) SiO2 
 PCOD9490528
Probable space group: C M M M
;
_chemical_formula_sum "Si O2"
_cell_formula_units_Z 72
_cell_length_a 8.488471
_cell_length_b 14.670677
_cell_length_c 30.267021
_cell_angle_alpha 90.000000
_cell_angle_beta 90.000000
_cell_angle_gamma 90.000000
_cell_volume 3769.201045
_symmetry_space_group_name_H-M "C M M M"
_symmetry_group_IT_number 65
_symmetry_cell_setting 'orthorhombic'
loop_
_space_group_symop_operation_xyz
x,y,z
-x,-y,z
x,-y,-z
-x,y,-z
-x,-y,-z
x,y,-z
-x,y,z
x,-y,z
1/2+x,1/2+y,z
1/2-x,1/2-y,z
1/2+x,1/2-y,-z
1/2-x,1/2+y,-z
1/2-x,1/2-y,-z
1/2+x,1/2+y,-z
1/2-x,1/2+y,z
1/2+x,1/2-y,z
loop_
_atom_site_type_symbol
_atom_site_label
_atom_site_fract_x
_atom_site_fract_y
_atom_site_fract_z
Si Si1 0.313090 0.000000 0.811130
Si Si2 0.310135 0.853528 0.644459
Si Si3 0.690479 0.854319 0.452498
Si Si4 0.688755 0.647329 0.878372
Si Si5 0.691939 0.500000 0.949655
Si Si6 0.186572 0.000000 0.287786
O O1 0.246565 0.911507 0.836597
O O2 0.500000 0.000000 0.815143
O O3 0.264028 0.000000 0.760262
O O4 0.500000 0.855491 0.646718
O O5 0.250000 0.750000 0.647645
O O6 0.261388 0.890487 0.595596
O O7 0.240478 0.913607 0.683383
O O8 0.742436 0.894089 0.500000
O O9 0.500000 0.855785 0.452619
O O10 0.750000 0.750000 0.452607
O O11 0.500000 0.648526 0.877796
O O12 0.750000 0.750000 0.878549
O O13 0.740235 0.588721 0.921399
O O14 0.500000 0.500000 0.950541
O O15 0.748151 0.500000 0.000000
O O16 0.000000 0.000000 0.282567
#
# Coordination Sequence:
#
# PCOD9490528 Si02
#       6
#     8  16  16  16   8   8
#     4  11  23  41  62  83 108 140 184 237 292 343
#     4  10  20  36  57  82 111 143 180 222 272 329
#     4   8  14  26  47  74 103 136 173 213 259 314
#     4  10  20  36  59  87 119 155 196 239 284 333
#     4   8  16  32  54  83 123 166 203 240 280 323
#     4  12  25  41  59  81 110 143 182 228 282 339
#
# _framework density 19.102191999999999
#
# number of rings (size 3 to 8) (size 9 to 14) (size 15 to 20)
#    0.000    2.333    0.000    4.000    0.000    2.222 
#    0.000    5.000    0.000   14.667    0.000    0.000 
#    0.000    0.000    0.000    0.000    0.000    0.000 
#
# Total GULP energy -200829.450161 kJ/mol
# GULP energy per Si atom -5578.595838 kJ/mol
# Density = 1.905871 g / cm^3
# Si number density = 19.102192 Si / 1000 Ang^3
#
#
#
# Elastic Constant Matrix: (Units=GPa)
#
#
# Indices 1 2 3 4 5 6 
#
# 1 62.6326 32.1458 29.1399 0.0000 0.0000 0.0000
# 2 32.1458 150.5799 84.8809 0.0000 0.0000 0.0000
# 3 29.1399 84.8809 190.9673 0.0000 0.0000 0.0000
# 4 0.0000 0.0000 0.0000 29.4246 0.0000 0.0000
# 5 0.0000 0.0000 0.0000 0.0000 22.0383 0.0000
# 6 0.0000 0.0000 0.0000 0.0000 0.0000 22.1671
#
#
#
# Elastic Compliance Matrix: (Units=1/GPa)
#
#
# Indices 1 2 3 4 5 6 
#
# 1 0.018208 -0.003097 -0.001402 0.000000 0.000000 0.000000
# 2 -0.003097 0.009388 -0.003700 0.000000 0.000000 0.000000
# 3 -0.001402 -0.003700 0.007095 0.000000 0.000000 0.000000
# 4 0.000000 0.000000 0.000000 0.033985 0.000000 0.000000
# 5 0.000000 0.000000 0.000000 0.000000 0.045376 0.000000
# 6 0.000000 0.000000 0.000000 0.000000 0.000000 0.045112
#
#
# Mechanical properties :
#
#
# Convention : Reuss Voigt Hill
#
# Bulk Modulus (GPa) = 54.66562 77.39034 66.02798
# Shear Modulus (GPa) = 27.52416 31.92688 29.72552
#
# Velocity S-wave (km/s) = 3.80002 4.09268 3.94906
# Velocity P-wave (km/s) = 6.92338 7.93317 7.44541
#
# Compressibility (1/GPa) = 0.01829303
#
# Stress axis : x y z
#
# Youngs Moduli (GPa) = 54.92168 106.52074 140.94316
#
# Poissons Ratio (x) = 0.32987 0.19759
# Poissons Ratio (y) = 0.17008 0.52151
# Poissons Ratio (z) = 0.07699 0.39414
#
# Static dielectric constant tensor:
#      x y z
#    x 1.645270 0.000000 0.000000 
#    y 0.000000 1.652110 0.000000 
#    z 0.000000 0.000000 1.677370 
# 
# From -- ./inp_files/72616.got.cif
#   From: 2010.05.17/outbox.cif.g08.bks.cpg/sg65_37_cif.got.tgz:72616.got - 2010.06.03 17:01:31.
