data_PCOD9490680
_publ_section_title
;
Structure prediction by ZEFSAII (Michael W. Deem and Ramdas Pophale) SiO2 
 PCOD9490680
Probable space group: C M M M
;
_chemical_formula_sum "Si O2"
_cell_formula_units_Z 64
_cell_length_a 8.405656
_cell_length_b 24.475509
_cell_length_c 15.922838
_cell_angle_alpha 90.000000
_cell_angle_beta 90.000000
_cell_angle_gamma 90.000000
_cell_volume 3275.848598
_symmetry_space_group_name_H-M "C M M M"
_symmetry_group_IT_number 65
_symmetry_cell_setting 'orthorhombic'
loop_
_space_group_symop_operation_xyz
x,y,z
-x,-y,z
x,-y,-z
-x,y,-z
-x,-y,-z
x,y,-z
-x,y,z
x,-y,z
1/2+x,1/2+y,z
1/2-x,1/2-y,z
1/2+x,1/2-y,-z
1/2-x,1/2+y,-z
1/2-x,1/2-y,-z
1/2+x,1/2+y,-z
1/2-x,1/2+y,z
1/2+x,1/2-y,z
loop_
_atom_site_type_symbol
_atom_site_label
_atom_site_fract_x
_atom_site_fract_y
_atom_site_fract_z
Si Si1 0.806115 0.500000 0.597890
Si Si2 0.692235 0.811813 0.500000
Si Si3 0.690509 0.381626 0.157347
Si Si4 0.692295 0.117888 0.660701
Si Si5 0.310942 0.811870 0.000000
Si Si6 0.806329 0.000000 0.902100
O O1 0.758711 0.500000 0.500000
O O2 0.753178 0.444244 0.642012
O O3 0.000000 0.500000 0.598633
O O4 0.500000 0.812557 0.500000
O O5 0.750000 0.750000 0.500000
O O6 0.744815 0.844122 0.416526
O O7 0.500000 0.381881 0.154733
O O8 0.747206 0.363608 0.248929
O O9 0.750834 0.343738 0.082313
O O10 0.748098 0.443930 0.140700
O O11 0.500000 0.117776 0.661505
O O12 0.250000 0.750000 0.000000
O O13 0.500000 0.811848 0.000000
O O14 0.000000 0.000000 0.900132
O O15 0.759394 0.000000 0.000000
#
# Coordination Sequence:
#
# PCOD9490680 Si02
#       6
#     8   8  16  16   8   8
#     4   9  15  30  59  88 116 152 196 249 307 354
#     4  10  22  39  59  81 113 154 197 244 294 346
#     4  11  22  39  63  91 124 162 198 241 297 357
#     4  10  20  36  59  88 118 153 197 247 300 355
#     4  12  26  45  66  89 117 154 202 252 299 354
#     4   9  17  34  60  87 121 161 194 232 291 354
#
# _framework density 19.536922000000001
#
# number of rings (size 3 to 8) (size 9 to 14) (size 15 to 20)
#    0.000    1.750    2.500    2.625    0.000    2.000 
#    0.000    5.000    0.000    0.750    0.000    0.000 
#    0.000    0.000    0.000    0.000    0.000    0.000 
#
# Total GULP energy -178814.890691 kJ/mol
# GULP energy per Si atom -5587.965334 kJ/mol
# Density = 1.949246 g / cm^3
# Si number density = 19.536922 Si / 1000 Ang^3
#
#
#
# Elastic Constant Matrix: (Units=GPa)
#
#
# Indices 1 2 3 4 5 6 
#
# 1 34.7014 30.8092 35.2941 0.0000 0.0000 0.0000
# 2 30.8092 162.4236 97.2212 0.0000 0.0000 0.0000
# 3 35.2941 97.2212 208.4990 0.0000 0.0000 0.0000
# 4 0.0000 0.0000 0.0000 -0.1272 0.0000 0.0000
# 5 0.0000 0.0000 0.0000 0.0000 14.8201 0.0000
# 6 0.0000 0.0000 0.0000 0.0000 0.0000 25.1698
#
#
#
# Elastic Compliance Matrix: (Units=1/GPa)
#
#
# Indices 1 2 3 4 5 6 
#
# 1 0.037081 -0.004545 -0.004158 0.000000 0.000000 0.000000
# 2 -0.004545 0.009098 -0.003473 0.000000 0.000000 0.000000
# 3 -0.004158 -0.003473 0.007119 0.000000 0.000000 0.000000
# 4 0.000000 0.000000 0.000000 -7.863772 0.000000 0.000000
# 5 0.000000 0.000000 0.000000 0.000000 0.067476 0.000000
# 6 0.000000 0.000000 0.000000 0.000000 0.000000 0.039730
#
#
# Mechanical properties :
#
#
# Convention : Reuss Voigt Hill
#
# Bulk Modulus (GPa) = 34.54579 81.36366 57.95473
# Shear Modulus (GPa) = -0.65195 24.12585 11.73695
#
# Velocity S-wave (km/s) = -0.57830 3.51790 2.45369
# Velocity P-wave (km/s) = 4.15630 7.63134 6.14460
#
# Compressibility (1/GPa) = 0.02894708
#
# Stress axis : x y z
#
# Youngs Moduli (GPa) = 26.96784 109.92006 140.46373
#
# Poissons Ratio (x) = 0.49960 0.58400
# Poissons Ratio (y) = 0.12257 0.48779
# Poissons Ratio (z) = 0.11212 0.38172
#
# Static dielectric constant tensor:
#      x y z
#    x 1.672150 0.000000 0.000000 
#    y 0.000000 1.669280 0.000000 
#    z 0.000000 0.000000 1.663180 
# 
# From -- ./inp_files/36073.got.cif
#   From: 2010.05.17/outbox.cif.g08.bks.cpg/sg65_19_cif.got.tgz:36073.got - 2010.06.03 17:01:31.
