data_PCOD9490850
_publ_section_title
;
Structure prediction by ZEFSAII (Michael W. Deem and Ramdas Pophale) SiO2 
 PCOD9490850
Probable space group: C M M M
;
_chemical_formula_sum "Si O2"
_cell_formula_units_Z 58
_cell_length_a 10.458911
_cell_length_b 15.270465
_cell_length_c 19.182526
_cell_angle_alpha 90.000000
_cell_angle_beta 90.000000
_cell_angle_gamma 90.000000
_cell_volume 3063.687925
_symmetry_space_group_name_H-M "C M M M"
_symmetry_group_IT_number 65
_symmetry_cell_setting 'orthorhombic'
loop_
_space_group_symop_operation_xyz
x,y,z
-x,-y,z
x,-y,-z
-x,y,-z
-x,-y,-z
x,y,-z
-x,y,z
x,-y,z
1/2+x,1/2+y,z
1/2-x,1/2-y,z
1/2+x,1/2-y,-z
1/2-x,1/2+y,-z
1/2-x,1/2-y,-z
1/2+x,1/2+y,-z
1/2-x,1/2+y,z
1/2+x,1/2-y,z
loop_
_atom_site_type_symbol
_atom_site_label
_atom_site_fract_x
_atom_site_fract_y
_atom_site_fract_z
Si Si1 0.653168 0.174137 0.348904
Si Si2 0.654254 0.899976 0.500000
Si Si3 0.000000 0.500000 0.000000
Si Si4 0.650146 0.000000 0.741501
Si Si5 0.139541 0.810741 0.917782
Si Si6 0.254075 0.000000 0.103762
O O1 0.500000 0.195803 0.345338
O O2 0.750000 0.250000 0.325948
O O3 0.687138 0.149229 0.428843
O O4 0.674331 0.086779 0.303615
O O5 0.500000 0.906097 0.500000
O O6 0.703695 0.000000 0.500000
O O7 0.113736 0.500000 0.060507
O O8 0.500000 0.000000 0.758393
O O9 0.723269 0.000000 0.813886
O O10 0.250000 0.750000 0.886517
O O11 0.178057 0.911754 0.914154
O O12 0.000000 0.794685 0.886484
O O13 0.131074 0.787382 0.000000
#
# Coordination Sequence:
#
# PCOD9490850 Si02
#       6
#    16   8   2   8  16   8
#     4  10  20  37  60  88 119 155 197 239 284 345
#     4   9  15  30  61  90 115 154 199 235 276 336
#     4  12  24  36  66  92 112 152 210 260 300 364
#     4  10  22  38  58  83 116 157 199 238 290 356
#     4  10  22  38  61  87 115 145 186 240 300 362
#     4  12  23  39  61  86 119 152 199 250 308 352
#
# _framework density 18.931432000000001
#
# number of rings (size 3 to 8) (size 9 to 14) (size 15 to 20)
#    0.000    1.793    3.448    0.828    1.931    2.207 
#    0.000    6.207    0.000    0.828    0.000    0.000 
#    0.000    0.000    0.000    0.000    0.000    0.000 
#
# Total GULP energy -161540.675462 kJ/mol
# GULP energy per Si atom -5570.368119 kJ/mol
# Density = 1.888834 g / cm^3
# Si number density = 18.931432 Si / 1000 Ang^3
#
#
#
# Elastic Constant Matrix: (Units=GPa)
#
#
# Indices 1 2 3 4 5 6 
#
# 1 136.5592 73.9945 22.0343 0.0000 0.0000 0.0000
# 2 73.9945 103.9282 -6.1323 0.0000 0.0000 0.0000
# 3 22.0343 -6.1323 70.1186 0.0000 0.0000 0.0000
# 4 0.0000 0.0000 0.0000 -5.3391 0.0000 0.0000
# 5 0.0000 0.0000 0.0000 0.0000 16.9271 0.0000
# 6 0.0000 0.0000 0.0000 0.0000 0.0000 17.2857
#
#
#
# Elastic Compliance Matrix: (Units=1/GPa)
#
#
# Indices 1 2 3 4 5 6 
#
# 1 0.013535 -0.009938 -0.005122 0.000000 0.000000 0.000000
# 2 -0.009938 0.016970 0.004607 0.000000 0.000000 0.000000
# 3 -0.005122 0.004607 0.016274 0.000000 0.000000 0.000000
# 4 0.000000 0.000000 0.000000 -0.187297 0.000000 0.000000
# 5 0.000000 0.000000 0.000000 0.000000 0.059077 0.000000
# 6 0.000000 0.000000 0.000000 0.000000 0.000000 0.057851
#
#
# Mechanical properties :
#
#
# Convention : Reuss Voigt Hill
#
# Bulk Modulus (GPa) = 38.65284 54.48879 46.57081
# Shear Modulus (GPa) = 841.69110 20.48872 431.08991
#
# Velocity S-wave (km/s) = 21.10841 3.29334 15.10647
# Velocity P-wave (km/s) = 24.79008 6.58074 18.13635
#
# Compressibility (1/GPa) = 0.02587132
#
# Stress axis : x y z
#
# Youngs Moduli (GPa) = 73.88525 58.92802 61.44721
#
# Poissons Ratio (x) = 0.58566 0.31475
# Poissons Ratio (y) = 0.73431 -0.28310
# Poissons Ratio (z) = 0.37846 -0.27149
#
# Static dielectric constant tensor:
#      x y z
#    x 1.665250 0.000000 0.000000 
#    y 0.000000 1.654940 0.000000 
#    z 0.000000 0.000000 1.663950 
# 
# From -- ./inp_files/48890.got.cif
#   From: 2010.05.17/outbox.cif.g08.bks.cpg/sg65_25_cif.got.tgz:48890.got - 2010.06.03 17:01:31.
