data_PCOD9490387
_publ_section_title
;
Structure prediction by ZEFSAII (Michael W. Deem and Ramdas Pophale) SiO2 
 PCOD9490387
Probable space group: C M M M
;
_chemical_formula_sum "Si O2"
_cell_formula_units_Z 88
_cell_length_a 26.349797
_cell_length_b 12.454548
_cell_length_c 14.234565
_cell_angle_alpha 90.000000
_cell_angle_beta 90.000000
_cell_angle_gamma 90.000000
_cell_volume 4671.425686
_symmetry_space_group_name_H-M "C M M M"
_symmetry_group_IT_number 65
_symmetry_cell_setting 'orthorhombic'
loop_
_space_group_symop_operation_xyz
x,y,z
-x,-y,z
x,-y,-z
-x,y,-z
-x,-y,-z
x,y,-z
-x,y,z
x,-y,z
1/2+x,1/2+y,z
1/2-x,1/2-y,z
1/2+x,1/2-y,-z
1/2-x,1/2+y,-z
1/2-x,1/2-y,-z
1/2+x,1/2+y,-z
1/2-x,1/2+y,z
1/2+x,1/2-y,z
loop_
_atom_site_type_symbol
_atom_site_label
_atom_site_fract_x
_atom_site_fract_y
_atom_site_fract_z
Si Si1 0.310279 0.000000 0.393365
Si Si2 0.930347 0.500000 0.605312
Si Si3 0.500000 0.131367 0.885207
Si Si4 0.704539 0.170388 0.232296
Si Si5 0.905172 0.226186 0.801896
Si Si6 0.376401 0.500000 0.887421
Si Si7 0.057362 0.260407 0.392678
Si Si8 0.758978 0.000000 0.110643
O O1 0.299251 0.898739 0.327479
O O2 0.289375 0.000000 0.500000
O O3 0.370530 0.000000 0.400358
O O4 0.950353 0.500000 0.500000
O O5 0.944745 0.384422 0.643384
O O6 0.550028 0.196360 0.844868
O O7 0.500000 0.000000 0.862484
O O8 0.500000 0.138241 0.000000
O O9 0.750000 0.250000 0.252011
O O10 0.650227 0.216994 0.200095
O O11 0.727107 0.099257 0.148682
O O12 0.914968 0.201867 0.691392
O O13 0.901662 0.111405 0.853551
O O14 0.317245 0.500000 0.853655
O O15 0.376497 0.500000 0.000000
O O16 0.078433 0.259663 0.500000
O O17 0.000000 0.220854 0.398241
O O18 0.761610 0.000000 0.000000
#
# Coordination Sequence:
#
# PCOD9490387 Si02
#       8
#     8   8   8  16  16   8  16   8
#     4  10  21  36  58  90 131 177 216 262 323 392
#     4   9  16  29  53  89 125 159 203 253 307 378
#     4  11  28  47  66 100 137 169 215 275 343 406
#     4  11  23  40  65  95 130 169 217 273 329 391
#     4  12  24  43  69  96 134 176 218 267 335 386
#     4  11  25  46  70  90 123 176 235 275 311 394
#     4  10  20  35  59  92 127 166 212 260 317 384
#     4  10  23  41  62  95 127 163 216 276 334 385
#
# _framework density 18.837931999999999
#
# number of rings (size 3 to 8) (size 9 to 14) (size 15 to 20)
#    0.000    1.364    4.545    0.818    3.818    3.636 
#    0.000    1.364    0.000    1.091    0.000    0.000 
#    0.000    0.000    0.000    0.000    0.000    0.000 
#
# Total GULP energy -244941.840529 kJ/mol
# GULP energy per Si atom -5566.860012 kJ/mol
# Density = 1.879506 g / cm^3
# Si number density = 18.837932 Si / 1000 Ang^3
#
#
#
# Elastic Constant Matrix: (Units=GPa)
#
#
# Indices 1 2 3 4 5 6 
#
# 1 136.2333 69.4022 45.9940 0.0000 0.0000 0.0000
# 2 69.4022 121.0388 60.1180 0.0000 0.0000 0.0000
# 3 45.9940 60.1180 120.7199 0.0000 0.0000 0.0000
# 4 0.0000 0.0000 0.0000 23.5541 0.0000 0.0000
# 5 0.0000 0.0000 0.0000 0.0000 17.7049 0.0000
# 6 0.0000 0.0000 0.0000 0.0000 0.0000 214.2201
#
#
#
# Elastic Compliance Matrix: (Units=1/GPa)
#
#
# Indices 1 2 3 4 5 6 
#
# 1 0.010529 -0.005374 -0.001335 0.000000 0.000000 0.000000
# 2 -0.005374 0.013720 -0.004785 0.000000 0.000000 0.000000
# 3 -0.001335 -0.004785 0.011175 0.000000 0.000000 0.000000
# 4 0.000000 0.000000 0.000000 0.042456 0.000000 0.000000
# 5 0.000000 0.000000 0.000000 0.000000 0.056482 0.000000
# 6 0.000000 0.000000 0.000000 0.000000 0.000000 0.004668
#
#
# Mechanical properties :
#
#
# Convention : Reuss Voigt Hill
#
# Bulk Modulus (GPa) = 80.41426 81.00226 80.70826
# Shear Modulus (GPa) = 30.09105 64.59434 47.34269
#
# Velocity S-wave (km/s) = 4.00104 5.86208 5.01858
# Velocity P-wave (km/s) = 8.00778 9.42929 8.74746
#
# Compressibility (1/GPa) = 0.01243561
#
# Stress axis : x y z
#
# Youngs Moduli (GPa) = 94.97754 72.88779 89.48344
#
# Poissons Ratio (x) = 0.39169 0.11949
# Poissons Ratio (y) = 0.51040 0.42817
# Poissons Ratio (z) = 0.12682 0.34876
#
# Static dielectric constant tensor:
#      x y z
#    x 1.665340 0.000000 0.000000 
#    y 0.000000 1.602770 0.000000 
#    z 0.000000 0.000000 1.677480 
# 
# From -- ./inp_files/45486.got.cif
#   From: 2010.05.17/outbox.cif.g08.bks.cpg/sg65_23_cif.got.tgz:45486.got - 2010.06.03 17:01:31.
