data_PCOD9490704
_publ_section_title
;
Structure prediction by ZEFSAII (Michael W. Deem and Ramdas Pophale) SiO2 
 PCOD9490704
Probable space group: C M M M
;
_chemical_formula_sum "Si O2"
_cell_formula_units_Z 104
_cell_length_a 19.725981
_cell_length_b 20.519133
_cell_length_c 14.130647
_cell_angle_alpha 90.000000
_cell_angle_beta 90.000000
_cell_angle_gamma 90.000000
_cell_volume 5719.521071
_symmetry_space_group_name_H-M "C M M M"
_symmetry_group_IT_number 65
_symmetry_cell_setting 'orthorhombic'
loop_
_space_group_symop_operation_xyz
x,y,z
-x,-y,z
x,-y,-z
-x,y,-z
-x,-y,-z
x,y,-z
-x,y,z
x,-y,z
1/2+x,1/2+y,z
1/2-x,1/2-y,z
1/2+x,1/2-y,-z
1/2-x,1/2+y,-z
1/2-x,1/2-y,-z
1/2+x,1/2+y,-z
1/2-x,1/2+y,z
1/2+x,1/2-y,z
loop_
_atom_site_type_symbol
_atom_site_label
_atom_site_fract_x
_atom_site_fract_y
_atom_site_fract_z
Si Si1 0.322097 0.215244 0.889434
Si Si2 0.210148 0.072870 0.306080
Si Si3 0.921510 0.260001 0.722890
Si Si4 0.841241 0.370380 0.613354
Si Si5 0.922057 0.500000 0.615045
Si Si6 0.075286 0.123978 0.611849
Si Si7 0.265223 0.074092 0.107633
O O1 0.250000 0.250000 0.866499
O O2 0.380212 0.240956 0.820736
O O3 0.313688 0.136601 0.878240
O O4 0.335745 0.228381 0.000000
O O5 0.264950 0.122843 0.347968
O O6 0.137057 0.081824 0.350525
O O7 0.211378 0.079119 0.192404
O O8 0.234733 0.000000 0.330030
O O9 0.881152 0.310177 0.656705
O O10 0.921207 0.190921 0.670266
O O11 0.000000 0.279737 0.735795
O O12 0.839883 0.367195 0.500000
O O13 0.882113 0.435258 0.643774
O O14 0.923213 0.500000 0.500000
O O15 0.000000 0.500000 0.647560
O O16 0.083495 0.136605 0.500000
O O17 0.000000 0.095364 0.625554
O O18 0.294590 0.000000 0.115146
O O19 0.238548 0.080232 0.000000
#
# Coordination Sequence:
#
# PCOD9490704 Si02
#       7
#    16  16  16  16   8  16  16
#     4  10  20  36  60  86 113 147 191 242 293 344
#     4  11  21  36  60  87 114 145 190 243 289 339
#     4  11  23  38  57  82 113 152 191 231 284 342
#     4  11  21  33  52  80 111 146 189 231 272 326
#     4   9  18  32  48  70 106 148 184 221 268 318
#     4  10  23  41  58  80 114 154 193 235 286 346
#     4   9  18  34  57  84 114 148 187 232 283 340
#
# _framework density 18.183340999999999
#
# number of rings (size 3 to 8) (size 9 to 14) (size 15 to 20)
#    0.000    1.769    2.308    2.308    0.000    3.077 
#    0.000    2.308    0.000    1.385    0.000    4.308 
#    0.000    0.000    0.000    0.000    0.000    0.000 
#
# Total GULP energy -290076.926240 kJ/mol
# GULP energy per Si atom -5578.402428 kJ/mol
# Density = 1.814196 g / cm^3
# Si number density = 18.183341 Si / 1000 Ang^3
#
#
#
# Elastic Constant Matrix: (Units=GPa)
#
#
# Indices 1 2 3 4 5 6 
#
# 1 116.4300 18.8851 58.0871 0.0000 0.0000 0.0000
# 2 18.8851 40.8503 14.4741 0.0000 0.0000 0.0000
# 3 58.0871 14.4741 98.7302 0.0000 0.0000 0.0000
# 4 0.0000 0.0000 0.0000 24.6496 0.0000 0.0000
# 5 0.0000 0.0000 0.0000 0.0000 26.1466 0.0000
# 6 0.0000 0.0000 0.0000 0.0000 0.0000 25.7847
#
#
#
# Elastic Compliance Matrix: (Units=1/GPa)
#
#
# Indices 1 2 3 4 5 6 
#
# 1 0.012582 -0.003369 -0.006909 0.000000 0.000000 0.000000
# 2 -0.003369 0.026723 -0.001936 0.000000 0.000000 0.000000
# 3 -0.006909 -0.001936 0.014477 0.000000 0.000000 0.000000
# 4 0.000000 0.000000 0.000000 0.040569 0.000000 0.000000
# 5 0.000000 0.000000 0.000000 0.000000 0.038246 0.000000
# 6 0.000000 0.000000 0.000000 0.000000 0.000000 0.038783
#
#
# Mechanical properties :
#
#
# Convention : Reuss Voigt Hill
#
# Bulk Modulus (GPa) = 34.06490 48.76700 41.41595
# Shear Modulus (GPa) = 24.32021 26.28715 25.30368
#
# Velocity S-wave (km/s) = 3.66115 3.80632 3.73444
# Velocity P-wave (km/s) = 6.05366 6.79671 6.43592
#
# Compressibility (1/GPa) = 0.02935573
#
# Stress axis : x y z
#
# Youngs Moduli (GPa) = 79.47860 37.42120 69.07498
#
# Poissons Ratio (x) = 0.12606 0.47721
# Poissons Ratio (y) = 0.26775 0.13370
# Poissons Ratio (z) = 0.54909 0.07243
#
# Static dielectric constant tensor:
#      x y z
#    x 1.601280 0.000000 0.000000 
#    y 0.000000 1.652010 0.000000 
#    z 0.000000 0.000000 1.623180 
# 
# From -- ./inp_files/42840.got.cif
#   From: 2010.05.17/outbox.cif.g08.bks.cpg/sg65_22_cif.got.tgz:42840.got - 2010.06.03 17:01:31.
