data_PCOD9490730
_publ_section_title
;
Structure prediction by ZEFSAII (Michael W. Deem and Ramdas Pophale) SiO2 
 PCOD9490730
Probable space group: C M M M
;
_chemical_formula_sum "Si O2"
_cell_formula_units_Z 100
_cell_length_a 29.849189
_cell_length_b 21.001818
_cell_length_c 7.379670
_cell_angle_alpha 90.000000
_cell_angle_beta 90.000000
_cell_angle_gamma 90.000000
_cell_volume 4626.220920
_symmetry_space_group_name_H-M "C M M M"
_symmetry_group_IT_number 65
_symmetry_cell_setting 'orthorhombic'
loop_
_space_group_symop_operation_xyz
x,y,z
-x,-y,z
x,-y,-z
-x,y,-z
-x,-y,-z
x,y,-z
-x,y,z
x,-y,z
1/2+x,1/2+y,z
1/2-x,1/2-y,z
1/2+x,1/2-y,-z
1/2-x,1/2+y,-z
1/2-x,1/2-y,-z
1/2+x,1/2+y,-z
1/2-x,1/2+y,z
1/2+x,1/2-y,z
loop_
_atom_site_type_symbol
_atom_site_label
_atom_site_fract_x
_atom_site_fract_y
_atom_site_fract_z
Si Si1 0.356727 0.431831 0.290126
Si Si2 0.450163 0.620892 0.781185
Si Si3 0.272088 0.109424 0.213716
Si Si4 0.550412 0.768755 0.221142
Si Si5 0.141756 0.676508 0.792008
Si Si6 0.252784 0.500000 0.500000
Si Si7 0.307837 0.306298 0.717818
O O1 0.342120 0.435243 0.500000
O O2 0.345353 0.500000 0.207131
O O3 0.409854 0.421657 0.286454
O O4 0.335368 0.368106 0.213913
O O5 0.500000 0.601444 0.724265
O O6 0.443229 0.694689 0.725695
O O7 0.448932 0.619309 0.000000
O O8 0.322455 0.125846 0.280271
O O9 0.242590 0.174080 0.233003
O O10 0.251087 0.055931 0.340713
O O11 0.272630 0.092735 0.000000
O O12 0.500000 0.788117 0.275431
O O13 0.592550 0.809921 0.286943
O O14 0.551310 0.769148 0.000000
O O15 0.168070 0.743776 0.789757
O O16 0.134443 0.657683 0.000000
O O17 0.310649 0.301714 0.500000
#
# Coordination Sequence:
#
# PCOD9490730 Si02
#       7
#    16  16  16  16  16   4  16
#     4  10  22  35  48  70 104 150 200 245 292 350
#     4   9  17  31  50  71  97 137 191 245 296 348
#     4  11  25  42  65  93 123 163 204 249 306 366
#     4   8  14  28  53  83 117 152 188 243 307 360
#     4  10  20  36  60  93 124 153 203 256 304 367
#     4  12  26  48  66  90 125 162 201 254 296 376
#     4  11  22  36  59  84 119 163 206 255 306 357
#
# _framework density 21.615915000000001
#
# number of rings (size 3 to 8) (size 9 to 14) (size 15 to 20)
#    0.000    2.080    2.400    2.160    2.240    3.520 
#    0.000    1.600    0.000    0.480    0.000    1.120 
#    0.000    3.840    0.000    0.000    0.000    0.000 
#
# Total GULP energy -278790.359305 kJ/mol
# GULP energy per Si atom -5575.807186 kJ/mol
# Density = 2.156672 g / cm^3
# Si number density = 21.615915 Si / 1000 Ang^3
#
#
#
# Elastic Constant Matrix: (Units=GPa)
#
#
# Indices 1 2 3 4 5 6 
#
# 1 146.4463 22.7392 2.8334 0.0000 0.0000 0.0000
# 2 22.7392 34.5339 7.7142 0.0000 0.0000 0.0000
# 3 2.8334 7.7142 103.7609 0.0000 0.0000 0.0000
# 4 0.0000 0.0000 0.0000 -22.5820 0.0000 0.0000
# 5 0.0000 0.0000 0.0000 0.0000 22.6659 0.0000
# 6 0.0000 0.0000 0.0000 0.0000 0.0000 -22.8131
#
#
#
# Elastic Compliance Matrix: (Units=1/GPa)
#
#
# Indices 1 2 3 4 5 6 
#
# 1 0.007609 -0.005048 0.000167 0.000000 0.000000 0.000000
# 2 -0.005048 0.032795 -0.002300 0.000000 0.000000 0.000000
# 3 0.000167 -0.002300 0.009804 0.000000 0.000000 0.000000
# 4 0.000000 0.000000 0.000000 -0.044283 0.000000 0.000000
# 5 0.000000 0.000000 0.000000 0.000000 0.044119 0.000000
# 6 0.000000 0.000000 0.000000 0.000000 0.000000 -0.043834
#
#
# Mechanical properties :
#
#
# Convention : Reuss Voigt Hill
#
# Bulk Modulus (GPa) = 27.89660 39.03495 33.46577
# Shear Modulus (GPa) = 153.75730 12.21778 82.98754
#
# Velocity S-wave (km/s) = 8.44310 2.38002 6.20284
# Velocity P-wave (km/s) = 10.39142 5.06461 8.17410
#
# Compressibility (1/GPa) = 0.03584666
#
# Stress axis : x y z
#
# Youngs Moduli (GPa) = 131.42402 30.49288 101.99933
#
# Poissons Ratio (x) = 0.15392 -0.01708
# Poissons Ratio (y) = 0.66338 0.23463
# Poissons Ratio (z) = -0.02201 0.07014
#
# Static dielectric constant tensor:
#      x y z
#    x 1.857090 0.000000 0.000000 
#    y 0.000000 1.761940 0.000000 
#    z 0.000000 0.000000 1.777040 
# 
# From -- ./inp_files/12842.got.cif
#   From: 2010.05.17/outbox.cif.g08.bks.cpg/sg65_7_cif.got.tgz:12842.got - 2010.06.03 17:01:31.
