data_PCOD9490767
_publ_section_title
;
Structure prediction by ZEFSAII (Michael W. Deem and Ramdas Pophale) SiO2 
 PCOD9490767
Probable space group: C M M M
;
_chemical_formula_sum "Si O2"
_cell_formula_units_Z 88
_cell_length_a 14.899544
_cell_length_b 21.341224
_cell_length_c 14.009977
_cell_angle_alpha 90.000000
_cell_angle_beta 90.000000
_cell_angle_gamma 90.000000
_cell_volume 4454.815516
_symmetry_space_group_name_H-M "C M M M"
_symmetry_group_IT_number 65
_symmetry_cell_setting 'orthorhombic'
loop_
_space_group_symop_operation_xyz
x,y,z
-x,-y,z
x,-y,-z
-x,y,-z
-x,-y,-z
x,y,-z
-x,y,z
x,-y,z
1/2+x,1/2+y,z
1/2-x,1/2-y,z
1/2+x,1/2-y,-z
1/2-x,1/2+y,-z
1/2-x,1/2-y,-z
1/2+x,1/2+y,-z
1/2-x,1/2+y,z
1/2+x,1/2-y,z
loop_
_atom_site_type_symbol
_atom_site_label
_atom_site_fract_x
_atom_site_fract_y
_atom_site_fract_z
Si Si1 0.099164 0.000000 0.163233
Si Si2 0.161719 0.127391 0.763979
Si Si3 0.171718 0.361467 0.113417
Si Si4 0.187298 0.638123 0.387646
Si Si5 0.688332 0.000000 0.111136
Si Si6 0.500000 0.929935 0.384452
Si Si7 0.398688 0.233998 0.269674
O O1 0.103922 0.065524 0.219959
O O2 0.201590 0.000000 0.118691
O O3 0.000000 0.000000 0.113641
O O4 0.223473 0.141416 0.857212
O O5 0.230737 0.114880 0.676962
O O6 0.112400 0.192443 0.745685
O O7 0.149694 0.433301 0.145570
O O8 0.124490 0.307691 0.175800
O O9 0.157831 0.354571 0.000000
O O10 0.203602 0.633154 0.500000
O O11 0.166375 0.708249 0.351747
O O12 0.094592 0.602594 0.361652
O O13 0.667901 0.000000 0.000000
O O14 0.500000 0.932147 0.500000
O O15 0.500000 0.000000 0.345611
O O16 0.500000 0.221274 0.298236
#
# Coordination Sequence:
#
# PCOD9490767 Si02
#       7
#     8  16  16  16   8   8  16
#     4  10  20  37  57  80 108 145 184 231 281 320
#     4  10  22  36  57  80 106 145 188 228 274 326
#     4   9  18  35  56  79 110 146 183 221 267 322
#     4  10  20  37  58  82 110 142 180 221 273 332
#     4   8  16  33  57  83 110 143 184 227 269 323
#     4   9  18  32  54  84 113 138 168 220 274 318
#     4  11  22  36  52  80 112 143 184 231 272 323
#
# _framework density 19.753903999999999
#
# number of rings (size 3 to 8) (size 9 to 14) (size 15 to 20)
#    0.000    2.273    0.909    2.727    1.273    3.455 
#    1.636    0.455    0.000    7.091    0.000    0.000 
#    0.000    0.000    0.000    0.000    0.000    0.000 
#
# Total GULP energy -244971.440044 kJ/mol
# GULP energy per Si atom -5567.532728 kJ/mol
# Density = 1.970894 g / cm^3
# Si number density = 19.753904 Si / 1000 Ang^3
#
#
#
# Elastic Constant Matrix: (Units=GPa)
#
#
# Indices 1 2 3 4 5 6 
#
# 1 60.3416 25.6277 14.3177 0.0000 0.0000 0.0000
# 2 25.6277 118.5630 18.9763 0.0000 0.0000 0.0000
# 3 14.3177 18.9763 91.9473 0.0000 0.0000 0.0000
# 4 0.0000 0.0000 0.0000 12.3050 0.0000 0.0000
# 5 0.0000 0.0000 0.0000 0.0000 5.1622 0.0000
# 6 0.0000 0.0000 0.0000 0.0000 0.0000 -34.9488
#
#
#
# Elastic Compliance Matrix: (Units=1/GPa)
#
#
# Indices 1 2 3 4 5 6 
#
# 1 0.018647 -0.003688 -0.002143 0.000000 0.000000 0.000000
# 2 -0.003688 0.009452 -0.001376 0.000000 0.000000 0.000000
# 3 -0.002143 -0.001376 0.011493 0.000000 0.000000 0.000000
# 4 0.000000 0.000000 0.000000 0.081268 0.000000 0.000000
# 5 0.000000 0.000000 0.000000 0.000000 0.193715 0.000000
# 6 0.000000 0.000000 0.000000 0.000000 0.000000 -0.028613
#
#
# Mechanical properties :
#
#
# Convention : Reuss Voigt Hill
#
# Bulk Modulus (GPa) = 39.71593 43.18837 41.45215
# Shear Modulus (GPa) = 16.19339 10.63237 13.41288
#
# Velocity S-wave (km/s) = 2.86624 2.32252 2.60859
# Velocity P-wave (km/s) = 5.57699 5.39470 5.48660
#
# Compressibility (1/GPa) = 0.02517881
#
# Stress axis : x y z
#
# Youngs Moduli (GPa) = 53.62829 105.80077 87.00573
#
# Poissons Ratio (x) = 0.39016 0.18641
# Poissons Ratio (y) = 0.19776 0.11976
# Poissons Ratio (z) = 0.11490 0.14563
#
# Static dielectric constant tensor:
#      x y z
#    x 1.693930 0.000000 0.000000 
#    y 0.000000 1.756930 0.000000 
#    z 0.000000 0.000000 1.678200 
# 
# From -- ./inp_files/40254.got.cif
#   From: 2010.05.17/outbox.cif.g08.bks.cpg/sg65_21_cif.got.tgz:40254.got - 2010.06.03 17:01:31.
