data_PCOD9490924
_publ_section_title
;
Structure prediction by ZEFSAII (Michael W. Deem and Ramdas Pophale) SiO2 
 PCOD9490924
Probable space group: C M M M
;
_chemical_formula_sum "Si O2"
_cell_formula_units_Z 50
_cell_length_a 8.355063
_cell_length_b 15.440217
_cell_length_c 20.966389
_cell_angle_alpha 90.000000
_cell_angle_beta 90.000000
_cell_angle_gamma 90.000000
_cell_volume 2704.747748
_symmetry_space_group_name_H-M "C M M M"
_symmetry_group_IT_number 65
_symmetry_cell_setting 'orthorhombic'
loop_
_space_group_symop_operation_xyz
x,y,z
-x,-y,z
x,-y,-z
-x,y,-z
-x,-y,-z
x,y,-z
-x,y,z
x,-y,z
1/2+x,1/2+y,z
1/2-x,1/2-y,z
1/2+x,1/2-y,-z
1/2-x,1/2+y,-z
1/2-x,1/2-y,-z
1/2+x,1/2+y,-z
1/2-x,1/2+y,z
1/2+x,1/2-y,z
loop_
_atom_site_type_symbol
_atom_site_label
_atom_site_fract_x
_atom_site_fract_y
_atom_site_fract_z
Si Si1 0.690209 0.500000 0.928008
Si Si2 0.000000 0.500000 0.500000
Si Si3 0.188236 0.652461 0.160723
Si Si4 0.306951 0.500000 0.399783
Si Si5 0.687678 0.654922 0.300019
O O1 0.500000 0.500000 0.932027
O O2 0.740276 0.584270 0.888349
O O3 0.756992 0.500000 0.000000
O O4 0.850152 0.500000 0.445625
O O5 0.250000 0.750000 0.150872
O O6 0.230153 0.628231 0.233786
O O7 0.000000 0.652127 0.153270
O O8 0.500000 0.500000 0.422690
O O9 0.291941 0.415264 0.355199
O O10 0.500000 0.662756 0.285742
O O11 0.750000 0.750000 0.318847
#
# Coordination Sequence:
#
# PCOD9490924 Si02
#       5
#     8   2  16   8  16
#     4  11  24  41  59  81 118 163 207 249 303 366
#     4  12  26  40  72  82 128 166 208 244 288 378
#     4  11  22  37  61  91 122 154 200 252 306 362
#     4  10  24  42  63  90 125 163 203 251 302 359
#     4  10  20  37  64  92 123 152 198 254 302 356
#
# _framework density 18.486013
#
# number of rings (size 3 to 8) (size 9 to 14) (size 15 to 20)
#    0.000    1.440    0.000    7.440    4.480    3.200 
#    0.000    0.800    0.000    0.000    0.000    0.000 
#    0.000    0.000    0.000    0.000    0.000    0.000 
#
# Total GULP energy -139254.532040 kJ/mol
# GULP energy per Si atom -5570.181282 kJ/mol
# Density = 1.844394 g / cm^3
# Si number density = 18.486013 Si / 1000 Ang^3
#
#
#
# Elastic Constant Matrix: (Units=GPa)
#
#
# Indices 1 2 3 4 5 6 
#
# 1 151.0491 46.0951 63.7967 0.0000 0.0000 0.0000
# 2 46.0951 85.8420 77.7121 0.0000 0.0000 0.0000
# 3 63.7967 77.7121 118.8112 0.0000 0.0000 0.0000
# 4 0.0000 0.0000 0.0000 -6.1167 0.0000 0.0000
# 5 0.0000 0.0000 0.0000 0.0000 29.6624 0.0000
# 6 0.0000 0.0000 0.0000 0.0000 0.0000 31.1395
#
#
#
# Elastic Compliance Matrix: (Units=1/GPa)
#
#
# Indices 1 2 3 4 5 6 
#
# 1 0.008602 -0.001073 -0.003917 0.000000 0.000000 0.000000
# 2 -0.001073 0.028695 -0.018193 0.000000 0.000000 0.000000
# 3 -0.003917 -0.018193 0.022420 0.000000 0.000000 0.000000
# 4 0.000000 0.000000 0.000000 -0.163486 0.000000 0.000000
# 5 0.000000 0.000000 0.000000 0.000000 0.033713 0.000000
# 6 0.000000 0.000000 0.000000 0.000000 0.000000 0.032114
#
#
# Mechanical properties :
#
#
# Convention : Reuss Voigt Hill
#
# Bulk Modulus (GPa) = 74.90019 81.21222 78.05621
# Shear Modulus (GPa) = 388.34124 22.14360 205.24242
#
# Velocity S-wave (km/s) = 14.50962 3.46476 10.54831
# Velocity P-wave (km/s) = 17.92514 7.74811 13.80840
#
# Compressibility (1/GPa) = 0.01335110
#
# Stress axis : x y z
#
# Youngs Moduli (GPa) = 116.24830 34.84868 44.60326
#
# Poissons Ratio (x) = 0.03739 0.17472
# Poissons Ratio (y) = 0.12472 0.81147
# Poissons Ratio (z) = 0.45538 0.63400
#
# Static dielectric constant tensor:
#      x y z
#    x 1.647100 0.000000 0.000000 
#    y 0.000000 1.605790 0.000000 
#    z 0.000000 0.000000 1.628870 
# 
# From -- ./inp_files/58481.got.cif
#   From: 2010.05.17/outbox.cif.g08.bks.cpg/sg65_30_cif.got.tgz:58481.got - 2010.06.03 17:01:31.
