data_PCOD9490957
_publ_section_title
;
Structure prediction by ZEFSAII (Michael W. Deem and Ramdas Pophale) SiO2 
 PCOD9490957
Probable space group: C M M M
;
_chemical_formula_sum "Si O2"
_cell_formula_units_Z 64
_cell_length_a 23.886178
_cell_length_b 13.701636
_cell_length_c 10.444976
_cell_angle_alpha 90.000000
_cell_angle_beta 90.000000
_cell_angle_gamma 90.000000
_cell_volume 3418.428783
_symmetry_space_group_name_H-M "C M M M"
_symmetry_group_IT_number 65
_symmetry_cell_setting 'orthorhombic'
loop_
_space_group_symop_operation_xyz
x,y,z
-x,-y,z
x,-y,-z
-x,y,-z
-x,-y,-z
x,y,-z
-x,y,z
x,-y,z
1/2+x,1/2+y,z
1/2-x,1/2-y,z
1/2+x,1/2-y,-z
1/2-x,1/2+y,-z
1/2-x,1/2-y,-z
1/2+x,1/2+y,-z
1/2-x,1/2+y,z
1/2+x,1/2-y,z
loop_
_atom_site_type_symbol
_atom_site_label
_atom_site_fract_x
_atom_site_fract_y
_atom_site_fract_z
Si Si1 0.432166 0.888545 0.000000
Si Si2 0.250000 0.250000 0.295972
Si Si3 0.810812 0.387741 0.500000
Si Si4 0.936886 0.668447 0.500000
Si Si5 0.435630 0.738028 0.220787
Si Si6 0.834926 0.110280 0.847041
O O1 0.416615 0.826555 0.873603
O O2 0.500000 0.894711 0.000000
O O3 0.410755 0.000000 0.000000
O O4 0.213062 0.324426 0.381579
O O5 0.209076 0.184557 0.212170
O O6 0.790772 0.500000 0.500000
O O7 0.878565 0.389821 0.500000
O O8 0.934095 0.729796 0.631421
O O9 0.000000 0.621763 0.500000
O O10 0.500000 0.716751 0.186976
O O11 0.395717 0.647608 0.195419
O O12 0.824357 0.000000 0.803288
O O13 0.832039 0.113063 0.000000
#
# Coordination Sequence:
#
# PCOD9490957 Si02
#       6
#     8   8   8   8  16  16
#     4   9  18  34  57  84 119 164 204 243 306 376
#     4  11  23  44  60  84 127 163 198 258 308 366
#     4  11  23  39  65  92 116 161 210 248 304 372
#     4  10  21  39  61  89 127 161 195 249 311 364
#     4  10  20  38  61  90 127 161 201 256 310 368
#     4  11  23  40  65  92 119 159 209 259 312 368
#
# _framework density 18.722049999999999
#
# number of rings (size 3 to 8) (size 9 to 14) (size 15 to 20)
#    0.000    1.625    3.750    1.125    0.000    1.750 
#    0.000    5.625    0.000    2.250    0.000    0.000 
#    0.000    0.000    0.000    0.000    0.000    0.000 
#
# Total GULP energy -178524.360191 kJ/mol
# GULP energy per Si atom -5578.886256 kJ/mol
# Density = 1.867944 g / cm^3
# Si number density = 18.722050 Si / 1000 Ang^3
#
#
#
# Elastic Constant Matrix: (Units=GPa)
#
#
# Indices 1 2 3 4 5 6 
#
# 1 106.2221 61.2971 29.6185 0.0000 0.0000 0.0000
# 2 61.2971 150.6063 55.6699 0.0000 0.0000 0.0000
# 3 29.6185 55.6699 108.6350 0.0000 0.0000 0.0000
# 4 0.0000 0.0000 0.0000 -4.4944 0.0000 0.0000
# 5 0.0000 0.0000 0.0000 0.0000 40.8113 0.0000
# 6 0.0000 0.0000 0.0000 0.0000 0.0000 13.4156
#
#
#
# Elastic Compliance Matrix: (Units=1/GPa)
#
#
# Indices 1 2 3 4 5 6 
#
# 1 0.012388 -0.004680 -0.000979 0.000000 0.000000 0.000000
# 2 -0.004680 0.009959 -0.003828 0.000000 0.000000 0.000000
# 3 -0.000979 -0.003828 0.011434 0.000000 0.000000 0.000000
# 4 0.000000 0.000000 0.000000 -0.222500 0.000000 0.000000
# 5 0.000000 0.000000 0.000000 0.000000 0.024503 0.000000
# 6 0.000000 0.000000 0.000000 0.000000 0.000000 0.074540
#
#
# Mechanical properties :
#
#
# Convention : Reuss Voigt Hill
#
# Bulk Modulus (GPa) = 67.53499 73.18160 70.35829
# Shear Modulus (GPa) = -76.02660 24.53836 -25.74412
#
# Velocity S-wave (km/s) = -6.37936 3.62424 -3.71222
# Velocity P-wave (km/s) = 4.25569 7.52906 4.39181
#
# Compressibility (1/GPa) = 0.01480714
#
# Stress axis : x y z
#
# Youngs Moduli (GPa) = 80.72380 100.40700 87.46106
#
# Poissons Ratio (x) = 0.46990 0.08565
# Poissons Ratio (y) = 0.37778 0.33478
# Poissons Ratio (z) = 0.07905 0.38433
#
# Static dielectric constant tensor:
#      x y z
#    x 1.653080 0.000000 0.000000 
#    y 0.000000 1.620820 0.000000 
#    z 0.000000 0.000000 1.637600 
# 
# From -- ./inp_files/13401.got.cif
#   From: 2010.05.17/outbox.cif.g08.bks.cpg/sg65_7_cif.got.tgz:13401.got - 2010.06.03 17:01:31.
