data_PCOD9490417
_publ_section_title
;
Structure prediction by ZEFSAII (Michael W. Deem and Ramdas Pophale) SiO2 
 PCOD9490417
Probable space group: C M M M
;
_chemical_formula_sum "Si O2"
_cell_formula_units_Z 104
_cell_length_a 26.730008
_cell_length_b 18.309042
_cell_length_c 11.819638
_cell_angle_alpha 90.000000
_cell_angle_beta 90.000000
_cell_angle_gamma 90.000000
_cell_volume 5784.540755
_symmetry_space_group_name_H-M "C M M M"
_symmetry_group_IT_number 65
_symmetry_cell_setting 'orthorhombic'
loop_
_space_group_symop_operation_xyz
x,y,z
-x,-y,z
x,-y,-z
-x,y,-z
-x,-y,-z
x,y,-z
-x,y,z
x,-y,z
1/2+x,1/2+y,z
1/2-x,1/2-y,z
1/2+x,1/2-y,-z
1/2-x,1/2+y,-z
1/2-x,1/2-y,-z
1/2+x,1/2+y,-z
1/2-x,1/2+y,z
1/2+x,1/2-y,z
loop_
_atom_site_type_symbol
_atom_site_label
_atom_site_fract_x
_atom_site_fract_y
_atom_site_fract_z
Si Si1 0.560169 0.416871 0.869149
Si Si2 0.849335 0.414790 0.000000
Si Si3 0.210683 0.816239 0.871726
Si Si4 0.057829 0.500000 0.637872
Si Si5 0.787440 0.586814 0.770119
Si Si6 0.878613 0.642401 0.365215
Si Si7 0.943687 0.689550 0.000000
Si Si8 0.399178 0.274507 0.206709
O O1 0.500000 0.414822 0.868107
O O2 0.575965 0.500000 0.844779
O O3 0.580824 0.356823 0.783275
O O4 0.575855 0.400262 0.000000
O O5 0.816756 0.399219 0.111401
O O6 0.900113 0.370046 0.000000
O O7 0.861061 0.500000 0.000000
O O8 0.250000 0.750000 0.870598
O O9 0.233540 0.876603 0.787974
O O10 0.157295 0.784441 0.837729
O O11 0.207513 0.845466 0.000000
O O12 0.058026 0.500000 0.500000
O O13 0.087356 0.573120 0.673882
O O14 0.000000 0.500000 0.674892
O O15 0.784619 0.500000 0.751901
O O16 0.822517 0.623959 0.676352
O O17 0.880978 0.646313 0.500000
O O18 0.897212 0.717484 0.309206
O O19 0.933582 0.738400 0.889782
O O20 0.000000 0.660907 0.000000
#
# Coordination Sequence:
#
# PCOD9490417 Si02
#       8
#    16   8  16   8  16  16   8  16
#     4   9  18  34  57  85 117 150 183 231 301 372
#     4  10  20  36  53  78 118 155 188 236 299 359
#     4  11  20  33  55  82 113 146 185 231 293 364
#     4   9  20  40  62  83 111 157 215 260 291 332
#     4  11  21  37  59  85 115 152 197 244 299 356
#     4  11  23  39  60  84 119 166 210 253 292 345
#     4  12  22  34  56  87 117 154 200 241 301 368
#     4  12  22  37  57  87 120 153 198 246 300 358
#
# _framework density 17.978956
#
# number of rings (size 3 to 8) (size 9 to 14) (size 15 to 20)
#    0.000    1.308    6.154    0.923    0.000    2.000 
#    0.000    1.538    0.000    0.462    0.000    1.077 
#    0.000    0.000    0.000    0.000    0.000    0.000 
#
# Total GULP energy -290295.097507 kJ/mol
# GULP energy per Si atom -5582.598029 kJ/mol
# Density = 1.793803 g / cm^3
# Si number density = 17.978956 Si / 1000 Ang^3
#
#
#
# Elastic Constant Matrix: (Units=GPa)
#
#
# Indices 1 2 3 4 5 6 
#
# 1 49.1327 18.2094 3.6034 0.0000 0.0000 0.0000
# 2 18.2094 121.0857 36.7318 0.0000 0.0000 0.0000
# 3 3.6034 36.7318 61.8841 0.0000 0.0000 0.0000
# 4 0.0000 0.0000 0.0000 26.9268 0.0000 0.0000
# 5 0.0000 0.0000 0.0000 0.0000 10.9958 0.0000
# 6 0.0000 0.0000 0.0000 0.0000 0.0000 35.2948
#
#
#
# Elastic Compliance Matrix: (Units=1/GPa)
#
#
# Indices 1 2 3 4 5 6 
#
# 1 0.021588 -0.003494 0.000817 0.000000 0.000000 0.000000
# 2 -0.003494 0.010638 -0.006111 0.000000 0.000000 0.000000
# 3 0.000817 -0.006111 0.019739 0.000000 0.000000 0.000000
# 4 0.000000 0.000000 0.000000 0.037138 0.000000 0.000000
# 5 0.000000 0.000000 0.000000 0.000000 0.090943 0.000000
# 6 0.000000 0.000000 0.000000 0.000000 0.000000 0.028333
#
#
# Mechanical properties :
#
#
# Convention : Reuss Voigt Hill
#
# Bulk Modulus (GPa) = 29.07928 38.79907 33.93917
# Shear Modulus (GPa) = 21.05994 26.21401 23.63697
#
# Velocity S-wave (km/s) = 3.42624 3.82257 3.62982
# Velocity P-wave (km/s) = 5.64458 6.41170 6.04033
#
# Compressibility (1/GPa) = 0.03438874
#
# Stress axis : x y z
#
# Youngs Moduli (GPa) = 46.32160 94.00424 50.66188
#
# Poissons Ratio (x) = 0.32849 -0.04140
# Poissons Ratio (y) = 0.16187 0.30958
# Poissons Ratio (z) = -0.03785 0.57443
#
# Static dielectric constant tensor:
#      x y z
#    x 1.617730 0.000000 0.000000 
#    y 0.000000 1.654000 0.000000 
#    z 0.000000 0.000000 1.602610 
# 
# From -- ./inp_files/32565.got.cif
#   From: 2010.05.17/outbox.cif.g08.bks.cpg/sg65_17_cif.got.tgz:32565.got - 2010.06.03 17:01:31.
