data_PCOD9490940
_publ_section_title
;
Structure prediction by ZEFSAII (Michael W. Deem and Ramdas Pophale) SiO2 
 PCOD9490940
Probable space group: C M M M
;
_chemical_formula_sum "Si O2"
_cell_formula_units_Z 64
_cell_length_a 11.418839
_cell_length_b 32.320735
_cell_length_c 9.949406
_cell_angle_alpha 90.000000
_cell_angle_beta 90.000000
_cell_angle_gamma 90.000000
_cell_volume 3671.980205
_symmetry_space_group_name_H-M "C M M M"
_symmetry_group_IT_number 65
_symmetry_cell_setting 'orthorhombic'
loop_
_space_group_symop_operation_xyz
x,y,z
-x,-y,z
x,-y,-z
-x,y,-z
-x,-y,-z
x,y,-z
-x,y,z
x,-y,z
1/2+x,1/2+y,z
1/2-x,1/2-y,z
1/2+x,1/2-y,-z
1/2-x,1/2+y,-z
1/2-x,1/2-y,-z
1/2+x,1/2+y,-z
1/2-x,1/2+y,z
1/2+x,1/2-y,z
loop_
_atom_site_type_symbol
_atom_site_label
_atom_site_fract_x
_atom_site_fract_y
_atom_site_fract_z
Si Si1 0.632472 0.340177 0.742965
Si Si2 0.860044 0.000000 0.158163
Si Si3 0.255986 0.574100 0.662180
Si Si4 0.000000 0.453420 0.661476
Si Si5 0.355183 0.284507 0.000000
Si Si6 0.869754 0.775973 0.500000
O O1 0.500000 0.355672 0.762120
O O2 0.705485 0.379969 0.701130
O O3 0.633252 0.306267 0.626405
O O4 0.665276 0.314180 0.873305
O O5 0.818833 0.039783 0.245125
O O6 0.000000 0.000000 0.154077
O O7 0.819453 0.000000 0.000000
O O8 0.274587 0.567127 0.500000
O O9 0.119166 0.569181 0.694818
O O10 0.000000 0.500000 0.717628
O O11 0.000000 0.457017 0.500000
O O12 0.250000 0.250000 0.000000
O O13 0.500000 0.272640 0.000000
O O14 0.750000 0.750000 0.500000
O O15 0.000000 0.754606 0.500000
#
# Coordination Sequence:
#
# PCOD9490940 Si02
#       6
#    16   8  16   8   8   8
#     4  10  21  37  60  86 116 151 195 242 290 349
#     4  11  25  38  57  88 120 155 198 245 288 349
#     4  11  21  39  62  86 118 157 200 241 299 355
#     4   9  18  36  58  82 118 158 194 242 296 352
#     4  10  22  42  64  85 118 161 195 240 303 362
#     4  10  20  38  58  87 118 145 187 242 293 352
#
# _framework density 17.429289000000001
#
# number of rings (size 3 to 8) (size 9 to 14) (size 15 to 20)
#    0.000    1.750    2.500    1.875    1.750    2.000 
#    4.500    1.250    0.000    0.000    0.000    0.000 
#    0.000    0.000    0.000    0.000    0.000    0.000 
#
# Total GULP energy -178180.456315 kJ/mol
# GULP energy per Si atom -5568.139260 kJ/mol
# Density = 1.738962 g / cm^3
# Si number density = 17.429289 Si / 1000 Ang^3
#
#
#
# Elastic Constant Matrix: (Units=GPa)
#
#
# Indices 1 2 3 4 5 6 
#
# 1 144.4895 83.0816 44.5156 0.0000 0.0000 0.0000
# 2 83.0816 102.1689 48.3659 0.0000 0.0000 0.0000
# 3 44.5156 48.3659 143.1276 0.0000 0.0000 0.0000
# 4 0.0000 0.0000 0.0000 15.8723 0.0000 0.0000
# 5 0.0000 0.0000 0.0000 0.0000 21.3346 0.0000
# 6 0.0000 0.0000 0.0000 0.0000 0.0000 41.9637
#
#
#
# Elastic Compliance Matrix: (Units=1/GPa)
#
#
# Indices 1 2 3 4 5 6 
#
# 1 0.013037 -0.010335 -0.000562 0.000000 0.000000 0.000000
# 2 -0.010335 0.019845 -0.003492 0.000000 0.000000 0.000000
# 3 -0.000562 -0.003492 0.008342 0.000000 0.000000 0.000000
# 4 0.000000 0.000000 0.000000 0.063003 0.000000 0.000000
# 5 0.000000 0.000000 0.000000 0.000000 0.046872 0.000000
# 6 0.000000 0.000000 0.000000 0.000000 0.000000 0.023830
#
#
# Mechanical properties :
#
#
# Convention : Reuss Voigt Hill
#
# Bulk Modulus (GPa) = 80.35136 82.41246 81.38191
# Shear Modulus (GPa) = 24.05525 30.08897 27.07211
#
# Velocity S-wave (km/s) = 3.71908 4.15944 3.94541
# Velocity P-wave (km/s) = 8.04012 8.39371 8.21882
#
# Compressibility (1/GPa) = 0.01244534
#
# Stress axis : x y z
#
# Youngs Moduli (GPa) = 76.70558 50.39074 119.88205
#
# Poissons Ratio (x) = 0.52079 0.06741
# Poissons Ratio (y) = 0.79276 0.41858
# Poissons Ratio (z) = 0.04313 0.17594
#
# Static dielectric constant tensor:
#      x y z
#    x 1.628190 0.000000 0.000000 
#    y 0.000000 1.572630 0.000000 
#    z 0.000000 0.000000 1.564920 
# 
# From -- ./inp_files/5019.got.cif
#   From: 2010.05.17/outbox.cif.g08.bks.cpg/sg65_3_cif.got.tgz:5019.got - 2010.06.03 17:01:31.
