data_PCOD9490624
_publ_section_title
;
Structure prediction by ZEFSAII (Michael W. Deem and Ramdas Pophale) SiO2 
 PCOD9490624
Probable space group: C M M M
;
_chemical_formula_sum "Si O2"
_cell_formula_units_Z 80
_cell_length_a 15.858926
_cell_length_b 8.878426
_cell_length_c 30.087386
_cell_angle_alpha 90.000000
_cell_angle_beta 90.000000
_cell_angle_gamma 90.000000
_cell_volume 4236.373178
_symmetry_space_group_name_H-M "C M M M"
_symmetry_group_IT_number 65
_symmetry_cell_setting 'orthorhombic'
loop_
_space_group_symop_operation_xyz
x,y,z
-x,-y,z
x,-y,-z
-x,y,-z
-x,-y,-z
x,y,-z
-x,y,z
x,-y,z
1/2+x,1/2+y,z
1/2-x,1/2-y,z
1/2+x,1/2-y,-z
1/2-x,1/2+y,-z
1/2-x,1/2-y,-z
1/2+x,1/2+y,-z
1/2-x,1/2+y,z
1/2+x,1/2-y,z
loop_
_atom_site_type_symbol
_atom_site_label
_atom_site_fract_x
_atom_site_fract_y
_atom_site_fract_z
Si Si1 0.901262 0.834348 0.500000
Si Si2 0.500000 0.817797 0.749566
Si Si3 0.342236 0.179587 0.589479
Si Si4 0.343939 0.818476 0.311585
Si Si5 0.898789 0.320986 0.000000
Si Si6 0.838917 0.180956 0.907513
Si Si7 0.500000 0.318926 0.847213
O O1 0.881228 0.747395 0.545166
O O2 0.000000 0.853593 0.500000
O O3 0.858749 0.000000 0.500000
O O4 0.585075 0.769778 0.723523
O O5 0.500000 0.756491 0.799279
O O6 0.500000 0.000000 0.749809
O O7 0.250000 0.250000 0.591060
O O8 0.377797 0.216905 0.638476
O O9 0.340242 0.000000 0.585562
O O10 0.250000 0.750000 0.305429
O O11 0.335206 0.000000 0.309168
O O12 0.860412 0.246276 0.043928
O O13 0.882128 0.500000 0.000000
O O14 0.000000 0.298132 0.000000
O O15 0.750000 0.250000 0.892502
O O16 0.916471 0.222071 0.875199
O O17 0.833265 0.000000 0.909698
O O18 0.500000 0.500000 0.842323
#
# Coordination Sequence:
#
# PCOD9490624 Si02
#       7
#     8   8  16  16   8  16   8
#     4  11  24  37  50  77 115 147 184 229 276 333
#     4  10  22  40  63  88 117 152 192 244 299 352
#     4  10  20  36  59  81 109 146 186 228 278 340
#     4   9  20  38  61  88 116 148 190 239 290 349
#     4  11  22  37  62  94 126 162 206 249 295 351
#     4  11  23  41  63  89 124 164 206 249 297 350
#     4  10  24  43  61  86 120 159 200 246 300 356
#
# _framework density 18.884077000000001
#
# number of rings (size 3 to 8) (size 9 to 14) (size 15 to 20)
#    0.000    1.800    1.000    2.400    1.400    5.200 
#    0.000    4.000    0.000    0.000    0.000    0.000 
#    0.000    0.000    0.000    0.000    0.000    0.000 
#
# Total GULP energy -223270.038125 kJ/mol
# GULP energy per Si atom -5581.750953 kJ/mol
# Density = 1.884110 g / cm^3
# Si number density = 18.884077 Si / 1000 Ang^3
#
#
#
# Elastic Constant Matrix: (Units=GPa)
#
#
# Indices 1 2 3 4 5 6 
#
# 1 132.7642 48.7335 92.7626 0.0000 0.0000 0.0000
# 2 48.7335 63.0112 59.4989 0.0000 0.0000 0.0000
# 3 92.7626 59.4989 180.4309 0.0000 0.0000 0.0000
# 4 0.0000 0.0000 0.0000 33.4930 0.0000 0.0000
# 5 0.0000 0.0000 0.0000 0.0000 12.2215 0.0000
# 6 0.0000 0.0000 0.0000 0.0000 0.0000 25.5211
#
#
#
# Elastic Compliance Matrix: (Units=1/GPa)
#
#
# Indices 1 2 3 4 5 6 
#
# 1 0.012905 -0.005396 -0.004855 0.000000 0.000000 0.000000
# 2 -0.005396 0.025303 -0.005569 0.000000 0.000000 0.000000
# 3 -0.004855 -0.005569 0.009875 0.000000 0.000000 0.000000
# 4 0.000000 0.000000 0.000000 0.029857 0.000000 0.000000
# 5 0.000000 0.000000 0.000000 0.000000 0.081823 0.000000
# 6 0.000000 0.000000 0.000000 0.000000 0.000000 0.039183
#
#
# Mechanical properties :
#
#
# Convention : Reuss Voigt Hill
#
# Bulk Modulus (GPa) = 60.82413 86.46626 73.64520
# Shear Modulus (GPa) = 21.18019 25.92788 23.55404
#
# Velocity S-wave (km/s) = 3.35265 3.70942 3.53554
# Velocity P-wave (km/s) = 6.87504 8.01460 7.46659
#
# Compressibility (1/GPa) = 0.01644084
#
# Stress axis : x y z
#
# Youngs Moduli (GPa) = 77.48636 39.52114 101.26465
#
# Poissons Ratio (x) = 0.21328 0.49168
# Poissons Ratio (y) = 0.41815 0.56399
# Poissons Ratio (z) = 0.37623 0.22011
#
# Static dielectric constant tensor:
#      x y z
#    x 1.642810 0.000000 0.000000 
#    y 0.000000 1.681270 0.000000 
#    z 0.000000 0.000000 1.689070 
# 
# From -- ./inp_files/75140.got.cif
#   From: 2010.05.17/outbox.cif.g08.bks.cpg/sg65_38_cif.got.tgz:75140.got - 2010.06.03 17:01:31.
