data_PCOD9490502
_publ_section_title
;
Structure prediction by ZEFSAII (Michael W. Deem and Ramdas Pophale) SiO2 
 PCOD9490502
Probable space group: C M M M
;
_chemical_formula_sum "Si O2"
_cell_formula_units_Z 96
_cell_length_a 8.082157
_cell_length_b 26.487082
_cell_length_c 24.401465
_cell_angle_alpha 90.000000
_cell_angle_beta 90.000000
_cell_angle_gamma 90.000000
_cell_volume 5223.688843
_symmetry_space_group_name_H-M "C M M M"
_symmetry_group_IT_number 65
_symmetry_cell_setting 'orthorhombic'
loop_
_space_group_symop_operation_xyz
x,y,z
-x,-y,z
x,-y,-z
-x,y,-z
-x,-y,-z
x,y,-z
-x,y,z
x,-y,z
1/2+x,1/2+y,z
1/2-x,1/2-y,z
1/2+x,1/2-y,-z
1/2-x,1/2+y,-z
1/2-x,1/2-y,-z
1/2+x,1/2+y,-z
1/2-x,1/2+y,z
1/2+x,1/2-y,z
loop_
_atom_site_type_symbol
_atom_site_label
_atom_site_fract_x
_atom_site_fract_y
_atom_site_fract_z
Si Si1 0.701652 0.058892 0.939021
Si Si2 0.196814 0.903949 0.561912
Si Si3 0.803633 0.500000 0.367466
Si Si4 0.702387 0.000000 0.757200
Si Si5 0.802267 0.693707 0.371856
Si Si6 0.800424 0.306242 0.753711
Si Si7 0.202530 0.400638 0.175449
O O1 0.500000 0.060014 0.939205
O O2 0.757582 0.091386 0.887175
O O3 0.747209 0.000000 0.930661
O O4 0.756918 0.074334 0.000000
O O5 0.264892 0.907720 0.500000
O O6 0.255168 0.950080 0.599437
O O7 0.240892 0.850691 0.589333
O O8 0.000000 0.907519 0.558790
O O9 0.736997 0.500000 0.305333
O O10 0.000000 0.500000 0.362495
O O11 0.752525 0.949688 0.789495
O O12 0.500000 0.000000 0.756832
O O13 0.750000 0.750000 0.389085
O O14 0.741454 0.685876 0.309076
O O15 0.000000 0.691674 0.370896
O O16 0.750000 0.250000 0.770627
O O17 0.741012 0.350029 0.794178
O O18 0.000000 0.308576 0.752417
O O19 0.000000 0.399956 0.175085
#
# Coordination Sequence:
#
# PCOD9490502 Si02
#       7
#    16  16   8   8  16  16  16
#     4   8  12  18  31  56  91 127 158 190 235 286
#     4  11  24  40  56  75 101 134 169 204 246 298
#     4  11  22  36  55  77 102 133 170 209 250 300
#     4   9  16  26  43  69  95 118 148 193 248 296
#     4  10  20  36  57  80 103 128 163 207 254 304
#     4   9  18  31  48  70  95 126 162 196 238 288
#     4   9  14  23  40  63  93 125 156 194 239 288
#
# _framework density 18.377818000000001
#
# number of rings (size 3 to 8) (size 9 to 14) (size 15 to 20)
#    0.000    2.500    0.833    3.000    0.000    6.000 
#    0.000    0.000    0.000    0.500    0.000    0.000 
#    0.000    0.000    0.000    1.833    0.000    1.667 
#
# Total GULP energy -267805.585014 kJ/mol
# GULP energy per Si atom -5579.283021 kJ/mol
# Density = 1.833599 g / cm^3
# Si number density = 18.377818 Si / 1000 Ang^3
#
#
#
# Elastic Constant Matrix: (Units=GPa)
#
#
# Indices 1 2 3 4 5 6 
#
# 1 16.3221 3.2226 8.2536 0.0000 0.0000 0.0000
# 2 3.2226 113.5782 88.0026 0.0000 0.0000 0.0000
# 3 8.2536 88.0026 156.5521 0.0000 0.0000 0.0000
# 4 0.0000 0.0000 0.0000 -19.1978 0.0000 0.0000
# 5 0.0000 0.0000 0.0000 0.0000 -0.1547 0.0000
# 6 0.0000 0.0000 0.0000 0.0000 0.0000 25.8333
#
#
#
# Elastic Compliance Matrix: (Units=1/GPa)
#
#
# Indices 1 2 3 4 5 6 
#
# 1 0.063069 0.001394 -0.004109 0.000000 0.000000 0.000000
# 2 0.001394 0.015629 -0.008859 0.000000 0.000000 0.000000
# 3 -0.004109 -0.008859 0.011584 0.000000 0.000000 0.000000
# 4 0.000000 0.000000 0.000000 -0.052089 0.000000 0.000000
# 5 0.000000 0.000000 0.000000 0.000000 -6.465471 0.000000
# 6 0.000000 0.000000 0.000000 0.000000 0.000000 0.038710
#
#
# Mechanical properties :
#
#
# Convention : Reuss Voigt Hill
#
# Bulk Modulus (GPa) = 14.89543 53.93445 34.41494
# Shear Modulus (GPa) = -0.78827 13.76109 6.48641
#
# Velocity S-wave (km/s) = -0.65563 2.73937 1.88073
# Velocity P-wave (km/s) = 2.74765 6.27828 4.84595
#
# Compressibility (1/GPa) = 0.06713468
#
# Stress axis : x y z
#
# Youngs Moduli (GPa) = 15.85569 63.98300 86.32432
#
# Poissons Ratio (x) = -0.08919 0.35468
# Poissons Ratio (y) = -0.02210 0.76476
# Poissons Ratio (z) = 0.06515 0.56683
#
# Static dielectric constant tensor:
#      x y z
#    x 1.653630 0.000000 0.000000 
#    y 0.000000 1.586680 0.000000 
#    z 0.000000 0.000000 1.654100 
# 
# From -- ./inp_files/67868.got.cif
#   From: 2010.05.17/outbox.cif.g08.bks.cpg/sg65_34_cif.got.tgz:67868.got - 2010.06.03 17:01:31.
