data_PCOD9490123
_publ_section_title
;
Structure prediction by ZEFSAII (Michael W. Deem and Ramdas Pophale) SiO2 
 PCOD9490123
Probable space group: C M M M
;
_chemical_formula_sum "Si O2"
_cell_formula_units_Z 72
_cell_length_a 8.905944
_cell_length_b 15.976571
_cell_length_c 25.923413
_cell_angle_alpha 90.000000
_cell_angle_beta 90.000000
_cell_angle_gamma 90.000000
_cell_volume 3688.550320
_symmetry_space_group_name_H-M "C M M M"
_symmetry_group_IT_number 65
_symmetry_cell_setting 'orthorhombic'
loop_
_space_group_symop_operation_xyz
x,y,z
-x,-y,z
x,-y,-z
-x,y,-z
-x,-y,-z
x,y,-z
-x,y,z
x,-y,z
1/2+x,1/2+y,z
1/2-x,1/2-y,z
1/2+x,1/2-y,-z
1/2-x,1/2+y,-z
1/2-x,1/2-y,-z
1/2+x,1/2+y,-z
1/2-x,1/2+y,z
1/2+x,1/2-y,z
loop_
_atom_site_type_symbol
_atom_site_label
_atom_site_fract_x
_atom_site_fract_y
_atom_site_fract_z
Si Si1 0.681785 0.842464 0.944351
Si Si2 0.820634 0.338050 0.375454
Si Si3 0.171019 0.400017 0.167275
Si Si4 0.817023 0.500000 0.440695
Si Si5 0.325694 0.601540 0.271591
O O1 0.500000 0.840099 0.943311
O O2 0.750000 0.750000 0.944704
O O3 0.729938 0.882014 0.890188
O O4 0.723641 0.882298 0.000000
O O5 0.750000 0.250000 0.391692
O O6 0.769459 0.416373 0.410524
O O7 0.770425 0.358541 0.317170
O O8 0.000000 0.332750 0.378043
O O9 0.163347 0.500000 0.171850
O O10 0.269630 0.370188 0.215221
O O11 0.000000 0.367199 0.171820
O O12 0.767816 0.500000 0.500000
O O13 0.000000 0.500000 0.440253
O O14 0.500000 0.622471 0.278795
O O15 0.310751 0.500000 0.274574
#
# Coordination Sequence:
#
# PCOD9490123 Si02
#       5
#    16  16  16   8  16
#     4   9  18  32  49  69  95 130 171 218 272 330
#     4  11  22  38  62  91 122 159 201 243 290 346
#     4   9  18  32  51  75 103 137 178 223 275 335
#     4   9  20  40  65  91 123 163 200 239 290 343
#     4  10  20  35  56  81 113 149 188 236 289 344
#
# _framework density 19.519863999999998
#
# number of rings (size 3 to 8) (size 9 to 14) (size 15 to 20)
#    0.000    2.333    1.111    1.333    0.000    3.556 
#    0.000    4.444    0.000    4.667    0.000    6.222 
#    0.000    0.000    0.000    0.000    0.000    0.000 
#
# Total GULP energy -200784.378233 kJ/mol
# GULP energy per Si atom -5577.343840 kJ/mol
# Density = 1.947544 g / cm^3
# Si number density = 19.519864 Si / 1000 Ang^3
#
#
#
# Elastic Constant Matrix: (Units=GPa)
#
#
# Indices 1 2 3 4 5 6 
#
# 1 41.3828 34.7574 33.3237 0.0000 0.0000 0.0000
# 2 34.7574 75.6840 58.7980 0.0000 0.0000 0.0000
# 3 33.3237 58.7980 160.2967 0.0000 0.0000 0.0000
# 4 0.0000 0.0000 0.0000 -256.9741 0.0000 0.0000
# 5 0.0000 0.0000 0.0000 0.0000 10.7476 0.0000
# 6 0.0000 0.0000 0.0000 0.0000 0.0000 24.9834
#
#
#
# Elastic Compliance Matrix: (Units=1/GPa)
#
#
# Indices 1 2 3 4 5 6 
#
# 1 0.039885 -0.016608 -0.002200 0.000000 0.000000 0.000000
# 2 -0.016608 0.025394 -0.005862 0.000000 0.000000 0.000000
# 3 -0.002200 -0.005862 0.008846 0.000000 0.000000 0.000000
# 4 0.000000 0.000000 0.000000 -0.003891 0.000000 0.000000
# 5 0.000000 0.000000 0.000000 0.000000 0.093044 0.000000
# 6 0.000000 0.000000 0.000000 0.000000 0.000000 0.040027
#
#
# Mechanical properties :
#
#
# Convention : Reuss Voigt Hill
#
# Bulk Modulus (GPa) = 40.34618 59.01353 49.67985
# Shear Modulus (GPa) = 19.16396 -34.21633 -7.52618
#
# Velocity S-wave (km/s) = 3.13672 -4.19130 -1.96571
# Velocity P-wave (km/s) = 5.81660 2.62211 4.51156
#
# Compressibility (1/GPa) = 0.02478549
#
# Stress axis : x y z
#
# Youngs Moduli (GPa) = 25.07201 39.37894 113.04542
#
# Poissons Ratio (x) = 0.65401 0.24866
# Poissons Ratio (y) = 0.41640 0.66269
# Poissons Ratio (z) = 0.05515 0.23085
#
# Static dielectric constant tensor:
#      x y z
#    x 1.671450 0.000000 0.000000 
#    y 0.000000 1.689010 0.000000 
#    z 0.000000 0.000000 1.697110 
# 
# From -- ./inp_files/72525.got.cif
#   From: 2010.05.17/outbox.cif.g08.bks.cpg/sg65_37_cif.got.tgz:72525.got - 2010.06.03 17:01:31.
