data_PCOD9490195
_publ_section_title
;
Structure prediction by ZEFSAII (Michael W. Deem and Ramdas Pophale) SiO2 
 PCOD9490195
Probable space group: C M M M
;
_chemical_formula_sum "Si O2"
_cell_formula_units_Z 72
_cell_length_a 29.707136
_cell_length_b 8.071576
_cell_length_c 14.259360
_cell_angle_alpha 90.000000
_cell_angle_beta 90.000000
_cell_angle_gamma 90.000000
_cell_volume 3419.157908
_symmetry_space_group_name_H-M "C M M M"
_symmetry_group_IT_number 65
_symmetry_cell_setting 'orthorhombic'
loop_
_space_group_symop_operation_xyz
x,y,z
-x,-y,z
x,-y,-z
-x,y,-z
-x,-y,-z
x,y,-z
-x,y,z
x,-y,z
1/2+x,1/2+y,z
1/2-x,1/2-y,z
1/2+x,1/2-y,-z
1/2-x,1/2+y,-z
1/2-x,1/2-y,-z
1/2+x,1/2+y,-z
1/2-x,1/2+y,z
1/2+x,1/2-y,z
loop_
_atom_site_type_symbol
_atom_site_label
_atom_site_fract_x
_atom_site_fract_y
_atom_site_fract_z
Si Si1 0.604814 0.308931 0.805242
Si Si2 0.893118 0.689848 0.393785
Si Si3 0.300242 0.302186 0.106864
Si Si4 0.551310 0.000000 0.888187
Si Si5 0.203305 0.816443 0.388327
O O1 0.598343 0.500000 0.836768
O O2 0.592192 0.295452 0.695243
O O3 0.657200 0.261577 0.827454
O O4 0.575979 0.167041 0.854926
O O5 0.903202 0.749412 0.500000
O O6 0.908513 0.500000 0.385393
O O7 0.838958 0.696704 0.382648
O O8 0.299478 0.500000 0.102022
O O9 0.250000 0.250000 0.135460
O O10 0.308070 0.237709 0.000000
O O11 0.500000 0.000000 0.853096
O O12 0.551104 0.000000 0.000000
O O13 0.210088 0.835552 0.500000
O O14 0.250000 0.750000 0.348897
O O15 0.192274 0.000000 0.350094
#
# Coordination Sequence:
#
# PCOD9490195 Si02
#       5
#    16  16  16   8  16
#     4  11  23  41  66  98 136 175 218 272 329 393
#     4  10  20  35  56  84 121 167 217 267 322 383
#     4   9  19  34  55  87 125 169 217 265 323 391
#     4  11  26  48  75 105 133 167 214 270 338 404
#     4   9  16  26  41  65 102 154 213 268 317 365
#
# _framework density 21.057815000000002
#
# number of rings (size 3 to 8) (size 9 to 14) (size 15 to 20)
#    0.000    2.111    1.111    2.000    1.556    6.667 
#    0.000    3.333    0.000    1.333    0.000    1.556 
#    0.000    0.000    0.000    0.000    0.000    0.000 
#
# Total GULP energy -200765.958905 kJ/mol
# GULP energy per Si atom -5576.832192 kJ/mol
# Density = 2.100989 g / cm^3
# Si number density = 21.057815 Si / 1000 Ang^3
#
#
#
# Elastic Constant Matrix: (Units=GPa)
#
#
# Indices 1 2 3 4 5 6 
#
# 1 79.3132 46.6094 26.9337 0.0000 0.0000 0.0000
# 2 46.6094 102.8565 30.4136 0.0000 0.0000 0.0000
# 3 26.9337 30.4136 120.2444 0.0000 0.0000 0.0000
# 4 0.0000 0.0000 0.0000 13.4003 0.0000 0.0000
# 5 0.0000 0.0000 0.0000 0.0000 -25.2175 0.0000
# 6 0.0000 0.0000 0.0000 0.0000 0.0000 18.1431
#
#
#
# Elastic Compliance Matrix: (Units=1/GPa)
#
#
# Indices 1 2 3 4 5 6 
#
# 1 0.017656 -0.007384 -0.002087 0.000000 0.000000 0.000000
# 2 -0.007384 0.013596 -0.001785 0.000000 0.000000 0.000000
# 3 -0.002087 -0.001785 0.009235 0.000000 0.000000 0.000000
# 4 0.000000 0.000000 0.000000 0.074625 0.000000 0.000000
# 5 0.000000 0.000000 0.000000 0.000000 -0.039655 0.000000
# 6 0.000000 0.000000 0.000000 0.000000 0.000000 0.055117
#
#
# Mechanical properties :
#
#
# Convention : Reuss Voigt Hill
#
# Bulk Modulus (GPa) = 55.63065 56.70306 56.16686
# Shear Modulus (GPa) = 31.43099 14.49568 22.96334
#
# Velocity S-wave (km/s) = 3.86762 2.62654 3.30584
# Velocity P-wave (km/s) = 6.81322 6.01532 6.42667
#
# Compressibility (1/GPa) = 0.01797570
#
# Stress axis : x y z
#
# Youngs Moduli (GPa) = 56.63737 73.55099 108.27902
#
# Poissons Ratio (x) = 0.54308 0.22601
# Poissons Ratio (y) = 0.41819 0.19327
# Poissons Ratio (z) = 0.11822 0.13129
#
# Static dielectric constant tensor:
#      x y z
#    x 1.744630 0.000000 0.000000 
#    y 0.000000 1.771400 0.000000 
#    z 0.000000 0.000000 1.837600 
# 
# From -- ./inp_files/46486.got.cif
#   From: 2010.05.17/outbox.cif.g08.bks.cpg/sg65_24_cif.got.tgz:46486.got - 2010.06.03 17:01:31.
