data_PCOD9490837
_publ_section_title
;
Structure prediction by ZEFSAII (Michael W. Deem and Ramdas Pophale) SiO2 
 PCOD9490837
Probable space group: C M M M
;
_chemical_formula_sum "Si O2"
_cell_formula_units_Z 72
_cell_length_a 9.568267
_cell_length_b 28.547213
_cell_length_c 13.598931
_cell_angle_alpha 90.000000
_cell_angle_beta 90.000000
_cell_angle_gamma 90.000000
_cell_volume 3714.512048
_symmetry_space_group_name_H-M "C M M M"
_symmetry_group_IT_number 65
_symmetry_cell_setting 'orthorhombic'
loop_
_space_group_symop_operation_xyz
x,y,z
-x,-y,z
x,-y,-z
-x,y,-z
-x,-y,-z
x,y,-z
-x,y,z
x,-y,z
1/2+x,1/2+y,z
1/2-x,1/2-y,z
1/2+x,1/2-y,-z
1/2-x,1/2+y,-z
1/2-x,1/2-y,-z
1/2+x,1/2+y,-z
1/2-x,1/2+y,z
1/2+x,1/2-y,z
loop_
_atom_site_type_symbol
_atom_site_label
_atom_site_fract_x
_atom_site_fract_y
_atom_site_fract_z
Si Si1 0.838202 0.556039 0.500000
Si Si2 0.656033 0.791886 0.116057
Si Si3 0.339745 0.296207 0.616948
Si Si4 0.335412 0.613867 0.890489
Si Si5 0.833568 0.899810 0.677598
O O1 0.836699 0.500000 0.500000
O O2 0.757281 0.574246 0.596364
O O3 0.000000 0.572101 0.500000
O O4 0.500000 0.794890 0.158932
O O5 0.750000 0.750000 0.157742
O O6 0.739235 0.840415 0.117561
O O7 0.639383 0.781166 0.000000
O O8 0.333804 0.306884 0.500000
O O9 0.500000 0.286375 0.643402
O O10 0.250000 0.250000 0.632297
O O11 0.298285 0.344318 0.669877
O O12 0.500000 0.627643 0.886038
O O13 0.309716 0.584849 0.790764
O O14 0.312581 0.592976 0.000000
O O15 0.000000 0.904296 0.655649
#
# Coordination Sequence:
#
# PCOD9490837 Si02
#       5
#     8  16  16  16  16
#     4  11  25  43  64  91 116 137 174 231 288 341
#     4   9  16  26  41  62  94 140 192 240 281 320
#     4   9  17  30  48  73 107 146 188 229 270 323
#     4   9  18  32  51  77 109 144 183 228 276 327
#     4  10  20  37  60  85 115 151 190 231 278 335
#
# _framework density 19.383434999999999
#
# number of rings (size 3 to 8) (size 9 to 14) (size 15 to 20)
#    0.000    2.556    1.111    1.000    0.000    6.222 
#    0.000    2.222    0.000    0.667    0.000    4.667 
#    0.000    0.000    0.000    0.000    0.000    0.000 
#
# Total GULP energy -200719.835768 kJ/mol
# GULP energy per Si atom -5575.550994 kJ/mol
# Density = 1.933932 g / cm^3
# Si number density = 19.383435 Si / 1000 Ang^3
#
#
#
# Elastic Constant Matrix: (Units=GPa)
#
#
# Indices 1 2 3 4 5 6 
#
# 1 79.3849 26.2323 59.2288 0.0000 0.0000 0.0000
# 2 26.2323 31.0804 30.4237 0.0000 0.0000 0.0000
# 3 59.2288 30.4237 159.8958 0.0000 0.0000 0.0000
# 4 0.0000 0.0000 0.0000 0.2889 0.0000 0.0000
# 5 0.0000 0.0000 0.0000 0.0000 12.6215 0.0000
# 6 0.0000 0.0000 0.0000 0.0000 0.0000 23.9562
#
#
#
# Elastic Compliance Matrix: (Units=1/GPa)
#
#
# Indices 1 2 3 4 5 6 
#
# 1 0.020579 -0.012175 -0.005306 0.000000 0.000000 0.000000
# 2 -0.012175 0.046741 -0.004384 0.000000 0.000000 0.000000
# 3 -0.005306 -0.004384 0.009054 0.000000 0.000000 0.000000
# 4 0.000000 0.000000 0.000000 3.461222 0.000000 0.000000
# 5 0.000000 0.000000 0.000000 0.000000 0.079230 0.000000
# 6 0.000000 0.000000 0.000000 0.000000 0.000000 0.041743
#
#
# Mechanical properties :
#
#
# Convention : Reuss Voigt Hill
#
# Bulk Modulus (GPa) = 30.63315 55.79231 43.21273
# Shear Modulus (GPa) = 1.34655 17.67175 9.50915
#
# Velocity S-wave (km/s) = 0.83439 3.02270 2.21731
# Velocity P-wave (km/s) = 4.09467 6.40533 5.37562
#
# Compressibility (1/GPa) = 0.03264437
#
# Stress axis : x y z
#
# Youngs Moduli (GPa) = 48.59323 21.39432 110.45093
#
# Poissons Ratio (x) = 0.26047 0.58610
# Poissons Ratio (y) = 0.59161 0.48420
# Poissons Ratio (z) = 0.25785 0.09379
#
# Static dielectric constant tensor:
#      x y z
#    x 1.676450 0.000000 0.000000 
#    y 0.000000 1.622570 0.000000 
#    z 0.000000 0.000000 1.762240 
# 
# From -- ./inp_files/36974.got.cif
#   From: 2010.05.17/outbox.cif.g08.bks.cpg/sg65_19_cif.got.tgz:36974.got - 2010.06.03 17:01:31.
