data_PCOD9490881
_publ_section_title
;
Structure prediction by ZEFSAII (Michael W. Deem and Ramdas Pophale) SiO2 
 PCOD9490881
Probable space group: C M M M
;
_chemical_formula_sum "Si O2"
_cell_formula_units_Z 64
_cell_length_a 31.455580
_cell_length_b 12.119941
_cell_length_c 8.887188
_cell_angle_alpha 90.000000
_cell_angle_beta 90.000000
_cell_angle_gamma 90.000000
_cell_volume 3388.149542
_symmetry_space_group_name_H-M "C M M M"
_symmetry_group_IT_number 65
_symmetry_cell_setting 'orthorhombic'
loop_
_space_group_symop_operation_xyz
x,y,z
-x,-y,z
x,-y,-z
-x,y,-z
-x,-y,-z
x,y,-z
-x,y,z
x,-y,z
1/2+x,1/2+y,z
1/2-x,1/2-y,z
1/2+x,1/2-y,-z
1/2-x,1/2+y,-z
1/2-x,1/2-y,-z
1/2+x,1/2+y,-z
1/2-x,1/2+y,z
1/2+x,1/2-y,z
loop_
_atom_site_type_symbol
_atom_site_label
_atom_site_fract_x
_atom_site_fract_y
_atom_site_fract_z
Si Si1 0.340516 0.500000 0.824353
Si Si2 0.875278 0.629272 0.320108
Si Si3 0.068916 0.000000 0.322179
Si Si4 0.547587 0.266821 0.179375
Si Si5 0.298534 0.263635 0.178983
O O1 0.381010 0.500000 0.716749
O O2 0.313544 0.610355 0.800975
O O3 0.355237 0.500000 0.000000
O O4 0.877471 0.640119 0.500000
O O5 0.876119 0.500000 0.280649
O O6 0.915291 0.692550 0.248388
O O7 0.832190 0.685651 0.261126
O O8 0.050901 0.110984 0.248576
O O9 0.061538 0.000000 0.500000
O O10 0.500000 0.223077 0.209407
O O11 0.553566 0.274165 0.000000
O O12 0.250000 0.250000 0.230109
O O13 0.300096 0.239105 0.000000
#
# Coordination Sequence:
#
# PCOD9490881 Si02
#       5
#     8  16   8  16  16
#     4  10  20  37  61  92 128 161 203 255 302 355
#     4  11  25  43  62  89 125 163 204 255 312 370
#     4  12  23  37  62  95 130 164 200 247 309 369
#     4  11  24  42  65  92 122 160 207 256 305 364
#     4  10  22  39  64  94 124 162 207 255 305 363
#
# _framework density 18.889368999999999
#
# number of rings (size 3 to 8) (size 9 to 14) (size 15 to 20)
#    0.000    1.250    2.500    3.000    1.750    6.500 
#    0.000    2.500    0.000    0.000    0.000    0.000 
#    0.000    0.000    0.000    0.000    0.000    0.000 
#
# Total GULP energy -178937.423832 kJ/mol
# GULP energy per Si atom -5591.794495 kJ/mol
# Density = 1.884638 g / cm^3
# Si number density = 18.889369 Si / 1000 Ang^3
#
#
#
# Elastic Constant Matrix: (Units=GPa)
#
#
# Indices 1 2 3 4 5 6 
#
# 1 179.3402 84.6911 69.9882 0.0000 0.0000 0.0000
# 2 84.6911 141.3651 66.6079 0.0000 0.0000 0.0000
# 3 69.9882 66.6079 72.0530 0.0000 0.0000 0.0000
# 4 0.0000 0.0000 0.0000 15.9187 0.0000 0.0000
# 5 0.0000 0.0000 0.0000 0.0000 -164.5889 0.0000
# 6 0.0000 0.0000 0.0000 0.0000 0.0000 26.8748
#
#
#
# Elastic Compliance Matrix: (Units=1/GPa)
#
#
# Indices 1 2 3 4 5 6 
#
# 1 0.009403 -0.002356 -0.006956 0.000000 0.000000 0.000000
# 2 -0.002356 0.013123 -0.009843 0.000000 0.000000 0.000000
# 3 -0.006956 -0.009843 0.029734 0.000000 0.000000 0.000000
# 4 0.000000 0.000000 0.000000 0.062819 0.000000 0.000000
# 5 0.000000 0.000000 0.000000 0.000000 -0.006076 0.000000
# 6 0.000000 0.000000 0.000000 0.000000 0.000000 0.037210
#
#
# Mechanical properties :
#
#
# Convention : Reuss Voigt Hill
#
# Bulk Modulus (GPa) = 71.67874 92.81475 82.24675
# Shear Modulus (GPa) = 26.43087 -12.92766 6.75160
#
# Velocity S-wave (km/s) = 3.74471 -2.61892 1.89263
# Velocity P-wave (km/s) = 7.53167 6.33227 6.95786
#
# Compressibility (1/GPa) = 0.01395114
#
# Stress axis : x y z
#
# Youngs Moduli (GPa) = 106.34861 76.20167 33.63145
#
# Poissons Ratio (x) = 0.17953 0.23393
# Poissons Ratio (y) = 0.25055 0.33103
# Poissons Ratio (z) = 0.73972 0.75005
#
# Static dielectric constant tensor:
#      x y z
#    x 1.644940 0.000000 0.000000 
#    y 0.000000 1.625420 0.000000 
#    z 0.000000 0.000000 1.636670 
# 
# From -- ./inp_files/4902.got.cif
#   From: 2010.05.17/outbox.cif.g08.bks.cpg/sg65_3_cif.got.tgz:4902.got - 2010.06.03 17:01:31.
