data_PCOD9490119
_publ_section_title
;
Structure prediction by ZEFSAII (Michael W. Deem and Ramdas Pophale) SiO2 
 PCOD9490119
Probable space group: C M M M
;
_chemical_formula_sum "Si O2"
_cell_formula_units_Z 72
_cell_length_a 15.505072
_cell_length_b 8.792841
_cell_length_c 27.194233
_cell_angle_alpha 90.000000
_cell_angle_beta 90.000000
_cell_angle_gamma 90.000000
_cell_volume 3707.488576
_symmetry_space_group_name_H-M "C M M M"
_symmetry_group_IT_number 65
_symmetry_cell_setting 'orthorhombic'
loop_
_space_group_symop_operation_xyz
x,y,z
-x,-y,z
x,-y,-z
-x,y,-z
-x,-y,-z
x,y,-z
-x,y,z
x,-y,z
1/2+x,1/2+y,z
1/2-x,1/2-y,z
1/2+x,1/2-y,-z
1/2-x,1/2+y,-z
1/2-x,1/2-y,-z
1/2+x,1/2+y,-z
1/2-x,1/2+y,z
1/2+x,1/2-y,z
loop_
_atom_site_type_symbol
_atom_site_label
_atom_site_fract_x
_atom_site_fract_y
_atom_site_fract_z
Si Si1 0.100707 0.176484 0.339099
Si Si2 0.339446 0.820513 0.757893
Si Si3 0.500000 0.318838 0.184290
Si Si4 0.000000 0.316142 0.075655
Si Si5 0.846164 0.816266 0.446799
Si Si6 0.151934 0.316626 0.000000
O O1 0.149024 0.277998 0.299562
O O2 0.110294 0.228144 0.395578
O O3 0.000000 0.178746 0.326453
O O4 0.130534 0.000000 0.335261
O O5 0.250000 0.750000 0.775286
O O6 0.417029 0.744973 0.787459
O O7 0.340863 0.000000 0.764231
O O8 0.500000 0.500000 0.186155
O O9 0.500000 0.259978 0.128590
O O10 0.000000 0.500000 0.079820
O O11 0.088038 0.275475 0.045763
O O12 0.884784 0.770283 0.500000
O O13 0.750000 0.750000 0.445428
O O14 0.843837 0.000000 0.446698
O O15 0.250000 0.250000 0.000000
O O16 0.160625 0.500000 0.000000
#
# Coordination Sequence:
#
# PCOD9490119 Si02
#       6
#    16  16   8   8  16   8
#     4  10  20  35  56  81 112 148 191 245 300 363
#     4  12  25  42  64  89 119 160 205 255 312 373
#     4  12  25  43  65  94 129 165 210 263 314 370
#     4   9  20  40  62  90 130 175 213 255 310 363
#     4   9  18  32  50  74 104 141 185 234 291 356
#     4   9  19  37  64  94 130 173 217 259 303 358
#
# _framework density 19.420154
#
# number of rings (size 3 to 8) (size 9 to 14) (size 15 to 20)
#    0.000    1.778    1.111    4.333    0.000    4.889 
#    0.000    5.556    0.000    0.000    0.000    4.667 
#    0.000    0.000    0.000    0.000    0.000    0.000 
#
# Total GULP energy -200936.889905 kJ/mol
# GULP energy per Si atom -5581.580275 kJ/mol
# Density = 1.937595 g / cm^3
# Si number density = 19.420154 Si / 1000 Ang^3
#
#
#
# Elastic Constant Matrix: (Units=GPa)
#
#
# Indices 1 2 3 4 5 6 
#
# 1 149.4913 56.3721 71.3880 0.0000 0.0000 0.0000
# 2 56.3721 90.5130 61.4387 0.0000 0.0000 0.0000
# 3 71.3880 61.4387 141.0684 0.0000 0.0000 0.0000
# 4 0.0000 0.0000 0.0000 32.4793 0.0000 0.0000
# 5 0.0000 0.0000 0.0000 0.0000 -275.7152 0.0000
# 6 0.0000 0.0000 0.0000 0.0000 0.0000 29.9687
#
#
#
# Elastic Compliance Matrix: (Units=1/GPa)
#
#
# Indices 1 2 3 4 5 6 
#
# 1 0.009677 -0.003837 -0.003226 0.000000 0.000000 0.000000
# 2 -0.003837 0.017207 -0.005552 0.000000 0.000000 0.000000
# 3 -0.003226 -0.005552 0.011139 0.000000 0.000000 0.000000
# 4 0.000000 0.000000 0.000000 0.030789 0.000000 0.000000
# 5 0.000000 0.000000 0.000000 0.000000 -0.003627 0.000000
# 6 0.000000 0.000000 0.000000 0.000000 0.000000 0.033368
#
#
# Mechanical properties :
#
#
# Convention : Reuss Voigt Hill
#
# Bulk Modulus (GPa) = 78.17040 84.38562 81.27801
# Shear Modulus (GPa) = 39.04820 -29.86185 4.59318
#
# Velocity S-wave (km/s) = 4.48895 -3.92557 1.53958
# Velocity P-wave (km/s) = 8.19800 4.79584 6.71593
#
# Compressibility (1/GPa) = 0.01279257
#
# Stress axis : x y z
#
# Youngs Moduli (GPa) = 103.34057 58.11723 89.77271
#
# Poissons Ratio (x) = 0.22300 0.28959
# Poissons Ratio (y) = 0.39653 0.49843
# Poissons Ratio (z) = 0.33335 0.32267
#
# Static dielectric constant tensor:
#      x y z
#    x 1.643280 0.000000 0.000000 
#    y 0.000000 1.655410 0.000000 
#    z 0.000000 0.000000 1.702250 
# 
# From -- ./inp_files/74707.got.cif
#   From: 2010.05.17/outbox.cif.g08.bks.cpg/sg65_38_cif.got.tgz:74707.got - 2010.06.03 17:01:31.
