data_PCOD9490261
_publ_section_title
;
Structure prediction by ZEFSAII (Michael W. Deem and Ramdas Pophale) SiO2 
 PCOD9490261
Probable space group: C M M M
;
_chemical_formula_sum "Si O2"
_cell_formula_units_Z 116
_cell_length_a 29.656276
_cell_length_b 26.559282
_cell_length_c 7.570307
_cell_angle_alpha 90.000000
_cell_angle_beta 90.000000
_cell_angle_gamma 90.000000
_cell_volume 5962.747746
_symmetry_space_group_name_H-M "C M M M"
_symmetry_group_IT_number 65
_symmetry_cell_setting 'orthorhombic'
loop_
_space_group_symop_operation_xyz
x,y,z
-x,-y,z
x,-y,-z
-x,y,-z
-x,-y,-z
x,y,-z
-x,y,z
x,-y,z
1/2+x,1/2+y,z
1/2-x,1/2-y,z
1/2+x,1/2-y,-z
1/2-x,1/2+y,-z
1/2-x,1/2-y,-z
1/2+x,1/2+y,-z
1/2-x,1/2+y,z
1/2+x,1/2-y,z
loop_
_atom_site_type_symbol
_atom_site_label
_atom_site_fract_x
_atom_site_fract_y
_atom_site_fract_z
Si Si1 0.627520 0.320308 0.799738
Si Si2 0.306765 0.591561 0.216498
Si Si3 0.199663 0.258941 0.704601
Si Si4 0.705575 0.872014 0.787686
Si Si5 0.551292 0.749428 0.212373
Si Si6 0.948754 0.362871 0.709745
Si Si7 0.627363 0.943527 0.790385
Si Si8 0.189333 0.000000 0.500000
O O1 0.654076 0.368759 0.731221
O O2 0.663734 0.275164 0.801808
O O3 0.583804 0.294093 0.715281
O O4 0.615046 0.333984 0.000000
O O5 0.257670 0.616446 0.251051
O O6 0.310278 0.543720 0.342453
O O7 0.308937 0.582445 0.000000
O O8 0.198916 0.242788 0.500000
O O9 0.250000 0.250000 0.775350
O O10 0.190726 0.318096 0.715689
O O11 0.672105 0.915583 0.721021
O O12 0.701532 0.869158 0.000000
O O13 0.500000 0.746156 0.278954
O O14 0.567777 0.806388 0.247243
O O15 0.550303 0.744511 0.000000
O O16 0.951444 0.366119 0.500000
O O17 0.914939 0.406465 0.767329
O O18 0.000000 0.368038 0.781881
O O19 0.620774 0.000000 0.718756
O O20 0.634053 0.948323 0.000000
#
# Coordination Sequence:
#
# PCOD9490261 Si02
#       8
#    16  16  16  16  16  16  16   4
#     4  10  20  35  57  84 116 152 189 232 287 349
#     4  10  23  41  61  86 115 154 200 244 289 345
#     4  11  22  32  50  78 115 150 187 232 281 344
#     4  10  21  37  55  76 110 148 189 238 290 343
#     4   9  18  34  58  87 116 147 184 226 279 346
#     4  10  21  37  54  77 109 143 181 230 291 347
#     4  10  22  38  55  75  99 139 192 243 291 332
#     4  12  26  40  64  84 117 154 199 242 292 342
#
# _framework density 19.454117
#
# number of rings (size 3 to 8) (size 9 to 14) (size 15 to 20)
#    0.000    1.931    1.379    1.862    2.897    6.345 
#    0.000    1.379    0.000    0.000    0.000    0.966 
#    0.000    3.310    0.000    0.000    0.000    0.000 
#
# Total GULP energy -323149.928458 kJ/mol
# GULP energy per Si atom -5571.550491 kJ/mol
# Density = 1.940984 g / cm^3
# Si number density = 19.454117 Si / 1000 Ang^3
#
#
#
# Elastic Constant Matrix: (Units=GPa)
#
#
# Indices 1 2 3 4 5 6 
#
# 1 58.2666 24.3523 -0.3352 0.0000 0.0000 0.0000
# 2 24.3523 109.8403 15.7319 0.0000 0.0000 0.0000
# 3 -0.3352 15.7319 61.1491 0.0000 0.0000 0.0000
# 4 0.0000 0.0000 0.0000 38.6796 0.0000 0.0000
# 5 0.0000 0.0000 0.0000 0.0000 -2.4090 0.0000
# 6 0.0000 0.0000 0.0000 0.0000 0.0000 9.8411
#
#
#
# Elastic Compliance Matrix: (Units=1/GPa)
#
#
# Indices 1 2 3 4 5 6 
#
# 1 0.019004 -0.004390 0.001234 0.000000 0.000000 0.000000
# 2 -0.004390 0.010467 -0.002717 0.000000 0.000000 0.000000
# 3 0.001234 -0.002717 0.017059 0.000000 0.000000 0.000000
# 4 0.000000 0.000000 0.000000 0.025853 0.000000 0.000000
# 5 0.000000 0.000000 0.000000 0.000000 -0.415106 0.000000
# 6 0.000000 0.000000 0.000000 0.000000 0.000000 0.101615
#
#
# Mechanical properties :
#
#
# Convention : Reuss Voigt Hill
#
# Bulk Modulus (GPa) = 28.74920 34.30600 31.52760
# Shear Modulus (GPa) = -22.96041 21.85614 -0.55214
#
# Velocity S-wave (km/s) = -3.43918 3.35546 -0.53332
# Velocity P-wave (km/s) = 0.98009 5.71706 3.98272
#
# Compressibility (1/GPa) = 0.03478358
#
# Stress axis : x y z
#
# Youngs Moduli (GPa) = 52.61937 95.54244 58.61949
#
# Poissons Ratio (x) = 0.41944 -0.07231
# Poissons Ratio (y) = 0.23100 0.15926
# Poissons Ratio (z) = -0.06491 0.25957
#
# Static dielectric constant tensor:
#      x y z
#    x 1.720160 0.000000 0.000000 
#    y 0.000000 1.666570 0.000000 
#    z 0.000000 0.000000 1.726330 
# 
# From -- ./inp_files/18982.got.cif
#   From: 2010.05.17/outbox.cif.g08.bks.cpg/sg65_10_cif.got.tgz:18982.got - 2010.06.03 17:01:31.
