data_PCOD9490959
_publ_section_title
;
Structure prediction by ZEFSAII (Michael W. Deem and Ramdas Pophale) SiO2 
 PCOD9490959
Probable space group: C M M M
;
_chemical_formula_sum "Si O2"
_cell_formula_units_Z 128
_cell_length_a 17.898684
_cell_length_b 18.345396
_cell_length_c 21.160337
_cell_angle_alpha 90.000000
_cell_angle_beta 90.000000
_cell_angle_gamma 90.000000
_cell_volume 6948.175371
_symmetry_space_group_name_H-M "C M M M"
_symmetry_group_IT_number 65
_symmetry_cell_setting 'orthorhombic'
loop_
_space_group_symop_operation_xyz
x,y,z
-x,-y,z
x,-y,-z
-x,y,-z
-x,-y,-z
x,y,-z
-x,y,z
x,-y,z
1/2+x,1/2+y,z
1/2-x,1/2-y,z
1/2+x,1/2-y,-z
1/2-x,1/2+y,-z
1/2-x,1/2-y,-z
1/2+x,1/2+y,-z
1/2-x,1/2+y,z
1/2+x,1/2-y,z
loop_
_atom_site_type_symbol
_atom_site_label
_atom_site_fract_x
_atom_site_fract_y
_atom_site_fract_z
Si Si1 0.803988 0.087921 0.205598
Si Si2 0.285470 0.170553 0.426824
Si Si3 0.381210 0.913543 0.931624
Si Si4 0.132748 0.913261 0.571229
Si Si5 0.916945 0.840977 0.697314
Si Si6 0.299797 0.413402 0.932502
Si Si7 0.126490 0.587537 0.793392
Si Si8 0.416975 0.170792 0.670054
O O1 0.853359 0.124710 0.259023
O O2 0.827239 0.114348 0.135113
O O3 0.715564 0.103099 0.211989
O O4 0.812455 0.000000 0.208745
O O5 0.310367 0.173671 0.500000
O O6 0.250000 0.250000 0.411650
O O7 0.218598 0.112528 0.421978
O O8 0.352425 0.153287 0.379798
O O9 0.290604 0.908140 0.931530
O O10 0.403046 0.885607 0.862115
O O11 0.399156 0.000000 0.932126
O O12 0.407092 0.883645 0.000000
O O13 0.108773 0.892109 0.500000
O O14 0.089317 0.874461 0.627293
O O15 0.126546 0.000000 0.577057
O O16 0.907136 0.754666 0.690824
O O17 0.000000 0.856539 0.722793
O O18 0.316029 0.500000 0.933145
O O19 0.325865 0.382120 0.000000
O O20 0.118075 0.500000 0.792739
O O21 0.089239 0.622703 0.732857
O O22 0.500000 0.163038 0.642325
#
# Coordination Sequence:
#
# PCOD9490959 Si02
#       8
#    16  16  16  16  16  16  16  16
#     4   9  17  29  49  76 100 129 170 212 259 312
#     4  10  20  38  62  82 102 134 174 214 259 310
#     4   7  10  20  42  73 104 130 163 214 272 320
#     4  10  21  37  59  86 109 131 166 214 264 313
#     4  11  23  36  49  70 104 142 177 213 257 314
#     4   7  10  19  38  66  97 123 154 205 261 305
#     4   9  18  32  53  80 107 138 178 224 269 316
#     4  11  24  37  52  77 108 143 179 213 256 312
#
# _framework density 18.422101999999999
#
# number of rings (size 3 to 8) (size 9 to 14) (size 15 to 20)
#    0.000    2.750    1.250    3.375    0.000    3.250 
#    0.000    1.875    0.000    1.500    0.000   11.375 
#    0.000    0.000    0.000    0.000    0.000    0.000 
#
# Total GULP energy -356580.737415 kJ/mol
# GULP energy per Si atom -5571.574022 kJ/mol
# Density = 1.838017 g / cm^3
# Si number density = 18.422102 Si / 1000 Ang^3
#
#
#
# Elastic Constant Matrix: (Units=GPa)
#
#
# Indices 1 2 3 4 5 6 
#
# 1 48.4822 12.3253 38.0167 0.0000 0.0000 0.0000
# 2 12.3253 20.2076 16.3511 0.0000 0.0000 0.0000
# 3 38.0167 16.3511 111.9512 0.0000 0.0000 0.0000
# 4 0.0000 0.0000 0.0000 6.0425 0.0000 0.0000
# 5 0.0000 0.0000 0.0000 0.0000 -10.4483 0.0000
# 6 0.0000 0.0000 0.0000 0.0000 0.0000 35.6636
#
#
#
# Elastic Compliance Matrix: (Units=1/GPa)
#
#
# Indices 1 2 3 4 5 6 
#
# 1 0.030305 -0.011518 -0.008609 0.000000 0.000000 0.000000
# 2 -0.011518 0.060496 -0.004924 0.000000 0.000000 0.000000
# 3 -0.008609 -0.004924 0.012575 0.000000 0.000000 0.000000
# 4 0.000000 0.000000 0.000000 0.165495 0.000000 0.000000
# 5 0.000000 0.000000 0.000000 0.000000 -0.095710 0.000000
# 6 0.000000 0.000000 0.000000 0.000000 0.000000 0.028040
#
#
# Mechanical properties :
#
#
# Convention : Reuss Voigt Hill
#
# Bulk Modulus (GPa) = 18.77104 34.89190 26.83147
# Shear Modulus (GPa) = 18.58309 13.84808 16.21559
#
# Velocity S-wave (km/s) = 3.17951 2.74471 2.97008
# Velocity P-wave (km/s) = 4.86730 5.38757 5.13403
#
# Compressibility (1/GPa) = 0.05327355
#
# Stress axis : x y z
#
# Youngs Moduli (GPa) = 32.99822 16.52995 79.52245
#
# Poissons Ratio (x) = 0.19039 0.68458
# Poissons Ratio (y) = 0.38008 0.39160
# Poissons Ratio (z) = 0.28407 0.08140
#
# Static dielectric constant tensor:
#      x y z
#    x 1.650420 0.000000 0.000000 
#    y 0.000000 1.607660 0.000000 
#    z 0.000000 0.000000 1.679390 
# 
# From -- ./inp_files/64142.got.cif
#   From: 2010.05.17/outbox.cif.g08.bks.cpg/sg65_33_cif.got.tgz:64142.got - 2010.06.03 17:01:31.
