data_PCOD9490231
_publ_section_title
;
Structure prediction by ZEFSAII (Michael W. Deem and Ramdas Pophale) SiO2 
 PCOD9490231
Probable space group: C M M M
;
_chemical_formula_sum "Si O2"
_cell_formula_units_Z 104
_cell_length_a 20.421577
_cell_length_b 8.558647
_cell_length_c 30.600443
_cell_angle_alpha 90.000000
_cell_angle_beta 90.000000
_cell_angle_gamma 90.000000
_cell_volume 5348.378131
_symmetry_space_group_name_H-M "C M M M"
_symmetry_group_IT_number 65
_symmetry_cell_setting 'orthorhombic'
loop_
_space_group_symop_operation_xyz
x,y,z
-x,-y,z
x,-y,-z
-x,y,-z
-x,-y,-z
x,y,-z
-x,y,z
x,-y,z
1/2+x,1/2+y,z
1/2-x,1/2-y,z
1/2+x,1/2-y,-z
1/2-x,1/2+y,-z
1/2-x,1/2-y,-z
1/2+x,1/2+y,-z
1/2-x,1/2+y,z
1/2+x,1/2-y,z
loop_
_atom_site_type_symbol
_atom_site_label
_atom_site_fract_x
_atom_site_fract_y
_atom_site_fract_z
Si Si1 0.000000 0.324707 0.947730
Si Si2 0.321597 0.688471 0.621092
Si Si3 0.924873 0.809467 0.450636
Si Si4 0.140320 0.814476 0.049962
Si Si5 0.177283 0.812276 0.722128
Si Si6 0.924256 0.689119 0.792894
Si Si7 0.817337 0.314763 0.138972
O O1 0.934450 0.230672 0.938733
O O2 0.000000 0.500000 0.927857
O O3 0.000000 0.343140 0.000000
O O4 0.320649 0.500000 0.619974
O O5 0.250000 0.750000 0.609074
O O6 0.375793 0.744840 0.586836
O O7 0.334638 0.733723 0.671442
O O8 0.906142 0.761837 0.500000
O O9 0.000000 0.761455 0.442804
O O10 0.924290 0.000000 0.450094
O O11 0.179637 0.734853 0.088567
O O12 0.149198 0.000000 0.051126
O O13 0.154144 0.760760 0.000000
O O14 0.250000 0.750000 0.733795
O O15 0.119709 0.745898 0.752355
O O16 0.177953 0.000000 0.725383
O O17 0.925625 0.500000 0.792752
O O18 0.881817 0.740740 0.835139
O O19 0.000000 0.743024 0.792756
O O20 0.815630 0.500000 0.141659
O O21 0.750000 0.250000 0.158649
#
# Coordination Sequence:
#
# PCOD9490231 Si02
#       7
#     8  16  16  16  16  16  16
#     4   9  17  31  53  81 113 149 185 221 267 319
#     4   9  18  31  49  76 107 138 177 224 272 325
#     4   8  14  26  45  69  99 138 183 229 275 321
#     4  10  21  37  58  86 118 150 187 230 274 322
#     4  10  20  35  57  83 112 147 184 226 278 335
#     4  10  23  42  62  86 115 145 180 227 277 330
#     4  11  24  41  62  85 114 150 187 227 276 331
#
# _framework density 19.445146000000001
#
# number of rings (size 3 to 8) (size 9 to 14) (size 15 to 20)
#    0.000    2.385    0.000    2.538    1.077    6.462 
#    0.000    1.538    0.000    0.462    0.000    1.077 
#    0.000    0.000    0.000    0.000    0.000    0.000 
#
# Total GULP energy -290118.476495 kJ/mol
# GULP energy per Si atom -5579.201471 kJ/mol
# Density = 1.940089 g / cm^3
# Si number density = 19.445146 Si / 1000 Ang^3
#
#
#
# Elastic Constant Matrix: (Units=GPa)
#
#
# Indices 1 2 3 4 5 6 
#
# 1 167.2155 23.2581 98.9560 0.0000 0.0000 0.0000
# 2 23.2581 18.0566 19.9030 0.0000 0.0000 0.0000
# 3 98.9560 19.9030 135.7197 0.0000 0.0000 0.0000
# 4 0.0000 0.0000 0.0000 8.5012 0.0000 0.0000
# 5 0.0000 0.0000 0.0000 0.0000 49.3302 0.0000
# 6 0.0000 0.0000 0.0000 0.0000 0.0000 28.9586
#
#
#
# Elastic Compliance Matrix: (Units=1/GPa)
#
#
# Indices 1 2 3 4 5 6 
#
# 1 0.011110 -0.006419 -0.007159 0.000000 0.000000 0.000000
# 2 -0.006419 0.069768 -0.005551 0.000000 0.000000 0.000000
# 3 -0.007159 -0.005551 0.013402 0.000000 0.000000 0.000000
# 4 0.000000 0.000000 0.000000 0.117630 0.000000 0.000000
# 5 0.000000 0.000000 0.000000 0.000000 0.020272 0.000000
# 6 0.000000 0.000000 0.000000 0.000000 0.000000 0.034532
#
#
# Mechanical properties :
#
#
# Convention : Reuss Voigt Hill
#
# Bulk Modulus (GPa) = 17.85026 67.24732 42.54879
# Shear Modulus (GPa) = 15.44901 29.28299 22.36600
#
# Velocity S-wave (km/s) = 2.82173 3.88484 3.39515
# Velocity P-wave (km/s) = 4.45151 7.40141 6.10724
#
# Compressibility (1/GPa) = 0.05602158
#
# Stress axis : x y z
#
# Youngs Moduli (GPa) = 90.01124 14.33319 74.61595
#
# Poissons Ratio (x) = 0.09200 0.53418
# Poissons Ratio (y) = 0.57778 0.41420
# Poissons Ratio (z) = 0.64439 0.07957
#
# Static dielectric constant tensor:
#      x y z
#    x 1.660680 0.000000 0.000000 
#    y 0.000000 1.664250 0.000000 
#    z 0.000000 0.000000 1.694140 
# 
# From -- ./inp_files/75526.got.cif
#   From: 2010.05.17/outbox.cif.g08.bks.cpg/sg65_38_cif.got.tgz:75526.got - 2010.06.03 17:01:31.
