data_PCOD9490616
_publ_section_title
;
Structure prediction by ZEFSAII (Michael W. Deem and Ramdas Pophale) SiO2 
 PCOD9490616
Probable space group: C M M M
;
_chemical_formula_sum "Si O2"
_cell_formula_units_Z 64
_cell_length_a 24.785100
_cell_length_b 16.057171
_cell_length_c 8.019695
_cell_angle_alpha 90.000000
_cell_angle_beta 90.000000
_cell_angle_gamma 90.000000
_cell_volume 3191.666900
_symmetry_space_group_name_H-M "C M M M"
_symmetry_group_IT_number 65
_symmetry_cell_setting 'orthorhombic'
loop_
_space_group_symop_operation_xyz
x,y,z
-x,-y,z
x,-y,-z
-x,y,-z
-x,-y,-z
x,y,-z
-x,y,z
x,-y,z
1/2+x,1/2+y,z
1/2-x,1/2-y,z
1/2+x,1/2-y,-z
1/2-x,1/2+y,-z
1/2-x,1/2-y,-z
1/2+x,1/2+y,-z
1/2-x,1/2+y,z
1/2+x,1/2-y,z
loop_
_atom_site_type_symbol
_atom_site_label
_atom_site_fract_x
_atom_site_fract_y
_atom_site_fract_z
Si Si1 0.289144 0.000000 0.699399
Si Si2 0.500000 0.867315 0.703294
Si Si3 0.500000 0.676565 0.295454
Si Si4 0.388498 0.594392 0.700801
Si Si5 0.723800 0.335327 0.801275
Si Si6 0.412069 0.000000 0.703641
O O1 0.257722 0.916874 0.751715
O O2 0.350753 0.000000 0.763419
O O3 0.290938 0.000000 0.500000
O O4 0.500000 0.866872 0.500000
O O5 0.500000 0.772471 0.759195
O O6 0.447236 0.919678 0.754730
O O7 0.500000 0.675899 0.500000
O O8 0.554471 0.630717 0.240431
O O9 0.390988 0.590729 0.500000
O O10 0.379855 0.500000 0.762825
O O11 0.337589 0.650786 0.745427
O O12 0.750000 0.250000 0.733872
O O13 0.723960 0.330632 0.000000
O O14 0.411008 0.000000 0.500000
#
# Coordination Sequence:
#
# PCOD9490616 Si02
#       6
#     8   8   8  16  16   8
#     4  11  22  37  62  93 117 148 193 250 298 341
#     4   8  14  28  46  75 115 150 174 217 282 345
#     4   9  18  30  53  83 114 147 183 233 294 343
#     4  10  20  36  58  86 116 147 188 243 294 341
#     4  11  25  42  59  82 118 163 200 237 289 351
#     4   8  16  28  47  78 117 145 175 222 285 344
#
# _framework density 20.052218
#
# number of rings (size 3 to 8) (size 9 to 14) (size 15 to 20)
#    0.000    2.250    1.250    2.250    3.500    3.500 
#    0.000    0.625    0.000    1.500    0.000    7.000 
#    0.000    0.000    0.000    0.000    0.000    0.000 
#
# Total GULP energy -178692.222612 kJ/mol
# GULP energy per Si atom -5584.131957 kJ/mol
# Density = 2.000658 g / cm^3
# Si number density = 20.052218 Si / 1000 Ang^3
#
#
#
# Elastic Constant Matrix: (Units=GPa)
#
#
# Indices 1 2 3 4 5 6 
#
# 1 208.1998 96.1560 13.4114 0.0000 0.0000 0.0000
# 2 96.1560 165.5022 12.1927 0.0000 0.0000 0.0000
# 3 13.4114 12.1927 18.3223 0.0000 0.0000 0.0000
# 4 0.0000 0.0000 0.0000 7.6492 0.0000 0.0000
# 5 0.0000 0.0000 0.0000 0.0000 -34.9831 0.0000
# 6 0.0000 0.0000 0.0000 0.0000 0.0000 11.0366
#
#
#
# Elastic Compliance Matrix: (Units=1/GPa)
#
#
# Indices 1 2 3 4 5 6 
#
# 1 0.006665 -0.003694 -0.002420 0.000000 0.000000 0.000000
# 2 -0.003694 0.008401 -0.002887 0.000000 0.000000 0.000000
# 3 -0.002420 -0.002887 0.058271 0.000000 0.000000 0.000000
# 4 0.000000 0.000000 0.000000 0.130732 0.000000 0.000000
# 5 0.000000 0.000000 0.000000 0.000000 -0.028585 0.000000
# 6 0.000000 0.000000 0.000000 0.000000 0.000000 0.090607
#
#
# Mechanical properties :
#
#
# Convention : Reuss Voigt Hill
#
# Bulk Modulus (GPa) = 18.07180 70.61606 44.34393
# Shear Modulus (GPa) = 16.52684 14.75817 15.64250
#
# Velocity S-wave (km/s) = 2.87399 2.71585 2.79604
# Velocity P-wave (km/s) = 4.47716 6.71766 5.70841
#
# Compressibility (1/GPa) = 0.05533483
#
# Stress axis : x y z
#
# Youngs Moduli (GPa) = 150.03588 119.03196 17.16124
#
# Poissons Ratio (x) = 0.43971 0.04154
# Poissons Ratio (y) = 0.55424 0.04954
# Poissons Ratio (z) = 0.36315 0.34360
#
# Static dielectric constant tensor:
#      x y z
#    x 1.690330 0.000000 0.000000 
#    y 0.000000 1.695010 0.000000 
#    z 0.000000 0.000000 1.724080 
# 
# From -- ./inp_files/13409.got.cif
#   From: 2010.05.17/outbox.cif.g08.bks.cpg/sg65_7_cif.got.tgz:13409.got - 2010.06.03 17:01:31.
