data_PCOD9490547
_publ_section_title
;
Structure prediction by ZEFSAII (Michael W. Deem and Ramdas Pophale) SiO2 
 PCOD9490547
Probable space group: C M M M
;
_chemical_formula_sum "Si O2"
_cell_formula_units_Z 80
_cell_length_a 24.425146
_cell_length_b 10.081809
_cell_length_c 18.257935
_cell_angle_alpha 90.000000
_cell_angle_beta 90.000000
_cell_angle_gamma 90.000000
_cell_volume 4496.010227
_symmetry_space_group_name_H-M "C M M M"
_symmetry_group_IT_number 65
_symmetry_cell_setting 'orthorhombic'
loop_
_space_group_symop_operation_xyz
x,y,z
-x,-y,z
x,-y,-z
-x,y,-z
-x,-y,-z
x,y,-z
-x,y,z
x,-y,z
1/2+x,1/2+y,z
1/2-x,1/2-y,z
1/2+x,1/2-y,-z
1/2-x,1/2+y,-z
1/2-x,1/2-y,-z
1/2+x,1/2+y,-z
1/2-x,1/2+y,z
1/2+x,1/2-y,z
loop_
_atom_site_type_symbol
_atom_site_label
_atom_site_fract_x
_atom_site_fract_y
_atom_site_fract_z
Si Si1 0.814314 0.000000 0.589703
Si Si2 0.901174 0.656731 0.191863
Si Si3 0.311842 0.000000 0.585780
Si Si4 0.201603 0.347968 0.085121
Si Si5 0.881289 0.254623 0.358439
Si Si6 0.500000 0.654054 0.365383
Si Si7 0.000000 0.154237 0.813035
O O1 0.750636 0.000000 0.614886
O O2 0.846112 0.874478 0.622356
O O3 0.817402 0.000000 0.500000
O O4 0.917973 0.500000 0.196513
O O5 0.850043 0.665212 0.137682
O O6 0.885463 0.708573 0.272668
O O7 0.948011 0.757158 0.164995
O O8 0.347921 0.125733 0.606717
O O9 0.303949 0.000000 0.500000
O O10 0.221006 0.500000 0.089592
O O11 0.250000 0.250000 0.106507
O O12 0.186899 0.321838 0.000000
O O13 0.943515 0.227482 0.386021
O O14 0.500000 0.500000 0.390510
O O15 0.500000 0.650500 0.276241
O O16 0.000000 0.000000 0.837285
#
# Coordination Sequence:
#
# PCOD9490547 Si02
#       7
#     8  16   8  16  16   8   8
#     4  11  24  41  61  81 114 157 191 232 289 348
#     4  10  20  36  57  86 115 149 187 235 282 335
#     4  11  24  41  57  81 116 151 189 232 289 346
#     4   9  19  36  56  81 116 156 193 232 284 337
#     4  11  21  39  61  86 112 149 192 239 285 343
#     4   9  18  36  59  82 110 141 182 235 289 336
#     4   9  19  33  58  85 112 149 188 230 286 337
#
# _framework density 17.793552999999999
#
# number of rings (size 3 to 8) (size 9 to 14) (size 15 to 20)
#    0.000    2.000    2.000    1.500    1.400    4.400 
#    0.000    3.500    0.000    3.000    0.000    0.000 
#    0.000    0.000    0.000    0.000    0.000    0.000 
#
# Total GULP energy -223006.383282 kJ/mol
# GULP energy per Si atom -5575.159582 kJ/mol
# Density = 1.775305 g / cm^3
# Si number density = 17.793553 Si / 1000 Ang^3
#
#
#
# Elastic Constant Matrix: (Units=GPa)
#
#
# Indices 1 2 3 4 5 6 
#
# 1 163.9153 104.4304 33.7189 0.0000 0.0000 0.0000
# 2 104.4304 181.4732 36.7467 0.0000 0.0000 0.0000
# 3 33.7189 36.7467 28.4120 0.0000 0.0000 0.0000
# 4 0.0000 0.0000 0.0000 18.9633 0.0000 0.0000
# 5 0.0000 0.0000 0.0000 0.0000 39.9545 0.0000
# 6 0.0000 0.0000 0.0000 0.0000 0.0000 41.0590
#
#
#
# Elastic Compliance Matrix: (Units=1/GPa)
#
#
# Indices 1 2 3 4 5 6 
#
# 1 0.010386 -0.004716 -0.006227 0.000000 0.000000 0.000000
# 2 -0.004716 0.009607 -0.006828 0.000000 0.000000 0.000000
# 3 -0.006227 -0.006828 0.051418 0.000000 0.000000 0.000000
# 4 0.000000 0.000000 0.000000 0.052734 0.000000 0.000000
# 5 0.000000 0.000000 0.000000 0.000000 0.025028 0.000000
# 6 0.000000 0.000000 0.000000 0.000000 0.000000 0.024355
#
#
# Mechanical properties :
#
#
# Convention : Reuss Voigt Hill
#
# Bulk Modulus (GPa) = 27.87950 80.39918 54.13934
# Shear Modulus (GPa) = 22.62174 33.25564 27.93869
#
# Velocity S-wave (km/s) = 3.56946 4.32785 3.96682
# Velocity P-wave (km/s) = 5.71755 8.38190 7.17449
#
# Compressibility (1/GPa) = 0.03586864
#
# Stress axis : x y z
#
# Youngs Moduli (GPa) = 96.28228 104.09112 19.44857
#
# Poissons Ratio (x) = 0.49089 0.12110
# Poissons Ratio (y) = 0.45406 0.13280
# Poissons Ratio (z) = 0.59952 0.71077
#
# Static dielectric constant tensor:
#      x y z
#    x 1.610910 0.000000 0.000000 
#    y 0.000000 1.317700 0.000000 
#    z 0.000000 0.000000 1.596690 
# 
# From -- ./inp_files/65123.got.cif
#   From: 2010.05.17/outbox.cif.g08.bks.cpg/sg65_33_cif.got.tgz:65123.got - 2010.06.03 17:01:31.
