data_PCOD9490033
_publ_section_title
;
Structure prediction by ZEFSAII (Michael W. Deem and Ramdas Pophale) SiO2 
 PCOD9490033
Probable space group: C M M M
;
_chemical_formula_sum "Si O2"
_cell_formula_units_Z 64
_cell_length_a 29.797648
_cell_length_b 7.976429
_cell_length_c 14.137833
_cell_angle_alpha 90.000000
_cell_angle_beta 90.000000
_cell_angle_gamma 90.000000
_cell_volume 3360.263516
_symmetry_space_group_name_H-M "C M M M"
_symmetry_group_IT_number 65
_symmetry_cell_setting 'orthorhombic'
loop_
_space_group_symop_operation_xyz
x,y,z
-x,-y,z
x,-y,-z
-x,y,-z
-x,-y,-z
x,y,-z
-x,y,z
x,-y,z
1/2+x,1/2+y,z
1/2-x,1/2-y,z
1/2+x,1/2-y,-z
1/2-x,1/2+y,-z
1/2-x,1/2-y,-z
1/2+x,1/2+y,-z
1/2-x,1/2+y,z
1/2+x,1/2-y,z
loop_
_atom_site_type_symbol
_atom_site_label
_atom_site_fract_x
_atom_site_fract_y
_atom_site_fract_z
Si Si1 0.298790 0.309716 0.386310
Si Si2 0.401741 0.695129 0.108215
Si Si3 0.500000 0.188964 0.113133
Si Si4 0.110768 0.685334 0.693614
Si Si5 0.946359 0.000000 0.385553
O O1 0.297101 0.309960 0.500000
O O2 0.307032 0.500000 0.353834
O O3 0.250000 0.250000 0.352316
O O4 0.341246 0.202073 0.356334
O O5 0.389545 0.500000 0.110394
O O6 0.454510 0.714500 0.133468
O O7 0.379571 0.791048 0.194561
O O8 0.395260 0.756733 0.000000
O O9 0.500000 0.000000 0.153592
O O10 0.500000 0.172205 0.000000
O O11 0.091342 0.500000 0.677038
O O12 0.078724 0.835423 0.656468
O O13 0.940918 0.000000 0.500000
O O14 0.000000 0.000000 0.364782
#
# Coordination Sequence:
#
# PCOD9490033 Si02
#       5
#    16  16   8  16   8
#     4  10  20  37  62  92 123 153 195 254 313 368
#     4  10  20  35  55  80 114 155 199 249 302 354
#     4   9  17  29  47  75 107 142 191 247 297 347
#     4  12  24  39  63  91 123 163 206 253 307 370
#     4  11  26  46  63  85 123 167 212 258 304 364
#
# _framework density 19.046126000000001
#
# number of rings (size 3 to 8) (size 9 to 14) (size 15 to 20)
#    0.000    1.500    2.500    2.625    1.750    6.500 
#    0.000    1.250    0.000    0.750    0.000    0.000 
#    0.000    0.000    0.000    0.000    0.000    0.000 
#
# Total GULP energy -178532.409203 kJ/mol
# GULP energy per Si atom -5579.137788 kJ/mol
# Density = 1.900278 g / cm^3
# Si number density = 19.046126 Si / 1000 Ang^3
#
#
#
# Elastic Constant Matrix: (Units=GPa)
#
#
# Indices 1 2 3 4 5 6 
#
# 1 77.2060 33.9915 25.0858 0.0000 0.0000 0.0000
# 2 33.9915 136.2095 35.1036 0.0000 0.0000 0.0000
# 3 25.0858 35.1036 72.2508 0.0000 0.0000 0.0000
# 4 0.0000 0.0000 0.0000 12.6522 0.0000 0.0000
# 5 0.0000 0.0000 0.0000 0.0000 8.2799 0.0000
# 6 0.0000 0.0000 0.0000 0.0000 0.0000 86.8131
#
#
#
# Elastic Compliance Matrix: (Units=1/GPa)
#
#
# Indices 1 2 3 4 5 6 
#
# 1 0.015502 -0.002837 -0.004004 0.000000 0.000000 0.000000
# 2 -0.002837 0.008912 -0.003345 0.000000 0.000000 0.000000
# 3 -0.004004 -0.003345 0.016856 0.000000 0.000000 0.000000
# 4 0.000000 0.000000 0.000000 0.079038 0.000000 0.000000
# 5 0.000000 0.000000 0.000000 0.000000 0.120774 0.000000
# 6 0.000000 0.000000 0.000000 0.000000 0.000000 0.011519
#
#
# Mechanical properties :
#
#
# Convention : Reuss Voigt Hill
#
# Bulk Modulus (GPa) = 47.85050 52.66979 50.26015
# Shear Modulus (GPa) = 17.86110 34.31474 26.08792
#
# Velocity S-wave (km/s) = 3.06564 4.24921 3.70499
# Velocity P-wave (km/s) = 6.14076 7.19640 6.68944
#
# Compressibility (1/GPa) = 0.02089842
#
# Stress axis : x y z
#
# Youngs Moduli (GPa) = 64.50648 112.21386 59.32580
#
# Poissons Ratio (x) = 0.31832 0.23755
# Poissons Ratio (y) = 0.18298 0.19843
# Poissons Ratio (z) = 0.25830 0.37534
#
# Static dielectric constant tensor:
#      x y z
#    x 1.658780 0.000000 0.000000 
#    y 0.000000 1.704220 0.000000 
#    z 0.000000 0.000000 1.689640 
# 
# From -- ./inp_files/47391.got.cif
#   From: 2010.05.17/outbox.cif.g08.bks.cpg/sg65_24_cif.got.tgz:47391.got - 2010.06.03 17:01:31.
