data_PCOD9490239
_publ_section_title
;
Structure prediction by ZEFSAII (Michael W. Deem and Ramdas Pophale) SiO2 
 PCOD9490239
Probable space group: C M M M
;
_chemical_formula_sum "Si O2"
_cell_formula_units_Z 64
_cell_length_a 8.816964
_cell_length_b 16.725969
_cell_length_c 22.963413
_cell_angle_alpha 90.000000
_cell_angle_beta 90.000000
_cell_angle_gamma 90.000000
_cell_volume 3386.466563
_symmetry_space_group_name_H-M "C M M M"
_symmetry_group_IT_number 65
_symmetry_cell_setting 'orthorhombic'
loop_
_space_group_symop_operation_xyz
x,y,z
-x,-y,z
x,-y,-z
-x,y,-z
-x,-y,-z
x,y,-z
-x,y,z
x,-y,z
1/2+x,1/2+y,z
1/2-x,1/2-y,z
1/2+x,1/2-y,-z
1/2-x,1/2+y,-z
1/2-x,1/2-y,-z
1/2+x,1/2+y,-z
1/2-x,1/2+y,z
1/2+x,1/2-y,z
loop_
_atom_site_type_symbol
_atom_site_label
_atom_site_fract_x
_atom_site_fract_y
_atom_site_fract_z
Si Si1 0.830049 0.094227 0.613030
Si Si2 0.184221 0.500000 0.067056
Si Si3 0.683257 0.840012 0.138467
Si Si4 0.182977 0.837600 0.736360
Si Si5 0.177623 0.663771 0.500000
O O1 0.777152 0.114177 0.678216
O O2 0.731276 0.122705 0.559407
O O3 0.000000 0.129959 0.606859
O O4 0.841311 0.000000 0.608533
O O5 0.228449 0.415467 0.097571
O O6 0.000000 0.500000 0.068328
O O7 0.234339 0.500000 0.000000
O O8 0.500000 0.833032 0.138137
O O9 0.750000 0.750000 0.125404
O O10 0.742352 0.863399 0.202891
O O11 0.250000 0.750000 0.726054
O O12 0.000000 0.836760 0.742966
O O13 0.250000 0.750000 0.500000
O O14 0.000000 0.668809 0.500000
#
# Coordination Sequence:
#
# PCOD9490239 Si02
#       5
#    16   8  16  16   8
#     4  10  22  39  58  82 113 148 183 228 286 341
#     4   9  20  38  59  85 119 158 197 236 287 351
#     4  10  20  36  59  86 117 155 196 243 293 344
#     4  10  20  35  57  83 113 148 187 231 281 337
#     4  12  25  40  59  81 107 145 189 236 283 336
#
# _framework density 18.898755000000001
#
# number of rings (size 3 to 8) (size 9 to 14) (size 15 to 20)
#    0.000    1.875    0.000    5.250    1.750    6.500 
#    0.000    1.875    0.000    5.250    0.000    0.000 
#    0.000    0.000    0.000    0.000    0.000    0.000 
#
# Total GULP energy -178421.421808 kJ/mol
# GULP energy per Si atom -5575.669432 kJ/mol
# Density = 1.885574 g / cm^3
# Si number density = 18.898755 Si / 1000 Ang^3
#
#
#
# Elastic Constant Matrix: (Units=GPa)
#
#
# Indices 1 2 3 4 5 6 
#
# 1 72.1236 44.3384 71.4140 0.0000 0.0000 0.0000
# 2 44.3384 114.7151 110.7610 0.0000 0.0000 0.0000
# 3 71.4140 110.7610 160.2190 0.0000 0.0000 0.0000
# 4 0.0000 0.0000 0.0000 23.7992 0.0000 0.0000
# 5 0.0000 0.0000 0.0000 0.0000 24.1865 0.0000
# 6 0.0000 0.0000 0.0000 0.0000 0.0000 19.4587
#
#
#
# Elastic Compliance Matrix: (Units=1/GPa)
#
#
# Indices 1 2 3 4 5 6 
#
# 1 0.025234 0.003328 -0.013548 0.000000 0.000000 0.000000
# 2 0.003328 0.026655 -0.019910 0.000000 0.000000 0.000000
# 3 -0.013548 -0.019910 0.026044 0.000000 0.000000 0.000000
# 4 0.000000 0.000000 0.000000 0.042018 0.000000 0.000000
# 5 0.000000 0.000000 0.000000 0.000000 0.041345 0.000000
# 6 0.000000 0.000000 0.000000 0.000000 0.000000 0.051391
#
#
# Mechanical properties :
#
#
# Convention : Reuss Voigt Hill
#
# Bulk Modulus (GPa) = 56.58480 88.89828 72.74154
# Shear Modulus (GPa) = 17.93148 21.52516 19.72832
#
# Velocity S-wave (km/s) = 3.08363 3.37853 3.23444
# Velocity P-wave (km/s) = 6.53333 7.89687 7.24724
#
# Compressibility (1/GPa) = 0.01767259
#
# Stress axis : x y z
#
# Youngs Moduli (GPa) = 39.62891 37.51679 38.39605
#
# Poissons Ratio (x) = -0.12486 0.52020
# Poissons Ratio (y) = -0.13189 0.76447
# Poissons Ratio (z) = 0.53690 0.74696
#
# Static dielectric constant tensor:
#      x y z
#    x 1.670650 0.000000 0.000000 
#    y 0.000000 1.652250 0.000000 
#    z 0.000000 0.000000 3.683410 
# 
# From -- ./inp_files/58891.got.cif
#   From: 2010.05.17/outbox.cif.g08.bks.cpg/sg65_30_cif.got.tgz:58891.got - 2010.06.03 17:01:31.
