data_PCOD9490770
_publ_section_title
;
Structure prediction by ZEFSAII (Michael W. Deem and Ramdas Pophale) SiO2 
 PCOD9490770
Probable space group: C M M M
;
_chemical_formula_sum "Si O2"
_cell_formula_units_Z 64
_cell_length_a 25.753028
_cell_length_b 7.527272
_cell_length_c 16.087621
_cell_angle_alpha 90.000000
_cell_angle_beta 90.000000
_cell_angle_gamma 90.000000
_cell_volume 3118.586080
_symmetry_space_group_name_H-M "C M M M"
_symmetry_group_IT_number 65
_symmetry_cell_setting 'orthorhombic'
loop_
_space_group_symop_operation_xyz
x,y,z
-x,-y,z
x,-y,-z
-x,y,-z
-x,-y,-z
x,y,-z
-x,y,z
x,-y,z
1/2+x,1/2+y,z
1/2-x,1/2-y,z
1/2+x,1/2-y,-z
1/2-x,1/2+y,-z
1/2-x,1/2-y,-z
1/2+x,1/2+y,-z
1/2-x,1/2+y,z
1/2+x,1/2-y,z
loop_
_atom_site_type_symbol
_atom_site_label
_atom_site_fract_x
_atom_site_fract_y
_atom_site_fract_z
Si Si1 0.939746 0.500000 0.406967
Si Si2 0.115856 0.784014 0.151204
Si Si3 0.688272 0.286666 0.000000
Si Si4 0.127796 0.212585 0.337436
Si Si5 0.689998 0.289420 0.500000
Si Si6 0.500000 0.716127 0.902037
O O1 0.916873 0.500000 0.500000
O O2 0.922890 0.677411 0.360562
O O3 0.000000 0.500000 0.414212
O O4 0.155583 0.722408 0.080050
O O5 0.138510 0.739140 0.241970
O O6 0.055635 0.725281 0.136888
O O7 0.113964 0.000000 0.146732
O O8 0.750000 0.250000 0.000000
O O9 0.684156 0.500000 0.000000
O O10 0.166695 0.270825 0.411226
O O11 0.121200 0.000000 0.341281
O O12 0.680885 0.500000 0.500000
O O13 0.750000 0.250000 0.500000
O O14 0.500000 0.500000 0.897164
O O15 0.500000 0.763077 0.000000
#
# Coordination Sequence:
#
# PCOD9490770 Si02
#       6
#     8  16   8  16   8   8
#     4  11  24  40  62  89 125 165 195 244 310 362
#     4   9  18  33  57  85 117 152 195 246 293 357
#     4  10  20  37  57  81 117 158 201 247 299 359
#     4  10  22  41  61  89 124 158 206 250 298 368
#     4  10  22  38  62  87 113 156 204 252 305 352
#     4   9  14  26  54  88 111 144 193 240 292 341
#
# _framework density 20.522119
#
# number of rings (size 3 to 8) (size 9 to 14) (size 15 to 20)
#    0.000    2.250    2.500    0.000    3.500    1.500 
#    2.250    1.250    0.000    0.000    0.000    2.625 
#    0.000    0.000    0.000    0.000    0.000    0.000 
#
# Total GULP energy -178298.631837 kJ/mol
# GULP energy per Si atom -5571.832245 kJ/mol
# Density = 2.047541 g / cm^3
# Si number density = 20.522119 Si / 1000 Ang^3
#
#
#
# Elastic Constant Matrix: (Units=GPa)
#
#
# Indices 1 2 3 4 5 6 
#
# 1 156.0062 10.1941 102.2467 0.0000 0.0000 0.0000
# 2 10.1941 42.0887 28.3031 0.0000 0.0000 0.0000
# 3 102.2467 28.3031 220.4524 0.0000 0.0000 0.0000
# 4 0.0000 0.0000 0.0000 37.1129 0.0000 0.0000
# 5 0.0000 0.0000 0.0000 0.0000 11.0323 0.0000
# 6 0.0000 0.0000 0.0000 0.0000 0.0000 22.2167
#
#
#
# Elastic Compliance Matrix: (Units=1/GPa)
#
#
# Indices 1 2 3 4 5 6 
#
# 1 0.009228 0.000704 -0.004371 0.000000 0.000000 0.000000
# 2 0.000704 0.026058 -0.003672 0.000000 0.000000 0.000000
# 3 -0.004371 -0.003672 0.007035 0.000000 0.000000 0.000000
# 4 0.000000 0.000000 0.000000 0.026945 0.000000 0.000000
# 5 0.000000 0.000000 0.000000 0.000000 0.090643 0.000000
# 6 0.000000 0.000000 0.000000 0.000000 0.000000 0.045011
#
#
# Mechanical properties :
#
#
# Convention : Reuss Voigt Hill
#
# Bulk Modulus (GPa) = 36.17435 77.78166 56.97800
# Shear Modulus (GPa) = 21.85201 32.59263 27.22232
#
# Velocity S-wave (km/s) = 3.26667 3.98951 3.64605
# Velocity P-wave (km/s) = 5.64743 7.69449 6.74903
#
# Compressibility (1/GPa) = 0.02764390
#
# Stress axis : x y z
#
# Youngs Moduli (GPa) = 108.36010 38.37577 142.15365
#
# Poissons Ratio (x) = -0.02701 0.62129
# Poissons Ratio (y) = -0.07627 0.52198
# Poissons Ratio (z) = 0.47360 0.14091
#
# Static dielectric constant tensor:
#      x y z
#    x 1.689780 0.000000 0.000000 
#    y 0.000000 1.696710 0.000000 
#    z 0.000000 0.000000 1.805230 
# 
# From -- ./inp_files/45141.got.cif
#   From: 2010.05.17/outbox.cif.g08.bks.cpg/sg65_23_cif.got.tgz:45141.got - 2010.06.03 17:01:31.
