data_PCOD9490146
_publ_section_title
;
Structure prediction by ZEFSAII (Michael W. Deem and Ramdas Pophale) SiO2 
 PCOD9490146
Probable space group: C M M M
;
_chemical_formula_sum "Si O2"
_cell_formula_units_Z 88
_cell_length_a 15.898323
_cell_length_b 23.002999
_cell_length_c 12.127059
_cell_angle_alpha 90.000000
_cell_angle_beta 90.000000
_cell_angle_gamma 90.000000
_cell_volume 4434.975930
_symmetry_space_group_name_H-M "C M M M"
_symmetry_group_IT_number 65
_symmetry_cell_setting 'orthorhombic'
loop_
_space_group_symop_operation_xyz
x,y,z
-x,-y,z
x,-y,-z
-x,y,-z
-x,-y,-z
x,y,-z
-x,y,z
x,-y,z
1/2+x,1/2+y,z
1/2-x,1/2-y,z
1/2+x,1/2-y,-z
1/2-x,1/2+y,-z
1/2-x,1/2-y,-z
1/2+x,1/2+y,-z
1/2-x,1/2+y,z
1/2+x,1/2-y,z
loop_
_atom_site_type_symbol
_atom_site_label
_atom_site_fract_x
_atom_site_fract_y
_atom_site_fract_z
Si Si1 0.250000 0.250000 0.276476
Si Si2 0.405023 0.929568 0.755735
Si Si3 0.146241 0.570937 0.000000
Si Si4 0.833544 0.066193 0.000000
Si Si5 0.407330 0.609533 0.778360
Si Si6 0.593754 0.742064 0.868020
Si Si7 0.253155 0.376001 0.628925
O O1 0.327654 0.231992 0.196972
O O2 0.263702 0.306811 0.350426
O O3 0.500000 0.915931 0.718666
O O4 0.331863 0.899683 0.685311
O O5 0.394438 0.000000 0.750486
O O6 0.394945 0.911613 0.884353
O O7 0.241757 0.596124 0.000000
O O8 0.141171 0.500000 0.000000
O O9 0.886132 0.077862 0.108303
O O10 0.809226 0.000000 0.000000
O O11 0.500000 0.595191 0.736262
O O12 0.407233 0.676768 0.818260
O O13 0.333347 0.597646 0.692669
O O14 0.500000 0.767138 0.848015
O O15 0.606860 0.740397 0.000000
O O16 0.253060 0.388944 0.500000
#
# Coordination Sequence:
#
# PCOD9490146 Si02
#       7
#     8  16   8   8  16  16  16
#     4  10  22  38  58  80 112 153 197 246 298 346
#     4  10  21  39  64  92 122 157 196 243 303 362
#     4   9  17  33  59  90 122 153 187 236 296 359
#     4  11  19  31  57  90 120 149 181 228 292 356
#     4  10  20  35  56  82 114 148 187 235 289 349
#     4   9  17  32  54  80 111 144 179 225 287 355
#     4  11  24  41  60  82 113 156 208 254 294 346
#
# _framework density 19.842272999999999
#
# number of rings (size 3 to 8) (size 9 to 14) (size 15 to 20)
#    0.000    2.000    2.727    1.091    0.000    3.636 
#    1.636    0.909    0.000    3.273    0.000    2.545 
#    0.000    0.000    0.000    0.000    0.000    0.000 
#
# Total GULP energy -245486.428209 kJ/mol
# GULP energy per Si atom -5579.237005 kJ/mol
# Density = 1.979711 g / cm^3
# Si number density = 19.842273 Si / 1000 Ang^3
#
#
#
# Elastic Constant Matrix: (Units=GPa)
#
#
# Indices 1 2 3 4 5 6 
#
# 1 142.4148 19.4143 76.0541 0.0000 0.0000 0.0000
# 2 19.4143 22.4806 17.8354 0.0000 0.0000 0.0000
# 3 76.0541 17.8354 150.1785 0.0000 0.0000 0.0000
# 4 0.0000 0.0000 0.0000 1.6966 0.0000 0.0000
# 5 0.0000 0.0000 0.0000 0.0000 -5.1697 0.0000
# 6 0.0000 0.0000 0.0000 0.0000 0.0000 23.6957
#
#
#
# Elastic Compliance Matrix: (Units=1/GPa)
#
#
# Indices 1 2 3 4 5 6 
#
# 1 0.010141 -0.005171 -0.004522 0.000000 0.000000 0.000000
# 2 -0.005171 0.051746 -0.003527 0.000000 0.000000 0.000000
# 3 -0.004522 -0.003527 0.009368 0.000000 0.000000 0.000000
# 4 0.000000 0.000000 0.000000 0.589417 0.000000 0.000000
# 5 0.000000 0.000000 0.000000 0.000000 -0.193435 0.000000
# 6 0.000000 0.000000 0.000000 0.000000 0.000000 0.042202
#
#
# Mechanical properties :
#
#
# Convention : Reuss Voigt Hill
#
# Bulk Modulus (GPa) = 22.31320 60.18685 41.25003
# Shear Modulus (GPa) = 9.07743 17.49585 13.28664
#
# Velocity S-wave (km/s) = 2.14120 2.97264 2.59050
# Velocity P-wave (km/s) = 4.16925 6.49466 5.45726
#
# Compressibility (1/GPa) = 0.04481652
#
# Stress axis : x y z
#
# Youngs Moduli (GPa) = 98.60580 19.32505 106.75154
#
# Poissons Ratio (x) = 0.09992 0.48271
# Poissons Ratio (y) = 0.50986 0.37650
# Poissons Ratio (z) = 0.44587 0.06816
#
# Static dielectric constant tensor:
#      x y z
#    x 1.734270 0.000000 0.000000 
#    y 0.000000 1.737060 0.000000 
#    z 0.000000 0.000000 1.637610 
# 
# From -- ./inp_files/25225.got.cif
#   From: 2010.05.17/outbox.cif.g08.bks.cpg/sg65_13_cif.got.tgz:25225.got - 2010.06.03 17:01:31.
