data_PCOD9490419
_publ_section_title
;
Structure prediction by ZEFSAII (Michael W. Deem and Ramdas Pophale) SiO2 
 PCOD9490419
Probable space group: C M M M
;
_chemical_formula_sum "Si O2"
_cell_formula_units_Z 104
_cell_length_a 28.168072
_cell_length_b 9.088548
_cell_length_c 27.175889
_cell_angle_alpha 90.000000
_cell_angle_beta 90.000000
_cell_angle_gamma 90.000000
_cell_volume 6957.214403
_symmetry_space_group_name_H-M "C M M M"
_symmetry_group_IT_number 65
_symmetry_cell_setting 'orthorhombic'
loop_
_space_group_symop_operation_xyz
x,y,z
-x,-y,z
x,-y,-z
-x,y,-z
-x,-y,-z
x,y,-z
-x,y,z
x,-y,z
1/2+x,1/2+y,z
1/2-x,1/2-y,z
1/2+x,1/2-y,-z
1/2-x,1/2+y,-z
1/2-x,1/2-y,-z
1/2+x,1/2+y,-z
1/2-x,1/2+y,z
1/2+x,1/2-y,z
loop_
_atom_site_type_symbol
_atom_site_label
_atom_site_fract_x
_atom_site_fract_y
_atom_site_fract_z
Si Si1 0.608469 0.675354 0.647303
Si Si2 0.302029 0.176946 0.608728
Si Si3 0.442488 0.172238 0.847774
Si Si4 0.557407 0.673853 0.946375
Si Si5 0.557384 0.172243 0.443689
Si Si6 0.698811 0.825059 0.500000
Si Si7 0.443037 0.175578 0.261790
O O1 0.612087 0.500000 0.646942
O O2 0.660189 0.750549 0.644739
O O3 0.579734 0.731527 0.599299
O O4 0.581666 0.734295 0.695373
O O5 0.250000 0.250000 0.612863
O O6 0.321894 0.211301 0.553297
O O7 0.299009 0.000000 0.614033
O O8 0.500000 0.185650 0.847654
O O9 0.424343 0.252567 0.896513
O O10 0.427405 0.222591 0.793306
O O11 0.431561 0.000000 0.851700
O O12 0.500000 0.691961 0.946336
O O13 0.566621 0.500000 0.944448
O O14 0.574120 0.730339 0.000000
O O15 0.570712 0.212615 0.500000
O O16 0.500000 0.179505 0.440793
O O17 0.570995 0.000000 0.436521
O O18 0.750000 0.750000 0.500000
O O19 0.704977 0.000000 0.500000
O O20 0.500000 0.193489 0.265176
O O21 0.433704 0.000000 0.267145
#
# Coordination Sequence:
#
# PCOD9490419 Si02
#       7
#    16  16  16  16  16   8  16
#     4  12  24  33  46  70  93 115 143 176 216 262
#     4  10  20  36  54  72  92 114 139 170 209 257
#     4   8  14  24  38  55  74 100 138 182 222 255
#     4   8  13  20  30  47  73 104 136 170 211 257
#     4   9  19  36  54  68  85 113 146 178 216 261
#     4   8  16  30  50  70  85 104 127 154 192 241
#     4   9  18  33  49  63  83 114 151 189 227 264
#
# _framework density 14.948511
#
# number of rings (size 3 to 8) (size 9 to 14) (size 15 to 20)
#    0.000    2.769    0.000    4.154    1.077    4.308 
#    0.000    3.846    0.000    0.000    0.000    0.000 
#    0.000    0.000    0.000    0.000    0.000    0.769 
#
# Total GULP energy -289605.329431 kJ/mol
# GULP energy per Si atom -5569.333258 kJ/mol
# Density = 1.491449 g / cm^3
# Si number density = 14.948511 Si / 1000 Ang^3
#
#
#
# Elastic Constant Matrix: (Units=GPa)
#
#
# Indices 1 2 3 4 5 6 
#
# 1 36.7430 27.9668 36.9001 0.0000 0.0000 0.0000
# 2 27.9668 62.3719 66.8212 0.0000 0.0000 0.0000
# 3 36.9001 66.8212 140.3798 0.0000 0.0000 0.0000
# 4 0.0000 0.0000 0.0000 13.9982 0.0000 0.0000
# 5 0.0000 0.0000 0.0000 0.0000 5.3512 0.0000
# 6 0.0000 0.0000 0.0000 0.0000 0.0000 16.6840
#
#
#
# Elastic Compliance Matrix: (Units=1/GPa)
#
#
# Indices 1 2 3 4 5 6 
#
# 1 0.042547 -0.014480 -0.004291 0.000000 0.000000 0.000000
# 2 -0.014480 0.037645 -0.014113 0.000000 0.000000 0.000000
# 3 -0.004291 -0.014113 0.014969 0.000000 0.000000 0.000000
# 4 0.000000 0.000000 0.000000 0.071438 0.000000 0.000000
# 5 0.000000 0.000000 0.000000 0.000000 0.186873 0.000000
# 6 0.000000 0.000000 0.000000 0.000000 0.000000 0.059938
#
#
# Mechanical properties :
#
#
# Convention : Reuss Voigt Hill
#
# Bulk Modulus (GPa) = 34.02187 55.87454 44.94820
# Shear Modulus (GPa) = 10.22542 14.39379 12.30961
#
# Velocity S-wave (km/s) = 2.61826 3.10642 2.87272
# Velocity P-wave (km/s) = 5.65236 7.09405 6.41384
#
# Compressibility (1/GPa) = 0.02939286
#
# Stress axis : x y z
#
# Youngs Moduli (GPa) = 23.50328 26.56361 66.80295
#
# Poissons Ratio (x) = 0.38465 0.28667
# Poissons Ratio (y) = 0.34033 0.94280
# Poissons Ratio (z) = 0.10086 0.37489
#
# Static dielectric constant tensor:
#      x y z
#    x 1.483810 0.000000 0.000000 
#    y 0.000000 1.492960 0.000000 
#    z 0.000000 0.000000 1.527810 
# 
# From -- ./inp_files/72119.got.cif
#   From: 2010.05.17/outbox.cif.g08.bks.cpg/sg65_37_cif.got.tgz:72119.got - 2010.06.03 17:01:31.
