data_PCOD9490076
_publ_section_title
;
Structure prediction by ZEFSAII (Michael W. Deem and Ramdas Pophale) SiO2 
 PCOD9490076
Probable space group: C M M M
;
_chemical_formula_sum "Si O2"
_cell_formula_units_Z 56
_cell_length_a 29.111527
_cell_length_b 8.914683
_cell_length_c 12.924750
_cell_angle_alpha 90.000000
_cell_angle_beta 90.000000
_cell_angle_gamma 90.000000
_cell_volume 3354.231570
_symmetry_space_group_name_H-M "C M M M"
_symmetry_group_IT_number 65
_symmetry_cell_setting 'orthorhombic'
loop_
_space_group_symop_operation_xyz
x,y,z
-x,-y,z
x,-y,-z
-x,y,-z
-x,-y,-z
x,y,-z
-x,y,z
x,-y,z
1/2+x,1/2+y,z
1/2-x,1/2-y,z
1/2+x,1/2-y,-z
1/2-x,1/2+y,-z
1/2-x,1/2-y,-z
1/2+x,1/2+y,-z
1/2-x,1/2+y,z
1/2+x,1/2-y,z
loop_
_atom_site_type_symbol
_atom_site_label
_atom_site_fract_x
_atom_site_fract_y
_atom_site_fract_z
Si Si1 0.553985 0.178674 0.879117
Si Si2 0.392251 0.678535 0.693606
Si Si3 0.554827 0.821721 0.500000
Si Si4 0.700994 0.822084 0.623686
O O1 0.500000 0.210207 0.859952
O O2 0.585147 0.270279 0.800920
O O3 0.560620 0.000000 0.862256
O O4 0.563236 0.209780 0.000000
O O5 0.391602 0.500000 0.683892
O O6 0.422543 0.749051 0.601118
O O7 0.341189 0.744100 0.680899
O O8 0.500000 0.800104 0.500000
O O9 0.564326 0.000000 0.500000
O O10 0.694131 0.799286 0.500000
O O11 0.750000 0.750000 0.650758
O O12 0.701332 0.000000 0.642793
#
# Coordination Sequence:
#
# PCOD9490076 Si02
#       4
#    16  16   8  16
#     4   9  19  37  59  80 105 143 189 230 269 319
#     4  12  23  34  53  81 113 144 178 222 273 326
#     4  11  23  37  52  73 106 147 185 221 267 323
#     4  10  20  35  56  79 108 143 181 223 268 321
#
# _framework density 16.695329000000001
#
# number of rings (size 3 to 8) (size 9 to 14) (size 15 to 20)
#    0.000    1.571    1.429    5.571    0.000    6.857 
#    0.000    1.429    0.000    0.857    0.000    0.000 
#    0.000    0.000    0.000    0.000    0.000    0.000 
#
# Total GULP energy -156474.963332 kJ/mol
# GULP energy per Si atom -5588.391548 kJ/mol
# Density = 1.665733 g / cm^3
# Si number density = 16.695329 Si / 1000 Ang^3
#
#
#
# Elastic Constant Matrix: (Units=GPa)
#
#
# Indices 1 2 3 4 5 6 
#
# 1 138.2611 99.6238 75.2094 0.0000 0.0000 0.0000
# 2 99.6238 127.9806 69.6232 0.0000 0.0000 0.0000
# 3 75.2094 69.6232 75.0209 0.0000 0.0000 0.0000
# 4 0.0000 0.0000 0.0000 20.4932 0.0000 0.0000
# 5 0.0000 0.0000 0.0000 0.0000 12.7632 0.0000
# 6 0.0000 0.0000 0.0000 0.0000 0.0000 32.0558
#
#
#
# Elastic Compliance Matrix: (Units=1/GPa)
#
#
# Indices 1 2 3 4 5 6 
#
# 1 0.020482 -0.009640 -0.011586 0.000000 0.000000 0.000000
# 2 -0.009640 0.020319 -0.009192 0.000000 0.000000 0.000000
# 3 -0.011586 -0.009192 0.033476 0.000000 0.000000 0.000000
# 4 0.000000 0.000000 0.000000 0.048797 0.000000 0.000000
# 5 0.000000 0.000000 0.000000 0.000000 0.078350 0.000000
# 6 0.000000 0.000000 0.000000 0.000000 0.000000 0.031196
#
#
# Mechanical properties :
#
#
# Convention : Reuss Voigt Hill
#
# Bulk Modulus (GPa) = 74.41350 92.24172 83.32761
# Shear Modulus (GPa) = 16.78212 19.51619 18.14915
#
# Velocity S-wave (km/s) = 3.17393 3.42272 3.30067
# Velocity P-wave (km/s) = 7.62233 8.42555 8.03399
#
# Compressibility (1/GPa) = 0.01343842
#
# Stress axis : x y z
#
# Youngs Moduli (GPa) = 48.82429 49.21573 29.87221
#
# Poissons Ratio (x) = 0.47446 0.34611
# Poissons Ratio (y) = 0.47068 0.27459
# Poissons Ratio (z) = 0.56569 0.45240
#
# Static dielectric constant tensor:
#      x y z
#    x 1.545340 0.000000 0.000000 
#    y 0.000000 1.550700 0.000000 
#    z 0.000000 0.000000 1.539570 
# 
# From -- ./inp_files/20466.got.cif
#   From: 2010.05.17/outbox.cif.g08.bks.cpg/sg65_11_cif.got.tgz:20466.got - 2010.06.03 17:01:31.
