data_PCOD9490190
_publ_section_title
;
Structure prediction by ZEFSAII (Michael W. Deem and Ramdas Pophale) SiO2 
 PCOD9490190
Probable space group: C M M M
;
_chemical_formula_sum "Si O2"
_cell_formula_units_Z 56
_cell_length_a 19.240505
_cell_length_b 20.866436
_cell_length_c 7.384956
_cell_angle_alpha 90.000000
_cell_angle_beta 90.000000
_cell_angle_gamma 90.000000
_cell_volume 2964.917793
_symmetry_space_group_name_H-M "C M M M"
_symmetry_group_IT_number 65
_symmetry_cell_setting 'orthorhombic'
loop_
_space_group_symop_operation_xyz
x,y,z
-x,-y,z
x,-y,-z
-x,y,-z
-x,-y,-z
x,y,-z
-x,y,z
x,-y,z
1/2+x,1/2+y,z
1/2-x,1/2-y,z
1/2+x,1/2-y,-z
1/2-x,1/2+y,-z
1/2-x,1/2-y,-z
1/2+x,1/2+y,-z
1/2-x,1/2+y,z
1/2+x,1/2-y,z
loop_
_atom_site_type_symbol
_atom_site_label
_atom_site_fract_x
_atom_site_fract_y
_atom_site_fract_z
Si Si1 0.421252 0.000000 0.719494
Si Si2 0.420487 0.646713 0.000000
Si Si3 0.920415 0.741845 0.285559
Si Si4 0.826714 0.620893 0.717373
Si Si5 0.718767 0.576229 0.000000
O O1 0.378929 0.936683 0.769802
O O2 0.500000 0.000000 0.786060
O O3 0.424124 0.000000 0.500000
O O4 0.410949 0.694037 0.828737
O O5 0.362043 0.593250 0.000000
O O6 0.500000 0.623231 0.000000
O O7 0.914586 0.753753 0.500000
O O8 0.864885 0.687374 0.237038
O O9 0.000000 0.718721 0.251293
O O10 0.816141 0.618891 0.500000
O O11 0.756845 0.607840 0.827116
O O12 0.730035 0.500000 0.000000
#
# Coordination Sequence:
#
# PCOD9490190 Si02
#       5
#     8   8  16  16   8
#     4   9  16  29  51  79 114 156 190 212 246 307
#     4  10  23  42  61  80 105 139 187 247 295 335
#     4   9  18  35  60  88 117 148 183 224 273 332
#     4  10  20  35  56  84 118 153 184 221 271 328
#     4  12  25  40  57  79 110 148 192 237 284 335
#
# _framework density 18.887540000000001
#
# number of rings (size 3 to 8) (size 9 to 14) (size 15 to 20)
#    0.000    2.143    1.429    1.714    0.000    7.143 
#    0.000    5.714    0.000    0.000    0.000    6.000 
#    0.000    0.000    0.000    0.000    0.000    0.000 
#
# Total GULP energy -156374.945714 kJ/mol
# GULP energy per Si atom -5584.819490 kJ/mol
# Density = 1.884455 g / cm^3
# Si number density = 18.887540 Si / 1000 Ang^3
#
#
#
# Elastic Constant Matrix: (Units=GPa)
#
#
# Indices 1 2 3 4 5 6 
#
# 1 111.1801 29.7218 33.7781 0.0000 0.0000 0.0000
# 2 29.7218 24.7384 17.9434 0.0000 0.0000 0.0000
# 3 33.7781 17.9434 69.6622 0.0000 0.0000 0.0000
# 4 0.0000 0.0000 0.0000 11.0587 0.0000 0.0000
# 5 0.0000 0.0000 0.0000 0.0000 23.1232 0.0000
# 6 0.0000 0.0000 0.0000 0.0000 0.0000 37.8379
#
#
#
# Elastic Compliance Matrix: (Units=1/GPa)
#
#
# Indices 1 2 3 4 5 6 
#
# 1 0.013730 -0.014347 -0.002962 0.000000 0.000000 0.000000
# 2 -0.014347 0.064703 -0.009709 0.000000 0.000000 0.000000
# 3 -0.002962 -0.009709 0.018292 0.000000 0.000000 0.000000
# 4 0.000000 0.000000 0.000000 0.090426 0.000000 0.000000
# 5 0.000000 0.000000 0.000000 0.000000 0.043247 0.000000
# 6 0.000000 0.000000 0.000000 0.000000 0.000000 0.026429
#
#
# Mechanical properties :
#
#
# Convention : Reuss Voigt Hill
#
# Bulk Modulus (GPa) = 23.42582 40.94079 32.18330
# Shear Modulus (GPa) = 15.38029 22.67979 19.03004
#
# Velocity S-wave (km/s) = 2.85671 3.46899 3.17763
# Velocity P-wave (km/s) = 4.82812 6.14559 5.52626
#
# Compressibility (1/GPa) = 0.04268795
#
# Stress axis : x y z
#
# Youngs Moduli (GPa) = 72.83495 15.45532 54.66871
#
# Poissons Ratio (x) = 0.22174 0.16192
# Poissons Ratio (y) = 1.04497 0.53079
# Poissons Ratio (z) = 0.21572 0.15006
#
# Static dielectric constant tensor:
#      x y z
#    x 1.647280 0.000000 0.000000 
#    y 0.000000 1.612100 0.000000 
#    z 0.000000 0.000000 1.677240 
# 
# From -- ./inp_files/6304.got.cif
#   From: 2010.05.17/outbox.cif.g08.bks.cpg/sg65_4_cif.got.tgz:6304.got - 2010.06.03 17:01:31.
