data_PCOD9490742
_publ_section_title
;
Structure prediction by ZEFSAII (Michael W. Deem and Ramdas Pophale) SiO2 
 PCOD9490742
Probable space group: C M M M
;
_chemical_formula_sum "Si O2"
_cell_formula_units_Z 88
_cell_length_a 29.151362
_cell_length_b 8.957146
_cell_length_c 17.641408
_cell_angle_alpha 90.000000
_cell_angle_beta 90.000000
_cell_angle_gamma 90.000000
_cell_volume 4606.401065
_symmetry_space_group_name_H-M "C M M M"
_symmetry_group_IT_number 65
_symmetry_cell_setting 'orthorhombic'
loop_
_space_group_symop_operation_xyz
x,y,z
-x,-y,z
x,-y,-z
-x,y,-z
-x,-y,-z
x,y,-z
-x,y,z
x,-y,z
1/2+x,1/2+y,z
1/2-x,1/2-y,z
1/2+x,1/2-y,-z
1/2-x,1/2+y,-z
1/2-x,1/2-y,-z
1/2+x,1/2+y,-z
1/2-x,1/2+y,z
1/2+x,1/2-y,z
loop_
_atom_site_type_symbol
_atom_site_label
_atom_site_fract_x
_atom_site_fract_y
_atom_site_fract_z
Si Si1 0.701302 0.823470 0.408879
Si Si2 0.898157 0.180020 0.089516
Si Si3 0.946614 0.323150 0.776061
Si Si4 0.891931 0.821718 0.640955
Si Si5 0.796186 0.172176 0.092313
Si Si6 0.445160 0.177714 0.500000
O O1 0.694932 0.805049 0.500000
O O2 0.750000 0.750000 0.389110
O O3 0.659140 0.742642 0.368531
O O4 0.701416 0.000000 0.392861
O O5 0.934586 0.264439 0.140481
O O6 0.846570 0.230543 0.113483
O O7 0.900730 0.000000 0.099940
O O8 0.903620 0.208342 0.000000
O O9 0.937982 0.500000 0.769577
O O10 0.914813 0.233093 0.718376
O O11 0.000000 0.296730 0.758261
O O12 0.922279 0.751899 0.573290
O O13 0.891488 0.000000 0.635793
O O14 0.750000 0.250000 0.119991
O O15 0.794259 0.000000 0.114842
O O16 0.795544 0.177295 0.000000
O O17 0.500000 0.198145 0.500000
O O18 0.435578 0.000000 0.500000
#
# Coordination Sequence:
#
# PCOD9490742 Si02
#       6
#    16  16  16  16  16   8
#     4  10  20  36  61  91 127 165 202 244 293 348
#     4   9  19  37  60  86 116 151 195 246 300 364
#     4  11  25  43  61  83 115 154 197 251 312 367
#     4  12  24  39  62  90 121 157 201 247 295 354
#     4   8  14  26  47  77 111 144 178 220 273 333
#     4  11  23  39  60  87 120 157 197 243 295 351
#
# _framework density 19.103850999999999
#
# number of rings (size 3 to 8) (size 9 to 14) (size 15 to 20)
#    0.000    1.909    0.909    4.636    0.000    6.545 
#    0.000    4.545    0.000    2.182    0.000    0.000 
#    0.000    0.000    0.000    0.000    0.000    0.000 
#
# Total GULP energy -245756.186398 kJ/mol
# GULP energy per Si atom -5585.367873 kJ/mol
# Density = 1.906037 g / cm^3
# Si number density = 19.103851 Si / 1000 Ang^3
#
#
#
# Elastic Constant Matrix: (Units=GPa)
#
#
# Indices 1 2 3 4 5 6 
#
# 1 130.4191 86.0288 42.5806 0.0000 0.0000 0.0000
# 2 86.0288 120.3394 42.1760 0.0000 0.0000 0.0000
# 3 42.5806 42.1760 51.4884 0.0000 0.0000 0.0000
# 4 0.0000 0.0000 0.0000 24.9712 0.0000 0.0000
# 5 0.0000 0.0000 0.0000 0.0000 10.9153 0.0000
# 6 0.0000 0.0000 0.0000 0.0000 0.0000 35.4904
#
#
#
# Elastic Compliance Matrix: (Units=1/GPa)
#
#
# Indices 1 2 3 4 5 6 
#
# 1 0.015454 -0.009214 -0.005233 0.000000 0.000000 0.000000
# 2 -0.009214 0.017149 -0.006428 0.000000 0.000000 0.000000
# 3 -0.005233 -0.006428 0.029015 0.000000 0.000000 0.000000
# 4 0.000000 0.000000 0.000000 0.040046 0.000000 0.000000
# 5 0.000000 0.000000 0.000000 0.000000 0.091614 0.000000
# 6 0.000000 0.000000 0.000000 0.000000 0.000000 0.028177
#
#
# Mechanical properties :
#
#
# Convention : Reuss Voigt Hill
#
# Bulk Modulus (GPa) = 50.33018 71.53530 60.93274
# Shear Modulus (GPa) = 18.53040 23.03950 20.78495
#
# Velocity S-wave (km/s) = 3.11783 3.47654 3.30206
# Velocity P-wave (km/s) = 6.27407 7.32406 6.81930
#
# Compressibility (1/GPa) = 0.01986879
#
# Stress axis : x y z
#
# Youngs Moduli (GPa) = 64.70950 58.31120 34.46505
#
# Poissons Ratio (x) = 0.53726 0.18035
# Poissons Ratio (y) = 0.59621 0.22154
# Poissons Ratio (z) = 0.33862 0.37483
#
# Static dielectric constant tensor:
#      x y z
#    x 1.665870 0.000000 0.000000 
#    y 0.000000 1.633550 0.000000 
#    z 0.000000 0.000000 1.675690 
# 
# From -- ./inp_files/58007.got.cif
#   From: 2010.05.17/outbox.cif.g08.bks.cpg/sg65_30_cif.got.tgz:58007.got - 2010.06.03 17:01:31.
