data_PCOD9490492
_publ_section_title
;
Structure prediction by ZEFSAII (Michael W. Deem and Ramdas Pophale) SiO2 
 PCOD9490492
Probable space group: C M M M
;
_chemical_formula_sum "Si O2"
_cell_formula_units_Z 72
_cell_length_a 25.349474
_cell_length_b 17.341844
_cell_length_c 7.592379
_cell_angle_alpha 90.000000
_cell_angle_beta 90.000000
_cell_angle_gamma 90.000000
_cell_volume 3337.660097
_symmetry_space_group_name_H-M "C M M M"
_symmetry_group_IT_number 65
_symmetry_cell_setting 'orthorhombic'
loop_
_space_group_symop_operation_xyz
x,y,z
-x,-y,z
x,-y,-z
-x,y,-z
-x,-y,-z
x,y,-z
-x,y,z
x,-y,z
1/2+x,1/2+y,z
1/2-x,1/2-y,z
1/2+x,1/2-y,-z
1/2-x,1/2+y,-z
1/2-x,1/2-y,-z
1/2+x,1/2+y,-z
1/2-x,1/2+y,z
1/2+x,1/2-y,z
loop_
_atom_site_type_symbol
_atom_site_label
_atom_site_fract_x
_atom_site_fract_y
_atom_site_fract_z
Si Si1 0.060626 0.000000 0.284431
Si Si2 0.852253 0.117995 0.295718
Si Si3 0.764409 0.584723 0.713348
Si Si4 0.853241 0.705400 0.793265
Si Si5 0.560416 0.086589 0.214967
O O1 0.096131 0.926375 0.227012
O O2 0.057294 0.000000 0.500000
O O3 0.000000 0.000000 0.222144
O O4 0.849811 0.094987 0.500000
O O5 0.795622 0.092981 0.220288
O O6 0.854023 0.210040 0.286696
O O7 0.764147 0.586661 0.500000
O O8 0.785142 0.500000 0.767965
O O9 0.799856 0.656316 0.771530
O O10 0.899300 0.650497 0.720937
O O11 0.862220 0.716985 0.000000
O O12 0.500000 0.101546 0.265837
O O13 0.574758 0.000000 0.271969
O O14 0.562125 0.086582 0.000000
#
# Coordination Sequence:
#
# PCOD9490492 Si02
#       5
#     8  16  16  16  16
#     4   9  18  36  63  87 105 137 190 243 282 320
#     4  10  20  37  57  78 106 141 181 224 272 329
#     4  10  20  36  57  78 105 144 185 222 266 325
#     4  11  22  33  51  83 114 140 176 223 273 325
#     4   8  15  30  50  70  98 138 177 210 251 310
#
# _framework density 21.571999000000002
#
# number of rings (size 3 to 8) (size 9 to 14) (size 15 to 20)
#    0.000    2.333    1.111    2.667    0.000    5.778 
#    0.000    0.556    0.000    2.667    0.000    7.778 
#    0.000    0.000    0.000    0.000    0.000    0.000 
#
# Total GULP energy -201006.675318 kJ/mol
# GULP energy per Si atom -5583.518759 kJ/mol
# Density = 2.152290 g / cm^3
# Si number density = 21.571999 Si / 1000 Ang^3
#
#
#
# Elastic Constant Matrix: (Units=GPa)
#
#
# Indices 1 2 3 4 5 6 
#
# 1 145.6643 87.6807 -7.2206 0.0000 0.0000 0.0000
# 2 87.6807 167.4212 -4.8078 0.0000 0.0000 0.0000
# 3 -7.2206 -4.8078 46.9108 0.0000 0.0000 0.0000
# 4 0.0000 0.0000 0.0000 -81.0911 0.0000 0.0000
# 5 0.0000 0.0000 0.0000 0.0000 10.3296 0.0000
# 6 0.0000 0.0000 0.0000 0.0000 0.0000 -6.2829
#
#
#
# Elastic Compliance Matrix: (Units=1/GPa)
#
#
# Indices 1 2 3 4 5 6 
#
# 1 0.010073 -0.005246 0.001013 0.000000 0.000000 0.000000
# 2 -0.005246 0.008723 0.000086 0.000000 0.000000 0.000000
# 3 0.001013 0.000086 0.021482 0.000000 0.000000 0.000000
# 4 0.000000 0.000000 0.000000 -0.012332 0.000000 0.000000
# 5 0.000000 0.000000 0.000000 0.000000 0.096809 0.000000
# 6 0.000000 0.000000 0.000000 0.000000 0.000000 -0.159163
#
#
# Mechanical properties :
#
#
# Convention : Reuss Voigt Hill
#
# Bulk Modulus (GPa) = 31.26579 56.81124 44.03852
# Shear Modulus (GPa) = -323.59243 3.54739 -160.02252
#
# Velocity S-wave (km/s) = -12.26097 1.28375 -8.62216
# Velocity P-wave (km/s) = 13.63513 5.34698 8.86923
#
# Compressibility (1/GPa) = 0.03198384
#
# Stress axis : x y z
#
# Youngs Moduli (GPa) = 99.27195 114.63839 46.55104
#
# Poissons Ratio (x) = 0.60145 -0.04715
# Poissons Ratio (y) = 0.52083 -0.00403
# Poissons Ratio (z) = -0.10054 -0.00991
#
# Static dielectric constant tensor:
#      x y z
#    x 1.782890 0.000000 0.000000 
#    y 0.000000 1.760140 0.000000 
#    z 0.000000 0.000000 1.814450 
# 
# From -- ./inp_files/7268.got.cif
#   From: 2010.05.17/outbox.cif.g08.bks.cpg/sg65_4_cif.got.tgz:7268.got - 2010.06.03 17:01:31.
