data_PCOD9490696
_publ_section_title
;
Structure prediction by ZEFSAII (Michael W. Deem and Ramdas Pophale) SiO2 
 PCOD9490696
Probable space group: C M M M
;
_chemical_formula_sum "Si O2"
_cell_formula_units_Z 64
_cell_length_a 14.969365
_cell_length_b 13.853655
_cell_length_c 16.993370
_cell_angle_alpha 90.000000
_cell_angle_beta 90.000000
_cell_angle_gamma 90.000000
_cell_volume 3524.092179
_symmetry_space_group_name_H-M "C M M M"
_symmetry_group_IT_number 65
_symmetry_cell_setting 'orthorhombic'
loop_
_space_group_symop_operation_xyz
x,y,z
-x,-y,z
x,-y,-z
-x,y,-z
-x,-y,-z
x,y,-z
-x,y,z
x,-y,z
1/2+x,1/2+y,z
1/2-x,1/2-y,z
1/2+x,1/2-y,-z
1/2-x,1/2+y,-z
1/2-x,1/2-y,-z
1/2+x,1/2+y,-z
1/2-x,1/2+y,z
1/2+x,1/2-y,z
loop_
_atom_site_type_symbol
_atom_site_label
_atom_site_fract_x
_atom_site_fract_y
_atom_site_fract_z
Si Si1 0.102755 0.617993 0.000000
Si Si2 0.097698 0.114347 0.797984
Si Si3 0.792090 0.384627 0.155067
Si Si4 0.652787 0.775214 0.685644
Si Si5 0.500000 0.113634 0.405930
O O1 0.154300 0.648373 0.078649
O O2 0.103158 0.500000 0.000000
O O3 0.000000 0.649280 0.000000
O O4 0.185883 0.135586 0.849276
O O5 0.109388 0.177062 0.719135
O O6 0.000000 0.136695 0.832884
O O7 0.100441 0.000000 0.781217
O O8 0.802981 0.500000 0.161355
O O9 0.827773 0.337136 0.235080
O O10 0.750000 0.750000 0.650680
O O11 0.586444 0.833647 0.630464
O O12 0.500000 0.121340 0.500000
O O13 0.500000 0.000000 0.384644
#
# Coordination Sequence:
#
# PCOD9490696 Si02
#       5
#     8  16  16  16   8
#     4   9  18  30  46  75 116 154 188 235 286 336
#     4   9  17  32  54  77 103 140 190 238 276 327
#     4   9  18  32  52  80 110 144 189 237 286 339
#     4  10  20  36  60  84 112 152 193 232 282 351
#     4  11  24  40  61  92 124 150 184 238 299 351
#
# _framework density 18.160705
#
# number of rings (size 3 to 8) (size 9 to 14) (size 15 to 20)
#    0.000    2.500    1.250    0.750    1.750    1.500 
#    0.000    6.250    0.000    5.250    0.000    0.000 
#    0.000    0.000    0.000    0.000    0.000    0.000 
#
# Total GULP energy -178425.602908 kJ/mol
# GULP energy per Si atom -5575.800091 kJ/mol
# Density = 1.811937 g / cm^3
# Si number density = 18.160705 Si / 1000 Ang^3
#
#
#
# Elastic Constant Matrix: (Units=GPa)
#
#
# Indices 1 2 3 4 5 6 
#
# 1 184.9445 53.8014 76.0879 0.0000 0.0000 0.0000
# 2 53.8014 72.4626 36.7817 0.0000 0.0000 0.0000
# 3 76.0879 36.7817 73.8080 0.0000 0.0000 0.0000
# 4 0.0000 0.0000 0.0000 19.0703 0.0000 0.0000
# 5 0.0000 0.0000 0.0000 0.0000 15.9188 0.0000
# 6 0.0000 0.0000 0.0000 0.0000 0.0000 25.1823
#
#
#
# Elastic Compliance Matrix: (Units=1/GPa)
#
#
# Indices 1 2 3 4 5 6 
#
# 1 0.009819 -0.002881 -0.008686 0.000000 0.000000 0.000000
# 2 -0.002881 0.019318 -0.006657 0.000000 0.000000 0.000000
# 3 -0.008686 -0.006657 0.025821 0.000000 0.000000 0.000000
# 4 0.000000 0.000000 0.000000 0.052438 0.000000 0.000000
# 5 0.000000 0.000000 0.000000 0.000000 0.062819 0.000000
# 6 0.000000 0.000000 0.000000 0.000000 0.000000 0.039710
#
#
# Mechanical properties :
#
#
# Convention : Reuss Voigt Hill
#
# Bulk Modulus (GPa) = 54.02777 73.83970 63.93374
# Shear Modulus (GPa) = 19.79855 23.00388 21.40122
#
# Velocity S-wave (km/s) = 3.30538 3.56291 3.43656
# Velocity P-wave (km/s) = 6.66197 7.59428 7.14335
#
# Compressibility (1/GPa) = 0.01850900
#
# Stress axis : x y z
#
# Youngs Moduli (GPa) = 101.84573 51.76388 38.72828
#
# Poissons Ratio (x) = 0.14913 0.33641
# Poissons Ratio (y) = 0.29342 0.25782
# Poissons Ratio (z) = 0.88467 0.34460
#
# Static dielectric constant tensor:
#      x y z
#    x 1.657170 0.000000 0.000000 
#    y 0.000000 1.650640 0.000000 
#    z 0.000000 0.000000 1.567210 
# 
# From -- ./inp_files/52658.got.cif
#   From: 2010.05.17/outbox.cif.g08.bks.cpg/sg65_27_cif.got.tgz:52658.got - 2010.06.03 17:01:31.
