data_PCOD9490121
_publ_section_title
;
Structure prediction by ZEFSAII (Michael W. Deem and Ramdas Pophale) SiO2 
 PCOD9490121
Probable space group: C M M M
;
_chemical_formula_sum "Si O2"
_cell_formula_units_Z 88
_cell_length_a 31.146929
_cell_length_b 16.789428
_cell_length_c 8.996060
_cell_angle_alpha 90.000000
_cell_angle_beta 90.000000
_cell_angle_gamma 90.000000
_cell_volume 4704.391717
_symmetry_space_group_name_H-M "C M M M"
_symmetry_group_IT_number 65
_symmetry_cell_setting 'orthorhombic'
loop_
_space_group_symop_operation_xyz
x,y,z
-x,-y,z
x,-y,-z
-x,y,-z
-x,-y,-z
x,y,-z
-x,y,z
x,-y,z
1/2+x,1/2+y,z
1/2-x,1/2-y,z
1/2+x,1/2-y,-z
1/2-x,1/2+y,-z
1/2-x,1/2-y,-z
1/2+x,1/2+y,-z
1/2-x,1/2+y,z
1/2+x,1/2-y,z
loop_
_atom_site_type_symbol
_atom_site_label
_atom_site_fract_x
_atom_site_fract_y
_atom_site_fract_z
Si Si1 0.775578 0.330582 0.318518
Si Si2 0.547646 0.095424 0.824258
Si Si3 0.091236 0.842740 0.174016
Si Si4 0.763498 0.000000 0.677105
Si Si5 0.500000 0.407988 0.818956
Si Si6 0.874393 0.311980 0.676894
Si Si7 0.148353 0.000000 0.167579
O O1 0.774074 0.329771 0.500000
O O2 0.750000 0.250000 0.270643
O O3 0.755850 0.415437 0.267995
O O4 0.825549 0.328461 0.273102
O O5 0.500000 0.122872 0.772047
O O6 0.588417 0.132852 0.744442
O O7 0.548757 0.000000 0.808141
O O8 0.550112 0.113650 0.000000
O O9 0.113271 0.776162 0.271801
O O10 0.118448 0.923276 0.181849
O O11 0.043084 0.862685 0.224861
O O12 0.089797 0.817626 0.000000
O O13 0.756977 0.000000 0.500000
O O14 0.813413 0.000000 0.716753
O O15 0.500000 0.500000 0.768315
O O16 0.500000 0.410928 0.000000
O O17 0.875136 0.319626 0.500000
O O18 0.166916 0.000000 0.000000
#
# Coordination Sequence:
#
# PCOD9490121 Si02
#       7
#    16  16  16   8   8  16   8
#     4   9  19  36  56  80 110 148 193 233 277 345
#     4   9  20  40  62  82 109 149 191 227 275 344
#     4  10  20  35  56  81 112 151 192 229 275 337
#     4  10  20  36  61  81 104 147 190 229 286 354
#     4   9  16  32  57  81 104 145 198 233 263 326
#     4  11  23  36  57  87 117 146 188 240 286 332
#     4  10  20  35  56  84 114 143 187 241 285 328
#
# _framework density 18.705925000000001
#
# number of rings (size 3 to 8) (size 9 to 14) (size 15 to 20)
#    0.000    2.273    0.909    2.182    2.545    2.909 
#    0.000    2.727    0.000    5.455    0.000    0.000 
#    0.000    0.000    0.000    0.000    0.000    0.000 
#
# Total GULP energy -245439.633296 kJ/mol
# GULP energy per Si atom -5578.173484 kJ/mol
# Density = 1.866335 g / cm^3
# Si number density = 18.705925 Si / 1000 Ang^3
#
#
#
# Elastic Constant Matrix: (Units=GPa)
#
#
# Indices 1 2 3 4 5 6 
#
# 1 148.6343 60.8736 28.3932 0.0000 0.0000 0.0000
# 2 60.8736 98.1237 21.2066 0.0000 0.0000 0.0000
# 3 28.3932 21.2066 15.7547 0.0000 0.0000 0.0000
# 4 0.0000 0.0000 0.0000 10.2606 0.0000 0.0000
# 5 0.0000 0.0000 0.0000 0.0000 46.1524 0.0000
# 6 0.0000 0.0000 0.0000 0.0000 0.0000 53.0814
#
#
#
# Elastic Compliance Matrix: (Units=1/GPa)
#
#
# Indices 1 2 3 4 5 6 
#
# 1 0.011100 -0.003614 -0.015140 0.000000 0.000000 0.000000
# 2 -0.003614 0.015549 -0.014416 0.000000 0.000000 0.000000
# 3 -0.015140 -0.014416 0.110163 0.000000 0.000000 0.000000
# 4 0.000000 0.000000 0.000000 0.097460 0.000000 0.000000
# 5 0.000000 0.000000 0.000000 0.000000 0.021667 0.000000
# 6 0.000000 0.000000 0.000000 0.000000 0.000000 0.018839
#
#
# Mechanical properties :
#
#
# Convention : Reuss Voigt Hill
#
# Bulk Modulus (GPa) = 14.19011 53.71774 33.95393
# Shear Modulus (GPa) = 13.71328 32.03482 22.87405
#
# Velocity S-wave (km/s) = 2.71052 4.14279 3.50068
# Velocity P-wave (km/s) = 4.17112 7.18769 5.87627
#
# Compressibility (1/GPa) = 0.07047161
#
# Stress axis : x y z
#
# Youngs Moduli (GPa) = 90.08737 64.31256 9.07746
#
# Poissons Ratio (x) = 0.23245 0.13743
# Poissons Ratio (y) = 0.32560 0.13086
# Poissons Ratio (z) = 1.36392 0.92713
#
# Static dielectric constant tensor:
#      x y z
#    x 1.642930 0.000000 0.000000 
#    y 0.000000 1.645470 0.000000 
#    z 0.000000 0.000000 1.636160 
# 
# From -- ./inp_files/18401.got.cif
#   From: 2010.05.17/outbox.cif.g08.bks.cpg/sg65_10_cif.got.tgz:18401.got - 2010.06.03 17:01:31.
