data_PCOD9490684
_publ_section_title
;
Structure prediction by ZEFSAII (Michael W. Deem and Ramdas Pophale) SiO2 
 PCOD9490684
Probable space group: C M M M
;
_chemical_formula_sum "Si O2"
_cell_formula_units_Z 74
_cell_length_a 15.445534
_cell_length_b 17.285640
_cell_length_c 14.795339
_cell_angle_alpha 90.000000
_cell_angle_beta 90.000000
_cell_angle_gamma 90.000000
_cell_volume 3950.147495
_symmetry_space_group_name_H-M "C M M M"
_symmetry_group_IT_number 65
_symmetry_cell_setting 'orthorhombic'
loop_
_space_group_symop_operation_xyz
x,y,z
-x,-y,z
x,-y,-z
-x,y,-z
-x,-y,-z
x,y,-z
-x,y,z
x,-y,z
1/2+x,1/2+y,z
1/2-x,1/2-y,z
1/2+x,1/2-y,-z
1/2-x,1/2+y,-z
1/2-x,1/2-y,-z
1/2+x,1/2+y,-z
1/2-x,1/2+y,z
1/2+x,1/2-y,z
loop_
_atom_site_type_symbol
_atom_site_label
_atom_site_fract_x
_atom_site_fract_y
_atom_site_fract_z
Si Si1 0.500000 0.000000 0.000000
Si Si2 0.500000 0.687436 0.193562
Si Si3 0.000000 0.639502 0.150784
Si Si4 0.317598 0.091617 0.778714
Si Si5 0.000000 0.750005 0.602650
Si Si6 0.189450 0.325444 0.400959
Si Si7 0.654170 0.593012 0.893684
O O1 0.500000 0.929675 0.077115
O O2 0.500000 0.767809 0.136026
O O3 0.500000 0.703252 0.302049
O O4 0.416545 0.638694 0.163526
O O5 0.911247 0.626768 0.204042
O O6 0.286868 0.119787 0.681408
O O7 0.248968 0.114069 0.855813
O O8 0.325606 0.000000 0.781168
O O9 0.911001 0.700891 0.604891
O O10 0.000000 0.787349 0.500000
O O11 0.202899 0.360911 0.500000
O O12 0.250000 0.250000 0.394844
O O13 0.643241 0.500000 0.882929
O O14 0.646223 0.610236 0.000000
#
# Coordination Sequence:
#
# PCOD9490684 Si02
#       7
#     2   8   8  16   8  16  16
#     4  12  28  44  56  88 136 170 200 252 316 364
#     4  12  22  41  66  93 120 156 218 255 301 371
#     4  12  26  39  63  87 123 163 206 251 306 362
#     4  11  22  40  60  87 122 164 201 247 305 368
#     4  10  20  36  60  88 122 158 196 248 307 358
#     4  10  20  36  59  88 120 155 196 249 307 360
#     4  10  24  42  63  88 123 162 206 258 311 359
#
# _framework density 18.733478999999999
#
# number of rings (size 3 to 8) (size 9 to 14) (size 15 to 20)
#    0.000    1.297    3.243    1.946    3.027    1.297 
#    0.000    1.081    0.000    5.838    0.000    0.000 
#    0.000    0.000    0.000    0.000    0.000    0.000 
#
# Total GULP energy -206053.231643 kJ/mol
# GULP energy per Si atom -5569.006261 kJ/mol
# Density = 1.869084 g / cm^3
# Si number density = 18.733479 Si / 1000 Ang^3
#
#
#
# Elastic Constant Matrix: (Units=GPa)
#
#
# Indices 1 2 3 4 5 6 
#
# 1 71.3519 28.0594 10.1990 0.0000 0.0000 0.0000
# 2 28.0594 36.9219 29.5123 0.0000 0.0000 0.0000
# 3 10.1990 29.5123 121.6149 0.0000 0.0000 0.0000
# 4 0.0000 0.0000 0.0000 34.5300 0.0000 0.0000
# 5 0.0000 0.0000 0.0000 0.0000 21.3565 0.0000
# 6 0.0000 0.0000 0.0000 0.0000 0.0000 154.1307
#
#
#
# Elastic Compliance Matrix: (Units=1/GPa)
#
#
# Indices 1 2 3 4 5 6 
#
# 1 0.020618 -0.017725 0.002572 0.000000 0.000000 0.000000
# 2 -0.017725 0.048840 -0.010366 0.000000 0.000000 0.000000
# 3 0.002572 -0.010366 0.010522 0.000000 0.000000 0.000000
# 4 0.000000 0.000000 0.000000 0.028960 0.000000 0.000000
# 5 0.000000 0.000000 0.000000 0.000000 0.046824 0.000000
# 6 0.000000 0.000000 0.000000 0.000000 0.000000 0.006488
#
#
# Mechanical properties :
#
#
# Convention : Reuss Voigt Hill
#
# Bulk Modulus (GPa) = 34.54983 40.60335 37.57659
# Shear Modulus (GPa) = 22.42789 52.81129 37.61959
#
# Velocity S-wave (km/s) = 3.46382 5.31527 4.48610
# Velocity P-wave (km/s) = 5.87199 7.70654 6.85095
#
# Compressibility (1/GPa) = 0.02894370
#
# Stress axis : x y z
#
# Youngs Moduli (GPa) = 48.50194 20.47508 95.03566
#
# Poissons Ratio (x) = 0.36292 -0.24445
# Poissons Ratio (y) = 0.85969 0.98509
# Poissons Ratio (z) = -0.12476 0.21224
#
# Static dielectric constant tensor:
#      x y z
#    x 1.717340 0.000000 0.000000 
#    y 0.000000 1.621240 0.000000 
#    z 0.000000 0.000000 1.664750 
# 
# From -- ./inp_files/39908.got.cif
#   From: 2010.05.17/outbox.cif.g08.bks.cpg/sg65_20_cif.got.tgz:39908.got - 2010.06.03 17:01:31.
