data_PCOD9490884
_publ_section_title
;
Structure prediction by ZEFSAII (Michael W. Deem and Ramdas Pophale) SiO2 
 PCOD9490884
Probable space group: C M M M
;
_chemical_formula_sum "Si O2"
_cell_formula_units_Z 104
_cell_length_a 8.130950
_cell_length_b 23.879437
_cell_length_c 29.302761
_cell_angle_alpha 90.000000
_cell_angle_beta 90.000000
_cell_angle_gamma 90.000000
_cell_volume 5689.497575
_symmetry_space_group_name_H-M "C M M M"
_symmetry_group_IT_number 65
_symmetry_cell_setting 'orthorhombic'
loop_
_space_group_symop_operation_xyz
x,y,z
-x,-y,z
x,-y,-z
-x,y,-z
-x,-y,-z
x,y,-z
-x,y,z
x,-y,z
1/2+x,1/2+y,z
1/2-x,1/2-y,z
1/2+x,1/2-y,-z
1/2-x,1/2+y,-z
1/2-x,1/2-y,-z
1/2+x,1/2+y,-z
1/2-x,1/2+y,z
1/2+x,1/2-y,z
loop_
_atom_site_type_symbol
_atom_site_label
_atom_site_fract_x
_atom_site_fract_y
_atom_site_fract_z
Si Si1 0.301539 0.184864 0.451033
Si Si2 0.192553 0.387380 0.734365
Si Si3 0.194340 0.186116 0.817481
Si Si4 0.188259 0.000000 0.778983
Si Si5 0.199231 0.314999 0.649277
Si Si6 0.801582 0.314806 0.000000
Si Si7 0.200402 0.378016 0.091722
Si Si8 0.306191 0.000000 0.881605
O O1 0.243581 0.160642 0.500000
O O2 0.500000 0.181620 0.451030
O O3 0.250000 0.250000 0.451472
O O4 0.245055 0.164738 0.401182
O O5 0.214156 0.345421 0.776678
O O6 0.275807 0.445013 0.749391
O O7 0.258202 0.355418 0.689610
O O8 0.000000 0.399217 0.727293
O O9 0.250000 0.250000 0.819458
O O10 0.237450 0.156188 0.864789
O O11 0.000000 0.182512 0.809096
O O12 0.287055 0.000000 0.826653
O O13 0.000000 0.000000 0.793569
O O14 0.250000 0.250000 0.655905
O O15 0.000000 0.315481 0.650161
O O16 0.750000 0.250000 0.000000
O O17 0.745990 0.347519 0.954632
O O18 0.000000 0.316023 0.000000
O O19 0.259508 0.442032 0.097690
O O20 0.000000 0.377887 0.092820
O O21 0.500000 0.000000 0.891674
#
# Coordination Sequence:
#
# PCOD9490884 Si02
#       8
#    16  16  16   8  16   8  16   8
#     4   8  13  23  40  64  96 133 171 210 254 306
#     4  11  22  37  55  76 105 140 177 219 270 320
#     4  12  24  37  55  80 109 142 181 220 264 320
#     4  12  24  38  57  81 106 136 179 223 267 318
#     4   9  18  30  47  73 105 140 175 214 261 315
#     4  10  22  39  59  85 115 146 183 221 264 319
#     4  10  21  38  60  85 112 144 180 220 267 317
#     4  10  20  37  62  84 110 142 176 218 267 313
#
# _framework density 18.279294
#
# number of rings (size 3 to 8) (size 9 to 14) (size 15 to 20)
#    0.000    1.846    1.538    3.462    0.000    4.615 
#    0.000    1.538    0.000    0.000    0.000    2.692 
#    0.000    4.308    0.000    0.000    0.000    0.000 
#
# Total GULP energy -290116.329780 kJ/mol
# GULP energy per Si atom -5579.160188 kJ/mol
# Density = 1.823769 g / cm^3
# Si number density = 18.279294 Si / 1000 Ang^3
#
#
#
# Elastic Constant Matrix: (Units=GPa)
#
#
# Indices 1 2 3 4 5 6 
#
# 1 12.9178 -6.2577 -16.2585 0.0000 0.0000 0.0000
# 2 -6.2577 131.9109 61.6388 0.0000 0.0000 0.0000
# 3 -16.2585 61.6388 151.6783 0.0000 0.0000 0.0000
# 4 0.0000 0.0000 0.0000 -11.0091 0.0000 0.0000
# 5 0.0000 0.0000 0.0000 0.0000 -1.0160 0.0000
# 6 0.0000 0.0000 0.0000 0.0000 0.0000 16.7896
#
#
#
# Elastic Compliance Matrix: (Units=1/GPa)
#
#
# Indices 1 2 3 4 5 6 
#
# 1 0.089495 -0.000293 0.009712 0.000000 0.000000 0.000000
# 2 -0.000293 0.009359 -0.003835 0.000000 0.000000 0.000000
# 3 0.009712 -0.003835 0.009192 0.000000 0.000000 0.000000
# 4 0.000000 0.000000 0.000000 -0.090834 0.000000 0.000000
# 5 0.000000 0.000000 0.000000 0.000000 -0.984267 0.000000
# 6 0.000000 0.000000 0.000000 0.000000 0.000000 0.059561
#
#
# Mechanical properties :
#
#
# Convention : Reuss Voigt Hill
#
# Bulk Modulus (GPa) = 8.38821 41.63913 25.01367
# Shear Modulus (GPa) = -5.68876 18.11186 6.21155
#
# Velocity S-wave (km/s) = -1.76604 3.15118 1.84540
# Velocity P-wave (km/s) = 0.66359 6.00573 4.27253
#
# Compressibility (1/GPa) = 0.11921489
#
# Stress axis : x y z
#
# Youngs Moduli (GPa) = 11.17387 106.85131 108.78780
#
# Poissons Ratio (x) = 0.03127 -1.05653
# Poissons Ratio (y) = 0.00327 0.41716
# Poissons Ratio (z) = -0.10852 0.40973
#
# Static dielectric constant tensor:
#      x y z
#    x 1.815920 0.000000 0.000000 
#    y 0.000000 1.604090 0.000000 
#    z 0.000000 0.000000 1.656030 
# 
# From -- ./inp_files/76954.got.cif
#   From: 2010.05.17/outbox.cif.g08.bks.cpg/sg65_39_cif.got.tgz:76954.got - 2010.06.03 17:01:31.
