data_PCOD9490813
_publ_section_title
;
Structure prediction by ZEFSAII (Michael W. Deem and Ramdas Pophale) SiO2 
 PCOD9490813
Probable space group: C M M M
;
_chemical_formula_sum "Si O2"
_cell_formula_units_Z 104
_cell_length_a 29.680692
_cell_length_b 7.739203
_cell_length_c 22.620453
_cell_angle_alpha 90.000000
_cell_angle_beta 90.000000
_cell_angle_gamma 90.000000
_cell_volume 5196.028907
_symmetry_space_group_name_H-M "C M M M"
_symmetry_group_IT_number 65
_symmetry_cell_setting 'orthorhombic'
loop_
_space_group_symop_operation_xyz
x,y,z
-x,-y,z
x,-y,-z
-x,y,-z
-x,-y,-z
x,y,-z
-x,y,z
x,-y,z
1/2+x,1/2+y,z
1/2-x,1/2-y,z
1/2+x,1/2-y,-z
1/2-x,1/2+y,-z
1/2-x,1/2-y,-z
1/2+x,1/2+y,-z
1/2-x,1/2+y,z
1/2+x,1/2-y,z
loop_
_atom_site_type_symbol
_atom_site_label
_atom_site_fract_x
_atom_site_fract_y
_atom_site_fract_z
Si Si1 0.699224 0.702357 0.322047
Si Si2 0.198578 0.207602 0.810553
Si Si3 0.605929 0.290243 0.859460
Si Si4 0.552994 0.000000 0.929228
Si Si5 0.551045 0.290527 0.608884
Si Si6 0.855480 0.299529 0.563012
Si Si7 0.050602 0.790939 0.256510
O O1 0.697493 0.500000 0.312552
O O2 0.750000 0.750000 0.339433
O O3 0.690543 0.778863 0.256468
O O4 0.666305 0.736473 0.376261
O O5 0.250000 0.250000 0.826858
O O6 0.158521 0.260529 0.854349
O O7 0.194933 0.000000 0.808715
O O8 0.601305 0.500000 0.869479
O O9 0.585365 0.249128 0.794537
O O10 0.578075 0.170336 0.903928
O O11 0.500000 0.000000 0.911874
O O12 0.555263 0.000000 0.000000
O O13 0.500000 0.239226 0.593356
O O14 0.552628 0.500000 0.607419
O O15 0.590960 0.222663 0.569016
O O16 0.560160 0.232910 0.676732
O O17 0.840780 0.219580 0.500000
O O18 0.844087 0.500000 0.560872
O O19 0.000000 0.733227 0.240612
O O20 0.049821 0.000000 0.259582
#
# Coordination Sequence:
#
# PCOD9490813 Si02
#       7
#    16  16  16   8  16  16  16
#     4  10  20  37  59  84 114 141 177 229 289 352
#     4   9  19  34  58  93 124 153 188 237 302 364
#     4  10  20  37  62  91 123 166 205 249 302 358
#     4  11  26  44  62  92 130 168 215 259 294 344
#     4   9  18  34  55  77 102 134 175 232 295 354
#     4  11  24  38  50  68  99 143 191 235 280 340
#     4   8  14  28  52  80 110 139 174 226 292 357
#
# _framework density 20.015284000000001
#
# number of rings (size 3 to 8) (size 9 to 14) (size 15 to 20)
#    0.000    2.385    0.000    3.231    1.077    6.462 
#    4.154    2.308    0.000    0.462    0.000    0.000 
#    0.000    0.000    0.000    0.000    0.000    0.000 
#
# Total GULP energy -289980.076307 kJ/mol
# GULP energy per Si atom -5576.539929 kJ/mol
# Density = 1.996973 g / cm^3
# Si number density = 20.015284 Si / 1000 Ang^3
#
#
#
# Elastic Constant Matrix: (Units=GPa)
#
#
# Indices 1 2 3 4 5 6 
#
# 1 126.0373 27.6650 62.9521 0.0000 0.0000 0.0000
# 2 27.6650 54.1070 21.2442 0.0000 0.0000 0.0000
# 3 62.9521 21.2442 58.7515 0.0000 0.0000 0.0000
# 4 0.0000 0.0000 0.0000 17.8298 0.0000 0.0000
# 5 0.0000 0.0000 0.0000 0.0000 -9.3350 0.0000
# 6 0.0000 0.0000 0.0000 0.0000 0.0000 27.5489
#
#
#
# Elastic Compliance Matrix: (Units=1/GPa)
#
#
# Indices 1 2 3 4 5 6 
#
# 1 0.017222 -0.001818 -0.017795 0.000000 0.000000 0.000000
# 2 -0.001818 0.021732 -0.005910 0.000000 0.000000 0.000000
# 3 -0.017795 -0.005910 0.038226 0.000000 0.000000 0.000000
# 4 0.000000 0.000000 0.000000 0.056086 0.000000 0.000000
# 5 0.000000 0.000000 0.000000 0.000000 -0.107124 0.000000
# 6 0.000000 0.000000 0.000000 0.000000 0.000000 0.036299
#
#
# Mechanical properties :
#
#
# Convention : Reuss Voigt Hill
#
# Bulk Modulus (GPa) = 38.26724 51.40206 44.83465
# Shear Modulus (GPa) = 40.91704 15.67769 28.29736
#
# Velocity S-wave (km/s) = 4.52629 2.80176 3.76412
# Velocity P-wave (km/s) = 6.81740 6.01695 6.42964
#
# Compressibility (1/GPa) = 0.02613202
#
# Stress axis : x y z
#
# Youngs Moduli (GPa) = 58.06660 46.01510 26.16052
#
# Poissons Ratio (x) = 0.08367 0.46554
# Poissons Ratio (y) = 0.10559 0.15460
# Poissons Ratio (z) = 1.03332 0.27194
#
# Static dielectric constant tensor:
#      x y z
#    x 1.724670 0.000000 0.000000 
#    y 0.000000 1.772190 0.000000 
#    z 0.000000 0.000000 1.775760 
# 
# From -- ./inp_files/71796.got.cif
#   From: 2010.05.17/outbox.cif.g08.bks.cpg/sg65_36_cif.got.tgz:71796.got - 2010.06.03 17:01:31.
