data_PCOD9490562
_publ_section_title
;
Structure prediction by ZEFSAII (Michael W. Deem and Ramdas Pophale) SiO2 
 PCOD9490562
Probable space group: C M M M
;
_chemical_formula_sum "Si O2"
_cell_formula_units_Z 72
_cell_length_a 8.222598
_cell_length_b 15.897104
_cell_length_c 29.000195
_cell_angle_alpha 90.000000
_cell_angle_beta 90.000000
_cell_angle_gamma 90.000000
_cell_volume 3790.774861
_symmetry_space_group_name_H-M "C M M M"
_symmetry_group_IT_number 65
_symmetry_cell_setting 'orthorhombic'
loop_
_space_group_symop_operation_xyz
x,y,z
-x,-y,z
x,-y,-z
-x,y,-z
-x,-y,-z
x,y,-z
-x,y,z
x,-y,z
1/2+x,1/2+y,z
1/2-x,1/2-y,z
1/2+x,1/2-y,-z
1/2-x,1/2+y,-z
1/2-x,1/2-y,-z
1/2+x,1/2+y,-z
1/2-x,1/2+y,z
1/2+x,1/2-y,z
loop_
_atom_site_type_symbol
_atom_site_label
_atom_site_fract_x
_atom_site_fract_y
_atom_site_fract_z
Si Si1 0.196245 0.657021 0.218447
Si Si2 0.805972 0.000000 0.947638
Si Si3 0.803792 0.656793 0.447082
Si Si4 0.805651 0.656984 0.112709
Si Si5 0.300789 0.000000 0.385699
Si Si6 0.800835 0.500000 0.720324
O O1 0.250000 0.750000 0.233099
O O2 0.253278 0.643719 0.165580
O O3 0.252393 0.582948 0.251983
O O4 0.000000 0.655015 0.217806
O O5 0.752430 0.917141 0.920130
O O6 0.000000 0.000000 0.949586
O O7 0.741402 0.000000 0.000000
O O8 0.747979 0.642842 0.500000
O O9 0.750000 0.750000 0.432832
O O10 0.747591 0.583008 0.413359
O O11 0.000000 0.654817 0.447600
O O12 0.750000 0.750000 0.098005
O O13 0.000000 0.655625 0.113657
O O14 0.500000 0.000000 0.385811
O O15 0.248041 0.000000 0.332684
O O16 0.000000 0.500000 0.720408
#
# Coordination Sequence:
#
# PCOD9490562 Si02
#       6
#    16   8  16  16   8   8
#     4   9  18  33  53  76 100 128 164 205 246 291
#     4  11  24  39  55  79 110 141 173 211 256 305
#     4   9  17  30  48  69  92 121 161 205 245 288
#     4  10  20  36  58  81 105 136 174 214 256 302
#     4   9  17  29  47  69  94 129 165 196 238 295
#     4   9  17  30  48  71 100 131 162 197 242 295
#
# _framework density 18.993476999999999
#
# number of rings (size 3 to 8) (size 9 to 14) (size 15 to 20)
#    0.000    2.556    0.000    2.000    0.000    6.222 
#    0.000    1.111    0.000    4.000    0.000    0.000 
#    0.000    0.000    0.000    0.000    0.000    0.000 
#
# Total GULP energy -200915.354308 kJ/mol
# GULP energy per Si atom -5580.982064 kJ/mol
# Density = 1.895025 g / cm^3
# Si number density = 18.993477 Si / 1000 Ang^3
#
#
#
# Elastic Constant Matrix: (Units=GPa)
#
#
# Indices 1 2 3 4 5 6 
#
# 1 14.2369 18.9047 16.5151 0.0000 0.0000 0.0000
# 2 18.9047 222.3678 147.4807 0.0000 0.0000 0.0000
# 3 16.5151 147.4807 140.2162 0.0000 0.0000 0.0000
# 4 0.0000 0.0000 0.0000 -6.6898 0.0000 0.0000
# 5 0.0000 0.0000 0.0000 0.0000 12.5032 0.0000
# 6 0.0000 0.0000 0.0000 0.0000 0.0000 32.1109
#
#
#
# Elastic Compliance Matrix: (Units=1/GPa)
#
#
# Indices 1 2 3 4 5 6 
#
# 1 0.081588 -0.001861 -0.007652 0.000000 0.000000 0.000000
# 2 -0.001861 0.014913 -0.015467 0.000000 0.000000 0.000000
# 3 -0.007652 -0.015467 0.024301 0.000000 0.000000 0.000000
# 4 0.000000 0.000000 0.000000 -0.149480 0.000000 0.000000
# 5 0.000000 0.000000 0.000000 0.000000 0.079980 0.000000
# 6 0.000000 0.000000 0.000000 0.000000 0.000000 0.031142
#
#
# Mechanical properties :
#
#
# Convention : Reuss Voigt Hill
#
# Bulk Modulus (GPa) = 14.11584 82.51356 48.31470
# Shear Modulus (GPa) = 32.04765 20.51287 26.28026
#
# Velocity S-wave (km/s) = 4.11213 3.28989 3.72378
# Velocity P-wave (km/s) = 5.47670 7.61371 6.63185
#
# Compressibility (1/GPa) = 0.07084242
#
# Stress axis : x y z
#
# Youngs Moduli (GPa) = 12.25671 67.05467 41.15036
#
# Poissons Ratio (x) = 0.12479 0.31489
# Poissons Ratio (y) = 0.02281 0.63646
# Poissons Ratio (z) = 0.09379 1.03711
#
# Static dielectric constant tensor:
#      x y z
#    x 1.662080 0.000000 0.000000 
#    y 0.000000 1.621620 0.000000 
#    z 0.000000 0.000000 1.655970 
# 
# From -- ./inp_files/72589.got.cif
#   From: 2010.05.17/outbox.cif.g08.bks.cpg/sg65_37_cif.got.tgz:72589.got - 2010.06.03 17:01:31.
