data_PCOD9490796
_publ_section_title
;
Structure prediction by ZEFSAII (Michael W. Deem and Ramdas Pophale) SiO2 
 PCOD9490796
Probable space group: C M M M
;
_chemical_formula_sum "Si O2"
_cell_formula_units_Z 72
_cell_length_a 15.845294
_cell_length_b 8.546988
_cell_length_c 28.830130
_cell_angle_alpha 90.000000
_cell_angle_beta 90.000000
_cell_angle_gamma 90.000000
_cell_volume 3904.451177
_symmetry_space_group_name_H-M "C M M M"
_symmetry_group_IT_number 65
_symmetry_cell_setting 'orthorhombic'
loop_
_space_group_symop_operation_xyz
x,y,z
-x,-y,z
x,-y,-z
-x,y,-z
-x,-y,-z
x,y,-z
-x,y,z
x,-y,z
1/2+x,1/2+y,z
1/2-x,1/2-y,z
1/2+x,1/2-y,-z
1/2-x,1/2+y,-z
1/2-x,1/2-y,-z
1/2+x,1/2+y,-z
1/2-x,1/2+y,z
1/2+x,1/2-y,z
loop_
_atom_site_type_symbol
_atom_site_label
_atom_site_fract_x
_atom_site_fract_y
_atom_site_fract_z
Si Si1 0.341972 0.188753 0.053445
Si Si2 0.000000 0.310156 0.115587
Si Si3 0.157473 0.312156 0.278001
Si Si4 0.000000 0.186166 0.219919
Si Si5 0.158247 0.688595 0.614551
Si Si6 0.500000 0.191371 0.553346
O O1 0.250000 0.250000 0.067430
O O2 0.416954 0.239942 0.087101
O O3 0.340357 0.000000 0.053765
O O4 0.357531 0.238526 0.000000
O O5 0.000000 0.500000 0.117244
O O6 0.000000 0.246143 0.167307
O O7 0.157463 0.500000 0.276006
O O8 0.250000 0.250000 0.264414
O O9 0.143078 0.264127 0.331844
O O10 0.082903 0.248185 0.246314
O O11 0.000000 0.000000 0.220737
O O12 0.159880 0.500000 0.613726
O O13 0.250000 0.750000 0.600470
O O14 0.083204 0.742142 0.581204
O O15 0.500000 0.242066 0.500000
O O16 0.500000 0.000000 0.553559
#
# Coordination Sequence:
#
# PCOD9490796 Si02
#       6
#    16   8  16   8  16   8
#     4   9  18  34  57  82 106 136 176 219 262 310
#     4  10  21  37  55  76 108 147 180 214 263 319
#     4  10  20  37  59  81 106 138 180 227 274 322
#     4  12  25  38  54  80 112 145 182 222 270 326
#     4   9  18  33  54  78 102 133 174 218 262 311
#     4   9  17  30  49  74 106 143 176 206 251 313
#
# _framework density 18.440491999999999
#
# number of rings (size 3 to 8) (size 9 to 14) (size 15 to 20)
#    0.000    2.333    0.000    2.667    0.000    6.222 
#    0.000    2.778    0.000    4.000    0.000    0.000 
#    0.000    0.000    0.000    0.000    0.000    0.000 
#
# Total GULP energy -200985.730081 kJ/mol
# GULP energy per Si atom -5582.936947 kJ/mol
# Density = 1.839852 g / cm^3
# Si number density = 18.440492 Si / 1000 Ang^3
#
#
#
# Elastic Constant Matrix: (Units=GPa)
#
#
# Indices 1 2 3 4 5 6 
#
# 1 218.6299 41.2621 144.1538 0.0000 0.0000 0.0000
# 2 41.2621 28.9057 32.4263 0.0000 0.0000 0.0000
# 3 144.1538 32.4263 136.2618 0.0000 0.0000 0.0000
# 4 0.0000 0.0000 0.0000 16.6154 0.0000 0.0000
# 5 0.0000 0.0000 0.0000 0.0000 -10.1918 0.0000
# 6 0.0000 0.0000 0.0000 0.0000 0.0000 33.8435
#
#
#
# Elastic Compliance Matrix: (Units=1/GPa)
#
#
# Indices 1 2 3 4 5 6 
#
# 1 0.015664 -0.005143 -0.015347 0.000000 0.000000 0.000000
# 2 -0.005143 0.048883 -0.006191 0.000000 0.000000 0.000000
# 3 -0.015347 -0.006191 0.025048 0.000000 0.000000 0.000000
# 4 0.000000 0.000000 0.000000 0.060185 0.000000 0.000000
# 5 0.000000 0.000000 0.000000 0.000000 -0.098118 0.000000
# 6 0.000000 0.000000 0.000000 0.000000 0.000000 0.029548
#
#
# Mechanical properties :
#
#
# Convention : Reuss Voigt Hill
#
# Bulk Modulus (GPa) = 27.60064 91.05354 59.32709
# Shear Modulus (GPa) = 34.09485 19.11708 26.60597
#
# Velocity S-wave (km/s) = 4.30456 3.22326 3.80254
# Velocity P-wave (km/s) = 6.30124 7.95844 7.17782
#
# Compressibility (1/GPa) = 0.03623104
#
# Stress axis : x y z
#
# Youngs Moduli (GPa) = 63.84225 20.45710 39.92344
#
# Poissons Ratio (x) = 0.10522 0.61270
# Poissons Ratio (y) = 0.32836 0.24719
# Poissons Ratio (z) = 0.97978 0.12666
#
# Static dielectric constant tensor:
#      x y z
#    x 1.608260 0.000000 0.000000 
#    y 0.000000 1.625430 0.000000 
#    z 0.000000 0.000000 1.618520 
# 
# From -- ./inp_files/72567.got.cif
#   From: 2010.05.17/outbox.cif.g08.bks.cpg/sg65_37_cif.got.tgz:72567.got - 2010.06.03 17:01:31.
