data_PCOD9490112
_publ_section_title
;
Structure prediction by ZEFSAII (Michael W. Deem and Ramdas Pophale) SiO2 
 PCOD9490112
Probable space group: C M M M
;
_chemical_formula_sum "Si O2"
_cell_formula_units_Z 80
_cell_length_a 8.396513
_cell_length_b 27.496404
_cell_length_c 15.206476
_cell_angle_alpha 90.000000
_cell_angle_beta 90.000000
_cell_angle_gamma 90.000000
_cell_volume 3510.778627
_symmetry_space_group_name_H-M "C M M M"
_symmetry_group_IT_number 65
_symmetry_cell_setting 'orthorhombic'
loop_
_space_group_symop_operation_xyz
x,y,z
-x,-y,z
x,-y,-z
-x,y,-z
-x,-y,-z
x,y,-z
-x,y,z
x,-y,z
1/2+x,1/2+y,z
1/2-x,1/2-y,z
1/2+x,1/2-y,-z
1/2-x,1/2+y,-z
1/2-x,1/2-y,-z
1/2+x,1/2+y,-z
1/2-x,1/2+y,z
1/2+x,1/2-y,z
loop_
_atom_site_type_symbol
_atom_site_label
_atom_site_fract_x
_atom_site_fract_y
_atom_site_fract_z
Si Si1 0.826615 0.903602 0.899385
Si Si2 0.500000 0.942407 0.896700
Si Si3 0.320014 0.896525 0.605837
Si Si4 0.315744 0.500000 0.607364
Si Si5 0.185801 0.301830 0.128191
Si Si6 0.313331 0.701057 0.322453
O O1 0.665954 0.924218 0.856461
O O2 0.793753 0.846206 0.903441
O O3 0.000000 0.913283 0.858553
O O4 0.832197 0.922750 0.000000
O O5 0.500000 0.000000 0.896868
O O6 0.500000 0.925296 0.000000
O O7 0.321478 0.899000 0.500000
O O8 0.500000 0.887478 0.636778
O O9 0.262657 0.949501 0.637397
O O10 0.213786 0.850413 0.631199
O O11 0.500000 0.500000 0.632174
O O12 0.306941 0.500000 0.500000
O O13 0.250000 0.250000 0.097058
O O14 0.210969 0.301516 0.233223
O O15 0.000000 0.309018 0.106543
O O16 0.500000 0.706945 0.302090
O O17 0.250000 0.750000 0.370295
#
# Coordination Sequence:
#
# PCOD9490112 Si02
#       6
#    16   8  16   8  16  16
#     4  10  20  35  56  84 115 146 186 233 278 328
#     4   9  18  34  56  82 112 148 187 229 280 330
#     4  10  20  35  56  81 109 142 180 224 272 323
#     4   9  17  31  53  81 109 139 176 217 268 325
#     4  11  21  36  57  80 110 147 184 223 274 333
#     4  11  22  37  56  79 108 144 185 224 272 331
#
# _framework density 22.786968000000002
#
# number of rings (size 3 to 8) (size 9 to 14) (size 15 to 20)
#    0.000    1.800    1.000    5.700    0.000    3.600 
#    0.000    2.000    2.200    0.000    0.000    0.000 
#    0.000    0.000    0.000    0.000    0.000    0.000 
#
# Total GULP energy -223464.539597 kJ/mol
# GULP energy per Si atom -5586.613490 kJ/mol
# Density = 2.273510 g / cm^3
# Si number density = 22.786968 Si / 1000 Ang^3
#
#
#
# Elastic Constant Matrix: (Units=GPa)
#
#
# Indices 1 2 3 4 5 6 
#
# 1 194.6991 49.9781 11.8541 0.0000 0.0000 0.0000
# 2 49.9781 132.9439 16.1842 0.0000 0.0000 0.0000
# 3 11.8541 16.1842 27.7276 0.0000 0.0000 0.0000
# 4 0.0000 0.0000 0.0000 20.4681 0.0000 0.0000
# 5 0.0000 0.0000 0.0000 0.0000 591.4897 0.0000
# 6 0.0000 0.0000 0.0000 0.0000 0.0000 35.0597
#
#
#
# Elastic Compliance Matrix: (Units=1/GPa)
#
#
# Indices 1 2 3 4 5 6 
#
# 1 0.005727 -0.001997 -0.001283 0.000000 0.000000 0.000000
# 2 -0.001997 0.008794 -0.004279 0.000000 0.000000 0.000000
# 3 -0.001283 -0.004279 0.039111 0.000000 0.000000 0.000000
# 4 0.000000 0.000000 0.000000 0.048856 0.000000 0.000000
# 5 0.000000 0.000000 0.000000 0.000000 0.001691 0.000000
# 6 0.000000 0.000000 0.000000 0.000000 0.000000 0.028523
#
#
# Mechanical properties :
#
#
# Convention : Reuss Voigt Hill
#
# Bulk Modulus (GPa) = 25.96439 56.82262 41.39350
# Shear Modulus (GPa) = 31.12227 147.89378 89.50802
#
# Velocity S-wave (km/s) = 3.69967 8.06497 6.27420
# Velocity P-wave (km/s) = 5.44695 10.56956 8.40788
#
# Compressibility (1/GPa) = 0.03851429
#
# Stress axis : x y z
#
# Youngs Moduli (GPa) = 174.61815 113.72002 25.56813
#
# Poissons Ratio (x) = 0.22707 0.03280
# Poissons Ratio (y) = 0.34866 0.10941
# Poissons Ratio (z) = 0.22401 0.48661
#
# Static dielectric constant tensor:
#      x y z
#    x 1.851090 0.000000 0.000000 
#    y 0.000000 1.856580 0.000000 
#    z 0.000000 0.000000 1.888150 
# 
# From -- ./inp_files/49952.got.cif
#   From: 2010.05.17/outbox.cif.g08.bks.cpg/sg65_25_cif.got.tgz:49952.got - 2010.06.03 17:01:31.
