data_PCOD9490817
_publ_section_title
;
Structure prediction by ZEFSAII (Michael W. Deem and Ramdas Pophale) SiO2 
 PCOD9490817
Probable space group: C M M M
;
_chemical_formula_sum "Si O2"
_cell_formula_units_Z 88
_cell_length_a 8.443715
_cell_length_b 24.249636
_cell_length_c 23.305672
_cell_angle_alpha 90.000000
_cell_angle_beta 90.000000
_cell_angle_gamma 90.000000
_cell_volume 4771.999837
_symmetry_space_group_name_H-M "C M M M"
_symmetry_group_IT_number 65
_symmetry_cell_setting 'orthorhombic'
loop_
_space_group_symop_operation_xyz
x,y,z
-x,-y,z
x,-y,-z
-x,y,-z
-x,-y,-z
x,y,-z
-x,y,z
x,-y,z
1/2+x,1/2+y,z
1/2-x,1/2-y,z
1/2+x,1/2-y,-z
1/2-x,1/2+y,-z
1/2-x,1/2-y,-z
1/2+x,1/2+y,-z
1/2-x,1/2+y,z
1/2+x,1/2-y,z
loop_
_atom_site_type_symbol
_atom_site_label
_atom_site_fract_x
_atom_site_fract_y
_atom_site_fract_z
Si Si1 0.191010 0.936499 0.433959
Si Si2 0.308578 0.812028 0.000000
Si Si3 0.310435 0.886758 0.677699
Si Si4 0.807466 0.500000 0.130284
Si Si5 0.311930 0.312190 0.223128
Si Si6 0.307633 0.000000 0.263346
Si Si7 0.691985 0.121980 0.112309
O O1 0.235215 0.924995 0.500000
O O2 0.259754 0.893929 0.388144
O O3 0.000000 0.935773 0.430483
O O4 0.242780 0.000000 0.421123
O O5 0.250000 0.750000 0.000000
O O6 0.254971 0.842686 0.057754
O O7 0.500000 0.812788 0.000000
O O8 0.500000 0.884209 0.681508
O O9 0.241722 0.837663 0.715972
O O10 0.253054 0.944091 0.706734
O O11 0.762738 0.500000 0.197119
O O12 0.754230 0.441438 0.105662
O O13 0.000000 0.500000 0.126940
O O14 0.500000 0.311843 0.220050
O O15 0.250000 0.250000 0.215931
O O16 0.247078 0.350819 0.171814
O O17 0.500000 0.000000 0.265961
O O18 0.500000 0.121919 0.113692
#
# Coordination Sequence:
#
# PCOD9490817 Si02
#       7
#    16   8  16   8  16   8  16
#     4   9  18  32  50  78 118 157 191 230 276 328
#     4  10  22  37  57  81 109 148 195 238 281 328
#     4  11  20  34  56  83 114 149 188 232 280 334
#     4   9  16  31  56  82 115 146 176 220 278 335
#     4  12  25  40  58  82 109 144 187 235 284 336
#     4   9  16  28  50  81 112 146 177 217 275 332
#     4  10  20  37  59  85 114 147 184 229 280 337
#
# _framework density 18.440905000000001
#
# number of rings (size 3 to 8) (size 9 to 14) (size 15 to 20)
#    0.000    1.818    2.727    3.273    0.000    2.909 
#    0.000    4.091    0.000    0.545    0.000    1.909 
#    0.000    0.000    0.000    0.000    0.000    0.000 
#
# Total GULP energy -245620.555918 kJ/mol
# GULP energy per Si atom -5582.285362 kJ/mol
# Density = 1.839893 g / cm^3
# Si number density = 18.440905 Si / 1000 Ang^3
#
#
#
# Elastic Constant Matrix: (Units=GPa)
#
#
# Indices 1 2 3 4 5 6 
#
# 1 36.7132 24.1328 21.3380 0.0000 0.0000 0.0000
# 2 24.1328 140.6358 65.4321 0.0000 0.0000 0.0000
# 3 21.3380 65.4321 117.9372 0.0000 0.0000 0.0000
# 4 0.0000 0.0000 0.0000 20.1110 0.0000 0.0000
# 5 0.0000 0.0000 0.0000 0.0000 19.7033 0.0000
# 6 0.0000 0.0000 0.0000 0.0000 0.0000 20.4698
#
#
#
# Elastic Compliance Matrix: (Units=1/GPa)
#
#
# Indices 1 2 3 4 5 6 
#
# 1 0.031843 -0.003752 -0.003679 0.000000 0.000000 0.000000
# 2 -0.003752 0.010027 -0.004884 0.000000 0.000000 0.000000
# 3 -0.003679 -0.004884 0.011854 0.000000 0.000000 0.000000
# 4 0.000000 0.000000 0.000000 0.049724 0.000000 0.000000
# 5 0.000000 0.000000 0.000000 0.000000 0.050753 0.000000
# 6 0.000000 0.000000 0.000000 0.000000 0.000000 0.048853
#
#
# Mechanical properties :
#
#
# Convention : Reuss Voigt Hill
#
# Bulk Modulus (GPa) = 34.37268 57.45467 45.91368
# Shear Modulus (GPa) = 21.06298 24.34903 22.70600
#
# Velocity S-wave (km/s) = 3.38329 3.63765 3.51277
# Velocity P-wave (km/s) = 5.82598 6.99050 6.43464
#
# Compressibility (1/GPa) = 0.02909287
#
# Stress axis : x y z
#
# Youngs Moduli (GPa) = 31.40382 99.73289 84.35631
#
# Poissons Ratio (x) = 0.37423 0.31039
# Poissons Ratio (y) = 0.11784 0.41200
# Poissons Ratio (z) = 0.11555 0.48710
#
# Static dielectric constant tensor:
#      x y z
#    x 1.639710 0.000000 0.000000 
#    y 0.000000 1.629760 0.000000 
#    z 0.000000 0.000000 1.631350 
# 
# From -- ./inp_files/59944.got.cif
#   From: 2010.05.17/outbox.cif.g08.bks.cpg/sg65_30_cif.got.tgz:59944.got - 2010.06.03 17:01:31.
