data_PCOD9490997
_publ_section_title
;
Structure prediction by ZEFSAII (Michael W. Deem and Ramdas Pophale) SiO2 
 PCOD9490997
Probable space group: C M M M
;
_chemical_formula_sum "Si O2"
_cell_formula_units_Z 48
_cell_length_a 14.386300
_cell_length_b 9.910251
_cell_length_c 15.235771
_cell_angle_alpha 90.000000
_cell_angle_beta 90.000000
_cell_angle_gamma 90.000000
_cell_volume 2172.191966
_symmetry_space_group_name_H-M "C M M M"
_symmetry_group_IT_number 65
_symmetry_cell_setting 'orthorhombic'
loop_
_space_group_symop_operation_xyz
x,y,z
-x,-y,z
x,-y,-z
-x,y,-z
-x,-y,-z
x,y,-z
-x,y,z
x,-y,z
1/2+x,1/2+y,z
1/2-x,1/2-y,z
1/2+x,1/2-y,-z
1/2-x,1/2+y,-z
1/2-x,1/2-y,-z
1/2+x,1/2+y,-z
1/2-x,1/2+y,z
1/2+x,1/2-y,z
loop_
_atom_site_type_symbol
_atom_site_label
_atom_site_fract_x
_atom_site_fract_y
_atom_site_fract_z
Si Si1 0.399673 0.000000 0.139484
Si Si2 0.113658 0.655620 0.399731
Si Si3 0.894079 0.212448 0.769722
Si Si4 0.307733 0.500000 0.900786
O O1 0.398156 0.865625 0.197010
O O2 0.500000 0.000000 0.093299
O O3 0.302894 0.000000 0.090021
O O4 0.138882 0.687304 0.500000
O O5 0.143399 0.500000 0.381287
O O6 0.143300 0.768080 0.328913
O O7 0.000000 0.653992 0.394799
O O8 0.838240 0.126078 0.840575
O O9 0.000000 0.159758 0.767430
O O10 0.348301 0.500000 0.000000
#
# Coordination Sequence:
#
# PCOD9490997 Si02
#       4
#     8  16  16   8
#     4  10  22  42  68  90 112 154 214 268 309 364
#     4   8  13  26  56  95 128 162 205 247 294 358
#     4  10  20  38  64  94 128 165 204 250 305 369
#     4  12  27  43  59  85 126 170 205 256 328 376
#
# _framework density 22.097493
#
# number of rings (size 3 to 8) (size 9 to 14) (size 15 to 20)
#    0.000    2.333    1.667    2.500    0.000    4.333 
#    0.000    4.167    0.000   10.000    0.000    0.000 
#    0.000    0.000    0.000    0.333    0.000    0.333 
#
# Total GULP energy -133861.267758 kJ/mol
# GULP energy per Si atom -5577.552823 kJ/mol
# Density = 2.204720 g / cm^3
# Si number density = 22.097493 Si / 1000 Ang^3
#
#
#
# Elastic Constant Matrix: (Units=GPa)
#
#
# Indices 1 2 3 4 5 6 
#
# 1 108.6684 18.0082 44.9166 0.0000 0.0000 0.0000
# 2 18.0082 114.0791 70.9496 0.0000 0.0000 0.0000
# 3 44.9166 70.9496 211.8517 0.0000 0.0000 0.0000
# 4 0.0000 0.0000 0.0000 49.3018 0.0000 0.0000
# 5 0.0000 0.0000 0.0000 0.0000 13.5425 0.0000
# 6 0.0000 0.0000 0.0000 0.0000 0.0000 27.0925
#
#
#
# Elastic Compliance Matrix: (Units=1/GPa)
#
#
# Indices 1 2 3 4 5 6 
#
# 1 0.010096 -0.000332 -0.002030 0.000000 0.000000 0.000000
# 2 -0.000332 0.011083 -0.003641 0.000000 0.000000 0.000000
# 3 -0.002030 -0.003641 0.006370 0.000000 0.000000 0.000000
# 4 0.000000 0.000000 0.000000 0.020283 0.000000 0.000000
# 5 0.000000 0.000000 0.000000 0.000000 0.073842 0.000000
# 6 0.000000 0.000000 0.000000 0.000000 0.000000 0.036911
#
#
# Mechanical properties :
#
#
# Convention : Reuss Voigt Hill
#
# Bulk Modulus (GPa) = 64.33261 78.03864 71.18563
# Shear Modulus (GPa) = 28.44611 38.03567 33.24089
#
# Velocity S-wave (km/s) = 3.59179 4.15332 3.88272
# Velocity P-wave (km/s) = 6.81011 7.64149 7.23774
#
# Compressibility (1/GPa) = 0.01554422
#
# Stress axis : x y z
#
# Youngs Moduli (GPa) = 99.04783 90.22922 156.98348
#
# Poissons Ratio (x) = 0.02991 0.31861
# Poissons Ratio (y) = 0.03283 0.57164
# Poissons Ratio (z) = 0.20102 0.32856
#
# Static dielectric constant tensor:
#      x y z
#    x 1.857660 0.000000 0.000000 
#    y 0.000000 1.777410 0.000000 
#    z 0.000000 0.000000 1.859830 
# 
# From -- ./inp_files/48477.got.cif
#   From: 2010.05.17/outbox.cif.g08.bks.cpg/sg65_25_cif.got.tgz:48477.got - 2010.06.03 17:01:31.
