data_PCOD9490262
_publ_section_title
;
Structure prediction by ZEFSAII (Michael W. Deem and Ramdas Pophale) SiO2 
 PCOD9490262
Probable space group: C M M M
;
_chemical_formula_sum "Si O2"
_cell_formula_units_Z 96
_cell_length_a 21.898225
_cell_length_b 24.703856
_cell_length_c 8.016241
_cell_angle_alpha 90.000000
_cell_angle_beta 90.000000
_cell_angle_gamma 90.000000
_cell_volume 4336.550680
_symmetry_space_group_name_H-M "C M M M"
_symmetry_group_IT_number 65
_symmetry_cell_setting 'orthorhombic'
loop_
_space_group_symop_operation_xyz
x,y,z
-x,-y,z
x,-y,-z
-x,y,-z
-x,-y,-z
x,y,-z
-x,y,z
x,-y,z
1/2+x,1/2+y,z
1/2-x,1/2-y,z
1/2+x,1/2-y,-z
1/2-x,1/2+y,-z
1/2-x,1/2-y,-z
1/2+x,1/2+y,-z
1/2-x,1/2+y,z
1/2+x,1/2-y,z
loop_
_atom_site_type_symbol
_atom_site_label
_atom_site_fract_x
_atom_site_fract_y
_atom_site_fract_z
Si Si1 0.265640 0.939403 0.699148
Si Si2 0.927353 0.939166 0.304431
Si Si3 0.818006 0.257869 0.309179
Si Si4 0.933684 0.322222 0.697078
Si Si5 0.164946 0.145235 0.811529
Si Si6 0.594973 0.059944 0.195576
O O1 0.273468 0.934678 0.500000
O O2 0.222369 0.891719 0.760340
O O3 0.331871 0.936817 0.782193
O O4 0.240218 0.000000 0.733362
O O5 0.909122 0.934937 0.500000
O O6 0.892409 0.894095 0.204270
O O7 0.000000 0.933065 0.295979
O O8 0.912339 0.000000 0.248204
O O9 0.807873 0.277481 0.500000
O O10 0.750000 0.250000 0.233468
O O11 0.871012 0.295840 0.233105
O O12 0.843122 0.196989 0.304683
O O13 0.933431 0.308988 0.500000
O O14 0.930463 0.386880 0.717374
O O15 0.000000 0.303890 0.765688
O O16 0.172252 0.164649 0.000000
O O17 0.576580 0.000000 0.258406
O O18 0.579563 0.062698 0.000000
#
# Coordination Sequence:
#
# PCOD9490262 Si02
#       6
#    16  16  16  16  16  16
#     4  10  20  35  57  84 116 155 197 240 286 340
#     4   9  19  37  59  81 109 150 198 244 290 343
#     4  10  22  41  63  84 110 151 202 250 295 347
#     4  10  22  40  62  88 117 152 197 247 295 345
#     4  12  24  35  54  85 118 151 188 236 296 357
#     4  10  21  37  59  89 123 155 187 229 286 348
#
# _framework density 22.137409999999999
#
# number of rings (size 3 to 8) (size 9 to 14) (size 15 to 20)
#    0.000    1.833    0.000    4.500    0.000    8.333 
#    0.000    4.167    0.000    0.000    0.000    0.000 
#    0.000    0.000    0.000    0.000    0.000    0.000 
#
# Total GULP energy -268115.966416 kJ/mol
# GULP energy per Si atom -5585.749300 kJ/mol
# Density = 2.208702 g / cm^3
# Si number density = 22.137410 Si / 1000 Ang^3
#
#
#
# Elastic Constant Matrix: (Units=GPa)
#
#
# Indices 1 2 3 4 5 6 
#
# 1 117.7627 48.7098 8.3055 0.0000 0.0000 0.0000
# 2 48.7098 98.4373 -1.4729 0.0000 0.0000 0.0000
# 3 8.3055 -1.4729 37.4912 0.0000 0.0000 0.0000
# 4 0.0000 0.0000 0.0000 -7.6917 0.0000 0.0000
# 5 0.0000 0.0000 0.0000 0.0000 31.9358 0.0000
# 6 0.0000 0.0000 0.0000 0.0000 0.0000 29.8052
#
#
#
# Elastic Compliance Matrix: (Units=1/GPa)
#
#
# Indices 1 2 3 4 5 6 
#
# 1 0.010931 -0.005449 -0.002636 0.000000 0.000000 0.000000
# 2 -0.005449 0.012880 0.001713 0.000000 0.000000 0.000000
# 3 -0.002636 0.001713 0.027324 0.000000 0.000000 0.000000
# 4 0.000000 0.000000 0.000000 -0.130010 0.000000 0.000000
# 5 0.000000 0.000000 0.000000 0.000000 0.031313 0.000000
# 6 0.000000 0.000000 0.000000 0.000000 0.000000 0.033551
#
#
# Mechanical properties :
#
#
# Convention : Reuss Voigt Hill
#
# Bulk Modulus (GPa) = 26.04609 40.53068 33.28838
# Shear Modulus (GPa) = 433.67487 24.01979 228.84733
#
# Velocity S-wave (km/s) = 14.01166 3.29756 10.17842
# Velocity P-wave (km/s) = 16.53965 5.73122 12.37754
#
# Compressibility (1/GPa) = 0.03839348
#
# Stress axis : x y z
#
# Youngs Moduli (GPa) = 91.48131 77.63687 36.59776
#
# Poissons Ratio (x) = 0.42301 0.09646
# Poissons Ratio (y) = 0.49844 -0.06269
# Poissons Ratio (z) = 0.24111 -0.13300
#
# Static dielectric constant tensor:
#      x y z
#    x 1.844500 0.000000 0.000000 
#    y 0.000000 1.795270 0.000000 
#    z 0.000000 0.000000 1.823240 
# 
# From -- ./inp_files/12223.got.cif
#   From: 2010.05.17/outbox.cif.g08.bks.cpg/sg65_7_cif.got.tgz:12223.got - 2010.06.03 17:01:31.
