data_PCOD9490774
_publ_section_title
;
Structure prediction by ZEFSAII (Michael W. Deem and Ramdas Pophale) SiO2 
 PCOD9490774
Probable space group: C M M M
;
_chemical_formula_sum "Si O2"
_cell_formula_units_Z 88
_cell_length_a 14.325117
_cell_length_b 23.958441
_cell_length_c 14.227928
_cell_angle_alpha 90.000000
_cell_angle_beta 90.000000
_cell_angle_gamma 90.000000
_cell_volume 4883.131179
_symmetry_space_group_name_H-M "C M M M"
_symmetry_group_IT_number 65
_symmetry_cell_setting 'orthorhombic'
loop_
_space_group_symop_operation_xyz
x,y,z
-x,-y,z
x,-y,-z
-x,y,-z
-x,-y,-z
x,y,-z
-x,y,z
x,-y,z
1/2+x,1/2+y,z
1/2-x,1/2-y,z
1/2+x,1/2-y,-z
1/2-x,1/2+y,-z
1/2-x,1/2-y,-z
1/2+x,1/2+y,-z
1/2-x,1/2+y,z
1/2+x,1/2-y,z
loop_
_atom_site_type_symbol
_atom_site_label
_atom_site_fract_x
_atom_site_fract_y
_atom_site_fract_z
Si Si1 0.640153 0.763201 0.890666
Si Si2 0.608324 0.860072 0.266405
Si Si3 0.241513 0.434361 0.171631
Si Si4 0.893748 0.432905 0.000000
Si Si5 0.393772 0.347652 0.224486
Si Si6 0.255756 0.683718 0.395335
O O1 0.750000 0.750000 0.892937
O O2 0.621950 0.814932 0.819480
O O3 0.601807 0.707033 0.841943
O O4 0.610650 0.772531 0.000000
O O5 0.500000 0.873331 0.271156
O O6 0.673472 0.914430 0.254519
O O7 0.653556 0.833120 0.358204
O O8 0.261781 0.500000 0.170546
O O9 0.333690 0.396449 0.174372
O O10 0.172418 0.419170 0.086429
O O11 0.903631 0.500000 0.000000
O O12 0.000000 0.410042 0.000000
O O13 0.500000 0.364315 0.246191
O O14 0.333162 0.333128 0.317568
O O15 0.276229 0.662204 0.500000
O O16 0.250000 0.750000 0.397850
#
# Coordination Sequence:
#
# PCOD9490774 Si02
#       6
#    16  16  16   8  16  16
#     4  11  21  36  56  81 117 155 190 228 275 332
#     4  11  21  35  57  85 114 146 186 230 284 346
#     4  10  22  38  54  79 114 152 194 240 278 322
#     4   9  18  34  55  78 107 147 195 237 276 325
#     4  11  22  38  59  84 114 151 194 235 279 335
#     4  10  20  37  57  83 118 148 178 228 289 345
#
# _framework density 18.021224
#
# number of rings (size 3 to 8) (size 9 to 14) (size 15 to 20)
#    0.000    1.545    5.455    1.091    2.545    3.636 
#    0.000    1.818    0.000   10.364    0.000   10.182 
#    0.000    0.000    0.000    0.000    0.000    0.000 
#
# Total GULP energy -245087.294710 kJ/mol
# GULP energy per Si atom -5570.165789 kJ/mol
# Density = 1.798021 g / cm^3
# Si number density = 18.021224 Si / 1000 Ang^3
#
#
#
# Elastic Constant Matrix: (Units=GPa)
#
#
# Indices 1 2 3 4 5 6 
#
# 1 139.0525 28.8713 21.4572 0.0000 0.0000 0.0000
# 2 28.8713 87.9321 20.9275 0.0000 0.0000 0.0000
# 3 21.4572 20.9275 87.1461 0.0000 0.0000 0.0000
# 4 0.0000 0.0000 0.0000 12.9915 0.0000 0.0000
# 5 0.0000 0.0000 0.0000 0.0000 -9.5219 0.0000
# 6 0.0000 0.0000 0.0000 0.0000 0.0000 20.2765
#
#
#
# Elastic Compliance Matrix: (Units=1/GPa)
#
#
# Indices 1 2 3 4 5 6 
#
# 1 0.007875 -0.002253 -0.001398 0.000000 0.000000 0.000000
# 2 -0.002253 0.012706 -0.002497 0.000000 0.000000 0.000000
# 3 -0.001398 -0.002497 0.012419 0.000000 0.000000 0.000000
# 4 0.000000 0.000000 0.000000 0.076973 0.000000 0.000000
# 5 0.000000 0.000000 0.000000 0.000000 -0.105021 0.000000
# 6 0.000000 0.000000 0.000000 0.000000 0.000000 0.049318
#
#
# Mechanical properties :
#
#
# Convention : Reuss Voigt Hill
#
# Bulk Modulus (GPa) = 48.29742 50.73808 49.51775
# Shear Modulus (GPa) = 68.05776 20.94087 44.49932
#
# Velocity S-wave (km/s) = 6.15202 3.41253 4.97457
# Velocity P-wave (km/s) = 8.79327 6.61384 7.78025
#
# Compressibility (1/GPa) = 0.02070504
#
# Stress axis : x y z
#
# Youngs Moduli (GPa) = 126.98378 78.70100 80.52349
#
# Poissons Ratio (x) = 0.17731 0.11257
# Poissons Ratio (y) = 0.28609 0.20104
# Poissons Ratio (z) = 0.17752 0.19649
#
# Static dielectric constant tensor:
#      x y z
#    x 1.617910 0.000000 0.000000 
#    y 0.000000 1.632220 0.000000 
#    z 0.000000 0.000000 1.674530 
# 
# From -- ./inp_files/40602.got.cif
#   From: 2010.05.17/outbox.cif.g08.bks.cpg/sg65_21_cif.got.tgz:40602.got - 2010.06.03 17:01:31.
