data_PCOD9490693
_publ_section_title
;
Structure prediction by ZEFSAII (Michael W. Deem and Ramdas Pophale) SiO2 
 PCOD9490693
Probable space group: C M M M
;
_chemical_formula_sum "Si O2"
_cell_formula_units_Z 96
_cell_length_a 24.666094
_cell_length_b 17.836027
_cell_length_c 12.706576
_cell_angle_alpha 90.000000
_cell_angle_beta 90.000000
_cell_angle_gamma 90.000000
_cell_volume 5590.196085
_symmetry_space_group_name_H-M "C M M M"
_symmetry_group_IT_number 65
_symmetry_cell_setting 'orthorhombic'
loop_
_space_group_symop_operation_xyz
x,y,z
-x,-y,z
x,-y,-z
-x,y,-z
-x,-y,-z
x,y,-z
-x,y,z
x,-y,z
1/2+x,1/2+y,z
1/2-x,1/2-y,z
1/2+x,1/2-y,-z
1/2-x,1/2+y,-z
1/2-x,1/2-y,-z
1/2+x,1/2+y,-z
1/2-x,1/2+y,z
1/2+x,1/2-y,z
loop_
_atom_site_type_symbol
_atom_site_label
_atom_site_fract_x
_atom_site_fract_y
_atom_site_fract_z
Si Si1 0.352723 0.324226 0.126237
Si Si2 0.867800 0.654064 0.194628
Si Si3 0.934188 0.086877 0.500000
Si Si4 0.936677 0.588670 0.375459
Si Si5 0.063538 0.909259 0.268686
Si Si6 0.742760 0.087251 0.875144
Si Si7 0.563933 0.089851 0.000000
O O1 0.356740 0.240819 0.171378
O O2 0.399206 0.373635 0.180267
O O3 0.294544 0.361715 0.149280
O O4 0.359068 0.322103 0.000000
O O5 0.897804 0.637618 0.303585
O O6 0.810724 0.611133 0.186567
O O7 0.906731 0.622655 0.102519
O O8 0.918644 0.118312 0.385878
O O9 0.000000 0.086298 0.500000
O O10 0.916515 0.000000 0.500000
O O11 0.928435 0.599913 0.500000
O O12 0.927871 0.500000 0.352873
O O13 0.000000 0.604578 0.352212
O O14 0.000000 0.890465 0.254215
O O15 0.067375 0.000000 0.267584
O O16 0.755867 0.000000 0.857557
O O17 0.730537 0.096711 0.000000
O O18 0.500000 0.107551 0.000000
O O19 0.570050 0.000000 0.000000
#
# Coordination Sequence:
#
# PCOD9490693 Si02
#       7
#    16  16   8  16  16  16   8
#     4  11  23  37  51  80 118 153 180 227 282 334
#     4  12  21  36  57  82 113 148 181 228 282 335
#     4   7  12  28  54  78  97 128 181 237 275 310
#     4   9  19  37  60  84 111 146 188 230 274 332
#     4   9  18  34  56  79 106 145 191 233 276 329
#     4  10  20  36  60  82 105 144 196 235 269 326
#     4  11  22  34  53  84 115 143 181 228 274 322
#
# _framework density 17.172922
#
# number of rings (size 3 to 8) (size 9 to 14) (size 15 to 20)
#    0.000    2.000    1.667    4.500    0.000    5.333 
#    1.500    0.833    1.833    1.000    0.000    0.000 
#    0.000    0.000    0.000    0.000    0.000    0.000 
#
# Total GULP energy -267865.782979 kJ/mol
# GULP energy per Si atom -5580.537145 kJ/mol
# Density = 1.713384 g / cm^3
# Si number density = 17.172922 Si / 1000 Ang^3
#
#
#
# Elastic Constant Matrix: (Units=GPa)
#
#
# Indices 1 2 3 4 5 6 
#
# 1 110.8825 65.5589 64.2565 0.0000 0.0000 0.0000
# 2 65.5589 80.6812 48.1840 0.0000 0.0000 0.0000
# 3 64.2565 48.1840 80.1619 0.0000 0.0000 0.0000
# 4 0.0000 0.0000 0.0000 26.9675 0.0000 0.0000
# 5 0.0000 0.0000 0.0000 0.0000 21.6204 0.0000
# 6 0.0000 0.0000 0.0000 0.0000 0.0000 138.4439
#
#
#
# Elastic Compliance Matrix: (Units=1/GPa)
#
#
# Indices 1 2 3 4 5 6 
#
# 1 0.022052 -0.011485 -0.010773 0.000000 0.000000 0.000000
# 2 -0.011485 0.025317 -0.006011 0.000000 0.000000 0.000000
# 3 -0.010773 -0.006011 0.024724 0.000000 0.000000 0.000000
# 4 0.000000 0.000000 0.000000 0.037082 0.000000 0.000000
# 5 0.000000 0.000000 0.000000 0.000000 0.046253 0.000000
# 6 0.000000 0.000000 0.000000 0.000000 0.000000 0.007223
#
#
# Mechanical properties :
#
#
# Convention : Reuss Voigt Hill
#
# Bulk Modulus (GPa) = 64.29377 69.74713 67.02045
# Shear Modulus (GPa) = 22.28429 43.65476 32.96953
#
# Velocity S-wave (km/s) = 3.60619 5.04736 4.38637
# Velocity P-wave (km/s) = 7.40674 8.64122 8.04768
#
# Compressibility (1/GPa) = 0.01555361
#
# Stress axis : x y z
#
# Youngs Moduli (GPa) = 45.34750 39.49951 40.44698
#
# Poissons Ratio (x) = 0.45364 0.43574
# Poissons Ratio (y) = 0.52081 0.24315
# Poissons Ratio (z) = 0.48854 0.23745
#
# Static dielectric constant tensor:
#      x y z
#    x 1.557560 0.000000 0.000000 
#    y 0.000000 1.584210 0.000000 
#    z 0.000000 0.000000 1.583470 
# 
# From -- ./inp_files/27148.got.cif
#   From: 2010.05.17/outbox.cif.g08.bks.cpg/sg65_14_cif.got.tgz:27148.got - 2010.06.03 17:01:31.
