data_PCOD9490311
_publ_section_title
;
Structure prediction by ZEFSAII (Michael W. Deem and Ramdas Pophale) SiO2 
 PCOD9490311
Probable space group: C M M M
;
_chemical_formula_sum "Si O2"
_cell_formula_units_Z 64
_cell_length_a 15.556485
_cell_length_b 8.708723
_cell_length_c 23.571797
_cell_angle_alpha 90.000000
_cell_angle_beta 90.000000
_cell_angle_gamma 90.000000
_cell_volume 3193.439141
_symmetry_space_group_name_H-M "C M M M"
_symmetry_group_IT_number 65
_symmetry_cell_setting 'orthorhombic'
loop_
_space_group_symop_operation_xyz
x,y,z
-x,-y,z
x,-y,-z
-x,y,-z
-x,-y,-z
x,y,-z
-x,y,z
x,-y,z
1/2+x,1/2+y,z
1/2-x,1/2-y,z
1/2+x,1/2-y,-z
1/2-x,1/2+y,-z
1/2-x,1/2-y,-z
1/2+x,1/2+y,-z
1/2-x,1/2+y,z
1/2+x,1/2-y,z
loop_
_atom_site_type_symbol
_atom_site_label
_atom_site_fract_x
_atom_site_fract_y
_atom_site_fract_z
Si Si1 0.347343 0.183753 0.358611
Si Si2 0.100607 0.667871 0.000000
Si Si3 0.500000 0.682742 0.432555
Si Si4 0.345328 0.683165 0.882811
Si Si5 0.652543 0.685120 0.239963
O O1 0.250000 0.250000 0.366040
O O2 0.414615 0.244111 0.404916
O O3 0.382670 0.241613 0.297384
O O4 0.342362 0.000000 0.358941
O O5 0.119748 0.754067 0.941715
O O6 0.144907 0.500000 0.000000
O O7 0.000000 0.647711 0.000000
O O8 0.500000 0.500000 0.421188
O O9 0.500000 0.706727 0.500000
O O10 0.343819 0.500000 0.885247
O O11 0.250000 0.750000 0.879994
O O12 0.387332 0.724492 0.821708
O O13 0.653787 0.500000 0.245390
O O14 0.750000 0.750000 0.238213
#
# Coordination Sequence:
#
# PCOD9490311 Si02
#       5
#    16   8   8  16  16
#     4  11  22  39  65  95 129 168 207 254 309 366
#     4  11  24  39  52  71 105 147 188 239 292 347
#     4  11  25  45  67  93 127 166 211 260 305 359
#     4  10  20  35  58  83 108 143 186 236 288 347
#     4   9  17  32  56  86 116 149 190 240 293 349
#
# _framework density 20.041091000000002
#
# number of rings (size 3 to 8) (size 9 to 14) (size 15 to 20)
#    0.000    1.750    0.000    6.375    0.000    5.500 
#    2.250    0.000    0.000    0.000    0.000    0.000 
#    0.000    0.000    0.000    0.000    0.000    0.000 
#
# Total GULP energy -178500.301878 kJ/mol
# GULP energy per Si atom -5578.134434 kJ/mol
# Density = 1.999548 g / cm^3
# Si number density = 20.041091 Si / 1000 Ang^3
#
#
#
# Elastic Constant Matrix: (Units=GPa)
#
#
# Indices 1 2 3 4 5 6 
#
# 1 73.8789 40.4676 62.7535 0.0000 0.0000 0.0000
# 2 40.4676 149.4393 97.3290 0.0000 0.0000 0.0000
# 3 62.7535 97.3290 184.0805 0.0000 0.0000 0.0000
# 4 0.0000 0.0000 0.0000 33.1720 0.0000 0.0000
# 5 0.0000 0.0000 0.0000 0.0000 65.4256 0.0000
# 6 0.0000 0.0000 0.0000 0.0000 0.0000 20.1601
#
#
#
# Elastic Compliance Matrix: (Units=1/GPa)
#
#
# Indices 1 2 3 4 5 6 
#
# 1 0.019252 -0.001432 -0.005806 0.000000 0.000000 0.000000
# 2 -0.001432 0.010313 -0.004965 0.000000 0.000000 0.000000
# 3 -0.005806 -0.004965 0.010037 0.000000 0.000000 0.000000
# 4 0.000000 0.000000 0.000000 0.030146 0.000000 0.000000
# 5 0.000000 0.000000 0.000000 0.000000 0.015285 0.000000
# 6 0.000000 0.000000 0.000000 0.000000 0.000000 0.049603
#
#
# Mechanical properties :
#
#
# Convention : Reuss Voigt Hill
#
# Bulk Modulus (GPa) = 65.80556 89.83322 77.81939
# Shear Modulus (GPa) = 30.46844 37.54145 34.00494
#
# Velocity S-wave (km/s) = 3.90333 4.33277 4.12364
# Velocity P-wave (km/s) = 7.29529 8.36375 7.84773
#
# Compressibility (1/GPa) = 0.01519629
#
# Stress axis : x y z
#
# Youngs Moduli (GPa) = 51.94398 96.96652 99.63624
#
# Poissons Ratio (x) = 0.13885 0.57846
# Poissons Ratio (y) = 0.07438 0.49465
# Poissons Ratio (z) = 0.30157 0.48139
#
# Static dielectric constant tensor:
#      x y z
#    x 1.752390 0.000000 0.000000 
#    y 0.000000 1.818850 0.000000 
#    z 0.000000 0.000000 1.791900 
# 
# From -- ./inp_files/69523.got.cif
#   From: 2010.05.17/outbox.cif.g08.bks.cpg/sg65_35_cif.got.tgz:69523.got - 2010.06.03 17:01:31.
