data_PCOD9490891
_publ_section_title
;
Structure prediction by ZEFSAII (Michael W. Deem and Ramdas Pophale) SiO2 
 PCOD9490891
Probable space group: C M M M
;
_chemical_formula_sum "Si O2"
_cell_formula_units_Z 80
_cell_length_a 7.802707
_cell_length_b 18.724862
_cell_length_c 30.161307
_cell_angle_alpha 90.000000
_cell_angle_beta 90.000000
_cell_angle_gamma 90.000000
_cell_volume 4406.706051
_symmetry_space_group_name_H-M "C M M M"
_symmetry_group_IT_number 65
_symmetry_cell_setting 'orthorhombic'
loop_
_space_group_symop_operation_xyz
x,y,z
-x,-y,z
x,-y,-z
-x,y,-z
-x,-y,-z
x,y,-z
-x,y,z
x,-y,z
1/2+x,1/2+y,z
1/2-x,1/2-y,z
1/2+x,1/2-y,-z
1/2-x,1/2+y,-z
1/2-x,1/2-y,-z
1/2+x,1/2+y,-z
1/2-x,1/2+y,z
1/2+x,1/2-y,z
loop_
_atom_site_type_symbol
_atom_site_label
_atom_site_fract_x
_atom_site_fract_y
_atom_site_fract_z
Si Si1 0.190459 0.912967 0.267280
Si Si2 0.706360 0.833302 0.451321
Si Si3 0.792365 0.416893 0.365068
Si Si4 0.000000 0.585818 0.897470
Si Si5 0.199737 0.832656 0.947094
Si Si6 0.500000 0.912965 0.794602
O O1 0.225787 0.889508 0.317768
O O2 0.334144 0.888862 0.232958
O O3 0.000000 0.892210 0.253575
O O4 0.199035 0.000000 0.268527
O O5 0.768685 0.858076 0.500000
O O6 0.500000 0.840647 0.451511
O O7 0.750000 0.750000 0.447473
O O8 0.769962 0.874932 0.408251
O O9 0.744317 0.500000 0.369332
O O10 0.000000 0.413526 0.363236
O O11 0.832032 0.617692 0.921142
O O12 0.000000 0.607837 0.845784
O O13 0.000000 0.500000 0.900211
O O14 0.250000 0.750000 0.938971
O O15 0.000000 0.843938 0.935440
O O16 0.218317 0.844766 0.000000
O O17 0.500000 0.000000 0.793987
#
# Coordination Sequence:
#
# PCOD9490891 Si02
#       6
#    16  16  16   8  16   8
#     4   9  16  28  49  74 100 134 176 217 262 322
#     4   9  18  31  46  66  93 128 163 195 245 313
#     4   9  16  28  48  72  96 123 162 214 259 298
#     4  11  23  36  57  92 127 155 194 253 304 339
#     4  10  20  37  62  88 116 160 209 241 283 354
#     4   9  18  33  50  75 113 149 177 218 279 333
#
# _framework density 18.154150999999999
#
# number of rings (size 3 to 8) (size 9 to 14) (size 15 to 20)
#    0.000    2.600    2.000    0.300    0.000    3.200 
#    0.000    5.000    0.000    1.200    0.000    5.600 
#    0.000    0.000    0.000    0.000    0.000    0.000 
#
# Total GULP energy -223037.835251 kJ/mol
# GULP energy per Si atom -5575.945881 kJ/mol
# Density = 1.811283 g / cm^3
# Si number density = 18.154151 Si / 1000 Ang^3
#
#
#
# Elastic Constant Matrix: (Units=GPa)
#
#
# Indices 1 2 3 4 5 6 
#
# 1 129.5768 36.2467 90.2054 0.0000 0.0000 0.0000
# 2 36.2467 39.2260 54.6024 0.0000 0.0000 0.0000
# 3 90.2054 54.6024 143.3520 0.0000 0.0000 0.0000
# 4 0.0000 0.0000 0.0000 54.5957 0.0000 0.0000
# 5 0.0000 0.0000 0.0000 0.0000 2.4842 0.0000
# 6 0.0000 0.0000 0.0000 0.0000 0.0000 20.2461
#
#
#
# Elastic Compliance Matrix: (Units=1/GPa)
#
#
# Indices 1 2 3 4 5 6 
#
# 1 0.013770 -0.001411 -0.008128 0.000000 0.000000 0.000000
# 2 -0.001411 0.054410 -0.019837 0.000000 0.000000 0.000000
# 3 -0.008128 -0.019837 0.019646 0.000000 0.000000 0.000000
# 4 0.000000 0.000000 0.000000 0.018316 0.000000 0.000000
# 5 0.000000 0.000000 0.000000 0.000000 0.402547 0.000000
# 6 0.000000 0.000000 0.000000 0.000000 0.000000 0.049392
#
#
# Mechanical properties :
#
#
# Convention : Reuss Voigt Hill
#
# Bulk Modulus (GPa) = 34.39319 74.91823 54.65571
# Shear Modulus (GPa) = 7.98055 24.20521 16.09288
#
# Velocity S-wave (km/s) = 2.09894 3.65542 2.98057
# Velocity P-wave (km/s) = 4.98601 7.69243 6.48204
#
# Compressibility (1/GPa) = 0.02907553
#
# Stress axis : x y z
#
# Youngs Moduli (GPa) = 72.62101 18.37912 50.90082
#
# Poissons Ratio (x) = 0.02592 0.41371
# Poissons Ratio (y) = 0.10244 1.00971
# Poissons Ratio (z) = 0.59024 0.36458
#
# Static dielectric constant tensor:
#      x y z
#    x 1.640080 0.000000 0.000000 
#    y 0.000000 1.594150 0.000000 
#    z 0.000000 0.000000 1.619640 
# 
# From -- ./inp_files/72953.got.cif
#   From: 2010.05.17/outbox.cif.g08.bks.cpg/sg65_37_cif.got.tgz:72953.got - 2010.06.03 17:01:31.
