data_PCOD9490206
_publ_section_title
;
Structure prediction by ZEFSAII (Michael W. Deem and Ramdas Pophale) SiO2 
 PCOD9490206
Probable space group: C M M M
;
_chemical_formula_sum "Si O2"
_cell_formula_units_Z 68
_cell_length_a 24.392572
_cell_length_b 7.934572
_cell_length_c 18.020887
_cell_angle_alpha 90.000000
_cell_angle_beta 90.000000
_cell_angle_gamma 90.000000
_cell_volume 3487.845705
_symmetry_space_group_name_H-M "C M M M"
_symmetry_group_IT_number 65
_symmetry_cell_setting 'orthorhombic'
loop_
_space_group_symop_operation_xyz
x,y,z
-x,-y,z
x,-y,-z
-x,y,-z
-x,-y,-z
x,y,-z
-x,y,z
x,-y,z
1/2+x,1/2+y,z
1/2-x,1/2-y,z
1/2+x,1/2-y,-z
1/2-x,1/2+y,-z
1/2-x,1/2-y,-z
1/2+x,1/2+y,-z
1/2-x,1/2+y,z
1/2+x,1/2-y,z
loop_
_atom_site_type_symbol
_atom_site_label
_atom_site_fract_x
_atom_site_fract_y
_atom_site_fract_z
Si Si1 0.900724 0.801366 0.740155
Si Si2 0.000000 0.308219 0.157772
Si Si3 0.435581 0.295180 0.581482
Si Si4 0.371169 0.805641 0.000000
Si Si5 0.686713 0.797933 0.851930
Si Si6 0.000000 0.758138 0.000000
O O1 0.946857 0.715966 0.791437
O O2 0.904856 0.738145 0.655569
O O3 0.842850 0.773380 0.779278
O O4 0.913874 0.000000 0.739464
O O5 0.000000 0.500000 0.126988
O O6 0.000000 0.185557 0.086771
O O7 0.417140 0.234772 0.500000
O O8 0.500000 0.252540 0.589806
O O9 0.432497 0.500000 0.579780
O O10 0.346070 0.731848 0.924555
O O11 0.436792 0.806352 0.000000
O O12 0.352929 0.000000 0.000000
O O13 0.750000 0.750000 0.857571
O O14 0.681355 0.000000 0.848792
#
# Coordination Sequence:
#
# PCOD9490206 Si02
#       6
#    16   8  16   8  16   4
#     4  11  21  35  56  84 114 143 182 231 275 325
#     4  12  22  35  55  78 112 153 190 224 270 326
#     4   8  14  27  50  80 113 147 178 211 261 327
#     4  10  20  35  57  81 109 145 186 225 269 325
#     4  11  23  40  59  79 105 145 191 235 277 322
#     4  12  21  36  57  82 113 152 187 218 267 330
#
# _framework density 19.496274
#
# number of rings (size 3 to 8) (size 9 to 14) (size 15 to 20)
#    0.000    1.647    3.529    3.882    0.000    0.000 
#    0.000    4.118    0.000    4.235    0.000    0.000 
#    0.000    0.000    0.000    0.000    0.000    0.000 
#
# Total GULP energy -189548.894602 kJ/mol
# GULP energy per Si atom -5574.967488 kJ/mol
# Density = 1.945190 g / cm^3
# Si number density = 19.496274 Si / 1000 Ang^3
#
#
#
# Elastic Constant Matrix: (Units=GPa)
#
#
# Indices 1 2 3 4 5 6 
#
# 1 101.8618 0.8905 66.9759 0.0000 0.0000 0.0000
# 2 0.8905 41.9487 13.2279 0.0000 0.0000 0.0000
# 3 66.9759 13.2279 206.9298 0.0000 0.0000 0.0000
# 4 0.0000 0.0000 0.0000 14.2183 0.0000 0.0000
# 5 0.0000 0.0000 0.0000 0.0000 12.8323 0.0000
# 6 0.0000 0.0000 0.0000 0.0000 0.0000 16.7676
#
#
#
# Elastic Compliance Matrix: (Units=1/GPa)
#
#
# Indices 1 2 3 4 5 6 
#
# 1 0.012515 0.001032 -0.004117 0.000000 0.000000 0.000000
# 2 0.001032 0.024414 -0.001895 0.000000 0.000000 0.000000
# 3 -0.004117 -0.001895 0.006286 0.000000 0.000000 0.000000
# 4 0.000000 0.000000 0.000000 0.070332 0.000000 0.000000
# 5 0.000000 0.000000 0.000000 0.000000 0.077928 0.000000
# 6 0.000000 0.000000 0.000000 0.000000 0.000000 0.059639
#
#
# Mechanical properties :
#
#
# Convention : Reuss Voigt Hill
#
# Bulk Modulus (GPa) = 30.06866 56.99211 43.53038
# Shear Modulus (GPa) = 18.37169 26.74006 22.55587
#
# Velocity S-wave (km/s) = 3.07305 3.70746 3.40506
# Velocity P-wave (km/s) = 5.29601 6.90092 6.15104
#
# Compressibility (1/GPa) = 0.03325722
#
# Stress axis : x y z
#
# Youngs Moduli (GPa) = 79.90435 40.95972 159.08121
#
# Poissons Ratio (x) = -0.04229 0.65488
# Poissons Ratio (y) = -0.08250 0.30143
# Poissons Ratio (z) = 0.32894 0.07761
#
# Static dielectric constant tensor:
#      x y z
#    x 1.623290 0.000000 0.000000 
#    y 0.000000 1.741810 0.000000 
#    z 0.000000 0.000000 1.720220 
# 
# From -- ./inp_files/56475.got.cif
#   From: 2010.05.17/outbox.cif.g08.bks.cpg/sg65_29_cif.got.tgz:56475.got - 2010.06.03 17:01:31.
