data_PCOD9490328
_publ_section_title
;
Structure prediction by ZEFSAII (Michael W. Deem and Ramdas Pophale) SiO2 
 PCOD9490328
Probable space group: C M M M
;
_chemical_formula_sum "Si O2"
_cell_formula_units_Z 58
_cell_length_a 9.001358
_cell_length_b 36.178342
_cell_length_c 10.296722
_cell_angle_alpha 90.000000
_cell_angle_beta 90.000000
_cell_angle_gamma 90.000000
_cell_volume 3353.170850
_symmetry_space_group_name_H-M "C M M M"
_symmetry_group_IT_number 65
_symmetry_cell_setting 'orthorhombic'
loop_
_space_group_symop_operation_xyz
x,y,z
-x,-y,z
x,-y,-z
-x,y,-z
-x,-y,-z
x,y,-z
-x,y,z
x,-y,z
1/2+x,1/2+y,z
1/2-x,1/2-y,z
1/2+x,1/2-y,-z
1/2-x,1/2+y,-z
1/2-x,1/2-y,-z
1/2+x,1/2+y,-z
1/2-x,1/2+y,z
1/2+x,1/2-y,z
loop_
_atom_site_type_symbol
_atom_site_label
_atom_site_fract_x
_atom_site_fract_y
_atom_site_fract_z
Si Si1 0.322182 0.348527 0.153520
Si Si2 0.663811 0.500000 0.233932
Si Si3 0.830441 0.425606 0.843859
Si Si4 0.500000 0.500000 0.500000
Si Si5 0.177788 0.290344 0.349613
O O1 0.500000 0.347331 0.166627
O O2 0.261281 0.388980 0.191873
O O3 0.246967 0.318465 0.246308
O O4 0.286468 0.342436 0.000000
O O5 0.500000 0.500000 0.167622
O O6 0.752374 0.536837 0.199268
O O7 0.626226 0.500000 0.385432
O O8 0.000000 0.423164 0.795853
O O9 0.834860 0.426284 0.000000
O O10 0.207833 0.301605 0.500000
O O11 0.250000 0.250000 0.331553
O O12 0.000000 0.288170 0.333425
#
# Coordination Sequence:
#
# PCOD9490328 Si02
#       5
#    16   8  16   2  16
#     4  10  21  37  57  85 116 147 185 230 280 333
#     4  10  20  38  56  76 111 145 185 224 269 318
#     4  10  20  35  58  86 111 138 179 230 281 332
#     4   8  24  40  52  76 112 148 194 230 260 324
#     4  10  21  38  59  83 111 146 190 232 277 333
#
# _framework density 17.297060999999999
#
# number of rings (size 3 to 8) (size 9 to 14) (size 15 to 20)
#    0.414    1.655    0.000    3.310    0.000    7.172 
#    2.483    1.379    0.000    0.000    0.000    0.000 
#    0.000    0.000    0.000    0.000    0.000    0.000 
#
# Total GULP energy -161482.710499 kJ/mol
# GULP energy per Si atom -5568.369328 kJ/mol
# Density = 1.725769 g / cm^3
# Si number density = 17.297061 Si / 1000 Ang^3
#
#
#
# Elastic Constant Matrix: (Units=GPa)
#
#
# Indices 1 2 3 4 5 6 
#
# 1 126.2030 83.2375 65.8273 0.0000 0.0000 0.0000
# 2 83.2375 156.7568 83.9831 0.0000 0.0000 0.0000
# 3 65.8273 83.9831 75.7062 0.0000 0.0000 0.0000
# 4 0.0000 0.0000 0.0000 -2.1638 0.0000 0.0000
# 5 0.0000 0.0000 0.0000 0.0000 32.3379 0.0000
# 6 0.0000 0.0000 0.0000 0.0000 0.0000 34.2072
#
#
#
# Elastic Compliance Matrix: (Units=1/GPa)
#
#
# Indices 1 2 3 4 5 6 
#
# 1 0.014853 -0.002386 -0.010269 0.000000 0.000000 0.000000
# 2 -0.002386 0.016108 -0.015795 0.000000 0.000000 0.000000
# 3 -0.010269 -0.015795 0.039660 0.000000 0.000000 0.000000
# 4 0.000000 0.000000 0.000000 -0.462155 0.000000 0.000000
# 5 0.000000 0.000000 0.000000 0.000000 0.030923 0.000000
# 6 0.000000 0.000000 0.000000 0.000000 0.000000 0.029234
#
#
# Mechanical properties :
#
#
# Convention : Reuss Voigt Hill
#
# Bulk Modulus (GPa) = 72.87309 91.64021 82.25665
# Shear Modulus (GPa) = -18.52514 21.25080 1.36283
#
# Velocity S-wave (km/s) = -3.27616 3.50891 0.88860
# Velocity P-wave (km/s) = 5.28307 8.33738 6.97935
#
# Compressibility (1/GPa) = 0.01372249
#
# Stress axis : x y z
#
# Youngs Moduli (GPa) = 67.32525 62.07930 25.21440
#
# Poissons Ratio (x) = 0.14809 0.25892
# Poissons Ratio (y) = 0.16061 0.39827
# Poissons Ratio (z) = 0.69134 0.98056
#
# Static dielectric constant tensor:
#      x y z
#    x 1.599230 0.000000 0.000000 
#    y 0.000000 1.557480 0.000000 
#    z 0.000000 0.000000 1.567740 
# 
# From -- ./inp_files/20542.got.cif
#   From: 2010.05.17/outbox.cif.g08.bks.cpg/sg65_11_cif.got.tgz:20542.got - 2010.06.03 17:01:31.
