data_PCOD9490531
_publ_section_title
;
Structure prediction by ZEFSAII (Michael W. Deem and Ramdas Pophale) SiO2 
 PCOD9490531
Probable space group: C M M M
;
_chemical_formula_sum "Si O2"
_cell_formula_units_Z 80
_cell_length_a 22.960705
_cell_length_b 13.965578
_cell_length_c 14.305127
_cell_angle_alpha 90.000000
_cell_angle_beta 90.000000
_cell_angle_gamma 90.000000
_cell_volume 4587.075109
_symmetry_space_group_name_H-M "C M M M"
_symmetry_group_IT_number 65
_symmetry_cell_setting 'orthorhombic'
loop_
_space_group_symop_operation_xyz
x,y,z
-x,-y,z
x,-y,-z
-x,y,-z
-x,-y,-z
x,y,-z
-x,y,z
x,-y,z
1/2+x,1/2+y,z
1/2-x,1/2-y,z
1/2+x,1/2-y,-z
1/2-x,1/2+y,-z
1/2-x,1/2-y,-z
1/2+x,1/2+y,-z
1/2-x,1/2+y,z
1/2+x,1/2-y,z
loop_
_atom_site_type_symbol
_atom_site_label
_atom_site_fract_x
_atom_site_fract_y
_atom_site_fract_z
Si Si1 0.725506 0.112996 0.799294
Si Si2 0.567731 0.263975 0.392747
Si Si3 0.665042 0.281633 0.110493
Si Si4 0.069117 0.110291 0.785973
Si Si5 0.829606 0.612881 0.394408
O O1 0.676398 0.174301 0.853019
O O2 0.786111 0.154619 0.837021
O O3 0.715708 0.131346 0.688928
O O4 0.721605 0.000000 0.816161
O O5 0.573773 0.297806 0.500000
O O6 0.500000 0.233687 0.380511
O O7 0.579971 0.345620 0.316783
O O8 0.613339 0.177913 0.379434
O O9 0.603737 0.324505 0.141391
O O10 0.673971 0.286708 0.000000
O O11 0.000000 0.113495 0.802421
O O12 0.088324 0.000000 0.791504
O O13 0.807716 0.631830 0.500000
O O14 0.844741 0.500000 0.389339
#
# Coordination Sequence:
#
# PCOD9490531 Si02
#       5
#    16  16  16  16  16
#     4  10  20  36  57  82 112 143 175 217 268 320
#     4   9  17  31  52  78 109 144 181 219 262 317
#     4  11  23  38  57  81 106 138 186 232 270 318
#     4  10  21  37  56  79 108 141 180 227 277 324
#     4   9  17  31  53  81 113 145 175 212 260 319
#
# _framework density 17.440308000000002
#
# number of rings (size 3 to 8) (size 9 to 14) (size 15 to 20)
#    0.000    2.200    2.000    1.800    0.000    4.000 
#    0.000    8.000    0.000    3.000    0.000    1.400 
#    0.000    0.000    0.000    0.000    0.000    0.000 
#
# Total GULP energy -223040.849581 kJ/mol
# GULP energy per Si atom -5576.021240 kJ/mol
# Density = 1.740061 g / cm^3
# Si number density = 17.440308 Si / 1000 Ang^3
#
#
#
# Elastic Constant Matrix: (Units=GPa)
#
#
# Indices 1 2 3 4 5 6 
#
# 1 24.4358 25.1753 36.3261 0.0000 0.0000 0.0000
# 2 25.1753 92.4209 43.1161 0.0000 0.0000 0.0000
# 3 36.3261 43.1161 105.0991 0.0000 0.0000 0.0000
# 4 0.0000 0.0000 0.0000 16.1718 0.0000 0.0000
# 5 0.0000 0.0000 0.0000 0.0000 6.6376 0.0000
# 6 0.0000 0.0000 0.0000 0.0000 0.0000 22.5293
#
#
#
# Elastic Compliance Matrix: (Units=1/GPa)
#
#
# Indices 1 2 3 4 5 6 
#
# 1 0.095529 -0.013131 -0.027631 0.000000 0.000000 0.000000
# 2 -0.013131 0.015186 -0.001691 0.000000 0.000000 0.000000
# 3 -0.027631 -0.001691 0.019759 0.000000 0.000000 0.000000
# 4 0.000000 0.000000 0.000000 0.061836 0.000000 0.000000
# 5 0.000000 0.000000 0.000000 0.000000 0.150656 0.000000
# 6 0.000000 0.000000 0.000000 0.000000 0.000000 0.044387
#
#
# Mechanical properties :
#
#
# Convention : Reuss Voigt Hill
#
# Bulk Modulus (GPa) = 21.94615 47.91008 34.92812
# Shear Modulus (GPa) = 10.25748 16.89029 13.57389
#
# Velocity S-wave (km/s) = 2.42781 3.11539 2.79284
# Velocity P-wave (km/s) = 4.52437 6.36171 5.52002
#
# Compressibility (1/GPa) = 0.04556607
#
# Stress axis : x y z
#
# Youngs Moduli (GPa) = 10.46806 65.84996 50.60973
#
# Poissons Ratio (x) = 0.86470 1.39841
# Poissons Ratio (y) = 0.13746 0.08559
# Poissons Ratio (z) = 0.28925 0.11137
#
# Static dielectric constant tensor:
#      x y z
#    x 1.590490 0.000000 0.000000 
#    y 0.000000 1.581060 0.000000 
#    z 0.000000 0.000000 1.598720 
# 
# From -- ./inp_files/24604.got.cif
#   From: 2010.05.17/outbox.cif.g08.bks.cpg/sg65_13_cif.got.tgz:24604.got - 2010.06.03 17:01:31.
