data_PCOD9490793
_publ_section_title
;
Structure prediction by ZEFSAII (Michael W. Deem and Ramdas Pophale) SiO2 
 PCOD9490793
Probable space group: C M M M
;
_chemical_formula_sum "Si O2"
_cell_formula_units_Z 82
_cell_length_a 20.630098
_cell_length_b 17.312183
_cell_length_c 12.239215
_cell_angle_alpha 90.000000
_cell_angle_beta 90.000000
_cell_angle_gamma 90.000000
_cell_volume 4371.260506
_symmetry_space_group_name_H-M "C M M M"
_symmetry_group_IT_number 65
_symmetry_cell_setting 'orthorhombic'
loop_
_space_group_symop_operation_xyz
x,y,z
-x,-y,z
x,-y,-z
-x,y,-z
-x,-y,-z
x,y,-z
-x,y,z
x,-y,z
1/2+x,1/2+y,z
1/2-x,1/2-y,z
1/2+x,1/2-y,-z
1/2-x,1/2+y,-z
1/2-x,1/2-y,-z
1/2+x,1/2+y,-z
1/2-x,1/2+y,z
1/2+x,1/2-y,z
loop_
_atom_site_type_symbol
_atom_site_label
_atom_site_fract_x
_atom_site_fract_y
_atom_site_fract_z
Si Si1 0.342267 0.823890 0.000000
Si Si2 0.305583 0.358836 0.000000
Si Si3 0.500000 0.625135 0.691721
Si Si4 0.869775 0.319960 0.757486
Si Si5 0.000000 0.000000 0.500000
Si Si6 0.000000 0.305896 0.370993
Si Si7 0.859015 0.134665 0.230774
Si Si8 0.740929 0.090543 0.373419
O O1 0.327131 0.731732 0.000000
O O2 0.271776 0.862915 0.000000
O O3 0.376451 0.842295 0.114725
O O4 0.332369 0.390916 0.886705
O O5 0.500000 0.566661 0.593619
O O6 0.500000 0.713203 0.647413
O O7 0.566094 0.613802 0.757858
O O8 0.934913 0.334913 0.688838
O O9 0.855449 0.227970 0.757934
O O10 0.809197 0.362165 0.701109
O O11 0.000000 0.323032 0.500000
O O12 0.812949 0.101352 0.324944
O O13 0.738178 0.116072 0.500000
O O14 0.724464 0.000000 0.369259
#
# Coordination Sequence:
#
# PCOD9490793 Si02
#       8
#     8   8   8  16   2   8  16  16
#     4   9  16  31  57  89 111 146 188 235 298 348
#     4   9  16  33  59  82 116 143 191 243 292 341
#     4  10  24  35  56  84 113 160 198 228 294 341
#     4  10  20  37  60  84 115 147 190 241 290 344
#     4  12  24  40  60  70 136 172 182 250 302 348
#     4  10  20  37  58  88 114 147 198 238 275 347
#     4  10  21  37  59  85 110 153 193 242 286 344
#     4  11  24  37  54  82 115 149 193 238 289 349
#
# _framework density 18.758890999999998
#
# number of rings (size 3 to 8) (size 9 to 14) (size 15 to 20)
#    0.000    1.951    2.439    1.171    2.732    3.122 
#    0.000    6.341    0.000    2.341    0.000    1.366 
#    0.000    0.000    0.000    0.000    0.000    0.000 
#
# Total GULP energy -228576.263996 kJ/mol
# GULP energy per Si atom -5575.030829 kJ/mol
# Density = 1.871619 g / cm^3
# Si number density = 18.758891 Si / 1000 Ang^3
#
#
#
# Elastic Constant Matrix: (Units=GPa)
#
#
# Indices 1 2 3 4 5 6 
#
# 1 98.5492 15.9140 48.6975 0.0000 0.0000 0.0000
# 2 15.9140 24.5870 14.5248 0.0000 0.0000 0.0000
# 3 48.6975 14.5248 157.5635 0.0000 0.0000 0.0000
# 4 0.0000 0.0000 0.0000 2.7450 0.0000 0.0000
# 5 0.0000 0.0000 0.0000 0.0000 97.1976 0.0000
# 6 0.0000 0.0000 0.0000 0.0000 0.0000 -7.8045
#
#
#
# Elastic Compliance Matrix: (Units=1/GPa)
#
#
# Indices 1 2 3 4 5 6 
#
# 1 0.012840 -0.006310 -0.003387 0.000000 0.000000 0.000000
# 2 -0.006310 0.046115 -0.002301 0.000000 0.000000 0.000000
# 3 -0.003387 -0.002301 0.007605 0.000000 0.000000 0.000000
# 4 0.000000 0.000000 0.000000 0.364304 0.000000 0.000000
# 5 0.000000 0.000000 0.000000 0.000000 0.010288 0.000000
# 6 0.000000 0.000000 0.000000 0.000000 0.000000 -0.128131
#
#
# Mechanical properties :
#
#
# Convention : Reuss Voigt Hill
#
# Bulk Modulus (GPa) = 23.49315 48.77469 36.13392
# Shear Modulus (GPa) = 14.23670 31.86517 23.05094
#
# Velocity S-wave (km/s) = 2.75786 4.12596 3.50923
# Velocity P-wave (km/s) = 4.76361 6.98251 5.97693
#
# Compressibility (1/GPa) = 0.04256559
#
# Stress axis : x y z
#
# Youngs Moduli (GPa) = 77.88397 21.68478 131.48474
#
# Poissons Ratio (x) = 0.13683 0.44529
# Poissons Ratio (y) = 0.49143 0.30254
# Poissons Ratio (z) = 0.26376 0.04990
#
# Static dielectric constant tensor:
#      x y z
#    x 1.637500 0.000000 0.000000 
#    y 0.000000 1.639000 0.000000 
#    z 0.000000 0.000000 1.640850 
# 
# From -- ./inp_files/28683.got.cif
#   From: 2010.05.17/outbox.cif.g08.bks.cpg/sg65_15_cif.got.tgz:28683.got - 2010.06.03 17:01:31.
