data_PCOD9490757
_publ_section_title
;
Structure prediction by ZEFSAII (Michael W. Deem and Ramdas Pophale) SiO2 
 PCOD9490757
Probable space group: C M M M
;
_chemical_formula_sum "Si O2"
_cell_formula_units_Z 56
_cell_length_a 17.114250
_cell_length_b 9.302599
_cell_length_c 17.167553
_cell_angle_alpha 90.000000
_cell_angle_beta 90.000000
_cell_angle_gamma 90.000000
_cell_volume 2733.194695
_symmetry_space_group_name_H-M "C M M M"
_symmetry_group_IT_number 65
_symmetry_cell_setting 'orthorhombic'
loop_
_space_group_symop_operation_xyz
x,y,z
-x,-y,z
x,-y,-z
-x,y,-z
-x,-y,-z
x,y,-z
-x,y,z
x,-y,z
1/2+x,1/2+y,z
1/2-x,1/2-y,z
1/2+x,1/2-y,-z
1/2-x,1/2+y,-z
1/2-x,1/2-y,-z
1/2+x,1/2+y,-z
1/2-x,1/2+y,z
1/2+x,1/2-y,z
loop_
_atom_site_type_symbol
_atom_site_label
_atom_site_fract_x
_atom_site_fract_y
_atom_site_fract_z
Si Si1 0.087444 0.712429 0.179914
Si Si2 0.695601 0.000000 0.909642
Si Si3 0.164938 0.674550 0.654834
Si Si4 0.382578 0.500000 0.091870
Si Si5 0.336554 0.324077 0.500000
O O1 0.155217 0.631535 0.133233
O O2 0.112761 0.704771 0.269682
O O3 0.087302 0.865495 0.139524
O O4 0.000000 0.653038 0.171458
O O5 0.788288 0.000000 0.903663
O O6 0.674251 0.000000 0.000000
O O7 0.173197 0.500000 0.643899
O O8 0.250000 0.750000 0.668029
O O9 0.129636 0.755507 0.579136
O O10 0.403457 0.500000 0.000000
O O11 0.334165 0.500000 0.500000
O O12 0.250000 0.250000 0.500000
#
# Coordination Sequence:
#
# PCOD9490757 Si02
#       5
#    16   8  16   8   8
#     4  12  26  41  63  96 134 172 213 264 328 390
#     4  11  23  43  69  94 125 166 221 271 318 381
#     4  11  22  39  66  95 131 172 219 268 319 383
#     4  11  25  45  67  94 125 170 221 273 326 385
#     4  10  20  36  63  98 131 167 218 270 318 376
#
# _framework density 20.488844
#
# number of rings (size 3 to 8) (size 9 to 14) (size 15 to 20)
#    0.000    0.857    1.429    8.143    4.000    5.714 
#    0.000    0.714    0.000    2.571    0.000    0.000 
#    0.000    0.000    0.000    0.000    0.000    0.000 
#
# Total GULP energy -156308.472783 kJ/mol
# GULP energy per Si atom -5582.445457 kJ/mol
# Density = 2.044221 g / cm^3
# Si number density = 20.488844 Si / 1000 Ang^3
#
#
#
# Elastic Constant Matrix: (Units=GPa)
#
#
# Indices 1 2 3 4 5 6 
#
# 1 81.6287 29.4182 52.2796 0.0000 0.0000 0.0000
# 2 29.4182 207.2375 78.8580 0.0000 0.0000 0.0000
# 3 52.2796 78.8580 184.8018 0.0000 0.0000 0.0000
# 4 0.0000 0.0000 0.0000 34.8279 0.0000 0.0000
# 5 0.0000 0.0000 0.0000 0.0000 -52.1903 0.0000
# 6 0.0000 0.0000 0.0000 0.0000 0.0000 -14.1293
#
#
#
# Elastic Compliance Matrix: (Units=1/GPa)
#
#
# Indices 1 2 3 4 5 6 
#
# 1 0.015027 -0.000615 -0.003988 0.000000 0.000000 0.000000
# 2 -0.000615 0.005786 -0.002295 0.000000 0.000000 0.000000
# 3 -0.003988 -0.002295 0.007519 0.000000 0.000000 0.000000
# 4 0.000000 0.000000 0.000000 0.028713 0.000000 0.000000
# 5 0.000000 0.000000 0.000000 0.000000 -0.019161 0.000000
# 6 0.000000 0.000000 0.000000 0.000000 0.000000 -0.070775
#
#
# Mechanical properties :
#
#
# Convention : Reuss Voigt Hill
#
# Bulk Modulus (GPa) = 68.80365 88.30886 78.55626
# Shear Modulus (GPa) = -350.89135 14.57580 -168.15778
#
# Velocity S-wave (km/s) = -13.10082 2.67011 -9.06923
# Velocity P-wave (km/s) = 13.97097 7.25951 8.44060
#
# Compressibility (1/GPa) = 0.01453411
#
# Stress axis : x y z
#
# Youngs Moduli (GPa) = 66.54784 172.83125 133.00067
#
# Poissons Ratio (x) = 0.10637 0.53046
# Poissons Ratio (y) = 0.04096 0.30522
# Poissons Ratio (z) = 0.26542 0.39663
#
# Static dielectric constant tensor:
#      x y z
#    x 1.705410 0.000000 0.000000 
#    y 0.000000 1.838740 0.000000 
#    z 0.000000 0.000000 1.752680 
# 
# From -- ./inp_files/53918.got.cif
#   From: 2010.05.17/outbox.cif.g08.bks.cpg/sg65_27_cif.got.tgz:53918.got - 2010.06.03 17:01:31.
