data_PCOD9490283
_publ_section_title
;
Structure prediction by ZEFSAII (Michael W. Deem and Ramdas Pophale) SiO2 
 PCOD9490283
Probable space group: C M M M
;
_chemical_formula_sum "Si O2"
_cell_formula_units_Z 90
_cell_length_a 24.570670
_cell_length_b 22.798438
_cell_length_c 8.034704
_cell_angle_alpha 90.000000
_cell_angle_beta 90.000000
_cell_angle_gamma 90.000000
_cell_volume 4500.823413
_symmetry_space_group_name_H-M "C M M M"
_symmetry_group_IT_number 65
_symmetry_cell_setting 'orthorhombic'
loop_
_space_group_symop_operation_xyz
x,y,z
-x,-y,z
x,-y,-z
-x,y,-z
-x,-y,-z
x,y,-z
-x,y,z
x,-y,z
1/2+x,1/2+y,z
1/2-x,1/2-y,z
1/2+x,1/2-y,-z
1/2-x,1/2+y,-z
1/2-x,1/2-y,-z
1/2+x,1/2+y,-z
1/2-x,1/2+y,z
1/2+x,1/2-y,z
loop_
_atom_site_type_symbol
_atom_site_label
_atom_site_fract_x
_atom_site_fract_y
_atom_site_fract_z
Si Si1 0.881450 0.340304 0.301637
Si Si2 0.587458 0.500000 0.311111
Si Si3 0.381013 0.293742 0.696562
Si Si4 0.827691 0.907325 0.807734
Si Si5 0.294962 0.934412 0.298809
Si Si6 0.500000 0.154764 0.809320
Si Si7 0.500000 0.703102 0.191536
Si Si8 0.500000 0.500000 0.000000
O O1 0.874586 0.336108 0.500000
O O2 0.876530 0.273212 0.238349
O O3 0.836411 0.384907 0.235092
O O4 0.942774 0.362661 0.270318
O O5 0.564240 0.500000 0.500000
O O6 0.627638 0.444193 0.292727
O O7 0.547007 0.500000 0.152141
O O8 0.369969 0.294094 0.500000
O O9 0.341432 0.339049 0.784438
O O10 0.443401 0.314536 0.725451
O O11 0.766950 0.921091 0.749173
O O12 0.832838 0.923825 0.000000
O O13 0.298150 0.934177 0.500000
O O14 0.309341 0.000000 0.240982
O O15 0.500000 0.225995 0.802723
O O16 0.500000 0.136386 0.000000
O O17 0.500000 0.683016 0.000000
#
# Coordination Sequence:
#
# PCOD9490283 Si02
#       8
#    16   8  16  16  16   8   8   2
#     4   9  19  36  59  89 121 156 205 256 309 382
#     4  12  25  47  71  94 131 174 217 270 327 381
#     4  10  20  35  57  85 118 158 201 252 317 377
#     4  12  24  41  62  89 123 163 213 262 312 378
#     4  10  21  39  64  88 114 158 211 260 317 379
#     4   9  17  31  55  83 119 157 190 236 306 371
#     4   9  17  32  52  80 114 152 193 241 298 366
#     4  12  26  48  68 106 132 164 226 278 330 374
#
# _framework density 19.996341000000001
#
# number of rings (size 3 to 8) (size 9 to 14) (size 15 to 20)
#    0.000    1.778    1.778    2.800    0.000    4.978 
#    1.600    5.778    0.000    2.667    0.000    0.000 
#    0.000    0.000    0.000    0.000    0.000    0.000 
#
# Total GULP energy -250947.235531 kJ/mol
# GULP energy per Si atom -5576.605234 kJ/mol
# Density = 1.995083 g / cm^3
# Si number density = 19.996341 Si / 1000 Ang^3
#
#
#
# Elastic Constant Matrix: (Units=GPa)
#
#
# Indices 1 2 3 4 5 6 
#
# 1 100.6835 62.6497 15.1260 0.0000 0.0000 0.0000
# 2 62.6497 100.5967 15.7055 0.0000 0.0000 0.0000
# 3 15.1260 15.7055 59.5649 0.0000 0.0000 0.0000
# 4 0.0000 0.0000 0.0000 6.8273 0.0000 0.0000
# 5 0.0000 0.0000 0.0000 0.0000 -43.5615 0.0000
# 6 0.0000 0.0000 0.0000 0.0000 0.0000 -85.2586
#
#
#
# Elastic Compliance Matrix: (Units=1/GPa)
#
#
# Indices 1 2 3 4 5 6 
#
# 1 0.016349 -0.009943 -0.001530 0.000000 0.000000 0.000000
# 2 -0.009943 0.016414 -0.001803 0.000000 0.000000 0.000000
# 3 -0.001530 -0.001803 0.017652 0.000000 0.000000 0.000000
# 4 0.000000 0.000000 0.000000 0.146471 0.000000 0.000000
# 5 0.000000 0.000000 0.000000 0.000000 -0.022956 0.000000
# 6 0.000000 0.000000 0.000000 0.000000 0.000000 -0.011729
#
#
# Mechanical properties :
#
#
# Convention : Reuss Voigt Hill
#
# Bulk Modulus (GPa) = 41.90466 49.75638 45.83052
# Shear Modulus (GPa) = 25.41834 -13.24099 6.08868
#
# Velocity S-wave (km/s) = 3.56919 -2.57606 1.74686
# Velocity P-wave (km/s) = 6.16337 4.01107 5.19980
#
# Compressibility (1/GPa) = 0.02386370
#
# Stress axis : x y z
#
# Youngs Moduli (GPa) = 61.16626 60.92199 56.64959
#
# Poissons Ratio (x) = 0.60574 0.08668
# Poissons Ratio (y) = 0.60817 0.10214
# Poissons Ratio (z) = 0.09359 0.10985
#
# Static dielectric constant tensor:
#      x y z
#    x 1.678980 0.000000 0.000000 
#    y 0.000000 1.740280 0.000000 
#    z 0.000000 0.000000 1.707040 
# 
# From -- ./inp_files/11940.got.cif
#   From: 2010.05.17/outbox.cif.g08.bks.cpg/sg65_6_cif.got.tgz:11940.got - 2010.06.03 17:01:31.
