data_PCOD9490243
_publ_section_title
;
Structure prediction by ZEFSAII (Michael W. Deem and Ramdas Pophale) SiO2 
 PCOD9490243
Probable space group: C M M M
;
_chemical_formula_sum "Si O2"
_cell_formula_units_Z 92
_cell_length_a 27.463994
_cell_length_b 18.521743
_cell_length_c 7.168880
_cell_angle_alpha 90.000000
_cell_angle_beta 90.000000
_cell_angle_gamma 90.000000
_cell_volume 3646.673324
_symmetry_space_group_name_H-M "C M M M"
_symmetry_group_IT_number 65
_symmetry_cell_setting 'orthorhombic'
loop_
_space_group_symop_operation_xyz
x,y,z
-x,-y,z
x,-y,-z
-x,y,-z
-x,-y,-z
x,y,-z
-x,y,z
x,-y,z
1/2+x,1/2+y,z
1/2-x,1/2-y,z
1/2+x,1/2-y,-z
1/2-x,1/2+y,-z
1/2-x,1/2-y,-z
1/2+x,1/2+y,-z
1/2-x,1/2+y,z
1/2+x,1/2-y,z
loop_
_atom_site_type_symbol
_atom_site_label
_atom_site_fract_x
_atom_site_fract_y
_atom_site_fract_z
Si Si1 0.075343 0.417544 0.277969
Si Si2 0.845685 0.779452 0.273327
Si Si3 0.316412 0.877121 0.274096
Si Si4 0.289586 0.422094 0.726881
Si Si5 0.500000 0.854733 0.000000
Si Si6 0.445024 0.660706 0.272838
Si Si7 0.940839 0.000000 0.289922
O O1 0.071781 0.403664 0.500000
O O2 0.058838 0.500000 0.242078
O O3 0.132107 0.411937 0.224380
O O4 0.042230 0.364324 0.161985
O O5 0.844995 0.778695 0.500000
O O6 0.819670 0.706309 0.214811
O O7 0.818766 0.851899 0.212665
O O8 0.902128 0.785890 0.218180
O O9 0.314786 0.878733 0.500000
O O10 0.266586 0.913908 0.214244
O O11 0.290692 0.421194 0.500000
O O12 0.309517 0.500000 0.784973
O O13 0.446484 0.657983 0.500000
O O14 0.500000 0.678259 0.210595
O O15 0.430535 0.579201 0.211101
O O16 0.919960 0.000000 0.500000
O O17 0.000000 0.000000 0.301548
#
# Coordination Sequence:
#
# PCOD9490243 Si02
#       7
#    16  16  16  16   4  16   8
#     4  10  20  35  57  83 115 155 195 238 294 351
#     4   9  16  24  37  59  89 130 182 234 282 340
#     4   9  17  30  44  65  99 143 186 226 283 350
#     4   9  16  25  40  62  90 128 183 245 293 344
#     4  12  23  38  60  90 120 148 197 258 295 338
#     4   8  13  20  29  44  71 109 156 209 267 333
#     4   7  10  16  26  38  58  96 144 194 252 320
#
# _framework density 25.228473000000001
#
# number of rings (size 3 to 8) (size 9 to 14) (size 15 to 20)
#    0.000    3.043    0.000    3.130    1.217    4.870 
#    1.565    0.000    0.000    0.000    0.000    2.435 
#    0.000    0.000    0.000    0.783    0.000    2.609 
#
# Total GULP energy -256793.432929 kJ/mol
# GULP energy per Si atom -5582.465933 kJ/mol
# Density = 2.517105 g / cm^3
# Si number density = 25.228473 Si / 1000 Ang^3
#
#
#
# Elastic Constant Matrix: (Units=GPa)
#
#
# Indices 1 2 3 4 5 6 
#
# 1 105.0354 33.0731 5.3220 0.0000 0.0000 0.0000
# 2 33.0731 114.0823 1.1093 0.0000 0.0000 0.0000
# 3 5.3220 1.1093 134.5187 0.0000 0.0000 0.0000
# 4 0.0000 0.0000 0.0000 -103.9168 0.0000 0.0000
# 5 0.0000 0.0000 0.0000 0.0000 166.4546 0.0000
# 6 0.0000 0.0000 0.0000 0.0000 0.0000 107.6344
#
#
#
# Elastic Compliance Matrix: (Units=1/GPa)
#
#
# Indices 1 2 3 4 5 6 
#
# 1 0.010497 -0.003039 -0.000390 0.000000 0.000000 0.000000
# 2 -0.003039 0.009646 0.000041 0.000000 0.000000 0.000000
# 3 -0.000390 0.000041 0.007449 0.000000 0.000000 0.000000
# 4 0.000000 0.000000 0.000000 -0.009623 0.000000 0.000000
# 5 0.000000 0.000000 0.000000 0.000000 0.006008 0.000000
# 6 0.000000 0.000000 0.000000 0.000000 0.000000 0.009291
#
#
# Mechanical properties :
#
#
# Convention : Reuss Voigt Hill
#
# Bulk Modulus (GPa) = 48.04277 48.07168 48.05722
# Shear Modulus (GPa) = 106.41839 54.97657 80.69748
#
# Velocity S-wave (km/s) = 6.50180 4.67320 5.66181
# Velocity P-wave (km/s) = 8.68614 6.94365 7.86331
#
# Compressibility (1/GPa) = 0.02081479
#
# Stress axis : x y z
#
# Youngs Moduli (GPa) = 95.26148 103.66598 134.24591
#
# Poissons Ratio (x) = 0.31509 0.05239
# Poissons Ratio (y) = 0.28954 -0.00546
# Poissons Ratio (z) = 0.03718 -0.00422
#
# Static dielectric constant tensor:
#      x y z
#    x 1.925800 0.000000 0.000000 
#    y 0.000000 1.978200 0.000000 
#    z 0.000000 0.000000 2.039980 
# 
# From -- ./inp_files/16382.got.cif
#   From: 2010.05.17/outbox.cif.g08.bks.cpg/sg65_9_cif.got.tgz:16382.got - 2010.06.03 17:01:31.
