data_PCOD9490130
_publ_section_title
;
Structure prediction by ZEFSAII (Michael W. Deem and Ramdas Pophale) SiO2 
 PCOD9490130
Probable space group: C M M M
;
_chemical_formula_sum "Si O2"
_cell_formula_units_Z 104
_cell_length_a 30.104185
_cell_length_b 9.691946
_cell_length_c 20.254259
_cell_angle_alpha 90.000000
_cell_angle_beta 90.000000
_cell_angle_gamma 90.000000
_cell_volume 5909.547382
_symmetry_space_group_name_H-M "C M M M"
_symmetry_group_IT_number 65
_symmetry_cell_setting 'orthorhombic'
loop_
_space_group_symop_operation_xyz
x,y,z
-x,-y,z
x,-y,-z
-x,y,-z
-x,-y,-z
x,y,-z
-x,y,z
x,-y,z
1/2+x,1/2+y,z
1/2-x,1/2-y,z
1/2+x,1/2-y,-z
1/2-x,1/2+y,-z
1/2-x,1/2-y,-z
1/2+x,1/2+y,-z
1/2-x,1/2+y,z
1/2+x,1/2-y,z
loop_
_atom_site_type_symbol
_atom_site_label
_atom_site_fract_x
_atom_site_fract_y
_atom_site_fract_z
Si Si1 0.791907 0.839803 0.711808
Si Si2 0.632591 0.335452 0.815491
Si Si3 0.580683 0.840298 0.622351
Si Si4 0.000000 0.846898 0.577579
Si Si5 0.706503 0.663223 0.077697
Si Si6 0.447698 0.159139 0.224682
Si Si7 0.162900 0.160004 0.576414
O O1 0.750000 0.750000 0.732041
O O2 0.836654 0.801177 0.751542
O O3 0.800220 0.827399 0.633326
O O4 0.783430 0.000000 0.727439
O O5 0.624534 0.500000 0.813959
O O6 0.664112 0.302224 0.877608
O O7 0.586213 0.255405 0.814876
O O8 0.542300 0.743212 0.595124
O O9 0.571631 0.838639 0.700788
O O10 0.625651 0.769475 0.597397
O O11 0.577806 0.000000 0.600804
O O12 0.000000 0.864306 0.500000
O O13 0.000000 0.000000 0.608994
O O14 0.715462 0.500000 0.086804
O O15 0.750000 0.750000 0.096573
O O16 0.697896 0.687352 0.000000
O O17 0.500000 0.200130 0.225195
O O18 0.445713 0.000000 0.201936
O O19 0.176430 0.180657 0.500000
O O20 0.146116 0.000000 0.581371
#
# Coordination Sequence:
#
# PCOD9490130 Si02
#       7
#    16  16  16   8  16  16  16
#     4  10  21  35  52  76 103 135 177 221 264 317
#     4  10  20  35  56  82 110 143 181 219 263 314
#     4  11  21  35  53  74  99 129 170 222 276 327
#     4  11  23  35  49  71  99 133 170 213 272 337
#     4   9  18  33  55  86 122 153 182 217 259 311
#     4  10  21  37  55  78 107 138 175 222 274 321
#     4  10  21  37  53  70  98 135 174 219 270 324
#
# _framework density 17.598641000000001
#
# number of rings (size 3 to 8) (size 9 to 14) (size 15 to 20)
#    0.000    1.923    2.308    1.615    0.000    5.846 
#    0.000    0.000    0.000    0.462    0.000    3.231 
#    0.000    0.000    0.000    0.000    0.000    0.000 
#
# Total GULP energy -289955.534971 kJ/mol
# GULP energy per Si atom -5576.067980 kJ/mol
# Density = 1.755859 g / cm^3
# Si number density = 17.598641 Si / 1000 Ang^3
#
#
#
# Elastic Constant Matrix: (Units=GPa)
#
#
# Indices 1 2 3 4 5 6 
#
# 1 96.8200 61.5643 35.7566 0.0000 0.0000 0.0000
# 2 61.5643 87.6830 31.6862 0.0000 0.0000 0.0000
# 3 35.7566 31.6862 73.9454 0.0000 0.0000 0.0000
# 4 0.0000 0.0000 0.0000 18.8034 0.0000 0.0000
# 5 0.0000 0.0000 0.0000 0.0000 27.3933 0.0000
# 6 0.0000 0.0000 0.0000 0.0000 0.0000 55.1636
#
#
#
# Elastic Compliance Matrix: (Units=1/GPa)
#
#
# Indices 1 2 3 4 5 6 
#
# 1 0.019734 -0.012314 -0.004266 0.000000 0.000000 0.000000
# 2 -0.012314 0.021178 -0.003121 0.000000 0.000000 0.000000
# 3 -0.004266 -0.003121 0.016923 0.000000 0.000000 0.000000
# 4 0.000000 0.000000 0.000000 0.053182 0.000000 0.000000
# 5 0.000000 0.000000 0.000000 0.000000 0.036505 0.000000
# 6 0.000000 0.000000 0.000000 0.000000 0.000000 0.018128
#
#
# Mechanical properties :
#
#
# Convention : Reuss Voigt Hill
#
# Bulk Modulus (GPa) = 54.24497 57.38474 55.81485
# Shear Modulus (GPa) = 23.67460 28.90147 26.28804
#
# Velocity S-wave (km/s) = 3.67175 4.05687 3.86910
# Velocity P-wave (km/s) = 6.99042 7.39071 7.19335
#
# Compressibility (1/GPa) = 0.01843489
#
# Stress axis : x y z
#
# Youngs Moduli (GPa) = 50.67412 47.21775 59.08983
#
# Poissons Ratio (x) = 0.58145 0.25206
# Poissons Ratio (y) = 0.62401 0.18440
# Poissons Ratio (z) = 0.21616 0.14735
#
# Static dielectric constant tensor:
#      x y z
#    x 1.587170 0.000000 0.000000 
#    y 0.000000 1.606960 0.000000 
#    z 0.000000 0.000000 1.618570 
# 
# From -- ./inp_files/66399.got.cif
#   From: 2010.05.17/outbox.cif.g08.bks.cpg/sg65_34_cif.got.tgz:66399.got - 2010.06.03 17:01:31.
