data_PCOD9490353
_publ_section_title
;
Structure prediction by ZEFSAII (Michael W. Deem and Ramdas Pophale) SiO2 
 PCOD9490353
Probable space group: C M M M
;
_chemical_formula_sum "Si O2"
_cell_formula_units_Z 64
_cell_length_a 24.640290
_cell_length_b 15.225990
_cell_length_c 8.217323
_cell_angle_alpha 90.000000
_cell_angle_beta 90.000000
_cell_angle_gamma 90.000000
_cell_volume 3082.916153
_symmetry_space_group_name_H-M "C M M M"
_symmetry_group_IT_number 65
_symmetry_cell_setting 'orthorhombic'
loop_
_space_group_symop_operation_xyz
x,y,z
-x,-y,z
x,-y,-z
-x,y,-z
-x,-y,-z
x,y,-z
-x,y,z
x,-y,z
1/2+x,1/2+y,z
1/2-x,1/2-y,z
1/2+x,1/2-y,-z
1/2-x,1/2+y,-z
1/2-x,1/2-y,-z
1/2+x,1/2+y,-z
1/2-x,1/2+y,z
1/2+x,1/2-y,z
loop_
_atom_site_type_symbol
_atom_site_label
_atom_site_fract_x
_atom_site_fract_y
_atom_site_fract_z
Si Si1 0.500000 0.401041 0.740578
Si Si2 0.397296 0.898030 0.697972
Si Si3 0.000000 0.713076 0.808217
Si Si4 0.310349 0.237527 0.693529
Si Si5 0.125835 0.095840 0.185941
O O1 0.500000 0.500000 0.663902
O O2 0.500000 0.298272 0.689476
O O3 0.560199 0.400951 0.818259
O O4 0.401170 0.893160 0.500000
O O5 0.447582 0.845390 0.772239
O O6 0.343102 0.847403 0.753116
O O7 0.398008 0.000000 0.743409
O O8 0.000000 0.740655 0.000000
O O9 0.304906 0.226021 0.500000
O O10 0.250000 0.250000 0.762574
O O11 0.347647 0.322760 0.723476
O O12 0.140507 0.000000 0.256251
O O13 0.144725 0.099924 0.000000
#
# Coordination Sequence:
#
# PCOD9490353 Si02
#       5
#     8  16   8  16  16
#     4  10  20  35  58  88 121 153 181 219 284 354
#     4  10  22  40  59  80 113 155 191 228 282 342
#     4  12  22  35  61  91 116 145 185 234 283 336
#     4  10  22  39  59  83 111 148 194 240 282 327
#     4  10  20  36  59  86 116 150 184 222 279 346
#
# _framework density 20.759566
#
# number of rings (size 3 to 8) (size 9 to 14) (size 15 to 20)
#    0.000    1.750    2.500    1.875    0.000    6.750 
#    0.000    3.125    0.000    3.750    0.000    0.000 
#    0.000    0.000    0.000    0.000    0.000    0.000 
#
# Total GULP energy -178219.566530 kJ/mol
# GULP energy per Si atom -5569.361454 kJ/mol
# Density = 2.071232 g / cm^3
# Si number density = 20.759566 Si / 1000 Ang^3
#
#
#
# Elastic Constant Matrix: (Units=GPa)
#
#
# Indices 1 2 3 4 5 6 
#
# 1 138.0047 72.8566 18.0385 0.0000 0.0000 0.0000
# 2 72.8566 193.4834 16.1820 0.0000 0.0000 0.0000
# 3 18.0385 16.1820 21.5792 0.0000 0.0000 0.0000
# 4 0.0000 0.0000 0.0000 11.8137 0.0000 0.0000
# 5 0.0000 0.0000 0.0000 0.0000 5.4810 0.0000
# 6 0.0000 0.0000 0.0000 0.0000 0.0000 8.8337
#
#
#
# Elastic Compliance Matrix: (Units=1/GPa)
#
#
# Indices 1 2 3 4 5 6 
#
# 1 0.009660 -0.003160 -0.005705 0.000000 0.000000 0.000000
# 2 -0.003160 0.006548 -0.002269 0.000000 0.000000 0.000000
# 3 -0.005705 -0.002269 0.052811 0.000000 0.000000 0.000000
# 4 0.000000 0.000000 0.000000 0.084647 0.000000 0.000000
# 5 0.000000 0.000000 0.000000 0.000000 0.182448 0.000000
# 6 0.000000 0.000000 0.000000 0.000000 0.000000 0.113203
#
#
# Mechanical properties :
#
#
# Convention : Reuss Voigt Hill
#
# Bulk Modulus (GPa) = 21.38980 63.02462 42.20721
# Shear Modulus (GPa) = 10.26334 21.62503 15.94418
#
# Velocity S-wave (km/s) = 2.22590 3.23102 2.77436
# Velocity P-wave (km/s) = 4.11487 6.65917 5.53519
#
# Compressibility (1/GPa) = 0.04675125
#
# Stress axis : x y z
#
# Youngs Moduli (GPa) = 103.51574 152.71342 18.93535
#
# Poissons Ratio (x) = 0.48265 0.10803
# Poissons Ratio (y) = 0.32716 0.04296
# Poissons Ratio (z) = 0.59059 0.34644
#
# Static dielectric constant tensor:
#      x y z
#    x 1.726750 0.000000 0.000000 
#    y 0.000000 1.740000 0.000000 
#    z 0.000000 0.000000 1.756150 
# 
# From -- ./inp_files/6720.got.cif
#   From: 2010.05.17/outbox.cif.g08.bks.cpg/sg65_4_cif.got.tgz:6720.got - 2010.06.03 17:01:31.
