data_PCOD9490169
_publ_section_title
;
Structure prediction by ZEFSAII (Michael W. Deem and Ramdas Pophale) SiO2 
 PCOD9490169
Probable space group: C M M M
;
_chemical_formula_sum "Si O2"
_cell_formula_units_Z 88
_cell_length_a 23.129611
_cell_length_b 23.031941
_cell_length_c 9.167433
_cell_angle_alpha 90.000000
_cell_angle_beta 90.000000
_cell_angle_gamma 90.000000
_cell_volume 4883.673403
_symmetry_space_group_name_H-M "C M M M"
_symmetry_group_IT_number 65
_symmetry_cell_setting 'orthorhombic'
loop_
_space_group_symop_operation_xyz
x,y,z
-x,-y,z
x,-y,-z
-x,y,-z
-x,-y,-z
x,y,-z
-x,y,z
x,-y,z
1/2+x,1/2+y,z
1/2-x,1/2-y,z
1/2+x,1/2-y,-z
1/2-x,1/2+y,-z
1/2-x,1/2-y,-z
1/2+x,1/2+y,-z
1/2-x,1/2+y,z
1/2+x,1/2-y,z
loop_
_atom_site_type_symbol
_atom_site_label
_atom_site_fract_x
_atom_site_fract_y
_atom_site_fract_z
Si Si1 0.565154 0.273452 0.672854
Si Si2 0.623842 0.623565 0.175347
Si Si3 0.566143 0.064261 0.175000
Si Si4 0.067959 0.000000 0.177176
Si Si5 0.136777 0.661130 0.331017
Si Si6 0.267443 0.315163 0.328495
O O1 0.570503 0.286682 0.500000
O O2 0.500000 0.250995 0.697525
O O3 0.576694 0.330540 0.766552
O O4 0.612872 0.224911 0.710205
O O5 0.602581 0.558820 0.219757
O O6 0.683353 0.648828 0.245071
O O7 0.628209 0.624931 0.000000
O O8 0.500000 0.073117 0.222872
O O9 0.605791 0.113861 0.235409
O O10 0.584691 0.000000 0.223109
O O11 0.566462 0.065034 0.000000
O O12 0.000000 0.000000 0.225389
O O13 0.066244 0.000000 0.000000
O O14 0.119909 0.653991 0.500000
O O15 0.205332 0.654333 0.320717
O O16 0.284744 0.309227 0.500000
O O17 0.250000 0.250000 0.276190
#
# Coordination Sequence:
#
# PCOD9490169 Si02
#       6
#    16  16  16   8  16  16
#     4  10  20  35  56  83 115 147 182 228 283 340
#     4  11  22  37  60  86 114 148 192 239 285 342
#     4   9  19  36  55  77 110 148 181 221 276 331
#     4   9  20  40  61  83 117 157 192 235 294 349
#     4  10  20  35  57  81 107 144 188 230 275 332
#     4  10  20  39  61  79 111 151 183 224 281 339
#
# _framework density 18.019223
#
# number of rings (size 3 to 8) (size 9 to 14) (size 15 to 20)
#    0.000    2.091    1.818    2.182    0.000    4.364 
#    1.636    2.727    0.000    3.273    0.000    0.000 
#    0.000    0.000    0.000    0.000    0.000    0.000 
#
# Total GULP energy -245290.916277 kJ/mol
# GULP energy per Si atom -5574.793552 kJ/mol
# Density = 1.797821 g / cm^3
# Si number density = 18.019223 Si / 1000 Ang^3
#
#
#
# Elastic Constant Matrix: (Units=GPa)
#
#
# Indices 1 2 3 4 5 6 
#
# 1 98.0653 57.1382 32.4427 0.0000 0.0000 0.0000
# 2 57.1382 102.7480 38.9428 0.0000 0.0000 0.0000
# 3 32.4427 38.9428 33.0471 0.0000 0.0000 0.0000
# 4 0.0000 0.0000 0.0000 36.0910 0.0000 0.0000
# 5 0.0000 0.0000 0.0000 0.0000 32.3848 0.0000
# 6 0.0000 0.0000 0.0000 0.0000 0.0000 17.9872
#
#
#
# Elastic Compliance Matrix: (Units=1/GPa)
#
#
# Indices 1 2 3 4 5 6 
#
# 1 0.016687 -0.005549 -0.009842 0.000000 0.000000 0.000000
# 2 -0.005549 0.019433 -0.017452 0.000000 0.000000 0.000000
# 3 -0.009842 -0.017452 0.060488 0.000000 0.000000 0.000000
# 4 0.000000 0.000000 0.000000 0.027708 0.000000 0.000000
# 5 0.000000 0.000000 0.000000 0.000000 0.030879 0.000000
# 6 0.000000 0.000000 0.000000 0.000000 0.000000 0.055595
#
#
# Mechanical properties :
#
#
# Convention : Reuss Voigt Hill
#
# Bulk Modulus (GPa) = 32.34140 54.54532 43.44336
# Shear Modulus (GPa) = 17.43473 24.31505 20.87489
#
# Velocity S-wave (km/s) = 3.11394 3.67740 3.40734
# Velocity P-wave (km/s) = 5.56022 6.95466 6.29617
#
# Compressibility (1/GPa) = 0.03092012
#
# Stress axis : x y z
#
# Youngs Moduli (GPa) = 59.92828 51.45878 16.53215
#
# Poissons Ratio (x) = 0.28555 0.16272
# Poissons Ratio (y) = 0.33254 0.28853
# Poissons Ratio (z) = 0.58984 0.89808
#
# Static dielectric constant tensor:
#      x y z
#    x 1.633330 0.000000 0.000000 
#    y 0.000000 1.619700 0.000000 
#    z 0.000000 0.000000 1.604400 
# 
# From -- ./inp_files/11810.got.cif
#   From: 2010.05.17/outbox.cif.g08.bks.cpg/sg65_6_cif.got.tgz:11810.got - 2010.06.03 17:01:31.
