data_PCOD9490078
_publ_section_title
;
Structure prediction by ZEFSAII (Michael W. Deem and Ramdas Pophale) SiO2 
 PCOD9490078
Probable space group: C M M M
;
_chemical_formula_sum "Si O2"
_cell_formula_units_Z 120
_cell_length_a 23.080179
_cell_length_b 13.661996
_cell_length_c 19.822386
_cell_angle_alpha 90.000000
_cell_angle_beta 90.000000
_cell_angle_gamma 90.000000
_cell_volume 6250.420784
_symmetry_space_group_name_H-M "C M M M"
_symmetry_group_IT_number 65
_symmetry_cell_setting 'orthorhombic'
loop_
_space_group_symop_operation_xyz
x,y,z
-x,-y,z
x,-y,-z
-x,y,-z
-x,-y,-z
x,y,-z
-x,y,z
x,-y,z
1/2+x,1/2+y,z
1/2-x,1/2-y,z
1/2+x,1/2-y,-z
1/2-x,1/2+y,-z
1/2-x,1/2-y,-z
1/2+x,1/2+y,-z
1/2-x,1/2+y,z
1/2+x,1/2-y,z
loop_
_atom_site_type_symbol
_atom_site_label
_atom_site_fract_x
_atom_site_fract_y
_atom_site_fract_z
Si Si1 0.346760 0.881147 0.881722
Si Si2 0.125673 0.616433 0.274472
Si Si3 0.342901 0.382096 0.208842
Si Si4 0.433470 0.700111 0.310897
Si Si5 0.651964 0.618627 0.422281
Si Si6 0.067056 0.380418 0.000000
Si Si7 0.716648 0.619783 0.924089
Si Si8 0.250416 0.617779 0.321091
O O1 0.361549 0.859997 0.804074
O O2 0.396158 0.849331 0.934303
O O3 0.282051 0.850734 0.903602
O O4 0.345476 0.000000 0.885680
O O5 0.116375 0.500000 0.280319
O O6 0.074798 0.683477 0.302426
O O7 0.184020 0.646887 0.314438
O O8 0.345312 0.500000 0.209345
O O9 0.399545 0.344169 0.246506
O O10 0.328871 0.349380 0.133147
O O11 0.288044 0.353400 0.255691
O O12 0.500000 0.671612 0.312928
O O13 0.398839 0.662338 0.376248
O O14 0.649290 0.648608 0.500000
O O15 0.647759 0.500000 0.419092
O O16 0.712658 0.646134 0.386366
O O17 0.065989 0.500000 0.000000
O O18 0.000000 0.347999 0.000000
O O19 0.716538 0.500000 0.923809
O O20 0.703406 0.651562 0.000000
O O21 0.249029 0.500000 0.319567
#
# Coordination Sequence:
#
# PCOD9490078 Si02
#       8
#    16  16  16  16  16   8  16  16
#     4   9  15  26  46  72 103 140 182 234 286 329
#     4  10  20  35  56  79 109 149 191 233 274 320
#     4   9  17  31  53  81 110 139 173 223 286 343
#     4  11  24  38  54  79 111 149 194 233 268 322
#     4   9  19  37  63  94 122 143 168 214 279 341
#     4   9  16  24  38  66 101 140 190 240 289 339
#     4   9  14  24  48  80 110 136 172 226 288 349
#     4   8  14  29  53  82 113 141 171 213 271 333
#
# _framework density 19.198708
#
# number of rings (size 3 to 8) (size 9 to 14) (size 15 to 20)
#    0.000    2.733    2.000    1.200    0.000    4.267 
#    0.000    3.333    1.467    2.400    0.000    2.800 
#    0.000    0.000    0.000    0.000    0.000    0.000 
#
# Total GULP energy -334991.768018 kJ/mol
# GULP energy per Si atom -5583.196134 kJ/mol
# Density = 1.915501 g / cm^3
# Si number density = 19.198708 Si / 1000 Ang^3
#
#
#
# Elastic Constant Matrix: (Units=GPa)
#
#
# Indices 1 2 3 4 5 6 
#
# 1 97.5764 4.0437 55.6336 0.0000 0.0000 0.0000
# 2 4.0437 64.1979 24.9596 0.0000 0.0000 0.0000
# 3 55.6336 24.9596 149.7647 0.0000 0.0000 0.0000
# 4 0.0000 0.0000 0.0000 17.3312 0.0000 0.0000
# 5 0.0000 0.0000 0.0000 0.0000 10.6982 0.0000
# 6 0.0000 0.0000 0.0000 0.0000 0.0000 20.6376
#
#
#
# Elastic Compliance Matrix: (Units=1/GPa)
#
#
# Indices 1 2 3 4 5 6 
#
# 1 0.013080 0.001139 -0.005049 0.000000 0.000000 0.000000
# 2 0.001139 0.016755 -0.003216 0.000000 0.000000 0.000000
# 3 -0.005049 -0.003216 0.009088 0.000000 0.000000 0.000000
# 4 0.000000 0.000000 0.000000 0.057699 0.000000 0.000000
# 5 0.000000 0.000000 0.000000 0.000000 0.093474 0.000000
# 6 0.000000 0.000000 0.000000 0.000000 0.000000 0.048455
#
#
# Mechanical properties :
#
#
# Convention : Reuss Voigt Hill
#
# Bulk Modulus (GPa) = 40.52988 53.42364 46.97676
# Shear Modulus (GPa) = 19.15516 24.86021 22.00769
#
# Velocity S-wave (km/s) = 3.16212 3.60236 3.38939
# Velocity P-wave (km/s) = 5.87269 6.72233 6.31183
#
# Compressibility (1/GPa) = 0.02467315
#
# Stress axis : x y z
#
# Youngs Moduli (GPa) = 76.45475 59.68274 110.02989
#
# Poissons Ratio (x) = -0.06798 0.55549
# Poissons Ratio (y) = -0.08708 0.35380
# Poissons Ratio (z) = 0.38599 0.19191
#
# Static dielectric constant tensor:
#      x y z
#    x 1.624000 0.000000 0.000000 
#    y 0.000000 1.745250 0.000000 
#    z 0.000000 0.000000 1.655310 
# 
# From -- ./inp_files/64783.got.cif
#   From: 2010.05.17/outbox.cif.g08.bks.cpg/sg65_33_cif.got.tgz:64783.got - 2010.06.03 17:01:31.
