data_PCOD9490156
_publ_section_title
;
Structure prediction by ZEFSAII (Michael W. Deem and Ramdas Pophale) SiO2 
 PCOD9490156
Probable space group: C M M M
;
_chemical_formula_sum "Si O2"
_cell_formula_units_Z 72
_cell_length_a 16.330089
_cell_length_b 7.584579
_cell_length_c 26.384455
_cell_angle_alpha 90.000000
_cell_angle_beta 90.000000
_cell_angle_gamma 90.000000
_cell_volume 3267.895488
_symmetry_space_group_name_H-M "C M M M"
_symmetry_group_IT_number 65
_symmetry_cell_setting 'orthorhombic'
loop_
_space_group_symop_operation_xyz
x,y,z
-x,-y,z
x,-y,-z
-x,y,-z
-x,-y,-z
x,y,-z
-x,y,z
x,-y,z
1/2+x,1/2+y,z
1/2-x,1/2-y,z
1/2+x,1/2-y,-z
1/2-x,1/2+y,-z
1/2-x,1/2-y,-z
1/2+x,1/2+y,-z
1/2-x,1/2+y,z
1/2+x,1/2-y,z
loop_
_atom_site_type_symbol
_atom_site_label
_atom_site_fract_x
_atom_site_fract_y
_atom_site_fract_z
Si Si1 0.342021 0.711310 0.878130
Si Si2 0.653909 0.788511 0.554261
Si Si3 0.000000 0.784070 0.058400
Si Si4 0.592747 0.211639 0.662178
Si Si5 0.905419 0.789106 0.228348
O O1 0.348967 0.500000 0.877039
O O2 0.250000 0.750000 0.895660
O O3 0.417486 0.774363 0.912714
O O4 0.356731 0.777522 0.820578
O O5 0.618929 0.723296 0.500000
O O6 0.750000 0.750000 0.552848
O O7 0.624680 0.718822 0.608517
O O8 0.640885 0.000000 0.554529
O O9 0.000000 0.000000 0.059244
O O10 0.000000 0.729237 0.000000
O O11 0.500000 0.277143 0.667024
O O12 0.632584 0.251672 0.716426
O O13 0.592207 0.000000 0.658348
O O14 0.000000 0.721804 0.226247
O O15 0.910051 0.000000 0.224293
#
# Coordination Sequence:
#
# PCOD9490156 Si02
#       5
#    16  16   8  16  16
#     4  10  20  35  56  83 111 143 184 224 266 318
#     4   9  18  32  48  65  89 123 160 200 248 301
#     4   9  18  36  61  83 109 149 188 221 262 316
#     4   9  18  31  48  72  98 124 160 206 254 302
#     4   9  17  32  52  71  98 136 173 208 252 310
#
# _framework density 22.032527999999999
#
# number of rings (size 3 to 8) (size 9 to 14) (size 15 to 20)
#    0.000    2.778    1.111    0.000    0.000    3.556 
#    0.000    7.222    0.000    0.667    0.000    6.222 
#    0.000    0.000    0.000    0.000    0.000    0.000 
#
# Total GULP energy -200670.414544 kJ/mol
# GULP energy per Si atom -5574.178182 kJ/mol
# Density = 2.198238 g / cm^3
# Si number density = 22.032528 Si / 1000 Ang^3
#
#
#
# Elastic Constant Matrix: (Units=GPa)
#
#
# Indices 1 2 3 4 5 6 
#
# 1 106.7881 -1.5809 88.5473 0.0000 0.0000 0.0000
# 2 -1.5809 49.8069 9.3901 0.0000 0.0000 0.0000
# 3 88.5473 9.3901 223.9531 0.0000 0.0000 0.0000
# 4 0.0000 0.0000 0.0000 14.5527 0.0000 0.0000
# 5 0.0000 0.0000 0.0000 0.0000 -39.6882 0.0000
# 6 0.0000 0.0000 0.0000 0.0000 0.0000 15.7137
#
#
#
# Elastic Compliance Matrix: (Units=1/GPa)
#
#
# Indices 1 2 3 4 5 6 
#
# 1 0.014043 0.001504 -0.005615 0.000000 0.000000 0.000000
# 2 0.001504 0.020399 -0.001450 0.000000 0.000000 0.000000
# 3 -0.005615 -0.001450 0.006746 0.000000 0.000000 0.000000
# 4 0.000000 0.000000 0.000000 0.068716 0.000000 0.000000
# 5 0.000000 0.000000 0.000000 0.000000 -0.025196 0.000000
# 6 0.000000 0.000000 0.000000 0.000000 0.000000 0.063639
#
#
# Mechanical properties :
#
#
# Convention : Reuss Voigt Hill
#
# Bulk Modulus (GPa) = 33.26064 63.69569 48.47817
# Shear Modulus (GPa) = 29.50030 17.06174 23.28102
#
# Velocity S-wave (km/s) = 3.66313 2.78580 3.25417
# Velocity P-wave (km/s) = 5.74633 6.27058 6.01417
#
# Compressibility (1/GPa) = 0.03006557
#
# Stress axis : x y z
#
# Youngs Moduli (GPa) = 71.21094 49.02274 148.23072
#
# Poissons Ratio (x) = -0.07375 0.83237
# Poissons Ratio (y) = -0.10713 0.21495
# Poissons Ratio (z) = 0.39987 0.07109
#
# Static dielectric constant tensor:
#      x y z
#    x 1.788320 0.000000 0.000000 
#    y 0.000000 1.847980 0.000000 
#    z 0.000000 0.000000 1.870360 
# 
# From -- ./inp_files/67000.got.cif
#   From: 2010.05.17/outbox.cif.g08.bks.cpg/sg65_34_cif.got.tgz:67000.got - 2010.06.03 17:01:31.
