data_PCOD9490291
_publ_section_title
;
Structure prediction by ZEFSAII (Michael W. Deem and Ramdas Pophale) SiO2 
 PCOD9490291
Probable space group: C M M M
;
_chemical_formula_sum "Si O2"
_cell_formula_units_Z 64
_cell_length_a 9.078798
_cell_length_b 16.048668
_cell_length_c 22.842771
_cell_angle_alpha 90.000000
_cell_angle_beta 90.000000
_cell_angle_gamma 90.000000
_cell_volume 3328.251467
_symmetry_space_group_name_H-M "C M M M"
_symmetry_group_IT_number 65
_symmetry_cell_setting 'orthorhombic'
loop_
_space_group_symop_operation_xyz
x,y,z
-x,-y,z
x,-y,-z
-x,y,-z
-x,-y,-z
x,y,-z
-x,y,z
x,-y,z
1/2+x,1/2+y,z
1/2-x,1/2-y,z
1/2+x,1/2-y,-z
1/2-x,1/2+y,-z
1/2-x,1/2-y,-z
1/2+x,1/2+y,-z
1/2-x,1/2+y,z
1/2+x,1/2-y,z
loop_
_atom_site_type_symbol
_atom_site_label
_atom_site_fract_x
_atom_site_fract_y
_atom_site_fract_z
Si Si1 0.334331 0.599703 0.885331
Si Si2 0.322175 0.836815 0.359967
Si Si3 0.675057 0.839589 0.000000
Si Si4 0.326035 0.100303 0.768358
Si Si5 0.820593 0.500000 0.567377
O O1 0.500000 0.632742 0.894481
O O2 0.343192 0.500000 0.879863
O O3 0.264602 0.630331 0.824565
O O4 0.233885 0.617562 0.941122
O O5 0.500000 0.830866 0.363199
O O6 0.250000 0.750000 0.378259
O O7 0.283076 0.856909 0.292453
O O8 0.275162 0.916101 0.398844
O O9 0.750000 0.750000 0.000000
O O10 0.500000 0.835727 0.000000
O O11 0.500000 0.114102 0.778504
O O12 0.306615 0.000000 0.761497
O O13 0.772882 0.500000 0.500000
O O14 0.000000 0.500000 0.568282
#
# Coordination Sequence:
#
# PCOD9490291 Si02
#       5
#    16  16   8  16   8
#     4  10  21  37  58  84 113 145 185 233 285 340
#     4  10  20  35  57  86 117 153 196 244 293 347
#     4  12  25  40  57  77 107 147 189 236 289 344
#     4   9  17  33  56  79 107 146 193 237 282 341
#     4   9  18  36  61  85 115 158 201 238 283 347
#
# _framework density 19.229316000000001
#
# number of rings (size 3 to 8) (size 9 to 14) (size 15 to 20)
#    0.000    2.125    1.250    2.250    0.000    5.500 
#    0.000    3.125    0.000    0.750    0.000    0.000 
#    0.000    0.000    0.000    0.000    0.000    0.000 
#
# Total GULP energy -178665.356650 kJ/mol
# GULP energy per Si atom -5583.292395 kJ/mol
# Density = 1.918555 g / cm^3
# Si number density = 19.229316 Si / 1000 Ang^3
#
#
#
# Elastic Constant Matrix: (Units=GPa)
#
#
# Indices 1 2 3 4 5 6 
#
# 1 79.6179 39.7506 60.8802 0.0000 0.0000 0.0000
# 2 39.7506 93.8016 66.8894 0.0000 0.0000 0.0000
# 3 60.8802 66.8894 159.8338 0.0000 0.0000 0.0000
# 4 0.0000 0.0000 0.0000 -8.2472 0.0000 0.0000
# 5 0.0000 0.0000 0.0000 0.0000 13.4475 0.0000
# 6 0.0000 0.0000 0.0000 0.0000 0.0000 28.1557
#
#
#
# Elastic Compliance Matrix: (Units=1/GPa)
#
#
# Indices 1 2 3 4 5 6 
#
# 1 0.018750 -0.004067 -0.005440 0.000000 0.000000 0.000000
# 2 -0.004067 0.016077 -0.005179 0.000000 0.000000 0.000000
# 3 -0.005440 -0.005179 0.010496 0.000000 0.000000 0.000000
# 4 0.000000 0.000000 0.000000 -0.121253 0.000000 0.000000
# 5 0.000000 0.000000 0.000000 0.000000 0.074363 0.000000
# 6 0.000000 0.000000 0.000000 0.000000 0.000000 0.035517
#
#
# Mechanical properties :
#
#
# Convention : Reuss Voigt Hill
#
# Bulk Modulus (GPa) = 62.68898 74.25486 68.47192
# Shear Modulus (GPa) = 72.84403 17.72005 45.28204
#
# Velocity S-wave (km/s) = 6.16149 3.03894 4.85794
# Velocity P-wave (km/s) = 9.12634 7.14232 8.19460
#
# Compressibility (1/GPa) = 0.01595177
#
# Stress axis : x y z
#
# Youngs Moduli (GPa) = 53.33331 62.19884 95.27319
#
# Poissons Ratio (x) = 0.25293 0.51829
# Poissons Ratio (y) = 0.21688 0.49346
# Poissons Ratio (z) = 0.29013 0.32215
#
# Static dielectric constant tensor:
#      x y z
#    x 1.656620 0.000000 0.000000 
#    y 0.000000 1.702070 0.000000 
#    z 0.000000 0.000000 1.677770 
# 
# From -- ./inp_files/66782.got.cif
#   From: 2010.05.17/outbox.cif.g08.bks.cpg/sg65_34_cif.got.tgz:66782.got - 2010.06.03 17:01:31.
