data_PCOD9490560
_publ_section_title
;
Structure prediction by ZEFSAII (Michael W. Deem and Ramdas Pophale) SiO2 
 PCOD9490560
Probable space group: C M M M
;
_chemical_formula_sum "Si O2"
_cell_formula_units_Z 120
_cell_length_a 19.889889
_cell_length_b 19.065262
_cell_length_c 17.900278
_cell_angle_alpha 90.000000
_cell_angle_beta 90.000000
_cell_angle_gamma 90.000000
_cell_volume 6787.891834
_symmetry_space_group_name_H-M "C M M M"
_symmetry_group_IT_number 65
_symmetry_cell_setting 'orthorhombic'
loop_
_space_group_symop_operation_xyz
x,y,z
-x,-y,z
x,-y,-z
-x,y,-z
-x,-y,-z
x,y,-z
-x,y,z
x,-y,z
1/2+x,1/2+y,z
1/2-x,1/2-y,z
1/2+x,1/2-y,-z
1/2-x,1/2+y,-z
1/2-x,1/2-y,-z
1/2+x,1/2+y,-z
1/2-x,1/2+y,z
1/2+x,1/2-y,z
loop_
_atom_site_type_symbol
_atom_site_label
_atom_site_fract_x
_atom_site_fract_y
_atom_site_fract_z
Si Si1 0.365025 0.339144 0.912453
Si Si2 0.306326 0.581874 0.330948
Si Si3 0.169303 0.416604 0.411622
Si Si4 0.422500 0.661105 0.413432
Si Si5 0.248521 0.081049 0.164004
Si Si6 0.677433 0.217582 0.199089
Si Si7 0.500000 0.419357 0.090922
Si Si8 0.922268 0.306779 0.664386
O O1 0.303745 0.392883 0.898160
O O2 0.349183 0.269912 0.864730
O O3 0.433250 0.377475 0.886651
O O4 0.370568 0.322816 0.000000
O O5 0.315348 0.500000 0.349755
O O6 0.239249 0.607078 0.373759
O O7 0.370822 0.623069 0.358953
O O8 0.291149 0.586814 0.243082
O O9 0.171119 0.403875 0.500000
O O10 0.163362 0.500000 0.398927
O O11 0.108958 0.375462 0.373125
O O12 0.405302 0.647641 0.500000
O O13 0.500000 0.639022 0.401047
O O14 0.418924 0.743467 0.395003
O O15 0.306994 0.139073 0.169755
O O16 0.269146 0.000000 0.154939
O O17 0.750000 0.250000 0.223249
O O18 0.624689 0.213733 0.265987
O O19 0.500000 0.500000 0.117498
O O20 0.500000 0.421854 0.000000
O O21 0.000000 0.315695 0.686380
#
# Coordination Sequence:
#
# PCOD9490560 Si02
#       8
#    16  16  16  16  16  16   8  16
#     4  10  21  36  57  87 119 150 186 230 281 338
#     4  10  20  37  56  78 109 145 190 232 278 341
#     4  10  21  37  59  84 109 143 188 239 294 343
#     4  10  21  35  51  75 108 143 182 231 282 334
#     4  10  20  36  58  80 110 147 184 234 284 333
#     4  10  21  37  58  82 113 154 190 233 283 340
#     4   9  18  34  56  84 121 155 182 219 273 337
#     4  11  23  37  56  82 112 147 188 232 281 342
#
# _framework density 17.678536999999999
#
# number of rings (size 3 to 8) (size 9 to 14) (size 15 to 20)
#    0.000    1.933    1.333    2.800    0.933    5.333 
#    1.200    2.667    0.000    0.000    0.000    0.000 
#    0.000    1.600    0.000    0.000    0.000    0.000 
#
# Total GULP energy -334909.394968 kJ/mol
# GULP energy per Si atom -5581.823249 kJ/mol
# Density = 1.763830 g / cm^3
# Si number density = 17.678537 Si / 1000 Ang^3
#
#
#
# Elastic Constant Matrix: (Units=GPa)
#
#
# Indices 1 2 3 4 5 6 
#
# 1 81.5289 31.5565 26.0743 0.0000 0.0000 0.0000
# 2 31.5565 88.4783 21.3248 0.0000 0.0000 0.0000
# 3 26.0743 21.3248 54.3341 0.0000 0.0000 0.0000
# 4 0.0000 0.0000 0.0000 21.5330 0.0000 0.0000
# 5 0.0000 0.0000 0.0000 0.0000 22.8430 0.0000
# 6 0.0000 0.0000 0.0000 0.0000 0.0000 23.8559
#
#
#
# Elastic Compliance Matrix: (Units=1/GPa)
#
#
# Indices 1 2 3 4 5 6 
#
# 1 0.015788 -0.004202 -0.005927 0.000000 0.000000 0.000000
# 2 -0.004202 0.013602 -0.003322 0.000000 0.000000 0.000000
# 3 -0.005927 -0.003322 0.022553 0.000000 0.000000 0.000000
# 4 0.000000 0.000000 0.000000 0.046440 0.000000 0.000000
# 5 0.000000 0.000000 0.000000 0.000000 0.043777 0.000000
# 6 0.000000 0.000000 0.000000 0.000000 0.000000 0.041918
#
#
# Mechanical properties :
#
#
# Convention : Reuss Voigt Hill
#
# Bulk Modulus (GPa) = 39.93620 42.47250 41.20435
# Shear Modulus (GPa) = 22.79708 23.33875 23.06792
#
# Velocity S-wave (km/s) = 3.59490 3.63736 3.61620
# Velocity P-wave (km/s) = 6.31430 6.45892 6.38702
#
# Compressibility (1/GPa) = 0.02503994
#
# Stress axis : x y z
#
# Youngs Moduli (GPa) = 63.34050 73.52103 44.34069
#
# Poissons Ratio (x) = 0.30896 0.26281
# Poissons Ratio (y) = 0.26617 0.14728
# Poissons Ratio (z) = 0.37542 0.24421
#
# Static dielectric constant tensor:
#      x y z
#    x 1.589520 0.000000 0.000000 
#    y 0.000000 1.609060 0.000000 
#    z 0.000000 0.000000 1.596720 
# 
# From -- ./inp_files/54989.got.cif
#   From: 2010.05.17/outbox.cif.g08.bks.cpg/sg65_28_cif.got.tgz:54989.got - 2010.06.03 17:01:31.
