data_PCOD9490737
_publ_section_title
;
Structure prediction by ZEFSAII (Michael W. Deem and Ramdas Pophale) SiO2 
 PCOD9490737
Probable space group: C M M M
;
_chemical_formula_sum "Si O2"
_cell_formula_units_Z 72
_cell_length_a 25.552997
_cell_length_b 10.418990
_cell_length_c 15.726772
_cell_angle_alpha 90.000000
_cell_angle_beta 90.000000
_cell_angle_gamma 90.000000
_cell_volume 4187.039479
_symmetry_space_group_name_H-M "C M M M"
_symmetry_group_IT_number 65
_symmetry_cell_setting 'orthorhombic'
loop_
_space_group_symop_operation_xyz
x,y,z
-x,-y,z
x,-y,-z
-x,y,-z
-x,-y,-z
x,y,-z
-x,y,z
x,-y,z
1/2+x,1/2+y,z
1/2-x,1/2-y,z
1/2+x,1/2-y,-z
1/2-x,1/2+y,-z
1/2-x,1/2-y,-z
1/2+x,1/2+y,-z
1/2-x,1/2+y,z
1/2+x,1/2-y,z
loop_
_atom_site_type_symbol
_atom_site_label
_atom_site_fract_x
_atom_site_fract_y
_atom_site_fract_z
Si Si1 0.940098 0.154084 0.500000
Si Si2 0.500000 0.644883 0.100592
Si Si3 0.697904 0.341956 0.000000
Si Si4 0.886022 0.844592 0.851358
Si Si5 0.294591 0.500000 0.401216
Si Si6 0.829672 0.500000 0.400017
Si Si7 0.633775 0.273836 0.342645
O O1 0.910323 0.195809 0.413832
O O2 0.000000 0.200593 0.500000
O O3 0.940500 0.000000 0.500000
O O4 0.500000 0.500000 0.138817
O O5 0.443913 0.704179 0.122854
O O6 0.500000 0.632487 0.000000
O O7 0.750000 0.250000 0.000000
O O8 0.660703 0.312289 0.917684
O O9 0.708661 0.500000 0.000000
O O10 0.879119 0.799513 0.755066
O O11 0.887436 0.000000 0.853477
O O12 0.309384 0.500000 0.500000
O O13 0.232803 0.500000 0.394210
O O14 0.319301 0.627635 0.362579
O O15 0.843996 0.500000 0.500000
O O16 0.850373 0.371937 0.357277
#
# Coordination Sequence:
#
# PCOD9490737 Si02
#       7
#     8   8   8  16   8   8  16
#     4  11  22  37  60  88 117 154 199 253 302 346
#     4   9  16  32  62  90 115 142 188 251 303 336
#     4  10  22  41  61  89 123 158 195 240 298 360
#     4  10  20  36  61  90 117 152 198 246 294 355
#     4  11  20  38  60  83 114 157 197 246 292 341
#     4  11  24  38  60  83 118 161 205 240 290 351
#     4  12  21  40  58  88 121 154 198 244 296 352
#
# _framework density 17.195920999999998
#
# number of rings (size 3 to 8) (size 9 to 14) (size 15 to 20)
#    0.000    1.333    5.556    0.667    1.556    3.556 
#    2.000    1.111    0.000    0.000    0.000    1.556 
#    0.000    0.000    0.000    0.000    0.000    0.000 
#
# Total GULP energy -200619.617720 kJ/mol
# GULP energy per Si atom -5572.767159 kJ/mol
# Density = 1.715678 g / cm^3
# Si number density = 17.195921 Si / 1000 Ang^3
#
#
#
# Elastic Constant Matrix: (Units=GPa)
#
#
# Indices 1 2 3 4 5 6 
#
# 1 106.1310 36.0928 72.4519 0.0000 0.0000 0.0000
# 2 36.0928 81.1104 25.8506 0.0000 0.0000 0.0000
# 3 72.4519 25.8506 142.6697 0.0000 0.0000 0.0000
# 4 0.0000 0.0000 0.0000 20.9111 0.0000 0.0000
# 5 0.0000 0.0000 0.0000 0.0000 5.7598 0.0000
# 6 0.0000 0.0000 0.0000 0.0000 0.0000 -23.6491
#
#
#
# Elastic Compliance Matrix: (Units=1/GPa)
#
#
# Indices 1 2 3 4 5 6 
#
# 1 0.016016 -0.004813 -0.007261 0.000000 0.000000 0.000000
# 2 -0.004813 0.014531 -0.000189 0.000000 0.000000 0.000000
# 3 -0.007261 -0.000189 0.010731 0.000000 0.000000 0.000000
# 4 0.000000 0.000000 0.000000 0.047821 0.000000 0.000000
# 5 0.000000 0.000000 0.000000 0.000000 0.173617 0.000000
# 6 0.000000 0.000000 0.000000 0.000000 0.000000 -0.042285
#
#
# Mechanical properties :
#
#
# Convention : Reuss Voigt Hill
#
# Bulk Modulus (GPa) = 59.69476 66.52241 63.10858
# Shear Modulus (GPa) = 19.95685 13.63877 16.79781
#
# Velocity S-wave (km/s) = 3.41039 2.81933 3.12885
# Velocity P-wave (km/s) = 7.09208 7.02617 7.05920
#
# Compressibility (1/GPa) = 0.01675189
#
# Stress axis : x y z
#
# Youngs Moduli (GPa) = 62.43713 68.82033 93.18811
#
# Poissons Ratio (x) = 0.33121 0.67668
# Poissons Ratio (y) = 0.30049 0.01760
# Poissons Ratio (z) = 0.45338 0.01300
#
# Static dielectric constant tensor:
#      x y z
#    x 1.625240 0.000000 0.000000 
#    y 0.000000 1.561930 0.000000 
#    z 0.000000 0.000000 1.618110 
# 
# From -- ./inp_files/36735.got.cif
#   From: 2010.05.17/outbox.cif.g08.bks.cpg/sg65_19_cif.got.tgz:36735.got - 2010.06.03 17:01:31.
