data_PCOD9490822
_publ_section_title
;
Structure prediction by ZEFSAII (Michael W. Deem and Ramdas Pophale) SiO2 
 PCOD9490822
Probable space group: C M M M
;
_chemical_formula_sum "Si O2"
_cell_formula_units_Z 92
_cell_length_a 15.146776
_cell_length_b 19.793247
_cell_length_c 15.223685
_cell_angle_alpha 90.000000
_cell_angle_beta 90.000000
_cell_angle_gamma 90.000000
_cell_volume 4564.119810
_symmetry_space_group_name_H-M "C M M M"
_symmetry_group_IT_number 65
_symmetry_cell_setting 'orthorhombic'
loop_
_space_group_symop_operation_xyz
x,y,z
-x,-y,z
x,-y,-z
-x,y,-z
-x,-y,-z
x,y,-z
-x,y,z
x,-y,z
1/2+x,1/2+y,z
1/2-x,1/2-y,z
1/2+x,1/2-y,-z
1/2-x,1/2+y,-z
1/2-x,1/2-y,-z
1/2+x,1/2+y,-z
1/2-x,1/2+y,z
1/2+x,1/2-y,z
loop_
_atom_site_type_symbol
_atom_site_label
_atom_site_fract_x
_atom_site_fract_y
_atom_site_fract_z
Si Si1 0.392938 0.334395 0.096171
Si Si2 0.608163 0.921683 0.000000
Si Si3 0.346964 0.890852 0.691818
Si Si4 0.106262 0.420232 0.500000
Si Si5 0.850271 0.922670 0.263598
Si Si6 0.000000 0.917920 0.600589
Si Si7 0.393212 0.815560 0.852010
Si Si8 0.000000 0.500000 0.729977
O O1 0.500000 0.336513 0.097833
O O2 0.360110 0.378223 0.176897
O O3 0.366397 0.256297 0.108777
O O4 0.363328 0.358355 0.000000
O O5 0.634617 0.878012 0.085303
O O6 0.500000 0.923781 0.000000
O O7 0.637370 0.000000 0.000000
O O8 0.363184 0.884388 0.588345
O O9 0.250005 0.919861 0.705189
O O10 0.357537 0.826235 0.754206
O O11 0.422747 0.941779 0.725215
O O12 0.134822 0.500000 0.500000
O O13 0.000000 0.423002 0.500000
O O14 0.914944 0.898255 0.341541
O O15 0.875401 0.000000 0.243315
O O16 0.000000 0.893014 0.500000
O O17 0.000000 0.000000 0.595579
O O18 0.500000 0.816134 0.850525
#
# Coordination Sequence:
#
# PCOD9490822 Si02
#       8
#    16   8  16   8  16   8  16   4
#     4  10  21  42  69  90 121 169 218 271 332 391
#     4   9  18  28  54  87 123 162 214 260 307 368
#     4  12  23  36  63  92 133 169 210 256 315 383
#     4  11  18  34  58  92 127 169 208 252 308 382
#     4  11  23  40  64  99 128 164 214 273 326 382
#     4   9  20  40  64  92 128 167 214 274 334 383
#     4  10  20  37  59  89 124 167 210 257 316 383
#     4  12  20  41  58  97 132 172 202 249 318 375
#
# _framework density 20.157226999999999
#
# number of rings (size 3 to 8) (size 9 to 14) (size 15 to 20)
#    0.000    1.478    5.217    0.000    2.435    1.043 
#    1.565    1.739    1.913    1.043    0.000    0.000 
#    0.000    0.000    0.000    0.000    0.000    0.000 
#
# Total GULP energy -256438.627181 kJ/mol
# GULP energy per Si atom -5574.752765 kJ/mol
# Density = 2.011135 g / cm^3
# Si number density = 20.157227 Si / 1000 Ang^3
#
#
#
# Elastic Constant Matrix: (Units=GPa)
#
#
# Indices 1 2 3 4 5 6 
#
# 1 107.0851 19.2307 42.9356 0.0000 0.0000 0.0000
# 2 19.2307 65.5521 61.6974 0.0000 0.0000 0.0000
# 3 42.9356 61.6974 195.1428 0.0000 0.0000 0.0000
# 4 0.0000 0.0000 0.0000 13.3300 0.0000 0.0000
# 5 0.0000 0.0000 0.0000 0.0000 14.4695 0.0000
# 6 0.0000 0.0000 0.0000 0.0000 0.0000 35.8026
#
#
#
# Elastic Compliance Matrix: (Units=1/GPa)
#
#
# Indices 1 2 3 4 5 6 
#
# 1 0.010315 -0.001267 -0.001869 0.000000 0.000000 0.000000
# 2 -0.001267 0.021873 -0.006637 0.000000 0.000000 0.000000
# 3 -0.001869 -0.006637 0.007634 0.000000 0.000000 0.000000
# 4 0.000000 0.000000 0.000000 0.075019 0.000000 0.000000
# 5 0.000000 0.000000 0.000000 0.000000 0.069111 0.000000
# 6 0.000000 0.000000 0.000000 0.000000 0.000000 0.027931
#
#
# Mechanical properties :
#
#
# Convention : Reuss Voigt Hill
#
# Bulk Modulus (GPa) = 49.31724 68.38971 58.85348
# Shear Modulus (GPa) = 20.99186 28.98152 24.98669
#
# Velocity S-wave (km/s) = 3.23058 3.79591 3.52460
# Velocity P-wave (km/s) = 6.19959 7.29477 6.76937
#
# Compressibility (1/GPa) = 0.02027688
#
# Stress axis : x y z
#
# Youngs Moduli (GPa) = 96.94360 45.71785 130.99301
#
# Poissons Ratio (x) = 0.05793 0.24482
# Poissons Ratio (y) = 0.12283 0.86937
# Poissons Ratio (z) = 0.18119 0.30342
#
# Static dielectric constant tensor:
#      x y z
#    x 1.721850 0.000000 0.000000 
#    y 0.000000 1.708310 0.000000 
#    z 0.000000 0.000000 1.728530 
# 
# From -- ./inp_files/40487.got.cif
#   From: 2010.05.17/outbox.cif.g08.bks.cpg/sg65_21_cif.got.tgz:40487.got - 2010.06.03 17:01:31.
