data_PCOD9490478
_publ_section_title
;
Structure prediction by ZEFSAII (Michael W. Deem and Ramdas Pophale) SiO2 
 PCOD9490478
Probable space group: C M M M
;
_chemical_formula_sum "Si O2"
_cell_formula_units_Z 104
_cell_length_a 29.556202
_cell_length_b 8.552906
_cell_length_c 21.005999
_cell_angle_alpha 90.000000
_cell_angle_beta 90.000000
_cell_angle_gamma 90.000000
_cell_volume 5310.136262
_symmetry_space_group_name_H-M "C M M M"
_symmetry_group_IT_number 65
_symmetry_cell_setting 'orthorhombic'
loop_
_space_group_symop_operation_xyz
x,y,z
-x,-y,z
x,-y,-z
-x,y,-z
-x,-y,-z
x,y,-z
-x,y,z
x,-y,z
1/2+x,1/2+y,z
1/2-x,1/2-y,z
1/2+x,1/2-y,-z
1/2-x,1/2+y,-z
1/2-x,1/2-y,-z
1/2+x,1/2+y,-z
1/2-x,1/2+y,z
1/2+x,1/2-y,z
loop_
_atom_site_type_symbol
_atom_site_label
_atom_site_fract_x
_atom_site_fract_y
_atom_site_fract_z
Si Si1 0.447248 0.690237 0.571116
Si Si2 0.606487 0.812549 0.927945
Si Si3 0.702683 0.678934 0.922520
Si Si4 0.801220 0.688275 0.500000
Si Si5 0.801013 0.312426 0.639968
Si Si6 0.551605 0.189462 0.192450
Si Si7 0.888981 0.187352 0.307850
O O1 0.433059 0.742511 0.500000
O O2 0.500000 0.734561 0.580374
O O3 0.446039 0.500000 0.570938
O O4 0.416355 0.744216 0.629259
O O5 0.657001 0.768807 0.905422
O O6 0.570272 0.758543 0.876322
O O7 0.603770 0.000000 0.931190
O O8 0.599932 0.751124 0.000000
O O9 0.698992 0.500000 0.902340
O O10 0.750000 0.750000 0.899469
O O11 0.704452 0.682860 0.000000
O O12 0.801890 0.500000 0.500000
O O13 0.750000 0.750000 0.500000
O O14 0.818481 0.740211 0.430895
O O15 0.799575 0.500000 0.641428
O O16 0.750000 0.250000 0.648845
O O17 0.837924 0.249603 0.688729
O O18 0.500000 0.239977 0.202781
O O19 0.584130 0.253564 0.246794
O O20 0.552737 0.000000 0.193989
O O21 0.888361 0.000000 0.308570
#
# Coordination Sequence:
#
# PCOD9490478 Si02
#       7
#    16  16  16   8  16  16  16
#     4   8  15  29  49  75 106 138 177 226 273 316
#     4   9  18  34  57  84 112 143 184 232 280 335
#     4   9  16  27  47  77 113 149 181 216 262 317
#     4   8  16  30  50  76 107 144 183 226 276 327
#     4  10  20  36  56  81 114 151 190 235 282 334
#     4  10  22  40  60  82 111 147 185 230 286 344
#     4  11  22  35  56  83 111 149 190 230 278 336
#
# _framework density 19.585183000000001
#
# number of rings (size 3 to 8) (size 9 to 14) (size 15 to 20)
#    0.000    2.615    0.000    2.308    1.077    4.308 
#    0.000    2.308    0.000    3.692    0.000    6.462 
#    0.000    0.000    0.000    0.000    0.000    0.000 
#
# Total GULP energy -289998.228253 kJ/mol
# GULP energy per Si atom -5576.889005 kJ/mol
# Density = 1.954061 g / cm^3
# Si number density = 19.585183 Si / 1000 Ang^3
#
#
#
# Elastic Constant Matrix: (Units=GPa)
#
#
# Indices 1 2 3 4 5 6 
#
# 1 132.0579 23.6401 77.6041 0.0000 0.0000 0.0000
# 2 23.6401 19.0640 24.4659 0.0000 0.0000 0.0000
# 3 77.6041 24.4659 93.8168 0.0000 0.0000 0.0000
# 4 0.0000 0.0000 0.0000 18.5585 0.0000 0.0000
# 5 0.0000 0.0000 0.0000 0.0000 30.0197 0.0000
# 6 0.0000 0.0000 0.0000 0.0000 0.0000 20.7264
#
#
#
# Elastic Compliance Matrix: (Units=1/GPa)
#
#
# Indices 1 2 3 4 5 6 
#
# 1 0.014936 -0.004006 -0.011310 0.000000 0.000000 0.000000
# 2 -0.004006 0.079916 -0.017527 0.000000 0.000000 0.000000
# 3 -0.011310 -0.017527 0.024585 0.000000 0.000000 0.000000
# 4 0.000000 0.000000 0.000000 0.053884 0.000000 0.000000
# 5 0.000000 0.000000 0.000000 0.000000 0.033311 0.000000
# 6 0.000000 0.000000 0.000000 0.000000 0.000000 0.048248
#
#
# Mechanical properties :
#
#
# Convention : Reuss Voigt Hill
#
# Bulk Modulus (GPa) = 18.60432 55.15101 36.87766
# Shear Modulus (GPa) = 14.77175 21.80950 18.29062
#
# Velocity S-wave (km/s) = 2.74931 3.34064 3.05929
# Velocity P-wave (km/s) = 4.42697 6.56510 5.59904
#
# Compressibility (1/GPa) = 0.05375097
#
# Stress axis : x y z
#
# Youngs Moduli (GPa) = 66.95222 12.51310 40.67457
#
# Poissons Ratio (x) = 0.05013 0.46003
# Poissons Ratio (y) = 0.26823 0.71290
# Poissons Ratio (z) = 0.75724 0.21932
#
# Static dielectric constant tensor:
#      x y z
#    x 1.668940 0.000000 0.000000 
#    y 0.000000 1.660260 0.000000 
#    z 0.000000 0.000000 1.717830 
# 
# From -- ./inp_files/65901.got.cif
#   From: 2010.05.17/outbox.cif.g08.bks.cpg/sg65_33_cif.got.tgz:65901.got - 2010.06.03 17:01:31.
