data_PCOD9490384
_publ_section_title
;
Structure prediction by ZEFSAII (Michael W. Deem and Ramdas Pophale) SiO2 
 PCOD9490384
Probable space group: C M M M
;
_chemical_formula_sum "Si O2"
_cell_formula_units_Z 104
_cell_length_a 27.384494
_cell_length_b 21.363230
_cell_length_c 9.784528
_cell_angle_alpha 90.000000
_cell_angle_beta 90.000000
_cell_angle_gamma 90.000000
_cell_volume 5724.156740
_symmetry_space_group_name_H-M "C M M M"
_symmetry_group_IT_number 65
_symmetry_cell_setting 'orthorhombic'
loop_
_space_group_symop_operation_xyz
x,y,z
-x,-y,z
x,-y,-z
-x,y,-z
-x,-y,-z
x,y,-z
-x,y,z
x,-y,z
1/2+x,1/2+y,z
1/2-x,1/2-y,z
1/2+x,1/2-y,-z
1/2-x,1/2+y,-z
1/2-x,1/2-y,-z
1/2+x,1/2+y,-z
1/2-x,1/2+y,z
1/2+x,1/2-y,z
loop_
_atom_site_type_symbol
_atom_site_label
_atom_site_fract_x
_atom_site_fract_y
_atom_site_fract_z
Si Si1 0.793848 0.573997 0.336263
Si Si2 0.441323 0.925176 0.000000
Si Si3 0.057599 0.236767 0.662669
Si Si4 0.446447 0.073315 0.500000
Si Si5 0.609073 0.135877 0.258519
Si Si6 0.592242 0.618548 0.163195
Si Si7 0.058284 0.000000 0.658749
Si Si8 0.300381 0.426406 0.844151
O O1 0.792446 0.583196 0.500000
O O2 0.806145 0.500000 0.312098
O O3 0.833979 0.619328 0.269108
O O4 0.741712 0.585490 0.265419
O O5 0.416382 0.890075 0.124801
O O6 0.500000 0.917902 0.000000
O O7 0.431379 0.000000 0.000000
O O8 0.064711 0.223004 0.500000
O O9 0.092406 0.293973 0.706749
O O10 0.070621 0.178990 0.761057
O O11 0.000000 0.252890 0.679757
O O12 0.500000 0.103507 0.500000
O O13 0.415830 0.093912 0.626964
O O14 0.451707 0.000000 0.500000
O O15 0.573834 0.559875 0.252298
O O16 0.651192 0.614783 0.172157
O O17 0.579831 0.614970 0.000000
O O18 0.077133 0.000000 0.500000
O O19 0.000000 0.000000 0.649222
O O20 0.314870 0.500000 0.831561
O O21 0.281791 0.418359 0.000000
#
# Coordination Sequence:
#
# PCOD9490384 Si02
#       8
#    16   8  16   8  16  16   8  16
#     4  10  20  35  59  92 122 156 205 256 309 369
#     4  11  24  38  56  86 121 157 207 265 320 372
#     4  11  24  42  62  87 123 170 214 251 305 374
#     4  11  20  34  60  86 113 155 205 257 312 362
#     4  12  23  39  59  85 125 165 207 255 309 367
#     4  11  23  41  65  93 125 162 208 257 311 373
#     4  11  23  39  63  97 133 163 199 255 316 371
#     4   9  19  38  62  89 121 156 196 249 313 375
#
# _framework density 18.168614999999999
#
# number of rings (size 3 to 8) (size 9 to 14) (size 15 to 20)
#    0.000    1.308    2.308    3.923    2.154    5.231 
#    0.000    0.769    0.000    3.692    0.000    0.000 
#    0.000    0.000    0.000    0.000    0.000    0.000 
#
# Total GULP energy -290164.167341 kJ/mol
# GULP energy per Si atom -5580.080141 kJ/mol
# Density = 1.812726 g / cm^3
# Si number density = 18.168615 Si / 1000 Ang^3
#
#
#
# Elastic Constant Matrix: (Units=GPa)
#
#
# Indices 1 2 3 4 5 6 
#
# 1 79.7876 29.7979 42.5623 0.0000 0.0000 0.0000
# 2 29.7979 99.1709 53.5483 0.0000 0.0000 0.0000
# 3 42.5623 53.5483 150.1148 0.0000 0.0000 0.0000
# 4 0.0000 0.0000 0.0000 32.1762 0.0000 0.0000
# 5 0.0000 0.0000 0.0000 0.0000 85.8323 0.0000
# 6 0.0000 0.0000 0.0000 0.0000 0.0000 29.9145
#
#
#
# Elastic Compliance Matrix: (Units=1/GPa)
#
#
# Indices 1 2 3 4 5 6 
#
# 1 0.015372 -0.002806 -0.003358 0.000000 0.000000 0.000000
# 2 -0.002806 0.013001 -0.003842 0.000000 0.000000 0.000000
# 3 -0.003358 -0.003842 0.008984 0.000000 0.000000 0.000000
# 4 0.000000 0.000000 0.000000 0.031079 0.000000 0.000000
# 5 0.000000 0.000000 0.000000 0.000000 0.011651 0.000000
# 6 0.000000 0.000000 0.000000 0.000000 0.000000 0.033429
#
#
# Mechanical properties :
#
#
# Convention : Reuss Voigt Hill
#
# Bulk Modulus (GPa) = 57.64933 64.54336 61.09635
# Shear Modulus (GPa) = 35.89130 43.12891 39.51011
#
# Velocity S-wave (km/s) = 4.44943 4.87747 4.66836
# Velocity P-wave (km/s) = 7.62861 8.20496 7.92203
#
# Compressibility (1/GPa) = 0.01734625
#
# Stress axis : x y z
#
# Youngs Moduli (GPa) = 65.05208 76.91515 111.30734
#
# Poissons Ratio (x) = 0.21582 0.37373
# Poissons Ratio (y) = 0.18253 0.42767
# Poissons Ratio (z) = 0.21842 0.29552
#
# Static dielectric constant tensor:
#      x y z
#    x 1.639570 0.000000 0.000000 
#    y 0.000000 1.646780 0.000000 
#    z 0.000000 0.000000 1.607020 
# 
# From -- ./inp_files/16543.got.cif
#   From: 2010.05.17/outbox.cif.g08.bks.cpg/sg65_9_cif.got.tgz:16543.got - 2010.06.03 17:01:31.
