data_PCOD9490719
_publ_section_title
;
Structure prediction by ZEFSAII (Michael W. Deem and Ramdas Pophale) SiO2 
 PCOD9490719
Probable space group: C M M M
;
_chemical_formula_sum "Si O2"
_cell_formula_units_Z 56
_cell_length_a 10.149689
_cell_length_b 14.335053
_cell_length_c 20.062627
_cell_angle_alpha 90.000000
_cell_angle_beta 90.000000
_cell_angle_gamma 90.000000
_cell_volume 2919.038594
_symmetry_space_group_name_H-M "C M M M"
_symmetry_group_IT_number 65
_symmetry_cell_setting 'orthorhombic'
loop_
_space_group_symop_operation_xyz
x,y,z
-x,-y,z
x,-y,-z
-x,y,-z
-x,-y,-z
x,y,-z
-x,y,z
x,-y,z
1/2+x,1/2+y,z
1/2-x,1/2-y,z
1/2+x,1/2-y,-z
1/2-x,1/2+y,-z
1/2-x,1/2-y,-z
1/2+x,1/2+y,-z
1/2-x,1/2+y,z
1/2+x,1/2-y,z
loop_
_atom_site_type_symbol
_atom_site_label
_atom_site_fract_x
_atom_site_fract_y
_atom_site_fract_z
Si Si1 0.000000 0.822230 0.077597
Si Si2 0.772618 0.859965 0.177832
Si Si3 0.659322 0.500000 0.575521
Si Si4 0.844679 0.839275 0.677471
Si Si5 0.500000 0.899093 0.885708
O O1 0.875762 0.864947 0.117227
O O2 0.000000 0.706823 0.082476
O O3 0.000000 0.845724 0.000000
O O4 0.750000 0.750000 0.184999
O O5 0.826150 0.888003 0.250040
O O6 0.632214 0.899942 0.157981
O O7 0.500000 0.500000 0.572428
O O8 0.710207 0.500000 0.500000
O O9 0.693989 0.590474 0.618702
O O10 0.750000 0.750000 0.673943
O O11 0.000000 0.814398 0.672151
O O12 0.500000 0.000000 0.923273
#
# Coordination Sequence:
#
# PCOD9490719 Si02
#       5
#     8  16   8  16   8
#     4  10  20  39  61  78 110 154 194 235 288 353
#     4   9  19  35  55  84 110 147 195 234 282 340
#     4   9  20  38  59  89 123 159 196 232 291 356
#     4  10  20  36  60  89 117 157 196 246 286 343
#     4  10  22  35  54  85 113 145 187 248 287 342
#
# _framework density 19.184398999999999
#
# number of rings (size 3 to 8) (size 9 to 14) (size 15 to 20)
#    0.000    2.429    1.429    0.000    8.000    6.000 
#    0.000    1.429    0.000    1.714    0.000    0.000 
#    0.000    0.000    0.000    0.000    0.000    0.000 
#
# Total GULP energy -155929.254182 kJ/mol
# GULP energy per Si atom -5568.901935 kJ/mol
# Density = 1.914073 g / cm^3
# Si number density = 19.184399 Si / 1000 Ang^3
#
#
#
# Elastic Constant Matrix: (Units=GPa)
#
#
# Indices 1 2 3 4 5 6 
#
# 1 131.6180 51.5939 64.8862 0.0000 0.0000 0.0000
# 2 51.5939 93.5973 54.1447 0.0000 0.0000 0.0000
# 3 64.8862 54.1447 197.0537 0.0000 0.0000 0.0000
# 4 0.0000 0.0000 0.0000 75.7498 0.0000 0.0000
# 5 0.0000 0.0000 0.0000 0.0000 12.0560 0.0000
# 6 0.0000 0.0000 0.0000 0.0000 0.0000 -203.2495
#
#
#
# Elastic Compliance Matrix: (Units=1/GPa)
#
#
# Indices 1 2 3 4 5 6 
#
# 1 0.010442 -0.004479 -0.002208 0.000000 0.000000 0.000000
# 2 -0.004479 0.014624 -0.002544 0.000000 0.000000 0.000000
# 3 -0.002208 -0.002544 0.006501 0.000000 0.000000 0.000000
# 4 0.000000 0.000000 0.000000 0.013201 0.000000 0.000000
# 5 0.000000 0.000000 0.000000 0.000000 0.082946 0.000000
# 6 0.000000 0.000000 0.000000 0.000000 0.000000 -0.004920
#
#
# Mechanical properties :
#
#
# Convention : Reuss Voigt Hill
#
# Bulk Modulus (GPa) = 76.29667 84.83541 80.56604
# Shear Modulus (GPa) = 34.33522 -6.31247 14.01138
#
# Velocity S-wave (km/s) = 4.23513 -1.81592 2.70544
# Velocity P-wave (km/s) = 7.98571 6.31825 7.20041
#
# Compressibility (1/GPa) = 0.01310673
#
# Stress axis : x y z
#
# Youngs Moduli (GPa) = 95.76944 68.37926 153.83199
#
# Poissons Ratio (x) = 0.30625 0.33961
# Poissons Ratio (y) = 0.42893 0.39128
# Poissons Ratio (z) = 0.21142 0.17393
#
# Static dielectric constant tensor:
#      x y z
#    x 1.660800 0.000000 0.000000 
#    y 0.000000 1.725330 0.000000 
#    z 0.000000 0.000000 1.671430 
# 
# From -- ./inp_files/58616.got.cif
#   From: 2010.05.17/outbox.cif.g08.bks.cpg/sg65_30_cif.got.tgz:58616.got - 2010.06.03 17:01:31.
