data_PCOD9490901
_publ_section_title
;
Structure prediction by ZEFSAII (Michael W. Deem and Ramdas Pophale) SiO2 
 PCOD9490901
Probable space group: C M M M
;
_chemical_formula_sum "Si O2"
_cell_formula_units_Z 108
_cell_length_a 14.382061
_cell_length_b 33.568216
_cell_length_c 12.398300
_cell_angle_alpha 90.000000
_cell_angle_beta 90.000000
_cell_angle_gamma 90.000000
_cell_volume 5985.652888
_symmetry_space_group_name_H-M "C M M M"
_symmetry_group_IT_number 65
_symmetry_cell_setting 'orthorhombic'
loop_
_space_group_symop_operation_xyz
x,y,z
-x,-y,z
x,-y,-z
-x,y,-z
-x,-y,-z
x,y,-z
-x,y,z
x,-y,z
1/2+x,1/2+y,z
1/2-x,1/2-y,z
1/2+x,1/2-y,-z
1/2-x,1/2+y,-z
1/2-x,1/2-y,-z
1/2+x,1/2+y,-z
1/2-x,1/2+y,z
1/2+x,1/2-y,z
loop_
_atom_site_type_symbol
_atom_site_label
_atom_site_fract_x
_atom_site_fract_y
_atom_site_fract_z
Si Si1 0.104688 0.548268 0.000000
Si Si2 0.391667 0.597841 0.127200
Si Si3 0.392935 0.902966 0.372485
Si Si4 0.603447 0.675305 0.274026
Si Si5 0.224402 0.452352 0.791418
Si Si6 0.500000 0.784385 0.000000
Si Si7 0.147177 0.740241 0.178609
Si Si8 0.800949 0.683307 0.624092
O O1 0.160497 0.559566 0.893610
O O2 0.100306 0.500000 0.000000
O O3 0.000000 0.564023 0.000000
O O4 0.500000 0.586370 0.135479
O O5 0.380592 0.639858 0.188230
O O6 0.324519 0.566319 0.184061
O O7 0.369102 0.601219 0.000000
O O8 0.391332 0.911101 0.500000
O O9 0.500000 0.906377 0.334907
O O10 0.325500 0.932915 0.310639
O O11 0.354942 0.858167 0.357693
O O12 0.500000 0.669665 0.322100
O O13 0.604990 0.717189 0.211573
O O14 0.691143 0.676223 0.354114
O O15 0.228295 0.500000 0.784214
O O16 0.418691 0.781538 0.094516
O O17 0.250000 0.750000 0.134435
O O18 0.163552 0.714770 0.287764
O O19 0.815563 0.696024 0.500000
#
# Coordination Sequence:
#
# PCOD9490901 Si02
#       8
#     8  16  16  16  16   4  16  16
#     4   9  18  32  53  84 117 150 181 233 302 354
#     4  10  21  36  59  89 123 161 201 247 298 361
#     4  10  22  40  63  86 116 158 198 245 301 357
#     4  10  20  37  62  91 119 155 206 244 299 351
#     4  11  21  37  60  87 119 152 197 248 300 365
#     4  12  22  40  58  88 128 156 210 254 286 358
#     4  10  23  38  61  90 119 163 202 249 303 348
#     4  10  22  42  63  88 125 160 201 250 301 359
#
# _framework density 18.043144000000002
#
# number of rings (size 3 to 8) (size 9 to 14) (size 15 to 20)
#    0.000    1.852    2.963    0.667    2.074    4.444 
#    1.333    2.222    1.630    0.444    0.000    1.037 
#    0.000    0.000    0.000    0.000    0.000    0.000 
#
# Total GULP energy -300786.755815 kJ/mol
# GULP energy per Si atom -5570.125108 kJ/mol
# Density = 1.800208 g / cm^3
# Si number density = 18.043144 Si / 1000 Ang^3
#
#
#
# Elastic Constant Matrix: (Units=GPa)
#
#
# Indices 1 2 3 4 5 6 
#
# 1 120.3991 45.1176 53.8652 0.0000 0.0000 0.0000
# 2 45.1176 73.7062 42.1185 0.0000 0.0000 0.0000
# 3 53.8652 42.1185 84.8799 0.0000 0.0000 0.0000
# 4 0.0000 0.0000 0.0000 3.3593 0.0000 0.0000
# 5 0.0000 0.0000 0.0000 0.0000 29.1014 0.0000
# 6 0.0000 0.0000 0.0000 0.0000 0.0000 6.3045
#
#
#
# Elastic Compliance Matrix: (Units=1/GPa)
#
#
# Indices 1 2 3 4 5 6 
#
# 1 0.012529 -0.004363 -0.005786 0.000000 0.000000 0.000000
# 2 -0.004363 0.020457 -0.007382 0.000000 0.000000 0.000000
# 3 -0.005786 -0.007382 0.019116 0.000000 0.000000 0.000000
# 4 0.000000 0.000000 0.000000 0.297680 0.000000 0.000000
# 5 0.000000 0.000000 0.000000 0.000000 0.034363 0.000000
# 6 0.000000 0.000000 0.000000 0.000000 0.000000 0.158618
#
#
# Mechanical properties :
#
#
# Convention : Reuss Voigt Hill
#
# Bulk Modulus (GPa) = 58.68639 62.35421 60.52030
# Shear Modulus (GPa) = 8.56890 16.94528 12.75709
#
# Velocity S-wave (km/s) = 2.18161 3.06789 2.66189
# Velocity P-wave (km/s) = 6.24036 6.86896 6.56219
#
# Compressibility (1/GPa) = 0.01703973
#
# Stress axis : x y z
#
# Youngs Moduli (GPa) = 79.81231 48.88421 52.31140
#
# Poissons Ratio (x) = 0.21329 0.30268
# Poissons Ratio (y) = 0.34823 0.38616
# Poissons Ratio (z) = 0.46181 0.36086
#
# Static dielectric constant tensor:
#      x y z
#    x 1.641560 0.000000 0.000000 
#    y 0.000000 1.596610 0.000000 
#    z 0.000000 0.000000 1.603380 
# 
# From -- ./inp_files/25594.got.cif
#   From: 2010.05.17/outbox.cif.g08.bks.cpg/sg65_13_cif.got.tgz:25594.got - 2010.06.03 17:01:31.
