data_PCOD9490179
_publ_section_title
;
Structure prediction by ZEFSAII (Michael W. Deem and Ramdas Pophale) SiO2 
 PCOD9490179
Probable space group: C M M M
;
_chemical_formula_sum "Si O2"
_cell_formula_units_Z 96
_cell_length_a 21.045421
_cell_length_b 17.296880
_cell_length_c 14.274689
_cell_angle_alpha 90.000000
_cell_angle_beta 90.000000
_cell_angle_gamma 90.000000
_cell_volume 5196.274025
_symmetry_space_group_name_H-M "C M M M"
_symmetry_group_IT_number 65
_symmetry_cell_setting 'orthorhombic'
loop_
_space_group_symop_operation_xyz
x,y,z
-x,-y,z
x,-y,-z
-x,y,-z
-x,-y,-z
x,y,-z
-x,y,z
x,-y,z
1/2+x,1/2+y,z
1/2-x,1/2-y,z
1/2+x,1/2-y,-z
1/2-x,1/2+y,-z
1/2-x,1/2-y,-z
1/2+x,1/2+y,-z
1/2-x,1/2+y,z
1/2+x,1/2-y,z
loop_
_atom_site_type_symbol
_atom_site_label
_atom_site_fract_x
_atom_site_fract_y
_atom_site_fract_z
Si Si1 0.872992 0.091159 0.608971
Si Si2 0.266980 0.839765 0.392322
Si Si3 0.181999 0.592264 0.214917
Si Si4 0.427811 0.342574 0.208952
Si Si5 0.807197 0.907541 0.105440
Si Si6 0.927161 0.677241 0.110105
O O1 0.889563 0.104982 0.500000
O O2 0.798373 0.111792 0.619598
O O3 0.911828 0.142735 0.682176
O O4 0.882443 0.000000 0.629398
O O5 0.287945 0.848442 0.500000
O O6 0.250000 0.750000 0.376874
O O7 0.317181 0.869137 0.316945
O O8 0.183985 0.500000 0.224266
O O9 0.247148 0.620551 0.165215
O O10 0.123444 0.617936 0.151295
O O11 0.500000 0.368366 0.189673
O O12 0.373566 0.388214 0.153491
O O13 0.422261 0.255066 0.171892
O O14 0.801127 0.000000 0.101194
O O15 0.805042 0.876292 0.000000
O O16 0.000000 0.649371 0.117128
O O17 0.914904 0.693903 0.000000
#
# Coordination Sequence:
#
# PCOD9490179 Si02
#       6
#    16  16  16  16  16  16
#     4  10  20  35  56  83 117 156 197 240 287 342
#     4  10  20  35  58  88 120 154 193 236 285 342
#     4  11  22  37  61  90 118 150 189 239 298 347
#     4  11  22  37  56  79 114 157 197 240 291 344
#     4  10  21  35  52  80 115 150 192 238 285 345
#     4  10  23  42  62  85 113 150 198 247 295 351
#
# _framework density 18.474775999999999
#
# number of rings (size 3 to 8) (size 9 to 14) (size 15 to 20)
#    0.000    1.667    1.667    3.000    0.000    5.000 
#    0.000    4.167    0.000    1.500    0.000    1.167 
#    0.000    0.000    0.000    0.000    0.000    0.000 
#
# Total GULP energy -268011.149073 kJ/mol
# GULP energy per Si atom -5583.565606 kJ/mol
# Density = 1.843273 g / cm^3
# Si number density = 18.474776 Si / 1000 Ang^3
#
#
#
# Elastic Constant Matrix: (Units=GPa)
#
#
# Indices 1 2 3 4 5 6 
#
# 1 70.2712 24.8435 48.6423 0.0000 0.0000 0.0000
# 2 24.8435 38.8723 48.2142 0.0000 0.0000 0.0000
# 3 48.6423 48.2142 133.7753 0.0000 0.0000 0.0000
# 4 0.0000 0.0000 0.0000 27.4041 0.0000 0.0000
# 5 0.0000 0.0000 0.0000 0.0000 24.6242 0.0000
# 6 0.0000 0.0000 0.0000 0.0000 0.0000 19.5486
#
#
#
# Elastic Compliance Matrix: (Units=1/GPa)
#
#
# Indices 1 2 3 4 5 6 
#
# 1 0.019961 -0.006790 -0.004811 0.000000 0.000000 0.000000
# 2 -0.006790 0.048832 -0.015130 0.000000 0.000000 0.000000
# 3 -0.004811 -0.015130 0.014678 0.000000 0.000000 0.000000
# 4 0.000000 0.000000 0.000000 0.036491 0.000000 0.000000
# 5 0.000000 0.000000 0.000000 0.000000 0.040610 0.000000
# 6 0.000000 0.000000 0.000000 0.000000 0.000000 0.051155
#
#
# Mechanical properties :
#
#
# Convention : Reuss Voigt Hill
#
# Bulk Modulus (GPa) = 33.32517 54.03545 43.68031
# Shear Modulus (GPa) = 18.16909 22.39663 20.28286
#
# Velocity S-wave (km/s) = 3.13941 3.48556 3.31700
# Velocity P-wave (km/s) = 5.58736 6.74615 6.19391
#
# Compressibility (1/GPa) = 0.03000735
#
# Stress axis : x y z
#
# Youngs Moduli (GPa) = 50.09682 20.47846 68.13056
#
# Poissons Ratio (x) = 0.13906 0.32776
# Poissons Ratio (y) = 0.34018 1.03085
# Poissons Ratio (z) = 0.24101 0.30985
#
# Static dielectric constant tensor:
#      x y z
#    x 1.621400 0.000000 0.000000 
#    y 0.000000 1.625150 0.000000 
#    z 0.000000 0.000000 1.664000 
# 
# From -- ./inp_files/40345.got.cif
#   From: 2010.05.17/outbox.cif.g08.bks.cpg/sg65_21_cif.got.tgz:40345.got - 2010.06.03 17:01:31.
