data_PCOD9490885
_publ_section_title
;
Structure prediction by ZEFSAII (Michael W. Deem and Ramdas Pophale) SiO2 
 PCOD9490885
Probable space group: C M M M
;
_chemical_formula_sum "Si O2"
_cell_formula_units_Z 116
_cell_length_a 29.975150
_cell_length_b 9.325625
_cell_length_c 23.077449
_cell_angle_alpha 90.000000
_cell_angle_beta 90.000000
_cell_angle_gamma 90.000000
_cell_volume 6451.001051
_symmetry_space_group_name_H-M "C M M M"
_symmetry_group_IT_number 65
_symmetry_cell_setting 'orthorhombic'
loop_
_space_group_symop_operation_xyz
x,y,z
-x,-y,z
x,-y,-z
-x,y,-z
-x,-y,-z
x,y,-z
-x,y,z
x,-y,z
1/2+x,1/2+y,z
1/2-x,1/2-y,z
1/2+x,1/2-y,-z
1/2-x,1/2+y,-z
1/2-x,1/2-y,-z
1/2+x,1/2+y,-z
1/2-x,1/2+y,z
1/2+x,1/2-y,z
loop_
_atom_site_type_symbol
_atom_site_label
_atom_site_fract_x
_atom_site_fract_y
_atom_site_fract_z
Si Si1 0.552049 0.669938 0.389882
Si Si2 0.704568 0.330884 0.786563
Si Si3 0.947731 0.332961 0.268421
Si Si4 0.055654 0.500000 0.000000
Si Si5 0.550931 0.294025 0.064137
Si Si6 0.134472 0.330551 0.433940
Si Si7 0.109152 0.835286 0.175414
Si Si8 0.202993 0.828100 0.349823
O O1 0.500000 0.687528 0.405953
O O2 0.562192 0.500000 0.389993
O O3 0.557950 0.737232 0.325854
O O4 0.585901 0.758441 0.429248
O O5 0.712725 0.500000 0.792640
O O6 0.750000 0.250000 0.801242
O O7 0.661068 0.292161 0.823656
O O8 0.693530 0.304024 0.718594
O O9 0.937102 0.500000 0.280208
O O10 0.917933 0.267805 0.217865
O O11 0.000000 0.325119 0.252003
O O12 0.053361 0.374594 0.950209
O O13 0.500000 0.329394 0.081535
O O14 0.585969 0.332627 0.112986
O O15 0.559522 0.355776 0.000000
O O16 0.151017 0.316316 0.500000
O O17 0.132638 0.500000 0.419865
O O18 0.165830 0.245340 0.389499
O O19 0.107243 0.000000 0.197607
O O20 0.250000 0.750000 0.362022
O O21 0.205494 0.000000 0.359355
#
# Coordination Sequence:
#
# PCOD9490885 Si02
#       8
#    16  16  16   4  16  16  16  16
#     4  10  21  38  58  78 106 144 184 227 276 329
#     4   9  20  38  57  81 109 138 175 220 270 323
#     4  10  21  34  52  80 112 145 182 222 266 323
#     4   8  17  36  54  74 110 152 190 234 268 314
#     4   9  18  33  54  76 109 150 189 228 267 315
#     4  11  24  39  56  81 111 142 182 229 272 324
#     4  11  22  34  53  82 115 146 180 226 278 329
#     4  10  20  37  62  85 110 144 179 221 277 337
#
# _framework density 17.981705999999999
#
# number of rings (size 3 to 8) (size 9 to 14) (size 15 to 20)
#    0.414    1.655    0.000    3.310    0.966    6.621 
#    0.000    2.069    0.000    0.414    0.000    0.000 
#    0.000    0.000    0.000    0.000    0.000    0.000 
#
# Total GULP energy -323020.323171 kJ/mol
# GULP energy per Si atom -5569.315917 kJ/mol
# Density = 1.794078 g / cm^3
# Si number density = 17.981706 Si / 1000 Ang^3
#
#
#
# Elastic Constant Matrix: (Units=GPa)
#
#
# Indices 1 2 3 4 5 6 
#
# 1 113.0860 50.8047 68.9736 0.0000 0.0000 0.0000
# 2 50.8047 113.2880 27.3853 0.0000 0.0000 0.0000
# 3 68.9736 27.3853 58.0975 0.0000 0.0000 0.0000
# 4 0.0000 0.0000 0.0000 26.0768 0.0000 0.0000
# 5 0.0000 0.0000 0.0000 0.0000 4.3747 0.0000
# 6 0.0000 0.0000 0.0000 0.0000 0.0000 8.7640
#
#
#
# Elastic Compliance Matrix: (Units=1/GPa)
#
#
# Indices 1 2 3 4 5 6 
#
# 1 0.035885 -0.006540 -0.039520 0.000000 0.000000 0.000000
# 2 -0.006540 0.011154 0.002506 0.000000 0.000000 0.000000
# 3 -0.039520 0.002506 0.062950 0.000000 0.000000 0.000000
# 4 0.000000 0.000000 0.000000 0.038348 0.000000 0.000000
# 5 0.000000 0.000000 0.000000 0.000000 0.228588 0.000000
# 6 0.000000 0.000000 0.000000 0.000000 0.000000 0.114104
#
#
# Mechanical properties :
#
#
# Convention : Reuss Voigt Hill
#
# Bulk Modulus (GPa) = 43.70368 64.31098 54.00733
# Shear Modulus (GPa) = 8.53587 16.99695 12.76641
#
# Velocity S-wave (km/s) = 2.18112 3.07780 2.66741
# Velocity P-wave (km/s) = 5.54079 6.96224 6.29179
#
# Compressibility (1/GPa) = 0.02288137
#
# Stress axis : x y z
#
# Youngs Moduli (GPa) = 27.86671 89.65432 15.88567
#
# Poissons Ratio (x) = 0.58630 0.62781
# Poissons Ratio (y) = 0.18224 -0.03981
# Poissons Ratio (z) = 1.10130 -0.22469
#
# Static dielectric constant tensor:
#      x y z
#    x 1.618880 0.000000 0.000000 
#    y 0.000000 1.615140 0.000000 
#    z 0.000000 0.000000 1.609110 
# 
# From -- ./inp_files/71954.got.cif
#   From: 2010.05.17/outbox.cif.g08.bks.cpg/sg65_36_cif.got.tgz:71954.got - 2010.06.03 17:01:31.
