data_PCOD9490838
_publ_section_title
;
Structure prediction by ZEFSAII (Michael W. Deem and Ramdas Pophale) SiO2 
 PCOD9490838
Probable space group: C M M M
;
_chemical_formula_sum "Si O2"
_cell_formula_units_Z 64
_cell_length_a 15.494376
_cell_length_b 8.677886
_cell_length_c 23.708717
_cell_angle_alpha 90.000000
_cell_angle_beta 90.000000
_cell_angle_gamma 90.000000
_cell_volume 3187.836831
_symmetry_space_group_name_H-M "C M M M"
_symmetry_group_IT_number 65
_symmetry_cell_setting 'orthorhombic'
loop_
_space_group_symop_operation_xyz
x,y,z
-x,-y,z
x,-y,-z
-x,y,-z
-x,-y,-z
x,y,-z
-x,y,z
x,-y,z
1/2+x,1/2+y,z
1/2-x,1/2-y,z
1/2+x,1/2-y,-z
1/2-x,1/2+y,-z
1/2-x,1/2-y,-z
1/2+x,1/2+y,-z
1/2-x,1/2+y,z
1/2+x,1/2-y,z
loop_
_atom_site_type_symbol
_atom_site_label
_atom_site_fract_x
_atom_site_fract_y
_atom_site_fract_z
Si Si1 0.347255 0.315249 0.352985
Si Si2 0.900151 0.811371 0.000000
Si Si3 0.500000 0.687871 0.435406
Si Si4 0.397222 0.674151 0.879048
Si Si5 0.345773 0.818186 0.236353
O O1 0.341649 0.500000 0.352460
O O2 0.250000 0.250000 0.360131
O O3 0.414017 0.265451 0.401405
O O4 0.383898 0.259763 0.292420
O O5 0.861807 0.765671 0.939263
O O6 0.000000 0.757787 0.000000
O O7 0.900520 0.000000 0.000000
O O8 0.500000 0.500000 0.435689
O O9 0.500000 0.740731 0.500000
O O10 0.500000 0.660937 0.887316
O O11 0.363331 0.500000 0.868558
O O12 0.384590 0.775016 0.823890
O O13 0.250000 0.750000 0.233891
O O14 0.345029 0.000000 0.244500
#
# Coordination Sequence:
#
# PCOD9490838 Si02
#       5
#    16   8   8  16  16
#     4  10  20  37  60  85 115 153 191 233 284 335
#     4   7  12  26  48  73 100 133 173 217 264 325
#     4   9  20  38  61  89 119 152 191 228 271 337
#     4   9  17  31  53  78 104 136 176 220 272 329
#     4  11  22  36  53  76 107 141 181 227 276 326
#
# _framework density 20.076311
#
# number of rings (size 3 to 8) (size 9 to 14) (size 15 to 20)
#    0.000    2.500    0.000    6.000    1.750    1.000 
#    0.000    3.125    0.000    7.500    0.000    0.000 
#    0.000    0.000    0.000    0.000    0.000    0.000 
#
# Total GULP energy -178372.724360 kJ/mol
# GULP energy per Si atom -5574.147636 kJ/mol
# Density = 2.003062 g / cm^3
# Si number density = 20.076311 Si / 1000 Ang^3
#
#
#
# Elastic Constant Matrix: (Units=GPa)
#
#
# Indices 1 2 3 4 5 6 
#
# 1 60.9399 19.0865 59.8266 0.0000 0.0000 0.0000
# 2 19.0865 72.9572 42.9310 0.0000 0.0000 0.0000
# 3 59.8266 42.9310 204.5995 0.0000 0.0000 0.0000
# 4 0.0000 0.0000 0.0000 -5.5960 0.0000 0.0000
# 5 0.0000 0.0000 0.0000 0.0000 259.1192 0.0000
# 6 0.0000 0.0000 0.0000 0.0000 0.0000 19.0559
#
#
#
# Elastic Compliance Matrix: (Units=1/GPa)
#
#
# Indices 1 2 3 4 5 6 
#
# 1 0.023376 -0.002388 -0.006334 0.000000 0.000000 0.000000
# 2 -0.002388 0.015881 -0.002634 0.000000 0.000000 0.000000
# 3 -0.006334 -0.002634 0.007292 0.000000 0.000000 0.000000
# 4 0.000000 0.000000 0.000000 -0.178698 0.000000 0.000000
# 5 0.000000 0.000000 0.000000 0.000000 0.003859 0.000000
# 6 0.000000 0.000000 0.000000 0.000000 0.000000 0.052477
#
#
# Mechanical properties :
#
#
# Convention : Reuss Voigt Hill
#
# Bulk Modulus (GPa) = 41.95146 64.68720 53.31933
# Shear Modulus (GPa) = -110.73414 68.95933 -20.88741
#
# Velocity S-wave (km/s) = -7.43481 5.86713 -3.22902
# Velocity P-wave (km/s) = 7.26364 8.84241 3.56565
#
# Compressibility (1/GPa) = 0.02383707
#
# Stress axis : x y z
#
# Youngs Moduli (GPa) = 42.77871 62.96664 137.12726
#
# Poissons Ratio (x) = 0.15037 0.86860
# Poissons Ratio (y) = 0.10216 0.36120
# Poissons Ratio (z) = 0.27097 0.16586
#
# Static dielectric constant tensor:
#      x y z
#    x 1.726620 0.000000 0.000000 
#    y 0.000000 1.687830 0.000000 
#    z 0.000000 0.000000 1.778510 
# 
# From -- ./inp_files/66745.got.cif
#   From: 2010.05.17/outbox.cif.g08.bks.cpg/sg65_34_cif.got.tgz:66745.got - 2010.06.03 17:01:31.
