data_PCOD9490474
_publ_section_title
;
Structure prediction by ZEFSAII (Michael W. Deem and Ramdas Pophale) SiO2 
 PCOD9490474
Probable space group: C M M M
;
_chemical_formula_sum "Si O2"
_cell_formula_units_Z 88
_cell_length_a 14.228612
_cell_length_b 19.317376
_cell_length_c 17.643170
_cell_angle_alpha 90.000000
_cell_angle_beta 90.000000
_cell_angle_gamma 90.000000
_cell_volume 4849.391967
_symmetry_space_group_name_H-M "C M M M"
_symmetry_group_IT_number 65
_symmetry_cell_setting 'orthorhombic'
loop_
_space_group_symop_operation_xyz
x,y,z
-x,-y,z
x,-y,-z
-x,y,-z
-x,-y,-z
x,y,-z
-x,y,z
x,-y,z
1/2+x,1/2+y,z
1/2-x,1/2-y,z
1/2+x,1/2-y,-z
1/2-x,1/2+y,-z
1/2-x,1/2-y,-z
1/2+x,1/2+y,-z
1/2-x,1/2+y,z
1/2+x,1/2-y,z
loop_
_atom_site_type_symbol
_atom_site_label
_atom_site_fract_x
_atom_site_fract_y
_atom_site_fract_z
Si Si1 0.792279 0.640131 0.853031
Si Si2 0.893376 0.582161 0.000000
Si Si3 0.886633 0.306254 0.586137
Si Si4 0.715542 0.920262 0.313639
Si Si5 0.106741 0.162291 0.342083
Si Si6 0.106643 0.786523 0.168033
O O1 0.791589 0.594856 0.776434
O O2 0.853028 0.709158 0.836502
O O3 0.685472 0.664752 0.869483
O O4 0.838669 0.604960 0.925029
O O5 0.899332 0.500000 0.000000
O O6 0.000000 0.610910 0.000000
O O7 0.857934 0.321407 0.500000
O O8 0.847794 0.363859 0.643068
O O9 0.859161 0.227820 0.608707
O O10 0.000000 0.307035 0.590547
O O11 0.820692 0.900543 0.341065
O O12 0.692171 0.000000 0.329384
O O13 0.105445 0.191381 0.256140
O O14 0.000000 0.143968 0.363663
O O15 0.000000 0.791311 0.138805
#
# Coordination Sequence:
#
# PCOD9490474 Si02
#       6
#    16   8  16  16  16  16
#     4  10  20  36  56  80 111 145 183 229 276 329
#     4  11  24  39  55  77 109 149 187 226 276 335
#     4  10  21  37  58  82 108 143 187 231 275 328
#     4  11  22  35  55  83 114 149 183 223 281 336
#     4   9  18  35  57  81 109 143 186 230 270 322
#     4   9  17  32  58  85 108 138 180 230 277 323
#
# _framework density 18.146605000000001
#
# number of rings (size 3 to 8) (size 9 to 14) (size 15 to 20)
#    0.000    2.091    1.818    1.636    0.000    4.727 
#    0.000    2.273    0.000    2.182    0.000    3.818 
#    0.000    0.000    0.000    0.000    0.000    0.000 
#
# Total GULP energy -245470.267553 kJ/mol
# GULP energy per Si atom -5578.869717 kJ/mol
# Density = 1.810530 g / cm^3
# Si number density = 18.146605 Si / 1000 Ang^3
#
#
#
# Elastic Constant Matrix: (Units=GPa)
#
#
# Indices 1 2 3 4 5 6 
#
# 1 96.7742 7.6838 26.9259 0.0000 0.0000 0.0000
# 2 7.6838 53.5495 21.3460 0.0000 0.0000 0.0000
# 3 26.9259 21.3460 63.3874 0.0000 0.0000 0.0000
# 4 0.0000 0.0000 0.0000 7.0851 0.0000 0.0000
# 5 0.0000 0.0000 0.0000 0.0000 48.4396 0.0000
# 6 0.0000 0.0000 0.0000 0.0000 0.0000 15.7681
#
#
#
# Elastic Compliance Matrix: (Units=1/GPa)
#
#
# Indices 1 2 3 4 5 6 
#
# 1 0.011724 0.000350 -0.005098 0.000000 0.000000 0.000000
# 2 0.000350 0.021580 -0.007416 0.000000 0.000000 0.000000
# 3 -0.005098 -0.007416 0.020439 0.000000 0.000000 0.000000
# 4 0.000000 0.000000 0.000000 0.141142 0.000000 0.000000
# 5 0.000000 0.000000 0.000000 0.000000 0.020644 0.000000
# 6 0.000000 0.000000 0.000000 0.000000 0.000000 0.063419
#
#
# Mechanical properties :
#
#
# Convention : Reuss Voigt Hill
#
# Bulk Modulus (GPa) = 33.99607 36.18028 35.08818
# Shear Modulus (GPa) = 15.97029 24.77557 20.37293
#
# Velocity S-wave (km/s) = 2.96982 3.69901 3.35429
# Velocity P-wave (km/s) = 5.52581 6.18260 5.86341
#
# Compressibility (1/GPa) = 0.02941516
#
# Stress axis : x y z
#
# Youngs Moduli (GPa) = 85.29522 46.33870 48.92637
#
# Poissons Ratio (x) = -0.01621 0.24943
# Poissons Ratio (y) = -0.02984 0.36283
# Poissons Ratio (z) = 0.43483 0.34364
#
# Static dielectric constant tensor:
#      x y z
#    x 1.666850 0.000000 0.000000 
#    y 0.000000 1.589910 0.000000 
#    z 0.000000 0.000000 1.602060 
# 
# From -- ./inp_files/52965.got.cif
#   From: 2010.05.17/outbox.cif.g08.bks.cpg/sg65_27_cif.got.tgz:52965.got - 2010.06.03 17:01:31.
