data_PCOD9490665
_publ_section_title
;
Structure prediction by ZEFSAII (Michael W. Deem and Ramdas Pophale) SiO2 
 PCOD9490665
Probable space group: C M M M
;
_chemical_formula_sum "Si O2"
_cell_formula_units_Z 64
_cell_length_a 8.906504
_cell_length_b 18.189073
_cell_length_c 21.128235
_cell_angle_alpha 90.000000
_cell_angle_beta 90.000000
_cell_angle_gamma 90.000000
_cell_volume 3422.796285
_symmetry_space_group_name_H-M "C M M M"
_symmetry_group_IT_number 65
_symmetry_cell_setting 'orthorhombic'
loop_
_space_group_symop_operation_xyz
x,y,z
-x,-y,z
x,-y,-z
-x,y,-z
-x,-y,-z
x,y,-z
-x,y,z
x,-y,z
1/2+x,1/2+y,z
1/2-x,1/2-y,z
1/2+x,1/2-y,-z
1/2-x,1/2+y,-z
1/2-x,1/2-y,-z
1/2+x,1/2+y,-z
1/2-x,1/2+y,z
1/2+x,1/2-y,z
loop_
_atom_site_type_symbol
_atom_site_label
_atom_site_fract_x
_atom_site_fract_y
_atom_site_fract_z
Si Si1 0.826925 0.910592 0.000000
Si Si2 0.822489 0.411634 0.132198
Si Si3 0.180228 0.413199 0.629289
Si Si4 0.319272 0.169282 0.500000
Si Si5 0.679123 0.669133 0.251600
O O1 0.742927 0.888242 0.064131
O O2 0.000000 0.886381 0.000000
O O3 0.826466 0.000000 0.000000
O O4 0.802318 0.500000 0.138109
O O5 0.737706 0.371556 0.188809
O O6 0.000000 0.396521 0.135481
O O7 0.210587 0.500000 0.626547
O O8 0.223473 0.374639 0.563383
O O9 0.264118 0.376032 0.687638
O O10 0.000000 0.403871 0.637876
O O11 0.500000 0.175030 0.500000
O O12 0.250000 0.250000 0.500000
O O13 0.500000 0.673765 0.251226
O O14 0.750000 0.750000 0.254338
#
# Coordination Sequence:
#
# PCOD9490665 Si02
#       5
#     8  16  16   8  16
#     4   9  17  31  54  85 118 151 190 235 281 333
#     4  10  20  36  59  86 116 151 191 235 285 341
#     4  10  21  39  62  87 116 151 192 237 285 339
#     4  10  21  37  59  87 119 156 193 232 282 338
#     4  12  25  40  58  82 114 151 192 238 290 345
#
# _framework density 18.698160999999999
#
# number of rings (size 3 to 8) (size 9 to 14) (size 15 to 20)
#    0.000    1.625    0.000    5.250    0.000   11.000 
#    0.000    0.625    0.000    2.250    0.000    0.000 
#    0.000    0.000    0.000    0.000    0.000    0.000 
#
# Total GULP energy -178898.986506 kJ/mol
# GULP energy per Si atom -5590.593328 kJ/mol
# Density = 1.865560 g / cm^3
# Si number density = 18.698161 Si / 1000 Ang^3
#
#
#
# Elastic Constant Matrix: (Units=GPa)
#
#
# Indices 1 2 3 4 5 6 
#
# 1 128.7734 88.3014 106.0713 0.0000 0.0000 0.0000
# 2 88.3014 112.6559 99.4550 0.0000 0.0000 0.0000
# 3 106.0713 99.4550 220.8871 0.0000 0.0000 0.0000
# 4 0.0000 0.0000 0.0000 -130.3656 0.0000 0.0000
# 5 0.0000 0.0000 0.0000 0.0000 -4.7172 0.0000
# 6 0.0000 0.0000 0.0000 0.0000 0.0000 31.6169
#
#
#
# Elastic Compliance Matrix: (Units=1/GPa)
#
#
# Indices 1 2 3 4 5 6 
#
# 1 0.018649 -0.011139 -0.003940 0.000000 0.000000 0.000000
# 2 -0.011139 0.021386 -0.004280 0.000000 0.000000 0.000000
# 3 -0.003940 -0.004280 0.008346 0.000000 0.000000 0.000000
# 4 0.000000 0.000000 0.000000 -0.007671 0.000000 0.000000
# 5 0.000000 0.000000 0.000000 0.000000 -0.211992 0.000000
# 6 0.000000 0.000000 0.000000 0.000000 0.000000 0.031629
#
#
# Mechanical properties :
#
#
# Convention : Reuss Voigt Hill
#
# Bulk Modulus (GPa) = 103.48577 116.66353 110.07465
# Shear Modulus (GPa) = -51.17079 -9.46059 -30.31569
#
# Velocity S-wave (km/s) = -5.23700 -2.25180 -4.03093
# Velocity P-wave (km/s) = 4.34711 7.46778 6.11003
#
# Compressibility (1/GPa) = 0.00966316
#
# Stress axis : x y z
#
# Youngs Moduli (GPa) = 53.62120 46.75902 119.81308
#
# Poissons Ratio (x) = 0.52086 0.47207
# Poissons Ratio (y) = 0.59730 0.51281
# Poissons Ratio (z) = 0.21127 0.20013
#
# Static dielectric constant tensor:
#      x y z
#    x 1.624880 0.000000 0.000000 
#    y 0.000000 1.619610 0.000000 
#    z 0.000000 0.000000 1.617580 
# 
# From -- ./inp_files/58812.got.cif
#   From: 2010.05.17/outbox.cif.g08.bks.cpg/sg65_30_cif.got.tgz:58812.got - 2010.06.03 17:01:31.
