data_PCOD9490516
_publ_section_title
;
Structure prediction by ZEFSAII (Michael W. Deem and Ramdas Pophale) SiO2 
 PCOD9490516
Probable space group: C M M M
;
_chemical_formula_sum "Si O2"
_cell_formula_units_Z 116
_cell_length_a 7.497471
_cell_length_b 26.382607
_cell_length_c 26.434214
_cell_angle_alpha 90.000000
_cell_angle_beta 90.000000
_cell_angle_gamma 90.000000
_cell_volume 5228.762361
_symmetry_space_group_name_H-M "C M M M"
_symmetry_group_IT_number 65
_symmetry_cell_setting 'orthorhombic'
loop_
_space_group_symop_operation_xyz
x,y,z
-x,-y,z
x,-y,-z
-x,y,-z
-x,-y,-z
x,y,-z
-x,y,z
x,-y,z
1/2+x,1/2+y,z
1/2-x,1/2-y,z
1/2+x,1/2-y,-z
1/2-x,1/2+y,-z
1/2-x,1/2-y,-z
1/2+x,1/2+y,-z
1/2-x,1/2+y,z
1/2+x,1/2-y,z
loop_
_atom_site_type_symbol
_atom_site_label
_atom_site_fract_x
_atom_site_fract_y
_atom_site_fract_z
Si Si1 0.281849 0.055546 0.165745
Si Si2 0.500000 0.000000 0.302301
Si Si3 0.803525 0.805292 0.301442
Si Si4 0.795484 0.193023 0.079474
Si Si5 0.785751 0.333864 0.193856
Si Si6 0.215571 0.941376 0.445353
Si Si7 0.280430 0.413832 0.668058
Si Si8 0.204176 0.417896 0.945907
O O1 0.500000 0.056288 0.166264
O O2 0.226826 0.106926 0.193744
O O3 0.220949 0.062418 0.107263
O O4 0.227453 0.000000 0.184558
O O5 0.658752 0.044121 0.305158
O O6 0.750000 0.750000 0.319493
O O7 0.798036 0.805180 0.240641
O O8 0.715181 0.858343 0.314879
O O9 0.000000 0.812617 0.321735
O O10 0.750000 0.250000 0.062875
O O11 0.766179 0.189191 0.139846
O O12 0.699055 0.143461 0.057985
O O13 0.000000 0.184232 0.067288
O O14 0.000000 0.331754 0.197814
O O15 0.276484 0.920549 0.500000
O O16 0.261214 0.917194 0.392017
O O17 0.000000 0.941681 0.446786
O O18 0.274646 0.000000 0.442566
O O19 0.500000 0.421143 0.675019
O O20 0.000000 0.435985 0.946430
O O21 0.286338 0.431886 0.000000
#
# Coordination Sequence:
#
# PCOD9490516 Si02
#       8
#    16   4  16  16  16  16  16  16
#     4   8  15  30  51  78 107 134 168 215 266 320
#     4  12  22  36  65  88 128 172 204 254 321 384
#     4  11  24  41  62  85 117 157 203 255 302 360
#     4  11  21  34  53  74  99 129 165 211 266 321
#     4  10  20  36  57  81 108 137 179 227 278 340
#     4   8  13  27  53  81 116 161 202 247 309 371
#     4  10  22  39  58  90 128 164 208 260 312 374
#     4   9  18  32  50  73 102 134 169 209 254 311
#
# _framework density 22.184979999999999
#
# number of rings (size 3 to 8) (size 9 to 14) (size 15 to 20)
#    0.000    2.345    0.690    3.931    1.931    0.828 
#    1.241    2.069    0.000   10.345    0.000    3.862 
#    0.000    0.000    0.000    0.000    0.000    0.000 
#
# Total GULP energy -323096.813666 kJ/mol
# GULP energy per Si atom -5570.634718 kJ/mol
# Density = 2.213449 g / cm^3
# Si number density = 22.184980 Si / 1000 Ang^3
#
#
#
# Elastic Constant Matrix: (Units=GPa)
#
#
# Indices 1 2 3 4 5 6 
#
# 1 95.6423 23.9203 -9.1688 0.0000 0.0000 0.0000
# 2 23.9203 167.2050 10.3066 0.0000 0.0000 0.0000
# 3 -9.1688 10.3066 50.9933 0.0000 0.0000 0.0000
# 4 0.0000 0.0000 0.0000 -38.8884 0.0000 0.0000
# 5 0.0000 0.0000 0.0000 0.0000 -1.9548 0.0000
# 6 0.0000 0.0000 0.0000 0.0000 0.0000 15.7464
#
#
#
# Elastic Compliance Matrix: (Units=1/GPa)
#
#
# Indices 1 2 3 4 5 6 
#
# 1 0.011115 -0.001735 0.002349 0.000000 0.000000 0.000000
# 2 -0.001735 0.006327 -0.001591 0.000000 0.000000 0.000000
# 3 0.002349 -0.001591 0.020354 0.000000 0.000000 0.000000
# 4 0.000000 0.000000 0.000000 -0.025715 0.000000 0.000000
# 5 0.000000 0.000000 0.000000 0.000000 -0.511551 0.000000
# 6 0.000000 0.000000 0.000000 0.000000 0.000000 0.063506
#
#
# Mechanical properties :
#
#
# Convention : Reuss Voigt Hill
#
# Bulk Modulus (GPa) = 27.89944 40.43965 34.16955
# Shear Modulus (GPa) = -11.84659 14.23281 1.19311
#
# Velocity S-wave (km/s) = -2.31333 2.53563 0.73414
# Velocity P-wave (km/s) = 2.33833 5.18079 4.01922
#
# Compressibility (1/GPa) = 0.03584301
#
# Stress axis : x y z
#
# Youngs Moduli (GPa) = 89.97076 158.05467 49.12969
#
# Poissons Ratio (x) = 0.27420 -0.11541
# Poissons Ratio (y) = 0.15609 0.07815
# Poissons Ratio (z) = -0.21135 0.25142
#
# Static dielectric constant tensor:
#      x y z
#    x 1.874310 0.000000 0.000000 
#    y 0.000000 1.860350 0.000000 
#    z 0.000000 0.000000 1.860120 
# 
# From -- ./inp_files/73680.got.cif
#   From: 2010.05.17/outbox.cif.g08.bks.cpg/sg65_37_cif.got.tgz:73680.got - 2010.06.03 17:01:31.
