data_PCOD9490720
_publ_section_title
;
Structure prediction by ZEFSAII (Michael W. Deem and Ramdas Pophale) SiO2 
 PCOD9490720
Probable space group: C M M M
;
_chemical_formula_sum "Si O2"
_cell_formula_units_Z 88
_cell_length_a 18.362448
_cell_length_b 19.651547
_cell_length_c 12.987475
_cell_angle_alpha 90.000000
_cell_angle_beta 90.000000
_cell_angle_gamma 90.000000
_cell_volume 4686.536976
_symmetry_space_group_name_H-M "C M M M"
_symmetry_group_IT_number 65
_symmetry_cell_setting 'orthorhombic'
loop_
_space_group_symop_operation_xyz
x,y,z
-x,-y,z
x,-y,-z
-x,y,-z
-x,-y,-z
x,y,-z
-x,y,z
x,-y,z
1/2+x,1/2+y,z
1/2-x,1/2-y,z
1/2+x,1/2-y,-z
1/2-x,1/2+y,-z
1/2-x,1/2-y,-z
1/2+x,1/2+y,-z
1/2-x,1/2+y,z
1/2+x,1/2-y,z
loop_
_atom_site_type_symbol
_atom_site_label
_atom_site_fract_x
_atom_site_fract_y
_atom_site_fract_z
Si Si1 0.321999 0.080733 0.200755
Si Si2 0.911516 0.072683 0.381128
Si Si3 0.583035 0.917549 0.000000
Si Si4 0.205742 0.820198 0.883857
Si Si5 0.587155 0.852826 0.622318
Si Si6 0.586380 0.290715 0.732037
O O1 0.249603 0.125341 0.184866
O O2 0.364789 0.098310 0.305745
O O3 0.308228 0.000000 0.194326
O O4 0.373785 0.101482 0.103632
O O5 0.889390 0.073801 0.500000
O O6 0.889263 0.142203 0.329368
O O7 0.000000 0.072504 0.379152
O O8 0.887235 0.000000 0.335177
O O9 0.500000 0.891830 0.000000
O O10 0.579897 0.000000 0.000000
O O11 0.250000 0.750000 0.884359
O O12 0.128666 0.797957 0.838086
O O13 0.200588 0.847040 0.000000
O O14 0.602538 0.856930 0.500000
O O15 0.500000 0.865778 0.635654
O O16 0.602516 0.777153 0.666951
O O17 0.500000 0.292380 0.746737
#
# Coordination Sequence:
#
# PCOD9490720 Si02
#       6
#    16  16   8  16  16  16
#     4  11  22  39  61  88 121 161 205 249 305 367
#     4   8  14  27  50  80 112 146 188 240 290 336
#     4   9  18  34  59  90 119 149 195 254 303 351
#     4  11  23  41  61  84 117 158 200 247 307 364
#     4  10  21  38  61  91 127 165 202 245 305 372
#     4  10  20  36  60  89 119 157 204 249 300 363
#
# _framework density 18.777190999999998
#
# number of rings (size 3 to 8) (size 9 to 14) (size 15 to 20)
#    0.000    2.091    2.727    1.636    0.000    4.727 
#    0.000    3.636    0.000    0.000    0.000    3.818 
#    0.000    0.000    0.000    0.000    0.000    0.000 
#
# Total GULP energy -245324.549428 kJ/mol
# GULP energy per Si atom -5575.557942 kJ/mol
# Density = 1.873445 g / cm^3
# Si number density = 18.777191 Si / 1000 Ang^3
#
#
#
# Elastic Constant Matrix: (Units=GPa)
#
#
# Indices 1 2 3 4 5 6 
#
# 1 40.8533 17.9149 44.9721 0.0000 0.0000 0.0000
# 2 17.9149 78.3046 25.9341 0.0000 0.0000 0.0000
# 3 44.9721 25.9341 97.1853 0.0000 0.0000 0.0000
# 4 0.0000 0.0000 0.0000 238.5246 0.0000 0.0000
# 5 0.0000 0.0000 0.0000 0.0000 25.0293 0.0000
# 6 0.0000 0.0000 0.0000 0.0000 0.0000 22.4046
#
#
#
# Elastic Compliance Matrix: (Units=1/GPa)
#
#
# Indices 1 2 3 4 5 6 
#
# 1 0.051144 -0.004237 -0.022536 0.000000 0.000000 0.000000
# 2 -0.004237 0.014360 -0.001871 0.000000 0.000000 0.000000
# 3 -0.022536 -0.001871 0.021217 0.000000 0.000000 0.000000
# 4 0.000000 0.000000 0.000000 0.004192 0.000000 0.000000
# 5 0.000000 0.000000 0.000000 0.000000 0.039953 0.000000
# 6 0.000000 0.000000 0.000000 0.000000 0.000000 0.044634
#
#
# Mechanical properties :
#
#
# Convention : Reuss Voigt Hill
#
# Bulk Modulus (GPa) = 33.97611 43.77614 38.87612
# Shear Modulus (GPa) = 20.61008 65.69317 43.15162
#
# Velocity S-wave (km/s) = 3.31662 5.92128 4.79904
# Velocity P-wave (km/s) = 5.72715 8.37334 7.17332
#
# Compressibility (1/GPa) = 0.02943245
#
# Stress axis : x y z
#
# Youngs Moduli (GPa) = 19.55268 69.63895 47.13118
#
# Poissons Ratio (x) = 0.29507 1.06215
# Poissons Ratio (y) = 0.08285 0.08819
# Poissons Ratio (z) = 0.44064 0.13031
#
# Static dielectric constant tensor:
#      x y z
#    x 1.655160 0.000000 0.000000 
#    y 0.000000 1.662190 0.000000 
#    z 0.000000 0.000000 1.647890 
# 
# From -- ./inp_files/26809.got.cif
#   From: 2010.05.17/outbox.cif.g08.bks.cpg/sg65_14_cif.got.tgz:26809.got - 2010.06.03 17:01:31.
