data_PCOD9490360
_publ_section_title
;
Structure prediction by ZEFSAII (Michael W. Deem and Ramdas Pophale) SiO2 
 PCOD9490360
Probable space group: C M M M
;
_chemical_formula_sum "Si O2"
_cell_formula_units_Z 62
_cell_length_a 18.579546
_cell_length_b 14.903116
_cell_length_c 11.831426
_cell_angle_alpha 90.000000
_cell_angle_beta 90.000000
_cell_angle_gamma 90.000000
_cell_volume 3276.040569
_symmetry_space_group_name_H-M "C M M M"
_symmetry_group_IT_number 65
_symmetry_cell_setting 'orthorhombic'
loop_
_space_group_symop_operation_xyz
x,y,z
-x,-y,z
x,-y,-z
-x,y,-z
-x,-y,-z
x,y,-z
-x,y,z
x,-y,z
1/2+x,1/2+y,z
1/2-x,1/2-y,z
1/2+x,1/2-y,-z
1/2-x,1/2+y,-z
1/2-x,1/2-y,-z
1/2+x,1/2+y,-z
1/2-x,1/2+y,z
1/2+x,1/2-y,z
loop_
_atom_site_type_symbol
_atom_site_label
_atom_site_fract_x
_atom_site_fract_y
_atom_site_fract_z
Si Si1 0.782875 0.500000 0.284063
Si Si2 0.500000 0.500000 0.500000
Si Si3 0.583343 0.329848 0.129438
Si Si4 0.175145 0.300008 0.728867
Si Si5 0.382979 0.000000 0.500000
Si Si6 0.919291 0.302769 0.500000
Si Si7 0.611966 0.500000 0.288688
O O1 0.806197 0.402669 0.235623
O O2 0.829378 0.500000 0.396406
O O3 0.697902 0.500000 0.308522
O O4 0.563309 0.500000 0.400229
O O5 0.500000 0.302035 0.136290
O O6 0.633571 0.249982 0.171448
O O7 0.594623 0.413024 0.213197
O O8 0.598848 0.355975 0.000000
O O9 0.250000 0.250000 0.705770
O O10 0.126235 0.286463 0.614995
O O11 0.426968 0.909763 0.500000
O O12 0.000000 0.260277 0.500000
#
# Coordination Sequence:
#
# PCOD9490360 Si02
#       7
#     8   2  16  16   4   8   8
#     4  10  21  40  60  91 133 163 213 275 328 383
#     4  12  26  36  70 106 140 166 218 266 328 406
#     4  11  24  44  66  91 131 174 220 269 325 391
#     4  11  22  40  63  93 127 171 221 271 333 395
#     4   8  18  34  58  80 124 174 200 248 327 393
#     4  10  20  35  58  90 126 168 214 265 325 398
#     4  12  22  42  63 102 131 172 208 268 326 385
#
# _framework density 18.925286
#
# number of rings (size 3 to 8) (size 9 to 14) (size 15 to 20)
#    0.000    1.290    3.871    2.129    0.000    2.581 
#    2.323    2.581    0.000    1.548    0.000    0.000 
#    0.000    0.000    0.000    0.000    0.000    0.000 
#
# Total GULP energy -172610.156030 kJ/mol
# GULP energy per Si atom -5568.069549 kJ/mol
# Density = 1.888221 g / cm^3
# Si number density = 18.925286 Si / 1000 Ang^3
#
#
#
# Elastic Constant Matrix: (Units=GPa)
#
#
# Indices 1 2 3 4 5 6 
#
# 1 161.0709 48.2779 65.4453 0.0000 0.0000 0.0000
# 2 48.2779 120.0354 47.2737 0.0000 0.0000 0.0000
# 3 65.4453 47.2737 115.7608 0.0000 0.0000 0.0000
# 4 0.0000 0.0000 0.0000 11.6643 0.0000 0.0000
# 5 0.0000 0.0000 0.0000 0.0000 11.9095 0.0000
# 6 0.0000 0.0000 0.0000 0.0000 0.0000 -60.8937
#
#
#
# Elastic Compliance Matrix: (Units=1/GPa)
#
#
# Indices 1 2 3 4 5 6 
#
# 1 0.008371 -0.001791 -0.004001 0.000000 0.000000 0.000000
# 2 -0.001791 0.010311 -0.003198 0.000000 0.000000 0.000000
# 3 -0.004001 -0.003198 0.012207 0.000000 0.000000 0.000000
# 4 0.000000 0.000000 0.000000 0.085731 0.000000 0.000000
# 5 0.000000 0.000000 0.000000 0.000000 0.083967 0.000000
# 6 0.000000 0.000000 0.000000 0.000000 0.000000 -0.016422
#
#
# Mechanical properties :
#
#
# Convention : Reuss Voigt Hill
#
# Bulk Modulus (GPa) = 77.47248 79.87342 78.67295
# Shear Modulus (GPa) = 24.21925 8.26070 16.23998
#
# Velocity S-wave (km/s) = 3.58121 2.09150 2.93253
# Velocity P-wave (km/s) = 7.62397 6.93749 7.28882
#
# Compressibility (1/GPa) = 0.01290781
#
# Stress axis : x y z
#
# Youngs Moduli (GPa) = 119.46035 96.98644 81.92325
#
# Poissons Ratio (x) = 0.17370 0.32778
# Poissons Ratio (y) = 0.21396 0.26200
# Poissons Ratio (z) = 0.47798 0.31017
#
# Static dielectric constant tensor:
#      x y z
#    x 1.677420 0.000000 0.000000 
#    y 0.000000 1.713870 0.000000 
#    z 0.000000 0.000000 1.627090 
# 
# From -- ./inp_files/24026.got.cif
#   From: 2010.05.17/outbox.cif.g08.bks.cpg/sg65_13_cif.got.tgz:24026.got - 2010.06.03 17:01:31.
