data_PCOD9490154
_publ_section_title
;
Structure prediction by ZEFSAII (Michael W. Deem and Ramdas Pophale) SiO2 
 PCOD9490154
Probable space group: C M M M
;
_chemical_formula_sum "Si O2"
_cell_formula_units_Z 72
_cell_length_a 16.961201
_cell_length_b 15.652852
_cell_length_c 14.458069
_cell_angle_alpha 90.000000
_cell_angle_beta 90.000000
_cell_angle_gamma 90.000000
_cell_volume 3838.489640
_symmetry_space_group_name_H-M "C M M M"
_symmetry_group_IT_number 65
_symmetry_cell_setting 'orthorhombic'
loop_
_space_group_symop_operation_xyz
x,y,z
-x,-y,z
x,-y,-z
-x,y,-z
-x,-y,-z
x,y,-z
-x,y,z
x,-y,z
1/2+x,1/2+y,z
1/2-x,1/2-y,z
1/2+x,1/2-y,-z
1/2-x,1/2+y,-z
1/2-x,1/2-y,-z
1/2+x,1/2+y,-z
1/2-x,1/2+y,z
1/2+x,1/2-y,z
loop_
_atom_site_type_symbol
_atom_site_label
_atom_site_fract_x
_atom_site_fract_y
_atom_site_fract_z
Si Si1 0.000000 0.397048 0.893914
Si Si2 0.910432 0.763090 0.609402
Si Si3 0.789106 0.159579 0.255235
Si Si4 0.912512 0.896986 0.105079
Si Si5 0.381171 0.097417 0.267987
O O1 0.076009 0.376808 0.829080
O O2 0.000000 0.500000 0.902326
O O3 0.000000 0.362958 0.000000
O O4 0.897802 0.755407 0.500000
O O5 0.844135 0.823193 0.655475
O O6 0.903864 0.670187 0.658199
O O7 0.000000 0.794837 0.625279
O O8 0.750000 0.250000 0.232271
O O9 0.846842 0.132463 0.174583
O O10 0.713677 0.099160 0.264222
O O11 0.000000 0.866402 0.132402
O O12 0.914069 0.000000 0.105008
O O13 0.897611 0.868985 0.000000
O O14 0.406363 0.000000 0.289449
#
# Coordination Sequence:
#
# PCOD9490154 Si02
#       5
#     8  16  16  16  16
#     4   9  18  34  55  79 111 147 181 222 274 329
#     4  10  21  38  59  80 107 146 186 227 279 333
#     4  10  21  34  54  79 113 144 179 220 275 332
#     4   9  18  34  56  79 104 138 180 224 268 314
#     4  10  20  35  56  83 110 141 185 231 278 328
#
# _framework density 18.757377999999999
#
# number of rings (size 3 to 8) (size 9 to 14) (size 15 to 20)
#    0.000    2.333    1.111    2.000    0.000    5.778 
#    0.000    6.667    0.000    2.000    0.000    7.778 
#    0.000    0.000    0.000    0.000    0.000    0.000 
#
# Total GULP energy -200675.974928 kJ/mol
# GULP energy per Si atom -5574.332637 kJ/mol
# Density = 1.871469 g / cm^3
# Si number density = 18.757378 Si / 1000 Ang^3
#
#
#
# Elastic Constant Matrix: (Units=GPa)
#
#
# Indices 1 2 3 4 5 6 
#
# 1 161.8907 26.7445 92.4462 0.0000 0.0000 0.0000
# 2 26.7445 29.0293 21.9522 0.0000 0.0000 0.0000
# 3 92.4462 21.9522 132.6521 0.0000 0.0000 0.0000
# 4 0.0000 0.0000 0.0000 86.1927 0.0000 0.0000
# 5 0.0000 0.0000 0.0000 0.0000 -97.2345 0.0000
# 6 0.0000 0.0000 0.0000 0.0000 0.0000 12.8598
#
#
#
# Elastic Compliance Matrix: (Units=1/GPa)
#
#
# Indices 1 2 3 4 5 6 
#
# 1 0.010834 -0.004883 -0.006742 0.000000 0.000000 0.000000
# 2 -0.004883 0.041576 -0.003478 0.000000 0.000000 0.000000
# 3 -0.006742 -0.003478 0.012813 0.000000 0.000000 0.000000
# 4 0.000000 0.000000 0.000000 0.011602 0.000000 0.000000
# 5 0.000000 0.000000 0.000000 0.000000 -0.010284 0.000000
# 6 0.000000 0.000000 0.000000 0.000000 0.000000 0.077762
#
#
# Mechanical properties :
#
#
# Convention : Reuss Voigt Hill
#
# Bulk Modulus (GPa) = 28.55692 67.31756 47.93724
# Shear Modulus (GPa) = 26.85600 12.52555 19.69078
#
# Velocity S-wave (km/s) = 3.78796 2.58692 3.24352
# Velocity P-wave (km/s) = 5.86421 6.69995 6.29596
#
# Compressibility (1/GPa) = 0.03501779
#
# Stress axis : x y z
#
# Youngs Moduli (GPa) = 92.30589 24.05237 78.04851
#
# Poissons Ratio (x) = 0.11744 0.52620
# Poissons Ratio (y) = 0.45069 0.27142
# Poissons Ratio (z) = 0.62232 0.08365
#
# Static dielectric constant tensor:
#      x y z
#    x 1.679810 0.000000 0.000000 
#    y 0.000000 1.669260 0.000000 
#    z 0.000000 0.000000 1.624720 
# 
# From -- ./inp_files/26330.got.cif
#   From: 2010.05.17/outbox.cif.g08.bks.cpg/sg65_14_cif.got.tgz:26330.got - 2010.06.03 17:01:31.
