data_PCOD9490868
_publ_section_title
;
Structure prediction by ZEFSAII (Michael W. Deem and Ramdas Pophale) SiO2 
 PCOD9490868
Probable space group: C M M M
;
_chemical_formula_sum "Si O2"
_cell_formula_units_Z 52
_cell_length_a 11.981981
_cell_length_b 30.290223
_cell_length_c 7.285163
_cell_angle_alpha 90.000000
_cell_angle_beta 90.000000
_cell_angle_gamma 90.000000
_cell_volume 2644.054304
_symmetry_space_group_name_H-M "C M M M"
_symmetry_group_IT_number 65
_symmetry_cell_setting 'orthorhombic'
loop_
_space_group_symop_operation_xyz
x,y,z
-x,-y,z
x,-y,-z
-x,y,-z
-x,-y,-z
x,y,-z
-x,y,z
x,-y,z
1/2+x,1/2+y,z
1/2-x,1/2-y,z
1/2+x,1/2-y,-z
1/2-x,1/2+y,-z
1/2-x,1/2-y,-z
1/2+x,1/2+y,-z
1/2-x,1/2+y,z
1/2+x,1/2-y,z
loop_
_atom_site_type_symbol
_atom_site_label
_atom_site_fract_x
_atom_site_fract_y
_atom_site_fract_z
Si Si1 0.000000 0.655287 0.220022
Si Si2 0.500000 0.077009 0.500000
Si Si3 0.751646 0.050630 0.500000
Si Si4 0.131202 0.885033 0.219935
Si Si5 0.767961 0.700290 0.222354
O O1 0.889310 0.681948 0.272592
O O2 0.000000 0.609150 0.323828
O O3 0.000000 0.649299 0.000000
O O4 0.617233 0.051914 0.500000
O O5 0.799575 0.077851 0.326786
O O6 0.789781 0.000000 0.500000
O O7 0.178233 0.836857 0.275750
O O8 0.000000 0.888621 0.261091
O O9 0.146055 0.889339 0.000000
O O10 0.750000 0.750000 0.288616
O O11 0.764171 0.702045 0.000000
#
# Coordination Sequence:
#
# PCOD9490868 Si02
#       5
#     8   4   8  16  16
#     4  10  20  37  61  87 124 164 200 248 299 351
#     4  12  23  42  64  88 118 158 204 250 309 358
#     4  12  26  44  65  89 117 153 203 259 311 364
#     4  10  22  41  64  91 124 159 198 248 303 360
#     4   9  18  33  59  91 122 161 202 240 290 351
#
# _framework density 19.666768000000001
#
# number of rings (size 3 to 8) (size 9 to 14) (size 15 to 20)
#    0.000    1.846    3.077    0.692    2.154    1.846 
#    0.000    4.615    0.000    2.769    0.000    0.000 
#    0.000    0.000    0.000    0.000    0.000    0.000 
#
# Total GULP energy -145259.357785 kJ/mol
# GULP energy per Si atom -5586.898376 kJ/mol
# Density = 1.962201 g / cm^3
# Si number density = 19.666768 Si / 1000 Ang^3
#
#
#
# Elastic Constant Matrix: (Units=GPa)
#
#
# Indices 1 2 3 4 5 6 
#
# 1 143.4495 61.6378 33.7014 0.0000 0.0000 0.0000
# 2 61.6378 165.4206 36.7467 0.0000 0.0000 0.0000
# 3 33.7014 36.7467 90.8189 0.0000 0.0000 0.0000
# 4 0.0000 0.0000 0.0000 18.6233 0.0000 0.0000
# 5 0.0000 0.0000 0.0000 0.0000 9.1718 0.0000
# 6 0.0000 0.0000 0.0000 0.0000 0.0000 -18.7518
#
#
#
# Elastic Compliance Matrix: (Units=1/GPa)
#
#
# Indices 1 2 3 4 5 6 
#
# 1 0.008648 -0.002757 -0.002093 0.000000 0.000000 0.000000
# 2 -0.002757 0.007521 -0.002020 0.000000 0.000000 0.000000
# 3 -0.002093 -0.002020 0.012605 0.000000 0.000000 0.000000
# 4 0.000000 0.000000 0.000000 0.053696 0.000000 0.000000
# 5 0.000000 0.000000 0.000000 0.000000 0.109030 0.000000
# 6 0.000000 0.000000 0.000000 0.000000 0.000000 -0.053328
#
#
# Mechanical properties :
#
#
# Convention : Reuss Voigt Hill
#
# Bulk Modulus (GPa) = 66.52163 73.76231 70.14197
# Shear Modulus (GPa) = 31.86247 19.64885 25.75566
#
# Velocity S-wave (km/s) = 4.02943 3.16427 3.62277
# Velocity P-wave (km/s) = 7.45294 7.13706 7.29671
#
# Compressibility (1/GPa) = 0.01503270
#
# Stress axis : x y z
#
# Youngs Moduli (GPa) = 115.63867 132.95569 79.33296
#
# Poissons Ratio (x) = 0.36658 0.16607
# Poissons Ratio (y) = 0.31884 0.16026
# Poissons Ratio (z) = 0.24208 0.26858
#
# Static dielectric constant tensor:
#      x y z
#    x 1.669290 0.000000 0.000000 
#    y 0.000000 1.648360 0.000000 
#    z 0.000000 0.000000 1.732810 
# 
# From -- ./inp_files/4311.got.cif
#   From: 2010.05.17/outbox.cif.g08.bks.cpg/sg65_3_cif.got.tgz:4311.got - 2010.06.03 17:01:31.
