data_PCOD9490111
_publ_section_title
;
Structure prediction by ZEFSAII (Michael W. Deem and Ramdas Pophale) SiO2 
 PCOD9490111
Probable space group: C M M M
;
_chemical_formula_sum "Si O2"
_cell_formula_units_Z 80
_cell_length_a 27.657758
_cell_length_b 8.875543
_cell_length_c 18.704471
_cell_angle_alpha 90.000000
_cell_angle_beta 90.000000
_cell_angle_gamma 90.000000
_cell_volume 4591.529032
_symmetry_space_group_name_H-M "C M M M"
_symmetry_group_IT_number 65
_symmetry_cell_setting 'orthorhombic'
loop_
_space_group_symop_operation_xyz
x,y,z
-x,-y,z
x,-y,-z
-x,y,-z
-x,-y,-z
x,y,-z
-x,y,z
x,-y,z
1/2+x,1/2+y,z
1/2-x,1/2-y,z
1/2+x,1/2-y,-z
1/2-x,1/2+y,-z
1/2-x,1/2-y,-z
1/2+x,1/2+y,-z
1/2-x,1/2+y,z
1/2+x,1/2-y,z
loop_
_atom_site_type_symbol
_atom_site_label
_atom_site_fract_x
_atom_site_fract_y
_atom_site_fract_z
Si Si1 0.302489 0.820086 0.790085
Si Si2 0.944359 0.819493 0.708030
Si Si3 0.696618 0.679528 0.500000
Si Si4 0.556830 0.819490 0.000000
Si Si5 0.104559 0.820038 0.859541
Si Si6 0.352526 0.820914 0.361736
O O1 0.250000 0.750000 0.801799
O O2 0.343055 0.747758 0.840883
O O3 0.320138 0.788656 0.708745
O O4 0.301435 0.000000 0.799447
O O5 0.928743 0.787839 0.789964
O O6 0.906167 0.735225 0.658036
O O7 0.000000 0.777121 0.696184
O O8 0.939590 0.000000 0.697667
O O9 0.700044 0.500000 0.500000
O O10 0.750000 0.750000 0.500000
O O11 0.668812 0.736455 0.570244
O O12 0.581808 0.752614 0.070368
O O13 0.500000 0.780011 0.000000
O O14 0.561173 0.000000 0.000000
O O15 0.107742 0.000000 0.867507
O O16 0.352060 0.000000 0.373879
#
# Coordination Sequence:
#
# PCOD9490111 Si02
#       6
#    16  16   8   8  16  16
#     4  10  20  35  56  81 109 142 179 220 266 316
#     4   9  18  34  56  81 109 142 180 222 267 315
#     4  12  24  38  57  80 109 142 176 219 269 319
#     4  11  23  37  54  79 112 145 177 219 269 317
#     4  10  20  35  56  81 109 142 181 222 265 317
#     4  10  21  36  55  81 111 142 179 221 265 317
#
# _framework density 17.423389
#
# number of rings (size 3 to 8) (size 9 to 14) (size 15 to 20)
#    0.000    1.900    0.000    4.200    0.000    6.800 
#    0.000    1.000    0.000    3.000    0.000    0.000 
#    0.000    0.000    0.000    0.000    0.000    0.000 
#
# Total GULP energy -223471.959431 kJ/mol
# GULP energy per Si atom -5586.798986 kJ/mol
# Density = 1.738373 g / cm^3
# Si number density = 17.423389 Si / 1000 Ang^3
#
#
#
# Elastic Constant Matrix: (Units=GPa)
#
#
# Indices 1 2 3 4 5 6 
#
# 1 180.4370 83.7514 91.4117 0.0000 0.0000 0.0000
# 2 83.7514 93.2794 82.0539 0.0000 0.0000 0.0000
# 3 91.4117 82.0539 132.7288 0.0000 0.0000 0.0000
# 4 0.0000 0.0000 0.0000 30.1132 0.0000 0.0000
# 5 0.0000 0.0000 0.0000 0.0000 15.2674 0.0000
# 6 0.0000 0.0000 0.0000 0.0000 0.0000 34.7048
#
#
#
# Elastic Compliance Matrix: (Units=1/GPa)
#
#
# Indices 1 2 3 4 5 6 
#
# 1 0.009996 -0.006399 -0.002928 0.000000 0.000000 0.000000
# 2 -0.006399 0.027596 -0.012653 0.000000 0.000000 0.000000
# 3 -0.002928 -0.012653 0.017373 0.000000 0.000000 0.000000
# 4 0.000000 0.000000 0.000000 0.033208 0.000000 0.000000
# 5 0.000000 0.000000 0.000000 0.000000 0.065499 0.000000
# 6 0.000000 0.000000 0.000000 0.000000 0.000000 0.028814
#
#
# Mechanical properties :
#
#
# Convention : Reuss Voigt Hill
#
# Bulk Modulus (GPa) = 90.87286 102.31991 96.59639
# Shear Modulus (GPa) = 21.72821 25.96562 23.84692
#
# Velocity S-wave (km/s) = 3.53522 3.86459 3.70357
# Velocity P-wave (km/s) = 8.30257 8.87505 8.59358
#
# Compressibility (1/GPa) = 0.01100439
#
# Stress axis : x y z
#
# Youngs Moduli (GPa) = 100.04334 36.23706 57.55950
#
# Poissons Ratio (x) = 0.23187 0.16856
# Poissons Ratio (y) = 0.64014 0.72831
# Poissons Ratio (z) = 0.29297 0.45852
#
# Static dielectric constant tensor:
#      x y z
#    x 1.566820 0.000000 0.000000 
#    y 0.000000 1.579380 0.000000 
#    z 0.000000 0.000000 1.563320 
# 
# From -- ./inp_files/57268.got.cif
#   From: 2010.05.17/outbox.cif.g08.bks.cpg/sg65_29_cif.got.tgz:57268.got - 2010.06.03 17:01:31.
