data_PCOD9490821
_publ_section_title
;
Structure prediction by ZEFSAII (Michael W. Deem and Ramdas Pophale) SiO2 
 PCOD9490821
Probable space group: C M M M
;
_chemical_formula_sum "Si O2"
_cell_formula_units_Z 66
_cell_length_a 7.698737
_cell_length_b 16.793491
_cell_length_c 24.752620
_cell_angle_alpha 90.000000
_cell_angle_beta 90.000000
_cell_angle_gamma 90.000000
_cell_volume 3200.233332
_symmetry_space_group_name_H-M "C M M M"
_symmetry_group_IT_number 65
_symmetry_cell_setting 'orthorhombic'
loop_
_space_group_symop_operation_xyz
x,y,z
-x,-y,z
x,-y,-z
-x,y,-z
-x,-y,-z
x,y,-z
-x,y,z
x,-y,z
1/2+x,1/2+y,z
1/2-x,1/2-y,z
1/2+x,1/2-y,-z
1/2-x,1/2+y,-z
1/2-x,1/2-y,-z
1/2+x,1/2+y,-z
1/2-x,1/2+y,z
1/2+x,1/2-y,z
loop_
_atom_site_type_symbol
_atom_site_label
_atom_site_fract_x
_atom_site_fract_y
_atom_site_fract_z
Si Si1 0.213633 0.000000 0.097154
Si Si2 0.288257 0.092748 0.500000
Si Si3 0.793005 0.161301 0.835975
Si Si4 0.000000 0.500000 0.000000
Si Si5 0.294204 0.158403 0.386221
Si Si6 0.707377 0.411573 0.728585
O O1 0.253321 0.918064 0.130181
O O2 0.344076 0.000000 0.046817
O O3 0.000000 0.000000 0.086603
O O4 0.500000 0.100157 0.500000
O O5 0.222551 0.130719 0.444255
O O6 0.246536 0.000000 0.500000
O O7 0.750000 0.250000 0.856624
O O8 0.724350 0.148008 0.774666
O O9 0.000000 0.160358 0.834422
O O10 0.500000 0.148244 0.388949
O O11 0.250000 0.250000 0.378235
O O12 0.236272 0.112052 0.333123
O O13 0.500000 0.414770 0.735698
O O14 0.777682 0.500000 0.738568
#
# Coordination Sequence:
#
# PCOD9490821 Si02
#       6
#     8   8  16   2  16  16
#     4  10  23  47  71 100 143 184 221 276 334 384
#     4   9  19  36  55  73 102 145 194 253 316 382
#     4  10  21  39  66  95 132 174 215 265 330 386
#     4  12  26  44  80 106 136 182 242 270 320 382
#     4  11  22  36  54  79 111 151 200 254 315 379
#     4  10  20  37  59  88 123 163 202 255 321 386
#
# _framework density 20.623494999999998
#
# number of rings (size 3 to 8) (size 9 to 14) (size 15 to 20)
#    0.000    1.818    1.212    2.727    1.697    4.364 
#    0.000    2.424    0.000    4.364    0.000    0.000 
#    0.000    0.000    0.000    0.000    0.000    0.000 
#
# Total GULP energy -183808.720017 kJ/mol
# GULP energy per Si atom -5569.961213 kJ/mol
# Density = 2.057656 g / cm^3
# Si number density = 20.623495 Si / 1000 Ang^3
#
#
#
# Elastic Constant Matrix: (Units=GPa)
#
#
# Indices 1 2 3 4 5 6 
#
# 1 54.4644 18.2884 39.0864 0.0000 0.0000 0.0000
# 2 18.2884 143.1543 62.9895 0.0000 0.0000 0.0000
# 3 39.0864 62.9895 139.5725 0.0000 0.0000 0.0000
# 4 0.0000 0.0000 0.0000 -9.4132 0.0000 0.0000
# 5 0.0000 0.0000 0.0000 0.0000 94.3482 0.0000
# 6 0.0000 0.0000 0.0000 0.0000 0.0000 4.6442
#
#
#
# Elastic Compliance Matrix: (Units=1/GPa)
#
#
# Indices 1 2 3 4 5 6 
#
# 1 0.022981 -0.000130 -0.006377 0.000000 0.000000 0.000000
# 2 -0.000130 0.008717 -0.003898 0.000000 0.000000 0.000000
# 3 -0.006377 -0.003898 0.010710 0.000000 0.000000 0.000000
# 4 0.000000 0.000000 0.000000 -0.106234 0.000000 0.000000
# 5 0.000000 0.000000 0.000000 0.000000 0.010599 0.000000
# 6 0.000000 0.000000 0.000000 0.000000 0.000000 0.215324
#
#
# Mechanical properties :
#
#
# Convention : Reuss Voigt Hill
#
# Bulk Modulus (GPa) = 46.30003 64.21330 55.25666
# Shear Modulus (GPa) = 26.30127 32.37097 29.33612
#
# Velocity S-wave (km/s) = 3.57502 3.96614 3.77564
# Velocity P-wave (km/s) = 6.28807 7.22338 6.77189
#
# Compressibility (1/GPa) = 0.02159826
#
# Stress axis : x y z
#
# Youngs Moduli (GPa) = 43.51487 114.71736 93.37437
#
# Poissons Ratio (x) = 0.01490 0.59544
# Poissons Ratio (y) = 0.00565 0.36394
# Poissons Ratio (z) = 0.27749 0.44713
#
# Static dielectric constant tensor:
#      x y z
#    x 1.769560 0.000000 0.000000 
#    y 0.000000 1.754670 0.000000 
#    z 0.000000 0.000000 1.777140 
# 
# From -- ./inp_files/59016.got.cif
#   From: 2010.05.17/outbox.cif.g08.bks.cpg/sg65_30_cif.got.tgz:59016.got - 2010.06.03 17:01:31.
