data_PCOD9490512
_publ_section_title
;
Structure prediction by ZEFSAII (Michael W. Deem and Ramdas Pophale) SiO2 
 PCOD9490512
Probable space group: C M M M
;
_chemical_formula_sum "Si O2"
_cell_formula_units_Z 112
_cell_length_a 24.275771
_cell_length_b 13.593017
_cell_length_c 15.041796
_cell_angle_alpha 90.000000
_cell_angle_beta 90.000000
_cell_angle_gamma 90.000000
_cell_volume 4963.506403
_symmetry_space_group_name_H-M "C M M M"
_symmetry_group_IT_number 65
_symmetry_cell_setting 'orthorhombic'
loop_
_space_group_symop_operation_xyz
x,y,z
-x,-y,z
x,-y,-z
-x,y,-z
-x,-y,-z
x,y,-z
-x,y,z
x,-y,z
1/2+x,1/2+y,z
1/2-x,1/2-y,z
1/2+x,1/2-y,-z
1/2-x,1/2+y,-z
1/2-x,1/2-y,-z
1/2+x,1/2+y,-z
1/2-x,1/2+y,z
1/2+x,1/2-y,z
loop_
_atom_site_type_symbol
_atom_site_label
_atom_site_fract_x
_atom_site_fract_y
_atom_site_fract_z
Si Si1 0.900655 0.611107 0.644323
Si Si2 0.062371 0.183262 0.599154
Si Si3 0.059588 0.613918 0.845405
Si Si4 0.833328 0.118399 0.288717
Si Si5 0.775492 0.618764 0.396303
Si Si6 0.173481 0.609539 0.895206
Si Si7 0.294162 0.379566 0.101735
O O1 0.904565 0.500000 0.607833
O O2 0.930327 0.698958 0.594374
O O3 0.929203 0.610426 0.740526
O O4 0.835266 0.637220 0.648355
O O5 0.071194 0.142167 0.500000
O O6 0.110219 0.148550 0.664378
O O7 0.000000 0.159784 0.627639
O O8 0.057834 0.500000 0.878381
O O9 0.115159 0.660369 0.882403
O O10 0.000000 0.658443 0.865084
O O11 0.779384 0.153274 0.344519
O O12 0.831182 0.149379 0.185360
O O13 0.830442 0.000000 0.288881
O O14 0.777550 0.650701 0.500000
O O15 0.771141 0.500000 0.397854
O O16 0.169232 0.500000 0.852339
O O17 0.232238 0.649654 0.868264
O O18 0.180113 0.597766 0.000000
O O19 0.293949 0.500000 0.097046
O O20 0.305585 0.344732 0.000000
#
# Coordination Sequence:
#
# PCOD9490512 Si02
#       7
#    16  16  16  16  16  16  16
#     4  10  20  36  57  80 111 148 185 235 293 337
#     4  11  25  41  57  81 111 149 200 242 275 332
#     4   9  16  25  40  64  95 137 187 229 270 327
#     4  10  20  36  59  86 119 153 184 228 284 338
#     4   9  17  30  52  82 112 145 187 232 284 345
#     4   8  13  22  39  68 106 141 176 225 279 329
#     4   8  14  27  51  82 111 140 176 220 277 343
#
# _framework density 22.564693999999999
#
# number of rings (size 3 to 8) (size 9 to 14) (size 15 to 20)
#    0.000    2.714    0.000    3.000    0.000    7.143 
#    0.000    4.286    0.000    1.286    0.000    5.000 
#    0.000    0.000    0.000    0.000    0.000    0.143 
#
# Total GULP energy -312533.874904 kJ/mol
# GULP energy per Si atom -5580.962052 kJ/mol
# Density = 2.251334 g / cm^3
# Si number density = 22.564694 Si / 1000 Ang^3
#
#
#
# Elastic Constant Matrix: (Units=GPa)
#
#
# Indices 1 2 3 4 5 6 
#
# 1 170.1868 24.9438 70.2728 0.0000 0.0000 0.0000
# 2 24.9438 52.0495 0.5007 0.0000 0.0000 0.0000
# 3 70.2728 0.5007 86.7245 0.0000 0.0000 0.0000
# 4 0.0000 0.0000 0.0000 6.2385 0.0000 0.0000
# 5 0.0000 0.0000 0.0000 0.0000 25.3140 0.0000
# 6 0.0000 0.0000 0.0000 0.0000 0.0000 21.4402
#
#
#
# Elastic Compliance Matrix: (Units=1/GPa)
#
#
# Indices 1 2 3 4 5 6 
#
# 1 0.009835 -0.004637 -0.007943 0.000000 0.000000 0.000000
# 2 -0.004637 0.021400 0.003634 0.000000 0.000000 0.000000
# 3 -0.007943 0.003634 0.017946 0.000000 0.000000 0.000000
# 4 0.000000 0.000000 0.000000 0.160296 0.000000 0.000000
# 5 0.000000 0.000000 0.000000 0.000000 0.039504 0.000000
# 6 0.000000 0.000000 0.000000 0.000000 0.000000 0.046641
#
#
# Mechanical properties :
#
#
# Convention : Reuss Voigt Hill
#
# Bulk Modulus (GPa) = 31.96020 55.59949 43.77984
# Shear Modulus (GPa) = 15.43482 24.81478 20.12480
#
# Velocity S-wave (km/s) = 2.61823 3.31980 2.98966
# Velocity P-wave (km/s) = 4.83060 6.27601 5.60013
#
# Compressibility (1/GPa) = 0.03128891
#
# Stress axis : x y z
#
# Youngs Moduli (GPa) = 101.67601 46.72965 55.72362
#
# Poissons Ratio (x) = 0.21668 0.44259
# Poissons Ratio (y) = 0.47146 -0.20249
# Poissons Ratio (z) = 0.80758 -0.16980
#
# Static dielectric constant tensor:
#      x y z
#    x 1.832100 0.000000 0.000000 
#    y 0.000000 1.914290 0.000000 
#    z 0.000000 0.000000 1.855020 
# 
# From -- ./inp_files/45737.got.cif
#   From: 2010.05.17/outbox.cif.g08.bks.cpg/sg65_23_cif.got.tgz:45737.got - 2010.06.03 17:01:31.
