data_PCOD9490661
_publ_section_title
;
Structure prediction by ZEFSAII (Michael W. Deem and Ramdas Pophale) SiO2 
 PCOD9490661
Probable space group: C M M M
;
_chemical_formula_sum "Si O2"
_cell_formula_units_Z 88
_cell_length_a 18.510359
_cell_length_b 30.759505
_cell_length_c 8.883315
_cell_angle_alpha 90.000000
_cell_angle_beta 90.000000
_cell_angle_gamma 90.000000
_cell_volume 5057.888444
_symmetry_space_group_name_H-M "C M M M"
_symmetry_group_IT_number 65
_symmetry_cell_setting 'orthorhombic'
loop_
_space_group_symop_operation_xyz
x,y,z
-x,-y,z
x,-y,-z
-x,y,-z
-x,-y,-z
x,y,-z
-x,y,z
x,-y,z
1/2+x,1/2+y,z
1/2-x,1/2-y,z
1/2+x,1/2-y,-z
1/2-x,1/2+y,-z
1/2-x,1/2-y,-z
1/2+x,1/2+y,-z
1/2-x,1/2+y,z
1/2+x,1/2-y,z
loop_
_atom_site_type_symbol
_atom_site_label
_atom_site_fract_x
_atom_site_fract_y
_atom_site_fract_z
Si Si1 0.917348 0.048372 0.816899
Si Si2 0.912997 0.448216 0.500000
Si Si3 0.413422 0.797468 0.827574
Si Si4 0.334225 0.123740 0.329904
Si Si5 0.179578 0.128508 0.819079
Si Si6 0.584846 0.294795 0.680394
O O1 0.865457 0.086391 0.767163
O O2 0.000000 0.056122 0.769687
O O3 0.895598 0.000000 0.767842
O O4 0.917184 0.048372 0.000000
O O5 0.898052 0.500000 0.500000
O O6 0.876884 0.421747 0.640317
O O7 0.000000 0.442356 0.500000
O O8 0.500000 0.800000 0.829426
O O9 0.383625 0.839842 0.745487
O O10 0.395164 0.752956 0.741532
O O11 0.387204 0.795550 0.000000
O O12 0.315455 0.138224 0.500000
O O13 0.260930 0.121909 0.236434
O O14 0.138582 0.170061 0.751197
O O15 0.177705 0.131453 0.000000
O O16 0.589182 0.295682 0.500000
O O17 0.500000 0.303274 0.722489
#
# Coordination Sequence:
#
# PCOD9490661 Si02
#       6
#    16   8  16  16  16  16
#     4   8  15  29  50  75 103 141 189 235 279 331
#     4   9  20  40  66  89 109 143 189 232 277 344
#     4  10  20  36  59  86 113 145 191 242 290 341
#     4  10  22  36  57  83 114 146 185 227 285 346
#     4  11  21  34  53  81 118 155 194 240 292 339
#     4  10  21  36  56  81 116 160 203 241 279 331
#
# _framework density 17.398565000000001
#
# number of rings (size 3 to 8) (size 9 to 14) (size 15 to 20)
#    0.545    1.727    0.000    3.818    0.000    4.000 
#    0.000    3.636    0.000    1.636    0.000   10.182 
#    0.000    0.000    0.000    0.000    0.000    0.000 
#
# Total GULP energy -245208.386111 kJ/mol
# GULP energy per Si atom -5572.917866 kJ/mol
# Density = 1.735897 g / cm^3
# Si number density = 17.398565 Si / 1000 Ang^3
#
#
#
# Elastic Constant Matrix: (Units=GPa)
#
#
# Indices 1 2 3 4 5 6 
#
# 1 74.1996 89.4739 31.5113 0.0000 0.0000 0.0000
# 2 89.4739 165.8667 49.4216 0.0000 0.0000 0.0000
# 3 31.5113 49.4216 68.8449 0.0000 0.0000 0.0000
# 4 0.0000 0.0000 0.0000 19.8310 0.0000 0.0000
# 5 0.0000 0.0000 0.0000 0.0000 26.0528 0.0000
# 6 0.0000 0.0000 0.0000 0.0000 0.0000 -46.3032
#
#
#
# Elastic Compliance Matrix: (Units=1/GPa)
#
#
# Indices 1 2 3 4 5 6 
#
# 1 0.039216 -0.020107 -0.003516 0.000000 0.000000 0.000000
# 2 -0.020107 0.017979 -0.003703 0.000000 0.000000 0.000000
# 3 -0.003516 -0.003703 0.018793 0.000000 0.000000 0.000000
# 4 0.000000 0.000000 0.000000 0.050426 0.000000 0.000000
# 5 0.000000 0.000000 0.000000 0.000000 0.038384 0.000000
# 6 0.000000 0.000000 0.000000 0.000000 0.000000 -0.021597
#
#
# Mechanical properties :
#
#
# Convention : Reuss Voigt Hill
#
# Bulk Modulus (GPa) = 46.86825 72.19163 59.52994
# Shear Modulus (GPa) = 24.39446 9.14975 16.77210
#
# Velocity S-wave (km/s) = 3.74852 2.29572 3.10819
# Velocity P-wave (km/s) = 6.76252 6.97209 6.86810
#
# Compressibility (1/GPa) = 0.02133641
#
# Stress axis : x y z
#
# Youngs Moduli (GPa) = 25.49953 55.62131 53.21161
#
# Poissons Ratio (x) = 1.11838 0.18707
# Poissons Ratio (y) = 0.51272 0.19705
# Poissons Ratio (z) = 0.08965 0.20597
#
# Static dielectric constant tensor:
#      x y z
#    x 1.585560 0.000000 0.000000 
#    y 0.000000 1.577070 0.000000 
#    z 0.000000 0.000000 1.589750 
# 
# From -- ./inp_files/10142.got.cif
#   From: 2010.05.17/outbox.cif.g08.bks.cpg/sg65_6_cif.got.tgz:10142.got - 2010.06.03 17:01:31.
