data_PCOD9490701
_publ_section_title
;
Structure prediction by ZEFSAII (Michael W. Deem and Ramdas Pophale) SiO2 
 PCOD9490701
Probable space group: C M M M
;
_chemical_formula_sum "Si O2"
_cell_formula_units_Z 112
_cell_length_a 14.502143
_cell_length_b 15.100586
_cell_length_c 24.654284
_cell_angle_alpha 90.000000
_cell_angle_beta 90.000000
_cell_angle_gamma 90.000000
_cell_volume 5399.062796
_symmetry_space_group_name_H-M "C M M M"
_symmetry_group_IT_number 65
_symmetry_cell_setting 'orthorhombic'
loop_
_space_group_symop_operation_xyz
x,y,z
-x,-y,z
x,-y,-z
-x,y,-z
-x,-y,-z
x,y,-z
-x,y,z
x,-y,z
1/2+x,1/2+y,z
1/2-x,1/2-y,z
1/2+x,1/2-y,-z
1/2-x,1/2+y,-z
1/2-x,1/2-y,-z
1/2+x,1/2+y,-z
1/2-x,1/2+y,z
1/2+x,1/2-y,z
loop_
_atom_site_type_symbol
_atom_site_label
_atom_site_fract_x
_atom_site_fract_y
_atom_site_fract_z
Si Si1 0.108621 0.707620 0.345694
Si Si2 0.393828 0.336151 0.060678
Si Si3 0.284150 0.102956 0.562292
Si Si4 0.746153 0.597119 0.147356
Si Si5 0.608453 0.401991 0.370603
Si Si6 0.398956 0.876428 0.938333
Si Si7 0.893076 0.607591 0.233501
O O1 0.164676 0.666491 0.395562
O O2 0.128784 0.812322 0.337122
O O3 0.124499 0.650107 0.292056
O O4 0.000000 0.700840 0.358414
O O5 0.500000 0.366427 0.063849
O O6 0.338505 0.360998 0.114723
O O7 0.393210 0.229910 0.060118
O O8 0.357832 0.364345 0.000000
O O9 0.298801 0.128219 0.500000
O O10 0.176141 0.104349 0.578101
O O11 0.314631 0.000000 0.569476
O O12 0.716848 0.500000 0.166935
O O13 0.820127 0.589655 0.099316
O O14 0.810488 0.639338 0.193991
O O15 0.500000 0.399812 0.384275
O O16 0.626647 0.500000 0.345393
O O17 0.500000 0.900540 0.917477
O O18 0.390720 0.905542 0.000000
O O19 0.889872 0.500000 0.235094
O O20 0.000000 0.631174 0.217739
#
# Coordination Sequence:
#
# PCOD9490701 Si02
#       7
#    16  16  16  16  16  16  16
#     4  10  20  36  60  85 112 152 195 235 290 354
#     4   9  19  36  55  76 108 151 194 231 268 320
#     4  10  21  36  56  85 120 155 193 242 295 344
#     4  11  21  32  52  82 112 141 176 223 278 333
#     4   9  19  36  57  83 115 149 189 237 285 339
#     4   9  18  33  52  74 103 139 178 222 271 322
#     4   9  19  36  56  80 112 148 188 235 286 344
#
# _framework density 20.744340000000001
#
# number of rings (size 3 to 8) (size 9 to 14) (size 15 to 20)
#    0.000    2.429    0.000    3.000    0.000    6.000 
#    0.000    7.857    0.000    2.571    0.000    2.000 
#    0.000    0.000    0.000    0.571    0.000    0.000 
#
# Total GULP energy -312124.000153 kJ/mol
# GULP energy per Si atom -5573.642860 kJ/mol
# Density = 2.069712 g / cm^3
# Si number density = 20.744340 Si / 1000 Ang^3
#
#
#
# Elastic Constant Matrix: (Units=GPa)
#
#
# Indices 1 2 3 4 5 6 
#
# 1 63.9694 33.0302 38.4426 0.0000 0.0000 0.0000
# 2 33.0302 72.3791 35.6897 0.0000 0.0000 0.0000
# 3 38.4426 35.6897 83.1096 0.0000 0.0000 0.0000
# 4 0.0000 0.0000 0.0000 16.1027 0.0000 0.0000
# 5 0.0000 0.0000 0.0000 0.0000 29.5788 0.0000
# 6 0.0000 0.0000 0.0000 0.0000 0.0000 22.9545
#
#
#
# Elastic Compliance Matrix: (Units=1/GPa)
#
#
# Indices 1 2 3 4 5 6 
#
# 1 0.024153 -0.006994 -0.008168 0.000000 0.000000 0.000000
# 2 -0.006994 0.019553 -0.005161 0.000000 0.000000 0.000000
# 3 -0.008168 -0.005161 0.018027 0.000000 0.000000 0.000000
# 4 0.000000 0.000000 0.000000 0.062101 0.000000 0.000000
# 5 0.000000 0.000000 0.000000 0.000000 0.033808 0.000000
# 6 0.000000 0.000000 0.000000 0.000000 0.000000 0.043564
#
#
# Mechanical properties :
#
#
# Convention : Reuss Voigt Hill
#
# Bulk Modulus (GPa) = 47.42784 48.19815 47.81299
# Shear Modulus (GPa) = 20.08974 21.21357 20.65166
#
# Velocity S-wave (km/s) = 3.11536 3.20131 3.15863
# Velocity P-wave (km/s) = 5.98776 6.07860 6.03335
#
# Compressibility (1/GPa) = 0.02108466
#
# Stress axis : x y z
#
# Youngs Moduli (GPa) = 41.40315 51.14283 55.47216
#
# Poissons Ratio (x) = 0.35771 0.45312
# Poissons Ratio (y) = 0.28959 0.28631
# Poissons Ratio (z) = 0.33820 0.26397
#
# Static dielectric constant tensor:
#      x y z
#    x 1.757670 0.000000 0.000000 
#    y 0.000000 1.957030 0.000000 
#    z 0.000000 0.000000 1.710500 
# 
# From -- ./inp_files/70004.got.cif
#   From: 2010.05.17/outbox.cif.g08.bks.cpg/sg65_36_cif.got.tgz:70004.got - 2010.06.03 17:01:31.
