data_PCOD9490018
_publ_section_title
;
Structure prediction by ZEFSAII (Michael W. Deem and Ramdas Pophale) SiO2 
 PCOD9490018
Probable space group: C M M M
;
_chemical_formula_sum "Si O2"
_cell_formula_units_Z 88
_cell_length_a 14.094040
_cell_length_b 25.565087
_cell_length_c 12.312328
_cell_angle_alpha 90.000000
_cell_angle_beta 90.000000
_cell_angle_gamma 90.000000
_cell_volume 4436.320881
_symmetry_space_group_name_H-M "C M M M"
_symmetry_group_IT_number 65
_symmetry_cell_setting 'orthorhombic'
loop_
_space_group_symop_operation_xyz
x,y,z
-x,-y,z
x,-y,-z
-x,y,-z
-x,-y,-z
x,y,-z
-x,y,z
x,-y,z
1/2+x,1/2+y,z
1/2-x,1/2-y,z
1/2+x,1/2-y,-z
1/2-x,1/2+y,-z
1/2-x,1/2-y,-z
1/2+x,1/2+y,-z
1/2-x,1/2+y,z
1/2+x,1/2-y,z
loop_
_atom_site_type_symbol
_atom_site_label
_atom_site_fract_x
_atom_site_fract_y
_atom_site_fract_z
Si Si1 0.189030 0.914886 0.239906
Si Si2 0.173197 0.793914 0.767777
Si Si3 0.000000 0.205286 0.622392
Si Si4 0.609047 0.437250 0.000000
Si Si5 0.000000 0.921516 0.373829
Si Si6 0.889544 0.558914 0.190044
Si Si7 0.612765 0.739323 0.000000
Si Si8 0.112413 0.641487 0.000000
O O1 0.199283 0.853002 0.260575
O O2 0.160250 0.922077 0.112671
O O3 0.097583 0.935255 0.309177
O O4 0.293485 0.938854 0.262354
O O5 0.250000 0.750000 0.754041
O O6 0.089385 0.777054 0.689480
O O7 0.141644 0.790944 0.892474
O O8 0.000000 0.141930 0.624058
O O9 0.000000 0.223596 0.500000
O O10 0.605440 0.500000 0.000000
O O11 0.500000 0.416878 0.000000
O O12 0.000000 0.938856 0.500000
O O13 0.889330 0.500000 0.141427
O O14 0.000000 0.566125 0.230544
O O15 0.869565 0.605164 0.104091
O O16 0.652856 0.799475 0.000000
O O17 0.500000 0.742705 0.000000
O O18 0.000000 0.649071 0.000000
#
# Coordination Sequence:
#
# PCOD9490018 Si02
#       8
#    16  16   8   8   8  16   8   8
#     4  11  21  37  59  86 118 153 189 234 286 342
#     4  11  22  35  55  85 115 154 190 231 280 339
#     4   9  20  39  59  79 108 148 198 242 284 331
#     4  11  22  35  57  89 123 151 184 234 291 349
#     4   9  20  39  63  86 111 149 191 236 291 350
#     4  10  20  35  55  79 111 153 197 233 275 331
#     4  11  20  33  52  79 122 155 186 224 278 348
#     4   9  18  31  50  78 111 157 194 232 270 328
#
# _framework density 19.836257
#
# number of rings (size 3 to 8) (size 9 to 14) (size 15 to 20)
#    0.000    1.727    1.818    3.273    0.000    2.182 
#    1.636    0.000    0.000    4.909    0.000    1.273 
#    0.000    0.000    0.000    0.000    0.000    0.909 
#
# Total GULP energy -245313.033996 kJ/mol
# GULP energy per Si atom -5575.296227 kJ/mol
# Density = 1.979111 g / cm^3
# Si number density = 19.836257 Si / 1000 Ang^3
#
#
#
# Elastic Constant Matrix: (Units=GPa)
#
#
# Indices 1 2 3 4 5 6 
#
# 1 177.8652 16.5676 59.6334 0.0000 0.0000 0.0000
# 2 16.5676 67.5075 -1.8621 0.0000 0.0000 0.0000
# 3 59.6334 -1.8621 102.6906 0.0000 0.0000 0.0000
# 4 0.0000 0.0000 0.0000 -8.5058 0.0000 0.0000
# 5 0.0000 0.0000 0.0000 0.0000 20.5240 0.0000
# 6 0.0000 0.0000 0.0000 0.0000 0.0000 30.5249
#
#
#
# Elastic Compliance Matrix: (Units=1/GPa)
#
#
# Indices 1 2 3 4 5 6 
#
# 1 0.007214 -0.001887 -0.004223 0.000000 0.000000 0.000000
# 2 -0.001887 0.015314 0.001373 0.000000 0.000000 0.000000
# 3 -0.004223 0.001373 0.012216 0.000000 0.000000 0.000000
# 4 0.000000 0.000000 0.000000 -0.117567 0.000000 0.000000
# 5 0.000000 0.000000 0.000000 0.000000 0.048723 0.000000
# 6 0.000000 0.000000 0.000000 0.000000 0.000000 0.032760
#
#
# Mechanical properties :
#
#
# Convention : Reuss Voigt Hill
#
# Bulk Modulus (GPa) = 39.57298 55.19346 47.38322
# Shear Modulus (GPa) = 301.97868 26.75691 164.36779
#
# Velocity S-wave (km/s) = 12.35177 3.67671 9.11275
# Velocity P-wave (km/s) = 14.94706 6.77563 11.60439
#
# Compressibility (1/GPa) = 0.02526977
#
# Stress axis : x y z
#
# Youngs Moduli (GPa) = 138.61907 65.29906 81.86317
#
# Poissons Ratio (x) = 0.12322 0.34575
# Poissons Ratio (y) = 0.26157 -0.11244
# Poissons Ratio (z) = 0.58545 -0.08969
#
# Static dielectric constant tensor:
#      x y z
#    x 1.765920 0.000000 0.000000 
#    y 0.000000 1.706180 0.000000 
#    z 0.000000 0.000000 1.672250 
# 
# From -- ./inp_files/25268.got.cif
#   From: 2010.05.17/outbox.cif.g08.bks.cpg/sg65_13_cif.got.tgz:25268.got - 2010.06.03 17:01:31.
