data_PCOD9490200
_publ_section_title
;
Structure prediction by ZEFSAII (Michael W. Deem and Ramdas Pophale) SiO2 
 PCOD9490200
Probable space group: C M M M
;
_chemical_formula_sum "Si O2"
_cell_formula_units_Z 84
_cell_length_a 7.902228
_cell_length_b 27.423022
_cell_length_c 22.533875
_cell_angle_alpha 90.000000
_cell_angle_beta 90.000000
_cell_angle_gamma 90.000000
_cell_volume 4883.157690
_symmetry_space_group_name_H-M "C M M M"
_symmetry_group_IT_number 65
_symmetry_cell_setting 'orthorhombic'
loop_
_space_group_symop_operation_xyz
x,y,z
-x,-y,z
x,-y,-z
-x,y,-z
-x,-y,-z
x,y,-z
-x,y,z
x,-y,z
1/2+x,1/2+y,z
1/2-x,1/2-y,z
1/2+x,1/2-y,-z
1/2-x,1/2+y,-z
1/2-x,1/2-y,-z
1/2+x,1/2+y,-z
1/2-x,1/2+y,z
1/2+x,1/2-y,z
loop_
_atom_site_type_symbol
_atom_site_label
_atom_site_fract_x
_atom_site_fract_y
_atom_site_fract_z
Si Si1 0.000000 0.942762 0.297186
Si Si2 0.797777 0.806443 0.779172
Si Si3 0.689671 0.124726 0.328370
Si Si4 0.500000 0.442747 0.154171
Si Si5 0.000000 0.637923 0.000000
Si Si6 0.797432 0.805103 0.568978
Si Si7 0.183424 0.377725 0.121103
O O1 0.165826 0.915811 0.321928
O O2 0.000000 0.936882 0.225603
O O3 0.000000 0.000000 0.310662
O O4 0.750000 0.750000 0.775399
O O5 0.719574 0.837091 0.725215
O O6 0.731640 0.830875 0.839693
O O7 0.000000 0.811563 0.776296
O O8 0.500000 0.104846 0.324713
O O9 0.714087 0.155510 0.388420
O O10 0.500000 0.500000 0.140246
O O11 0.332945 0.416268 0.129472
O O12 0.855136 0.635650 0.946836
O O13 0.747142 0.810673 0.500000
O O14 0.750000 0.750000 0.587349
O O15 0.000000 0.810106 0.573262
O O16 0.000000 0.397041 0.143819
#
# Coordination Sequence:
#
# PCOD9490200 Si02
#       7
#     8  16  16   8   4  16  16
#     4  11  24  42  61  93 126 154 205 260 306 363
#     4  12  22  37  62  90 122 156 202 254 298 357
#     4  12  22  38  62  91 123 161 205 252 310 359
#     4  11  22  39  67  91 118 160 197 248 310 362
#     4   8  24  38  65  80 124 156 190 244 301 358
#     4  10  20  35  56  88 132 171 205 249 301 364
#     4  10  20  42  58  85 120 154 193 241 299 350
#
# _framework density 17.201983999999999
#
# number of rings (size 3 to 8) (size 9 to 14) (size 15 to 20)
#    0.571    0.571    4.762    2.857    0.000    2.286 
#    0.000    3.810    0.000    1.143    0.000    1.333 
#    0.000    0.000    0.000    0.000    0.000    0.000 
#
# Total GULP energy -233909.525480 kJ/mol
# GULP energy per Si atom -5569.274416 kJ/mol
# Density = 1.716283 g / cm^3
# Si number density = 17.201984 Si / 1000 Ang^3
#
#
#
# Elastic Constant Matrix: (Units=GPa)
#
#
# Indices 1 2 3 4 5 6 
#
# 1 145.4407 47.8025 33.4906 0.0000 0.0000 0.0000
# 2 47.8025 106.5000 43.4046 0.0000 0.0000 0.0000
# 3 33.4906 43.4046 83.1145 0.0000 0.0000 0.0000
# 4 0.0000 0.0000 0.0000 3.6746 0.0000 0.0000
# 5 0.0000 0.0000 0.0000 0.0000 36.7206 0.0000
# 6 0.0000 0.0000 0.0000 0.0000 0.0000 22.7724
#
#
#
# Elastic Compliance Matrix: (Units=1/GPa)
#
#
# Indices 1 2 3 4 5 6 
#
# 1 0.008265 -0.002989 -0.001770 0.000000 0.000000 0.000000
# 2 -0.002989 0.013009 -0.005589 0.000000 0.000000 0.000000
# 3 -0.001770 -0.005589 0.015664 0.000000 0.000000 0.000000
# 4 0.000000 0.000000 0.000000 0.272141 0.000000 0.000000
# 5 0.000000 0.000000 0.000000 0.000000 0.027233 0.000000
# 6 0.000000 0.000000 0.000000 0.000000 0.000000 0.043913
#
#
# Mechanical properties :
#
#
# Convention : Reuss Voigt Hill
#
# Bulk Modulus (GPa) = 61.56686 64.93896 63.25291
# Shear Modulus (GPa) = 12.30513 26.65734 19.48123
#
# Velocity S-wave (km/s) = 2.67747 3.94085 3.36891
# Velocity P-wave (km/s) = 6.73993 7.65114 7.20994
#
# Compressibility (1/GPa) = 0.01624251
#
# Stress axis : x y z
#
# Youngs Moduli (GPa) = 120.98509 76.86899 63.84199
#
# Poissons Ratio (x) = 0.22974 0.11299
# Poissons Ratio (y) = 0.36159 0.35684
# Poissons Ratio (z) = 0.21412 0.42966
#
# Static dielectric constant tensor:
#      x y z
#    x 1.604760 0.000000 0.000000 
#    y 0.000000 1.558270 0.000000 
#    z 0.000000 0.000000 1.574070 
# 
# From -- ./inp_files/60126.got.cif
#   From: 2010.05.17/outbox.cif.g08.bks.cpg/sg65_31_cif.got.tgz:60126.got - 2010.06.03 17:01:31.
