data_PCOD9490920
_publ_section_title
;
Structure prediction by ZEFSAII (Michael W. Deem and Ramdas Pophale) SiO2 
 PCOD9490920
Probable space group: C M M M
;
_chemical_formula_sum "Si O2"
_cell_formula_units_Z 104
_cell_length_a 8.814496
_cell_length_b 22.180563
_cell_length_c 27.383574
_cell_angle_alpha 90.000000
_cell_angle_beta 90.000000
_cell_angle_gamma 90.000000
_cell_volume 5353.775802
_symmetry_space_group_name_H-M "C M M M"
_symmetry_group_IT_number 65
_symmetry_cell_setting 'orthorhombic'
loop_
_space_group_symop_operation_xyz
x,y,z
-x,-y,z
x,-y,-z
-x,y,-z
-x,-y,-z
x,y,-z
-x,y,z
x,-y,z
1/2+x,1/2+y,z
1/2-x,1/2-y,z
1/2+x,1/2-y,-z
1/2-x,1/2+y,-z
1/2-x,1/2-y,-z
1/2+x,1/2+y,-z
1/2-x,1/2+y,z
1/2+x,1/2-y,z
loop_
_atom_site_type_symbol
_atom_site_label
_atom_site_fract_x
_atom_site_fract_y
_atom_site_fract_z
Si Si1 0.182647 0.929580 0.173694
Si Si2 0.830233 0.634113 0.445124
Si Si3 0.678947 0.686079 0.648107
Si Si4 0.669850 0.500000 0.660670
Si Si5 0.245383 0.000000 0.447605
Si Si6 0.818584 0.683809 0.000000
Si Si7 0.680268 0.897732 0.278604
Si Si8 0.816001 0.319205 0.109257
O O1 0.240975 0.917751 0.228623
O O2 0.252499 0.873383 0.142976
O O3 0.000000 0.925940 0.171453
O O4 0.224300 0.000000 0.160293
O O5 0.784332 0.654287 0.500000
O O6 0.719307 0.649675 0.401102
O O7 0.836980 0.561843 0.446770
O O8 0.000000 0.657804 0.434796
O O9 0.500000 0.685567 0.655731
O O10 0.750000 0.750000 0.637249
O O11 0.759472 0.663544 0.697738
O O12 0.500000 0.500000 0.682101
O O13 0.657387 0.500000 0.602900
O O14 0.764611 0.444119 0.680240
O O15 0.163358 0.000000 0.500000
O O16 0.750000 0.750000 0.000000
O O17 0.775785 0.659935 0.946466
O O18 0.000000 0.686601 0.000000
O O19 0.500000 0.897796 0.272714
O O20 0.750000 0.250000 0.116951
O O21 0.000000 0.315424 0.114120
#
# Coordination Sequence:
#
# PCOD9490920 Si02
#       8
#    16  16  16   8   8   8  16  16
#     4  11  24  42  64  92 130 170 216 270 325 381
#     4  10  21  38  61  89 120 153 191 236 290 353
#     4  12  26  44  64  87 117 152 195 245 298 360
#     4  12  23  38  62  92 123 156 195 243 296 358
#     4  10  21  35  61  95 128 156 191 238 294 356
#     4   8  16  32  57  90 127 171 219 273 321 380
#     4  12  25  42  66  91 118 156 201 248 304 367
#     4  10  20  37  63  95 132 173 223 272 328 386
#
# _framework density 19.425543000000001
#
# number of rings (size 3 to 8) (size 9 to 14) (size 15 to 20)
#    0.000    1.231    2.308    4.154    0.000    4.462 
#    0.000    5.000    0.000    2.308    0.000    0.000 
#    0.000    0.000    0.000    0.000    0.000    0.000 
#
# Total GULP energy -289769.043269 kJ/mol
# GULP energy per Si atom -5572.481601 kJ/mol
# Density = 1.938133 g / cm^3
# Si number density = 19.425543 Si / 1000 Ang^3
#
#
#
# Elastic Constant Matrix: (Units=GPa)
#
#
# Indices 1 2 3 4 5 6 
#
# 1 102.3200 37.1374 39.8746 0.0000 0.0000 0.0000
# 2 37.1374 105.9892 54.9581 0.0000 0.0000 0.0000
# 3 39.8746 54.9581 129.9327 0.0000 0.0000 0.0000
# 4 0.0000 0.0000 0.0000 25.7358 0.0000 0.0000
# 5 0.0000 0.0000 0.0000 0.0000 6.9237 0.0000
# 6 0.0000 0.0000 0.0000 0.0000 0.0000 66.1258
#
#
#
# Elastic Compliance Matrix: (Units=1/GPa)
#
#
# Indices 1 2 3 4 5 6 
#
# 1 0.011749 -0.002878 -0.002388 0.000000 0.000000 0.000000
# 2 -0.002878 0.012791 -0.004527 0.000000 0.000000 0.000000
# 3 -0.002388 -0.004527 0.010344 0.000000 0.000000 0.000000
# 4 0.000000 0.000000 0.000000 0.038856 0.000000 0.000000
# 5 0.000000 0.000000 0.000000 0.000000 0.144431 0.000000
# 6 0.000000 0.000000 0.000000 0.000000 0.000000 0.015123
#
#
# Mechanical properties :
#
#
# Convention : Reuss Voigt Hill
#
# Bulk Modulus (GPa) = 65.37295 66.90912 66.14103
# Shear Modulus (GPa) = 19.38146 33.50851 26.44498
#
# Velocity S-wave (km/s) = 3.16211 4.15778 3.69365
# Velocity P-wave (km/s) = 6.85989 7.58737 7.23278
#
# Compressibility (1/GPa) = 0.01529685
#
# Stress axis : x y z
#
# Youngs Moduli (GPa) = 85.11664 78.18159 96.67552
#
# Poissons Ratio (x) = 0.22503 0.23086
# Poissons Ratio (y) = 0.24499 0.43763
# Poissons Ratio (z) = 0.20326 0.35392
#
# Static dielectric constant tensor:
#      x y z
#    x 1.668700 0.000000 0.000000 
#    y 0.000000 1.707590 0.000000 
#    z 0.000000 0.000000 1.694620 
# 
# From -- ./inp_files/73380.got.cif
#   From: 2010.05.17/outbox.cif.g08.bks.cpg/sg65_37_cif.got.tgz:73380.got - 2010.06.03 17:01:31.
