data_PCOD9490740
_publ_section_title
;
Structure prediction by ZEFSAII (Michael W. Deem and Ramdas Pophale) SiO2 
 PCOD9490740
Probable space group: C M M M
;
_chemical_formula_sum "Si O2"
_cell_formula_units_Z 64
_cell_length_a 18.432294
_cell_length_b 11.669000
_cell_length_c 12.646526
_cell_angle_alpha 90.000000
_cell_angle_beta 90.000000
_cell_angle_gamma 90.000000
_cell_volume 2720.096239
_symmetry_space_group_name_H-M "C M M M"
_symmetry_group_IT_number 65
_symmetry_cell_setting 'orthorhombic'
loop_
_space_group_symop_operation_xyz
x,y,z
-x,-y,z
x,-y,-z
-x,y,-z
-x,-y,-z
x,y,-z
-x,y,z
x,-y,z
1/2+x,1/2+y,z
1/2-x,1/2-y,z
1/2+x,1/2-y,-z
1/2-x,1/2+y,-z
1/2-x,1/2-y,-z
1/2+x,1/2+y,-z
1/2-x,1/2+y,z
1/2+x,1/2-y,z
loop_
_atom_site_type_symbol
_atom_site_label
_atom_site_fract_x
_atom_site_fract_y
_atom_site_fract_z
Si Si1 0.735094 0.875478 0.379754
Si Si2 0.080106 0.133176 0.182156
Si Si3 0.697350 0.361771 0.000000
Si Si4 0.416815 0.161877 0.690293
Si Si5 0.913462 0.500000 0.881517
O O1 0.763871 0.872077 0.500000
O O2 0.750000 0.750000 0.328893
O O3 0.647512 0.877400 0.382975
O O4 0.757390 0.000000 0.331710
O O5 0.087543 0.203602 0.289443
O O6 0.000000 0.167197 0.137336
O O7 0.077858 0.000000 0.203792
O O8 0.144776 0.151852 0.100944
O O9 0.750000 0.250000 0.000000
O O10 0.721086 0.500000 0.000000
O O11 0.500000 0.131024 0.663823
O O12 0.397377 0.107355 0.805715
O O13 0.000000 0.500000 0.892082
O O14 0.883082 0.500000 0.000000
#
# Coordination Sequence:
#
# PCOD9490740 Si02
#       5
#    16  16   8  16   8
#     4  10  22  41  64  90 121 159 200 244 301 367
#     4   9  19  36  58  81 109 150 198 244 293 355
#     4  10  21  39  57  79 113 154 202 252 300 350
#     4  10  20  36  61  91 117 150 198 248 304 355
#     4   9  18  32  53  85 121 153 189 238 296 354
#
# _framework density 23.528578
#
# number of rings (size 3 to 8) (size 9 to 14) (size 15 to 20)
#    0.000    2.375    1.250    0.375    1.750    4.000 
#    2.250    3.750    0.000    0.750    0.000    7.000 
#    0.000    0.000    0.000    0.000    0.000    0.000 
#
# Total GULP energy -178280.196982 kJ/mol
# GULP energy per Si atom -5571.256156 kJ/mol
# Density = 2.347503 g / cm^3
# Si number density = 23.528578 Si / 1000 Ang^3
#
#
#
# Elastic Constant Matrix: (Units=GPa)
#
#
# Indices 1 2 3 4 5 6 
#
# 1 95.8665 52.0266 6.1290 0.0000 0.0000 0.0000
# 2 52.0266 182.2493 6.5161 0.0000 0.0000 0.0000
# 3 6.1290 6.5161 43.4426 0.0000 0.0000 0.0000
# 4 0.0000 0.0000 0.0000 -26.2263 0.0000 0.0000
# 5 0.0000 0.0000 0.0000 0.0000 16.5852 0.0000
# 6 0.0000 0.0000 0.0000 0.0000 0.0000 34.6790
#
#
#
# Elastic Compliance Matrix: (Units=1/GPa)
#
#
# Indices 1 2 3 4 5 6 
#
# 1 0.012408 -0.003498 -0.001226 0.000000 0.000000 0.000000
# 2 -0.003498 0.006503 -0.000482 0.000000 0.000000 0.000000
# 3 -0.001226 -0.000482 0.023264 0.000000 0.000000 0.000000
# 4 0.000000 0.000000 0.000000 -0.038130 0.000000 0.000000
# 5 0.000000 0.000000 0.000000 0.000000 0.060295 0.000000
# 6 0.000000 0.000000 0.000000 0.000000 0.000000 0.028836
#
#
# Mechanical properties :
#
#
# Convention : Reuss Voigt Hill
#
# Bulk Modulus (GPa) = 31.48310 50.10019 40.79165
# Shear Modulus (GPa) = 43.79228 22.13338 32.96283
#
# Velocity S-wave (km/s) = 4.31889 3.07041 3.74701
# Velocity P-wave (km/s) = 6.18710 5.82319 6.00790
#
# Compressibility (1/GPa) = 0.03176307
#
# Stress axis : x y z
#
# Youngs Moduli (GPa) = 80.59281 153.77819 42.98471
#
# Poissons Ratio (x) = 0.53796 0.05269
# Poissons Ratio (y) = 0.28194 0.02071
# Poissons Ratio (z) = 0.09879 0.07410
#
# Static dielectric constant tensor:
#      x y z
#    x 1.939320 0.000000 0.000000 
#    y 0.000000 2.011250 0.000000 
#    z 0.000000 0.000000 1.869010 
# 
# From -- ./inp_files/41930.got.cif
#   From: 2010.05.17/outbox.cif.g08.bks.cpg/sg65_21_cif.got.tgz:41930.got - 2010.06.03 17:01:31.
