data_PCOD9490905
_publ_section_title
;
Structure prediction by ZEFSAII (Michael W. Deem and Ramdas Pophale) SiO2 
 PCOD9490905
Probable space group: C M M M
;
_chemical_formula_sum "Si O2"
_cell_formula_units_Z 100
_cell_length_a 28.956826
_cell_length_b 7.780932
_cell_length_c 19.360281
_cell_angle_alpha 90.000000
_cell_angle_beta 90.000000
_cell_angle_gamma 90.000000
_cell_volume 4362.086093
_symmetry_space_group_name_H-M "C M M M"
_symmetry_group_IT_number 65
_symmetry_cell_setting 'orthorhombic'
loop_
_space_group_symop_operation_xyz
x,y,z
-x,-y,z
x,-y,-z
-x,y,-z
-x,-y,-z
x,y,-z
-x,y,z
x,-y,z
1/2+x,1/2+y,z
1/2-x,1/2-y,z
1/2+x,1/2-y,-z
1/2-x,1/2+y,-z
1/2-x,1/2-y,-z
1/2+x,1/2+y,-z
1/2-x,1/2+y,z
1/2+x,1/2-y,z
loop_
_atom_site_type_symbol
_atom_site_label
_atom_site_fract_x
_atom_site_fract_y
_atom_site_fract_z
Si Si1 0.552087 0.199695 0.369848
Si Si2 0.850580 0.188737 0.598726
Si Si3 0.445644 0.298258 0.787227
Si Si4 0.198680 0.295485 0.729204
Si Si5 0.301116 0.205189 0.111402
Si Si6 0.900387 0.799140 0.073950
Si Si7 0.675519 0.000000 0.500000
O O1 0.500000 0.265215 0.382615
O O2 0.594125 0.292975 0.407120
O O3 0.560122 0.210523 0.287104
O O4 0.553976 0.000000 0.390646
O O5 0.837582 0.209051 0.678998
O O6 0.827625 0.347153 0.559303
O O7 0.835374 0.000000 0.576203
O O8 0.500000 0.289282 0.803989
O O9 0.433422 0.500000 0.777372
O O10 0.418531 0.225346 0.853349
O O11 0.192215 0.500000 0.728515
O O12 0.250000 0.250000 0.703503
O O13 0.196348 0.236389 0.808425
O O14 0.250000 0.250000 0.085509
O O15 0.345109 0.286038 0.075374
O O16 0.306133 0.000000 0.108435
O O17 0.914137 0.000000 0.075109
O O18 0.916657 0.725907 0.000000
#
# Coordination Sequence:
#
# PCOD9490905 Si02
#       7
#    16  16  16  16  16  16   4
#     4  10  20  37  62  92 123 156 198 254 311 360
#     4  12  24  42  68  91 125 169 205 250 303 359
#     4   9  18  33  55  84 115 148 197 251 300 358
#     4  10  20  38  64  94 124 152 199 257 306 361
#     4  10  21  36  58  85 113 147 190 248 306 354
#     4  10  21  35  51  75 113 158 201 243 297 364
#     4  12  26  48  63  92 134 166 206 250 289 370
#
# _framework density 22.924811999999999
#
# number of rings (size 3 to 8) (size 9 to 14) (size 15 to 20)
#    0.000    1.760    1.600    2.640    0.000    7.040 
#    0.000    2.800    0.000    0.960    0.000    3.360 
#    0.000    0.000    0.000    0.000    0.000    0.000 
#
# Total GULP energy -278949.064166 kJ/mol
# GULP energy per Si atom -5578.981283 kJ/mol
# Density = 2.287263 g / cm^3
# Si number density = 22.924812 Si / 1000 Ang^3
#
#
#
# Elastic Constant Matrix: (Units=GPa)
#
#
# Indices 1 2 3 4 5 6 
#
# 1 43.3426 -4.7936 -4.3691 0.0000 0.0000 0.0000
# 2 -4.7936 103.9945 6.5739 0.0000 0.0000 0.0000
# 3 -4.3691 6.5739 37.2624 0.0000 0.0000 0.0000
# 4 0.0000 0.0000 0.0000 1.8934 0.0000 0.0000
# 5 0.0000 0.0000 0.0000 0.0000 -80.2323 0.0000
# 6 0.0000 0.0000 0.0000 0.0000 0.0000 22.3095
#
#
#
# Elastic Compliance Matrix: (Units=1/GPa)
#
#
# Indices 1 2 3 4 5 6 
#
# 1 0.023434 0.000917 0.002586 0.000000 0.000000 0.000000
# 2 0.000917 0.009760 -0.001614 0.000000 0.000000 0.000000
# 3 0.002586 -0.001614 0.027425 0.000000 0.000000 0.000000
# 4 0.000000 0.000000 0.000000 0.528156 0.000000 0.000000
# 5 0.000000 0.000000 0.000000 0.000000 -0.012464 0.000000
# 6 0.000000 0.000000 0.000000 0.000000 0.000000 0.044824
#
#
# Mechanical properties :
#
#
# Convention : Reuss Voigt Hill
#
# Bulk Modulus (GPa) = 15.52902 19.93576 17.73239
# Shear Modulus (GPa) = 7.82688 1.27333 4.55011
#
# Velocity S-wave (km/s) = 1.84975 0.74609 1.41036
# Velocity P-wave (km/s) = 3.36908 3.07526 3.22552
#
# Compressibility (1/GPa) = 0.06439555
#
# Stress axis : x y z
#
# Youngs Moduli (GPa) = 42.67292 102.45689 36.46341
#
# Poissons Ratio (x) = -0.09392 -0.09429
# Poissons Ratio (y) = -0.03912 0.05887
# Poissons Ratio (z) = -0.11035 0.16541
#
# Static dielectric constant tensor:
#      x y z
#    x 1.863720 0.000000 0.000000 
#    y 0.000000 1.832520 0.000000 
#    z 0.000000 0.000000 1.920940 
# 
# From -- ./inp_files/65868.got.cif
#   From: 2010.05.17/outbox.cif.g08.bks.cpg/sg65_33_cif.got.tgz:65868.got - 2010.06.03 17:01:31.
