data_PCOD9490880
_publ_section_title
;
Structure prediction by ZEFSAII (Michael W. Deem and Ramdas Pophale) SiO2 
 PCOD9490880
Probable space group: C M M M
;
_chemical_formula_sum "Si O2"
_cell_formula_units_Z 88
_cell_length_a 24.282179
_cell_length_b 14.028203
_cell_length_c 12.064935
_cell_angle_alpha 90.000000
_cell_angle_beta 90.000000
_cell_angle_gamma 90.000000
_cell_volume 4109.743191
_symmetry_space_group_name_H-M "C M M M"
_symmetry_group_IT_number 65
_symmetry_cell_setting 'orthorhombic'
loop_
_space_group_symop_operation_xyz
x,y,z
-x,-y,z
x,-y,-z
-x,y,-z
-x,-y,-z
x,y,-z
-x,y,z
x,-y,z
1/2+x,1/2+y,z
1/2-x,1/2-y,z
1/2+x,1/2-y,-z
1/2-x,1/2+y,-z
1/2-x,1/2-y,-z
1/2+x,1/2+y,-z
1/2-x,1/2+y,z
1/2+x,1/2-y,z
loop_
_atom_site_type_symbol
_atom_site_label
_atom_site_fract_x
_atom_site_fract_y
_atom_site_fract_z
Si Si1 0.894479 0.113698 0.760632
Si Si2 0.938215 0.689269 0.240175
Si Si3 0.164975 0.615013 0.626021
Si Si4 0.562174 0.612075 0.000000
Si Si5 0.100175 0.614339 0.000000
Si Si6 0.267264 0.140969 0.000000
Si Si7 0.271095 0.608482 0.246434
O O1 0.934856 0.198455 0.724595
O O2 0.832504 0.144683 0.731640
O O3 0.904332 0.000000 0.735095
O O4 0.901674 0.126614 0.892257
O O5 0.890721 0.640331 0.310969
O O6 0.923557 0.664411 0.111095
O O7 0.000000 0.654824 0.260357
O O8 0.165333 0.650105 0.500000
O O9 0.167978 0.500000 0.624448
O O10 0.218434 0.651759 0.692788
O O11 0.552253 0.500000 0.000000
O O12 0.500000 0.656393 0.000000
O O13 0.166869 0.625196 0.000000
O O14 0.088092 0.500000 0.000000
O O15 0.250000 0.250000 0.000000
O O16 0.242193 0.104804 0.115521
O O17 0.274880 0.500000 0.286518
#
# Coordination Sequence:
#
# PCOD9490880 Si02
#       7
#    16  16  16   8   8   8  16
#     4  10  21  37  59  90 128 167 210 258 311 376
#     4  12  25  40  62  92 127 169 217 264 319 389
#     4  10  23  44  68  92 120 159 211 268 324 386
#     4   9  16  29  51  80 120 169 209 242 286 347
#     4  12  24  40  60  90 133 173 209 259 324 389
#     4  12  21  32  59  91 129 166 200 241 301 383
#     4  10  20  37  61  90 125 164 204 251 316 380
#
# _framework density 21.412528999999999
#
# number of rings (size 3 to 8) (size 9 to 14) (size 15 to 20)
#    0.000    1.364    1.818    4.364    0.000    4.727 
#    0.000    2.727    0.000    1.636    0.000    1.273 
#    0.000    0.000    0.000    0.000    0.000    0.000 
#
# Total GULP energy -245374.113126 kJ/mol
# GULP energy per Si atom -5576.684389 kJ/mol
# Density = 2.136379 g / cm^3
# Si number density = 21.412529 Si / 1000 Ang^3
#
#
#
# Elastic Constant Matrix: (Units=GPa)
#
#
# Indices 1 2 3 4 5 6 
#
# 1 151.5363 22.2944 38.8889 0.0000 0.0000 0.0000
# 2 22.2944 104.7332 6.3600 0.0000 0.0000 0.0000
# 3 38.8889 6.3600 86.3219 0.0000 0.0000 0.0000
# 4 0.0000 0.0000 0.0000 340.7727 0.0000 0.0000
# 5 0.0000 0.0000 0.0000 0.0000 -4.7081 0.0000
# 6 0.0000 0.0000 0.0000 0.0000 0.0000 10.6881
#
#
#
# Elastic Compliance Matrix: (Units=1/GPa)
#
#
# Indices 1 2 3 4 5 6 
#
# 1 0.007669 -0.001429 -0.003350 0.000000 0.000000 0.000000
# 2 -0.001429 0.009857 -0.000082 0.000000 0.000000 0.000000
# 3 -0.003350 -0.000082 0.013100 0.000000 0.000000 0.000000
# 4 0.000000 0.000000 0.000000 0.002935 0.000000 0.000000
# 5 0.000000 0.000000 0.000000 0.000000 -0.212398 0.000000
# 6 0.000000 0.000000 0.000000 0.000000 0.000000 0.093562
#
#
# Mechanical properties :
#
#
# Convention : Reuss Voigt Hill
#
# Bulk Modulus (GPa) = 47.83874 53.07534 50.45704
# Shear Modulus (GPa) = -72.90195 87.68706 7.39256
#
# Velocity S-wave (km/s) = -5.84126 6.40626 1.86009
# Velocity P-wave (km/s) = 4.80664 8.91970 5.31307
#
# Compressibility (1/GPa) = 0.02090356
#
# Stress axis : x y z
#
# Youngs Moduli (GPa) = 130.39587 101.44789 76.33774
#
# Poissons Ratio (x) = 0.14498 0.25571
# Poissons Ratio (y) = 0.18634 0.00629
# Poissons Ratio (z) = 0.43678 0.00836
#
# Static dielectric constant tensor:
#      x y z
#    x 1.773320 0.000000 0.000000 
#    y 0.000000 1.867500 0.000000 
#    z 0.000000 0.000000 1.740410 
# 
# From -- ./inp_files/30563.got.cif
#   From: 2010.05.17/outbox.cif.g08.bks.cpg/sg65_16_cif.got.tgz:30563.got - 2010.06.03 17:01:31.
