data_PCOD9490659
_publ_section_title
;
Structure prediction by ZEFSAII (Michael W. Deem and Ramdas Pophale) SiO2 
 PCOD9490659
Probable space group: C M M M
;
_chemical_formula_sum "Si O2"
_cell_formula_units_Z 68
_cell_length_a 27.441100
_cell_length_b 16.084226
_cell_length_c 8.079005
_cell_angle_alpha 90.000000
_cell_angle_beta 90.000000
_cell_angle_gamma 90.000000
_cell_volume 3565.821179
_symmetry_space_group_name_H-M "C M M M"
_symmetry_group_IT_number 65
_symmetry_cell_setting 'orthorhombic'
loop_
_space_group_symop_operation_xyz
x,y,z
-x,-y,z
x,-y,-z
-x,y,-z
-x,-y,-z
x,y,-z
-x,y,z
x,-y,z
1/2+x,1/2+y,z
1/2-x,1/2-y,z
1/2+x,1/2-y,-z
1/2-x,1/2+y,-z
1/2-x,1/2-y,-z
1/2+x,1/2+y,-z
1/2-x,1/2+y,z
1/2+x,1/2-y,z
loop_
_atom_site_type_symbol
_atom_site_label
_atom_site_fract_x
_atom_site_fract_y
_atom_site_fract_z
Si Si1 0.160919 0.000000 0.000000
Si Si2 0.094436 0.402215 0.802618
Si Si3 0.240945 0.149272 0.000000
Si Si4 0.500000 0.383999 0.193795
Si Si5 0.585317 0.500000 0.307816
Si Si6 0.301359 0.899942 0.320009
Si Si7 0.500000 0.198459 0.695344
O O1 0.193125 0.086630 0.000000
O O2 0.126999 0.000000 0.833895
O O3 0.087833 0.500000 0.764876
O O4 0.143466 0.371475 0.714769
O O5 0.047478 0.352887 0.746151
O O6 0.101221 0.394691 0.000000
O O7 0.250000 0.250000 0.000000
O O8 0.268067 0.123757 0.832147
O O9 0.548370 0.422891 0.276013
O O10 0.500000 0.286074 0.213813
O O11 0.500000 0.406230 0.000000
O O12 0.602204 0.500000 0.500000
O O13 0.284409 0.870403 0.500000
O O14 0.303205 0.000000 0.322360
O O15 0.500000 0.212896 0.500000
#
# Coordination Sequence:
#
# PCOD9490659 Si02
#       7
#     4  16   8   8   8  16   8
#     4  12  26  47  70 100 138 173 214 280 344 378
#     4  10  20  36  59  85 122 174 222 263 317 381
#     4  12  26  44  69  96 131 168 214 276 337 400
#     4  11  21  43  70  95 132 178 213 255 321 390
#     4  11  23  45  74 102 130 170 219 262 318 392
#     4  10  20  40  68  91 122 173 221 267 329 400
#     4  12  24  34  52  94 139 171 218 274 315 374
#
# _framework density 19.069939999999999
#
# number of rings (size 3 to 8) (size 9 to 14) (size 15 to 20)
#    0.000    1.176    3.529    3.882    0.000    6.118 
#    0.000    2.353    0.000    0.000    0.000    0.000 
#    0.000    0.000    0.000    0.000    0.000    0.000 
#
# Total GULP energy -189694.062681 kJ/mol
# GULP energy per Si atom -5579.237138 kJ/mol
# Density = 1.902654 g / cm^3
# Si number density = 19.069940 Si / 1000 Ang^3
#
#
#
# Elastic Constant Matrix: (Units=GPa)
#
#
# Indices 1 2 3 4 5 6 
#
# 1 119.4586 42.8102 72.0601 0.0000 0.0000 0.0000
# 2 42.8102 63.2157 43.6778 0.0000 0.0000 0.0000
# 3 72.0601 43.6778 162.6994 0.0000 0.0000 0.0000
# 4 0.0000 0.0000 0.0000 19.1398 0.0000 0.0000
# 5 0.0000 0.0000 0.0000 0.0000 67.1673 0.0000
# 6 0.0000 0.0000 0.0000 0.0000 0.0000 14.2346
#
#
#
# Elastic Compliance Matrix: (Units=1/GPa)
#
#
# Indices 1 2 3 4 5 6 
#
# 1 0.013012 -0.005930 -0.004171 0.000000 0.000000 0.000000
# 2 -0.005930 0.022124 -0.003313 0.000000 0.000000 0.000000
# 3 -0.004171 -0.003313 0.008883 0.000000 0.000000 0.000000
# 4 0.000000 0.000000 0.000000 0.052247 0.000000 0.000000
# 5 0.000000 0.000000 0.000000 0.000000 0.014888 0.000000
# 6 0.000000 0.000000 0.000000 0.000000 0.000000 0.070251
#
#
# Mechanical properties :
#
#
# Convention : Reuss Voigt Hill
#
# Bulk Modulus (GPa) = 58.17022 73.60775 65.88899
# Shear Modulus (GPa) = 23.36836 32.56338 27.96587
#
# Velocity S-wave (km/s) = 3.50437 4.13677 3.83363
# Velocity P-wave (km/s) = 6.85157 7.84218 7.36355
#
# Compressibility (1/GPa) = 0.01719093
#
# Stress axis : x y z
#
# Youngs Moduli (GPa) = 76.84943 45.20052 112.57290
#
# Poissons Ratio (x) = 0.26804 0.46958
# Poissons Ratio (y) = 0.45572 0.37293
# Poissons Ratio (z) = 0.32056 0.14974
#
# Static dielectric constant tensor:
#      x y z
#    x 1.643720 0.000000 0.000000 
#    y 0.000000 1.675050 0.000000 
#    z 0.000000 0.000000 1.712010 
# 
# From -- ./inp_files/15739.got.cif
#   From: 2010.05.17/outbox.cif.g08.bks.cpg/sg65_8_cif.got.tgz:15739.got - 2010.06.03 17:01:31.
