data_PCOD9490694
_publ_section_title
;
Structure prediction by ZEFSAII (Michael W. Deem and Ramdas Pophale) SiO2 
 PCOD9490694
Probable space group: C M M M
;
_chemical_formula_sum "Si O2"
_cell_formula_units_Z 88
_cell_length_a 8.763097
_cell_length_b 26.420699
_cell_length_c 21.304455
_cell_angle_alpha 90.000000
_cell_angle_beta 90.000000
_cell_angle_gamma 90.000000
_cell_volume 4932.559709
_symmetry_space_group_name_H-M "C M M M"
_symmetry_group_IT_number 65
_symmetry_cell_setting 'orthorhombic'
loop_
_space_group_symop_operation_xyz
x,y,z
-x,-y,z
x,-y,-z
-x,y,-z
-x,-y,-z
x,y,-z
-x,y,z
x,-y,z
1/2+x,1/2+y,z
1/2-x,1/2-y,z
1/2+x,1/2-y,-z
1/2-x,1/2+y,-z
1/2-x,1/2-y,-z
1/2+x,1/2+y,-z
1/2-x,1/2+y,z
1/2+x,1/2-y,z
loop_
_atom_site_type_symbol
_atom_site_label
_atom_site_fract_x
_atom_site_fract_y
_atom_site_fract_z
Si Si1 0.181642 0.000000 0.356013
Si Si2 0.316245 0.195856 0.349737
Si Si3 0.684319 0.904178 0.869684
Si Si4 0.316042 0.804233 0.795895
Si Si5 0.815444 0.402951 0.426712
Si Si6 0.316143 0.000000 0.783145
Si Si7 0.817225 0.940870 0.000000
O O1 0.245058 0.950573 0.391182
O O2 0.240141 0.000000 0.284598
O O3 0.000000 0.000000 0.357485
O O4 0.500000 0.198654 0.351637
O O5 0.250000 0.250000 0.369402
O O6 0.270986 0.186884 0.276954
O O7 0.268010 0.149133 0.392908
O O8 0.500000 0.904111 0.874965
O O9 0.732713 0.851101 0.838888
O O10 0.725433 0.950314 0.823177
O O11 0.754395 0.914774 0.937415
O O12 0.500000 0.801893 0.797510
O O13 0.250000 0.750000 0.815354
O O14 0.774092 0.403049 0.500000
O O15 0.000000 0.406430 0.422352
O O16 0.500000 0.000000 0.774904
O O17 0.000000 0.939417 0.000000
O O18 0.768407 0.000000 0.000000
#
# Coordination Sequence:
#
# PCOD9490694 Si02
#       7
#     8  16  16  16  16   8   8
#     4  12  25  37  53  80 112 143 179 231 286 331
#     4   9  18  34  56  82 111 140 178 226 277 328
#     4  10  20  36  60  84 107 143 189 225 260 315
#     4   9  18  33  54  80 108 140 178 223 269 318
#     4  10  21  38  58  77 104 147 191 227 270 332
#     4  10  20  36  60  84 107 138 180 229 272 324
#     4  11  23  37  54  81 120 151 174 216 275 328
#
# _framework density 17.840634999999999
#
# number of rings (size 3 to 8) (size 9 to 14) (size 15 to 20)
#    0.000    2.091    0.909    2.455    0.000    7.273 
#    0.000    4.091    0.000    0.000    0.000    0.000 
#    0.000    0.000    0.000    0.000    0.000    0.000 
#
# Total GULP energy -245710.453716 kJ/mol
# GULP energy per Si atom -5584.328494 kJ/mol
# Density = 1.780003 g / cm^3
# Si number density = 17.840635 Si / 1000 Ang^3
#
#
#
# Elastic Constant Matrix: (Units=GPa)
#
#
# Indices 1 2 3 4 5 6 
#
# 1 17.3857 45.9294 46.0052 0.0000 0.0000 0.0000
# 2 45.9294 196.1235 129.5742 0.0000 0.0000 0.0000
# 3 46.0052 129.5742 167.6418 0.0000 0.0000 0.0000
# 4 0.0000 0.0000 0.0000 -103.8266 0.0000 0.0000
# 5 0.0000 0.0000 0.0000 0.0000 8.7751 0.0000
# 6 0.0000 0.0000 0.0000 0.0000 0.0000 30.5599
#
#
#
# Elastic Compliance Matrix: (Units=1/GPa)
#
#
# Indices 1 2 3 4 5 6 
#
# 1 0.274723 -0.029687 -0.052445 0.000000 0.000000 0.000000
# 2 -0.029687 0.013628 -0.002386 0.000000 0.000000 0.000000
# 3 -0.052445 -0.002386 0.022202 0.000000 0.000000 0.000000
# 4 0.000000 0.000000 0.000000 -0.009631 0.000000 0.000000
# 5 0.000000 0.000000 0.000000 0.000000 0.113959 0.000000
# 6 0.000000 0.000000 0.000000 0.000000 0.000000 0.032723
#
#
# Mechanical properties :
#
#
# Convention : Reuss Voigt Hill
#
# Bulk Modulus (GPa) = 7.06636 91.57429 49.32032
# Shear Modulus (GPa) = 7.53225 -2.25552 2.63837
#
# Velocity S-wave (km/s) = 2.05697 -1.12561 1.21740
# Velocity P-wave (km/s) = 3.10015 7.05345 5.44803
#
# Compressibility (1/GPa) = 0.14151557
#
# Stress axis : x y z
#
# Youngs Moduli (GPa) = 3.64003 73.38016 45.04136
#
# Poissons Ratio (x) = 2.17844 2.36221
# Poissons Ratio (y) = 0.10806 0.10748
# Poissons Ratio (z) = 0.19090 0.17510
#
# Static dielectric constant tensor:
#      x y z
#    x 1.602190 0.000000 0.000000 
#    y 0.000000 1.588640 0.000000 
#    z 0.000000 0.000000 1.581610 
# 
# From -- ./inp_files/59885.got.cif
#   From: 2010.05.17/outbox.cif.g08.bks.cpg/sg65_30_cif.got.tgz:59885.got - 2010.06.03 17:01:31.
