data_PCOD9490361
_publ_section_title
;
Structure prediction by ZEFSAII (Michael W. Deem and Ramdas Pophale) SiO2 
 PCOD9490361
Probable space group: C M M M
;
_chemical_formula_sum "Si O2"
_cell_formula_units_Z 72
_cell_length_a 7.681255
_cell_length_b 29.253090
_cell_length_c 16.742754
_cell_angle_alpha 90.000000
_cell_angle_beta 90.000000
_cell_angle_gamma 90.000000
_cell_volume 3762.104255
_symmetry_space_group_name_H-M "C M M M"
_symmetry_group_IT_number 65
_symmetry_cell_setting 'orthorhombic'
loop_
_space_group_symop_operation_xyz
x,y,z
-x,-y,z
x,-y,-z
-x,y,-z
-x,-y,-z
x,y,-z
-x,y,z
x,-y,z
1/2+x,1/2+y,z
1/2-x,1/2-y,z
1/2+x,1/2-y,-z
1/2-x,1/2+y,-z
1/2-x,1/2-y,-z
1/2+x,1/2+y,-z
1/2-x,1/2+y,z
1/2+x,1/2-y,z
loop_
_atom_site_type_symbol
_atom_site_label
_atom_site_fract_x
_atom_site_fract_y
_atom_site_fract_z
Si Si1 0.203365 0.605069 0.163841
Si Si2 0.706579 0.800893 0.239079
Si Si3 0.500000 0.450152 0.752785
Si Si4 0.208830 0.662227 0.410362
Si Si5 0.000000 0.084610 0.413467
Si Si6 0.790024 0.053993 0.000000
O O1 0.260753 0.657661 0.180575
O O2 0.328765 0.575934 0.219553
O O3 0.000000 0.601410 0.185171
O O4 0.228231 0.582796 0.076844
O O5 0.500000 0.803223 0.241855
O O6 0.750000 0.750000 0.212300
O O7 0.764079 0.809516 0.331330
O O8 0.500000 0.500000 0.790254
O O9 0.500000 0.449931 0.658309
O O10 0.237495 0.682609 0.500000
O O11 0.330397 0.617493 0.407493
O O12 0.000000 0.652968 0.404465
O O13 0.000000 0.062808 0.500000
O O14 0.000000 0.053661 0.000000
O O15 0.733998 0.000000 0.000000
#
# Coordination Sequence:
#
# PCOD9490361 Si02
#       6
#    16  16   8  16   8   8
#     4  11  24  43  63  91 128 162 201 252 309 371
#     4  10  22  36  59  88 118 163 207 249 305 363
#     4  12  24  38  64  92 123 163 208 260 310 364
#     4   9  18  34  54  81 116 156 202 254 306 362
#     4  10  20  35  59  83 118 166 205 253 312 356
#     4  11  23  41  68  98 124 155 197 250 314 369
#
# _framework density 19.138226
#
# number of rings (size 3 to 8) (size 9 to 14) (size 15 to 20)
#    0.000    1.667    3.333    1.000    3.111    2.889 
#    0.000    0.556    0.000    0.000    0.000    4.667 
#    0.000    0.000    0.000    0.000    0.000    0.000 
#
# Total GULP energy -200628.614324 kJ/mol
# GULP energy per Si atom -5573.017065 kJ/mol
# Density = 1.909467 g / cm^3
# Si number density = 19.138226 Si / 1000 Ang^3
#
#
#
# Elastic Constant Matrix: (Units=GPa)
#
#
# Indices 1 2 3 4 5 6 
#
# 1 77.5625 35.7348 21.8546 0.0000 0.0000 0.0000
# 2 35.7348 157.5442 69.5351 0.0000 0.0000 0.0000
# 3 21.8546 69.5351 124.1828 0.0000 0.0000 0.0000
# 4 0.0000 0.0000 0.0000 -6.1715 0.0000 0.0000
# 5 0.0000 0.0000 0.0000 0.0000 38.7656 0.0000
# 6 0.0000 0.0000 0.0000 0.0000 0.0000 16.9460
#
#
#
# Elastic Compliance Matrix: (Units=1/GPa)
#
#
# Indices 1 2 3 4 5 6 
#
# 1 0.014480 -0.002869 -0.000942 0.000000 0.000000 0.000000
# 2 -0.002869 0.008999 -0.004534 0.000000 0.000000 0.000000
# 3 -0.000942 -0.004534 0.010757 0.000000 0.000000 0.000000
# 4 0.000000 0.000000 0.000000 -0.162034 0.000000 0.000000
# 5 0.000000 0.000000 0.000000 0.000000 0.025796 0.000000
# 6 0.000000 0.000000 0.000000 0.000000 0.000000 0.059011
#
#
# Mechanical properties :
#
#
# Convention : Reuss Voigt Hill
#
# Bulk Modulus (GPa) = 56.99047 68.17095 62.58071
# Shear Modulus (GPa) = -244.48138 25.38567 -109.54786
#
# Velocity S-wave (km/s) = -11.31470 3.64598 -7.57394
# Velocity P-wave (km/s) = 11.86817 7.30903 6.61179
#
# Compressibility (1/GPa) = 0.01754679
#
# Stress axis : x y z
#
# Youngs Moduli (GPa) = 69.06131 111.11865 92.95956
#
# Poissons Ratio (x) = 0.31876 0.08757
# Poissons Ratio (y) = 0.19811 0.42151
# Poissons Ratio (z) = 0.06506 0.50384
#
# Static dielectric constant tensor:
#      x y z
#    x 1.642460 0.000000 0.000000 
#    y 0.000000 1.666250 0.000000 
#    z 0.000000 0.000000 1.710400 
# 
# From -- ./inp_files/36688.got.cif
#   From: 2010.05.17/outbox.cif.g08.bks.cpg/sg65_19_cif.got.tgz:36688.got - 2010.06.03 17:01:31.
