data_PCOD9490391
_publ_section_title
;
Structure prediction by ZEFSAII (Michael W. Deem and Ramdas Pophale) SiO2 
 PCOD9490391
Probable space group: C M M M
;
_chemical_formula_sum "Si O2"
_cell_formula_units_Z 56
_cell_length_a 13.489424
_cell_length_b 13.402456
_cell_length_c 13.879759
_cell_angle_alpha 90.000000
_cell_angle_beta 90.000000
_cell_angle_gamma 90.000000
_cell_volume 2509.341223
_symmetry_space_group_name_H-M "C M M M"
_symmetry_group_IT_number 65
_symmetry_cell_setting 'orthorhombic'
loop_
_space_group_symop_operation_xyz
x,y,z
-x,-y,z
x,-y,-z
-x,y,-z
-x,-y,-z
x,y,-z
-x,y,z
x,-y,z
1/2+x,1/2+y,z
1/2-x,1/2-y,z
1/2+x,1/2-y,-z
1/2-x,1/2+y,-z
1/2-x,1/2-y,-z
1/2+x,1/2+y,-z
1/2-x,1/2+y,z
1/2+x,1/2-y,z
loop_
_atom_site_type_symbol
_atom_site_label
_atom_site_fract_x
_atom_site_fract_y
_atom_site_fract_z
Si Si1 0.685923 0.114090 0.301590
Si Si2 0.500000 0.386252 0.882676
Si Si3 0.284379 0.619999 0.890136
Si Si4 0.890868 0.183770 0.384473
O O1 0.701856 0.140558 0.189158
O O2 0.797800 0.123115 0.343683
O O3 0.624630 0.200924 0.352889
O O4 0.650616 0.000000 0.312311
O O5 0.500000 0.500000 0.845973
O O6 0.606790 0.340226 0.859805
O O7 0.500000 0.391319 0.000000
O O8 0.295050 0.500000 0.890003
O O9 0.260814 0.647126 0.000000
O O10 0.886571 0.178727 0.500000
O O11 0.000000 0.149023 0.352652
#
# Coordination Sequence:
#
# PCOD9490391 Si02
#       4
#    16   8  16  16
#     4  10  20  35  60  86 108 142 187 227 266 326
#     4   7  10  18  34  62 101 137 166 199 245 301
#     4   8  14  25  45  76 111 143 175 216 264 314
#     4  10  23  41  56  77 113 146 177 230 289 331
#
# _framework density 22.316614999999999
#
# number of rings (size 3 to 8) (size 9 to 14) (size 15 to 20)
#    0.000    3.000    0.000    3.429    2.000    3.429 
#    0.000    5.714    0.000    2.571    0.000    4.000 
#    0.000    0.000    0.000    0.000    0.000    0.000 
#
# Total GULP energy -156295.153450 kJ/mol
# GULP energy per Si atom -5581.969766 kJ/mol
# Density = 2.226582 g / cm^3
# Si number density = 22.316615 Si / 1000 Ang^3
#
#
#
# Elastic Constant Matrix: (Units=GPa)
#
#
# Indices 1 2 3 4 5 6 
#
# 1 37.0334 2.3089 12.5402 0.0000 0.0000 0.0000
# 2 2.3089 100.7706 -2.5359 0.0000 0.0000 0.0000
# 3 12.5402 -2.5359 89.0351 0.0000 0.0000 0.0000
# 4 0.0000 0.0000 0.0000 20.2117 0.0000 0.0000
# 5 0.0000 0.0000 0.0000 0.0000 29.2044 0.0000
# 6 0.0000 0.0000 0.0000 0.0000 0.0000 3.1505
#
#
#
# Elastic Compliance Matrix: (Units=1/GPa)
#
#
# Indices 1 2 3 4 5 6 
#
# 1 0.028412 -0.000752 -0.004023 0.000000 0.000000 0.000000
# 2 -0.000752 0.009951 0.000389 0.000000 0.000000 0.000000
# 3 -0.004023 0.000389 0.011809 0.000000 0.000000 0.000000
# 4 0.000000 0.000000 0.000000 0.049476 0.000000 0.000000
# 5 0.000000 0.000000 0.000000 0.000000 0.034241 0.000000
# 6 0.000000 0.000000 0.000000 0.000000 0.000000 0.317413
#
#
# Mechanical properties :
#
#
# Convention : Reuss Voigt Hill
#
# Bulk Modulus (GPa) = 24.15475 27.94061 26.04768
# Shear Modulus (GPa) = 10.55133 24.81503 17.68318
#
# Velocity S-wave (km/s) = 2.17676 3.33821 2.81797
# Velocity P-wave (km/s) = 4.14305 5.23503 4.72072
#
# Compressibility (1/GPa) = 0.04139972
#
# Stress axis : x y z
#
# Youngs Moduli (GPa) = 35.19654 100.49685 84.67929
#
# Poissons Ratio (x) = 0.07560 0.34068
# Poissons Ratio (y) = 0.02648 -0.03297
# Poissons Ratio (z) = 0.14160 -0.03913
#
# Static dielectric constant tensor:
#      x y z
#    x 1.845510 0.000000 0.000000 
#    y 0.000000 1.812190 0.000000 
#    z 0.000000 0.000000 1.849240 
# 
# From -- ./inp_files/39419.got.cif
#   From: 2010.05.17/outbox.cif.g08.bks.cpg/sg65_20_cif.got.tgz:39419.got - 2010.06.03 17:01:31.
