data_PCOD9490435
_publ_section_title
;
Structure prediction by ZEFSAII (Michael W. Deem and Ramdas Pophale) SiO2 
 PCOD9490435
Probable space group: C M M M
;
_chemical_formula_sum "Si O2"
_cell_formula_units_Z 104
_cell_length_a 22.445053
_cell_length_b 18.976113
_cell_length_c 13.901367
_cell_angle_alpha 90.000000
_cell_angle_beta 90.000000
_cell_angle_gamma 90.000000
_cell_volume 5920.868315
_symmetry_space_group_name_H-M "C M M M"
_symmetry_group_IT_number 65
_symmetry_cell_setting 'orthorhombic'
loop_
_space_group_symop_operation_xyz
x,y,z
-x,-y,z
x,-y,-z
-x,y,-z
-x,-y,-z
x,y,-z
-x,y,z
x,-y,z
1/2+x,1/2+y,z
1/2-x,1/2-y,z
1/2+x,1/2-y,-z
1/2-x,1/2+y,-z
1/2-x,1/2-y,-z
1/2+x,1/2+y,-z
1/2-x,1/2+y,z
1/2+x,1/2-y,z
loop_
_atom_site_type_symbol
_atom_site_label
_atom_site_fract_x
_atom_site_fract_y
_atom_site_fract_z
Si Si1 0.118191 0.661915 0.886166
Si Si2 0.429800 0.703171 0.207335
Si Si3 0.730312 0.917282 0.199460
Si Si4 0.834187 0.581132 0.388166
Si Si5 0.000000 0.580751 0.882451
Si Si6 0.569074 0.202672 0.612245
Si Si7 0.359507 0.584204 0.113879
O O1 0.107588 0.741923 0.856387
O O2 0.178017 0.628563 0.846014
O O3 0.059716 0.619897 0.850033
O O4 0.119435 0.655417 0.000000
O O5 0.500000 0.709642 0.185842
O O6 0.420597 0.731999 0.315809
O O7 0.406742 0.626867 0.177389
O O8 0.720211 0.909302 0.314007
O O9 0.794306 0.898223 0.156930
O O10 0.720407 0.000000 0.175949
O O11 0.817126 0.588890 0.500000
O O12 0.855782 0.500000 0.375090
O O13 0.885393 0.638686 0.367442
O O14 0.000000 0.500000 0.851614
O O15 0.000000 0.581968 0.000000
O O16 0.576450 0.221989 0.500000
O O17 0.500000 0.180172 0.625398
O O18 0.367485 0.500000 0.121868
O O19 0.363006 0.602133 0.000000
#
# Coordination Sequence:
#
# PCOD9490435 Si02
#       7
#    16  16  16  16   8  16  16
#     4  11  20  31  49  76 109 147 185 221 269 324
#     4  11  22  38  59  83 112 143 180 233 290 340
#     4  10  20  36  55  78 112 151 188 228 274 327
#     4   9  17  31  53  81 114 152 193 234 272 316
#     4   9  18  30  44  68 104 146 188 219 252 314
#     4   9  18  34  55  80 113 151 189 229 276 328
#     4  10  23  42  62  83 107 141 187 237 288 343
#
# _framework density 17.564990999999999
#
# number of rings (size 3 to 8) (size 9 to 14) (size 15 to 20)
#    0.000    2.077    2.308    1.385    0.000    3.692 
#    0.000    4.615    0.000    3.231    0.000    2.154 
#    0.000    0.000    0.000    0.000    0.000    0.000 
#
# Total GULP energy -290004.865085 kJ/mol
# GULP energy per Si atom -5577.016636 kJ/mol
# Density = 1.752501 g / cm^3
# Si number density = 17.564991 Si / 1000 Ang^3
#
#
#
# Elastic Constant Matrix: (Units=GPa)
#
#
# Indices 1 2 3 4 5 6 
#
# 1 45.6604 25.2361 27.8384 0.0000 0.0000 0.0000
# 2 25.2361 49.2281 28.8468 0.0000 0.0000 0.0000
# 3 27.8384 28.8468 95.0903 0.0000 0.0000 0.0000
# 4 0.0000 0.0000 0.0000 27.7952 0.0000 0.0000
# 5 0.0000 0.0000 0.0000 0.0000 24.3030 0.0000
# 6 0.0000 0.0000 0.0000 0.0000 0.0000 32.7095
#
#
#
# Elastic Compliance Matrix: (Units=1/GPa)
#
#
# Indices 1 2 3 4 5 6 
#
# 1 0.032738 -0.013581 -0.005465 0.000000 0.000000 0.000000
# 2 -0.013581 0.030339 -0.005228 0.000000 0.000000 0.000000
# 3 -0.005465 -0.005228 0.013702 0.000000 0.000000 0.000000
# 4 0.000000 0.000000 0.000000 0.035977 0.000000 0.000000
# 5 0.000000 0.000000 0.000000 0.000000 0.041147 0.000000
# 6 0.000000 0.000000 0.000000 0.000000 0.000000 0.030572
#
#
# Mechanical properties :
#
#
# Convention : Reuss Voigt Hill
#
# Bulk Modulus (GPa) = 35.41927 39.31347 37.36637
# Shear Modulus (GPa) = 20.62420 24.16537 22.39479
#
# Velocity S-wave (km/s) = 3.43033 3.71316 3.57454
# Velocity P-wave (km/s) = 5.99149 6.38856 6.19321
#
# Compressibility (1/GPa) = 0.02823322
#
# Stress axis : x y z
#
# Youngs Moduli (GPa) = 30.54513 32.96084 72.98185
#
# Poissons Ratio (x) = 0.44763 0.39881
# Poissons Ratio (y) = 0.41483 0.38154
# Poissons Ratio (z) = 0.16691 0.17231
#
# Static dielectric constant tensor:
#      x y z
#    x 1.574830 0.000000 0.000000 
#    y 0.000000 1.602800 0.000000 
#    z 0.000000 0.000000 1.627610 
# 
# From -- ./inp_files/44400.got.cif
#   From: 2010.05.17/outbox.cif.g08.bks.cpg/sg65_23_cif.got.tgz:44400.got - 2010.06.03 17:01:31.
