data_PCOD9490039
_publ_section_title
;
Structure prediction by ZEFSAII (Michael W. Deem and Ramdas Pophale) SiO2 
 PCOD9490039
Probable space group: C M M M
;
_chemical_formula_sum "Si O2"
_cell_formula_units_Z 104
_cell_length_a 7.984447
_cell_length_b 28.250822
_cell_length_c 23.235784
_cell_angle_alpha 90.000000
_cell_angle_beta 90.000000
_cell_angle_gamma 90.000000
_cell_volume 5241.230527
_symmetry_space_group_name_H-M "C M M M"
_symmetry_group_IT_number 65
_symmetry_cell_setting 'orthorhombic'
loop_
_space_group_symop_operation_xyz
x,y,z
-x,-y,z
x,-y,-z
-x,y,-z
-x,-y,-z
x,y,-z
-x,y,z
x,-y,z
1/2+x,1/2+y,z
1/2-x,1/2-y,z
1/2+x,1/2-y,-z
1/2-x,1/2+y,-z
1/2-x,1/2-y,-z
1/2+x,1/2+y,-z
1/2-x,1/2+y,z
1/2+x,1/2-y,z
loop_
_atom_site_type_symbol
_atom_site_label
_atom_site_fract_x
_atom_site_fract_y
_atom_site_fract_z
Si Si1 0.196974 0.894523 0.754065
Si Si2 0.299829 0.696247 0.567480
Si Si3 0.201070 0.303689 0.821124
Si Si4 0.797337 0.946373 0.870371
Si Si5 0.500000 0.556431 0.565641
Si Si6 0.684839 0.103295 0.626599
Si Si7 0.799712 0.646061 0.936215
O O1 0.221759 0.841192 0.776953
O O2 0.253766 0.927867 0.806935
O O3 0.293451 0.901346 0.694961
O O4 0.000000 0.903236 0.743651
O O5 0.256074 0.688361 0.500000
O O6 0.500000 0.690829 0.573378
O O7 0.250000 0.750000 0.581619
O O8 0.210937 0.657649 0.606983
O O9 0.250000 0.250000 0.809626
O O10 0.261413 0.319997 0.884844
O O11 0.000000 0.308659 0.818895
O O12 0.736592 0.907454 0.915760
O O13 0.000000 0.945712 0.871356
O O14 0.740870 0.000000 0.880950
O O15 0.500000 0.500000 0.565842
O O16 0.500000 0.574171 0.500000
O O17 0.334386 0.575162 0.596588
O O18 0.500000 0.087368 0.608911
O O19 0.000000 0.651819 0.938542
O O20 0.731004 0.655215 0.000000
#
# Coordination Sequence:
#
# PCOD9490039 Si02
#       7
#    16  16  16  16   8  16  16
#     4  10  20  38  59  85 117 154 194 244 303 364
#     4  10  20  36  59  90 126 162 201 246 300 365
#     4  10  20  35  55  81 114 155 200 247 301 359
#     4   9  19  35  56  81 109 144 185 236 298 357
#     4  11  26  48  70  94 128 170 215 265 318 372
#     4  12  24  41  66  96 128 166 211 261 316 378
#     4   9  19  35  53  76 110 150 194 243 293 353
#
# _framework density 19.842668
#
# number of rings (size 3 to 8) (size 9 to 14) (size 15 to 20)
#    0.000    1.923    1.538    1.846    0.000    5.846 
#    0.000    5.385    0.000    0.000    0.000    0.000 
#    0.000    0.000    0.000    0.000    0.000    0.000 
#
# Total GULP energy -290523.877770 kJ/mol
# GULP energy per Si atom -5586.997649 kJ/mol
# Density = 1.979751 g / cm^3
# Si number density = 19.842668 Si / 1000 Ang^3
#
#
#
# Elastic Constant Matrix: (Units=GPa)
#
#
# Indices 1 2 3 4 5 6 
#
# 1 76.3362 0.9894 24.0332 0.0000 0.0000 0.0000
# 2 0.9894 37.5211 -14.7922 0.0000 0.0000 0.0000
# 3 24.0332 -14.7922 70.1714 0.0000 0.0000 0.0000
# 4 0.0000 0.0000 0.0000 17.0639 0.0000 0.0000
# 5 0.0000 0.0000 0.0000 0.0000 35.1534 0.0000
# 6 0.0000 0.0000 0.0000 0.0000 0.0000 22.5591
#
#
#
# Elastic Compliance Matrix: (Units=1/GPa)
#
#
# Indices 1 2 3 4 5 6 
#
# 1 0.014917 -0.002626 -0.005662 0.000000 0.000000 0.000000
# 2 -0.002626 0.029530 0.007124 0.000000 0.000000 0.000000
# 3 -0.005662 0.007124 0.017692 0.000000 0.000000 0.000000
# 4 0.000000 0.000000 0.000000 0.058603 0.000000 0.000000
# 5 0.000000 0.000000 0.000000 0.000000 0.028447 0.000000
# 6 0.000000 0.000000 0.000000 0.000000 0.000000 0.044328
#
#
# Mechanical properties :
#
#
# Convention : Reuss Voigt Hill
#
# Bulk Modulus (GPa) = 16.71951 22.72105 19.72028
# Shear Modulus (GPa) = 23.17169 26.54184 24.85676
#
# Velocity S-wave (km/s) = 3.42097 3.66131 3.54318
# Velocity P-wave (km/s) = 4.90392 5.41748 5.16708
#
# Compressibility (1/GPa) = 0.05981035
#
# Stress axis : x y z
#
# Youngs Moduli (GPa) = 67.03915 33.86443 56.52307
#
# Poissons Ratio (x) = 0.08892 0.32005
# Poissons Ratio (y) = 0.17602 -0.40268
# Poissons Ratio (z) = 0.37960 -0.24125
#
# Static dielectric constant tensor:
#      x y z
#    x 1.707830 0.000000 0.000000 
#    y 0.000000 1.671900 0.000000 
#    z 0.000000 0.000000 1.693450 
# 
# From -- ./inp_files/60924.got.cif
#   From: 2010.05.17/outbox.cif.g08.bks.cpg/sg65_31_cif.got.tgz:60924.got - 2010.06.03 17:01:31.
