data_PCOD9490582
_publ_section_title
;
Structure prediction by ZEFSAII (Michael W. Deem and Ramdas Pophale) SiO2 
 PCOD9490582
Probable space group: C M M M
;
_chemical_formula_sum "Si O2"
_cell_formula_units_Z 72
_cell_length_a 27.968470
_cell_length_b 18.212657
_cell_length_c 7.551478
_cell_angle_alpha 90.000000
_cell_angle_beta 90.000000
_cell_angle_gamma 90.000000
_cell_volume 3846.573003
_symmetry_space_group_name_H-M "C M M M"
_symmetry_group_IT_number 65
_symmetry_cell_setting 'orthorhombic'
loop_
_space_group_symop_operation_xyz
x,y,z
-x,-y,z
x,-y,-z
-x,y,-z
-x,-y,-z
x,y,-z
-x,y,z
x,-y,z
1/2+x,1/2+y,z
1/2-x,1/2-y,z
1/2+x,1/2-y,-z
1/2-x,1/2+y,-z
1/2-x,1/2-y,-z
1/2+x,1/2+y,-z
1/2-x,1/2+y,z
1/2+x,1/2-y,z
loop_
_atom_site_type_symbol
_atom_site_label
_atom_site_fract_x
_atom_site_fract_y
_atom_site_fract_z
Si Si1 0.601362 0.189161 0.206566
Si Si2 0.442982 0.087187 0.500000
Si Si3 0.553313 0.657850 0.285188
Si Si4 0.697749 0.732724 0.790392
Si Si5 0.149386 0.081247 0.286259
O O1 0.580427 0.125995 0.329586
O O2 0.567529 0.260865 0.222193
O O3 0.653143 0.218283 0.274551
O O4 0.604543 0.168184 0.000000
O O5 0.500000 0.101170 0.500000
O O6 0.435255 0.000000 0.500000
O O7 0.553783 0.659442 0.500000
O O8 0.500000 0.637583 0.227957
O O9 0.595896 0.604045 0.227825
O O10 0.750000 0.750000 0.715456
O O11 0.683688 0.647771 0.766729
O O12 0.699301 0.747428 0.000000
O O13 0.149058 0.079933 0.500000
O O14 0.162361 0.000000 0.222958
#
# Coordination Sequence:
#
# PCOD9490582 Si02
#       5
#    16   8  16  16  16
#     4  10  20  36  58  82 109 141 183 231 276 330
#     4  11  24  40  57  80 111 145 184 231 288 346
#     4   9  16  28  49  75 105 143 181 214 253 307
#     4   9  19  36  58  81 103 138 185 226 271 327
#     4   9  18  31  47  74 110 141 173 213 259 312
#
# _framework density 18.717960000000001
#
# number of rings (size 3 to 8) (size 9 to 14) (size 15 to 20)
#    0.000    2.556    1.111    0.667    1.556    3.556 
#    0.000    4.444    0.000    4.000    0.000    6.222 
#    0.000    0.000    0.000    0.000    0.000    0.000 
#
# Total GULP energy -200832.176884 kJ/mol
# GULP energy per Si atom -5578.671580 kJ/mol
# Density = 1.867536 g / cm^3
# Si number density = 18.717960 Si / 1000 Ang^3
#
#
#
# Elastic Constant Matrix: (Units=GPa)
#
#
# Indices 1 2 3 4 5 6 
#
# 1 148.0820 73.2568 17.2258 0.0000 0.0000 0.0000
# 2 73.2568 119.4265 26.0896 0.0000 0.0000 0.0000
# 3 17.2258 26.0896 68.1152 0.0000 0.0000 0.0000
# 4 0.0000 0.0000 0.0000 -19.4532 0.0000 0.0000
# 5 0.0000 0.0000 0.0000 0.0000 14.0207 0.0000
# 6 0.0000 0.0000 0.0000 0.0000 0.0000 9.4039
#
#
#
# Elastic Compliance Matrix: (Units=1/GPa)
#
#
# Indices 1 2 3 4 5 6 
#
# 1 0.009697 -0.005907 -0.000190 0.000000 0.000000 0.000000
# 2 -0.005907 0.012736 -0.003384 0.000000 0.000000 0.000000
# 3 -0.000190 -0.003384 0.016025 0.000000 0.000000 0.000000
# 4 0.000000 0.000000 0.000000 -0.051405 0.000000 0.000000
# 5 0.000000 0.000000 0.000000 0.000000 0.071323 0.000000
# 6 0.000000 0.000000 0.000000 0.000000 0.000000 0.106339
#
#
# Mechanical properties :
#
#
# Convention : Reuss Voigt Hill
#
# Bulk Modulus (GPa) = 51.29174 63.19645 57.24410
# Shear Modulus (GPa) = 26.29130 15.39769 20.84449
#
# Velocity S-wave (km/s) = 3.75187 2.87124 3.34070
# Velocity P-wave (km/s) = 6.79931 6.69536 6.74753
#
# Compressibility (1/GPa) = 0.01949631
#
# Stress axis : x y z
#
# Youngs Moduli (GPa) = 103.12190 78.51763 62.40127
#
# Poissons Ratio (x) = 0.46379 0.01185
# Poissons Ratio (y) = 0.60913 0.21119
# Poissons Ratio (z) = 0.01958 0.26573
#
# Static dielectric constant tensor:
#      x y z
#    x 1.669090 0.000000 0.000000 
#    y 0.000000 1.609180 0.000000 
#    z 0.000000 0.000000 1.686460 
# 
# From -- ./inp_files/15959.got.cif
#   From: 2010.05.17/outbox.cif.g08.bks.cpg/sg65_8_cif.got.tgz:15959.got - 2010.06.03 17:01:31.
