data_PCOD9490639
_publ_section_title
;
Structure prediction by ZEFSAII (Michael W. Deem and Ramdas Pophale) SiO2 
 PCOD9490639
Probable space group: C M M M
;
_chemical_formula_sum "Si O2"
_cell_formula_units_Z 64
_cell_length_a 18.999777
_cell_length_b 8.719644
_cell_length_c 20.869127
_cell_angle_alpha 90.000000
_cell_angle_beta 90.000000
_cell_angle_gamma 90.000000
_cell_volume 3457.415223
_symmetry_space_group_name_H-M "C M M M"
_symmetry_group_IT_number 65
_symmetry_cell_setting 'orthorhombic'
loop_
_space_group_symop_operation_xyz
x,y,z
-x,-y,z
x,-y,-z
-x,y,-z
-x,-y,-z
x,y,-z
-x,y,z
x,-y,z
1/2+x,1/2+y,z
1/2-x,1/2-y,z
1/2+x,1/2-y,-z
1/2-x,1/2+y,-z
1/2-x,1/2-y,-z
1/2+x,1/2+y,-z
1/2-x,1/2+y,z
1/2+x,1/2-y,z
loop_
_atom_site_type_symbol
_atom_site_label
_atom_site_fract_x
_atom_site_fract_y
_atom_site_fract_z
Si Si1 0.327132 0.815547 0.739002
Si Si2 0.171170 0.183127 0.500000
Si Si3 0.917790 0.816871 0.000000
Si Si4 0.081906 0.314281 0.617778
Si Si5 0.827511 0.315879 0.885338
O O1 0.250000 0.750000 0.723431
O O2 0.383940 0.769851 0.685928
O O3 0.345288 0.770319 0.811970
O O4 0.322272 0.000000 0.737976
O O5 0.250000 0.250000 0.500000
O O6 0.128455 0.241915 0.561792
O O7 0.174804 0.000000 0.500000
O O8 0.880824 0.748891 0.937230
O O9 0.000000 0.779069 0.000000
O O10 0.909365 0.000000 0.000000
O O11 0.085380 0.500000 0.612301
O O12 0.000000 0.270026 0.613010
O O13 0.825671 0.500000 0.889022
O O14 0.750000 0.250000 0.899082
#
# Coordination Sequence:
#
# PCOD9490639 Si02
#       5
#    16   8   8  16  16
#     4   9  19  35  57  84 111 143 183 226 271 323
#     4  12  25  40  59  83 111 145 189 234 275 324
#     4  11  24  39  54  77 111 147 184 229 280 331
#     4  10  21  38  59  84 116 150 182 222 275 329
#     4  10  20  36  59  84 111 144 184 228 273 325
#
# _framework density 18.510937999999999
#
# number of rings (size 3 to 8) (size 9 to 14) (size 15 to 20)
#    0.000    1.875    0.000    3.750    0.000    8.000 
#    0.000    2.500    0.000    0.000    0.000    0.000 
#    0.000    0.000    0.000    0.000    0.000    0.000 
#
# Total GULP energy -178785.024921 kJ/mol
# GULP energy per Si atom -5587.032029 kJ/mol
# Density = 1.846881 g / cm^3
# Si number density = 18.510938 Si / 1000 Ang^3
#
#
#
# Elastic Constant Matrix: (Units=GPa)
#
#
# Indices 1 2 3 4 5 6 
#
# 1 185.1206 67.1760 131.5517 0.0000 0.0000 0.0000
# 2 67.1760 44.7547 57.3820 0.0000 0.0000 0.0000
# 3 131.5517 57.3820 147.9246 0.0000 0.0000 0.0000
# 4 0.0000 0.0000 0.0000 77.3995 0.0000 0.0000
# 5 0.0000 0.0000 0.0000 0.0000 -21.4489 0.0000
# 6 0.0000 0.0000 0.0000 0.0000 0.0000 27.9289
#
#
#
# Elastic Compliance Matrix: (Units=1/GPa)
#
#
# Indices 1 2 3 4 5 6 
#
# 1 0.017686 -0.012694 -0.010804 0.000000 0.000000 0.000000
# 2 -0.012694 0.053564 -0.009490 0.000000 0.000000 0.000000
# 3 -0.010804 -0.009490 0.020050 0.000000 0.000000 0.000000
# 4 0.000000 0.000000 0.000000 0.012920 0.000000 0.000000
# 5 0.000000 0.000000 0.000000 0.000000 -0.046622 0.000000
# 6 0.000000 0.000000 0.000000 0.000000 0.000000 0.035805
#
#
# Mechanical properties :
#
#
# Convention : Reuss Voigt Hill
#
# Bulk Modulus (GPa) = 39.48728 98.89105 69.18917
# Shear Modulus (GPa) = 29.79398 24.88859 27.34129
#
# Velocity S-wave (km/s) = 4.01625 3.67077 3.84739
# Velocity P-wave (km/s) = 6.54868 8.45607 7.56275
#
# Compressibility (1/GPa) = 0.02532461
#
# Stress axis : x y z
#
# Youngs Moduli (GPa) = 56.54180 18.66933 49.87551
#
# Poissons Ratio (x) = 0.23698 0.53888
# Poissons Ratio (y) = 0.71772 0.47330
# Poissons Ratio (z) = 0.61090 0.17716
#
# Static dielectric constant tensor:
#      x y z
#    x 1.596860 0.000000 0.000000 
#    y 0.000000 1.623550 0.000000 
#    z 0.000000 0.000000 1.638020 
# 
# From -- ./inp_files/58787.got.cif
#   From: 2010.05.17/outbox.cif.g08.bks.cpg/sg65_30_cif.got.tgz:58787.got - 2010.06.03 17:01:31.
