data_PCOD9490181
_publ_section_title
;
Structure prediction by ZEFSAII (Michael W. Deem and Ramdas Pophale) SiO2 
 PCOD9490181
Probable space group: C M M M
;
_chemical_formula_sum "Si O2"
_cell_formula_units_Z 104
_cell_length_a 27.827431
_cell_length_b 20.382572
_cell_length_c 8.147325
_cell_angle_alpha 90.000000
_cell_angle_beta 90.000000
_cell_angle_gamma 90.000000
_cell_volume 4621.118874
_symmetry_space_group_name_H-M "C M M M"
_symmetry_group_IT_number 65
_symmetry_cell_setting 'orthorhombic'
loop_
_space_group_symop_operation_xyz
x,y,z
-x,-y,z
x,-y,-z
-x,y,-z
-x,-y,-z
x,y,-z
-x,y,z
x,-y,z
1/2+x,1/2+y,z
1/2-x,1/2-y,z
1/2+x,1/2-y,-z
1/2-x,1/2+y,-z
1/2-x,1/2-y,-z
1/2+x,1/2+y,-z
1/2-x,1/2+y,z
1/2+x,1/2-y,z
loop_
_atom_site_type_symbol
_atom_site_label
_atom_site_fract_x
_atom_site_fract_y
_atom_site_fract_z
Si Si1 0.771826 0.818715 0.808377
Si Si2 0.802971 0.574944 0.301337
Si Si3 0.000000 0.578017 0.811076
Si Si4 0.445755 0.736215 0.185246
Si Si5 0.053546 0.904025 0.688519
Si Si6 0.658192 0.571390 0.194574
Si Si7 0.097507 0.360864 0.308601
O O1 0.750000 0.750000 0.738367
O O2 0.730480 0.872992 0.788042
O O3 0.817205 0.861351 0.738767
O O4 0.782819 0.804663 0.000000
O O5 0.796651 0.580461 0.500000
O O6 0.793480 0.500000 0.254106
O O7 0.857584 0.594772 0.261690
O O8 0.048112 0.601774 0.724079
O O9 0.000000 0.500000 0.813300
O O10 0.000000 0.601898 0.000000
O O11 0.500000 0.764345 0.203583
O O12 0.442903 0.674831 0.303555
O O13 0.407168 0.792262 0.214635
O O14 0.441522 0.710491 0.000000
O O15 0.055786 0.925307 0.500000
O O16 0.101017 0.927371 0.779472
O O17 0.000000 0.920842 0.753751
O O18 0.675606 0.500000 0.261593
O O19 0.668296 0.571385 0.000000
O O20 0.101808 0.345153 0.500000
#
# Coordination Sequence:
#
# PCOD9490181 Si02
#       7
#    16  16   8  16  16  16  16
#     4  10  23  43  67  97 127 160 206 262 319 376
#     4  10  23  42  62  88 123 162 205 254 313 379
#     4  11  23  37  53  79 115 157 210 261 308 371
#     4  10  20  35  56  83 119 161 205 254 308 367
#     4  10  22  39  61  92 130 168 210 257 312 377
#     4  10  22  41  65  94 130 171 213 259 318 385
#     4  11  22  36  57  84 117 158 205 257 316 376
#
# _framework density 22.505371
#
# number of rings (size 3 to 8) (size 9 to 14) (size 15 to 20)
#    0.000    1.769    0.769    2.538    2.154    6.462 
#    0.000    1.538    0.000    0.000    0.000    0.000 
#    0.000    0.000    0.000    0.000    0.000    0.000 
#
# Total GULP energy -290348.524423 kJ/mol
# GULP energy per Si atom -5583.625470 kJ/mol
# Density = 2.245415 g / cm^3
# Si number density = 22.505371 Si / 1000 Ang^3
#
#
#
# Elastic Constant Matrix: (Units=GPa)
#
#
# Indices 1 2 3 4 5 6 
#
# 1 111.6525 35.6196 -0.2514 0.0000 0.0000 0.0000
# 2 35.6196 153.0198 10.4779 0.0000 0.0000 0.0000
# 3 -0.2514 10.4779 24.1678 0.0000 0.0000 0.0000
# 4 0.0000 0.0000 0.0000 3.1034 0.0000 0.0000
# 5 0.0000 0.0000 0.0000 0.0000 -103.1059 0.0000
# 6 0.0000 0.0000 0.0000 0.0000 0.0000 -231.5988
#
#
#
# Elastic Compliance Matrix: (Units=1/GPa)
#
#
# Indices 1 2 3 4 5 6 
#
# 1 0.009704 -0.002335 0.001113 0.000000 0.000000 0.000000
# 2 -0.002335 0.007297 -0.003188 0.000000 0.000000 0.000000
# 3 0.001113 -0.003188 0.042771 0.000000 0.000000 0.000000
# 4 0.000000 0.000000 0.000000 0.322230 0.000000 0.000000
# 5 0.000000 0.000000 0.000000 0.000000 -0.009699 0.000000
# 6 0.000000 0.000000 0.000000 0.000000 0.000000 -0.004318
#
#
# Mechanical properties :
#
#
# Convention : Reuss Voigt Hill
#
# Bulk Modulus (GPa) = 19.62609 42.28134 30.95372
# Shear Modulus (GPa) = 12.69717 -50.12064 -18.71173
#
# Velocity S-wave (km/s) = 2.37783 -4.72429 -2.88659
# Velocity P-wave (km/s) = 4.03464 3.30613 1.63522
#
# Compressibility (1/GPa) = 0.05095258
#
# Stress axis : x y z
#
# Youngs Moduli (GPa) = 103.05238 137.04386 23.38031
#
# Poissons Ratio (x) = 0.32001 -0.02603
# Poissons Ratio (y) = 0.24063 0.07453
# Poissons Ratio (z) = -0.11473 0.43688
#
# Static dielectric constant tensor:
#      x y z
#    x 1.844490 0.000000 0.000000 
#    y 0.000000 1.862470 0.000000 
#    z 0.000000 0.000000 1.818900 
# 
# From -- ./inp_files/16456.got.cif
#   From: 2010.05.17/outbox.cif.g08.bks.cpg/sg65_9_cif.got.tgz:16456.got - 2010.06.03 17:01:31.
