data_PCOD9490589
_publ_section_title
;
Structure prediction by ZEFSAII (Michael W. Deem and Ramdas Pophale) SiO2 
 PCOD9490589
Probable space group: C M M M
;
_chemical_formula_sum "Si O2"
_cell_formula_units_Z 64
_cell_length_a 35.172574
_cell_length_b 8.038039
_cell_length_c 11.031561
_cell_angle_alpha 90.000000
_cell_angle_beta 90.000000
_cell_angle_gamma 90.000000
_cell_volume 3118.826616
_symmetry_space_group_name_H-M "C M M M"
_symmetry_group_IT_number 65
_symmetry_cell_setting 'orthorhombic'
loop_
_space_group_symop_operation_xyz
x,y,z
-x,-y,z
x,-y,-z
-x,y,-z
-x,-y,-z
x,y,-z
-x,y,z
x,-y,z
1/2+x,1/2+y,z
1/2-x,1/2-y,z
1/2+x,1/2-y,-z
1/2-x,1/2+y,-z
1/2-x,1/2-y,-z
1/2+x,1/2+y,-z
1/2-x,1/2+y,z
1/2+x,1/2-y,z
loop_
_atom_site_type_symbol
_atom_site_label
_atom_site_fract_x
_atom_site_fract_y
_atom_site_fract_z
Si Si1 0.155180 0.799540 0.636664
Si Si2 0.922648 0.803945 0.749716
Si Si3 0.000000 0.686788 0.357391
Si Si4 0.705936 0.198858 0.865421
Si Si5 0.044810 0.204700 0.000000
O O1 0.164938 0.738864 0.500000
O O2 0.113543 0.735144 0.678097
O O3 0.183222 0.759225 0.747650
O O4 0.153740 0.000000 0.628438
O O5 0.932346 0.736128 0.882521
O O6 0.961968 0.779648 0.680338
O O7 0.915274 0.000000 0.764349
O O8 0.000000 0.500000 0.304018
O O9 0.000000 0.673274 0.500000
O O10 0.750000 0.250000 0.855053
O O11 0.703561 0.000000 0.866444
O O12 0.692430 0.259342 0.000000
O O13 0.000000 0.253504 0.000000
O O14 0.044164 0.000000 0.000000
#
# Coordination Sequence:
#
# PCOD9490589 Si02
#       5
#    16  16   8  16   8
#     4  10  22  38  59  90 122 155 198 243 292 351
#     4  10  20  36  58  82 111 148 193 240 286 344
#     4  11  23  36  51  74 108 151 194 239 294 345
#     4  10  22  41  65  92 121 155 195 237 288 349
#     4   9  16  30  54  84 109 136 185 242 291 338
#
# _framework density 20.520537999999998
#
# number of rings (size 3 to 8) (size 9 to 14) (size 15 to 20)
#    0.000    2.000    1.250    1.875    1.750    5.500 
#    0.000    1.250    0.000    0.000    0.000    0.000 
#    0.000    0.000    0.000    0.000    0.000    0.000 
#
# Total GULP energy -178480.718352 kJ/mol
# GULP energy per Si atom -5577.522449 kJ/mol
# Density = 2.047383 g / cm^3
# Si number density = 20.520538 Si / 1000 Ang^3
#
#
#
# Elastic Constant Matrix: (Units=GPa)
#
#
# Indices 1 2 3 4 5 6 
#
# 1 103.6896 0.1883 90.6305 0.0000 0.0000 0.0000
# 2 0.1883 15.2937 19.1161 0.0000 0.0000 0.0000
# 3 90.6305 19.1161 217.5473 0.0000 0.0000 0.0000
# 4 0.0000 0.0000 0.0000 22.4083 0.0000 0.0000
# 5 0.0000 0.0000 0.0000 0.0000 24.8550 0.0000
# 6 0.0000 0.0000 0.0000 0.0000 0.0000 16.6499
#
#
#
# Elastic Compliance Matrix: (Units=1/GPa)
#
#
# Indices 1 2 3 4 5 6 
#
# 1 0.016262 0.009288 -0.007591 0.000000 0.000000 0.000000
# 2 0.009288 0.078759 -0.010790 0.000000 0.000000 0.000000
# 3 -0.007591 -0.010790 0.008707 0.000000 0.000000 0.000000
# 4 0.000000 0.000000 0.000000 0.044626 0.000000 0.000000
# 5 0.000000 0.000000 0.000000 0.000000 0.040233 0.000000
# 6 0.000000 0.000000 0.000000 0.000000 0.000000 0.060060
#
#
# Mechanical properties :
#
#
# Convention : Reuss Voigt Hill
#
# Bulk Modulus (GPa) = 11.69009 61.82226 36.75618
# Shear Modulus (GPa) = 16.92913 27.88901 22.40907
#
# Velocity S-wave (km/s) = 2.87537 3.69057 3.30817
# Velocity P-wave (km/s) = 4.09058 6.95362 5.70463
#
# Compressibility (1/GPa) = 0.08554253
#
# Stress axis : x y z
#
# Youngs Moduli (GPa) = 61.49189 12.69697 114.84638
#
# Poissons Ratio (x) = -0.11793 0.87181
# Poissons Ratio (y) = -0.57114 1.23920
# Poissons Ratio (z) = 0.46679 0.13700
#
# Static dielectric constant tensor:
#      x y z
#    x 1.562490 0.000000 0.000000 
#    y 0.000000 1.756120 0.000000 
#    z 0.000000 0.000000 1.792670 
# 
# From -- ./inp_files/33228.got.cif
#   From: 2010.05.17/outbox.cif.g08.bks.cpg/sg65_17_cif.got.tgz:33228.got - 2010.06.03 17:01:31.
