data_PCOD9490448
_publ_section_title
;
Structure prediction by ZEFSAII (Michael W. Deem and Ramdas Pophale) SiO2 
 PCOD9490448
Probable space group: C M M M
;
_chemical_formula_sum "Si O2"
_cell_formula_units_Z 64
_cell_length_a 15.218821
_cell_length_b 8.551127
_cell_length_c 25.547718
_cell_angle_alpha 90.000000
_cell_angle_beta 90.000000
_cell_angle_gamma 90.000000
_cell_volume 3324.730743
_symmetry_space_group_name_H-M "C M M M"
_symmetry_group_IT_number 65
_symmetry_cell_setting 'orthorhombic'
loop_
_space_group_symop_operation_xyz
x,y,z
-x,-y,z
x,-y,-z
-x,y,-z
-x,-y,-z
x,y,-z
-x,y,z
x,-y,z
1/2+x,1/2+y,z
1/2-x,1/2-y,z
1/2+x,1/2-y,-z
1/2-x,1/2+y,-z
1/2-x,1/2-y,-z
1/2+x,1/2+y,-z
1/2-x,1/2+y,z
1/2+x,1/2-y,z
loop_
_atom_site_type_symbol
_atom_site_label
_atom_site_fract_x
_atom_site_fract_y
_atom_site_fract_z
Si Si1 0.152237 0.188702 0.440872
Si Si2 0.000000 0.810698 0.636639
Si Si3 0.150650 0.687240 0.166722
Si Si4 0.350383 0.687776 0.943123
Si Si5 0.500000 0.811140 0.245887
O O1 0.125364 0.236447 0.500000
O O2 0.250000 0.250000 0.431614
O O3 0.084621 0.241671 0.396718
O O4 0.153436 0.000000 0.440256
O O5 0.000000 0.750819 0.695479
O O6 0.000000 0.000000 0.637534
O O7 0.154515 0.500000 0.165768
O O8 0.250000 0.750000 0.172903
O O9 0.113078 0.743953 0.110672
O O10 0.086053 0.738568 0.213100
O O11 0.349981 0.500000 0.939670
O O12 0.250000 0.750000 0.944049
O O13 0.389488 0.731065 0.000000
O O14 0.500000 0.000000 0.247080
#
# Coordination Sequence:
#
# PCOD9490448 Si02
#       5
#    16   8  16  16   8
#     4   9  18  34  56  83 113 142 174 213 258 309
#     4  10  21  36  56  79 105 142 181 217 259 306
#     4  10  20  36  56  76 101 136 175 216 264 313
#     4   9  16  27  47  76 105 132 165 208 260 316
#     4  10  24  41  54  74 106 141 179 222 263 308
#
# _framework density 19.249679
#
# number of rings (size 3 to 8) (size 9 to 14) (size 15 to 20)
#    0.000    2.500    0.000    3.375    0.000    7.000 
#    0.000    5.625    0.000    7.500    0.000    0.000 
#    0.000    0.000    0.000    0.000    0.000    0.000 
#
# Total GULP energy -178511.797441 kJ/mol
# GULP energy per Si atom -5578.493670 kJ/mol
# Density = 1.920587 g / cm^3
# Si number density = 19.249679 Si / 1000 Ang^3
#
#
#
# Elastic Constant Matrix: (Units=GPa)
#
#
# Indices 1 2 3 4 5 6 
#
# 1 102.7895 24.1498 105.1634 0.0000 0.0000 0.0000
# 2 24.1498 32.0182 38.7327 0.0000 0.0000 0.0000
# 3 105.1634 38.7327 226.9605 0.0000 0.0000 0.0000
# 4 0.0000 0.0000 0.0000 34.4609 0.0000 0.0000
# 5 0.0000 0.0000 0.0000 0.0000 -35.3735 0.0000
# 6 0.0000 0.0000 0.0000 0.0000 0.0000 18.0929
#
#
#
# Elastic Compliance Matrix: (Units=1/GPa)
#
#
# Indices 1 2 3 4 5 6 
#
# 1 0.019031 -0.004646 -0.008025 0.000000 0.000000 0.000000
# 2 -0.004646 0.040492 -0.004758 0.000000 0.000000 0.000000
# 3 -0.008025 -0.004758 0.008936 0.000000 0.000000 0.000000
# 4 0.000000 0.000000 0.000000 0.029018 0.000000 0.000000
# 5 0.000000 0.000000 0.000000 0.000000 -0.028270 0.000000
# 6 0.000000 0.000000 0.000000 0.000000 0.000000 0.055270
#
#
# Mechanical properties :
#
#
# Convention : Reuss Voigt Hill
#
# Bulk Modulus (GPa) = 29.76047 77.54002 53.65024
# Shear Modulus (GPa) = 29.31953 16.35089 22.83521
#
# Velocity S-wave (km/s) = 3.90695 2.91763 3.44796
# Velocity P-wave (km/s) = 5.98716 7.19157 6.61683
#
# Compressibility (1/GPa) = 0.03360162
#
# Stress axis : x y z
#
# Youngs Moduli (GPa) = 52.54717 24.69651 111.90169
#
# Poissons Ratio (x) = 0.11474 0.89802
# Poissons Ratio (y) = 0.24413 0.53238
# Poissons Ratio (z) = 0.42169 0.11749
#
# Static dielectric constant tensor:
#      x y z
#    x 1.591720 0.000000 0.000000 
#    y 0.000000 1.653760 0.000000 
#    z 0.000000 0.000000 1.680840 
# 
# From -- ./inp_files/63237.got.cif
#   From: 2010.05.17/outbox.cif.g08.bks.cpg/sg65_32_cif.got.tgz:63237.got - 2010.06.03 17:01:31.
