data_PCOD9490607
_publ_section_title
;
Structure prediction by ZEFSAII (Michael W. Deem and Ramdas Pophale) SiO2 
 PCOD9490607
Probable space group: C M M M
;
_chemical_formula_sum "Si O2"
_cell_formula_units_Z 42
_cell_length_a 10.368702
_cell_length_b 27.616600
_cell_length_c 7.282391
_cell_angle_alpha 90.000000
_cell_angle_beta 90.000000
_cell_angle_gamma 90.000000
_cell_volume 2085.300251
_symmetry_space_group_name_H-M "C M M M"
_symmetry_group_IT_number 65
_symmetry_cell_setting 'orthorhombic'
loop_
_space_group_symop_operation_xyz
x,y,z
-x,-y,z
x,-y,-z
-x,y,-z
-x,-y,-z
x,y,-z
-x,y,z
x,-y,z
1/2+x,1/2+y,z
1/2-x,1/2-y,z
1/2+x,1/2-y,-z
1/2-x,1/2+y,-z
1/2-x,1/2-y,-z
1/2+x,1/2+y,-z
1/2-x,1/2+y,z
1/2+x,1/2-y,z
loop_
_atom_site_type_symbol
_atom_site_label
_atom_site_fract_x
_atom_site_fract_y
_atom_site_fract_z
Si Si1 0.500000 0.207806 0.222442
Si Si2 0.230520 0.553195 0.500000
Si Si3 0.000000 0.000000 0.500000
Si Si4 0.000000 0.181418 0.776894
Si Si5 0.727727 0.864363 0.779295
O O1 0.500000 0.262982 0.287096
O O2 0.625469 0.176983 0.273676
O O3 0.500000 0.210053 0.000000
O O4 0.168106 0.500000 0.500000
O O5 0.383864 0.541174 0.500000
O O6 0.198281 0.585946 0.324489
O O7 0.130234 0.153934 0.725240
O O8 0.000000 0.182847 0.000000
O O9 0.722900 0.870476 0.000000
#
# Coordination Sequence:
#
# PCOD9490607 Si02
#       5
#     8   8   2   8  16
#     4   9  18  34  56  84 120 150 179 225 274 328
#     4  10  22  39  57  80 110 141 184 244 285 316
#     4   8  20  40  58  78 108 138 172 242 290 304
#     4   9  17  32  57  85 114 151 187 222 270 328
#     4  10  20  36  58  84 113 149 187 224 275 334
#
# _framework density 20.140982999999999
#
# number of rings (size 3 to 8) (size 9 to 14) (size 15 to 20)
#    0.571    1.905    0.000    2.286    0.000    6.095 
#    0.000    8.571    0.000    3.429    0.000    0.000 
#    0.000    0.000    0.000    0.000    0.000    0.000 
#
# Total GULP energy -116948.602135 kJ/mol
# GULP energy per Si atom -5568.981054 kJ/mol
# Density = 2.009514 g / cm^3
# Si number density = 20.140983 Si / 1000 Ang^3
#
#
#
# Elastic Constant Matrix: (Units=GPa)
#
#
# Indices 1 2 3 4 5 6 
#
# 1 80.4281 32.4514 14.3836 0.0000 0.0000 0.0000
# 2 32.4514 185.4175 50.6246 0.0000 0.0000 0.0000
# 3 14.3836 50.6246 98.2815 0.0000 0.0000 0.0000
# 4 0.0000 0.0000 0.0000 31.0489 0.0000 0.0000
# 5 0.0000 0.0000 0.0000 0.0000 -13.2146 0.0000
# 6 0.0000 0.0000 0.0000 0.0000 0.0000 -93.2337
#
#
#
# Elastic Compliance Matrix: (Units=1/GPa)
#
#
# Indices 1 2 3 4 5 6 
#
# 1 0.013443 -0.002113 -0.000879 0.000000 0.000000 0.000000
# 2 -0.002113 0.006608 -0.003095 0.000000 0.000000 0.000000
# 3 -0.000879 -0.003095 0.011897 0.000000 0.000000 0.000000
# 4 0.000000 0.000000 0.000000 0.032207 0.000000 0.000000
# 5 0.000000 0.000000 0.000000 0.000000 -0.075674 0.000000
# 6 0.000000 0.000000 0.000000 0.000000 0.000000 -0.010726
#
#
# Mechanical properties :
#
#
# Convention : Reuss Voigt Hill
#
# Bulk Modulus (GPa) = 50.56705 62.11626 56.34165
# Shear Modulus (GPa) = -1437.24779 2.69795 -717.27492
#
# Velocity S-wave (km/s) = -26.74215 1.15864 -18.89180
# Velocity P-wave (km/s) = 30.46904 5.71818 21.16205
#
# Compressibility (1/GPa) = 0.01977572
#
# Stress axis : x y z
#
# Youngs Moduli (GPa) = 74.38734 151.33391 84.05130
#
# Poissons Ratio (x) = 0.31973 0.07389
# Poissons Ratio (y) = 0.15716 0.26010
# Poissons Ratio (z) = 0.06540 0.46831
#
# Static dielectric constant tensor:
#      x y z
#    x 1.693920 0.000000 0.000000 
#    y 0.000000 1.677470 0.000000 
#    z 0.000000 0.000000 1.744130 
# 
# From -- ./inp_files/4022.got.cif
#   From: 2010.05.17/outbox.cif.g08.bks.cpg/sg65_3_cif.got.tgz:4022.got - 2010.06.03 17:01:31.
