data_PCOD9490229
_publ_section_title
;
Structure prediction by ZEFSAII (Michael W. Deem and Ramdas Pophale) SiO2 
 PCOD9490229
Probable space group: C M M M
;
_chemical_formula_sum "Si O2"
_cell_formula_units_Z 112
_cell_length_a 16.387250
_cell_length_b 14.912443
_cell_length_c 23.643431
_cell_angle_alpha 90.000000
_cell_angle_beta 90.000000
_cell_angle_gamma 90.000000
_cell_volume 5777.838189
_symmetry_space_group_name_H-M "C M M M"
_symmetry_group_IT_number 65
_symmetry_cell_setting 'orthorhombic'
loop_
_space_group_symop_operation_xyz
x,y,z
-x,-y,z
x,-y,-z
-x,y,-z
-x,-y,-z
x,y,-z
-x,y,z
x,-y,z
1/2+x,1/2+y,z
1/2-x,1/2-y,z
1/2+x,1/2-y,-z
1/2-x,1/2+y,-z
1/2-x,1/2-y,-z
1/2+x,1/2+y,-z
1/2-x,1/2+y,z
1/2+x,1/2-y,z
loop_
_atom_site_type_symbol
_atom_site_label
_atom_site_fract_x
_atom_site_fract_y
_atom_site_fract_z
Si Si1 0.402438 0.100594 0.935938
Si Si2 0.243762 0.859352 0.564977
Si Si3 0.593305 0.101376 0.757042
Si Si4 0.659021 0.233193 0.841572
Si Si5 0.097846 0.100449 0.773229
Si Si6 0.591147 0.136950 0.374018
Si Si7 0.594162 0.351860 0.643689
O O1 0.500000 0.095107 0.938142
O O2 0.383038 0.177341 0.891159
O O3 0.372569 0.000000 0.919911
O O4 0.373287 0.119768 0.000000
O O5 0.232705 0.885921 0.500000
O O6 0.250000 0.750000 0.566580
O O7 0.331079 0.890594 0.589240
O O8 0.165814 0.886876 0.602801
O O9 0.500000 0.132093 0.769967
O O10 0.654489 0.168083 0.787016
O O11 0.601167 0.102106 0.689752
O O12 0.601977 0.000000 0.777827
O O13 0.750000 0.250000 0.860161
O O14 0.623490 0.326788 0.819386
O O15 0.118275 0.129976 0.708868
O O16 0.000000 0.097140 0.774221
O O17 0.130243 0.000000 0.783388
O O18 0.500000 0.111316 0.394625
O O19 0.591396 0.245043 0.367358
O O20 0.500000 0.384822 0.635021
#
# Coordination Sequence:
#
# PCOD9490229 Si02
#       7
#    16  16  16  16  16  16  16
#     4   9  19  39  67  93 118 155 201 244 285 331
#     4   9  18  30  48  74 103 137 182 233 290 354
#     4  10  20  35  57  83 111 147 190 240 294 345
#     4  12  24  34  55  88 125 156 187 232 290 344
#     4  10  21  37  56  78 109 153 199 240 284 338
#     4   9  17  30  50  74 104 140 179 229 294 358
#     4   9  17  31  51  72 101 141 187 238 293 344
#
# _framework density 19.384412000000001
#
# number of rings (size 3 to 8) (size 9 to 14) (size 15 to 20)
#    0.000    2.286    1.429    2.143    2.000    3.143 
#    0.000    2.857    0.000    2.143    0.000    6.000 
#    0.000    0.000    0.000    0.000    0.000    0.000 
#
# Total GULP energy -312411.670654 kJ/mol
# GULP energy per Si atom -5578.779833 kJ/mol
# Density = 1.934029 g / cm^3
# Si number density = 19.384412 Si / 1000 Ang^3
#
#
#
# Elastic Constant Matrix: (Units=GPa)
#
#
# Indices 1 2 3 4 5 6 
#
# 1 78.8356 35.7461 58.3140 0.0000 0.0000 0.0000
# 2 35.7461 91.8005 50.5246 0.0000 0.0000 0.0000
# 3 58.3140 50.5246 118.9381 0.0000 0.0000 0.0000
# 4 0.0000 0.0000 0.0000 18.4489 0.0000 0.0000
# 5 0.0000 0.0000 0.0000 0.0000 33.8470 0.0000
# 6 0.0000 0.0000 0.0000 0.0000 0.0000 -12.9156
#
#
#
# Elastic Compliance Matrix: (Units=1/GPa)
#
#
# Indices 1 2 3 4 5 6 
#
# 1 0.020605 -0.003215 -0.008737 0.000000 0.000000 0.000000
# 2 -0.003215 0.014719 -0.004676 0.000000 0.000000 0.000000
# 3 -0.008737 -0.004676 0.014678 0.000000 0.000000 0.000000
# 4 0.000000 0.000000 0.000000 0.054204 0.000000 0.000000
# 5 0.000000 0.000000 0.000000 0.000000 0.029545 0.000000
# 6 0.000000 0.000000 0.000000 0.000000 0.000000 -0.077426
#
#
# Mechanical properties :
#
#
# Convention : Reuss Voigt Hill
#
# Bulk Modulus (GPa) = 59.71699 64.30481 62.01090
# Shear Modulus (GPa) = 52.54268 17.54205 35.04236
#
# Velocity S-wave (km/s) = 5.21196 3.01151 4.25639
# Velocity P-wave (km/s) = 8.19102 6.73333 7.49769
#
# Compressibility (1/GPa) = 0.01674565
#
# Stress axis : x y z
#
# Youngs Moduli (GPa) = 48.53266 67.94074 68.13084
#
# Poissons Ratio (x) = 0.21842 0.59523
# Poissons Ratio (y) = 0.15603 0.31860
# Poissons Ratio (z) = 0.42401 0.31771
#
# Static dielectric constant tensor:
#      x y z
#    x 1.694740 0.000000 0.000000 
#    y 0.000000 1.722750 0.000000 
#    z 0.000000 0.000000 1.649830 
# 
# From -- ./inp_files/70065.got.cif
#   From: 2010.05.17/outbox.cif.g08.bks.cpg/sg65_36_cif.got.tgz:70065.got - 2010.06.03 17:01:31.
