data_PCOD9490477
_publ_section_title
;
Structure prediction by ZEFSAII (Michael W. Deem and Ramdas Pophale) SiO2 
 PCOD9490477
Probable space group: C M M M
;
_chemical_formula_sum "Si O2"
_cell_formula_units_Z 88
_cell_length_a 22.751337
_cell_length_b 8.881081
_cell_length_c 25.396593
_cell_angle_alpha 90.000000
_cell_angle_beta 90.000000
_cell_angle_gamma 90.000000
_cell_volume 5131.545849
_symmetry_space_group_name_H-M "C M M M"
_symmetry_group_IT_number 65
_symmetry_cell_setting 'orthorhombic'
loop_
_space_group_symop_operation_xyz
x,y,z
-x,-y,z
x,-y,-z
-x,y,-z
-x,-y,-z
x,y,-z
-x,y,z
x,-y,z
1/2+x,1/2+y,z
1/2-x,1/2-y,z
1/2+x,1/2-y,-z
1/2-x,1/2+y,-z
1/2-x,1/2-y,-z
1/2+x,1/2+y,-z
1/2-x,1/2+y,z
1/2+x,1/2-y,z
loop_
_atom_site_type_symbol
_atom_site_label
_atom_site_fract_x
_atom_site_fract_y
_atom_site_fract_z
Si Si1 0.882953 0.680686 0.395017
Si Si2 0.500000 0.680314 0.438169
Si Si3 0.313149 0.819714 0.500000
Si Si4 0.187311 0.820031 0.301526
Si Si5 0.569068 0.681691 0.111893
Si Si6 0.814274 0.818872 0.822114
Si Si7 0.070570 0.670302 0.000000
O O1 0.884482 0.500000 0.392090
O O2 0.844291 0.726047 0.445841
O O3 0.858862 0.748212 0.341097
O O4 0.944953 0.749968 0.409058
O O5 0.500000 0.500000 0.435671
O O6 0.500000 0.724230 0.500000
O O7 0.250000 0.750000 0.500000
O O8 0.311087 0.000000 0.500000
O O9 0.250000 0.750000 0.316316
O O10 0.177454 0.784304 0.239954
O O11 0.188396 0.000000 0.307221
O O12 0.500000 0.728537 0.124498
O O13 0.567988 0.500000 0.111946
O O14 0.624982 0.728380 0.148356
O O15 0.584339 0.742415 0.053682
O O16 0.750000 0.750000 0.837966
O O17 0.809326 0.000000 0.827930
O O18 0.094694 0.500000 0.000000
O O19 0.000000 0.659439 0.000000
#
# Coordination Sequence:
#
# PCOD9490477 Si02
#       7
#    16   8   8  16  16  16   8
#     4  11  22  38  57  78 106 141 175 215 264 317
#     4  11  23  39  59  81 105 139 175 212 259 320
#     4  10  22  35  52  77 103 132 166 212 261 308
#     4  10  20  36  56  81 108 139 179 221 267 318
#     4   9  17  32  54  78 105 141 183 223 266 320
#     4   9  19  35  55  79 108 144 182 223 272 322
#     4   9  17  29  48  77 110 141 175 221 272 317
#
# _framework density 17.14883
#
# number of rings (size 3 to 8) (size 9 to 14) (size 15 to 20)
#    0.000    2.182    0.909    2.182    0.000    5.818 
#    1.636    0.455    0.000    0.000    0.000    0.000 
#    0.000    0.000    0.000    0.000    0.000    0.000 
#
# Total GULP energy -245139.083039 kJ/mol
# GULP energy per Si atom -5571.342796 kJ/mol
# Density = 1.710980 g / cm^3
# Si number density = 17.148830 Si / 1000 Ang^3
#
#
#
# Elastic Constant Matrix: (Units=GPa)
#
#
# Indices 1 2 3 4 5 6 
#
# 1 163.2740 40.8964 85.9106 0.0000 0.0000 0.0000
# 2 40.8964 32.7789 37.7422 0.0000 0.0000 0.0000
# 3 85.9106 37.7422 100.5933 0.0000 0.0000 0.0000
# 4 0.0000 0.0000 0.0000 23.9375 0.0000 0.0000
# 5 0.0000 0.0000 0.0000 0.0000 38.6902 0.0000
# 6 0.0000 0.0000 0.0000 0.0000 0.0000 30.0380
#
#
#
# Elastic Compliance Matrix: (Units=1/GPa)
#
#
# Indices 1 2 3 4 5 6 
#
# 1 0.011645 -0.005419 -0.007912 0.000000 0.000000 0.000000
# 2 -0.005419 0.056232 -0.016471 0.000000 0.000000 0.000000
# 3 -0.007912 -0.016471 0.022878 0.000000 0.000000 0.000000
# 4 0.000000 0.000000 0.000000 0.041775 0.000000 0.000000
# 5 0.000000 0.000000 0.000000 0.000000 0.025846 0.000000
# 6 0.000000 0.000000 0.000000 0.000000 0.000000 0.033291
#
#
# Mechanical properties :
#
#
# Convention : Reuss Voigt Hill
#
# Bulk Modulus (GPa) = 32.09988 69.52717 50.81353
# Shear Modulus (GPa) = 19.10906 27.33960 23.22433
#
# Velocity S-wave (km/s) = 3.34174 3.99714 3.68405
# Velocity P-wave (km/s) = 5.80075 7.86983 6.91314
#
# Compressibility (1/GPa) = 0.03115276
#
# Stress axis : x y z
#
# Youngs Moduli (GPa) = 85.87216 17.78337 43.70967
#
# Poissons Ratio (x) = 0.09636 0.34585
# Poissons Ratio (y) = 0.46530 0.71992
# Poissons Ratio (z) = 0.67946 0.29290
#
# Static dielectric constant tensor:
#      x y z
#    x 1.556920 0.000000 0.000000 
#    y 0.000000 1.580880 0.000000 
#    z 0.000000 0.000000 1.569790 
# 
# From -- ./inp_files/71051.got.cif
#   From: 2010.05.17/outbox.cif.g08.bks.cpg/sg65_36_cif.got.tgz:71051.got - 2010.06.03 17:01:31.
