data_PCOD9490295
_publ_section_title
;
Structure prediction by ZEFSAII (Michael W. Deem and Ramdas Pophale) SiO2 
 PCOD9490295
Probable space group: C M M M
;
_chemical_formula_sum "Si O2"
_cell_formula_units_Z 48
_cell_length_a 15.049489
_cell_length_b 15.279465
_cell_length_c 9.130298
_cell_angle_alpha 90.000000
_cell_angle_beta 90.000000
_cell_angle_gamma 90.000000
_cell_volume 2099.495047
_symmetry_space_group_name_H-M "C M M M"
_symmetry_group_IT_number 65
_symmetry_cell_setting 'orthorhombic'
loop_
_space_group_symop_operation_xyz
x,y,z
-x,-y,z
x,-y,-z
-x,y,-z
-x,-y,-z
x,y,-z
-x,y,z
x,-y,z
1/2+x,1/2+y,z
1/2-x,1/2-y,z
1/2+x,1/2-y,-z
1/2-x,1/2+y,-z
1/2-x,1/2-y,-z
1/2+x,1/2+y,-z
1/2-x,1/2+y,z
1/2+x,1/2-y,z
loop_
_atom_site_type_symbol
_atom_site_label
_atom_site_fract_x
_atom_site_fract_y
_atom_site_fract_z
Si Si1 0.500000 0.892582 0.665921
Si Si2 0.831163 0.400085 0.837693
Si Si3 0.679887 0.670157 0.674547
Si Si4 0.000000 0.893721 0.176596
O O1 0.500000 0.860594 0.500000
O O2 0.412970 0.859718 0.749164
O O3 0.500000 0.000000 0.657952
O O4 0.860061 0.500000 0.858061
O O5 0.743779 0.403692 0.740450
O O6 0.816475 0.361777 0.000000
O O7 0.667353 0.668136 0.500000
O O8 0.750000 0.750000 0.707679
O O9 0.586701 0.653566 0.754849
O O10 0.000000 0.000000 0.209253
O O11 0.000000 0.885256 0.000000
#
# Coordination Sequence:
#
# PCOD9490295 Si02
#       4
#     8  16  16   8
#     4   9  17  30  51  80 113 150 192 239 296 364
#     4  10  20  35  57  86 120 160 209 265 326 394
#     4  11  25  43  64  93 129 170 218 273 334 400
#     4  11  25  46  73 104 136 176 230 285 339 407
#
# _framework density 22.862639999999999
#
# number of rings (size 3 to 8) (size 9 to 14) (size 15 to 20)
#    0.000    1.667    0.000    4.000    0.000   13.333 
#    0.000    1.667    0.000    0.000    0.000    0.000 
#    0.000    0.000    0.000    0.000    0.000    0.000 
#
# Total GULP energy -133807.368038 kJ/mol
# GULP energy per Si atom -5575.307002 kJ/mol
# Density = 2.281060 g / cm^3
# Si number density = 22.862640 Si / 1000 Ang^3
#
#
#
# Elastic Constant Matrix: (Units=GPa)
#
#
# Indices 1 2 3 4 5 6 
#
# 1 232.9990 52.0878 75.2193 0.0000 0.0000 0.0000
# 2 52.0878 95.5906 69.3467 0.0000 0.0000 0.0000
# 3 75.2193 69.3467 105.7083 0.0000 0.0000 0.0000
# 4 0.0000 0.0000 0.0000 15.1496 0.0000 0.0000
# 5 0.0000 0.0000 0.0000 0.0000 59.2767 0.0000
# 6 0.0000 0.0000 0.0000 0.0000 0.0000 33.8146
#
#
#
# Elastic Compliance Matrix: (Units=1/GPa)
#
#
# Indices 1 2 3 4 5 6 
#
# 1 0.005576 -0.000305 -0.003768 0.000000 0.000000 0.000000
# 2 -0.000305 0.019978 -0.012888 0.000000 0.000000 0.000000
# 3 -0.003768 -0.012888 0.020596 0.000000 0.000000 0.000000
# 4 0.000000 0.000000 0.000000 0.066008 0.000000 0.000000
# 5 0.000000 0.000000 0.000000 0.000000 0.016870 0.000000
# 6 0.000000 0.000000 0.000000 0.000000 0.000000 0.029573
#
#
# Mechanical properties :
#
#
# Convention : Reuss Voigt Hill
#
# Bulk Modulus (GPa) = 81.78532 91.95617 86.87075
# Shear Modulus (GPa) = 25.43230 37.49112 31.46171
#
# Velocity S-wave (km/s) = 3.33888 4.05389 3.71363
# Velocity P-wave (km/s) = 7.12140 7.88800 7.51448
#
# Compressibility (1/GPa) = 0.01222713
#
# Stress axis : x y z
#
# Youngs Moduli (GPa) = 179.32479 50.05598 48.55276
#
# Poissons Ratio (x) = 0.01528 0.18294
# Poissons Ratio (y) = 0.05474 0.62577
# Poissons Ratio (z) = 0.67566 0.64515
#
# Static dielectric constant tensor:
#      x y z
#    x 1.338260 0.000000 0.000000 
#    y 0.000000 2.068160 0.000000 
#    z 0.000000 0.000000 1.871940 
# 
# From -- ./inp_files/5833.got.cif
#   From: 2010.05.17/outbox.cif.g08.bks.cpg/sg65_3_cif.got.tgz:5833.got - 2010.06.03 17:01:31.
