data_PCOD9490403
_publ_section_title
;
Structure prediction by ZEFSAII (Michael W. Deem and Ramdas Pophale) SiO2 
 PCOD9490403
Probable space group: C M M M
;
_chemical_formula_sum "Si O2"
_cell_formula_units_Z 80
_cell_length_a 14.878427
_cell_length_b 23.963133
_cell_length_c 11.713002
_cell_angle_alpha 90.000000
_cell_angle_beta 90.000000
_cell_angle_gamma 90.000000
_cell_volume 4176.080234
_symmetry_space_group_name_H-M "C M M M"
_symmetry_group_IT_number 65
_symmetry_cell_setting 'orthorhombic'
loop_
_space_group_symop_operation_xyz
x,y,z
-x,-y,z
x,-y,-z
-x,y,-z
-x,-y,-z
x,y,-z
-x,y,z
x,-y,z
1/2+x,1/2+y,z
1/2-x,1/2-y,z
1/2+x,1/2-y,-z
1/2-x,1/2+y,-z
1/2-x,1/2-y,-z
1/2+x,1/2+y,-z
1/2-x,1/2+y,z
1/2+x,1/2-y,z
loop_
_atom_site_type_symbol
_atom_site_label
_atom_site_fract_x
_atom_site_fract_y
_atom_site_fract_z
Si Si1 0.104938 0.620988 0.712732
Si Si2 0.246880 0.434314 0.136319
Si Si3 0.142417 0.745794 0.633987
Si Si4 0.695013 0.938850 0.500000
Si Si5 0.098989 0.082840 0.500000
Si Si6 0.900790 0.860152 0.255126
O O1 0.155280 0.595556 0.822280
O O2 0.114578 0.686961 0.688955
O O3 0.160257 0.593619 0.609368
O O4 0.000000 0.606367 0.710181
O O5 0.251503 0.500000 0.175143
O O6 0.326278 0.395761 0.188406
O O7 0.253182 0.434468 0.000000
O O8 0.110156 0.750358 0.500000
O O9 0.250000 0.750000 0.627065
O O10 0.114091 0.794759 0.720846
O O11 0.802595 0.943881 0.500000
O O12 0.654272 0.000000 0.500000
O O13 0.100085 0.117703 0.384524
O O14 0.000000 0.055228 0.500000
O O15 0.000000 0.869601 0.205014
#
# Coordination Sequence:
#
# PCOD9490403 Si02
#       6
#    16  16  16   8   8  16
#     4  12  25  41  64  98 133 170 215 264 322 386
#     4  11  26  48  69  89 122 172 227 279 325 375
#     4  11  20  37  66  98 136 174 207 252 318 396
#     4  12  23  38  59  92 137 174 210 263 325 389
#     4  10  20  35  60  95 133 167 204 255 319 393
#     4  11  22  39  66 100 132 166 210 260 323 395
#
# _framework density 19.15672
#
# number of rings (size 3 to 8) (size 9 to 14) (size 15 to 20)
#    0.000    0.800    6.000    1.500    0.000    4.200 
#    0.000    6.000    0.000    2.400    0.000    0.000 
#    0.000    0.000    0.000    0.000    0.000    0.000 
#
# Total GULP energy -223087.027953 kJ/mol
# GULP energy per Si atom -5577.175699 kJ/mol
# Density = 1.911312 g / cm^3
# Si number density = 19.156720 Si / 1000 Ang^3
#
#
#
# Elastic Constant Matrix: (Units=GPa)
#
#
# Indices 1 2 3 4 5 6 
#
# 1 164.6587 51.4468 30.6740 0.0000 0.0000 0.0000
# 2 51.4468 158.5655 42.3101 0.0000 0.0000 0.0000
# 3 30.6740 42.3101 73.0533 0.0000 0.0000 0.0000
# 4 0.0000 0.0000 0.0000 173.8114 0.0000 0.0000
# 5 0.0000 0.0000 0.0000 0.0000 7.9361 0.0000
# 6 0.0000 0.0000 0.0000 0.0000 0.0000 64.4891
#
#
#
# Elastic Compliance Matrix: (Units=1/GPa)
#
#
# Indices 1 2 3 4 5 6 
#
# 1 0.006978 -0.001753 -0.001914 0.000000 0.000000 0.000000
# 2 -0.001753 0.007900 -0.003839 0.000000 0.000000 0.000000
# 3 -0.001914 -0.003839 0.016716 0.000000 0.000000 0.000000
# 4 0.000000 0.000000 0.000000 0.005753 0.000000 0.000000
# 5 0.000000 0.000000 0.000000 0.000000 0.126006 0.000000
# 6 0.000000 0.000000 0.000000 0.000000 0.000000 0.015506
#
#
# Mechanical properties :
#
#
# Convention : Reuss Voigt Hill
#
# Bulk Modulus (GPa) = 60.31398 71.68214 65.99806
# Shear Modulus (GPa) = 25.07528 67.37042 46.22285
#
# Velocity S-wave (km/s) = 3.62187 5.93670 4.91744
# Velocity P-wave (km/s) = 7.00310 9.19198 8.17117
#
# Compressibility (1/GPa) = 0.01657990
#
# Stress axis : x y z
#
# Youngs Moduli (GPa) = 143.31701 126.58660 59.82287
#
# Poissons Ratio (x) = 0.22191 0.11453
# Poissons Ratio (y) = 0.25124 0.22967
# Poissons Ratio (z) = 0.27438 0.48599
#
# Static dielectric constant tensor:
#      x y z
#    x 1.687970 0.000000 0.000000 
#    y 0.000000 1.711880 0.000000 
#    z 0.000000 0.000000 1.645950 
# 
# From -- ./inp_files/24700.got.cif
#   From: 2010.05.17/outbox.cif.g08.bks.cpg/sg65_13_cif.got.tgz:24700.got - 2010.06.03 17:01:31.
