data_PCOD9490185
_publ_section_title
;
Structure prediction by ZEFSAII (Michael W. Deem and Ramdas Pophale) SiO2 
 PCOD9490185
Probable space group: C M M M
;
_chemical_formula_sum "Si O2"
_cell_formula_units_Z 100
_cell_length_a 9.053871
_cell_length_b 20.102769
_cell_length_c 30.429897
_cell_angle_alpha 90.000000
_cell_angle_beta 90.000000
_cell_angle_gamma 90.000000
_cell_volume 5538.480958
_symmetry_space_group_name_H-M "C M M M"
_symmetry_group_IT_number 65
_symmetry_cell_setting 'orthorhombic'
loop_
_space_group_symop_operation_xyz
x,y,z
-x,-y,z
x,-y,-z
-x,y,-z
-x,-y,-z
x,y,-z
-x,y,z
x,-y,z
1/2+x,1/2+y,z
1/2-x,1/2-y,z
1/2+x,1/2-y,-z
1/2-x,1/2+y,-z
1/2-x,1/2-y,-z
1/2+x,1/2+y,-z
1/2-x,1/2+y,z
1/2+x,1/2-y,z
loop_
_atom_site_type_symbol
_atom_site_label
_atom_site_fract_x
_atom_site_fract_y
_atom_site_fract_z
Si Si1 0.324050 0.920187 0.908377
Si Si2 0.329754 0.580556 0.000000
Si Si3 0.707474 0.148161 0.500000
Si Si4 0.172964 0.079665 0.678619
Si Si5 0.821106 0.179507 0.159754
Si Si6 0.822088 0.680210 0.255811
Si Si7 0.000000 0.776350 0.500000
Si Si8 0.663125 0.079141 0.592907
O O1 0.500000 0.907041 0.906228
O O2 0.257899 0.900845 0.955945
O O3 0.235978 0.878576 0.872041
O O4 0.303504 0.000000 0.902737
O O5 0.334937 0.500000 0.000000
O O6 0.500000 0.604344 0.000000
O O7 0.620974 0.216565 0.500000
O O8 0.674168 0.109558 0.544856
O O9 0.875313 0.166694 0.500000
O O10 0.272407 0.121501 0.711932
O O11 0.216944 0.100058 0.628941
O O12 0.000000 0.092256 0.686858
O O13 0.198780 0.000000 0.682767
O O14 0.750000 0.250000 0.144891
O O15 0.752166 0.168155 0.208168
O O16 0.000000 0.183099 0.161331
O O17 0.750000 0.750000 0.271561
O O18 0.000000 0.685582 0.252328
O O19 0.500000 0.095603 0.611147
O O20 0.673769 0.000000 0.588485
#
# Coordination Sequence:
#
# PCOD9490185 Si02
#       8
#    16   8   8  16  16  16   4  16
#     4  10  20  35  56  84 115 151 194 237 285 339
#     4   9  17  31  52  79 114 151 190 237 287 341
#     4  11  21  41  56  83 112 151 184 230 275 331
#     4  10  22  40  60  87 119 149 187 235 283 333
#     4  11  22  38  60  83 115 150 190 236 286 341
#     4  11  22  40  62  86 113 149 190 232 282 342
#     4  10  24  38  56  78 120 148 184 226 280 322
#     4  10  20  37  61  84 110 146 188 230 273 328
#
# _framework density 18.055492999999998
#
# number of rings (size 3 to 8) (size 9 to 14) (size 15 to 20)
#    0.000    1.680    0.800    5.280    1.120    4.160 
#    2.880    0.800    0.000    0.000    0.000    0.000 
#    0.000    0.000    0.000    0.000    0.000    0.000 
#
# Total GULP energy -278366.511613 kJ/mol
# GULP energy per Si atom -5567.330232 kJ/mol
# Density = 1.801440 g / cm^3
# Si number density = 18.055493 Si / 1000 Ang^3
#
#
#
# Elastic Constant Matrix: (Units=GPa)
#
#
# Indices 1 2 3 4 5 6 
#
# 1 182.0234 54.7997 48.2672 0.0000 0.0000 0.0000
# 2 54.7997 51.1284 47.0400 0.0000 0.0000 0.0000
# 3 48.2672 47.0400 82.5428 0.0000 0.0000 0.0000
# 4 0.0000 0.0000 0.0000 -147.1886 0.0000 0.0000
# 5 0.0000 0.0000 0.0000 0.0000 39.7776 0.0000
# 6 0.0000 0.0000 0.0000 0.0000 0.0000 30.2745
#
#
#
# Elastic Compliance Matrix: (Units=1/GPa)
#
#
# Indices 1 2 3 4 5 6 
#
# 1 0.008119 -0.009111 0.000445 0.000000 0.000000 0.000000
# 2 -0.009111 0.051341 -0.023931 0.000000 0.000000 0.000000
# 3 0.000445 -0.023931 0.025493 0.000000 0.000000 0.000000
# 4 0.000000 0.000000 0.000000 -0.006794 0.000000 0.000000
# 5 0.000000 0.000000 0.000000 0.000000 0.025140 0.000000
# 6 0.000000 0.000000 0.000000 0.000000 0.000000 0.033031
#
#
# Mechanical properties :
#
#
# Convention : Reuss Voigt Hill
#
# Bulk Modulus (GPa) = 50.61150 68.43426 59.52288
# Shear Modulus (GPa) = 24.02582 -4.38811 9.81885
#
# Velocity S-wave (km/s) = 3.65179 -1.56065 2.33451
# Velocity P-wave (km/s) = 6.77294 5.89381 6.34861
#
# Compressibility (1/GPa) = 0.01975835
#
# Stress axis : x y z
#
# Youngs Moduli (GPa) = 123.17107 19.47766 39.22683
#
# Poissons Ratio (x) = 0.17746 -0.01744
# Poissons Ratio (y) = 1.12219 0.93873
# Poissons Ratio (z) = -0.05477 0.46612
#
# Static dielectric constant tensor:
#      x y z
#    x 1.636700 0.000000 0.000000 
#    y 0.000000 1.601180 0.000000 
#    z 0.000000 0.000000 1.629860 
# 
# From -- ./inp_files/73377.got.cif
#   From: 2010.05.17/outbox.cif.g08.bks.cpg/sg65_37_cif.got.tgz:73377.got - 2010.06.03 17:01:31.
