data_PCOD9490255
_publ_section_title
;
Structure prediction by ZEFSAII (Michael W. Deem and Ramdas Pophale) SiO2 
 PCOD9490255
Probable space group: C M M M
;
_chemical_formula_sum "Si O2"
_cell_formula_units_Z 88
_cell_length_a 23.648593
_cell_length_b 23.063841
_cell_length_c 7.743120
_cell_angle_alpha 90.000000
_cell_angle_beta 90.000000
_cell_angle_gamma 90.000000
_cell_volume 4223.309723
_symmetry_space_group_name_H-M "C M M M"
_symmetry_group_IT_number 65
_symmetry_cell_setting 'orthorhombic'
loop_
_space_group_symop_operation_xyz
x,y,z
-x,-y,z
x,-y,-z
-x,y,-z
-x,-y,-z
x,y,-z
-x,y,z
x,-y,z
1/2+x,1/2+y,z
1/2-x,1/2-y,z
1/2+x,1/2-y,-z
1/2-x,1/2+y,-z
1/2-x,1/2-y,-z
1/2+x,1/2+y,-z
1/2-x,1/2+y,z
1/2+x,1/2-y,z
loop_
_atom_site_type_symbol
_atom_site_label
_atom_site_fract_x
_atom_site_fract_y
_atom_site_fract_z
Si Si1 0.562470 0.260490 0.708479
Si Si2 0.436855 0.065731 0.210766
Si Si3 0.149445 0.338779 0.204497
Si Si4 0.880759 0.876858 0.707529
Si Si5 0.064487 0.000000 0.796282
Si Si6 0.730877 0.311679 0.301148
O O1 0.562327 0.258008 0.500000
O O2 0.500000 0.241643 0.770080
O O3 0.614397 0.220592 0.768172
O O4 0.574722 0.326902 0.759896
O O5 0.500000 0.081280 0.267396
O O6 0.391732 0.111389 0.271148
O O7 0.424909 0.000000 0.262945
O O8 0.436894 0.066976 0.000000
O O9 0.209431 0.343626 0.295594
O O10 0.158936 0.345520 0.000000
O O11 0.877932 0.877210 0.500000
O O12 0.901196 0.941098 0.754324
O O13 0.820045 0.851008 0.770589
O O14 0.000000 0.000000 0.720508
O O15 0.058242 0.000000 0.000000
O O16 0.714172 0.298074 0.500000
O O17 0.750000 0.250000 0.217727
#
# Coordination Sequence:
#
# PCOD9490255 Si02
#       6
#    16  16  16  16   8  16
#     4  10  20  35  57  84 113 147 189 238 291 346
#     4   8  15  30  50  72 104 145 183 218 262 323
#     4  11  21  32  53  84 116 146 185 234 290 351
#     4  10  21  40  65  86 110 153 204 244 285 349
#     4  11  25  43  63  91 127 159 190 245 312 361
#     4  10  20  39  62  81 110 149 191 236 282 337
#
# _framework density 20.836739999999999
#
# number of rings (size 3 to 8) (size 9 to 14) (size 15 to 20)
#    0.000    2.091    1.818    2.455    0.000    4.364 
#    1.636    0.000    0.000    1.636    0.000    6.364 
#    0.000    0.000    0.000    0.000    0.000    0.000 
#
# Total GULP energy -245435.832431 kJ/mol
# GULP energy per Si atom -5578.087101 kJ/mol
# Density = 2.078931 g / cm^3
# Si number density = 20.836740 Si / 1000 Ang^3
#
#
#
# Elastic Constant Matrix: (Units=GPa)
#
#
# Indices 1 2 3 4 5 6 
#
# 1 134.2669 84.5823 8.3180 0.0000 0.0000 0.0000
# 2 84.5823 95.0479 -0.2883 0.0000 0.0000 0.0000
# 3 8.3180 -0.2883 39.4699 0.0000 0.0000 0.0000
# 4 0.0000 0.0000 0.0000 17.0635 0.0000 0.0000
# 5 0.0000 0.0000 0.0000 0.0000 16.9300 0.0000
# 6 0.0000 0.0000 0.0000 0.0000 0.0000 20.8084
#
#
#
# Elastic Compliance Matrix: (Units=1/GPa)
#
#
# Indices 1 2 3 4 5 6 
#
# 1 0.017502 -0.015587 -0.003802 0.000000 0.000000 0.000000
# 2 -0.015587 0.024402 0.003463 0.000000 0.000000 0.000000
# 3 -0.003802 0.003463 0.026162 0.000000 0.000000 0.000000
# 4 0.000000 0.000000 0.000000 0.058605 0.000000 0.000000
# 5 0.000000 0.000000 0.000000 0.000000 0.059067 0.000000
# 6 0.000000 0.000000 0.000000 0.000000 0.000000 0.048058
#
#
# Mechanical properties :
#
#
# Convention : Reuss Voigt Hill
#
# Bulk Modulus (GPa) = 27.61310 50.44539 39.02924
# Shear Modulus (GPa) = 18.00379 22.70524 20.35452
#
# Velocity S-wave (km/s) = 2.94265 3.30460 3.12886
# Velocity P-wave (km/s) = 4.98261 6.23080 5.64134
#
# Compressibility (1/GPa) = 0.03621469
#
# Stress axis : x y z
#
# Youngs Moduli (GPa) = 57.13503 40.98017 38.22280
#
# Poissons Ratio (x) = 0.63875 0.14534
# Poissons Ratio (y) = 0.89055 -0.13237
# Poissons Ratio (z) = 0.21725 -0.14192
#
# Static dielectric constant tensor:
#      x y z
#    x 1.774540 0.000000 0.000000 
#    y 0.000000 1.759260 0.000000 
#    z 0.000000 0.000000 1.771030 
# 
# From -- ./inp_files/13982.got.cif
#   From: 2010.05.17/outbox.cif.g08.bks.cpg/sg65_7_cif.got.tgz:13982.got - 2010.06.03 17:01:31.
