data_PCOD9490985
_publ_section_title
;
Structure prediction by ZEFSAII (Michael W. Deem and Ramdas Pophale) SiO2 
 PCOD9490985
Probable space group: C M M M
;
_chemical_formula_sum "Si O2"
_cell_formula_units_Z 108
_cell_length_a 22.879105
_cell_length_b 15.657496
_cell_length_c 15.349220
_cell_angle_alpha 90.000000
_cell_angle_beta 90.000000
_cell_angle_gamma 90.000000
_cell_volume 5498.543330
_symmetry_space_group_name_H-M "C M M M"
_symmetry_group_IT_number 65
_symmetry_cell_setting 'orthorhombic'
loop_
_space_group_symop_operation_xyz
x,y,z
-x,-y,z
x,-y,-z
-x,y,-z
-x,-y,-z
x,y,-z
-x,y,z
x,-y,z
1/2+x,1/2+y,z
1/2-x,1/2-y,z
1/2+x,1/2-y,-z
1/2-x,1/2+y,-z
1/2-x,1/2-y,-z
1/2+x,1/2+y,-z
1/2-x,1/2+y,z
1/2+x,1/2-y,z
loop_
_atom_site_type_symbol
_atom_site_label
_atom_site_fract_x
_atom_site_fract_y
_atom_site_fract_z
Si Si1 0.267244 0.658236 0.732878
Si Si2 0.070800 0.405527 0.500000
Si Si3 0.849137 0.598152 0.185614
Si Si4 0.388302 0.379384 0.333862
Si Si5 0.068451 0.093121 0.141930
Si Si6 0.429931 0.814344 0.677692
Si Si7 0.408948 0.500000 0.500000
Si Si8 0.834822 0.775238 0.096518
O O1 0.250000 0.750000 0.691759
O O2 0.209035 0.606345 0.754269
O O3 0.318317 0.611644 0.679937
O O4 0.296180 0.684447 0.826090
O O5 0.095145 0.500000 0.500000
O O6 0.086833 0.359138 0.412093
O O7 0.000000 0.409441 0.500000
O O8 0.855325 0.500000 0.156248
O O9 0.903141 0.630332 0.244323
O O10 0.842088 0.674354 0.115175
O O11 0.420063 0.410131 0.245855
O O12 0.402166 0.278969 0.329212
O O13 0.408106 0.426019 0.421631
O O14 0.104800 0.172392 0.105451
O O15 0.000000 0.103151 0.125253
O O16 0.087796 0.000000 0.107145
O O17 0.500000 0.807421 0.685459
O O18 0.811300 0.789924 0.000000
#
# Coordination Sequence:
#
# PCOD9490985 Si02
#       8
#    16   8  16  16  16  16   4  16
#     4   9  19  40  64  84 115 164 210 256 306 371
#     4   9  19  34  54  81 113 149 197 256 291 326
#     4  11  23  38  64  95 123 168 213 259 316 380
#     4  11  21  39  59  87 124 163 200 253 317 380
#     4  10  20  38  63  89 122 166 213 258 310 377
#     4  11  21  39  63  87 119 164 212 254 306 371
#     4  12  26  36  59 102 132 156 205 264 328 386
#     4  10  22  40  63  93 127 162 206 265 325 380
#
# _framework density 19.641565
#
# number of rings (size 3 to 8) (size 9 to 14) (size 15 to 20)
#    0.000    1.704    5.185    1.333    1.037    5.037 
#    0.000    4.444    1.630    0.000    0.000    2.074 
#    0.000    0.000    0.000    0.000    0.000    0.000 
#
# Total GULP energy -300723.093859 kJ/mol
# GULP energy per Si atom -5568.946183 kJ/mol
# Density = 1.959686 g / cm^3
# Si number density = 19.641565 Si / 1000 Ang^3
#
#
#
# Elastic Constant Matrix: (Units=GPa)
#
#
# Indices 1 2 3 4 5 6 
#
# 1 76.8029 24.3447 -3.5671 0.0000 0.0000 0.0000
# 2 24.3447 137.3222 7.6453 0.0000 0.0000 0.0000
# 3 -3.5671 7.6453 68.5805 0.0000 0.0000 0.0000
# 4 0.0000 0.0000 0.0000 -7.0119 0.0000 0.0000
# 5 0.0000 0.0000 0.0000 0.0000 -1.9678 0.0000
# 6 0.0000 0.0000 0.0000 0.0000 0.0000 -12.1132
#
#
#
# Elastic Compliance Matrix: (Units=1/GPa)
#
#
# Indices 1 2 3 4 5 6 
#
# 1 0.013864 -0.002513 0.001001 0.000000 0.000000 0.000000
# 2 -0.002513 0.007783 -0.000998 0.000000 0.000000 0.000000
# 3 0.001001 -0.000998 0.014745 0.000000 0.000000 0.000000
# 4 0.000000 0.000000 0.000000 -0.142614 0.000000 0.000000
# 5 0.000000 0.000000 0.000000 0.000000 -0.508173 0.000000
# 6 0.000000 0.000000 0.000000 0.000000 0.000000 -0.082555
#
#
# Mechanical properties :
#
#
# Convention : Reuss Voigt Hill
#
# Bulk Modulus (GPa) = 31.87714 37.72793 34.80254
# Shear Modulus (GPa) = -7.33706 12.73360 2.69827
#
# Velocity S-wave (km/s) = -1.93483 2.54893 1.17334
# Velocity P-wave (km/s) = 3.35756 5.28324 4.42639
#
# Compressibility (1/GPa) = 0.03137044
#
# Stress axis : x y z
#
# Youngs Moduli (GPa) = 72.13153 128.47980 67.82054
#
# Poissons Ratio (x) = 0.32293 -0.06791
# Poissons Ratio (y) = 0.18130 0.06771
# Poissons Ratio (z) = -0.07222 0.12828
#
# Static dielectric constant tensor:
#      x y z
#    x 1.712800 0.000000 0.000000 
#    y 0.000000 1.751560 0.000000 
#    z 0.000000 0.000000 1.688820 
# 
# From -- ./inp_files/45820.got.cif
#   From: 2010.05.17/outbox.cif.g08.bks.cpg/sg65_23_cif.got.tgz:45820.got - 2010.06.03 17:01:31.
