data_PCOD9490878
_publ_section_title
;
Structure prediction by ZEFSAII (Michael W. Deem and Ramdas Pophale) SiO2 
 PCOD9490878
Probable space group: C M M M
;
_chemical_formula_sum "Si O2"
_cell_formula_units_Z 58
_cell_length_a 23.414195
_cell_length_b 7.484710
_cell_length_c 15.721130
_cell_angle_alpha 90.000000
_cell_angle_beta 90.000000
_cell_angle_gamma 90.000000
_cell_volume 2755.103813
_symmetry_space_group_name_H-M "C M M M"
_symmetry_group_IT_number 65
_symmetry_cell_setting 'orthorhombic'
loop_
_space_group_symop_operation_xyz
x,y,z
-x,-y,z
x,-y,-z
-x,y,-z
-x,-y,-z
x,y,-z
-x,y,z
x,-y,z
1/2+x,1/2+y,z
1/2-x,1/2-y,z
1/2+x,1/2-y,-z
1/2-x,1/2+y,-z
1/2-x,1/2-y,-z
1/2+x,1/2+y,-z
1/2-x,1/2+y,z
1/2+x,1/2-y,z
loop_
_atom_site_type_symbol
_atom_site_label
_atom_site_fract_x
_atom_site_fract_y
_atom_site_fract_z
Si Si1 0.881358 0.792558 0.671259
Si Si2 0.500000 0.000000 0.000000
Si Si3 0.683301 0.789276 0.500000
Si Si4 0.682756 0.286865 0.836627
Si Si5 0.000000 0.780344 0.400650
Si Si6 0.106579 0.219251 0.000000
O O1 0.844899 0.785326 0.585158
O O2 0.845925 0.714124 0.749885
O O3 0.943248 0.716880 0.647308
O O4 0.892010 0.000000 0.692148
O O5 0.449684 0.840995 0.000000
O O6 0.750000 0.750000 0.500000
O O7 0.673543 0.000000 0.500000
O O8 0.679362 0.500000 0.832456
O O9 0.750000 0.250000 0.843797
O O10 0.645112 0.234630 0.917646
O O11 0.000000 0.726722 0.500000
O O12 0.000000 0.000000 0.401837
O O13 0.096061 0.000000 0.000000
#
# Coordination Sequence:
#
# PCOD9490878 Si02
#       6
#    16   2   8  16   8   8
#     4  10  20  37  61  90 120 165 216 263 324 390
#     4  12  26  44  76 106 136 190 226 266 340 410
#     4  12  24  37  54  81 119 162 204 270 329 382
#     4  10  22  39  66  96 133 172 219 281 336 399
#     4   9  16  31  58  82 112 156 206 252 303 389
#     4  10  24  46  69 104 142 179 226 282 333 399
#
# _framework density 21.051836999999999
#
# number of rings (size 3 to 8) (size 9 to 14) (size 15 to 20)
#    0.000    1.793    1.379    2.690    1.931    4.414 
#    0.000    5.517    0.000    0.000    0.000    0.000 
#    0.000    0.000    0.000    0.000    0.000    0.000 
#
# Total GULP energy -161676.243876 kJ/mol
# GULP energy per Si atom -5575.042892 kJ/mol
# Density = 2.100392 g / cm^3
# Si number density = 21.051837 Si / 1000 Ang^3
#
#
#
# Elastic Constant Matrix: (Units=GPa)
#
#
# Indices 1 2 3 4 5 6 
#
# 1 259.7437 27.2529 123.5107 0.0000 0.0000 0.0000
# 2 27.2529 80.3038 20.8143 0.0000 0.0000 0.0000
# 3 123.5107 20.8143 184.0954 0.0000 0.0000 0.0000
# 4 0.0000 0.0000 0.0000 -652.8628 0.0000 0.0000
# 5 0.0000 0.0000 0.0000 0.0000 -34.2925 0.0000
# 6 0.0000 0.0000 0.0000 0.0000 0.0000 22.5235
#
#
#
# Elastic Compliance Matrix: (Units=1/GPa)
#
#
# Indices 1 2 3 4 5 6 
#
# 1 0.005727 -0.000976 -0.003732 0.000000 0.000000 0.000000
# 2 -0.000976 0.012995 -0.000814 0.000000 0.000000 0.000000
# 3 -0.003732 -0.000814 0.008028 0.000000 0.000000 0.000000
# 4 0.000000 0.000000 0.000000 -0.001532 0.000000 0.000000
# 5 0.000000 0.000000 0.000000 0.000000 -0.029161 0.000000
# 6 0.000000 0.000000 0.000000 0.000000 0.000000 0.044398
#
#
# Mechanical properties :
#
#
# Convention : Reuss Voigt Hill
#
# Bulk Modulus (GPa) = 63.67409 96.36652 80.02031
# Shear Modulus (GPa) = 88.12926 -109.42201 -10.64637
#
# Velocity S-wave (km/s) = 6.47718 -7.21736 -2.25127
# Velocity P-wave (km/s) = 9.28711 4.85577 5.59786
#
# Compressibility (1/GPa) = 0.01570497
#
# Stress axis : x y z
#
# Youngs Moduli (GPa) = 174.61428 76.95215 124.56803
#
# Poissons Ratio (x) = 0.07513 0.46487
# Poissons Ratio (y) = 0.17047 0.10143
# Poissons Ratio (z) = 0.65163 0.06266
#
# Static dielectric constant tensor:
#      x y z
#    x 1.736040 0.000000 0.000000 
#    y 0.000000 1.825330 0.000000 
#    z 0.000000 0.000000 1.754570 
# 
# From -- ./inp_files/45049.got.cif
#   From: 2010.05.17/outbox.cif.g08.bks.cpg/sg65_23_cif.got.tgz:45049.got - 2010.06.03 17:01:31.
