data_PCOD9490352
_publ_section_title
;
Structure prediction by ZEFSAII (Michael W. Deem and Ramdas Pophale) SiO2 
 PCOD9490352
Probable space group: C M M M
;
_chemical_formula_sum "Si O2"
_cell_formula_units_Z 88
_cell_length_a 18.534740
_cell_length_b 8.121746
_cell_length_c 30.627598
_cell_angle_alpha 90.000000
_cell_angle_beta 90.000000
_cell_angle_gamma 90.000000
_cell_volume 4610.508634
_symmetry_space_group_name_H-M "C M M M"
_symmetry_group_IT_number 65
_symmetry_cell_setting 'orthorhombic'
loop_
_space_group_symop_operation_xyz
x,y,z
-x,-y,z
x,-y,-z
-x,y,-z
-x,-y,-z
x,y,-z
-x,y,z
x,-y,z
1/2+x,1/2+y,z
1/2-x,1/2-y,z
1/2+x,1/2-y,-z
1/2-x,1/2+y,-z
1/2-x,1/2-y,-z
1/2+x,1/2+y,-z
1/2-x,1/2+y,z
1/2+x,1/2-y,z
loop_
_atom_site_type_symbol
_atom_site_label
_atom_site_fract_x
_atom_site_fract_y
_atom_site_fract_z
Si Si1 0.833291 0.801115 0.804281
Si Si2 0.418521 0.303225 0.718425
Si Si3 0.667631 0.193509 0.365887
Si Si4 0.413204 0.187878 0.891152
Si Si5 0.416601 0.301042 0.450797
Si Si6 0.587678 0.500000 0.049966
O O1 0.750000 0.750000 0.804105
O O2 0.871559 0.744263 0.759486
O O3 0.874174 0.723636 0.845486
O O4 0.838417 0.000000 0.807410
O O5 0.500000 0.235948 0.718894
O O6 0.423249 0.500000 0.723252
O O7 0.379585 0.270172 0.672795
O O8 0.750000 0.250000 0.363161
O O9 0.634064 0.237588 0.412723
O O10 0.665216 0.000000 0.359880
O O11 0.500000 0.200276 0.885290
O O12 0.391097 0.333473 0.924415
O O13 0.397501 0.000000 0.905713
O O14 0.396257 0.248407 0.500000
O O15 0.500000 0.250962 0.443178
O O16 0.414977 0.500000 0.449975
O O17 0.500000 0.500000 0.049151
O O18 0.613056 0.500000 0.000000
#
# Coordination Sequence:
#
# PCOD9490352 Si02
#       6
#    16  16  16  16  16   8
#     4  11  22  37  58  86 118 156 196 242 292 351
#     4  10  22  40  62  86 116 153 191 235 289 348
#     4  12  25  39  57  82 115 153 191 238 288 343
#     4  10  20  35  58  88 120 157 201 249 299 355
#     4   9  19  38  63  87 112 145 186 232 286 348
#     4   9  18  34  58  88 122 158 199 251 302 352
#
# _framework density 19.086832000000001
#
# number of rings (size 3 to 8) (size 9 to 14) (size 15 to 20)
#    0.000    1.727    0.909    4.364    0.000    7.636 
#    0.000    2.727    0.000    0.545    0.000    0.000 
#    0.000    0.000    0.000    0.000    0.000    0.000 
#
# Total GULP energy -245783.610930 kJ/mol
# GULP energy per Si atom -5585.991157 kJ/mol
# Density = 1.904339 g / cm^3
# Si number density = 19.086832 Si / 1000 Ang^3
#
#
#
# Elastic Constant Matrix: (Units=GPa)
#
#
# Indices 1 2 3 4 5 6 
#
# 1 93.4374 33.3257 66.3817 0.0000 0.0000 0.0000
# 2 33.3257 75.7974 36.8940 0.0000 0.0000 0.0000
# 3 66.3817 36.8940 141.9869 0.0000 0.0000 0.0000
# 4 0.0000 0.0000 0.0000 4.5396 0.0000 0.0000
# 5 0.0000 0.0000 0.0000 0.0000 -18.6412 0.0000
# 6 0.0000 0.0000 0.0000 0.0000 0.0000 24.3169
#
#
#
# Elastic Compliance Matrix: (Units=1/GPa)
#
#
# Indices 1 2 3 4 5 6 
#
# 1 0.017094 -0.004151 -0.006913 0.000000 0.000000 0.000000
# 2 -0.004151 0.016111 -0.002246 0.000000 0.000000 0.000000
# 3 -0.006913 -0.002246 0.010859 0.000000 0.000000 0.000000
# 4 0.000000 0.000000 0.000000 0.220286 0.000000 0.000000
# 5 0.000000 0.000000 0.000000 0.000000 -0.053645 0.000000
# 6 0.000000 0.000000 0.000000 0.000000 0.000000 0.041124
#
#
# Mechanical properties :
#
#
# Convention : Reuss Voigt Hill
#
# Bulk Modulus (GPa) = 57.32567 64.93607 61.13087
# Shear Modulus (GPa) = 17.58929 13.68441 15.63685
#
# Velocity S-wave (km/s) = 3.03898 2.68051 2.86536
# Velocity P-wave (km/s) = 6.51254 6.60874 6.56082
#
# Compressibility (1/GPa) = 0.01744419
#
# Stress axis : x y z
#
# Youngs Moduli (GPa) = 58.49885 62.06888 92.09290
#
# Poissons Ratio (x) = 0.25763 0.63668
# Poissons Ratio (y) = 0.24282 0.20682
# Poissons Ratio (z) = 0.40443 0.13939
#
# Static dielectric constant tensor:
#      x y z
#    x 1.627990 0.000000 0.000000 
#    y 0.000000 1.677970 0.000000 
#    z 0.000000 0.000000 1.644110 
# 
# From -- ./inp_files/77895.got.cif
#   From: 2010.05.17/outbox.cif.g08.bks.cpg/sg65_39_cif.got.tgz:77895.got - 2010.06.03 17:01:31.
