data_PCOD9490721
_publ_section_title
;
Structure prediction by ZEFSAII (Michael W. Deem and Ramdas Pophale) SiO2 
 PCOD9490721
Probable space group: C M M M
;
_chemical_formula_sum "Si O2"
_cell_formula_units_Z 64
_cell_length_a 8.909194
_cell_length_b 15.924071
_cell_length_c 22.878197
_cell_angle_alpha 90.000000
_cell_angle_beta 90.000000
_cell_angle_gamma 90.000000
_cell_volume 3245.744400
_symmetry_space_group_name_H-M "C M M M"
_symmetry_group_IT_number 65
_symmetry_cell_setting 'orthorhombic'
loop_
_space_group_symop_operation_xyz
x,y,z
-x,-y,z
x,-y,-z
-x,y,-z
-x,-y,-z
x,y,-z
-x,y,z
x,-y,z
1/2+x,1/2+y,z
1/2-x,1/2-y,z
1/2+x,1/2-y,-z
1/2-x,1/2+y,-z
1/2-x,1/2-y,-z
1/2+x,1/2+y,-z
1/2-x,1/2+y,z
1/2+x,1/2-y,z
loop_
_atom_site_type_symbol
_atom_site_label
_atom_site_fract_x
_atom_site_fract_y
_atom_site_fract_z
Si Si1 0.317370 0.500000 0.933022
Si Si2 0.180226 0.161631 0.857393
Si Si3 0.169563 0.899745 0.618018
Si Si4 0.321235 0.158377 0.500000
Si Si5 0.324099 0.898041 0.262348
O O1 0.500000 0.500000 0.933365
O O2 0.271669 0.416190 0.898379
O O3 0.265901 0.500000 0.000000
O O4 0.250000 0.250000 0.876518
O O5 0.237674 0.141008 0.792284
O O6 0.000000 0.166602 0.857705
O O7 0.260362 0.883508 0.559052
O O8 0.253225 0.869213 0.676224
O O9 0.000000 0.865228 0.613477
O O10 0.158486 0.000000 0.624401
O O11 0.500000 0.159799 0.500000
O O12 0.250000 0.250000 0.500000
O O13 0.500000 0.876882 0.259805
O O14 0.311228 0.000000 0.258813
#
# Coordination Sequence:
#
# PCOD9490721 Si02
#       5
#     8  16  16   8  16
#     4   9  20  40  65  91 125 168 209 252 305 367
#     4  11  22  38  62  92 126 165 209 255 309 367
#     4  10  21  38  61  87 116 152 196 243 298 362
#     4  12  25  40  57  79 113 153 197 248 305 360
#     4  10  20  36  60  89 121 155 198 251 306 362
#
# _framework density 19.718126999999999
#
# number of rings (size 3 to 8) (size 9 to 14) (size 15 to 20)
#    0.000    1.625    1.250    3.750    0.000    5.500 
#    0.000    5.000    0.000    5.250    0.000    0.000 
#    0.000    0.000    0.000    0.000    0.000    0.000 
#
# Total GULP energy -178848.830608 kJ/mol
# GULP energy per Si atom -5589.025957 kJ/mol
# Density = 1.967325 g / cm^3
# Si number density = 19.718127 Si / 1000 Ang^3
#
#
#
# Elastic Constant Matrix: (Units=GPa)
#
#
# Indices 1 2 3 4 5 6 
#
# 1 130.5930 50.4217 59.3254 0.0000 0.0000 0.0000
# 2 50.4217 91.5338 67.4559 0.0000 0.0000 0.0000
# 3 59.3254 67.4559 174.3867 0.0000 0.0000 0.0000
# 4 0.0000 0.0000 0.0000 -9.9324 0.0000 0.0000
# 5 0.0000 0.0000 0.0000 0.0000 14.5030 0.0000
# 6 0.0000 0.0000 0.0000 0.0000 0.0000 30.4170
#
#
#
# Elastic Compliance Matrix: (Units=1/GPa)
#
#
# Indices 1 2 3 4 5 6 
#
# 1 0.010114 -0.004246 -0.001798 0.000000 0.000000 0.000000
# 2 -0.004246 0.017064 -0.005156 0.000000 0.000000 0.000000
# 3 -0.001798 -0.005156 0.008341 0.000000 0.000000 0.000000
# 4 0.000000 0.000000 0.000000 -0.100681 0.000000 0.000000
# 5 0.000000 0.000000 0.000000 0.000000 0.068951 0.000000
# 6 0.000000 0.000000 0.000000 0.000000 0.000000 0.032876
#
#
# Mechanical properties :
#
#
# Convention : Reuss Voigt Hill
#
# Bulk Modulus (GPa) = 76.23466 83.43550 79.83508
# Shear Modulus (GPa) = 78.81750 21.61821 50.21785
#
# Velocity S-wave (km/s) = 6.32921 3.31473 5.05204
# Velocity P-wave (km/s) = 9.59990 7.55353 8.63753
#
# Compressibility (1/GPa) = 0.01311739
#
# Stress axis : x y z
#
# Youngs Moduli (GPa) = 98.87675 58.60436 119.89590
#
# Poissons Ratio (x) = 0.24883 0.21559
# Poissons Ratio (y) = 0.41982 0.61819
# Poissons Ratio (z) = 0.17780 0.30217
#
# Static dielectric constant tensor:
#      x y z
#    x 1.670180 0.000000 0.000000 
#    y 0.000000 1.687950 0.000000 
#    z 0.000000 0.000000 1.690690 
# 
# From -- ./inp_files/66750.got.cif
#   From: 2010.05.17/outbox.cif.g08.bks.cpg/sg65_34_cif.got.tgz:66750.got - 2010.06.03 17:01:31.
