data_PCOD9490137
_publ_section_title
;
Structure prediction by ZEFSAII (Michael W. Deem and Ramdas Pophale) SiO2 
 PCOD9490137
Probable space group: C M M M
;
_chemical_formula_sum "Si O2"
_cell_formula_units_Z 104
_cell_length_a 8.728851
_cell_length_b 19.826906
_cell_length_c 34.060538
_cell_angle_alpha 90.000000
_cell_angle_beta 90.000000
_cell_angle_gamma 90.000000
_cell_volume 5894.724757
_symmetry_space_group_name_H-M "C M M M"
_symmetry_group_IT_number 65
_symmetry_cell_setting 'orthorhombic'
loop_
_space_group_symop_operation_xyz
x,y,z
-x,-y,z
x,-y,-z
-x,y,-z
-x,-y,-z
x,y,-z
-x,y,z
x,-y,z
1/2+x,1/2+y,z
1/2-x,1/2-y,z
1/2+x,1/2-y,-z
1/2-x,1/2+y,-z
1/2-x,1/2-y,-z
1/2+x,1/2+y,-z
1/2-x,1/2+y,z
1/2+x,1/2-y,z
loop_
_atom_site_type_symbol
_atom_site_label
_atom_site_fract_x
_atom_site_fract_y
_atom_site_fract_z
Si Si1 0.182752 0.579879 0.583221
Si Si2 0.317120 0.824218 0.265408
Si Si3 0.315475 0.921346 0.885199
Si Si4 0.684959 0.824499 0.044341
Si Si5 0.176415 0.918153 0.500000
Si Si6 0.316991 0.675638 0.649560
Si Si7 0.182571 0.920411 0.800573
O O1 0.218222 0.500000 0.587674
O O2 0.240041 0.602049 0.540105
O O3 0.263614 0.623398 0.616618
O O4 0.000000 0.587755 0.585824
O O5 0.500000 0.820396 0.267882
O O6 0.250000 0.750000 0.256562
O O7 0.249358 0.844246 0.307835
O O8 0.265048 0.876040 0.232154
O O9 0.500000 0.915850 0.881078
O O10 0.265818 0.875648 0.921717
O O11 0.238736 0.901163 0.844157
O O12 0.279362 0.000000 0.892458
O O13 0.500000 0.821563 0.045148
O O14 0.750000 0.750000 0.051372
O O15 0.730554 0.845232 0.000000
O O16 0.000000 0.895778 0.500000
O O17 0.177472 0.000000 0.500000
O O18 0.500000 0.679292 0.651562
O O19 0.250000 0.750000 0.640843
O O20 0.000000 0.911733 0.797533
O O21 0.218041 0.000000 0.795441
#
# Coordination Sequence:
#
# PCOD9490137 Si02
#       7
#    16  16  16  16   8  16  16
#     4  10  20  35  56  82 111 144 183 224 267 317
#     4  11  22  38  59  81 107 139 177 218 263 316
#     4   9  18  33  52  74 101 134 172 213 258 308
#     4   9  18  32  50  73 101 133 169 211 258 307
#     4   9  17  31  52  79 110 143 180 223 271 319
#     4  11  22  38  58  80 110 144 179 220 268 319
#     4  10  21  37  56  79 108 140 175 217 264 313
#
# _framework density 17.642893000000001
#
# number of rings (size 3 to 8) (size 9 to 14) (size 15 to 20)
#    0.000    2.077    0.000    4.846    0.000    4.923 
#    0.000    3.462    0.000    0.000    0.000    4.308 
#    0.000    0.000    0.000    0.000    0.000    0.000 
#
# Total GULP energy -290310.886802 kJ/mol
# GULP energy per Si atom -5582.901669 kJ/mol
# Density = 1.760274 g / cm^3
# Si number density = 17.642893 Si / 1000 Ang^3
#
#
#
# Elastic Constant Matrix: (Units=GPa)
#
#
# Indices 1 2 3 4 5 6 
#
# 1 106.9878 57.0070 82.6609 0.0000 0.0000 0.0000
# 2 57.0070 71.9695 101.4913 0.0000 0.0000 0.0000
# 3 82.6609 101.4913 177.5466 0.0000 0.0000 0.0000
# 4 0.0000 0.0000 0.0000 53.0112 0.0000 0.0000
# 5 0.0000 0.0000 0.0000 0.0000 31.7180 0.0000
# 6 0.0000 0.0000 0.0000 0.0000 0.0000 27.2346
#
#
#
# Elastic Compliance Matrix: (Units=1/GPa)
#
#
# Indices 1 2 3 4 5 6 
#
# 1 0.016212 -0.011334 -0.001069 0.000000 0.000000 0.000000
# 2 -0.011334 0.079589 -0.040219 0.000000 0.000000 0.000000
# 3 -0.001069 -0.040219 0.029120 0.000000 0.000000 0.000000
# 4 0.000000 0.000000 0.000000 0.018864 0.000000 0.000000
# 5 0.000000 0.000000 0.000000 0.000000 0.031528 0.000000
# 6 0.000000 0.000000 0.000000 0.000000 0.000000 0.036718
#
#
# Mechanical properties :
#
#
# Convention : Reuss Voigt Hill
#
# Bulk Modulus (GPa) = 50.81905 93.20248 72.01076
# Shear Modulus (GPa) = 15.44005 30.08241 22.76123
#
# Velocity S-wave (km/s) = 2.96149 4.13373 3.59570
# Velocity P-wave (km/s) = 6.36873 8.70204 7.62516
#
# Compressibility (1/GPa) = 0.01967766
#
# Stress axis : x y z
#
# Youngs Moduli (GPa) = 61.68300 12.56459 34.34035
#
# Poissons Ratio (x) = 0.14241 0.03671
# Poissons Ratio (y) = 0.69912 1.38112
# Poissons Ratio (z) = 0.06593 0.50533
#
# Static dielectric constant tensor:
#      x y z
#    x 1.592790 0.000000 0.000000 
#    y 0.000000 1.578280 0.000000 
#    z 0.000000 0.000000 1.583690 
# 
# From -- ./inp_files/73303.got.cif
#   From: 2010.05.17/outbox.cif.g08.bks.cpg/sg65_37_cif.got.tgz:73303.got - 2010.06.03 17:01:31.
