data_PCOD9490622
_publ_section_title
;
Structure prediction by ZEFSAII (Michael W. Deem and Ramdas Pophale) SiO2 
 PCOD9490622
Probable space group: C M M M
;
_chemical_formula_sum "Si O2"
_cell_formula_units_Z 72
_cell_length_a 8.923977
_cell_length_b 15.999441
_cell_length_c 27.373423
_cell_angle_alpha 90.000000
_cell_angle_beta 90.000000
_cell_angle_gamma 90.000000
_cell_volume 3908.340204
_symmetry_space_group_name_H-M "C M M M"
_symmetry_group_IT_number 65
_symmetry_cell_setting 'orthorhombic'
loop_
_space_group_symop_operation_xyz
x,y,z
-x,-y,z
x,-y,-z
-x,y,-z
-x,-y,-z
x,y,-z
-x,y,z
x,-y,z
1/2+x,1/2+y,z
1/2-x,1/2-y,z
1/2+x,1/2-y,-z
1/2-x,1/2+y,-z
1/2-x,1/2-y,-z
1/2+x,1/2+y,-z
1/2-x,1/2+y,z
1/2+x,1/2-y,z
loop_
_atom_site_type_symbol
_atom_site_label
_atom_site_fract_x
_atom_site_fract_y
_atom_site_fract_z
Si Si1 0.178713 0.341181 0.097401
Si Si2 0.818507 0.000000 0.380368
Si Si3 0.819617 0.161632 0.443121
Si Si4 0.334781 0.597882 0.000000
Si Si5 0.318462 0.000000 0.727013
Si Si6 0.180371 0.342877 0.206707
O O1 0.250000 0.250000 0.098345
O O2 0.214668 0.375364 0.151565
O O3 0.000000 0.338676 0.092764
O O4 0.247426 0.381819 0.049450
O O5 0.773758 0.916920 0.410280
O O6 0.748367 0.000000 0.326935
O O7 0.000000 0.000000 0.377127
O O8 0.777591 0.147514 0.500000
O O9 0.750000 0.250000 0.427423
O O10 0.000000 0.167854 0.441167
O O11 0.353757 0.500000 0.000000
O O12 0.500000 0.639644 0.000000
O O13 0.272680 0.915181 0.755645
O O14 0.500000 0.000000 0.725364
O O15 0.250000 0.250000 0.213901
O O16 0.000000 0.333383 0.209665
#
# Coordination Sequence:
#
# PCOD9490622 Si02
#       6
#    16   8  16   8   8  16
#     4  10  20  36  59  80 103 136 175 217 265 324
#     4  10  21  36  54  80 111 147 186 225 273 327
#     4   9  18  34  56  81 111 147 186 227 271 321
#     4  11  24  37  50  77 113 141 170 213 264 319
#     4  10  22  39  57  80 111 146 183 229 278 323
#     4   9  20  38  60  82 107 140 182 228 274 326
#
# _framework density 18.422142000000001
#
# number of rings (size 3 to 8) (size 9 to 14) (size 15 to 20)
#    0.000    2.333    0.000    1.667    1.556    5.778 
#    0.000    4.444    0.000    3.333    0.000    0.000 
#    0.000    0.000    0.000    0.000    0.000    0.000 
#
# Total GULP energy -200721.785902 kJ/mol
# GULP energy per Si atom -5575.605164 kJ/mol
# Density = 1.838021 g / cm^3
# Si number density = 18.422142 Si / 1000 Ang^3
#
#
#
# Elastic Constant Matrix: (Units=GPa)
#
#
# Indices 1 2 3 4 5 6 
#
# 1 40.0946 38.7808 49.2831 0.0000 0.0000 0.0000
# 2 38.7808 136.7277 111.3060 0.0000 0.0000 0.0000
# 3 49.2831 111.3060 162.0842 0.0000 0.0000 0.0000
# 4 0.0000 0.0000 0.0000 19.5811 0.0000 0.0000
# 5 0.0000 0.0000 0.0000 0.0000 32.1408 0.0000
# 6 0.0000 0.0000 0.0000 0.0000 0.0000 25.4353
#
#
#
# Elastic Compliance Matrix: (Units=1/GPa)
#
#
# Indices 1 2 3 4 5 6 
#
# 1 0.040477 -0.003315 -0.010031 0.000000 0.000000 0.000000
# 2 -0.003315 0.016857 -0.010568 0.000000 0.000000 0.000000
# 3 -0.010031 -0.010568 0.016477 0.000000 0.000000 0.000000
# 4 0.000000 0.000000 0.000000 0.051070 0.000000 0.000000
# 5 0.000000 0.000000 0.000000 0.000000 0.031113 0.000000
# 6 0.000000 0.000000 0.000000 0.000000 0.000000 0.039315
#
#
# Mechanical properties :
#
#
# Convention : Reuss Voigt Hill
#
# Bulk Modulus (GPa) = 38.48643 81.96070 60.22357
# Shear Modulus (GPa) = 19.85709 24.73389 22.29549
#
# Velocity S-wave (km/s) = 3.28669 3.66815 3.48265
# Velocity P-wave (km/s) = 5.94473 7.90742 6.99526
#
# Compressibility (1/GPa) = 0.02598318
#
# Stress axis : x y z
#
# Youngs Moduli (GPa) = 24.70536 59.32117 60.68997
#
# Poissons Ratio (x) = 0.19663 0.60879
# Poissons Ratio (y) = 0.08189 0.64140
# Poissons Ratio (z) = 0.24782 0.62693
#
# Static dielectric constant tensor:
#      x y z
#    x 1.660340 0.000000 0.000000 
#    y 0.000000 1.607950 0.000000 
#    z 0.000000 0.000000 1.683500 
# 
# From -- ./inp_files/72600.got.cif
#   From: 2010.05.17/outbox.cif.g08.bks.cpg/sg65_37_cif.got.tgz:72600.got - 2010.06.03 17:01:31.
