data_PCOD9490918
_publ_section_title
;
Structure prediction by ZEFSAII (Michael W. Deem and Ramdas Pophale) SiO2 
 PCOD9490918
Probable space group: C M M M
;
_chemical_formula_sum "Si O2"
_cell_formula_units_Z 100
_cell_length_a 7.746965
_cell_length_b 21.406083
_cell_length_c 30.390200
_cell_angle_alpha 90.000000
_cell_angle_beta 90.000000
_cell_angle_gamma 90.000000
_cell_volume 5039.672989
_symmetry_space_group_name_H-M "C M M M"
_symmetry_group_IT_number 65
_symmetry_cell_setting 'orthorhombic'
loop_
_space_group_symop_operation_xyz
x,y,z
-x,-y,z
x,-y,-z
-x,y,-z
-x,-y,-z
x,y,-z
-x,y,z
x,-y,z
1/2+x,1/2+y,z
1/2-x,1/2-y,z
1/2+x,1/2-y,-z
1/2-x,1/2+y,-z
1/2-x,1/2-y,-z
1/2+x,1/2+y,-z
1/2-x,1/2+y,z
1/2+x,1/2-y,z
loop_
_atom_site_type_symbol
_atom_site_label
_atom_site_fract_x
_atom_site_fract_y
_atom_site_fract_z
Si Si1 0.204330 0.819546 0.049571
Si Si2 0.206612 0.177455 0.550122
Si Si3 0.299866 0.105778 0.364346
Si Si4 0.706739 0.930926 0.114885
Si Si5 0.288776 0.929789 0.215733
Si Si6 0.204779 0.320851 0.279137
Si Si7 0.000000 0.000000 0.356933
O O1 0.250000 0.750000 0.065777
O O2 0.253308 0.875079 0.082023
O O3 0.000000 0.821479 0.045853
O O4 0.279210 0.826762 0.000000
O O5 0.262078 0.163062 0.500000
O O6 0.250000 0.250000 0.558396
O O7 0.289411 0.133995 0.586839
O O8 0.000000 0.169882 0.552458
O O9 0.500000 0.085585 0.355547
O O10 0.255273 0.160103 0.329105
O O11 0.154227 0.053838 0.358391
O O12 0.500000 0.934324 0.117179
O O13 0.766509 0.920155 0.165088
O O14 0.769975 0.000000 0.100636
O O15 0.500000 0.929624 0.216256
O O16 0.223681 0.874778 0.247027
O O17 0.235833 0.000000 0.229793
O O18 0.250000 0.250000 0.268418
O O19 0.000000 0.324766 0.274571
#
# Coordination Sequence:
#
# PCOD9490918 Si02
#       7
#    16  16  16  16  16  16   4
#     4  10  21  36  54  76 106 144 185 234 289 343
#     4  10  20  37  63  94 127 164 207 258 312 365
#     4  11  24  42  65  92 124 164 208 253 311 365
#     4   9  18  34  57  82 111 148 188 231 282 341
#     4   8  16  34  57  81 112 151 192 235 286 346
#     4  10  22  37  59  88 119 154 196 243 295 353
#     4  12  26  44  65  92 128 166 204 260 297 384
#
# _framework density 19.842558
#
# number of rings (size 3 to 8) (size 9 to 14) (size 15 to 20)
#    0.000    2.240    0.800    2.640    2.240    4.480 
#    0.000    4.800    0.000    1.920    0.000    0.000 
#    0.000    0.000    0.000    0.000    0.000    0.000 
#
# Total GULP energy -278438.160874 kJ/mol
# GULP energy per Si atom -5568.763217 kJ/mol
# Density = 1.979740 g / cm^3
# Si number density = 19.842558 Si / 1000 Ang^3
#
#
#
# Elastic Constant Matrix: (Units=GPa)
#
#
# Indices 1 2 3 4 5 6 
#
# 1 69.4942 28.1252 15.7531 0.0000 0.0000 0.0000
# 2 28.1252 171.9126 88.4899 0.0000 0.0000 0.0000
# 3 15.7531 88.4899 84.9605 0.0000 0.0000 0.0000
# 4 0.0000 0.0000 0.0000 97.1288 0.0000 0.0000
# 5 0.0000 0.0000 0.0000 0.0000 -76.5913 0.0000
# 6 0.0000 0.0000 0.0000 0.0000 0.0000 38.2740
#
#
#
# Elastic Compliance Matrix: (Units=1/GPa)
#
#
# Indices 1 2 3 4 5 6 
#
# 1 0.015420 -0.002266 -0.000499 0.000000 0.000000 0.000000
# 2 -0.002266 0.012873 -0.012987 0.000000 0.000000 0.000000
# 3 -0.000499 -0.012987 0.025390 0.000000 0.000000 0.000000
# 4 0.000000 0.000000 0.000000 0.010296 0.000000 0.000000
# 5 0.000000 0.000000 0.000000 0.000000 -0.013056 0.000000
# 6 0.000000 0.000000 0.000000 0.000000 0.000000 0.026127
#
#
# Mechanical properties :
#
#
# Convention : Reuss Voigt Hill
#
# Bulk Modulus (GPa) = 45.09072 65.67816 55.38444
# Shear Modulus (GPa) = 43.12365 24.69557 33.90961
#
# Velocity S-wave (km/s) = 4.66691 3.53168 4.13841
# Velocity P-wave (km/s) = 7.19817 7.05704 7.12796
#
# Compressibility (1/GPa) = 0.02217751
#
# Stress axis : x y z
#
# Youngs Moduli (GPa) = 64.85157 77.68420 39.38630
#
# Poissons Ratio (x) = 0.17601 0.01966
# Poissons Ratio (y) = 0.14694 0.51152
# Poissons Ratio (z) = 0.03238 1.00891
#
# Static dielectric constant tensor:
#      x y z
#    x 1.730490 0.000000 0.000000 
#    y 0.000000 2.026200 0.000000 
#    z 0.000000 0.000000 1.720060 
# 
# From -- ./inp_files/73299.got.cif
#   From: 2010.05.17/outbox.cif.g08.bks.cpg/sg65_37_cif.got.tgz:73299.got - 2010.06.03 17:01:31.
