data_PCOD9490237
_publ_section_title
;
Structure prediction by ZEFSAII (Michael W. Deem and Ramdas Pophale) SiO2 
 PCOD9490237
Probable space group: C M M M
;
_chemical_formula_sum "Si O2"
_cell_formula_units_Z 88
_cell_length_a 16.889668
_cell_length_b 29.740074
_cell_length_c 8.229056
_cell_angle_alpha 90.000000
_cell_angle_beta 90.000000
_cell_angle_gamma 90.000000
_cell_volume 4133.454633
_symmetry_space_group_name_H-M "C M M M"
_symmetry_group_IT_number 65
_symmetry_cell_setting 'orthorhombic'
loop_
_space_group_symop_operation_xyz
x,y,z
-x,-y,z
x,-y,-z
-x,y,-z
-x,-y,-z
x,y,-z
-x,y,z
x,-y,z
1/2+x,1/2+y,z
1/2-x,1/2-y,z
1/2+x,1/2-y,-z
1/2-x,1/2+y,-z
1/2-x,1/2-y,-z
1/2+x,1/2+y,-z
1/2-x,1/2+y,z
1/2+x,1/2-y,z
loop_
_atom_site_type_symbol
_atom_site_label
_atom_site_fract_x
_atom_site_fract_y
_atom_site_fract_z
Si Si1 0.588257 0.768970 0.693617
Si Si2 0.664138 0.682529 0.192568
Si Si3 0.407246 0.400555 0.676521
Si Si4 0.596457 0.447607 0.000000
Si Si5 0.407225 0.050172 0.802035
Si Si6 0.333853 0.857355 0.803947
O O1 0.592846 0.765340 0.500000
O O2 0.500000 0.755855 0.748404
O O3 0.650948 0.734559 0.769577
O O4 0.604836 0.819974 0.744021
O O5 0.601322 0.652326 0.289261
O O6 0.748238 0.661876 0.244511
O O7 0.654331 0.675805 0.000000
O O8 0.372941 0.412058 0.500000
O O9 0.500000 0.412441 0.671716
O O10 0.372358 0.424833 0.835336
O O11 0.614462 0.500000 0.000000
O O12 0.500000 0.442472 0.000000
O O13 0.500000 0.056588 0.758946
O O14 0.356089 0.092746 0.745595
O O15 0.382762 0.000000 0.747851
O O16 0.403993 0.050028 0.000000
O O17 0.335445 0.857877 0.000000
#
# Coordination Sequence:
#
# PCOD9490237 Si02
#       6
#    16  16  16   8  16  16
#     4  11  24  39  56  81 111 149 198 246 297 358
#     4  11  22  36  55  81 117 154 196 242 295 357
#     4  10  20  35  57  83 112 151 199 250 304 362
#     4   9  18  34  56  82 111 144 189 249 309 362
#     4   8  14  28  54  85 113 144 185 231 280 339
#     4  10  21  36  56  84 119 150 189 238 295 357
#
# _framework density 21.289697
#
# number of rings (size 3 to 8) (size 9 to 14) (size 15 to 20)
#    0.000    2.091    0.909    3.273    0.000    8.364 
#    0.000    2.727    0.000    0.545    0.000    2.545 
#    0.000    0.000    0.000    0.000    0.000    0.000 
#
# Total GULP energy -245643.175568 kJ/mol
# GULP energy per Si atom -5582.799445 kJ/mol
# Density = 2.124124 g / cm^3
# Si number density = 21.289697 Si / 1000 Ang^3
#
#
#
# Elastic Constant Matrix: (Units=GPa)
#
#
# Indices 1 2 3 4 5 6 
#
# 1 66.8578 44.5640 17.4866 0.0000 0.0000 0.0000
# 2 44.5640 160.8701 34.4318 0.0000 0.0000 0.0000
# 3 17.4866 34.4318 65.7661 0.0000 0.0000 0.0000
# 4 0.0000 0.0000 0.0000 -10.1653 0.0000 0.0000
# 5 0.0000 0.0000 0.0000 0.0000 6.6002 0.0000
# 6 0.0000 0.0000 0.0000 0.0000 0.0000 23.9052
#
#
#
# Elastic Compliance Matrix: (Units=1/GPa)
#
#
# Indices 1 2 3 4 5 6 
#
# 1 0.018716 -0.004639 -0.002547 0.000000 0.000000 0.000000
# 2 -0.004639 0.008151 -0.003034 0.000000 0.000000 0.000000
# 3 -0.002547 -0.003034 0.017471 0.000000 0.000000 0.000000
# 4 0.000000 0.000000 0.000000 -0.098374 0.000000 0.000000
# 5 0.000000 0.000000 0.000000 0.000000 0.151510 0.000000
# 6 0.000000 0.000000 0.000000 0.000000 0.000000 0.041832
#
#
# Mechanical properties :
#
#
# Convention : Reuss Voigt Hill
#
# Bulk Modulus (GPa) = 41.84716 54.05098 47.94907
# Shear Modulus (GPa) = 29.81305 17.20213 23.50759
#
# Velocity S-wave (km/s) = 3.74619 2.84562 3.32652
# Velocity P-wave (km/s) = 6.19763 6.01998 6.10945
#
# Compressibility (1/GPa) = 0.02389648
#
# Stress axis : x y z
#
# Youngs Moduli (GPa) = 53.43089 122.68864 57.23760
#
# Poissons Ratio (x) = 0.56920 0.14581
# Poissons Ratio (y) = 0.24789 0.17364
# Poissons Ratio (z) = 0.13611 0.37220
#
# Static dielectric constant tensor:
#      x y z
#    x 1.794490 0.000000 0.000000 
#    y 0.000000 1.772700 0.000000 
#    z 0.000000 0.000000 1.770570 
# 
# From -- ./inp_files/10046.got.cif
#   From: 2010.05.17/outbox.cif.g08.bks.cpg/sg65_6_cif.got.tgz:10046.got - 2010.06.03 17:01:31.
