data_PCOD9490058
_publ_section_title
;
Structure prediction by ZEFSAII (Michael W. Deem and Ramdas Pophale) SiO2 
 PCOD9490058
Probable space group: C M M M
;
_chemical_formula_sum "Si O2"
_cell_formula_units_Z 80
_cell_length_a 7.433816
_cell_length_b 29.205651
_cell_length_c 15.987857
_cell_angle_alpha 90.000000
_cell_angle_beta 90.000000
_cell_angle_gamma 90.000000
_cell_volume 3471.114611
_symmetry_space_group_name_H-M "C M M M"
_symmetry_group_IT_number 65
_symmetry_cell_setting 'orthorhombic'
loop_
_space_group_symop_operation_xyz
x,y,z
-x,-y,z
x,-y,-z
-x,y,-z
-x,-y,-z
x,y,-z
-x,y,z
x,-y,z
1/2+x,1/2+y,z
1/2-x,1/2-y,z
1/2+x,1/2-y,-z
1/2-x,1/2+y,-z
1/2-x,1/2-y,-z
1/2+x,1/2+y,-z
1/2-x,1/2+y,z
1/2+x,1/2-y,z
loop_
_atom_site_type_symbol
_atom_site_label
_atom_site_fract_x
_atom_site_fract_y
_atom_site_fract_z
Si Si1 0.786876 0.196069 0.771031
Si Si2 0.285986 0.055456 0.589213
Si Si3 0.720440 0.053121 0.229629
Si Si4 0.789793 0.623151 0.093588
Si Si5 0.215280 0.195180 0.589812
O O1 0.750000 0.250000 0.778043
O O2 0.719595 0.168848 0.851055
O O3 0.713728 0.179383 0.680247
O O4 0.000000 0.189678 0.768903
O O5 0.210192 0.071637 0.500000
O O6 0.500000 0.064647 0.587949
O O7 0.215779 0.070751 0.679281
O O8 0.267187 0.000000 0.590317
O O9 0.500000 0.054602 0.231799
O O10 0.786919 0.083717 0.153447
O O11 0.769878 0.000000 0.220078
O O12 0.000000 0.612039 0.084735
O O13 0.714376 0.627097 0.000000
O O14 0.286275 0.177788 0.500000
O O15 0.250000 0.250000 0.589856
O O16 0.000000 0.188361 0.589490
#
# Coordination Sequence:
#
# PCOD9490058 Si02
#       5
#    16  16  16  16  16
#     4  10  20  35  56  78 101 131 165 202 245 295
#     4   7   9  15  31  57  89 123 155 189 234 285
#     4   8  14  26  45  68  94 126 164 203 242 288
#     4  10  21  35  50  71 100 131 166 212 260 301
#     4   8  14  26  46  72  99 126 156 190 232 284
#
# _framework density 23.047353000000001
#
# number of rings (size 3 to 8) (size 9 to 14) (size 15 to 20)
#    0.000    3.400    0.000    2.400    0.000    2.000 
#    0.000    3.000    0.000    1.800    0.000    1.400 
#    0.000    0.000    0.000   10.000    0.000    4.000 
#
# Total GULP energy -223069.286360 kJ/mol
# GULP energy per Si atom -5576.732159 kJ/mol
# Density = 2.299490 g / cm^3
# Si number density = 23.047353 Si / 1000 Ang^3
#
#
#
# Elastic Constant Matrix: (Units=GPa)
#
#
# Indices 1 2 3 4 5 6 
#
# 1 80.0060 -8.1700 14.5946 0.0000 0.0000 0.0000
# 2 -8.1700 95.0768 78.9813 0.0000 0.0000 0.0000
# 3 14.5946 78.9813 308.6081 0.0000 0.0000 0.0000
# 4 0.0000 0.0000 0.0000 58.8415 0.0000 0.0000
# 5 0.0000 0.0000 0.0000 0.0000 -10.4490 0.0000
# 6 0.0000 0.0000 0.0000 0.0000 0.0000 -7.7909
#
#
#
# Elastic Compliance Matrix: (Units=1/GPa)
#
#
# Indices 1 2 3 4 5 6 
#
# 1 0.012916 0.002054 -0.001137 0.000000 0.000000 0.000000
# 2 0.002054 0.013684 -0.003599 0.000000 0.000000 0.000000
# 3 -0.001137 -0.003599 0.004215 0.000000 0.000000 0.000000
# 4 0.000000 0.000000 0.000000 0.016995 0.000000 0.000000
# 5 0.000000 0.000000 0.000000 0.000000 -0.095703 0.000000
# 6 0.000000 0.000000 0.000000 0.000000 0.000000 -0.128355
#
#
# Mechanical properties :
#
#
# Convention : Reuss Voigt Hill
#
# Bulk Modulus (GPa) = 39.28957 72.72252 56.00604
# Shear Modulus (GPa) = -30.78808 34.67266 1.94229
#
# Velocity S-wave (km/s) = -3.65891 3.88288 0.91900
# Velocity P-wave (km/s) = 0.87511 7.19197 5.04770
#
# Compressibility (1/GPa) = 0.02545205
#
# Stress axis : x y z
#
# Youngs Moduli (GPa) = 77.42257 73.07639 237.23272
#
# Poissons Ratio (x) = -0.15010 0.26962
# Poissons Ratio (y) = -0.15903 0.85388
# Poissons Ratio (z) = 0.08799 0.26303
#
# Static dielectric constant tensor:
#      x y z
#    x 1.970790 0.000000 0.000000 
#    y 0.000000 1.846900 0.000000 
#    z 0.000000 0.000000 1.917970 
# 
# From -- ./inp_files/38759.got.cif
#   From: 2010.05.17/outbox.cif.g08.bks.cpg/sg65_20_cif.got.tgz:38759.got - 2010.06.03 17:01:31.
