data_PCOD9490504
_publ_section_title
;
Structure prediction by ZEFSAII (Michael W. Deem and Ramdas Pophale) SiO2 
 PCOD9490504
Probable space group: C M M M
;
_chemical_formula_sum "Si O2"
_cell_formula_units_Z 112
_cell_length_a 15.705012
_cell_length_b 13.972461
_cell_length_c 23.732376
_cell_angle_alpha 90.000000
_cell_angle_beta 90.000000
_cell_angle_gamma 90.000000
_cell_volume 5207.777238
_symmetry_space_group_name_H-M "C M M M"
_symmetry_group_IT_number 65
_symmetry_cell_setting 'orthorhombic'
loop_
_space_group_symop_operation_xyz
x,y,z
-x,-y,z
x,-y,-z
-x,y,-z
-x,-y,-z
x,y,-z
-x,y,z
x,-y,z
1/2+x,1/2+y,z
1/2-x,1/2-y,z
1/2+x,1/2-y,-z
1/2-x,1/2+y,-z
1/2-x,1/2-y,-z
1/2+x,1/2+y,-z
1/2-x,1/2+y,z
1/2+x,1/2-y,z
loop_
_atom_site_type_symbol
_atom_site_label
_atom_site_fract_x
_atom_site_fract_y
_atom_site_fract_z
Si Si1 0.824211 0.610603 0.868417
Si Si2 0.774574 0.383209 0.339573
Si Si3 0.593525 0.883583 0.755385
Si Si4 0.369310 0.611556 0.167858
Si Si5 0.094085 0.883222 0.295284
Si Si6 0.096064 0.383465 0.435008
Si Si7 0.095006 0.240187 0.937459
O O1 0.837965 0.500000 0.882955
O O2 0.889791 0.642514 0.819955
O O3 0.732591 0.618702 0.839115
O O4 0.837219 0.679074 0.920925
O O5 0.773708 0.500000 0.340204
O O6 0.831186 0.353581 0.285783
O O7 0.676921 0.352931 0.330780
O O8 0.827769 0.352371 0.394322
O O9 0.500000 0.853439 0.736189
O O10 0.595113 0.000000 0.754616
O O11 0.393025 0.500000 0.165796
O O12 0.395540 0.647573 0.229769
O O13 0.403080 0.663771 0.112650
O O14 0.000000 0.855707 0.316027
O O15 0.096592 0.000000 0.294202
O O16 0.107983 0.354215 0.500000
O O17 0.095959 0.500000 0.433970
O O18 0.000000 0.354624 0.416839
O O19 0.000000 0.283614 0.937638
O O20 0.110547 0.200321 0.000000
#
# Coordination Sequence:
#
# PCOD9490504 Si02
#       7
#    16  16  16  16  16  16  16
#     4  10  20  36  57  80 107 137 173 219 270 329
#     4   9  14  22  37  60  88 122 169 216 258 310
#     4   9  15  24  42  68  96 126 161 205 257 312
#     4  10  20  37  59  80 103 133 176 230 283 331
#     4   9  16  27  45  68  93 123 164 218 277 327
#     4   8  13  20  31  52  87 131 174 215 261 313
#     4  11  25  41  56  78 107 141 181 220 267 332
#
# _framework density 21.506297
#
# number of rings (size 3 to 8) (size 9 to 14) (size 15 to 20)
#    0.000    2.571    1.429    2.143    0.000    5.143 
#    0.000    2.857    0.000    0.429    0.000    3.000 
#    0.000    0.000    0.000    2.571    0.000   16.286 
#
# Total GULP energy -312764.146240 kJ/mol
# GULP energy per Si atom -5585.074040 kJ/mol
# Density = 2.145735 g / cm^3
# Si number density = 21.506297 Si / 1000 Ang^3
#
#
#
# Elastic Constant Matrix: (Units=GPa)
#
#
# Indices 1 2 3 4 5 6 
#
# 1 161.9909 17.8894 74.4904 0.0000 0.0000 0.0000
# 2 17.8894 52.5531 17.0031 0.0000 0.0000 0.0000
# 3 74.4904 17.0031 118.3645 0.0000 0.0000 0.0000
# 4 0.0000 0.0000 0.0000 18.5963 0.0000 0.0000
# 5 0.0000 0.0000 0.0000 0.0000 8.6063 0.0000
# 6 0.0000 0.0000 0.0000 0.0000 0.0000 6.9321
#
#
#
# Elastic Compliance Matrix: (Units=1/GPa)
#
#
# Indices 1 2 3 4 5 6 
#
# 1 0.008766 -0.001258 -0.005336 0.000000 0.000000 0.000000
# 2 -0.001258 0.020136 -0.002101 0.000000 0.000000 0.000000
# 3 -0.005336 -0.002101 0.012108 0.000000 0.000000 0.000000
# 4 0.000000 0.000000 0.000000 0.053774 0.000000 0.000000
# 5 0.000000 0.000000 0.000000 0.000000 0.116194 0.000000
# 6 0.000000 0.000000 0.000000 0.000000 0.000000 0.144256
#
#
# Mechanical properties :
#
#
# Convention : Reuss Voigt Hill
#
# Bulk Modulus (GPa) = 42.33496 61.29714 51.81605
# Shear Modulus (GPa) = 13.14071 21.72867 17.43469
#
# Velocity S-wave (km/s) = 2.47456 3.18203 2.85033
# Velocity P-wave (km/s) = 5.28131 6.48570 5.91424
#
# Compressibility (1/GPa) = 0.02362114
#
# Stress axis : x y z
#
# Youngs Moduli (GPa) = 114.08045 49.66169 82.58752
#
# Poissons Ratio (x) = 0.06245 0.44068
# Poissons Ratio (y) = 0.14346 0.17353
# Poissons Ratio (z) = 0.60872 0.10435
#
# Static dielectric constant tensor:
#      x y z
#    x 1.820580 0.000000 0.000000 
#    y 0.000000 1.808140 0.000000 
#    z 0.000000 0.000000 1.742390 
# 
# From -- ./inp_files/70058.got.cif
#   From: 2010.05.17/outbox.cif.g08.bks.cpg/sg65_36_cif.got.tgz:70058.got - 2010.06.03 17:01:31.
