data_PCOD9490527
_publ_section_title
;
Structure prediction by ZEFSAII (Michael W. Deem and Ramdas Pophale) SiO2 
 PCOD9490527
Probable space group: C M M M
;
_chemical_formula_sum "Si O2"
_cell_formula_units_Z 64
_cell_length_a 8.644764
_cell_length_b 25.579086
_cell_length_c 15.116167
_cell_angle_alpha 90.000000
_cell_angle_beta 90.000000
_cell_angle_gamma 90.000000
_cell_volume 3342.564874
_symmetry_space_group_name_H-M "C M M M"
_symmetry_group_IT_number 65
_symmetry_cell_setting 'orthorhombic'
loop_
_space_group_symop_operation_xyz
x,y,z
-x,-y,z
x,-y,-z
-x,y,-z
-x,-y,-z
x,y,-z
-x,y,z
x,-y,z
1/2+x,1/2+y,z
1/2-x,1/2-y,z
1/2+x,1/2-y,-z
1/2-x,1/2+y,-z
1/2-x,1/2-y,-z
1/2+x,1/2+y,-z
1/2-x,1/2+y,z
1/2+x,1/2-y,z
loop_
_atom_site_type_symbol
_atom_site_label
_atom_site_fract_x
_atom_site_fract_y
_atom_site_fract_z
Si Si1 0.677576 0.500000 0.643293
Si Si2 0.686695 0.808498 0.500000
Si Si3 0.688213 0.386883 0.151964
Si Si4 0.685300 0.111083 0.650721
Si Si5 0.186522 0.808054 0.000000
Si Si6 0.822115 0.000000 0.858916
O O1 0.500000 0.500000 0.614436
O O2 0.757996 0.445809 0.617456
O O3 0.678067 0.500000 0.751298
O O4 0.500000 0.806121 0.500000
O O5 0.750000 0.750000 0.500000
O O6 0.734758 0.842680 0.414874
O O7 0.500000 0.389255 0.154847
O O8 0.748181 0.380063 0.251270
O O9 0.734870 0.340926 0.086299
O O10 0.744917 0.443673 0.116748
O O11 0.500000 0.110025 0.654677
O O12 0.250000 0.750000 0.000000
O O13 0.000000 0.806430 0.000000
O O14 0.000000 0.000000 0.889933
#
# Coordination Sequence:
#
# PCOD9490527 Si02
#       6
#     8   8  16  16   8   8
#     4   9  17  32  55  84 113 143 177 215 263 327
#     4  10  24  41  56  77 107 144 188 230 273 322
#     4   9  18  34  55  80 107 139 176 218 269 325
#     4  10  20  36  57  82 111 143 177 223 276 323
#     4  10  22  37  53  75 107 144 184 224 264 316
#     4   7  12  26  50  76 101 125 160 207 255 307
#
# _framework density 19.146972999999999
#
# number of rings (size 3 to 8) (size 9 to 14) (size 15 to 20)
#    0.000    2.750    0.000    2.625    0.000    5.000 
#    0.000   10.000    0.000    0.000    0.000    6.125 
#    0.000    0.000    0.000    0.000    0.000    0.000 
#
# Total GULP energy -178490.116386 kJ/mol
# GULP energy per Si atom -5577.816137 kJ/mol
# Density = 1.910339 g / cm^3
# Si number density = 19.146973 Si / 1000 Ang^3
#
#
#
# Elastic Constant Matrix: (Units=GPa)
#
#
# Indices 1 2 3 4 5 6 
#
# 1 29.6489 39.0900 25.2789 0.0000 0.0000 0.0000
# 2 39.0900 231.3388 100.5930 0.0000 0.0000 0.0000
# 3 25.2789 100.5930 109.0516 0.0000 0.0000 0.0000
# 4 0.0000 0.0000 0.0000 34.1251 0.0000 0.0000
# 5 0.0000 0.0000 0.0000 0.0000 18.1838 0.0000
# 6 0.0000 0.0000 0.0000 0.0000 0.0000 35.3535
#
#
#
# Elastic Compliance Matrix: (Units=1/GPa)
#
#
# Indices 1 2 3 4 5 6 
#
# 1 0.045468 -0.005176 -0.005765 0.000000 0.000000 0.000000
# 2 -0.005176 0.007807 -0.006002 0.000000 0.000000 0.000000
# 3 -0.005765 -0.006002 0.016042 0.000000 0.000000 0.000000
# 4 0.000000 0.000000 0.000000 0.029304 0.000000 0.000000
# 5 0.000000 0.000000 0.000000 0.000000 0.054994 0.000000
# 6 0.000000 0.000000 0.000000 0.000000 0.000000 0.028286
#
#
# Mechanical properties :
#
#
# Convention : Reuss Voigt Hill
#
# Bulk Modulus (GPa) = 28.22342 77.77367 52.99854
# Shear Modulus (GPa) = 21.96870 31.20432 26.58651
#
# Velocity S-wave (km/s) = 3.39096 4.04137 3.73037
# Velocity P-wave (km/s) = 5.48670 7.90470 6.80398
#
# Compressibility (1/GPa) = 0.03543157
#
# Stress axis : x y z
#
# Youngs Moduli (GPa) = 21.99364 128.09181 62.33465
#
# Poissons Ratio (x) = 0.66299 0.35938
# Poissons Ratio (y) = 0.11384 0.37410
# Poissons Ratio (z) = 0.12680 0.76875
#
# Static dielectric constant tensor:
#      x y z
#    x 1.657970 0.000000 0.000000 
#    y 0.000000 1.666270 0.000000 
#    z 0.000000 0.000000 1.673780 
# 
# From -- ./inp_files/36076.got.cif
#   From: 2010.05.17/outbox.cif.g08.bks.cpg/sg65_19_cif.got.tgz:36076.got - 2010.06.03 17:01:31.
