data_PCOD9490397
_publ_section_title
;
Structure prediction by ZEFSAII (Michael W. Deem and Ramdas Pophale) SiO2 
 PCOD9490397
Probable space group: C M M M
;
_chemical_formula_sum "Si O2"
_cell_formula_units_Z 82
_cell_length_a 23.204174
_cell_length_b 8.824972
_cell_length_c 21.402115
_cell_angle_alpha 90.000000
_cell_angle_beta 90.000000
_cell_angle_gamma 90.000000
_cell_volume 4382.643478
_symmetry_space_group_name_H-M "C M M M"
_symmetry_group_IT_number 65
_symmetry_cell_setting 'orthorhombic'
loop_
_space_group_symop_operation_xyz
x,y,z
-x,-y,z
x,-y,-z
-x,y,-z
-x,-y,-z
x,y,-z
-x,y,z
x,-y,z
1/2+x,1/2+y,z
1/2-x,1/2-y,z
1/2+x,1/2-y,-z
1/2-x,1/2+y,-z
1/2-x,1/2-y,-z
1/2+x,1/2+y,-z
1/2-x,1/2+y,z
1/2+x,1/2-y,z
loop_
_atom_site_type_symbol
_atom_site_label
_atom_site_fract_x
_atom_site_fract_y
_atom_site_fract_z
Si Si1 0.813745 0.318683 0.500000
Si Si2 0.500000 0.757117 0.612400
Si Si3 0.000000 0.670235 0.248310
Si Si4 0.096327 0.818849 0.830115
Si Si5 0.813916 0.318237 0.254467
Si Si6 0.129789 0.172775 0.622071
Si Si7 0.000000 0.500000 0.500000
Si Si8 0.500000 0.684210 0.928714
O O1 0.812729 0.500000 0.500000
O O2 0.750000 0.250000 0.500000
O O3 0.845518 0.259758 0.438033
O O4 0.500000 0.842163 0.678307
O O5 0.560754 0.670642 0.614339
O O6 0.500000 0.868831 0.554371
O O7 0.946248 0.766797 0.224966
O O8 0.000000 0.500000 0.220888
O O9 0.155100 0.738539 0.809420
O O10 0.058267 0.772542 0.890890
O O11 0.103941 0.000000 0.831260
O O12 0.813539 0.500000 0.256397
O O13 0.750000 0.250000 0.257613
O O14 0.848408 0.255356 0.315075
O O15 0.151503 0.000000 0.623268
O O16 0.500000 0.500000 0.928498
O O17 0.500000 0.737156 0.000000
#
# Coordination Sequence:
#
# PCOD9490397 Si02
#       8
#     8   8   8  16  16  16   2   8
#     4  12  27  47  68  86 114 153 200 252 311 373
#     4  12  26  39  64  84 121 154 195 246 310 373
#     4  11  20  34  58  87 118 155 199 241 305 360
#     4  10  20  35  60  92 128 163 202 251 305 360
#     4  12  25  41  62  89 123 161 207 256 311 369
#     4  12  26  44  66  90 119 153 200 252 313 379
#     4  12  28  40  54  88 120 152 204 244 308 366
#     4   8  16  33  61  97 133 170 208 246 296 361
#
# _framework density 18.710167999999999
#
# number of rings (size 3 to 8) (size 9 to 14) (size 15 to 20)
#    0.000    0.878    2.439    6.146    4.098    0.780 
#    0.000    1.463    0.000   11.122    0.000    0.000 
#    0.000    0.000    0.000    0.000    0.000    0.000 
#
# Total GULP energy -228606.047100 kJ/mol
# GULP energy per Si atom -5575.757246 kJ/mol
# Density = 1.866758 g / cm^3
# Si number density = 18.710168 Si / 1000 Ang^3
#
#
#
# Elastic Constant Matrix: (Units=GPa)
#
#
# Indices 1 2 3 4 5 6 
#
# 1 137.8343 44.5894 54.0283 0.0000 0.0000 0.0000
# 2 44.5894 148.9043 48.2590 0.0000 0.0000 0.0000
# 3 54.0283 48.2590 150.8443 0.0000 0.0000 0.0000
# 4 0.0000 0.0000 0.0000 3.3393 0.0000 0.0000
# 5 0.0000 0.0000 0.0000 0.0000 13.8468 0.0000
# 6 0.0000 0.0000 0.0000 0.0000 0.0000 -262.5319
#
#
#
# Elastic Compliance Matrix: (Units=1/GPa)
#
#
# Indices 1 2 3 4 5 6 
#
# 1 0.008858 -0.001812 -0.002593 0.000000 0.000000 0.000000
# 2 -0.001812 0.007863 -0.001867 0.000000 0.000000 0.000000
# 3 -0.002593 -0.001867 0.008155 0.000000 0.000000 0.000000
# 4 0.000000 0.000000 0.000000 0.299463 0.000000 0.000000
# 5 0.000000 0.000000 0.000000 0.000000 0.072219 0.000000
# 6 0.000000 0.000000 0.000000 0.000000 0.000000 -0.003809
#
#
# Mechanical properties :
#
#
# Convention : Reuss Voigt Hill
#
# Bulk Modulus (GPa) = 81.08292 81.25958 81.17125
# Shear Modulus (GPa) = 12.21292 -29.68873 -8.73791
#
# Velocity S-wave (km/s) = 2.55765 -3.98775 -2.16339
# Velocity P-wave (km/s) = 7.22167 4.72463 6.10224
#
# Compressibility (1/GPa) = 0.01233305
#
# Stress axis : x y z
#
# Youngs Moduli (GPa) = 112.89685 127.17275 122.62089
#
# Poissons Ratio (x) = 0.23045 0.31794
# Poissons Ratio (y) = 0.20458 0.22889
# Poissons Ratio (z) = 0.29272 0.23738
#
# Static dielectric constant tensor:
#      x y z
#    x 1.676850 0.000000 0.000000 
#    y 0.000000 1.632450 0.000000 
#    z 0.000000 0.000000 1.632710 
# 
# From -- ./inp_files/65147.got.cif
#   From: 2010.05.17/outbox.cif.g08.bks.cpg/sg65_33_cif.got.tgz:65147.got - 2010.06.03 17:01:31.
