data_PCOD9490664
_publ_section_title
;
Structure prediction by ZEFSAII (Michael W. Deem and Ramdas Pophale) SiO2 
 PCOD9490664
Probable space group: C M M M
;
_chemical_formula_sum "Si O2"
_cell_formula_units_Z 72
_cell_length_a 8.827611
_cell_length_b 18.652742
_cell_length_c 23.739268
_cell_angle_alpha 90.000000
_cell_angle_beta 90.000000
_cell_angle_gamma 90.000000
_cell_volume 3908.887701
_symmetry_space_group_name_H-M "C M M M"
_symmetry_group_IT_number 65
_symmetry_cell_setting 'orthorhombic'
loop_
_space_group_symop_operation_xyz
x,y,z
-x,-y,z
x,-y,-z
-x,y,-z
-x,-y,-z
x,y,-z
-x,y,z
x,-y,z
1/2+x,1/2+y,z
1/2-x,1/2-y,z
1/2+x,1/2-y,-z
1/2-x,1/2+y,-z
1/2-x,1/2-y,-z
1/2+x,1/2+y,-z
1/2-x,1/2+y,z
1/2+x,1/2-y,z
loop_
_atom_site_type_symbol
_atom_site_label
_atom_site_fract_x
_atom_site_fract_y
_atom_site_fract_z
Si Si1 0.680703 0.829328 0.722843
Si Si2 0.674495 0.087092 0.500000
Si Si3 0.182945 0.916357 0.173078
Si Si4 0.680237 0.414427 0.381465
Si Si5 0.817512 0.171508 0.936376
O O1 0.500000 0.825377 0.723319
O O2 0.750000 0.750000 0.723097
O O3 0.739915 0.871901 0.777364
O O4 0.737763 0.871624 0.667819
O O5 0.500000 0.110874 0.500000
O O6 0.758488 0.108579 0.442716
O O7 0.675000 0.000000 0.500000
O O8 0.226453 0.883190 0.112634
O O9 0.000000 0.910269 0.178816
O O10 0.222193 0.000000 0.176687
O O11 0.500000 0.403496 0.378188
O O12 0.708810 0.500000 0.375136
O O13 0.750000 0.250000 0.924908
O O14 0.000000 0.176785 0.935723
O O15 0.771610 0.150213 0.000000
#
# Coordination Sequence:
#
# PCOD9490664 Si02
#       5
#    16   8  16  16  16
#     4  12  25  40  58  80 109 145 186 231 281 335
#     4   9  17  31  54  85 118 151 188 227 269 321
#     4  10  21  37  57  82 112 145 183 229 279 330
#     4  10  20  36  59  86 116 149 186 228 275 327
#     4   9  18  33  54  80 110 146 186 226 271 325
#
# _framework density 18.419561000000002
#
# number of rings (size 3 to 8) (size 9 to 14) (size 15 to 20)
#    0.000    1.889    0.000    4.333    0.000    8.889 
#    0.000    2.778    0.000    0.000    0.000    4.667 
#    0.000    0.000    0.000    0.000    0.000    0.000 
#
# Total GULP energy -201110.832815 kJ/mol
# GULP energy per Si atom -5586.412023 kJ/mol
# Density = 1.837764 g / cm^3
# Si number density = 18.419561 Si / 1000 Ang^3
#
#
#
# Elastic Constant Matrix: (Units=GPa)
#
#
# Indices 1 2 3 4 5 6 
#
# 1 84.6985 72.0766 76.2444 0.0000 0.0000 0.0000
# 2 72.0766 116.4696 103.9147 0.0000 0.0000 0.0000
# 3 76.2444 103.9147 176.9001 0.0000 0.0000 0.0000
# 4 0.0000 0.0000 0.0000 63.5912 0.0000 0.0000
# 5 0.0000 0.0000 0.0000 0.0000 8.0918 0.0000
# 6 0.0000 0.0000 0.0000 0.0000 0.0000 27.6412
#
#
#
# Elastic Compliance Matrix: (Units=1/GPa)
#
#
# Indices 1 2 3 4 5 6 
#
# 1 0.026041 -0.012821 -0.003692 0.000000 0.000000 0.000000
# 2 -0.012821 0.024354 -0.008780 0.000000 0.000000 0.000000
# 3 -0.003692 -0.008780 0.012402 0.000000 0.000000 0.000000
# 4 0.000000 0.000000 0.000000 0.015725 0.000000 0.000000
# 5 0.000000 0.000000 0.000000 0.000000 0.123583 0.000000
# 6 0.000000 0.000000 0.000000 0.000000 0.000000 0.036178
#
#
# Mechanical properties :
#
#
# Convention : Reuss Voigt Hill
#
# Bulk Modulus (GPa) = 81.90157 98.05996 89.98077
# Shear Modulus (GPa) = 17.06845 28.25366 22.66106
#
# Velocity S-wave (km/s) = 3.04739 3.92075 3.51133
# Velocity P-wave (km/s) = 7.54607 8.59353 8.08678
#
# Compressibility (1/GPa) = 0.01220978
#
# Stress axis : x y z
#
# Youngs Moduli (GPa) = 38.40153 41.06185 80.63287
#
# Poissons Ratio (x) = 0.52644 0.29773
# Poissons Ratio (y) = 0.49234 0.70796
# Poissons Ratio (z) = 0.14179 0.36052
#
# Static dielectric constant tensor:
#      x y z
#    x 1.616810 0.000000 0.000000 
#    y 0.000000 1.603040 0.000000 
#    z 0.000000 0.000000 1.623800 
# 
# From -- ./inp_files/67016.got.cif
#   From: 2010.05.17/outbox.cif.g08.bks.cpg/sg65_34_cif.got.tgz:67016.got - 2010.06.03 17:01:31.
