data_PCOD9490027
_publ_section_title
;
Structure prediction by ZEFSAII (Michael W. Deem and Ramdas Pophale) SiO2 
 PCOD9490027
Probable space group: C M M M
;
_chemical_formula_sum "Si O2"
_cell_formula_units_Z 68
_cell_length_a 24.690042
_cell_length_b 7.909631
_cell_length_c 17.861407
_cell_angle_alpha 90.000000
_cell_angle_beta 90.000000
_cell_angle_gamma 90.000000
_cell_volume 3488.138483
_symmetry_space_group_name_H-M "C M M M"
_symmetry_group_IT_number 65
_symmetry_cell_setting 'orthorhombic'
loop_
_space_group_symop_operation_xyz
x,y,z
-x,-y,z
x,-y,-z
-x,y,-z
-x,-y,-z
x,y,-z
-x,y,z
x,-y,z
1/2+x,1/2+y,z
1/2-x,1/2-y,z
1/2+x,1/2-y,-z
1/2-x,1/2+y,-z
1/2-x,1/2-y,-z
1/2+x,1/2+y,-z
1/2-x,1/2+y,z
1/2+x,1/2-y,z
loop_
_atom_site_type_symbol
_atom_site_label
_atom_site_fract_x
_atom_site_fract_y
_atom_site_fract_z
Si Si1 0.892719 0.799730 0.737740
Si Si2 0.000000 0.307581 0.177141
Si Si3 0.436744 0.293431 0.582971
Si Si4 0.384303 0.805828 0.000000
Si Si5 0.687364 0.703074 0.859865
Si Si6 0.000000 0.755282 0.000000
O O1 0.946188 0.775808 0.788885
O O2 0.904304 0.729954 0.655029
O O3 0.841574 0.733723 0.784040
O O4 0.884535 0.000000 0.728748
O O5 0.000000 0.500000 0.203365
O O6 0.000000 0.308767 0.086944
O O7 0.418741 0.239049 0.500000
O O8 0.500000 0.247213 0.592019
O O9 0.435339 0.500000 0.583645
O O10 0.347062 0.777281 0.928225
O O11 0.437016 0.686405 0.000000
O O12 0.405371 0.000000 0.000000
O O13 0.682694 0.500000 0.863947
O O14 0.750000 0.750000 0.864534
#
# Coordination Sequence:
#
# PCOD9490027 Si02
#       6
#    16   8  16   8  16   4
#     4  10  20  35  55  80 108 138 179 224 262 311
#     4  12  22  35  53  78 110 145 178 212 266 322
#     4   8  13  24  48  80 110 138 168 208 259 313
#     4  12  23  40  60  80 110 143 178 219 261 320
#     4  11  24  40  57  78 103 140 185 230 272 310
#     4  12  25  38  55  82 115 148 175 206 265 326
#
# _framework density 19.494637999999998
#
# number of rings (size 3 to 8) (size 9 to 14) (size 15 to 20)
#    0.000    1.647    3.529    3.529    0.000    0.941 
#    0.000    2.353    0.000    2.118    0.000    0.000 
#    0.000    0.000    0.000    0.000    0.000    0.235 
#
# Total GULP energy -189560.289809 kJ/mol
# GULP energy per Si atom -5575.302641 kJ/mol
# Density = 1.945027 g / cm^3
# Si number density = 19.494638 Si / 1000 Ang^3
#
#
#
# Elastic Constant Matrix: (Units=GPa)
#
#
# Indices 1 2 3 4 5 6 
#
# 1 135.8577 2.1709 70.8493 0.0000 0.0000 0.0000
# 2 2.1709 35.0742 14.8239 0.0000 0.0000 0.0000
# 3 70.8493 14.8239 187.1381 0.0000 0.0000 0.0000
# 4 0.0000 0.0000 0.0000 -10.0022 0.0000 0.0000
# 5 0.0000 0.0000 0.0000 0.0000 35.5272 0.0000
# 6 0.0000 0.0000 0.0000 0.0000 0.0000 -31.3226
#
#
#
# Elastic Compliance Matrix: (Units=1/GPa)
#
#
# Indices 1 2 3 4 5 6 
#
# 1 0.009201 0.000934 -0.003557 0.000000 0.000000 0.000000
# 2 0.000934 0.029593 -0.002698 0.000000 0.000000 0.000000
# 3 -0.003557 -0.002698 0.006904 0.000000 0.000000 0.000000
# 4 0.000000 0.000000 0.000000 -0.099978 0.000000 0.000000
# 5 0.000000 0.000000 0.000000 0.000000 0.028147 0.000000
# 6 0.000000 0.000000 0.000000 0.000000 0.000000 -0.031926
#
#
# Mechanical properties :
#
#
# Convention : Reuss Voigt Hill
#
# Bulk Modulus (GPa) = 28.52572 59.30646 43.91609
# Shear Modulus (GPa) = -139.93873 16.85552 -61.54161
#
# Velocity S-wave (km/s) = -8.48169 2.94364 -5.62468
# Velocity P-wave (km/s) = 9.01412 6.48393 4.42792
#
# Compressibility (1/GPa) = 0.03505609
#
# Stress axis : x y z
#
# Youngs Moduli (GPa) = 108.68521 33.79131 144.84032
#
# Poissons Ratio (x) = -0.03156 0.51525
# Poissons Ratio (y) = -0.10151 0.39075
# Poissons Ratio (z) = 0.38664 0.09116
#
# Static dielectric constant tensor:
#      x y z
#    x 1.667590 0.000000 0.000000 
#    y 0.000000 1.724600 0.000000 
#    z 0.000000 0.000000 1.705890 
# 
# From -- ./inp_files/56474.got.cif
#   From: 2010.05.17/outbox.cif.g08.bks.cpg/sg65_29_cif.got.tgz:56474.got - 2010.06.03 17:01:31.
