data_PCOD9490269
_publ_section_title
;
Structure prediction by ZEFSAII (Michael W. Deem and Ramdas Pophale) SiO2 
 PCOD9490269
Probable space group: C M M M
;
_chemical_formula_sum "Si O2"
_cell_formula_units_Z 64
_cell_length_a 22.604948
_cell_length_b 17.330826
_cell_length_c 7.636337
_cell_angle_alpha 90.000000
_cell_angle_beta 90.000000
_cell_angle_gamma 90.000000
_cell_volume 2991.629867
_symmetry_space_group_name_H-M "C M M M"
_symmetry_group_IT_number 65
_symmetry_cell_setting 'orthorhombic'
loop_
_space_group_symop_operation_xyz
x,y,z
-x,-y,z
x,-y,-z
-x,y,-z
-x,-y,-z
x,y,-z
-x,y,z
x,-y,z
1/2+x,1/2+y,z
1/2-x,1/2-y,z
1/2+x,1/2-y,-z
1/2-x,1/2+y,-z
1/2-x,1/2-y,-z
1/2+x,1/2+y,-z
1/2-x,1/2+y,z
1/2+x,1/2-y,z
loop_
_atom_site_type_symbol
_atom_site_label
_atom_site_fract_x
_atom_site_fract_y
_atom_site_fract_z
Si Si1 0.068762 0.000000 0.285374
Si Si2 0.617769 0.176923 0.711648
Si Si3 0.363766 0.651360 0.704402
Si Si4 0.000000 0.411093 0.285721
Si Si5 0.238507 0.588271 0.792125
O O1 0.101864 0.922847 0.221957
O O2 0.072249 0.000000 0.500000
O O3 0.000000 0.000000 0.237944
O O4 0.615348 0.179863 0.500000
O O5 0.621650 0.264651 0.779425
O O6 0.559117 0.132801 0.772172
O O7 0.676787 0.130136 0.756970
O O8 0.380573 0.654865 0.500000
O O9 0.294085 0.634163 0.715795
O O10 0.000000 0.500000 0.229792
O O11 0.000000 0.410941 0.500000
O O12 0.237892 0.500000 0.725432
O O13 0.247540 0.585784 0.000000
#
# Coordination Sequence:
#
# PCOD9490269 Si02
#       5
#     8  16  16   8  16
#     4   9  18  32  55  85 117 148 177 218 275 327
#     4  10  21  35  57  85 112 142 183 229 274 326
#     4  10  20  35  57  85 113 144 182 225 273 327
#     4   9  18  34  55  82 114 145 176 221 277 327
#     4  11  23  38  56  79 110 148 188 229 275 325
#
# _framework density 21.393021999999998
#
# number of rings (size 3 to 8) (size 9 to 14) (size 15 to 20)
#    0.000    2.000    1.250    2.250    1.750    6.500 
#    0.000    0.625    0.000    3.750    0.000    0.000 
#    0.000    0.000    0.000    0.000    0.000    0.000 
#
# Total GULP energy -178858.627990 kJ/mol
# GULP energy per Si atom -5589.332125 kJ/mol
# Density = 2.134433 g / cm^3
# Si number density = 21.393022 Si / 1000 Ang^3
#
#
#
# Elastic Constant Matrix: (Units=GPa)
#
#
# Indices 1 2 3 4 5 6 
#
# 1 145.3890 95.3992 -19.3249 0.0000 0.0000 0.0000
# 2 95.3992 219.8495 1.0149 0.0000 0.0000 0.0000
# 3 -19.3249 1.0149 43.3224 0.0000 0.0000 0.0000
# 4 0.0000 0.0000 0.0000 4.5614 0.0000 0.0000
# 5 0.0000 0.0000 0.0000 0.0000 -72.5575 0.0000
# 6 0.0000 0.0000 0.0000 0.0000 0.0000 1.6175
#
#
#
# Elastic Compliance Matrix: (Units=1/GPa)
#
#
# Indices 1 2 3 4 5 6 
#
# 1 0.010529 -0.004591 0.004804 0.000000 0.000000 0.000000
# 2 -0.004591 0.006551 -0.002201 0.000000 0.000000 0.000000
# 3 0.004804 -0.002201 0.025277 0.000000 0.000000 0.000000
# 4 0.000000 0.000000 0.000000 0.219231 0.000000 0.000000
# 5 0.000000 0.000000 0.000000 0.000000 -0.013782 0.000000
# 6 0.000000 0.000000 0.000000 0.000000 0.000000 0.618248
#
#
# Mechanical properties :
#
#
# Convention : Reuss Voigt Hill
#
# Bulk Modulus (GPa) = 26.05448 62.52660 44.29054
# Shear Modulus (GPa) = 5.66364 8.82239 7.24302
#
# Velocity S-wave (km/s) = 1.62886 2.03296 1.84202
# Velocity P-wave (km/s) = 3.96774 5.89929 5.02715
#
# Compressibility (1/GPa) = 0.03838112
#
# Stress axis : x y z
#
# Youngs Moduli (GPa) = 94.97385 152.64959 39.56105
#
# Poissons Ratio (x) = 0.70083 -0.19006
# Poissons Ratio (y) = 0.43604 0.08709
# Poissons Ratio (z) = -0.45629 0.33605
#
# Static dielectric constant tensor:
#      x y z
#    x 1.705240 0.000000 0.000000 
#    y 0.000000 1.767950 0.000000 
#    z 0.000000 0.000000 1.794530 
# 
# From -- ./inp_files/6727.got.cif
#   From: 2010.05.17/outbox.cif.g08.bks.cpg/sg65_4_cif.got.tgz:6727.got - 2010.06.03 17:01:31.
