data_PCOD9490454
_publ_section_title
;
Structure prediction by ZEFSAII (Michael W. Deem and Ramdas Pophale) SiO2 
 PCOD9490454
Probable space group: C M M M
;
_chemical_formula_sum "Si O2"
_cell_formula_units_Z 104
_cell_length_a 8.930555
_cell_length_b 26.598947
_cell_length_c 22.588379
_cell_angle_alpha 90.000000
_cell_angle_beta 90.000000
_cell_angle_gamma 90.000000
_cell_volume 5365.719425
_symmetry_space_group_name_H-M "C M M M"
_symmetry_group_IT_number 65
_symmetry_cell_setting 'orthorhombic'
loop_
_space_group_symop_operation_xyz
x,y,z
-x,-y,z
x,-y,-z
-x,y,-z
-x,-y,-z
x,y,-z
-x,y,z
x,-y,z
1/2+x,1/2+y,z
1/2-x,1/2-y,z
1/2+x,1/2-y,-z
1/2-x,1/2+y,-z
1/2-x,1/2-y,-z
1/2+x,1/2+y,-z
1/2-x,1/2+y,z
1/2+x,1/2-y,z
loop_
_atom_site_type_symbol
_atom_site_label
_atom_site_fract_x
_atom_site_fract_y
_atom_site_fract_z
Si Si1 0.178830 0.695763 0.429266
Si Si2 0.675084 0.298198 0.817202
Si Si3 0.172389 0.500000 0.570572
Si Si4 0.180854 0.660889 0.066004
Si Si5 0.676477 0.407769 0.765048
Si Si6 0.819992 0.554583 0.117165
Si Si7 0.319541 0.403345 0.628877
O O1 0.205056 0.688161 0.500000
O O2 0.250000 0.750000 0.413527
O O3 0.251037 0.649161 0.394148
O O4 0.000000 0.696974 0.419695
O O5 0.500000 0.289523 0.824913
O O6 0.750000 0.250000 0.788089
O O7 0.749943 0.307410 0.881012
O O8 0.696537 0.348959 0.780445
O O9 0.169808 0.500000 0.500000
O O10 0.255926 0.449947 0.592003
O O11 0.000000 0.500000 0.592060
O O12 0.227410 0.603013 0.079288
O O13 0.000000 0.663536 0.069251
O O14 0.227401 0.675821 0.000000
O O15 0.500000 0.419818 0.771057
O O16 0.764884 0.437262 0.815682
O O17 0.721036 0.414645 0.697306
O O18 0.768378 0.500000 0.095322
O O19 0.000000 0.554888 0.116645
O O20 0.500000 0.400649 0.625004
#
# Coordination Sequence:
#
# PCOD9490454 Si02
#       7
#    16  16   8  16  16  16  16
#     4  10  21  38  60  86 116 150 188 232 283 339
#     4  10  20  36  56  77 105 141 179 222 271 324
#     4  11  25  43  61  85 119 157 196 239 288 343
#     4   9  18  33  52  76 107 140 177 221 268 322
#     4   9  21  38  54  77 108 141 178 221 271 324
#     4   9  18  32  52  78 105 137 177 220 268 320
#     4  11  23  39  60  87 117 151 193 239 288 343
#
# _framework density 19.382301999999999
#
# number of rings (size 3 to 8) (size 9 to 14) (size 15 to 20)
#    0.000    2.231    0.000    2.077    1.077    7.077 
#    0.000    3.077    0.000    0.000    0.000    4.308 
#    0.000    0.000    0.000    0.000    0.000    0.000 
#
# Total GULP energy -290311.293404 kJ/mol
# GULP energy per Si atom -5582.909489 kJ/mol
# Density = 1.933819 g / cm^3
# Si number density = 19.382302 Si / 1000 Ang^3
#
#
#
# Elastic Constant Matrix: (Units=GPa)
#
#
# Indices 1 2 3 4 5 6 
#
# 1 36.2759 16.8532 12.1873 0.0000 0.0000 0.0000
# 2 16.8532 62.3834 -9.8259 0.0000 0.0000 0.0000
# 3 12.1873 -9.8259 51.9588 0.0000 0.0000 0.0000
# 4 0.0000 0.0000 0.0000 -16.9317 0.0000 0.0000
# 5 0.0000 0.0000 0.0000 0.0000 23.9908 0.0000
# 6 0.0000 0.0000 0.0000 0.0000 0.0000 25.7810
#
#
#
# Elastic Compliance Matrix: (Units=1/GPa)
#
#
# Indices 1 2 3 4 5 6 
#
# 1 0.036559 -0.011572 -0.010763 0.000000 0.000000 0.000000
# 2 -0.011572 0.020185 0.006531 0.000000 0.000000 0.000000
# 3 -0.010763 0.006531 0.023006 0.000000 0.000000 0.000000
# 4 0.000000 0.000000 0.000000 -0.059061 0.000000 0.000000
# 5 0.000000 0.000000 0.000000 0.000000 0.041683 0.000000
# 6 0.000000 0.000000 0.000000 0.000000 0.000000 0.038788
#
#
# Mechanical properties :
#
#
# Convention : Reuss Voigt Hill
#
# Bulk Modulus (GPa) = 20.77206 21.00525 20.88865
# Shear Modulus (GPa) = 33.59891 15.32825 24.46358
#
# Velocity S-wave (km/s) = 4.16803 2.81523 3.55654
# Velocity P-wave (km/s) = 5.82268 4.62907 5.25984
#
# Compressibility (1/GPa) = 0.04814160
#
# Stress axis : x y z
#
# Youngs Moduli (GPa) = 27.35330 49.54218 43.46730
#
# Poissons Ratio (x) = 0.57329 0.46786
# Poissons Ratio (y) = 0.31653 -0.28390
# Poissons Ratio (z) = 0.29441 -0.32358
#
# Static dielectric constant tensor:
#      x y z
#    x 1.654080 0.000000 0.000000 
#    y 0.000000 1.690250 0.000000 
#    z 0.000000 0.000000 1.652840 
# 
# From -- ./inp_files/60383.got.cif
#   From: 2010.05.17/outbox.cif.g08.bks.cpg/sg65_31_cif.got.tgz:60383.got - 2010.06.03 17:01:31.
