data_PCOD9490224
_publ_section_title
;
Structure prediction by ZEFSAII (Michael W. Deem and Ramdas Pophale) SiO2 
 PCOD9490224
Probable space group: C M M M
;
_chemical_formula_sum "Si O2"
_cell_formula_units_Z 96
_cell_length_a 30.968599
_cell_length_b 19.387819
_cell_length_c 7.732274
_cell_angle_alpha 90.000000
_cell_angle_beta 90.000000
_cell_angle_gamma 90.000000
_cell_volume 4642.562407
_symmetry_space_group_name_H-M "C M M M"
_symmetry_group_IT_number 65
_symmetry_cell_setting 'orthorhombic'
loop_
_space_group_symop_operation_xyz
x,y,z
-x,-y,z
x,-y,-z
-x,y,-z
-x,-y,-z
x,y,-z
-x,y,z
x,-y,z
1/2+x,1/2+y,z
1/2-x,1/2-y,z
1/2+x,1/2-y,-z
1/2-x,1/2+y,-z
1/2-x,1/2-y,-z
1/2+x,1/2+y,-z
1/2-x,1/2+y,z
1/2+x,1/2-y,z
loop_
_atom_site_type_symbol
_atom_site_label
_atom_site_fract_x
_atom_site_fract_y
_atom_site_fract_z
Si Si1 0.879430 0.307589 0.705054
Si Si2 0.451048 0.080065 0.791426
Si Si3 0.328807 0.423500 0.790221
Si Si4 0.044714 0.779502 0.700499
Si Si5 0.296122 0.274256 0.205565
Si Si6 0.569204 0.574729 0.207977
O O1 0.874225 0.301651 0.500000
O O2 0.909157 0.375437 0.736436
O O3 0.911959 0.249759 0.780229
O O4 0.832472 0.285340 0.772681
O O5 0.500000 0.101047 0.730804
O O6 0.445627 0.000000 0.740443
O O7 0.452075 0.083112 0.000000
O O8 0.312610 0.500000 0.731159
O O9 0.309518 0.350592 0.725954
O O10 0.379849 0.421669 0.752126
O O11 0.324795 0.423976 0.000000
O O12 0.044566 0.757354 0.500000
O O13 0.046868 0.860969 0.707609
O O14 0.000000 0.755939 0.783578
O O15 0.250000 0.250000 0.276636
O O16 0.291385 0.283867 0.000000
O O17 0.553072 0.500000 0.261675
O O18 0.564390 0.580261 0.000000
#
# Coordination Sequence:
#
# PCOD9490224 Si02
#       6
#    16  16  16  16  16  16
#     4  11  22  36  55  79 111 148 181 221 274 334
#     4   9  19  37  61  88 116 147 186 231 277 330
#     4   8  14  28  51  75 100 132 172 219 267 315
#     4  10  21  34  47  69 103 141 178 212 253 308
#     4  10  20  35  57  83 108 139 185 238 289 339
#     4   9  17  30  49  71  95 129 174 219 258 299
#
# _framework density 20.678235999999998
#
# number of rings (size 3 to 8) (size 9 to 14) (size 15 to 20)
#    0.000    2.500    1.667    2.500    0.000    3.333 
#    0.000    3.333    0.000    3.500    0.000    0.000 
#    0.000    0.000    0.000    0.000    0.000    0.000 
#
# Total GULP energy -267314.420949 kJ/mol
# GULP energy per Si atom -5569.050436 kJ/mol
# Density = 2.063117 g / cm^3
# Si number density = 20.678236 Si / 1000 Ang^3
#
#
#
# Elastic Constant Matrix: (Units=GPa)
#
#
# Indices 1 2 3 4 5 6 
#
# 1 147.0350 60.8788 4.6799 0.0000 0.0000 0.0000
# 2 60.8788 138.1542 -3.0367 0.0000 0.0000 0.0000
# 3 4.6799 -3.0367 29.6962 0.0000 0.0000 0.0000
# 4 0.0000 0.0000 0.0000 16.5431 0.0000 0.0000
# 5 0.0000 0.0000 0.0000 0.0000 6.0085 0.0000
# 6 0.0000 0.0000 0.0000 0.0000 0.0000 27.7843
#
#
#
# Elastic Compliance Matrix: (Units=1/GPa)
#
#
# Indices 1 2 3 4 5 6 
#
# 1 0.008404 -0.003741 -0.001707 0.000000 0.000000 0.000000
# 2 -0.003741 0.008920 0.001502 0.000000 0.000000 0.000000
# 3 -0.001707 0.001502 0.034097 0.000000 0.000000 0.000000
# 4 0.000000 0.000000 0.000000 0.060448 0.000000 0.000000
# 5 0.000000 0.000000 0.000000 0.000000 0.166430 0.000000
# 6 0.000000 0.000000 0.000000 0.000000 0.000000 0.035992
#
#
# Mechanical properties :
#
#
# Convention : Reuss Voigt Hill
#
# Bulk Modulus (GPa) = 22.97347 48.88105 35.92726
# Shear Modulus (GPa) = 14.85031 26.89141 20.87086
#
# Velocity S-wave (km/s) = 2.68276 3.61011 3.18042
# Velocity P-wave (km/s) = 4.55306 6.40839 5.55868
#
# Compressibility (1/GPa) = 0.04352847
#
# Stress axis : x y z
#
# Youngs Moduli (GPa) = 118.98588 112.11035 29.32814
#
# Poissons Ratio (x) = 0.41940 0.05006
# Poissons Ratio (y) = 0.44512 -0.04404
# Poissons Ratio (z) = 0.20311 -0.16835
#
# Static dielectric constant tensor:
#      x y z
#    x 1.774460 0.000000 0.000000 
#    y 0.000000 1.793020 0.000000 
#    z 0.000000 0.000000 1.758080 
# 
# From -- ./inp_files/16345.got.cif
#   From: 2010.05.17/outbox.cif.g08.bks.cpg/sg65_9_cif.got.tgz:16345.got - 2010.06.03 17:01:31.
