data_PCOD9490637
_publ_section_title
;
Structure prediction by ZEFSAII (Michael W. Deem and Ramdas Pophale) SiO2 
 PCOD9490637
Probable space group: C M M M
;
_chemical_formula_sum "Si O2"
_cell_formula_units_Z 72
_cell_length_a 18.772683
_cell_length_b 8.956214
_cell_length_c 24.033034
_cell_angle_alpha 90.000000
_cell_angle_beta 90.000000
_cell_angle_gamma 90.000000
_cell_volume 4040.726069
_symmetry_space_group_name_H-M "C M M M"
_symmetry_group_IT_number 65
_symmetry_cell_setting 'orthorhombic'
loop_
_space_group_symop_operation_xyz
x,y,z
-x,-y,z
x,-y,-z
-x,y,-z
-x,-y,-z
x,y,-z
-x,y,z
x,-y,z
1/2+x,1/2+y,z
1/2-x,1/2-y,z
1/2+x,1/2-y,-z
1/2-x,1/2+y,-z
1/2-x,1/2-y,-z
1/2+x,1/2+y,-z
1/2-x,1/2+y,z
1/2+x,1/2-y,z
loop_
_atom_site_type_symbol
_atom_site_label
_atom_site_fract_x
_atom_site_fract_y
_atom_site_fract_z
Si Si1 0.414871 0.177082 0.399586
Si Si2 0.415703 0.821407 0.169770
Si Si3 0.413382 0.328454 0.284106
Si Si4 0.171952 0.319948 0.938180
Si Si5 0.671704 0.678347 0.500000
O O1 0.500000 0.204175 0.406210
O O2 0.393322 0.233348 0.338225
O O3 0.371493 0.264349 0.446263
O O4 0.403149 0.000000 0.405013
O O5 0.500000 0.792619 0.163940
O O6 0.389209 0.740889 0.225638
O O7 0.376090 0.772804 0.113725
O O8 0.406841 0.000000 0.176518
O O9 0.500000 0.325994 0.282536
O O10 0.390710 0.500000 0.289968
O O11 0.177275 0.500000 0.936346
O O12 0.250000 0.250000 0.932933
O O13 0.143880 0.279998 0.000000
O O14 0.676507 0.500000 0.500000
O O15 0.750000 0.750000 0.500000
#
# Coordination Sequence:
#
# PCOD9490637 Si02
#       5
#    16  16  16  16   8
#     4  10  20  36  59  84 109 139 177 217 257 306
#     4   9  17  30  49  73 100 129 163 206 255 303
#     4   9  17  30  50  77 106 134 167 209 256 304
#     4   9  18  32  49  69  95 129 167 206 249 299
#     4  12  25  40  57  79 111 145 177 216 263 310
#
# _framework density 17.818580999999998
#
# number of rings (size 3 to 8) (size 9 to 14) (size 15 to 20)
#    0.000    2.444    0.000    2.667    0.000    6.667 
#    0.000    3.333    0.000    2.667    0.000    6.222 
#    0.000    0.000    0.000    0.000    0.000    0.000 
#
# Total GULP energy -200808.397316 kJ/mol
# GULP energy per Si atom -5578.011037 kJ/mol
# Density = 1.777802 g / cm^3
# Si number density = 17.818581 Si / 1000 Ang^3
#
#
#
# Elastic Constant Matrix: (Units=GPa)
#
#
# Indices 1 2 3 4 5 6 
#
# 1 42.8744 47.9719 63.5231 0.0000 0.0000 0.0000
# 2 47.9719 88.9240 79.2754 0.0000 0.0000 0.0000
# 3 63.5231 79.2754 186.7949 0.0000 0.0000 0.0000
# 4 0.0000 0.0000 0.0000 27.3023 0.0000 0.0000
# 5 0.0000 0.0000 0.0000 0.0000 -20.4348 0.0000
# 6 0.0000 0.0000 0.0000 0.0000 0.0000 22.3182
#
#
#
# Elastic Compliance Matrix: (Units=1/GPa)
#
#
# Indices 1 2 3 4 5 6 
#
# 1 0.075274 -0.028613 -0.013455 0.000000 0.000000 0.000000
# 2 -0.028613 0.028966 -0.002563 0.000000 0.000000 0.000000
# 3 -0.013455 -0.002563 0.011017 0.000000 0.000000 0.000000
# 4 0.000000 0.000000 0.000000 0.036627 0.000000 0.000000
# 5 0.000000 0.000000 0.000000 0.000000 -0.048936 0.000000
# 6 0.000000 0.000000 0.000000 0.000000 0.000000 0.044807
#
#
# Mechanical properties :
#
#
# Convention : Reuss Voigt Hill
#
# Bulk Modulus (GPa) = 38.46858 77.79269 58.13063
# Shear Modulus (GPa) = 20.35163 14.35867 17.35515
#
# Velocity S-wave (km/s) = 3.38325 2.84179 3.12427
# Velocity P-wave (km/s) = 6.07435 7.38381 6.76086
#
# Compressibility (1/GPa) = 0.02599524
#
# Stress axis : x y z
#
# Youngs Moduli (GPa) = 13.28483 34.52312 90.77097
#
# Poissons Ratio (x) = 0.98781 1.22132
# Poissons Ratio (y) = 0.38012 0.23263
# Poissons Ratio (z) = 0.17875 0.08848
#
# Static dielectric constant tensor:
#      x y z
#    x 1.584690 0.000000 0.000000 
#    y 0.000000 1.598140 0.000000 
#    z 0.000000 0.000000 1.609040 
# 
# From -- ./inp_files/64332.got.cif
#   From: 2010.05.17/outbox.cif.g08.bks.cpg/sg65_33_cif.got.tgz:64332.got - 2010.06.03 17:01:31.
