data_PCOD9490456
_publ_section_title
;
Structure prediction by ZEFSAII (Michael W. Deem and Ramdas Pophale) SiO2 
 PCOD9490456
Probable space group: C M M M
;
_chemical_formula_sum "Si O2"
_cell_formula_units_Z 80
_cell_length_a 8.754299
_cell_length_b 25.476122
_cell_length_c 20.779872
_cell_angle_alpha 90.000000
_cell_angle_beta 90.000000
_cell_angle_gamma 90.000000
_cell_volume 4634.443199
_symmetry_space_group_name_H-M "C M M M"
_symmetry_group_IT_number 65
_symmetry_cell_setting 'orthorhombic'
loop_
_space_group_symop_operation_xyz
x,y,z
-x,-y,z
x,-y,-z
-x,y,-z
-x,-y,-z
x,y,-z
-x,y,z
x,-y,z
1/2+x,1/2+y,z
1/2-x,1/2-y,z
1/2+x,1/2-y,-z
1/2-x,1/2+y,-z
1/2-x,1/2-y,-z
1/2+x,1/2+y,-z
1/2-x,1/2+y,z
1/2+x,1/2-y,z
loop_
_atom_site_type_symbol
_atom_site_label
_atom_site_fract_x
_atom_site_fract_y
_atom_site_fract_z
Si Si1 0.816172 0.191223 0.000000
Si Si2 0.684886 0.691417 0.859291
Si Si3 0.176559 0.500000 0.598673
Si Si4 0.324909 0.000000 0.754873
Si Si5 0.682815 0.191299 0.500000
Si Si6 0.316449 0.390160 0.247449
Si Si7 0.316358 0.611767 0.397465
O O1 0.750000 0.250000 0.000000
O O2 0.771014 0.168958 0.930130
O O3 0.000000 0.193592 0.000000
O O4 0.500000 0.694259 0.857014
O O5 0.750000 0.750000 0.853565
O O6 0.737523 0.654899 0.800887
O O7 0.179827 0.500000 0.676727
O O8 0.258150 0.445678 0.579939
O O9 0.000000 0.500000 0.578103
O O10 0.243441 0.053389 0.774883
O O11 0.500000 0.000000 0.775219
O O12 0.500000 0.193485 0.500000
O O13 0.750000 0.250000 0.500000
O O14 0.742519 0.157726 0.439214
O O15 0.500000 0.391150 0.246337
O O16 0.272405 0.381974 0.322143
O O17 0.500000 0.613477 0.402910
#
# Coordination Sequence:
#
# PCOD9490456 Si02
#       7
#     8  16   8   8   8  16  16
#     4   8  14  26  44  65  94 127 161 198 238 284
#     4   9  17  29  46  71  99 129 162 199 242 288
#     4   9  17  32  54  81 106 128 159 203 250 294
#     4   9  17  29  48  73 100 129 163 201 244 289
#     4  12  26  43  58  73  98 134 170 204 244 296
#     4   9  18  32  51  74 101 130 162 200 244 290
#     4  10  20  36  56  78 102 130 164 205 250 296
#
# _framework density 17.262051
#
# number of rings (size 3 to 8) (size 9 to 14) (size 15 to 20)
#    0.000    2.600    0.000    2.100    0.000    5.200 
#    0.000    4.000    0.000    0.600    0.000    4.200 
#    0.000    0.000    0.000    0.000    0.000    0.000 
#
# Total GULP energy -222933.439148 kJ/mol
# GULP energy per Si atom -5573.335979 kJ/mol
# Density = 1.722276 g / cm^3
# Si number density = 17.262051 Si / 1000 Ang^3
#
#
#
# Elastic Constant Matrix: (Units=GPa)
#
#
# Indices 1 2 3 4 5 6 
#
# 1 47.5216 43.4421 35.6391 0.0000 0.0000 0.0000
# 2 43.4421 144.9494 80.7865 0.0000 0.0000 0.0000
# 3 35.6391 80.7865 118.3878 0.0000 0.0000 0.0000
# 4 0.0000 0.0000 0.0000 -35.2571 0.0000 0.0000
# 5 0.0000 0.0000 0.0000 0.0000 15.3473 0.0000
# 6 0.0000 0.0000 0.0000 0.0000 0.0000 29.7865
#
#
#
# Elastic Compliance Matrix: (Units=1/GPa)
#
#
# Indices 1 2 3 4 5 6 
#
# 1 0.030561 -0.006506 -0.004760 0.000000 0.000000 0.000000
# 2 -0.006506 0.012518 -0.006584 0.000000 0.000000 0.000000
# 3 -0.004760 -0.006584 0.014372 0.000000 0.000000 0.000000
# 4 0.000000 0.000000 0.000000 -0.028363 0.000000 0.000000
# 5 0.000000 0.000000 0.000000 0.000000 0.065158 0.000000
# 6 0.000000 0.000000 0.000000 0.000000 0.000000 0.033572
#
#
# Mechanical properties :
#
#
# Convention : Reuss Voigt Hill
#
# Bulk Modulus (GPa) = 45.97430 70.06602 58.02016
# Shear Modulus (GPa) = 29.27929 12.04141 20.66035
#
# Velocity S-wave (km/s) = 4.12292 2.64401 3.46333
# Velocity P-wave (km/s) = 7.02536 7.07098 7.04821
#
# Compressibility (1/GPa) = 0.02175128
#
# Stress axis : x y z
#
# Youngs Moduli (GPa) = 32.72186 79.88316 69.57734
#
# Poissons Ratio (x) = 0.51973 0.33120
# Poissons Ratio (y) = 0.21289 0.45808
# Poissons Ratio (z) = 0.15576 0.52593
#
# Static dielectric constant tensor:
#      x y z
#    x 1.577240 0.000000 0.000000 
#    y 0.000000 1.547650 0.000000 
#    z 0.000000 0.000000 1.628330 
# 
# From -- ./inp_files/59745.got.cif
#   From: 2010.05.17/outbox.cif.g08.bks.cpg/sg65_30_cif.got.tgz:59745.got - 2010.06.03 17:01:31.
