data_PCOD9490167
_publ_section_title
;
Structure prediction by ZEFSAII (Michael W. Deem and Ramdas Pophale) SiO2 
 PCOD9490167
Probable space group: C M M M
;
_chemical_formula_sum "Si O2"
_cell_formula_units_Z 52
_cell_length_a 12.343780
_cell_length_b 24.872362
_cell_length_c 7.335855
_cell_angle_alpha 90.000000
_cell_angle_beta 90.000000
_cell_angle_gamma 90.000000
_cell_volume 2252.246607
_symmetry_space_group_name_H-M "C M M M"
_symmetry_group_IT_number 65
_symmetry_cell_setting 'orthorhombic'
loop_
_space_group_symop_operation_xyz
x,y,z
-x,-y,z
x,-y,-z
-x,y,-z
-x,-y,-z
x,y,-z
-x,y,z
x,-y,z
1/2+x,1/2+y,z
1/2-x,1/2-y,z
1/2+x,1/2-y,-z
1/2-x,1/2+y,-z
1/2-x,1/2-y,-z
1/2+x,1/2+y,-z
1/2-x,1/2+y,z
1/2+x,1/2-y,z
loop_
_atom_site_type_symbol
_atom_site_label
_atom_site_fract_x
_atom_site_fract_y
_atom_site_fract_z
Si Si1 0.500000 0.000000 0.748538
Si Si2 0.500000 0.124737 0.275570
Si Si3 0.758384 0.500000 0.778248
Si Si4 0.376168 0.605322 0.220389
Si Si5 0.792856 0.694531 0.292688
O O1 0.500000 0.064405 0.805616
O O2 0.624694 0.000000 0.687780
O O3 0.500000 0.117661 0.500000
O O4 0.394001 0.159389 0.220709
O O5 0.689380 0.552026 0.729842
O O6 0.777106 0.500000 0.000000
O O7 0.500000 0.603464 0.280797
O O8 0.309876 0.655565 0.291822
O O9 0.376045 0.608105 0.000000
O O10 0.826702 0.708000 0.500000
O O11 0.750000 0.750000 0.206890
#
# Coordination Sequence:
#
# PCOD9490167 Si02
#       5
#     4   8   8  16  16
#     4  12  18  34  60  84 114 152 188 240 286 356
#     4  10  21  37  57  86 117 152 189 236 296 344
#     4  10  20  35  56  83 114 148 189 233 285 346
#     4  10  21  38  59  83 114 151 190 234 286 340
#     4  10  22  39  60  84 114 152 194 237 285 341
#
# _framework density 23.088058
#
# number of rings (size 3 to 8) (size 9 to 14) (size 15 to 20)
#    0.000    1.846    3.077    0.923    2.154    3.077 
#    0.000    1.538    0.000    1.846    0.000    0.000 
#    0.000    0.000    0.000    0.000    0.000    0.000 
#
# Total GULP energy -145026.875269 kJ/mol
# GULP energy per Si atom -5577.956741 kJ/mol
# Density = 2.303551 g / cm^3
# Si number density = 23.088058 Si / 1000 Ang^3
#
#
#
# Elastic Constant Matrix: (Units=GPa)
#
#
# Indices 1 2 3 4 5 6 
#
# 1 232.7110 105.0168 14.4113 0.0000 0.0000 0.0000
# 2 105.0168 239.7509 17.4185 0.0000 0.0000 0.0000
# 3 14.4113 17.4185 96.1293 0.0000 0.0000 0.0000
# 4 0.0000 0.0000 0.0000 25.6759 0.0000 0.0000
# 5 0.0000 0.0000 0.0000 0.0000 4.6216 0.0000
# 6 0.0000 0.0000 0.0000 0.0000 0.0000 26.5965
#
#
#
# Elastic Compliance Matrix: (Units=1/GPa)
#
#
# Indices 1 2 3 4 5 6 
#
# 1 0.005370 -0.002324 -0.000384 0.000000 0.000000 0.000000
# 2 -0.002324 0.005233 -0.000600 0.000000 0.000000 0.000000
# 3 -0.000384 -0.000600 0.010569 0.000000 0.000000 0.000000
# 4 0.000000 0.000000 0.000000 0.038947 0.000000 0.000000
# 5 0.000000 0.000000 0.000000 0.000000 0.216375 0.000000
# 6 0.000000 0.000000 0.000000 0.000000 0.000000 0.037599
#
#
# Mechanical properties :
#
#
# Convention : Reuss Voigt Hill
#
# Bulk Modulus (GPa) = 68.70158 93.58715 81.14436
# Shear Modulus (GPa) = 15.35818 40.16179 27.75998
#
# Velocity S-wave (km/s) = 2.58195 4.17526 3.47126
# Velocity P-wave (km/s) = 6.22170 7.99166 7.16157
#
# Compressibility (1/GPa) = 0.01455571
#
# Stress axis : x y z
#
# Youngs Moduli (GPa) = 186.22629 191.10845 94.61754
#
# Poissons Ratio (x) = 0.44418 0.03632
# Poissons Ratio (y) = 0.43283 0.05674
# Poissons Ratio (z) = 0.07149 0.11461
#
# Static dielectric constant tensor:
#      x y z
#    x 1.786190 0.000000 0.000000 
#    y 0.000000 1.817800 0.000000 
#    z 0.000000 0.000000 1.960750 
# 
# From -- ./inp_files/4304.got.cif
#   From: 2010.05.17/outbox.cif.g08.bks.cpg/sg65_3_cif.got.tgz:4304.got - 2010.06.03 17:01:31.
