data_PCOD9490760
_publ_section_title
;
Structure prediction by ZEFSAII (Michael W. Deem and Ramdas Pophale) SiO2 
 PCOD9490760
Probable space group: C M M M
;
_chemical_formula_sum "Si O2"
_cell_formula_units_Z 88
_cell_length_a 28.440577
_cell_length_b 18.815545
_cell_length_c 9.700562
_cell_angle_alpha 90.000000
_cell_angle_beta 90.000000
_cell_angle_gamma 90.000000
_cell_volume 5191.012817
_symmetry_space_group_name_H-M "C M M M"
_symmetry_group_IT_number 65
_symmetry_cell_setting 'orthorhombic'
loop_
_space_group_symop_operation_xyz
x,y,z
-x,-y,z
x,-y,-z
-x,y,-z
-x,-y,-z
x,y,-z
-x,y,z
x,-y,z
1/2+x,1/2+y,z
1/2-x,1/2-y,z
1/2+x,1/2-y,-z
1/2-x,1/2+y,-z
1/2-x,1/2-y,-z
1/2+x,1/2+y,-z
1/2-x,1/2+y,z
1/2+x,1/2-y,z
loop_
_atom_site_type_symbol
_atom_site_label
_atom_site_fract_x
_atom_site_fract_y
_atom_site_fract_z
Si Si1 0.000000 0.085075 0.160257
Si Si2 0.728748 0.913562 0.158357
Si Si3 0.376928 0.083995 0.834515
Si Si4 0.082652 0.846812 0.337295
Si Si5 0.682346 0.415874 0.663219
Si Si6 0.444475 0.183059 0.661903
O O1 0.954707 0.113936 0.241184
O O2 0.000000 0.000000 0.163812
O O3 0.000000 0.107908 0.000000
O O4 0.676280 0.892511 0.204118
O O5 0.772027 0.891197 0.252884
O O6 0.728253 0.000000 0.158880
O O7 0.735744 0.891059 0.000000
O O8 0.415395 0.129195 0.755102
O O9 0.381713 0.000000 0.804008
O O10 0.380959 0.092021 0.000000
O O11 0.073874 0.863361 0.500000
O O12 0.135168 0.872761 0.304019
O O13 0.075138 0.762778 0.319886
O O14 0.691278 0.409476 0.500000
O O15 0.674388 0.500000 0.692539
O O16 0.439480 0.164698 0.500000
O O17 0.500000 0.183030 0.694765
#
# Coordination Sequence:
#
# PCOD9490760 Si02
#       6
#     8  16  16  16  16  16
#     4  11  23  35  51  79 108 135 178 229 265 300
#     4   8  15  30  51  74 103 136 167 207 260 311
#     4   9  19  36  57  80 104 134 173 212 259 323
#     4  10  20  37  55  73 104 145 181 214 259 315
#     4   9  17  29  50  79 104 132 175 218 255 301
#     4  10  21  37  55  76 103 137 176 218 265 314
#
# _framework density 16.952376999999998
#
# number of rings (size 3 to 8) (size 9 to 14) (size 15 to 20)
#    0.000    2.636    0.909    1.909    0.000    4.727 
#    0.000    6.364    0.000    5.455    0.000    0.000 
#    0.000    0.000    0.000    0.000    0.000    0.000 
#
# Total GULP energy -245328.628452 kJ/mol
# GULP energy per Si atom -5575.650647 kJ/mol
# Density = 1.691379 g / cm^3
# Si number density = 16.952377 Si / 1000 Ang^3
#
#
#
# Elastic Constant Matrix: (Units=GPa)
#
#
# Indices 1 2 3 4 5 6 
#
# 1 170.2780 74.5391 81.8142 0.0000 0.0000 0.0000
# 2 74.5391 58.9335 53.8304 0.0000 0.0000 0.0000
# 3 81.8142 53.8304 62.7510 0.0000 0.0000 0.0000
# 4 0.0000 0.0000 0.0000 23.5617 0.0000 0.0000
# 5 0.0000 0.0000 0.0000 0.0000 102.3214 0.0000
# 6 0.0000 0.0000 0.0000 0.0000 0.0000 -504.1225
#
#
#
# Elastic Compliance Matrix: (Units=1/GPa)
#
#
# Indices 1 2 3 4 5 6 
#
# 1 0.016097 -0.005497 -0.016272 0.000000 0.000000 0.000000
# 2 -0.005497 0.080274 -0.061696 0.000000 0.000000 0.000000
# 3 -0.016272 -0.061696 0.090077 0.000000 0.000000 0.000000
# 4 0.000000 0.000000 0.000000 0.042442 0.000000 0.000000
# 5 0.000000 0.000000 0.000000 0.000000 0.009773 0.000000
# 6 0.000000 0.000000 0.000000 0.000000 0.000000 -0.001984
#
#
# Mechanical properties :
#
#
# Convention : Reuss Voigt Hill
#
# Bulk Modulus (GPa) = 51.23305 79.14777 65.19041
# Shear Modulus (GPa) = 12.19169 -70.19596 -29.00214
#
# Velocity S-wave (km/s) = 2.68465 -6.44187 -4.14067
# Velocity P-wave (km/s) = 6.31642 2.92242 3.95959
#
# Compressibility (1/GPa) = 0.01951865
#
# Stress axis : x y z
#
# Youngs Moduli (GPa) = 62.12202 12.45734 11.10161
#
# Poissons Ratio (x) = 0.06847 0.18065
# Poissons Ratio (y) = 0.34146 0.68492
# Poissons Ratio (z) = 1.01087 0.76857
#
# Static dielectric constant tensor:
#      x y z
#    x 1.560420 0.000000 0.000000 
#    y 0.000000 1.557280 0.000000 
#    z 0.000000 0.000000 1.564200 
# 
# From -- ./inp_files/12638.got.cif
#   From: 2010.05.17/outbox.cif.g08.bks.cpg/sg65_7_cif.got.tgz:12638.got - 2010.06.03 17:01:31.
