data_PCOD9490394
_publ_section_title
;
Structure prediction by ZEFSAII (Michael W. Deem and Ramdas Pophale) SiO2 
 PCOD9490394
Probable space group: C M M M
;
_chemical_formula_sum "Si O2"
_cell_formula_units_Z 88
_cell_length_a 14.332777
_cell_length_b 18.365879
_cell_length_c 17.390501
_cell_angle_alpha 90.000000
_cell_angle_beta 90.000000
_cell_angle_gamma 90.000000
_cell_volume 4577.771977
_symmetry_space_group_name_H-M "C M M M"
_symmetry_group_IT_number 65
_symmetry_cell_setting 'orthorhombic'
loop_
_space_group_symop_operation_xyz
x,y,z
-x,-y,z
x,-y,-z
-x,y,-z
-x,-y,-z
x,y,-z
-x,y,z
x,-y,z
1/2+x,1/2+y,z
1/2-x,1/2-y,z
1/2+x,1/2-y,-z
1/2-x,1/2+y,-z
1/2-x,1/2-y,-z
1/2+x,1/2+y,-z
1/2-x,1/2+y,z
1/2+x,1/2-y,z
loop_
_atom_site_type_symbol
_atom_site_label
_atom_site_fract_x
_atom_site_fract_y
_atom_site_fract_z
Si Si1 0.110488 0.308780 0.791443
Si Si2 0.218413 0.671896 0.630355
Si Si3 0.603087 0.414286 0.315955
Si Si4 0.894229 0.146054 0.145206
Si Si5 0.705910 0.913532 0.086750
Si Si6 0.611547 0.914467 0.500000
O O1 0.166375 0.314486 0.711673
O O2 0.125154 0.229542 0.830084
O O3 0.147492 0.369701 0.850016
O O4 0.000000 0.316430 0.777421
O O5 0.250000 0.750000 0.598708
O O6 0.312577 0.627133 0.645230
O O7 0.153256 0.626465 0.573819
O O8 0.500000 0.388100 0.340771
O O9 0.609563 0.500000 0.330069
O O10 0.608807 0.399052 0.224806
O O11 0.812034 0.115269 0.093282
O O12 0.000000 0.141500 0.114138
O O13 0.703791 0.000000 0.101267
O O14 0.671122 0.900142 0.000000
O O15 0.500000 0.909853 0.500000
O O16 0.637730 0.000000 0.500000
#
# Coordination Sequence:
#
# PCOD9490394 Si02
#       6
#    16  16  16  16  16   8
#     4  11  23  40  64  90 119 160 208 255 305 365
#     4  12  22  41  68  95 124 160 206 257 306 367
#     4  10  20  35  60  92 123 154 193 246 306 367
#     4  10  20  37  60  89 120 154 200 253 309 369
#     4  11  24  40  58  86 124 163 207 258 309 364
#     4  11  27  46  63  91 131 173 212 253 298 352
#
# _framework density 19.223324999999999
#
# number of rings (size 3 to 8) (size 9 to 14) (size 15 to 20)
#    0.000    1.182    3.636    2.455    0.000    5.091 
#    0.000    4.091    0.000    1.636    0.000    0.000 
#    0.000    0.000    0.000    0.000    0.000    0.000 
#
# Total GULP energy -245952.336360 kJ/mol
# GULP energy per Si atom -5589.825826 kJ/mol
# Density = 1.917957 g / cm^3
# Si number density = 19.223325 Si / 1000 Ang^3
#
#
#
# Elastic Constant Matrix: (Units=GPa)
#
#
# Indices 1 2 3 4 5 6 
#
# 1 96.1433 43.9148 22.1340 0.0000 0.0000 0.0000
# 2 43.9148 100.2062 35.4164 0.0000 0.0000 0.0000
# 3 22.1340 35.4164 58.5239 0.0000 0.0000 0.0000
# 4 0.0000 0.0000 0.0000 22.4516 0.0000 0.0000
# 5 0.0000 0.0000 0.0000 0.0000 3.1532 0.0000
# 6 0.0000 0.0000 0.0000 0.0000 0.0000 28.9650
#
#
#
# Elastic Compliance Matrix: (Units=1/GPa)
#
#
# Indices 1 2 3 4 5 6 
#
# 1 0.013167 -0.005101 -0.001893 0.000000 0.000000 0.000000
# 2 -0.005101 0.014671 -0.006949 0.000000 0.000000 0.000000
# 3 -0.001893 -0.006949 0.022008 0.000000 0.000000 0.000000
# 4 0.000000 0.000000 0.000000 0.044540 0.000000 0.000000
# 5 0.000000 0.000000 0.000000 0.000000 0.317143 0.000000
# 6 0.000000 0.000000 0.000000 0.000000 0.000000 0.034524
#
#
# Mechanical properties :
#
#
# Convention : Reuss Voigt Hill
#
# Bulk Modulus (GPa) = 45.53718 50.86712 48.20215
# Shear Modulus (GPa) = 10.38939 21.14114 15.76527
#
# Velocity S-wave (km/s) = 2.32730 3.31987 2.86687
# Velocity P-wave (km/s) = 5.56432 6.41981 6.00731
#
# Compressibility (1/GPa) = 0.02196008
#
# Stress axis : x y z
#
# Youngs Moduli (GPa) = 75.94732 68.16102 45.43773
#
# Poissons Ratio (x) = 0.34772 0.08600
# Poissons Ratio (y) = 0.38744 0.31575
# Poissons Ratio (z) = 0.14374 0.47365
#
# Static dielectric constant tensor:
#      x y z
#    x 1.669590 0.000000 0.000000 
#    y 0.000000 1.654320 0.000000 
#    z 0.000000 0.000000 1.675110 
# 
# From -- ./inp_files/52973.got.cif
#   From: 2010.05.17/outbox.cif.g08.bks.cpg/sg65_27_cif.got.tgz:52973.got - 2010.06.03 17:01:31.
