data_PCOD9490321
_publ_section_title
;
Structure prediction by ZEFSAII (Michael W. Deem and Ramdas Pophale) SiO2 
 PCOD9490321
Probable space group: C M M M
;
_chemical_formula_sum "Si O2"
_cell_formula_units_Z 88
_cell_length_a 8.944300
_cell_length_b 23.951738
_cell_length_c 23.149348
_cell_angle_alpha 90.000000
_cell_angle_beta 90.000000
_cell_angle_gamma 90.000000
_cell_volume 4959.320245
_symmetry_space_group_name_H-M "C M M M"
_symmetry_group_IT_number 65
_symmetry_cell_setting 'orthorhombic'
loop_
_space_group_symop_operation_xyz
x,y,z
-x,-y,z
x,-y,-z
-x,y,-z
-x,-y,-z
x,y,-z
-x,y,z
x,-y,z
1/2+x,1/2+y,z
1/2-x,1/2-y,z
1/2+x,1/2-y,-z
1/2-x,1/2+y,-z
1/2-x,1/2-y,-z
1/2+x,1/2+y,-z
1/2-x,1/2+y,z
1/2+x,1/2-y,z
loop_
_atom_site_type_symbol
_atom_site_label
_atom_site_fract_x
_atom_site_fract_y
_atom_site_fract_z
Si Si1 0.178783 0.882429 0.836016
Si Si2 0.321609 0.689146 0.721822
Si Si3 0.321752 0.190509 0.067521
Si Si4 0.820056 0.500000 0.347045
Si Si5 0.680648 0.500000 0.219082
Si Si6 0.180413 0.622183 0.615835
Si Si7 0.819453 0.688314 0.500000
O O1 0.210779 0.841794 0.782034
O O2 0.259483 0.857918 0.891805
O O3 0.223592 0.944342 0.815750
O O4 0.000000 0.882362 0.845717
O O5 0.500000 0.692991 0.715275
O O6 0.250000 0.750000 0.721381
O O7 0.254065 0.653212 0.669812
O O8 0.500000 0.194544 0.072995
O O9 0.250000 0.250000 0.084649
O O10 0.284571 0.181028 0.000000
O O11 0.749670 0.500000 0.283087
O O12 0.778256 0.556855 0.380171
O O13 0.000000 0.500000 0.340742
O O14 0.500000 0.500000 0.225341
O O15 0.224065 0.653453 0.556974
O O16 0.000000 0.625840 0.620616
O O17 0.750000 0.750000 0.500000
O O18 0.000000 0.693505 0.500000
#
# Coordination Sequence:
#
# PCOD9490321 Si02
#       7
#    16  16  16   8   8  16   8
#     4  10  21  36  57  83 111 147 187 230 279 331
#     4  11  22  35  54  81 112 144 182 231 282 332
#     4  10  21  37  58  84 115 150 188 232 280 331
#     4  10  20  35  58  85 111 144 185 229 281 334
#     4  10  20  38  58  82 115 149 185 228 279 330
#     4  10  21  37  57  82 111 145 186 229 278 334
#     4  10  22  39  57  79 111 148 187 232 279 334
#
# _framework density 17.744365999999999
#
# number of rings (size 3 to 8) (size 9 to 14) (size 15 to 20)
#    0.000    1.818    1.818    2.182    0.000    7.273 
#    0.000    2.273    0.000    2.727    0.000    2.545 
#    0.000    0.000    0.000    0.000    0.000    0.000 
#
# Total GULP energy -245753.137342 kJ/mol
# GULP energy per Si atom -5585.298576 kJ/mol
# Density = 1.770398 g / cm^3
# Si number density = 17.744366 Si / 1000 Ang^3
#
#
#
# Elastic Constant Matrix: (Units=GPa)
#
#
# Indices 1 2 3 4 5 6 
#
# 1 20.7791 45.6144 42.1209 0.0000 0.0000 0.0000
# 2 45.6144 186.3567 80.4985 0.0000 0.0000 0.0000
# 3 42.1209 80.4985 109.5824 0.0000 0.0000 0.0000
# 4 0.0000 0.0000 0.0000 30.4960 0.0000 0.0000
# 5 0.0000 0.0000 0.0000 0.0000 24.4027 0.0000
# 6 0.0000 0.0000 0.0000 0.0000 0.0000 18.5010
#
#
#
# Elastic Compliance Matrix: (Units=1/GPa)
#
#
# Indices 1 2 3 4 5 6 
#
# 1 0.345238 -0.039816 -0.103453 0.000000 0.000000 0.000000
# 2 -0.039816 0.012452 0.006157 0.000000 0.000000 0.000000
# 3 -0.103453 0.006157 0.044367 0.000000 0.000000 0.000000
# 4 0.000000 0.000000 0.000000 0.032791 0.000000 0.000000
# 5 0.000000 0.000000 0.000000 0.000000 0.040979 0.000000
# 6 0.000000 0.000000 0.000000 0.000000 0.000000 0.054051
#
#
# Mechanical properties :
#
#
# Convention : Reuss Voigt Hill
#
# Bulk Modulus (GPa) = 7.82265 72.57619 40.19942
# Shear Modulus (GPa) = 5.90518 24.57890 15.24204
#
# Velocity S-wave (km/s) = 1.82624 3.72582 2.93401
# Velocity P-wave (km/s) = 2.97741 7.71354 5.84652
#
# Compressibility (1/GPa) = 0.12783396
#
# Stress axis : x y z
#
# Youngs Moduli (GPa) = 2.89655 80.30674 22.53912
#
# Poissons Ratio (x) = 3.19753 2.33173
# Poissons Ratio (y) = 0.11533 -0.13878
# Poissons Ratio (z) = 0.29966 -0.49446
#
# Static dielectric constant tensor:
#      x y z
#    x 1.597660 0.000000 0.000000 
#    y 0.000000 1.593740 0.000000 
#    z 0.000000 0.000000 1.578220 
# 
# From -- ./inp_files/59862.got.cif
#   From: 2010.05.17/outbox.cif.g08.bks.cpg/sg65_30_cif.got.tgz:59862.got - 2010.06.03 17:01:31.
