data_PCOD9490370
_publ_section_title
;
Structure prediction by ZEFSAII (Michael W. Deem and Ramdas Pophale) SiO2 
 PCOD9490370
Probable space group: C M M M
;
_chemical_formula_sum "Si O2"
_cell_formula_units_Z 80
_cell_length_a 23.828415
_cell_length_b 20.923124
_cell_length_c 7.904745
_cell_angle_alpha 90.000000
_cell_angle_beta 90.000000
_cell_angle_gamma 90.000000
_cell_volume 3941.028256
_symmetry_space_group_name_H-M "C M M M"
_symmetry_group_IT_number 65
_symmetry_cell_setting 'orthorhombic'
loop_
_space_group_symop_operation_xyz
x,y,z
-x,-y,z
x,-y,-z
-x,y,-z
-x,-y,-z
x,y,-z
-x,y,z
x,-y,z
1/2+x,1/2+y,z
1/2-x,1/2-y,z
1/2+x,1/2-y,-z
1/2-x,1/2+y,-z
1/2-x,1/2-y,-z
1/2+x,1/2+y,-z
1/2-x,1/2+y,z
1/2+x,1/2-y,z
loop_
_atom_site_type_symbol
_atom_site_label
_atom_site_fract_x
_atom_site_fract_y
_atom_site_fract_z
Si Si1 0.435949 0.247257 0.201151
Si Si2 0.869855 0.127112 0.698749
Si Si3 0.752651 0.073945 0.296703
Si Si4 0.934678 0.000000 0.203495
Si Si5 0.632297 0.875368 0.204671
Si Si6 0.564159 0.000000 0.206674
O O1 0.500000 0.248979 0.269194
O O2 0.403243 0.313421 0.225569
O O3 0.398068 0.188782 0.267900
O O4 0.440931 0.236866 0.000000
O O5 0.864497 0.140440 0.500000
O O6 0.807851 0.110722 0.768221
O O7 0.905175 0.062838 0.725975
O O8 0.758097 0.069905 0.500000
O O9 0.696140 0.112062 0.256786
O O10 0.749853 0.000000 0.233747
O O11 0.000000 0.000000 0.247886
O O12 0.929629 0.000000 0.000000
O O13 0.596620 0.936766 0.261841
O O14 0.631534 0.874286 0.000000
O O15 0.500000 0.000000 0.262523
O O16 0.564097 0.000000 0.000000
#
# Coordination Sequence:
#
# PCOD9490370 Si02
#       6
#    16  16  16   8  16   8
#     4  10  22  40  59  85 123 158 190 239 299 349
#     4  11  23  40  61  85 115 156 201 240 286 348
#     4  10  21  39  59  82 117 153 189 240 297 345
#     4  11  23  38  59  88 118 149 190 243 300 349
#     4  10  20  35  59  88 115 150 196 241 287 345
#     4   9  16  29  53  84 112 143 188 237 284 337
#
# _framework density 20.299271000000001
#
# number of rings (size 3 to 8) (size 9 to 14) (size 15 to 20)
#    0.000    1.800    2.000    2.100    0.000    9.200 
#    0.000    4.000    0.000    2.400    0.000    0.000 
#    0.000    0.000    0.000    0.000    0.000    0.000 
#
# Total GULP energy -223435.297305 kJ/mol
# GULP energy per Si atom -5585.882433 kJ/mol
# Density = 2.025307 g / cm^3
# Si number density = 20.299271 Si / 1000 Ang^3
#
#
#
# Elastic Constant Matrix: (Units=GPa)
#
#
# Indices 1 2 3 4 5 6 
#
# 1 205.8405 87.4429 1.9487 0.0000 0.0000 0.0000
# 2 87.4429 154.7860 -5.9472 0.0000 0.0000 0.0000
# 3 1.9487 -5.9472 17.4792 0.0000 0.0000 0.0000
# 4 0.0000 0.0000 0.0000 12.5058 0.0000 0.0000
# 5 0.0000 0.0000 0.0000 0.0000 29.7650 0.0000
# 6 0.0000 0.0000 0.0000 0.0000 0.0000 -192.3685
#
#
#
# Elastic Compliance Matrix: (Units=1/GPa)
#
#
# Indices 1 2 3 4 5 6 
#
# 1 0.006460 -0.003726 -0.001988 0.000000 0.000000 0.000000
# 2 -0.003726 0.008695 0.003374 0.000000 0.000000 0.000000
# 3 -0.001988 0.003374 0.058580 0.000000 0.000000 0.000000
# 4 0.000000 0.000000 0.000000 0.079963 0.000000 0.000000
# 5 0.000000 0.000000 0.000000 0.000000 0.033596 0.000000
# 6 0.000000 0.000000 0.000000 0.000000 0.000000 -0.005198
#
#
# Mechanical properties :
#
#
# Convention : Reuss Voigt Hill
#
# Bulk Modulus (GPa) = 14.48108 60.55492 37.51800
# Shear Modulus (GPa) = 23.83294 -10.37543 6.72875
#
# Velocity S-wave (km/s) = 3.43020 -2.26326 1.82263
# Velocity P-wave (km/s) = 4.77887 4.80271 4.79081
#
# Compressibility (1/GPa) = 0.06905564
#
# Stress axis : x y z
#
# Youngs Moduli (GPa) = 154.80811 115.01069 17.07055
#
# Poissons Ratio (x) = 0.42848 0.03393
# Poissons Ratio (y) = 0.57675 -0.05759
# Poissons Ratio (z) = 0.30772 -0.38801
#
# Static dielectric constant tensor:
#      x y z
#    x 1.710060 0.000000 0.000000 
#    y 0.000000 1.680880 0.000000 
#    z 0.000000 0.000000 1.744170 
# 
# From -- ./inp_files/13840.got.cif
#   From: 2010.05.17/outbox.cif.g08.bks.cpg/sg65_7_cif.got.tgz:13840.got - 2010.06.03 17:01:31.
