data_PCOD9490775
_publ_section_title
;
Structure prediction by ZEFSAII (Michael W. Deem and Ramdas Pophale) SiO2 
 PCOD9490775
Probable space group: C M M M
;
_chemical_formula_sum "Si O2"
_cell_formula_units_Z 96
_cell_length_a 22.381324
_cell_length_b 14.567566
_cell_length_c 15.753235
_cell_angle_alpha 90.000000
_cell_angle_beta 90.000000
_cell_angle_gamma 90.000000
_cell_volume 5136.207023
_symmetry_space_group_name_H-M "C M M M"
_symmetry_group_IT_number 65
_symmetry_cell_setting 'orthorhombic'
loop_
_space_group_symop_operation_xyz
x,y,z
-x,-y,z
x,-y,-z
-x,y,-z
-x,-y,-z
x,y,-z
-x,y,z
x,-y,z
1/2+x,1/2+y,z
1/2-x,1/2-y,z
1/2+x,1/2-y,-z
1/2-x,1/2+y,-z
1/2-x,1/2-y,-z
1/2+x,1/2+y,-z
1/2-x,1/2+y,z
1/2+x,1/2-y,z
loop_
_atom_site_type_symbol
_atom_site_label
_atom_site_fract_x
_atom_site_fract_y
_atom_site_fract_z
Si Si1 0.758247 0.605631 0.246603
Si Si2 0.120272 0.684829 0.313130
Si Si3 0.571670 0.000000 0.399746
Si Si4 0.430895 0.751923 0.857519
Si Si5 0.427615 0.896350 0.000000
Si Si6 0.804960 0.822370 0.593396
Si Si7 0.329616 0.390565 0.902139
O O1 0.776369 0.500000 0.236614
O O2 0.816906 0.663955 0.265964
O O3 0.714326 0.614402 0.328026
O O4 0.722486 0.635262 0.163393
O O5 0.098210 0.591636 0.357103
O O6 0.076325 0.719545 0.240265
O O7 0.136997 0.763374 0.380840
O O8 0.500000 0.000000 0.389780
O O9 0.585947 0.000000 0.500000
O O10 0.500000 0.731659 0.877163
O O11 0.411444 0.837406 0.917120
O O12 0.388137 0.667276 0.878806
O O13 0.500000 0.902720 0.000000
O O14 0.403589 0.000000 0.000000
O O15 0.810784 0.865359 0.500000
O O16 0.750000 0.750000 0.587838
O O17 0.340004 0.500000 0.892199
O O18 0.313532 0.373121 0.000000
#
# Coordination Sequence:
#
# PCOD9490775 Si02
#       7
#    16  16   8  16   8  16  16
#     4  10  20  37  57  84 117 150 192 240 296 356
#     4  11  21  38  57  82 117 156 194 240 292 352
#     4  11  24  40  60  89 123 161 204 246 291 349
#     4  11  22  37  59  85 115 155 198 242 298 358
#     4   9  20  36  53  78 113 149 194 240 279 344
#     4   9  18  32  54  82 111 143 185 237 292 345
#     4  10  21  39  62  87 117 150 193 251 305 360
#
# _framework density 18.690836000000001
#
# number of rings (size 3 to 8) (size 9 to 14) (size 15 to 20)
#    0.000    1.833    3.333    1.000    1.167    1.333 
#    1.500    1.667    0.000    0.000    0.000    0.000 
#    0.000    2.667    0.000    0.000    0.000    0.000 
#
# Total GULP energy -267908.199757 kJ/mol
# GULP energy per Si atom -5581.420828 kJ/mol
# Density = 1.864829 g / cm^3
# Si number density = 18.690836 Si / 1000 Ang^3
#
#
#
# Elastic Constant Matrix: (Units=GPa)
#
#
# Indices 1 2 3 4 5 6 
#
# 1 61.9979 22.6249 37.7284 0.0000 0.0000 0.0000
# 2 22.6249 48.2089 22.8876 0.0000 0.0000 0.0000
# 3 37.7284 22.8876 121.9630 0.0000 0.0000 0.0000
# 4 0.0000 0.0000 0.0000 24.5439 0.0000 0.0000
# 5 0.0000 0.0000 0.0000 0.0000 20.4691 0.0000
# 6 0.0000 0.0000 0.0000 0.0000 0.0000 22.5720
#
#
#
# Elastic Compliance Matrix: (Units=1/GPa)
#
#
# Indices 1 2 3 4 5 6 
#
# 1 0.022309 -0.007897 -0.005419 0.000000 0.000000 0.000000
# 2 -0.007897 0.025567 -0.002355 0.000000 0.000000 0.000000
# 3 -0.005419 -0.002355 0.010318 0.000000 0.000000 0.000000
# 4 0.000000 0.000000 0.000000 0.040743 0.000000 0.000000
# 5 0.000000 0.000000 0.000000 0.000000 0.048854 0.000000
# 6 0.000000 0.000000 0.000000 0.000000 0.000000 0.044303
#
#
# Mechanical properties :
#
#
# Convention : Reuss Voigt Hill
#
# Bulk Modulus (GPa) = 37.24206 44.29461 40.76834
# Shear Modulus (GPa) = 21.51575 23.44558 22.48066
#
# Velocity S-wave (km/s) = 3.39652 3.54558 3.47185
# Velocity P-wave (km/s) = 5.94562 6.36487 6.15881
#
# Compressibility (1/GPa) = 0.02685136
#
# Stress axis : x y z
#
# Youngs Moduli (GPa) = 44.82428 39.11237 96.92206
#
# Poissons Ratio (x) = 0.30888 0.52525
# Poissons Ratio (y) = 0.35398 0.22826
# Poissons Ratio (z) = 0.24291 0.09211
#
# Static dielectric constant tensor:
#      x y z
#    x 1.630990 0.000000 0.000000 
#    y 0.000000 1.647230 0.000000 
#    z 0.000000 0.000000 1.671930 
# 
# From -- ./inp_files/45668.got.cif
#   From: 2010.05.17/outbox.cif.g08.bks.cpg/sg65_23_cif.got.tgz:45668.got - 2010.06.03 17:01:31.
