data_PCOD9490374
_publ_section_title
;
Structure prediction by ZEFSAII (Michael W. Deem and Ramdas Pophale) SiO2 
 PCOD9490374
Probable space group: C M M M
;
_chemical_formula_sum "Si O2"
_cell_formula_units_Z 72
_cell_length_a 14.456208
_cell_length_b 18.576440
_cell_length_c 15.239754
_cell_angle_alpha 90.000000
_cell_angle_beta 90.000000
_cell_angle_gamma 90.000000
_cell_volume 4092.557917
_symmetry_space_group_name_H-M "C M M M"
_symmetry_group_IT_number 65
_symmetry_cell_setting 'orthorhombic'
loop_
_space_group_symop_operation_xyz
x,y,z
-x,-y,z
x,-y,-z
-x,y,-z
-x,-y,-z
x,y,-z
-x,y,z
x,-y,z
1/2+x,1/2+y,z
1/2-x,1/2-y,z
1/2+x,1/2-y,-z
1/2-x,1/2+y,-z
1/2-x,1/2-y,-z
1/2+x,1/2+y,-z
1/2-x,1/2+y,z
1/2+x,1/2-y,z
loop_
_atom_site_type_symbol
_atom_site_label
_atom_site_fract_x
_atom_site_fract_y
_atom_site_fract_z
Si Si1 0.000000 0.692859 0.396118
Si Si2 0.183533 0.083978 0.751250
Si Si3 0.000000 0.713152 0.103277
Si Si4 0.292750 0.829999 0.102814
Si Si5 0.000000 0.822811 0.258895
Si Si6 0.664845 0.917975 0.602391
O O1 0.000000 0.761901 0.334100
O O2 0.088403 0.642134 0.378669
O O3 0.000000 0.711372 0.500000
O O4 0.239968 0.116354 0.833195
O O5 0.090960 0.128821 0.736437
O O6 0.249080 0.091032 0.666408
O O7 0.163289 0.000000 0.765238
O O8 0.096741 0.672221 0.120303
O O9 0.000000 0.781818 0.165819
O O10 0.000000 0.732653 0.000000
O O11 0.250000 0.750000 0.117122
O O12 0.279162 0.847328 0.000000
O O13 0.690984 0.911363 0.500000
O O14 0.628367 0.000000 0.614415
#
# Coordination Sequence:
#
# PCOD9490374 Si02
#       6
#     8  16   8  16   8  16
#     4  10  21  35  59  91 115 144 189 239 291 345
#     4  11  24  39  57  82 114 156 197 237 288 343
#     4  10  20  35  59  89 113 144 189 230 287 345
#     4  10  20  37  61  86 115 150 188 236 289 340
#     4  12  23  37  56  80 116 153 194 245 278 333
#     4   9  19  37  59  84 116 151 187 233 291 350
#
# _framework density 17.59291
#
# number of rings (size 3 to 8) (size 9 to 14) (size 15 to 20)
#    0.000    1.778    2.222    2.000    0.000    2.667 
#    0.000    3.889    0.000    7.333    0.000    0.000 
#    0.000    0.000    0.000    0.000    0.000    0.000 
#
# Total GULP energy -201000.990045 kJ/mol
# GULP energy per Si atom -5583.360835 kJ/mol
# Density = 1.755287 g / cm^3
# Si number density = 17.592910 Si / 1000 Ang^3
#
#
#
# Elastic Constant Matrix: (Units=GPa)
#
#
# Indices 1 2 3 4 5 6 
#
# 1 140.5931 94.7006 74.9470 0.0000 0.0000 0.0000
# 2 94.7006 145.7595 92.6136 0.0000 0.0000 0.0000
# 3 74.9470 92.6136 85.1166 0.0000 0.0000 0.0000
# 4 0.0000 0.0000 0.0000 27.5454 0.0000 0.0000
# 5 0.0000 0.0000 0.0000 0.0000 13.2418 0.0000
# 6 0.0000 0.0000 0.0000 0.0000 0.0000 17.7353
#
#
#
# Elastic Compliance Matrix: (Units=1/GPa)
#
#
# Indices 1 2 3 4 5 6 
#
# 1 0.014133 -0.004132 -0.007949 0.000000 0.000000 0.000000
# 2 -0.004132 0.023436 -0.021862 0.000000 0.000000 0.000000
# 3 -0.007949 -0.021862 0.042535 0.000000 0.000000 0.000000
# 4 0.000000 0.000000 0.000000 0.036304 0.000000 0.000000
# 5 0.000000 0.000000 0.000000 0.000000 0.075519 0.000000
# 6 0.000000 0.000000 0.000000 0.000000 0.000000 0.056385
#
#
# Mechanical properties :
#
#
# Convention : Reuss Voigt Hill
#
# Bulk Modulus (GPa) = 81.83897 99.55462 90.69679
# Shear Modulus (GPa) = 15.61188 18.98505 17.29846
#
# Velocity S-wave (km/s) = 2.98215 3.28858 3.13910
# Velocity P-wave (km/s) = 7.64701 8.43388 8.05007
#
# Compressibility (1/GPa) = 0.01221912
#
# Stress axis : x y z
#
# Youngs Moduli (GPa) = 70.75568 42.66970 23.50998
#
# Poissons Ratio (x) = 0.17630 0.18688
# Poissons Ratio (y) = 0.29235 0.51397
# Poissons Ratio (z) = 0.56242 0.93284
#
# Static dielectric constant tensor:
#      x y z
#    x 1.599740 0.000000 0.000000 
#    y 0.000000 1.574640 0.000000 
#    z 0.000000 0.000000 1.586880 
# 
# From -- ./inp_files/39846.got.cif
#   From: 2010.05.17/outbox.cif.g08.bks.cpg/sg65_20_cif.got.tgz:39846.got - 2010.06.03 17:01:31.
