data_PCOD9490983
_publ_section_title
;
Structure prediction by ZEFSAII (Michael W. Deem and Ramdas Pophale) SiO2 
 PCOD9490983
Probable space group: C M M M
;
_chemical_formula_sum "Si O2"
_cell_formula_units_Z 64
_cell_length_a 14.880280
_cell_length_b 14.640499
_cell_length_c 15.136015
_cell_angle_alpha 90.000000
_cell_angle_beta 90.000000
_cell_angle_gamma 90.000000
_cell_volume 3297.452377
_symmetry_space_group_name_H-M "C M M M"
_symmetry_group_IT_number 65
_symmetry_cell_setting 'orthorhombic'
loop_
_space_group_symop_operation_xyz
x,y,z
-x,-y,z
x,-y,-z
-x,y,-z
-x,-y,-z
x,y,-z
-x,y,z
x,-y,z
1/2+x,1/2+y,z
1/2-x,1/2-y,z
1/2+x,1/2-y,-z
1/2-x,1/2+y,-z
1/2-x,1/2-y,-z
1/2+x,1/2+y,-z
1/2-x,1/2+y,z
1/2+x,1/2-y,z
loop_
_atom_site_type_symbol
_atom_site_label
_atom_site_fract_x
_atom_site_fract_y
_atom_site_fract_z
Si Si1 0.000000 0.100911 0.133673
Si Si2 0.138630 0.608930 0.241439
Si Si3 0.344835 0.398304 0.275776
Si Si4 0.358910 0.238275 0.399898
Si Si5 0.000000 0.688261 0.899164
O O1 0.087404 0.100780 0.195233
O O2 0.000000 0.201739 0.092624
O O3 0.000000 0.000000 0.089811
O O4 0.122849 0.500000 0.240972
O O5 0.246004 0.626668 0.239193
O O6 0.113526 0.655986 0.334938
O O7 0.084536 0.654626 0.160664
O O8 0.336310 0.500000 0.314104
O O9 0.383857 0.330039 0.348263
O O10 0.390956 0.229323 0.500000
O O11 0.250000 0.250000 0.403873
O O12 0.000000 0.651172 0.000000
#
# Coordination Sequence:
#
# PCOD9490983 Si02
#       5
#     8  16  16  16   8
#     4  10  20  38  63  88 113 147 187 233 291 351
#     4  10  21  38  58  83 119 157 195 243 291 339
#     4   9  18  35  60  85 118 157 192 235 288 342
#     4   9  17  31  56  88 120 155 195 234 281 344
#     4  12  25  41  64  87 111 149 196 248 301 354
#
# _framework density 19.408923000000001
#
# number of rings (size 3 to 8) (size 9 to 14) (size 15 to 20)
#    0.000    2.250    2.500    0.375    0.000    2.250 
#    0.000   10.000    0.000    8.250    0.000    0.000 
#    0.000    0.000    0.000    0.000    0.000    0.000 
#
# Total GULP energy -178237.758964 kJ/mol
# GULP energy per Si atom -5569.929968 kJ/mol
# Density = 1.936475 g / cm^3
# Si number density = 19.408923 Si / 1000 Ang^3
#
#
#
# Elastic Constant Matrix: (Units=GPa)
#
#
# Indices 1 2 3 4 5 6 
#
# 1 95.0959 33.0687 53.8648 0.0000 0.0000 0.0000
# 2 33.0687 141.8755 75.9787 0.0000 0.0000 0.0000
# 3 53.8648 75.9787 181.1456 0.0000 0.0000 0.0000
# 4 0.0000 0.0000 0.0000 -6.3045 0.0000 0.0000
# 5 0.0000 0.0000 0.0000 0.0000 -44.3034 0.0000
# 6 0.0000 0.0000 0.0000 0.0000 0.0000 22.2645
#
#
#
# Elastic Compliance Matrix: (Units=1/GPa)
#
#
# Indices 1 2 3 4 5 6 
#
# 1 0.012807 -0.001220 -0.003297 0.000000 0.000000 0.000000
# 2 -0.001220 0.009206 -0.003499 0.000000 0.000000 0.000000
# 3 -0.003297 -0.003499 0.007968 0.000000 0.000000 0.000000
# 4 0.000000 0.000000 0.000000 -0.158616 0.000000 0.000000
# 5 0.000000 0.000000 0.000000 0.000000 -0.022572 0.000000
# 6 0.000000 0.000000 0.000000 0.000000 0.000000 0.044915
#
#
# Mechanical properties :
#
#
# Convention : Reuss Voigt Hill
#
# Bulk Modulus (GPa) = 71.67702 82.66016 77.16859
# Shear Modulus (GPa) = -58.40422 11.34497 -23.52962
#
# Velocity S-wave (km/s) = -5.49152 2.42032 -3.48560
# Velocity P-wave (km/s) = 1.78855 7.10576 4.86276
#
# Compressibility (1/GPa) = 0.01395147
#
# Stress axis : x y z
#
# Youngs Moduli (GPa) = 78.08126 108.61967 125.49792
#
# Poissons Ratio (x) = 0.13247 0.41373
# Poissons Ratio (y) = 0.09523 0.43910
# Poissons Ratio (z) = 0.25741 0.38004
#
# Static dielectric constant tensor:
#      x y z
#    x 1.743270 0.000000 0.000000 
#    y 0.000000 1.723880 0.000000 
#    z 0.000000 0.000000 1.640520 
# 
# From -- ./inp_files/26109.got.cif
#   From: 2010.05.17/outbox.cif.g08.bks.cpg/sg65_14_cif.got.tgz:26109.got - 2010.06.03 17:01:31.
