data_PCOD9490092
_publ_section_title
;
Structure prediction by ZEFSAII (Michael W. Deem and Ramdas Pophale) SiO2 
 PCOD9490092
Probable space group: C M M M
;
_chemical_formula_sum "Si O2"
_cell_formula_units_Z 80
_cell_length_a 8.529145
_cell_length_b 22.910094
_cell_length_c 22.535107
_cell_angle_alpha 90.000000
_cell_angle_beta 90.000000
_cell_angle_gamma 90.000000
_cell_volume 4403.439089
_symmetry_space_group_name_H-M "C M M M"
_symmetry_group_IT_number 65
_symmetry_cell_setting 'orthorhombic'
loop_
_space_group_symop_operation_xyz
x,y,z
-x,-y,z
x,-y,-z
-x,y,-z
-x,-y,-z
x,y,-z
-x,y,z
x,-y,z
1/2+x,1/2+y,z
1/2-x,1/2-y,z
1/2+x,1/2-y,-z
1/2-x,1/2+y,-z
1/2-x,1/2-y,-z
1/2+x,1/2+y,-z
1/2-x,1/2+y,z
1/2+x,1/2-y,z
loop_
_atom_site_type_symbol
_atom_site_label
_atom_site_fract_x
_atom_site_fract_y
_atom_site_fract_z
Si Si1 0.689457 0.621824 0.116714
Si Si2 0.313943 0.185470 0.000000
Si Si3 0.311253 0.686558 0.765841
Si Si4 0.312088 0.433839 0.429290
Si Si5 0.808955 0.000000 0.068329
Si Si6 0.186822 0.315562 0.632982
O O1 0.500000 0.625042 0.115230
O O2 0.751327 0.656948 0.060348
O O3 0.738161 0.643942 0.181243
O O4 0.741159 0.556538 0.103515
O O5 0.250000 0.250000 0.000000
O O6 0.500000 0.183310 0.000000
O O7 0.500000 0.686685 0.760826
O O8 0.250000 0.750000 0.784208
O O9 0.240911 0.675187 0.701074
O O10 0.283192 0.431903 0.500000
O O11 0.500000 0.431926 0.419787
O O12 0.259810 0.500000 0.409057
O O13 0.242978 0.374104 0.401488
O O14 0.000000 0.000000 0.065919
O O15 0.754840 0.000000 0.000000
O O16 0.250000 0.250000 0.615107
O O17 0.000000 0.312187 0.629396
#
# Coordination Sequence:
#
# PCOD9490092 Si02
#       6
#    16   8  16  16   8  16
#     4  10  20  36  57  79 104 138 180 222 269 324
#     4  12  24  35  52  77 105 134 172 220 275 330
#     4  10  20  35  56  80 108 142 184 229 279 331
#     4   9  19  38  63  89 119 155 195 239 285 335
#     4   9  16  32  58  78 102 136 173 216 261 322
#     4  11  22  37  59  85 119 156 195 238 286 340
#
# _framework density 18.167618000000001
#
# number of rings (size 3 to 8) (size 9 to 14) (size 15 to 20)
#    0.000    1.900    1.000    5.700    0.000    4.400 
#    1.800    2.000    0.000    0.000    0.000    0.000 
#    0.000    0.000    0.000    0.000    0.000    0.000 
#
# Total GULP energy -222964.849389 kJ/mol
# GULP energy per Si atom -5574.121235 kJ/mol
# Density = 1.812627 g / cm^3
# Si number density = 18.167618 Si / 1000 Ang^3
#
#
#
# Elastic Constant Matrix: (Units=GPa)
#
#
# Indices 1 2 3 4 5 6 
#
# 1 56.4846 53.7875 35.9907 0.0000 0.0000 0.0000
# 2 53.7875 201.5724 89.6379 0.0000 0.0000 0.0000
# 3 35.9907 89.6379 78.3831 0.0000 0.0000 0.0000
# 4 0.0000 0.0000 0.0000 51.9430 0.0000 0.0000
# 5 0.0000 0.0000 0.0000 0.0000 30.5725 0.0000
# 6 0.0000 0.0000 0.0000 0.0000 0.0000 27.2852
#
#
#
# Elastic Compliance Matrix: (Units=1/GPa)
#
#
# Indices 1 2 3 4 5 6 
#
# 1 0.026076 -0.003324 -0.008172 0.000000 0.000000 0.000000
# 2 -0.003324 0.010518 -0.010502 0.000000 0.000000 0.000000
# 3 -0.008172 -0.010502 0.028520 0.000000 0.000000 0.000000
# 4 0.000000 0.000000 0.000000 0.019252 0.000000 0.000000
# 5 0.000000 0.000000 0.000000 0.000000 0.032709 0.000000
# 6 0.000000 0.000000 0.000000 0.000000 0.000000 0.036650
#
#
# Mechanical properties :
#
#
# Convention : Reuss Voigt Hill
#
# Bulk Modulus (GPa) = 47.35202 77.25249 62.30226
# Shear Modulus (GPa) = 24.41865 32.42842 28.42353
#
# Velocity S-wave (km/s) = 3.67014 4.22946 3.95969
# Velocity P-wave (km/s) = 6.63931 8.15264 7.43458
#
# Compressibility (1/GPa) = 0.02111842
#
# Stress axis : x y z
#
# Youngs Moduli (GPa) = 38.34898 95.07229 35.06289
#
# Poissons Ratio (x) = 0.31605 0.28652
# Poissons Ratio (y) = 0.12748 0.36824
# Poissons Ratio (z) = 0.31338 0.99847
#
# Static dielectric constant tensor:
#      x y z
#    x 1.625030 0.000000 0.000000 
#    y 0.000000 1.623030 0.000000 
#    z 0.000000 0.000000 1.621460 
# 
# From -- ./inp_files/67340.got.cif
#   From: 2010.05.17/outbox.cif.g08.bks.cpg/sg65_34_cif.got.tgz:67340.got - 2010.06.03 17:01:31.
