data_PCOD9490279
_publ_section_title
;
Structure prediction by ZEFSAII (Michael W. Deem and Ramdas Pophale) SiO2 
 PCOD9490279
Probable space group: C M M M
;
_chemical_formula_sum "Si O2"
_cell_formula_units_Z 76
_cell_length_a 27.645798
_cell_length_b 16.232807
_cell_length_c 7.255073
_cell_angle_alpha 90.000000
_cell_angle_beta 90.000000
_cell_angle_gamma 90.000000
_cell_volume 3255.851154
_symmetry_space_group_name_H-M "C M M M"
_symmetry_group_IT_number 65
_symmetry_cell_setting 'orthorhombic'
loop_
_space_group_symop_operation_xyz
x,y,z
-x,-y,z
x,-y,-z
-x,y,-z
-x,-y,-z
x,y,-z
-x,y,z
x,-y,z
1/2+x,1/2+y,z
1/2-x,1/2-y,z
1/2+x,1/2-y,-z
1/2-x,1/2+y,-z
1/2-x,1/2-y,-z
1/2+x,1/2+y,-z
1/2-x,1/2+y,z
1/2+x,1/2-y,z
loop_
_atom_site_type_symbol
_atom_site_label
_atom_site_fract_x
_atom_site_fract_y
_atom_site_fract_z
Si Si1 0.500000 0.606881 0.000000
Si Si2 0.389672 0.832194 0.288518
Si Si3 0.919776 0.161214 0.278259
Si Si4 0.555252 0.000000 0.779037
Si Si5 0.208731 0.596831 0.275040
Si Si6 0.685046 0.595368 0.722709
O O1 0.457772 0.610683 0.160798
O O2 0.380464 0.807961 0.500000
O O3 0.423059 0.757783 0.221172
O O4 0.336634 0.850056 0.208107
O O5 0.417432 0.918228 0.282803
O O6 0.926896 0.149868 0.500000
O O7 0.864356 0.139677 0.227962
O O8 0.500000 0.000000 0.716020
O O9 0.555752 0.000000 0.000000
O O10 0.207322 0.597666 0.500000
O O11 0.202957 0.500000 0.223639
O O12 0.262069 0.626207 0.217606
O O13 0.686329 0.596979 0.500000
O O14 0.681815 0.500000 0.778889
#
# Coordination Sequence:
#
# PCOD9490279 Si02
#       6
#     4  16  16   8  16  16
#     4  12  26  44  65  79 122 156 188 266 298 347
#     4  10  20  35  57  85 117 150 201 250 286 346
#     4  10  23  40  62  90 115 156 201 241 302 356
#     4  11  25  37  53  77 113 163 207 247 295 346
#     4   8  13  26  53  86 117 153 189 234 292 346
#     4   8  15  32  60  90 121 152 190 237 293 363
#
# _framework density 23.342590999999999
#
# number of rings (size 3 to 8) (size 9 to 14) (size 15 to 20)
#    0.000    2.632    1.053    1.895    2.947    1.684 
#    0.000    5.789    2.316    3.789    0.000    0.000 
#    0.000    0.000    0.000    0.000    0.000    0.000 
#
# Total GULP energy -211664.992494 kJ/mol
# GULP energy per Si atom -5570.131381 kJ/mol
# Density = 2.328946 g / cm^3
# Si number density = 23.342591 Si / 1000 Ang^3
#
#
#
# Elastic Constant Matrix: (Units=GPa)
#
#
# Indices 1 2 3 4 5 6 
#
# 1 137.0167 10.9572 22.1971 0.0000 0.0000 0.0000
# 2 10.9572 35.8268 -2.0640 0.0000 0.0000 0.0000
# 3 22.1971 -2.0640 129.6643 0.0000 0.0000 0.0000
# 4 0.0000 0.0000 0.0000 -129.7816 0.0000 0.0000
# 5 0.0000 0.0000 0.0000 0.0000 -64.4352 0.0000
# 6 0.0000 0.0000 0.0000 0.0000 0.0000 -63.3185
#
#
#
# Elastic Compliance Matrix: (Units=1/GPa)
#
#
# Indices 1 2 3 4 5 6 
#
# 1 0.007714 -0.002437 -0.001359 0.000000 0.000000 0.000000
# 2 -0.002437 0.028708 0.000874 0.000000 0.000000 0.000000
# 3 -0.001359 0.000874 0.007959 0.000000 0.000000 0.000000
# 4 0.000000 0.000000 0.000000 -0.007705 0.000000 0.000000
# 5 0.000000 0.000000 0.000000 0.000000 -0.015519 0.000000
# 6 0.000000 0.000000 0.000000 0.000000 0.000000 -0.015793
#
#
# Mechanical properties :
#
#
# Convention : Reuss Voigt Hill
#
# Bulk Modulus (GPa) = 25.95019 40.52092 33.23556
# Shear Modulus (GPa) = 207.88036 -33.41255 87.23390
#
# Velocity S-wave (km/s) = 9.44720 -3.78749 6.11983
# Velocity P-wave (km/s) = 11.40792 1.31523 8.01283
#
# Compressibility (1/GPa) = 0.03853536
#
# Stress axis : x y z
#
# Youngs Moduli (GPa) = 129.64275 34.83363 125.64667
#
# Poissons Ratio (x) = 0.08490 0.17079
# Poissons Ratio (y) = 0.31599 -0.10984
# Poissons Ratio (z) = 0.17622 -0.03045
#
# Static dielectric constant tensor:
#      x y z
#    x 1.842760 0.000000 0.000000 
#    y 0.000000 1.906460 0.000000 
#    z 0.000000 0.000000 1.931760 
# 
# From -- ./inp_files/16106.got.cif
#   From: 2010.05.17/outbox.cif.g08.bks.cpg/sg65_9_cif.got.tgz:16106.got - 2010.06.03 17:01:31.
