data_PCOD9490687
_publ_section_title
;
Structure prediction by ZEFSAII (Michael W. Deem and Ramdas Pophale) SiO2 
 PCOD9490687
Probable space group: C M M M
;
_chemical_formula_sum "Si O2"
_cell_formula_units_Z 72
_cell_length_a 8.642159
_cell_length_b 14.997829
_cell_length_c 29.083495
_cell_angle_alpha 90.000000
_cell_angle_beta 90.000000
_cell_angle_gamma 90.000000
_cell_volume 3769.617153
_symmetry_space_group_name_H-M "C M M M"
_symmetry_group_IT_number 65
_symmetry_cell_setting 'orthorhombic'
loop_
_space_group_symop_operation_xyz
x,y,z
-x,-y,z
x,-y,-z
-x,y,-z
-x,-y,-z
x,y,-z
-x,y,z
x,-y,z
1/2+x,1/2+y,z
1/2-x,1/2-y,z
1/2+x,1/2-y,-z
1/2-x,1/2+y,-z
1/2-x,1/2-y,-z
1/2+x,1/2+y,-z
1/2-x,1/2+y,z
1/2+x,1/2-y,z
loop_
_atom_site_type_symbol
_atom_site_label
_atom_site_fract_x
_atom_site_fract_y
_atom_site_fract_z
Si Si1 0.811990 0.000000 0.947630
Si Si2 0.313739 0.350849 0.874860
Si Si3 0.319875 0.607858 0.551583
Si Si4 0.818195 0.344223 0.353058
Si Si5 0.316382 0.000000 0.191625
Si Si6 0.681231 0.500000 0.292524
O O1 0.766715 0.911245 0.919208
O O2 0.000000 0.000000 0.948376
O O3 0.756087 0.000000 0.000000
O O4 0.500000 0.347210 0.873335
O O5 0.250000 0.250000 0.875274
O O6 0.254152 0.411850 0.832668
O O7 0.273815 0.635594 0.500000
O O8 0.500000 0.633674 0.559035
O O9 0.314829 0.500000 0.552830
O O10 0.216753 0.642805 0.592849
O O11 0.750000 0.250000 0.339132
O O12 0.727563 0.416989 0.323952
O O13 0.000000 0.351619 0.344727
O O14 0.500000 0.000000 0.184853
O O15 0.274009 0.000000 0.245065
O O16 0.500000 0.500000 0.282228
#
# Coordination Sequence:
#
# PCOD9490687 Si02
#       6
#     8  16  16  16   8   8
#     4   8  16  32  54  83 123 168 211 254 300 351
#     4  10  20  36  59  88 122 161 205 252 303 354
#     4   9  18  35  60  87 117 154 193 235 286 342
#     4  12  25  41  62  90 120 155 195 237 288 349
#     4  11  23  41  64  89 116 150 196 246 300 360
#     4  12  25  45  67  89 120 152 188 241 300 357
#
# _framework density 19.100083000000001
#
# number of rings (size 3 to 8) (size 9 to 14) (size 15 to 20)
#    0.000    1.667    1.111    6.000    0.000    2.222 
#    0.000    5.556    0.000   11.333    0.000    0.000 
#    0.000    0.000    0.000    0.000    0.000    0.000 
#
# Total GULP energy -201124.684902 kJ/mol
# GULP energy per Si atom -5586.796803 kJ/mol
# Density = 1.905661 g / cm^3
# Si number density = 19.100083 Si / 1000 Ang^3
#
#
#
# Elastic Constant Matrix: (Units=GPa)
#
#
# Indices 1 2 3 4 5 6 
#
# 1 74.8983 31.5540 9.7969 0.0000 0.0000 0.0000
# 2 31.5540 154.9419 46.5251 0.0000 0.0000 0.0000
# 3 9.7969 46.5251 93.7373 0.0000 0.0000 0.0000
# 4 0.0000 0.0000 0.0000 26.1434 0.0000 0.0000
# 5 0.0000 0.0000 0.0000 0.0000 21.3647 0.0000
# 6 0.0000 0.0000 0.0000 0.0000 0.0000 29.2155
#
#
#
# Elastic Compliance Matrix: (Units=1/GPa)
#
#
# Indices 1 2 3 4 5 6 
#
# 1 0.014605 -0.002957 -0.000059 0.000000 0.000000 0.000000
# 2 -0.002957 0.008183 -0.003752 0.000000 0.000000 0.000000
# 3 -0.000059 -0.003752 0.012537 0.000000 0.000000 0.000000
# 4 0.000000 0.000000 0.000000 0.038251 0.000000 0.000000
# 5 0.000000 0.000000 0.000000 0.000000 0.046806 0.000000
# 6 0.000000 0.000000 0.000000 0.000000 0.000000 0.034228
#
#
# Mechanical properties :
#
#
# Convention : Reuss Voigt Hill
#
# Bulk Modulus (GPa) = 45.89593 55.48105 50.68849
# Shear Modulus (GPa) = 28.50492 31.05815 29.78153
#
# Velocity S-wave (km/s) = 3.86735 4.03684 3.95300
# Velocity P-wave (km/s) = 6.63500 7.13012 6.88701
#
# Compressibility (1/GPa) = 0.02178843
#
# Stress axis : x y z
#
# Youngs Moduli (GPa) = 68.47103 122.20599 79.76547
#
# Poissons Ratio (x) = 0.36131 0.00470
# Poissons Ratio (y) = 0.20244 0.29932
# Poissons Ratio (z) = 0.00404 0.45857
#
# Static dielectric constant tensor:
#      x y z
#    x 1.643280 0.000000 0.000000 
#    y 0.000000 1.652150 0.000000 
#    z 0.000000 0.000000 1.656740 
# 
# From -- ./inp_files/72621.got.cif
#   From: 2010.05.17/outbox.cif.g08.bks.cpg/sg65_37_cif.got.tgz:72621.got - 2010.06.03 17:01:31.
