data_PCOD9490308
_publ_section_title
;
Structure prediction by ZEFSAII (Michael W. Deem and Ramdas Pophale) SiO2 
 PCOD9490308
Probable space group: C M M M
;
_chemical_formula_sum "Si O2"
_cell_formula_units_Z 80
_cell_length_a 24.300462
_cell_length_b 8.668135
_cell_length_c 20.934293
_cell_angle_alpha 90.000000
_cell_angle_beta 90.000000
_cell_angle_gamma 90.000000
_cell_volume 4409.592887
_symmetry_space_group_name_H-M "C M M M"
_symmetry_group_IT_number 65
_symmetry_cell_setting 'orthorhombic'
loop_
_space_group_symop_operation_xyz
x,y,z
-x,-y,z
x,-y,-z
-x,y,-z
-x,-y,-z
x,y,-z
-x,y,z
x,-y,z
1/2+x,1/2+y,z
1/2-x,1/2-y,z
1/2+x,1/2-y,-z
1/2-x,1/2+y,-z
1/2-x,1/2-y,-z
1/2+x,1/2+y,-z
1/2-x,1/2+y,z
1/2+x,1/2-y,z
loop_
_atom_site_type_symbol
_atom_site_label
_atom_site_fract_x
_atom_site_fract_y
_atom_site_fract_z
Si Si1 0.383735 0.815499 0.427016
Si Si2 0.311444 0.316094 0.687454
Si Si3 0.000000 0.686015 0.759804
Si Si4 0.119740 0.686280 0.806432
Si Si5 0.310547 0.186268 0.927354
Si Si6 0.500000 0.683971 0.383203
O O1 0.367674 0.780965 0.500000
O O2 0.343028 0.741755 0.375586
O O3 0.445004 0.752651 0.414318
O O4 0.384081 0.000000 0.418287
O O5 0.309691 0.500000 0.688037
O O6 0.250000 0.250000 0.689442
O O7 0.345458 0.256656 0.748528
O O8 0.055838 0.726622 0.796860
O O9 0.000000 0.766937 0.691080
O O10 0.000000 0.500000 0.749385
O O11 0.123934 0.500000 0.802311
O O12 0.146008 0.735219 0.873753
O O13 0.250000 0.250000 0.911648
O O14 0.308067 0.000000 0.926722
O O15 0.324072 0.235040 0.000000
O O16 0.500000 0.500000 0.389065
#
# Coordination Sequence:
#
# PCOD9490308 Si02
#       6
#    16  16   8  16  16   8
#     4  11  24  42  63  86 115 152 192 237 290 346
#     4  12  25  40  60  85 115 150 192 240 291 349
#     4  10  20  35  58  82 114 154 191 234 288 344
#     4  10  20  36  58  84 115 152 193 238 289 344
#     4   9  18  33  54  82 115 151 193 239 286 338
#     4  12  23  37  60  90 119 150 191 240 287 340
#
# _framework density 18.142263
#
# number of rings (size 3 to 8) (size 9 to 14) (size 15 to 20)
#    0.000    1.400    2.000    4.200    0.000    5.600 
#    0.000    0.500    0.000    3.000    0.000    0.000 
#    0.000    5.600    0.000    0.000    0.000    0.000 
#
# Total GULP energy -223568.548719 kJ/mol
# GULP energy per Si atom -5589.213718 kJ/mol
# Density = 1.810097 g / cm^3
# Si number density = 18.142263 Si / 1000 Ang^3
#
#
#
# Elastic Constant Matrix: (Units=GPa)
#
#
# Indices 1 2 3 4 5 6 
#
# 1 164.3607 48.8840 93.5238 0.0000 0.0000 0.0000
# 2 48.8840 48.1088 50.0591 0.0000 0.0000 0.0000
# 3 93.5238 50.0591 143.6529 0.0000 0.0000 0.0000
# 4 0.0000 0.0000 0.0000 11.9385 0.0000 0.0000
# 5 0.0000 0.0000 0.0000 0.0000 216.0329 0.0000
# 6 0.0000 0.0000 0.0000 0.0000 0.0000 40.5333
#
#
#
# Elastic Compliance Matrix: (Units=1/GPa)
#
#
# Indices 1 2 3 4 5 6 
#
# 1 0.010547 -0.005604 -0.004914 0.000000 0.000000 0.000000
# 2 -0.005604 0.035589 -0.008753 0.000000 0.000000 0.000000
# 3 -0.004914 -0.008753 0.013210 0.000000 0.000000 0.000000
# 4 0.000000 0.000000 0.000000 0.083763 0.000000 0.000000
# 5 0.000000 0.000000 0.000000 0.000000 0.004629 0.000000
# 6 0.000000 0.000000 0.000000 0.000000 0.000000 0.024671
#
#
# Mechanical properties :
#
#
# Convention : Reuss Voigt Hill
#
# Bulk Modulus (GPa) = 48.06712 82.33958 65.20335
# Shear Modulus (GPa) = 22.94789 64.61129 43.77959
#
# Velocity S-wave (km/s) = 3.56038 5.97419 4.91769
# Velocity P-wave (km/s) = 6.59195 9.64739 8.26214
#
# Compressibility (1/GPa) = 0.02080424
#
# Stress axis : x y z
#
# Youngs Moduli (GPa) = 94.81547 28.09892 75.69792
#
# Poissons Ratio (x) = 0.15747 0.37195
# Poissons Ratio (y) = 0.53135 0.66260
# Poissons Ratio (z) = 0.46588 0.24596
#
# Static dielectric constant tensor:
#      x y z
#    x 1.593410 0.000000 0.000000 
#    y 0.000000 1.610710 0.000000 
#    z 0.000000 0.000000 1.613920 
# 
# From -- ./inp_files/65052.got.cif
#   From: 2010.05.17/outbox.cif.g08.bks.cpg/sg65_33_cif.got.tgz:65052.got - 2010.06.03 17:01:31.
