data_PCOD9490679
_publ_section_title
;
Structure prediction by ZEFSAII (Michael W. Deem and Ramdas Pophale) SiO2 
 PCOD9490679
Probable space group: C M M M
;
_chemical_formula_sum "Si O2"
_cell_formula_units_Z 88
_cell_length_a 31.293119
_cell_length_b 7.730689
_cell_length_c 19.028963
_cell_angle_alpha 90.000000
_cell_angle_beta 90.000000
_cell_angle_gamma 90.000000
_cell_volume 4603.436699
_symmetry_space_group_name_H-M "C M M M"
_symmetry_group_IT_number 65
_symmetry_cell_setting 'orthorhombic'
loop_
_space_group_symop_operation_xyz
x,y,z
-x,-y,z
x,-y,-z
-x,y,-z
-x,-y,-z
x,y,-z
-x,y,z
x,-y,z
1/2+x,1/2+y,z
1/2-x,1/2-y,z
1/2+x,1/2-y,-z
1/2-x,1/2+y,-z
1/2-x,1/2-y,-z
1/2+x,1/2+y,-z
1/2-x,1/2+y,z
1/2+x,1/2-y,z
loop_
_atom_site_type_symbol
_atom_site_label
_atom_site_fract_x
_atom_site_fract_y
_atom_site_fract_z
Si Si1 0.951104 0.000000 0.916341
Si Si2 0.390344 0.796177 0.141272
Si Si3 0.296466 0.706563 0.136013
Si Si4 0.295335 0.294900 0.297281
Si Si5 0.450712 0.211594 0.421161
Si Si6 0.613127 0.796888 0.695904
O O1 0.924470 0.830397 0.893663
O O2 0.000000 0.000000 0.888488
O O3 0.953312 0.000000 0.000000
O O4 0.342267 0.774563 0.109711
O O5 0.388421 0.734965 0.223387
O O6 0.401382 0.000000 0.137895
O O7 0.299707 0.500000 0.136547
O O8 0.250000 0.750000 0.103403
O O9 0.294264 0.775724 0.216818
O O10 0.298833 0.500000 0.292907
O O11 0.250000 0.250000 0.330771
O O12 0.338553 0.226524 0.330797
O O13 0.437961 0.265808 0.500000
O O14 0.500000 0.260713 0.409867
O O15 0.420417 0.277465 0.359270
O O16 0.449355 0.000000 0.420826
O O17 0.604278 0.000000 0.701101
#
# Coordination Sequence:
#
# PCOD9490679 Si02
#       6
#     8  16  16  16  16  16
#     4  11  26  46  64  82 109 149 193 235 283 339
#     4  10  20  36  59  88 116 145 186 237 285 330
#     4   9  15  26  48  82 118 149 180 219 273 332
#     4   9  16  25  41  66 102 137 170 213 260 308
#     4   8  14  26  45  70 101 137 174 212 261 322
#     4   9  17  28  49  79 109 136 173 221 267 314
#
# _framework density 19.116152
#
# number of rings (size 3 to 8) (size 9 to 14) (size 15 to 20)
#    0.000    2.818    0.909    1.636    1.273    5.818 
#    0.000    2.727    0.000    1.636    0.000    1.273 
#    0.000    0.000    0.000    0.000    0.000    0.000 
#
# Total GULP energy -245034.028797 kJ/mol
# GULP energy per Si atom -5568.955200 kJ/mol
# Density = 1.907264 g / cm^3
# Si number density = 19.116152 Si / 1000 Ang^3
#
#
#
# Elastic Constant Matrix: (Units=GPa)
#
#
# Indices 1 2 3 4 5 6 
#
# 1 150.5925 34.9848 47.8642 0.0000 0.0000 0.0000
# 2 34.9848 74.5837 14.9274 0.0000 0.0000 0.0000
# 3 47.8642 14.9274 39.1438 0.0000 0.0000 0.0000
# 4 0.0000 0.0000 0.0000 -0.9773 0.0000 0.0000
# 5 0.0000 0.0000 0.0000 0.0000 29.0721 0.0000
# 6 0.0000 0.0000 0.0000 0.0000 0.0000 19.7242
#
#
#
# Elastic Compliance Matrix: (Units=1/GPa)
#
#
# Indices 1 2 3 4 5 6 
#
# 1 0.011363 -0.002760 -0.012843 0.000000 0.000000 0.000000
# 2 -0.002760 0.015186 -0.002416 0.000000 0.000000 0.000000
# 3 -0.012843 -0.002416 0.042172 0.000000 0.000000 0.000000
# 4 0.000000 0.000000 0.000000 -1.023213 0.000000 0.000000
# 5 0.000000 0.000000 0.000000 0.000000 0.034397 0.000000
# 6 0.000000 0.000000 0.000000 0.000000 0.000000 0.050699
#
#
# Mechanical properties :
#
#
# Convention : Reuss Voigt Hill
#
# Bulk Modulus (GPa) = 30.59628 51.09699 40.84663
# Shear Modulus (GPa) = -6.07930 20.66670 7.29370
#
# Velocity S-wave (km/s) = -1.78524 3.29159 1.95544
# Velocity P-wave (km/s) = 3.43377 6.42136 5.14901
#
# Compressibility (1/GPa) = 0.03268371
#
# Stress axis : x y z
#
# Youngs Moduli (GPa) = 88.00127 65.85032 23.71245
#
# Poissons Ratio (x) = 0.18174 0.30453
# Poissons Ratio (y) = 0.24287 0.05730
# Poissons Ratio (z) = 1.13016 0.15912
#
# Static dielectric constant tensor:
#      x y z
#    x 1.704040 0.000000 0.000000 
#    y 0.000000 1.677080 0.000000 
#    z 0.000000 0.000000 1.673070 
# 
# From -- ./inp_files/66249.got.cif
#   From: 2010.05.17/outbox.cif.g08.bks.cpg/sg65_34_cif.got.tgz:66249.got - 2010.06.03 17:01:31.
