data_PCOD9490070
_publ_section_title
;
Structure prediction by ZEFSAII (Michael W. Deem and Ramdas Pophale) SiO2 
 PCOD9490070
Probable space group: C M M M
;
_chemical_formula_sum "Si O2"
_cell_formula_units_Z 80
_cell_length_a 9.292971
_cell_length_b 29.481447
_cell_length_c 16.631325
_cell_angle_alpha 90.000000
_cell_angle_beta 90.000000
_cell_angle_gamma 90.000000
_cell_volume 4556.487969
_symmetry_space_group_name_H-M "C M M M"
_symmetry_group_IT_number 65
_symmetry_cell_setting 'orthorhombic'
loop_
_space_group_symop_operation_xyz
x,y,z
-x,-y,z
x,-y,-z
-x,y,-z
-x,-y,-z
x,y,-z
-x,y,z
x,-y,z
1/2+x,1/2+y,z
1/2-x,1/2-y,z
1/2+x,1/2-y,-z
1/2-x,1/2+y,-z
1/2-x,1/2-y,-z
1/2+x,1/2+y,-z
1/2-x,1/2+y,z
1/2+x,1/2-y,z
loop_
_atom_site_type_symbol
_atom_site_label
_atom_site_fract_x
_atom_site_fract_y
_atom_site_fract_z
Si Si1 0.835809 0.290193 0.841574
Si Si2 0.328780 0.552839 0.179549
Si Si3 0.670095 0.202480 0.595612
Si Si4 0.334436 0.316651 0.000000
Si Si5 0.333984 0.574524 0.000000
Si Si6 0.334538 0.127291 0.280650
O O1 0.750000 0.250000 0.798351
O O2 0.749452 0.299795 0.922455
O O3 0.835945 0.335592 0.790272
O O4 0.000000 0.276810 0.856634
O O5 0.500000 0.563511 0.177868
O O6 0.310692 0.500000 0.199684
O O7 0.273096 0.559864 0.087104
O O8 0.254091 0.585406 0.244564
O O9 0.682899 0.194759 0.500000
O O10 0.500000 0.207910 0.615870
O O11 0.750000 0.250000 0.613041
O O12 0.720776 0.157838 0.644454
O O13 0.500000 0.301778 0.000000
O O14 0.333430 0.371142 0.000000
O O15 0.500000 0.557728 0.000000
O O16 0.500000 0.113428 0.297513
#
# Coordination Sequence:
#
# PCOD9490070 Si02
#       6
#    16  16  16   8   8  16
#     4  11  22  34  48  69  99 134 171 209 251 299
#     4  10  20  35  56  79 102 132 173 219 263 308
#     4   9  18  34  56  82 110 139 171 207 250 303
#     4  11  20  33  51  68  93 134 174 209 253 299
#     4   9  17  32  53  74  97 129 171 217 263 305
#     4  10  21  35  52  76 106 135 166 210 258 306
#
# _framework density 17.557383000000002
#
# number of rings (size 3 to 8) (size 9 to 14) (size 15 to 20)
#    0.000    2.000    2.000    2.100    0.000    3.200 
#    0.000    0.500    0.000    1.800    0.000    4.200 
#    0.000    0.000    0.000    0.000    0.000    0.000 
#
# Total GULP energy -223010.300527 kJ/mol
# GULP energy per Si atom -5575.257513 kJ/mol
# Density = 1.751742 g / cm^3
# Si number density = 17.557383 Si / 1000 Ang^3
#
#
#
# Elastic Constant Matrix: (Units=GPa)
#
#
# Indices 1 2 3 4 5 6 
#
# 1 78.5147 44.8560 33.9407 0.0000 0.0000 0.0000
# 2 44.8560 107.5673 43.5251 0.0000 0.0000 0.0000
# 3 33.9407 43.5251 94.5054 0.0000 0.0000 0.0000
# 4 0.0000 0.0000 0.0000 13.2381 0.0000 0.0000
# 5 0.0000 0.0000 0.0000 0.0000 19.7117 0.0000
# 6 0.0000 0.0000 0.0000 0.0000 0.0000 28.4976
#
#
#
# Elastic Compliance Matrix: (Units=1/GPa)
#
#
# Indices 1 2 3 4 5 6 
#
# 1 0.017678 -0.005903 -0.003630 0.000000 0.000000 0.000000
# 2 -0.005903 0.013397 -0.004050 0.000000 0.000000 0.000000
# 3 -0.003630 -0.004050 0.013750 0.000000 0.000000 0.000000
# 4 0.000000 0.000000 0.000000 0.075539 0.000000 0.000000
# 5 0.000000 0.000000 0.000000 0.000000 0.050731 0.000000
# 6 0.000000 0.000000 0.000000 0.000000 0.000000 0.035091
#
#
# Mechanical properties :
#
#
# Convention : Reuss Voigt Hill
#
# Bulk Modulus (GPa) = 56.62855 58.35900 57.49378
# Shear Modulus (GPa) = 20.89954 22.84052 21.87003
#
# Velocity S-wave (km/s) = 3.45390 3.61072 3.53318
# Velocity P-wave (km/s) = 6.94473 7.11999 7.03291
#
# Compressibility (1/GPa) = 0.01765894
#
# Stress axis : x y z
#
# Youngs Moduli (GPa) = 56.56693 74.64461 72.72492
#
# Poissons Ratio (x) = 0.44062 0.26401
# Poissons Ratio (y) = 0.33391 0.29454
# Poissons Ratio (z) = 0.20536 0.30231
#
# Static dielectric constant tensor:
#      x y z
#    x 1.612250 0.000000 0.000000 
#    y 0.000000 1.600710 0.000000 
#    z 0.000000 0.000000 1.622910 
# 
# From -- ./inp_files/49943.got.cif
#   From: 2010.05.17/outbox.cif.g08.bks.cpg/sg65_25_cif.got.tgz:49943.got - 2010.06.03 17:01:31.
