data_PCOD9490028
_publ_section_title
;
Structure prediction by ZEFSAII (Michael W. Deem and Ramdas Pophale) SiO2 
 PCOD9490028
Probable space group: C M M M
;
_chemical_formula_sum "Si O2"
_cell_formula_units_Z 56
_cell_length_a 7.754410
_cell_length_b 27.854008
_cell_length_c 14.678049
_cell_angle_alpha 90.000000
_cell_angle_beta 90.000000
_cell_angle_gamma 90.000000
_cell_volume 3170.332326
_symmetry_space_group_name_H-M "C M M M"
_symmetry_group_IT_number 65
_symmetry_cell_setting 'orthorhombic'
loop_
_space_group_symop_operation_xyz
x,y,z
-x,-y,z
x,-y,-z
-x,y,-z
-x,-y,-z
x,y,-z
-x,y,z
x,-y,z
1/2+x,1/2+y,z
1/2-x,1/2-y,z
1/2+x,1/2-y,-z
1/2-x,1/2+y,-z
1/2-x,1/2-y,-z
1/2+x,1/2+y,-z
1/2-x,1/2+y,z
1/2+x,1/2-y,z
loop_
_atom_site_type_symbol
_atom_site_label
_atom_site_fract_x
_atom_site_fract_y
_atom_site_fract_z
Si Si1 0.209168 0.554816 0.397359
Si Si2 0.206264 0.805693 0.103903
Si Si3 0.699109 0.895088 0.784722
Si Si4 0.000000 0.942944 0.103003
O O1 0.270512 0.565544 0.500000
O O2 0.263723 0.500000 0.373622
O O3 0.254143 0.592540 0.318821
O O4 0.000000 0.554070 0.401112
O O5 0.250000 0.750000 0.119139
O O6 0.284873 0.840729 0.179437
O O7 0.000000 0.811491 0.106717
O O8 0.264787 0.817714 0.000000
O O9 0.500000 0.910393 0.794764
O O10 0.829861 0.924296 0.847474
O O11 0.000000 0.000000 0.102875
O O12 0.000000 0.924518 0.000000
#
# Coordination Sequence:
#
# PCOD9490028 Si02
#       4
#    16  16  16   8
#     4   8  15  30  53  80 108 140 182 229 274 322
#     4  10  20  35  55  80 109 141 182 232 279 327
#     4  11  21  35  57  81 109 147 185 227 278 335
#     4  11  24  38  51  75 113 151 188 228 268 323
#
# _framework density 17.663765000000001
#
# number of rings (size 3 to 8) (size 9 to 14) (size 15 to 20)
#    0.000    2.143    1.429    3.429    0.000    5.143 
#    0.000    2.143    0.000    3.429    0.000    0.000 
#    0.000    0.000    0.000    0.000    0.000    0.000 
#
# Total GULP energy -156184.929467 kJ/mol
# GULP energy per Si atom -5578.033195 kJ/mol
# Density = 1.762356 g / cm^3
# Si number density = 17.663765 Si / 1000 Ang^3
#
#
#
# Elastic Constant Matrix: (Units=GPa)
#
#
# Indices 1 2 3 4 5 6 
#
# 1 72.9543 15.0037 32.9032 0.0000 0.0000 0.0000
# 2 15.0037 97.8919 79.7731 0.0000 0.0000 0.0000
# 3 32.9032 79.7731 160.6416 0.0000 0.0000 0.0000
# 4 0.0000 0.0000 0.0000 37.1658 0.0000 0.0000
# 5 0.0000 0.0000 0.0000 0.0000 25.0824 0.0000
# 6 0.0000 0.0000 0.0000 0.0000 0.0000 20.2210
#
#
#
# Elastic Compliance Matrix: (Units=1/GPa)
#
#
# Indices 1 2 3 4 5 6 
#
# 1 0.015109 0.000346 -0.003267 0.000000 0.000000 0.000000
# 2 0.000346 0.017167 -0.008596 0.000000 0.000000 0.000000
# 3 -0.003267 -0.008596 0.011163 0.000000 0.000000 0.000000
# 4 0.000000 0.000000 0.000000 0.026906 0.000000 0.000000
# 5 0.000000 0.000000 0.000000 0.000000 0.039869 0.000000
# 6 0.000000 0.000000 0.000000 0.000000 0.000000 0.049454
#
#
# Mechanical properties :
#
#
# Convention : Reuss Voigt Hill
#
# Bulk Modulus (GPa) = 49.00389 65.20529 57.10459
# Shear Modulus (GPa) = 26.38480 30.08103 28.23291
#
# Velocity S-wave (km/s) = 3.86907 4.13119 4.00228
# Velocity P-wave (km/s) = 6.91103 7.72985 7.33188
#
# Compressibility (1/GPa) = 0.02040654
#
# Stress axis : x y z
#
# Youngs Moduli (GPa) = 66.18438 58.25039 89.58291
#
# Poissons Ratio (x) = -0.02017 0.29264
# Poissons Ratio (y) = -0.02292 0.77006
# Poissons Ratio (z) = 0.21621 0.50072
#
# Static dielectric constant tensor:
#      x y z
#    x 1.628790 0.000000 0.000000 
#    y 0.000000 1.603390 0.000000 
#    z 0.000000 0.000000 1.613480 
# 
# From -- ./inp_files/36221.got.cif
#   From: 2010.05.17/outbox.cif.g08.bks.cpg/sg65_19_cif.got.tgz:36221.got - 2010.06.03 17:01:31.
