data_PCOD9490827
_publ_section_title
;
Structure prediction by ZEFSAII (Michael W. Deem and Ramdas Pophale) SiO2 
 PCOD9490827
Probable space group: C M M M
;
_chemical_formula_sum "Si O2"
_cell_formula_units_Z 104
_cell_length_a 30.068333
_cell_length_b 20.799832
_cell_length_c 9.574290
_cell_angle_alpha 90.000000
_cell_angle_beta 90.000000
_cell_angle_gamma 90.000000
_cell_volume 5987.916787
_symmetry_space_group_name_H-M "C M M M"
_symmetry_group_IT_number 65
_symmetry_cell_setting 'orthorhombic'
loop_
_space_group_symop_operation_xyz
x,y,z
-x,-y,z
x,-y,-z
-x,y,-z
-x,-y,-z
x,y,-z
-x,y,z
x,-y,z
1/2+x,1/2+y,z
1/2-x,1/2-y,z
1/2+x,1/2-y,-z
1/2-x,1/2+y,-z
1/2-x,1/2-y,-z
1/2+x,1/2+y,-z
1/2-x,1/2+y,z
1/2+x,1/2-y,z
loop_
_atom_site_type_symbol
_atom_site_label
_atom_site_fract_x
_atom_site_fract_y
_atom_site_fract_z
Si Si1 0.947719 0.126353 0.334071
Si Si2 0.551227 0.922693 0.659099
Si Si3 0.872843 0.641133 0.834309
Si Si4 0.053908 0.000000 0.160032
Si Si5 0.371287 0.272054 0.335856
Si Si6 0.772782 0.818234 0.335105
Si Si7 0.278958 0.074433 0.833145
O O1 0.944206 0.111839 0.500000
O O2 0.914630 0.185149 0.304095
O O3 0.000000 0.140774 0.305884
O O4 0.933903 0.064246 0.244365
O O5 0.563374 0.903674 0.500000
O O6 0.500000 0.903584 0.682461
O O7 0.584258 0.892587 0.769191
O O8 0.553212 0.000000 0.665839
O O9 0.868134 0.709385 0.758828
O O10 0.829396 0.597766 0.805885
O O11 0.876772 0.649032 0.000000
O O12 0.000000 0.000000 0.156417
O O13 0.069951 0.000000 0.000000
O O14 0.373257 0.253675 0.500000
O O15 0.325692 0.311626 0.316809
O O16 0.763299 0.827464 0.500000
O O17 0.750000 0.750000 0.294582
O O18 0.752635 0.876453 0.247806
O O19 0.273167 0.000000 0.792194
O O20 0.271579 0.079329 0.000000
#
# Coordination Sequence:
#
# PCOD9490827 Si02
#       7
#    16  16  16   8  16  16  16
#     4   9  18  34  56  79 105 141 181 221 270 328
#     4   9  19  36  56  78 107 145 187 229 273 321
#     4  11  22  35  55  82 112 146 184 226 275 329
#     4   9  17  31  53  79 107 139 175 219 267 319
#     4  10  21  37  56  80 110 142 183 229 272 327
#     4  10  20  37  60  83 109 144 186 233 281 329
#     4  10  22  39  58  82 113 147 185 229 277 336
#
# _framework density 17.368310999999999
#
# number of rings (size 3 to 8) (size 9 to 14) (size 15 to 20)
#    0.000    2.231    1.538    1.615    0.000    5.231 
#    1.385    2.308    0.000    0.000    0.000    0.000 
#    0.000    0.000    0.000    0.000    0.000    0.000 
#
# Total GULP energy -290151.924129 kJ/mol
# GULP energy per Si atom -5579.844695 kJ/mol
# Density = 1.732878 g / cm^3
# Si number density = 17.368311 Si / 1000 Ang^3
#
#
#
# Elastic Constant Matrix: (Units=GPa)
#
#
# Indices 1 2 3 4 5 6 
#
# 1 87.2799 60.3449 53.5558 0.0000 0.0000 0.0000
# 2 60.3449 128.1668 69.2334 0.0000 0.0000 0.0000
# 3 53.5558 69.2334 65.8431 0.0000 0.0000 0.0000
# 4 0.0000 0.0000 0.0000 27.8009 0.0000 0.0000
# 5 0.0000 0.0000 0.0000 0.0000 27.7039 0.0000
# 6 0.0000 0.0000 0.0000 0.0000 0.0000 29.3495
#
#
#
# Elastic Compliance Matrix: (Units=1/GPa)
#
#
# Indices 1 2 3 4 5 6 
#
# 1 0.023028 -0.001677 -0.016968 0.000000 0.000000 0.000000
# 2 -0.001677 0.018183 -0.017755 0.000000 0.000000 0.000000
# 3 -0.016968 -0.017755 0.047658 0.000000 0.000000 0.000000
# 4 0.000000 0.000000 0.000000 0.035970 0.000000 0.000000
# 5 0.000000 0.000000 0.000000 0.000000 0.036096 0.000000
# 6 0.000000 0.000000 0.000000 0.000000 0.000000 0.034072
#
#
# Mechanical properties :
#
#
# Convention : Reuss Voigt Hill
#
# Bulk Modulus (GPa) = 62.22768 71.95090 67.08929
# Shear Modulus (GPa) = 18.30402 23.51459 20.90930
#
# Velocity S-wave (km/s) = 3.24987 3.68350 3.47346
# Velocity P-wave (km/s) = 7.07024 7.72058 7.40255
#
# Compressibility (1/GPa) = 0.01607002
#
# Stress axis : x y z
#
# Youngs Moduli (GPa) = 43.42494 54.99672 20.98263
#
# Poissons Ratio (x) = 0.09222 0.35603
# Poissons Ratio (y) = 0.07281 0.37255
# Poissons Ratio (z) = 0.73682 0.97648
#
# Static dielectric constant tensor:
#      x y z
#    x 1.581290 0.000000 0.000000 
#    y 0.000000 1.566180 0.000000 
#    z 0.000000 0.000000 1.576460 
# 
# From -- ./inp_files/18638.got.cif
#   From: 2010.05.17/outbox.cif.g08.bks.cpg/sg65_10_cif.got.tgz:18638.got - 2010.06.03 17:01:31.
