data_PCOD9490851
_publ_section_title
;
Structure prediction by ZEFSAII (Michael W. Deem and Ramdas Pophale) SiO2 
 PCOD9490851
Probable space group: C M M M
;
_chemical_formula_sum "Si O2"
_cell_formula_units_Z 80
_cell_length_a 11.632940
_cell_length_b 17.776888
_cell_length_c 18.489713
_cell_angle_alpha 90.000000
_cell_angle_beta 90.000000
_cell_angle_gamma 90.000000
_cell_volume 3823.625897
_symmetry_space_group_name_H-M "C M M M"
_symmetry_group_IT_number 65
_symmetry_cell_setting 'orthorhombic'
loop_
_space_group_symop_operation_xyz
x,y,z
-x,-y,z
x,-y,-z
-x,y,-z
-x,-y,-z
x,y,-z
-x,y,z
x,-y,z
1/2+x,1/2+y,z
1/2-x,1/2-y,z
1/2+x,1/2-y,-z
1/2-x,1/2+y,-z
1/2-x,1/2-y,-z
1/2+x,1/2+y,-z
1/2-x,1/2+y,z
1/2+x,1/2-y,z
loop_
_atom_site_type_symbol
_atom_site_label
_atom_site_fract_x
_atom_site_fract_y
_atom_site_fract_z
Si Si1 0.362143 0.913429 0.080509
Si Si2 0.000000 0.912720 0.208256
Si Si3 0.625552 0.776514 0.415873
Si Si4 0.754432 0.410045 0.630700
Si Si5 0.000000 0.085448 0.383502
Si Si6 0.738838 0.661100 0.211074
O O1 0.500000 0.914004 0.079580
O O2 0.320965 0.863341 0.146307
O O3 0.323624 0.000000 0.091946
O O4 0.322941 0.889566 0.000000
O O5 0.000000 0.916113 0.296096
O O6 0.887466 0.866580 0.187582
O O7 0.000000 0.000000 0.183572
O O8 0.621750 0.755716 0.500000
O O9 0.500000 0.756290 0.382712
O O10 0.750000 0.750000 0.385476
O O11 0.644782 0.866230 0.409516
O O12 0.759153 0.500000 0.626463
O O13 0.627924 0.385226 0.598915
O O14 0.762462 0.384060 0.714467
O O15 0.000000 0.000000 0.410922
O O16 0.750000 0.750000 0.223041
#
# Coordination Sequence:
#
# PCOD9490851 Si02
#       6
#    16   8  16  16   8  16
#     4   9  19  37  59  81 112 155 197 240 297 363
#     4   9  18  36  57  79 116 161 194 234 301 363
#     4  10  23  42  62  87 122 161 199 247 308 363
#     4  10  20  37  60  88 119 156 198 244 299 365
#     4   7  14  30  53  79 111 150 188 228 284 350
#     4  11  22  35  59  88 122 153 196 251 301 355
#
# _framework density 20.922550000000001
#
# number of rings (size 3 to 8) (size 9 to 14) (size 15 to 20)
#    0.000    2.400    0.000    4.200    2.800    2.000 
#    3.600    1.500    0.000    3.600    0.000    0.000 
#    0.000    0.000    0.000    0.000    0.000    0.000 
#
# Total GULP energy -223036.178893 kJ/mol
# GULP energy per Si atom -5575.904472 kJ/mol
# Density = 2.087493 g / cm^3
# Si number density = 20.922550 Si / 1000 Ang^3
#
#
#
# Elastic Constant Matrix: (Units=GPa)
#
#
# Indices 1 2 3 4 5 6 
#
# 1 117.3560 49.1129 13.5911 0.0000 0.0000 0.0000
# 2 49.1129 109.8590 23.4404 0.0000 0.0000 0.0000
# 3 13.5911 23.4404 82.3847 0.0000 0.0000 0.0000
# 4 0.0000 0.0000 0.0000-1522.2746 0.0000 0.0000
# 5 0.0000 0.0000 0.0000 0.0000 23.6739 0.0000
# 6 0.0000 0.0000 0.0000 0.0000 0.0000 35.7017
#
#
#
# Elastic Compliance Matrix: (Units=1/GPa)
#
#
# Indices 1 2 3 4 5 6 
#
# 1 0.010496 -0.004602 -0.000422 0.000000 0.000000 0.000000
# 2 -0.004602 0.011709 -0.002572 0.000000 0.000000 0.000000
# 3 -0.000422 -0.002572 0.012940 0.000000 0.000000 0.000000
# 4 0.000000 0.000000 0.000000 -0.000657 0.000000 0.000000
# 5 0.000000 0.000000 0.000000 0.000000 0.042241 0.000000
# 6 0.000000 0.000000 0.000000 0.000000 0.000000 0.028010
#
#
# Mechanical properties :
#
#
# Convention : Reuss Voigt Hill
#
# Bulk Modulus (GPa) = 50.12168 53.54317 51.83243
# Shear Modulus (GPa) = 39.50025 -277.68278 -119.09127
#
# Velocity S-wave (km/s) = 4.34974 -11.53289 -7.55272
# Velocity P-wave (km/s) = 7.01675 12.31652 7.15758
#
# Compressibility (1/GPa) = 0.01995144
#
# Stress axis : x y z
#
# Youngs Moduli (GPa) = 95.27473 85.40565 77.28178
#
# Poissons Ratio (x) = 0.39305 0.03262
# Poissons Ratio (y) = 0.43847 0.19878
# Poissons Ratio (z) = 0.04022 0.21968
#
# Static dielectric constant tensor:
#      x y z
#    x 1.812980 0.000000 0.000000 
#    y 0.000000 1.780610 0.000000 
#    z 0.000000 0.000000 1.719300 
# 
# From -- ./inp_files/61402.got.cif
#   From: 2010.05.17/outbox.cif.g08.bks.cpg/sg65_31_cif.got.tgz:61402.got - 2010.06.03 17:01:31.
