data_PCOD9490198
_publ_section_title
;
Structure prediction by ZEFSAII (Michael W. Deem and Ramdas Pophale) SiO2 
 PCOD9490198
Probable space group: C M M M
;
_chemical_formula_sum "Si O2"
_cell_formula_units_Z 64
_cell_length_a 16.206966
_cell_length_b 16.225212
_cell_length_c 12.902178
_cell_angle_alpha 90.000000
_cell_angle_beta 90.000000
_cell_angle_gamma 90.000000
_cell_volume 3392.775554
_symmetry_space_group_name_H-M "C M M M"
_symmetry_group_IT_number 65
_symmetry_cell_setting 'orthorhombic'
loop_
_space_group_symop_operation_xyz
x,y,z
-x,-y,z
x,-y,-z
-x,y,-z
-x,-y,-z
x,y,-z
-x,y,z
x,-y,z
1/2+x,1/2+y,z
1/2-x,1/2-y,z
1/2+x,1/2-y,-z
1/2-x,1/2+y,-z
1/2-x,1/2-y,-z
1/2+x,1/2+y,-z
1/2-x,1/2+y,z
1/2+x,1/2-y,z
loop_
_atom_site_type_symbol
_atom_site_label
_atom_site_fract_x
_atom_site_fract_y
_atom_site_fract_z
Si Si1 0.094311 0.857041 0.274293
Si Si2 0.599303 0.902686 0.000000
Si Si3 0.400257 0.500000 0.883757
Si Si4 0.331280 0.803211 0.194420
Si Si5 0.745684 0.901252 0.616270
O O1 0.103234 0.765226 0.230725
O O2 0.160166 0.872247 0.364411
O O3 0.000000 0.875757 0.302430
O O4 0.121487 0.919764 0.182640
O O5 0.636565 0.858422 0.898989
O O6 0.500000 0.893452 0.000000
O O7 0.618531 0.000000 0.000000
O O8 0.500000 0.500000 0.891335
O O9 0.366069 0.500000 0.000000
O O10 0.250000 0.750000 0.164549
O O11 0.306289 0.857719 0.293793
O O12 0.719235 0.878450 0.500000
O O13 0.742029 0.000000 0.626243
#
# Coordination Sequence:
#
# PCOD9490198 Si02
#       5
#    16   8   8  16  16
#     4  10  20  35  56  86 117 147 188 233 280 333
#     4  11  23  40  62  85 115 149 186 236 285 331
#     4   9  18  32  51  79 117 155 182 216 273 336
#     4  10  22  38  58  86 115 150 189 229 279 338
#     4  10  21  39  60  81 111 151 191 234 280 334
#
# _framework density 18.863612
#
# number of rings (size 3 to 8) (size 9 to 14) (size 15 to 20)
#    0.000    2.000    1.250    1.875    1.750    5.000 
#    2.250    1.250    0.000    2.250    0.000    8.750 
#    0.000    0.000    0.000    0.000    0.000    0.000 
#
# Total GULP energy -178665.653863 kJ/mol
# GULP energy per Si atom -5583.301683 kJ/mol
# Density = 1.882068 g / cm^3
# Si number density = 18.863612 Si / 1000 Ang^3
#
#
#
# Elastic Constant Matrix: (Units=GPa)
#
#
# Indices 1 2 3 4 5 6 
#
# 1 52.0514 36.2222 48.0476 0.0000 0.0000 0.0000
# 2 36.2222 131.2001 84.8326 0.0000 0.0000 0.0000
# 3 48.0476 84.8326 157.1891 0.0000 0.0000 0.0000
# 4 0.0000 0.0000 0.0000 28.7870 0.0000 0.0000
# 5 0.0000 0.0000 0.0000 0.0000 10.1129 0.0000
# 6 0.0000 0.0000 0.0000 0.0000 0.0000 -2.7307
#
#
#
# Elastic Compliance Matrix: (Units=1/GPa)
#
#
# Indices 1 2 3 4 5 6 
#
# 1 0.027682 -0.003335 -0.006661 0.000000 0.000000 0.000000
# 2 -0.003335 0.012109 -0.005516 0.000000 0.000000 0.000000
# 3 -0.006661 -0.005516 0.011375 0.000000 0.000000 0.000000
# 4 0.000000 0.000000 0.000000 0.034738 0.000000 0.000000
# 5 0.000000 0.000000 0.000000 0.000000 0.098884 0.000000
# 6 0.000000 0.000000 0.000000 0.000000 0.000000 -0.366212
#
#
# Mechanical properties :
#
#
# Convention : Reuss Voigt Hill
#
# Bulk Modulus (GPa) = 49.65017 75.40504 62.52761
# Shear Modulus (GPa) = -34.79808 18.65638 -8.07085
#
# Velocity S-wave (km/s) = -4.29968 3.14827 -2.07070
# Velocity P-wave (km/s) = 1.31457 7.29905 5.24424
#
# Compressibility (1/GPa) = 0.02014092
#
# Stress axis : x y z
#
# Youngs Moduli (GPa) = 36.12475 82.58251 87.91488
#
# Poissons Ratio (x) = 0.27544 0.58564
# Poissons Ratio (y) = 0.12049 0.48490
# Poissons Ratio (z) = 0.24064 0.45549
#
# Static dielectric constant tensor:
#      x y z
#    x 1.655390 0.000000 0.000000 
#    y 0.000000 1.652120 0.000000 
#    z 0.000000 0.000000 1.644190 
# 
# From -- ./inp_files/23970.got.cif
#   From: 2010.05.17/outbox.cif.g08.bks.cpg/sg65_12_cif.got.tgz:23970.got - 2010.06.03 17:01:31.
