data_PCOD9490271
_publ_section_title
;
Structure prediction by ZEFSAII (Michael W. Deem and Ramdas Pophale) SiO2 
 PCOD9490271
Probable space group: C M M M
;
_chemical_formula_sum "Si O2"
_cell_formula_units_Z 56
_cell_length_a 7.801357
_cell_length_b 18.775162
_cell_length_c 20.413236
_cell_angle_alpha 90.000000
_cell_angle_beta 90.000000
_cell_angle_gamma 90.000000
_cell_volume 2989.962226
_symmetry_space_group_name_H-M "C M M M"
_symmetry_group_IT_number 65
_symmetry_cell_setting 'orthorhombic'
loop_
_space_group_symop_operation_xyz
x,y,z
-x,-y,z
x,-y,-z
-x,y,-z
-x,-y,-z
x,y,-z
-x,y,z
x,-y,z
1/2+x,1/2+y,z
1/2-x,1/2-y,z
1/2+x,1/2-y,-z
1/2-x,1/2+y,-z
1/2-x,1/2-y,-z
1/2+x,1/2+y,-z
1/2-x,1/2+y,z
1/2+x,1/2-y,z
loop_
_atom_site_type_symbol
_atom_site_label
_atom_site_fract_x
_atom_site_fract_y
_atom_site_fract_z
Si Si1 0.291077 0.417504 0.573122
Si Si2 0.500000 0.413384 0.925321
Si Si3 0.694109 0.084365 0.169787
Si Si4 0.205459 0.167158 0.299531
O O1 0.234867 0.395617 0.500000
O O2 0.500000 0.416005 0.572909
O O3 0.241239 0.500000 0.583382
O O4 0.232657 0.368749 0.632824
O O5 0.500000 0.500000 0.927835
O O6 0.332977 0.392307 0.883828
O O7 0.500000 0.387561 0.000000
O O8 0.500000 0.093295 0.145821
O O9 0.718993 0.126884 0.236898
O O10 0.721912 0.000000 0.182883
O O11 0.250000 0.250000 0.298195
O O12 0.000000 0.158745 0.296330
#
# Coordination Sequence:
#
# PCOD9490271 Si02
#       4
#    16   8  16  16
#     4   8  15  29  50  75 103 140 187 235 283 336
#     4   9  18  34  58  88 117 145 180 223 275 331
#     4  10  20  35  57  85 114 146 185 230 277 330
#     4  11  21  33  51  77 109 149 190 234 282 330
#
# _framework density 18.729334999999999
#
# number of rings (size 3 to 8) (size 9 to 14) (size 15 to 20)
#    0.000    2.429    1.429    2.571    0.000    2.286 
#    0.000    2.857    0.000    3.429    0.000   10.000 
#    0.000    0.000    0.000    0.000    0.000    0.000 
#
# Total GULP energy -156270.206971 kJ/mol
# GULP energy per Si atom -5581.078820 kJ/mol
# Density = 1.868671 g / cm^3
# Si number density = 18.729335 Si / 1000 Ang^3
#
#
#
# Elastic Constant Matrix: (Units=GPa)
#
#
# Indices 1 2 3 4 5 6 
#
# 1 83.7978 36.9701 61.3539 0.0000 0.0000 0.0000
# 2 36.9701 65.1566 75.3291 0.0000 0.0000 0.0000
# 3 61.3539 75.3291 187.2894 0.0000 0.0000 0.0000
# 4 0.0000 0.0000 0.0000 -7.9669 0.0000 0.0000
# 5 0.0000 0.0000 0.0000 0.0000 0.1000 0.0000
# 6 0.0000 0.0000 0.0000 0.0000 0.0000 16.3808
#
#
#
# Elastic Compliance Matrix: (Units=1/GPa)
#
#
# Indices 1 2 3 4 5 6 
#
# 1 0.016845 -0.005941 -0.003129 0.000000 0.000000 0.000000
# 2 -0.005941 0.030782 -0.010435 0.000000 0.000000 0.000000
# 3 -0.003129 -0.010435 0.010561 0.000000 0.000000 0.000000
# 4 0.000000 0.000000 0.000000 -0.125519 0.000000 0.000000
# 5 0.000000 0.000000 0.000000 0.000000 9.998870 0.000000
# 6 0.000000 0.000000 0.000000 0.000000 0.000000 0.061047
#
#
# Mechanical properties :
#
#
# Convention : Reuss Voigt Hill
#
# Bulk Modulus (GPa) = 52.13725 75.95002 64.04363
# Shear Modulus (GPa) = 0.49811 12.54217 6.52014
#
# Velocity S-wave (km/s) = 0.51626 2.59057 1.86783
# Velocity P-wave (km/s) = 5.31536 7.04184 6.23861
#
# Compressibility (1/GPa) = 0.01918015
#
# Stress axis : x y z
#
# Youngs Moduli (GPa) = 59.36377 32.48628 94.68543
#
# Poissons Ratio (x) = 0.19299 0.29627
# Poissons Ratio (y) = 0.35266 0.98802
# Poissons Ratio (z) = 0.18575 0.33899
#
# Static dielectric constant tensor:
#      x y z
#    x 1.681130 0.000000 0.000000 
#    y 0.000000 1.607220 0.000000 
#    z 0.000000 0.000000 1.624890 
# 
# From -- ./inp_files/55212.got.cif
#   From: 2010.05.17/outbox.cif.g08.bks.cpg/sg65_28_cif.got.tgz:55212.got - 2010.06.03 17:01:31.
