data_PCOD9490378
_publ_section_title
;
Structure prediction by ZEFSAII (Michael W. Deem and Ramdas Pophale) SiO2 
 PCOD9490378
Probable space group: C M M M
;
_chemical_formula_sum "Si O2"
_cell_formula_units_Z 72
_cell_length_a 18.164098
_cell_length_b 22.705696
_cell_length_c 7.993562
_cell_angle_alpha 90.000000
_cell_angle_beta 90.000000
_cell_angle_gamma 90.000000
_cell_volume 3296.772684
_symmetry_space_group_name_H-M "C M M M"
_symmetry_group_IT_number 65
_symmetry_cell_setting 'orthorhombic'
loop_
_space_group_symop_operation_xyz
x,y,z
-x,-y,z
x,-y,-z
-x,y,-z
-x,-y,-z
x,y,-z
-x,y,z
x,-y,z
1/2+x,1/2+y,z
1/2-x,1/2-y,z
1/2+x,1/2-y,-z
1/2-x,1/2+y,-z
1/2-x,1/2-y,-z
1/2+x,1/2+y,-z
1/2-x,1/2+y,z
1/2+x,1/2-y,z
loop_
_atom_site_type_symbol
_atom_site_label
_atom_site_fract_x
_atom_site_fract_y
_atom_site_fract_z
Si Si1 0.300620 0.835274 0.203083
Si Si2 0.582105 0.066624 0.203312
Si Si3 0.585021 0.500000 0.200152
Si Si4 0.138644 0.872451 0.306950
Si Si5 0.579949 0.254980 0.195408
O O1 0.355746 0.887945 0.249609
O O2 0.222175 0.851317 0.277910
O O3 0.346414 0.777546 0.259908
O O4 0.290219 0.832149 0.000000
O O5 0.500000 0.083693 0.258526
O O6 0.596835 0.000000 0.259274
O O7 0.580888 0.065995 0.000000
O O8 0.500000 0.500000 0.261165
O O9 0.624782 0.439840 0.255620
O O10 0.583840 0.500000 0.000000
O O11 0.118969 0.866298 0.500000
O O12 0.090088 0.824821 0.208575
O O13 0.500000 0.238193 0.268803
O O14 0.577431 0.237848 0.000000
#
# Coordination Sequence:
#
# PCOD9490378 Si02
#       5
#    16  16   8  16  16
#     4  10  20  35  59  89 122 161 206 253 301 354
#     4   8  14  26  48  81 116 149 194 251 302 347
#     4  11  25  47  73  95 116 151 202 255 307 364
#     4  12  26  41  60  90 127 163 200 248 307 371
#     4  10  21  39  63  90 121 160 210 263 308 356
#
# _framework density 21.839538999999998
#
# number of rings (size 3 to 8) (size 9 to 14) (size 15 to 20)
#    0.000    1.889    0.000    5.000    1.556   10.222 
#    0.000    0.000    0.000    2.000    0.000    1.556 
#    0.000    0.000    0.000    0.000    0.000    0.000 
#
# Total GULP energy -201056.788715 kJ/mol
# GULP energy per Si atom -5584.910798 kJ/mol
# Density = 2.178983 g / cm^3
# Si number density = 21.839539 Si / 1000 Ang^3
#
#
#
# Elastic Constant Matrix: (Units=GPa)
#
#
# Indices 1 2 3 4 5 6 
#
# 1 113.6116 61.1887 1.2592 0.0000 0.0000 0.0000
# 2 61.1887 118.4831 -6.9381 0.0000 0.0000 0.0000
# 3 1.2592 -6.9381 26.9511 0.0000 0.0000 0.0000
# 4 0.0000 0.0000 0.0000 -1.2195 0.0000 0.0000
# 5 0.0000 0.0000 0.0000 0.0000 403.4132 0.0000
# 6 0.0000 0.0000 0.0000 0.0000 0.0000 11.1896
#
#
#
# Elastic Compliance Matrix: (Units=1/GPa)
#
#
# Indices 1 2 3 4 5 6 
#
# 1 0.012326 -0.006497 -0.002249 0.000000 0.000000 0.000000
# 2 -0.006497 0.011994 0.003391 0.000000 0.000000 0.000000
# 3 -0.002249 0.003391 0.038082 0.000000 0.000000 0.000000
# 4 0.000000 0.000000 0.000000 -0.819981 0.000000 0.000000
# 5 0.000000 0.000000 0.000000 0.000000 0.002479 0.000000
# 6 0.000000 0.000000 0.000000 0.000000 0.000000 0.089368
#
#
# Mechanical properties :
#
#
# Convention : Reuss Voigt Hill
#
# Bulk Modulus (GPa) = 19.34485 41.11837 30.23161
# Shear Modulus (GPa) = -7.83956 96.24573 44.20308
#
# Velocity S-wave (km/s) = -1.89668 6.64569 4.50376
# Velocity P-wave (km/s) = 2.02000 8.81789 6.39670
#
# Compressibility (1/GPa) = 0.05169334
#
# Stress axis : x y z
#
# Youngs Moduli (GPa) = 81.12833 83.37479 26.25888
#
# Poissons Ratio (x) = 0.54171 0.05904
# Poissons Ratio (y) = 0.52712 -0.08905
# Poissons Ratio (z) = 0.18242 -0.28274
#
# Static dielectric constant tensor:
#      x y z
#    x 1.808660 0.000000 0.000000 
#    y 0.000000 1.803950 0.000000 
#    z 0.000000 0.000000 1.781290 
# 
# From -- ./inp_files/9250.got.cif
#   From: 2010.05.17/outbox.cif.g08.bks.cpg/sg65_5_cif.got.tgz:9250.got - 2010.06.03 17:01:31.
