data_PCOD9490944
_publ_section_title
;
Structure prediction by ZEFSAII (Michael W. Deem and Ramdas Pophale) SiO2 
 PCOD9490944
Probable space group: C M M M
;
_chemical_formula_sum "Si O2"
_cell_formula_units_Z 72
_cell_length_a 15.318057
_cell_length_b 7.558518
_cell_length_c 30.303520
_cell_angle_alpha 90.000000
_cell_angle_beta 90.000000
_cell_angle_gamma 90.000000
_cell_volume 3508.596382
_symmetry_space_group_name_H-M "C M M M"
_symmetry_group_IT_number 65
_symmetry_cell_setting 'orthorhombic'
loop_
_space_group_symop_operation_xyz
x,y,z
-x,-y,z
x,-y,-z
-x,y,-z
-x,-y,-z
x,y,-z
-x,y,z
x,-y,z
1/2+x,1/2+y,z
1/2-x,1/2-y,z
1/2+x,1/2-y,-z
1/2-x,1/2+y,-z
1/2-x,1/2-y,-z
1/2+x,1/2+y,-z
1/2-x,1/2+y,z
1/2+x,1/2-y,z
loop_
_atom_site_type_symbol
_atom_site_label
_atom_site_fract_x
_atom_site_fract_y
_atom_site_fract_z
Si Si1 0.647392 0.789936 0.785647
Si Si2 0.000000 0.716968 0.949426
Si Si3 0.393478 0.797265 0.450718
Si Si4 0.352728 0.788265 0.117125
Si Si5 0.107592 0.000000 0.383413
Si Si6 0.899119 0.000000 0.284950
O O1 0.750000 0.750000 0.788625
O O2 0.614936 0.730448 0.834171
O O3 0.617583 0.671489 0.745090
O O4 0.631445 0.000000 0.779720
O O5 0.085135 0.775392 0.921961
O O6 0.000000 0.500000 0.949935
O O7 0.000000 0.775416 0.000000
O O8 0.366962 0.737653 0.500000
O O9 0.500000 0.795989 0.450627
O O10 0.364569 0.669991 0.411729
O O11 0.365960 0.000000 0.444633
O O12 0.250000 0.750000 0.111043
O O13 0.359960 0.000000 0.118393
O O14 0.143130 0.000000 0.333449
O O15 0.000000 0.000000 0.383735
O O16 0.000000 0.000000 0.294620
#
# Coordination Sequence:
#
# PCOD9490944 Si02
#       6
#    16   8  16  16   8   8
#     4  10  20  38  60  80 108 146 193 239 280 340
#     4   9  18  34  55  81 115 149 181 223 279 346
#     4   8  13  22  39  61  89 135 184 220 264 329
#     4   9  19  34  55  82 105 141 188 230 283 338
#     4   9  17  28  39  62 106 139 171 218 283 340
#     4  11  24  35  52  87 115 149 186 234 298 342
#
# _framework density 20.521028000000001
#
# number of rings (size 3 to 8) (size 9 to 14) (size 15 to 20)
#    0.000    2.778    1.111    1.000    3.111    3.111 
#    0.000    2.778    0.000    0.667    0.000    0.000 
#    0.000    3.556    0.000    0.000    0.000    0.000 
#
# Total GULP energy -200744.376709 kJ/mol
# GULP energy per Si atom -5576.232686 kJ/mol
# Density = 2.047432 g / cm^3
# Si number density = 20.521028 Si / 1000 Ang^3
#
#
#
# Elastic Constant Matrix: (Units=GPa)
#
#
# Indices 1 2 3 4 5 6 
#
# 1 43.7860 10.3185 47.5756 0.0000 0.0000 0.0000
# 2 10.3185 99.3668 88.9316 0.0000 0.0000 0.0000
# 3 47.5756 88.9316 241.1073 0.0000 0.0000 0.0000
# 4 0.0000 0.0000 0.0000 31.5195 0.0000 0.0000
# 5 0.0000 0.0000 0.0000 0.0000 91.5172 0.0000
# 6 0.0000 0.0000 0.0000 0.0000 0.0000 -11.4913
#
#
#
# Elastic Compliance Matrix: (Units=1/GPa)
#
#
# Indices 1 2 3 4 5 6 
#
# 1 0.029750 0.003231 -0.007062 0.000000 0.000000 0.000000
# 2 0.003231 0.015374 -0.006308 0.000000 0.000000 0.000000
# 3 -0.007062 -0.006308 0.007868 0.000000 0.000000 0.000000
# 4 0.000000 0.000000 0.000000 0.031726 0.000000 0.000000
# 5 0.000000 0.000000 0.000000 0.000000 0.010927 0.000000
# 6 0.000000 0.000000 0.000000 0.000000 0.000000 -0.087022
#
#
# Mechanical properties :
#
#
# Convention : Reuss Voigt Hill
#
# Bulk Modulus (GPa) = 30.56830 75.32348 52.94589
# Shear Modulus (GPa) = 125.60897 38.13804 81.87351
#
# Velocity S-wave (km/s) = 7.83216 4.31569 6.32329
# Velocity P-wave (km/s) = 9.83457 7.84976 8.89768
#
# Compressibility (1/GPa) = 0.03271363
#
# Stress axis : x y z
#
# Youngs Moduli (GPa) = 33.61313 65.04523 127.10034
#
# Poissons Ratio (x) = -0.21017 0.89760
# Poissons Ratio (y) = -0.10861 0.80177
# Poissons Ratio (z) = 0.23738 0.41032
#
# Static dielectric constant tensor:
#      x y z
#    x 1.773690 0.000000 0.000000 
#    y 0.000000 1.725250 0.000000 
#    z 0.000000 0.000000 1.768550 
# 
# From -- ./inp_files/74663.got.cif
#   From: 2010.05.17/outbox.cif.g08.bks.cpg/sg65_38_cif.got.tgz:74663.got - 2010.06.03 17:01:31.
