data_PCOD9490938
_publ_section_title
;
Structure prediction by ZEFSAII (Michael W. Deem and Ramdas Pophale) SiO2 
 PCOD9490938
Probable space group: C M M M
;
_chemical_formula_sum "Si O2"
_cell_formula_units_Z 64
_cell_length_a 13.017187
_cell_length_b 33.480451
_cell_length_c 8.796570
_cell_angle_alpha 90.000000
_cell_angle_beta 90.000000
_cell_angle_gamma 90.000000
_cell_volume 3833.732498
_symmetry_space_group_name_H-M "C M M M"
_symmetry_group_IT_number 65
_symmetry_cell_setting 'orthorhombic'
loop_
_space_group_symop_operation_xyz
x,y,z
-x,-y,z
x,-y,-z
-x,y,-z
-x,-y,-z
x,y,-z
-x,y,z
x,-y,z
1/2+x,1/2+y,z
1/2-x,1/2-y,z
1/2+x,1/2-y,-z
1/2-x,1/2+y,-z
1/2-x,1/2-y,-z
1/2+x,1/2+y,-z
1/2-x,1/2+y,z
1/2+x,1/2-y,z
loop_
_atom_site_type_symbol
_atom_site_label
_atom_site_fract_x
_atom_site_fract_y
_atom_site_fract_z
Si Si1 0.303547 0.625160 0.819180
Si Si2 0.500000 0.241326 0.181418
Si Si3 0.378561 0.545861 0.317817
Si Si4 0.115123 0.672067 0.678088
Si Si5 0.000000 0.170444 0.681933
O O1 0.314058 0.579260 0.767588
O O2 0.200538 0.645718 0.757555
O O3 0.399782 0.648002 0.744397
O O4 0.309214 0.628431 0.000000
O O5 0.403409 0.214834 0.240637
O O6 0.500000 0.284428 0.256899
O O7 0.500000 0.243990 0.000000
O O8 0.367412 0.550830 0.500000
O O9 0.500000 0.551526 0.283234
O O10 0.352320 0.500000 0.280087
O O11 0.138986 0.677754 0.500000
O O12 0.000000 0.653527 0.688104
O O13 0.000000 0.169656 0.500000
#
# Coordination Sequence:
#
# PCOD9490938 Si02
#       5
#    16   8  16  16   8
#     4  12  23  35  56  86 116 145 183 232 282 324
#     4  10  20  38  58  83 112 139 184 238 284 321
#     4   9  18  34  56  81 112 149 184 219 269 334
#     4   9  20  39  60  80 106 148 192 225 271 333
#     4  12  24  38  55  79 114 151 189 227 274 336
#
# _framework density 16.693913999999999
#
# number of rings (size 3 to 8) (size 9 to 14) (size 15 to 20)
#    0.750    1.000    1.250    5.625    0.000    1.500 
#    0.000    6.250    0.000    0.750    0.000    5.250 
#    0.000    0.000    0.000    0.000    0.000    0.000 
#
# Total GULP energy -178492.577066 kJ/mol
# GULP energy per Si atom -5577.893033 kJ/mol
# Density = 1.665592 g / cm^3
# Si number density = 16.693914 Si / 1000 Ang^3
#
#
#
# Elastic Constant Matrix: (Units=GPa)
#
#
# Indices 1 2 3 4 5 6 
#
# 1 73.5147 55.7914 54.2288 0.0000 0.0000 0.0000
# 2 55.7914 127.7307 72.7876 0.0000 0.0000 0.0000
# 3 54.2288 72.7876 150.8645 0.0000 0.0000 0.0000
# 4 0.0000 0.0000 0.0000 67.0352 0.0000 0.0000
# 5 0.0000 0.0000 0.0000 0.0000 24.8793 0.0000
# 6 0.0000 0.0000 0.0000 0.0000 0.0000 13.3405
#
#
#
# Elastic Compliance Matrix: (Units=1/GPa)
#
#
# Indices 1 2 3 4 5 6 
#
# 1 0.022450 -0.007182 -0.004605 0.000000 0.000000 0.000000
# 2 -0.007182 0.013095 -0.003736 0.000000 0.000000 0.000000
# 3 -0.004605 -0.003736 0.010086 0.000000 0.000000 0.000000
# 4 0.000000 0.000000 0.000000 0.014918 0.000000 0.000000
# 5 0.000000 0.000000 0.000000 0.000000 0.040194 0.000000
# 6 0.000000 0.000000 0.000000 0.000000 0.000000 0.074960
#
#
# Mechanical properties :
#
#
# Convention : Reuss Voigt Hill
#
# Bulk Modulus (GPa) = 68.56184 79.74729 74.15457
# Shear Modulus (GPa) = 23.62834 32.33782 27.98308
#
# Velocity S-wave (km/s) = 3.76624 4.40603 4.09864
# Velocity P-wave (km/s) = 7.75061 8.58825 8.18016
#
# Compressibility (1/GPa) = 0.01458537
#
# Stress axis : x y z
#
# Youngs Moduli (GPa) = 44.54380 76.36398 99.14385
#
# Poissons Ratio (x) = 0.54844 0.45652
# Poissons Ratio (y) = 0.31991 0.37045
# Poissons Ratio (z) = 0.20511 0.28533
#
# Static dielectric constant tensor:
#      x y z
#    x 1.547510 0.000000 0.000000 
#    y 0.000000 1.555780 0.000000 
#    z 0.000000 0.000000 1.552430 
# 
# From -- ./inp_files/7571.got.cif
#   From: 2010.05.17/outbox.cif.g08.bks.cpg/sg65_4_cif.got.tgz:7571.got - 2010.06.03 17:01:31.
