data_PCOD9490799
_publ_section_title
;
Structure prediction by ZEFSAII (Michael W. Deem and Ramdas Pophale) SiO2 
 PCOD9490799
Probable space group: C M M M
;
_chemical_formula_sum "Si O2"
_cell_formula_units_Z 92
_cell_length_a 7.384652
_cell_length_b 23.602516
_cell_length_c 29.285016
_cell_angle_alpha 90.000000
_cell_angle_beta 90.000000
_cell_angle_gamma 90.000000
_cell_volume 5104.271896
_symmetry_space_group_name_H-M "C M M M"
_symmetry_group_IT_number 65
_symmetry_cell_setting 'orthorhombic'
loop_
_space_group_symop_operation_xyz
x,y,z
-x,-y,z
x,-y,-z
-x,y,-z
-x,-y,-z
x,y,-z
-x,y,z
x,-y,z
1/2+x,1/2+y,z
1/2-x,1/2-y,z
1/2+x,1/2-y,-z
1/2-x,1/2+y,-z
1/2-x,1/2-y,-z
1/2+x,1/2+y,-z
1/2-x,1/2+y,z
1/2+x,1/2-y,z
loop_
_atom_site_type_symbol
_atom_site_label
_atom_site_fract_x
_atom_site_fract_y
_atom_site_fract_z
Si Si1 0.000000 0.876386 0.553739
Si Si2 0.716391 0.182337 0.901639
Si Si3 0.280499 0.877730 0.711018
Si Si4 0.783222 0.682149 0.000000
Si Si5 0.281985 0.000000 0.675075
Si Si6 0.716969 0.817270 0.802096
Si Si7 0.214120 0.683104 0.617438
Si Si8 0.500000 0.500000 0.405946
O O1 0.172422 0.848114 0.578502
O O2 0.000000 0.865921 0.500000
O O3 0.000000 0.943045 0.564740
O O4 0.500000 0.173477 0.901837
O O5 0.750000 0.250000 0.901707
O O6 0.786009 0.163259 0.852058
O O7 0.786097 0.160660 0.950788
O O8 0.500000 0.875266 0.712390
O O9 0.213504 0.850958 0.758218
O O10 0.226028 0.841670 0.666599
O O11 0.232175 0.942910 0.702082
O O12 0.750000 0.750000 0.000000
O O13 0.000000 0.674020 0.000000
O O14 0.500000 0.000000 0.667679
O O15 0.173767 0.000000 0.627683
O O16 0.500000 0.824370 0.803168
O O17 0.750000 0.750000 0.796804
O O18 0.250000 0.750000 0.616112
O O19 0.000000 0.672593 0.612402
#
# Coordination Sequence:
#
# PCOD9490799 Si02
#       8
#     8  16  16   8   8  16  16   4
#     4  12  27  44  64  90 118 147 184 227 267 316
#     4   8  13  20  32  48  78 112 154 194 237 288
#     4   9  18  32  53  75 101 133 168 209 261 310
#     4   8  12  18  28  46  68 109 153 194 232 281
#     4  10  20  37  59  81 108 135 174 224 259 311
#     4   9  16  27  40  64  93 126 158 200 249 304
#     4  11  22  40  62  88 118 150 182 220 267 326
#     4  12  23  44  68  88 108 148 188 221 270 314
#
# _framework density 18.024117
#
# number of rings (size 3 to 8) (size 9 to 14) (size 15 to 20)
#    0.000    2.435    2.609    0.652    0.000    0.696 
#    3.130    0.000    0.000    1.565    0.000    0.000 
#    0.000    0.696    0.000    9.739    0.000    1.739 
#
# Total GULP energy -256409.132112 kJ/mol
# GULP energy per Si atom -5574.111568 kJ/mol
# Density = 1.798309 g / cm^3
# Si number density = 18.024117 Si / 1000 Ang^3
#
#
#
# Elastic Constant Matrix: (Units=GPa)
#
#
# Indices 1 2 3 4 5 6 
#
# 1 86.9571 15.2320 39.2547 0.0000 0.0000 0.0000
# 2 15.2320 98.7831 70.1680 0.0000 0.0000 0.0000
# 3 39.2547 70.1680 222.4449 0.0000 0.0000 0.0000
# 4 0.0000 0.0000 0.0000 2.2583 0.0000 0.0000
# 5 0.0000 0.0000 0.0000 0.0000 13.8515 0.0000
# 6 0.0000 0.0000 0.0000 0.0000 0.0000 -3.6347
#
#
#
# Elastic Compliance Matrix: (Units=1/GPa)
#
#
# Indices 1 2 3 4 5 6 
#
# 1 0.012512 -0.000465 -0.002061 0.000000 0.000000 0.000000
# 2 -0.000465 0.013064 -0.004039 0.000000 0.000000 0.000000
# 3 -0.002061 -0.004039 0.006133 0.000000 0.000000 0.000000
# 4 0.000000 0.000000 0.000000 0.442806 0.000000 0.000000
# 5 0.000000 0.000000 0.000000 0.000000 0.072194 0.000000
# 6 0.000000 0.000000 0.000000 0.000000 0.000000 -0.275128
#
#
# Mechanical properties :
#
#
# Convention : Reuss Voigt Hill
#
# Bulk Modulus (GPa) = 53.82536 73.05495 63.44016
# Shear Modulus (GPa) = 17.18778 21.39707 19.29242
#
# Velocity S-wave (km/s) = 3.09139 3.44922 3.27520
# Velocity P-wave (km/s) = 6.53223 7.51549 7.04105
#
# Compressibility (1/GPa) = 0.01857860
#
# Stress axis : x y z
#
# Youngs Moduli (GPa) = 79.92394 76.54789 163.04652
#
# Poissons Ratio (x) = 0.03561 0.33608
# Poissons Ratio (y) = 0.03718 0.65850
# Poissons Ratio (z) = 0.16474 0.30916
#
# Static dielectric constant tensor:
#      x y z
#    x 1.688950 0.000000 0.000000 
#    y 0.000000 1.570140 0.000000 
#    z 0.000000 0.000000 1.660560 
# 
# From -- ./inp_files/73543.got.cif
#   From: 2010.05.17/outbox.cif.g08.bks.cpg/sg65_37_cif.got.tgz:73543.got - 2010.06.03 17:01:31.
