data_PCOD9490041
_publ_section_title
;
Structure prediction by ZEFSAII (Michael W. Deem and Ramdas Pophale) SiO2 
 PCOD9490041
Probable space group: C M M M
;
_chemical_formula_sum "Si O2"
_cell_formula_units_Z 96
_cell_length_a 16.628572
_cell_length_b 15.333081
_cell_length_c 18.950767
_cell_angle_alpha 90.000000
_cell_angle_beta 90.000000
_cell_angle_gamma 90.000000
_cell_volume 4831.824784
_symmetry_space_group_name_H-M "C M M M"
_symmetry_group_IT_number 65
_symmetry_cell_setting 'orthorhombic'
loop_
_space_group_symop_operation_xyz
x,y,z
-x,-y,z
x,-y,-z
-x,y,-z
-x,-y,-z
x,y,-z
-x,y,z
x,-y,z
1/2+x,1/2+y,z
1/2-x,1/2-y,z
1/2+x,1/2-y,-z
1/2-x,1/2+y,-z
1/2-x,1/2-y,-z
1/2+x,1/2+y,-z
1/2-x,1/2+y,z
1/2+x,1/2-y,z
loop_
_atom_site_type_symbol
_atom_site_label
_atom_site_fract_x
_atom_site_fract_y
_atom_site_fract_z
Si Si1 0.411399 0.394909 0.083155
Si Si2 0.656146 0.594696 0.688420
Si Si3 0.241328 0.149851 0.825202
Si Si4 0.411812 0.101983 0.180819
Si Si5 0.089217 0.284284 0.676802
Si Si6 0.702941 0.099210 0.416629
O O1 0.500000 0.365615 0.109441
O O2 0.409118 0.500000 0.090219
O O3 0.334891 0.358725 0.123730
O O4 0.406764 0.374834 0.000000
O O5 0.614563 0.500000 0.691782
O O6 0.718323 0.598624 0.754180
O O7 0.605053 0.682609 0.692283
O O8 0.708704 0.599947 0.617583
O O9 0.250000 0.250000 0.804414
O O10 0.326755 0.119826 0.857360
O O11 0.500000 0.119268 0.146639
O O12 0.407354 0.161762 0.250289
O O13 0.411314 0.000000 0.200173
O O14 0.152295 0.327965 0.624070
O O15 0.000000 0.294569 0.646895
O O16 0.704488 0.114170 0.500000
O O17 0.670955 0.000000 0.403897
#
# Coordination Sequence:
#
# PCOD9490041 Si02
#       6
#    16  16  16  16  16  16
#     4   9  20  39  61  88 123 160 199 245 297 354
#     4  11  22  38  57  82 115 153 199 243 291 355
#     4  12  21  35  61  87 119 157 199 251 299 353
#     4  10  20  35  55  81 116 153 190 238 294 351
#     4  11  22  36  54  81 115 148 188 242 299 353
#     4  10  21  38  60  83 111 149 193 244 300 358
#
# _framework density 19.868269999999999
#
# number of rings (size 3 to 8) (size 9 to 14) (size 15 to 20)
#    0.000    1.500    3.333    3.000    0.000    4.667 
#    0.000    0.833    0.000    0.500    0.000    5.833 
#    0.000    0.000    0.000    0.000    0.000    0.000 
#
# Total GULP energy -267816.491484 kJ/mol
# GULP energy per Si atom -5579.510239 kJ/mol
# Density = 1.982305 g / cm^3
# Si number density = 19.868270 Si / 1000 Ang^3
#
#
#
# Elastic Constant Matrix: (Units=GPa)
#
#
# Indices 1 2 3 4 5 6 
#
# 1 108.7132 19.9803 28.6766 0.0000 0.0000 0.0000
# 2 19.9803 113.1245 5.5142 0.0000 0.0000 0.0000
# 3 28.6766 5.5142 33.7410 0.0000 0.0000 0.0000
# 4 0.0000 0.0000 0.0000 9.9429 0.0000 0.0000
# 5 0.0000 0.0000 0.0000 0.0000 21.6526 0.0000
# 6 0.0000 0.0000 0.0000 0.0000 0.0000 22.3476
#
#
#
# Elastic Compliance Matrix: (Units=1/GPa)
#
#
# Indices 1 2 3 4 5 6 
#
# 1 0.012157 -0.001657 -0.010062 0.000000 0.000000 0.000000
# 2 -0.001657 0.009137 -0.000085 0.000000 0.000000 0.000000
# 3 -0.010062 -0.000085 0.038203 0.000000 0.000000 0.000000
# 4 0.000000 0.000000 0.000000 0.100574 0.000000 0.000000
# 5 0.000000 0.000000 0.000000 0.000000 0.046184 0.000000
# 6 0.000000 0.000000 0.000000 0.000000 0.000000 0.044748
#
#
# Mechanical properties :
#
#
# Convention : Reuss Voigt Hill
#
# Bulk Modulus (GPa) = 27.86320 40.43566 34.14943
# Shear Modulus (GPa) = 17.44763 24.21580 20.83171
#
# Velocity S-wave (km/s) = 2.96660 3.49494 3.24155
# Velocity P-wave (km/s) = 5.07826 6.05659 5.58887
#
# Compressibility (1/GPa) = 0.03588963
#
# Stress axis : x y z
#
# Youngs Moduli (GPa) = 82.25656 109.45006 26.17606
#
# Poissons Ratio (x) = 0.18133 0.26337
# Poissons Ratio (y) = 0.13628 0.00223
# Poissons Ratio (z) = 0.82763 0.00931
#
# Static dielectric constant tensor:
#      x y z
#    x 1.767540 0.000000 0.000000 
#    y 0.000000 1.716220 0.000000 
#    z 0.000000 0.000000 1.666000 
# 
# From -- ./inp_files/62629.got.cif
#   From: 2010.05.17/outbox.cif.g08.bks.cpg/sg65_32_cif.got.tgz:62629.got - 2010.06.03 17:01:31.
