data_PCOD9490751
_publ_section_title
;
Structure prediction by ZEFSAII (Michael W. Deem and Ramdas Pophale) SiO2 
 PCOD9490751
Probable space group: C M M M
;
_chemical_formula_sum "Si O2"
_cell_formula_units_Z 108
_cell_length_a 28.631548
_cell_length_b 14.240032
_cell_length_c 12.839875
_cell_angle_alpha 90.000000
_cell_angle_beta 90.000000
_cell_angle_gamma 90.000000
_cell_volume 5234.998847
_symmetry_space_group_name_H-M "C M M M"
_symmetry_group_IT_number 65
_symmetry_cell_setting 'orthorhombic'
loop_
_space_group_symop_operation_xyz
x,y,z
-x,-y,z
x,-y,-z
-x,y,-z
-x,-y,-z
x,y,-z
-x,y,z
x,-y,z
1/2+x,1/2+y,z
1/2-x,1/2-y,z
1/2+x,1/2-y,-z
1/2-x,1/2+y,-z
1/2-x,1/2-y,-z
1/2+x,1/2+y,-z
1/2-x,1/2+y,z
1/2+x,1/2-y,z
loop_
_atom_site_type_symbol
_atom_site_label
_atom_site_fract_x
_atom_site_fract_y
_atom_site_fract_z
Si Si1 0.707648 0.175237 0.113293
Si Si2 0.653132 0.500000 0.000000
Si Si3 0.686872 0.613893 0.386060
Si Si4 0.289894 0.106974 0.339321
Si Si5 0.443476 0.606369 0.500000
Si Si6 0.360542 0.333881 0.168504
Si Si7 0.393699 0.110529 0.379638
Si Si8 0.555405 0.281504 0.711656
O O1 0.750000 0.250000 0.117943
O O2 0.712062 0.111253 0.214073
O O3 0.661188 0.237582 0.125018
O O4 0.709742 0.128350 0.000000
O O5 0.651797 0.582466 0.091039
O O6 0.667790 0.641118 0.500000
O O7 0.686119 0.500000 0.380976
O O8 0.741020 0.645563 0.379686
O O9 0.662596 0.649593 0.281803
O O10 0.340057 0.146591 0.371935
O O11 0.291304 0.000000 0.376372
O O12 0.424677 0.500000 0.500000
O O13 0.500000 0.600634 0.500000
O O14 0.432212 0.660435 0.606388
O O15 0.415353 0.324227 0.193002
O O16 0.408628 0.116820 0.500000
O O17 0.426014 0.176583 0.310291
O O18 0.394581 0.000000 0.349535
O O19 0.500000 0.284568 0.726293
#
# Coordination Sequence:
#
# PCOD9490751 Si02
#       8
#    16   4  16  16   8  16  16  16
#     4  11  22  38  59  88 123 160 212 266 313 378
#     4  12  28  48  69  92 120 166 216 278 329 404
#     4  10  21  37  59  91 129 168 210 254 307 386
#     4  10  20  37  58  88 128 169 211 256 315 376
#     4   9  20  38  59  87 124 161 204 264 327 387
#     4  12  24  43  64  89 124 164 215 268 330 382
#     4  10  20  36  62  94 133 177 215 260 318 386
#     4  11  24  41  63  92 125 167 218 272 327 391
#
# _framework density 20.630376999999999
#
# number of rings (size 3 to 8) (size 9 to 14) (size 15 to 20)
#    0.000    1.407    5.185    0.444    2.074    2.370 
#    0.000    2.222    0.000    0.000    0.000    0.000 
#    0.000    3.556    0.000    0.000    0.000    0.000 
#
# Total GULP energy -301273.108455 kJ/mol
# GULP energy per Si atom -5579.131638 kJ/mol
# Density = 2.058342 g / cm^3
# Si number density = 20.630377 Si / 1000 Ang^3
#
#
#
# Elastic Constant Matrix: (Units=GPa)
#
#
# Indices 1 2 3 4 5 6 
#
# 1 90.0288 7.0668 8.0923 0.0000 0.0000 0.0000
# 2 7.0668 72.1419 19.3343 0.0000 0.0000 0.0000
# 3 8.0923 19.3343 117.6447 0.0000 0.0000 0.0000
# 4 0.0000 0.0000 0.0000 37.0148 0.0000 0.0000
# 5 0.0000 0.0000 0.0000 0.0000 0.5089 0.0000
# 6 0.0000 0.0000 0.0000 0.0000 0.0000 16.6548
#
#
#
# Elastic Compliance Matrix: (Units=1/GPa)
#
#
# Indices 1 2 3 4 5 6 
#
# 1 0.011237 -0.000935 -0.000619 0.000000 0.000000 0.000000
# 2 -0.000935 0.014578 -0.002332 0.000000 0.000000 0.000000
# 3 -0.000619 -0.002332 0.008926 0.000000 0.000000 0.000000
# 4 0.000000 0.000000 0.000000 0.027016 0.000000 0.000000
# 5 0.000000 0.000000 0.000000 0.000000 1.965013 0.000000
# 6 0.000000 0.000000 0.000000 0.000000 0.000000 0.060043
#
#
# Mechanical properties :
#
#
# Convention : Reuss Voigt Hill
#
# Bulk Modulus (GPa) = 37.07902 38.75580 37.91741
# Shear Modulus (GPa) = 2.37691 27.19051 14.78371
#
# Velocity S-wave (km/s) = 1.07454 3.63434 2.67984
# Velocity P-wave (km/s) = 4.42171 6.03638 5.29100
#
# Compressibility (1/GPa) = 0.02696943
#
# Stress axis : x y z
#
# Youngs Moduli (GPa) = 88.99489 68.59659 112.03302
#
# Poissons Ratio (x) = 0.06412 0.06938
# Poissons Ratio (y) = 0.08319 0.26121
# Poissons Ratio (z) = 0.05512 0.15993
#
# Static dielectric constant tensor:
#      x y z
#    x 1.768330 0.000000 0.000000 
#    y 0.000000 1.761760 0.000000 
#    z 0.000000 0.000000 1.725280 
# 
# From -- ./inp_files/34009.got.cif
#   From: 2010.05.17/outbox.cif.g08.bks.cpg/sg65_18_cif.got.tgz:34009.got - 2010.06.03 17:01:31.
