data_PCOD9490916
_publ_section_title
;
Structure prediction by ZEFSAII (Michael W. Deem and Ramdas Pophale) SiO2 
 PCOD9490916
Probable space group: C M M M
;
_chemical_formula_sum "Si O2"
_cell_formula_units_Z 96
_cell_length_a 11.973870
_cell_length_b 29.813293
_cell_length_c 14.943347
_cell_angle_alpha 90.000000
_cell_angle_beta 90.000000
_cell_angle_gamma 90.000000
_cell_volume 5334.483404
_symmetry_space_group_name_H-M "C M M M"
_symmetry_group_IT_number 65
_symmetry_cell_setting 'orthorhombic'
loop_
_space_group_symop_operation_xyz
x,y,z
-x,-y,z
x,-y,-z
-x,y,-z
-x,-y,-z
x,y,-z
-x,y,z
x,-y,z
1/2+x,1/2+y,z
1/2-x,1/2-y,z
1/2+x,1/2-y,-z
1/2-x,1/2+y,-z
1/2-x,1/2-y,-z
1/2+x,1/2+y,-z
1/2-x,1/2+y,z
1/2+x,1/2-y,z
loop_
_atom_site_type_symbol
_atom_site_label
_atom_site_fract_x
_atom_site_fract_y
_atom_site_fract_z
Si Si1 0.866854 0.638140 0.396677
Si Si2 0.215196 0.800348 0.275947
Si Si3 0.241323 0.048920 0.338332
Si Si4 0.369573 0.549731 0.848270
Si Si5 0.500000 0.422258 0.604553
Si Si6 0.000000 0.180895 0.609326
Si Si7 0.632835 0.349847 0.902197
O O1 0.838814 0.649206 0.500000
O O2 0.811066 0.673403 0.329889
O O3 0.813399 0.589802 0.374291
O O4 0.000000 0.636959 0.387523
O O5 0.250000 0.750000 0.253687
O O6 0.109722 0.799206 0.343942
O O7 0.186324 0.827438 0.185246
O O8 0.218895 0.051355 0.232289
O O9 0.114560 0.053471 0.373028
O O10 0.286875 0.000000 0.362453
O O11 0.500000 0.551618 0.815416
O O12 0.359276 0.500000 0.891018
O O13 0.353619 0.596048 0.899871
O O14 0.500000 0.415605 0.500000
O O15 0.500000 0.371465 0.640920
O O16 0.000000 0.184620 0.500000
O O17 0.500000 0.341206 0.896606
O O18 0.672862 0.333622 0.000000
#
# Coordination Sequence:
#
# PCOD9490916 Si02
#       7
#    16  16  16  16   8   8  16
#     4  11  25  42  58  82 118 162 209 252 297 354
#     4  12  25  42  64  87 120 154 199 258 309 359
#     4  11  20  33  55  84 119 160 199 241 293 351
#     4   9  16  29  53  87 123 153 184 227 287 354
#     4  11  19  30  51  83 120 150 190 242 293 348
#     4  11  22  39  65  92 118 156 198 246 305 361
#     4  10  20  37  63  93 124 155 191 239 301 364
#
# _framework density 17.996120000000001
#
# number of rings (size 3 to 8) (size 9 to 14) (size 15 to 20)
#    0.000    1.333    5.000    1.250    1.167    4.000 
#    0.000    2.500    0.000    0.500    0.000    0.000 
#    0.000    2.667    0.000    0.000    0.000    0.000 
#
# Total GULP energy -267715.506696 kJ/mol
# GULP energy per Si atom -5577.406390 kJ/mol
# Density = 1.795516 g / cm^3
# Si number density = 17.996120 Si / 1000 Ang^3
#
#
#
# Elastic Constant Matrix: (Units=GPa)
#
#
# Indices 1 2 3 4 5 6 
#
# 1 62.1353 34.7967 47.2291 0.0000 0.0000 0.0000
# 2 34.7967 123.7104 56.0731 0.0000 0.0000 0.0000
# 3 47.2291 56.0731 123.7828 0.0000 0.0000 0.0000
# 4 0.0000 0.0000 0.0000 -1.4329 0.0000 0.0000
# 5 0.0000 0.0000 0.0000 0.0000 13.0730 0.0000
# 6 0.0000 0.0000 0.0000 0.0000 0.0000 18.7153
#
#
#
# Elastic Compliance Matrix: (Units=1/GPa)
#
#
# Indices 1 2 3 4 5 6 
#
# 1 0.023647 -0.003224 -0.007562 0.000000 0.000000 0.000000
# 2 -0.003224 0.010611 -0.003577 0.000000 0.000000 0.000000
# 3 -0.007562 -0.003577 0.012584 0.000000 0.000000 0.000000
# 4 0.000000 0.000000 0.000000 -0.697868 0.000000 0.000000
# 5 0.000000 0.000000 0.000000 0.000000 0.076494 0.000000
# 6 0.000000 0.000000 0.000000 0.000000 0.000000 0.053432
#
#
# Mechanical properties :
#
#
# Convention : Reuss Voigt Hill
#
# Bulk Modulus (GPa) = 55.19590 65.09183 60.14386
# Shear Modulus (GPa) = -10.28100 17.50637 3.61268
#
# Velocity S-wave (km/s) = -2.39276 3.12233 1.41839
# Velocity P-wave (km/s) = 4.80665 7.01763 6.01460
#
# Compressibility (1/GPa) = 0.01811729
#
# Stress axis : x y z
#
# Youngs Moduli (GPa) = 42.28807 94.23795 79.46365
#
# Poissons Ratio (x) = 0.30380 0.60092
# Poissons Ratio (y) = 0.13633 0.28424
# Poissons Ratio (z) = 0.31979 0.33708
#
# Static dielectric constant tensor:
#      x y z
#    x 1.584720 0.000000 0.000000 
#    y 0.000000 1.645310 0.000000 
#    z 0.000000 0.000000 1.647880 
# 
# From -- ./inp_files/38914.got.cif
#   From: 2010.05.17/outbox.cif.g08.bks.cpg/sg65_20_cif.got.tgz:38914.got - 2010.06.03 17:01:31.
