data_PCOD9490368
_publ_section_title
;
Structure prediction by ZEFSAII (Michael W. Deem and Ramdas Pophale) SiO2 
 PCOD9490368
Probable space group: C M M M
;
_chemical_formula_sum "Si O2"
_cell_formula_units_Z 104
_cell_length_a 30.004029
_cell_length_b 8.880127
_cell_length_c 20.693908
_cell_angle_alpha 90.000000
_cell_angle_beta 90.000000
_cell_angle_gamma 90.000000
_cell_volume 5513.676322
_symmetry_space_group_name_H-M "C M M M"
_symmetry_group_IT_number 65
_symmetry_cell_setting 'orthorhombic'
loop_
_space_group_symop_operation_xyz
x,y,z
-x,-y,z
x,-y,-z
-x,y,-z
-x,-y,-z
x,y,-z
-x,y,z
x,-y,z
1/2+x,1/2+y,z
1/2-x,1/2-y,z
1/2+x,1/2-y,-z
1/2-x,1/2+y,-z
1/2-x,1/2-y,-z
1/2+x,1/2+y,-z
1/2-x,1/2+y,z
1/2+x,1/2-y,z
loop_
_atom_site_type_symbol
_atom_site_label
_atom_site_fract_x
_atom_site_fract_y
_atom_site_fract_z
Si Si1 0.117093 0.822043 0.702675
Si Si2 0.052722 0.680924 0.807588
Si Si3 0.000000 0.169866 0.577575
Si Si4 0.295092 0.172230 0.752274
Si Si5 0.406629 0.179648 0.574877
Si Si6 0.108094 0.820055 0.073181
Si Si7 0.795780 0.327837 0.907358
O O1 0.077403 0.746613 0.744295
O O2 0.162611 0.773455 0.736603
O O3 0.121511 0.759484 0.629971
O O4 0.110608 0.000000 0.702110
O O5 0.057138 0.500000 0.806834
O O6 0.078415 0.744456 0.870764
O O7 0.000000 0.718710 0.808641
O O8 0.043816 0.263583 0.592395
O O9 0.000000 0.154981 0.500000
O O10 0.000000 0.000000 0.605062
O O11 0.250000 0.250000 0.727761
O O12 0.292738 0.166232 0.829699
O O13 0.300309 0.000000 0.728675
O O14 0.397458 0.221935 0.500000
O O15 0.403813 0.000000 0.579566
O O16 0.158932 0.760378 0.076619
O O17 0.108049 0.000000 0.083007
O O18 0.091512 0.788430 0.000000
O O19 0.798871 0.500000 0.929649
O O20 0.750000 0.250000 0.929481
#
# Coordination Sequence:
#
# PCOD9490368 Si02
#       7
#    16  16   8  16  16  16  16
#     4  12  24  38  62  91 123 159 198 247 300 354
#     4  11  25  44  64  87 117 155 202 252 300 353
#     4   9  17  31  51  77 111 149 192 239 288 347
#     4  10  20  36  60  90 122 155 196 242 295 355
#     4  10  21  37  57  82 117 160 202 246 297 355
#     4  11  24  41  62  88 120 157 198 246 300 358
#     4  10  20  35  59  87 120 157 193 240 295 355
#
# _framework density 18.862186999999999
#
# number of rings (size 3 to 8) (size 9 to 14) (size 15 to 20)
#    0.000    1.462    1.538    3.923    1.077    6.154 
#    0.000    1.538    0.000    0.462    0.000    0.000 
#    0.000    0.000    0.000    0.000    0.000    0.000 
#
# Total GULP energy -290390.417544 kJ/mol
# GULP energy per Si atom -5584.431107 kJ/mol
# Density = 1.881926 g / cm^3
# Si number density = 18.862187 Si / 1000 Ang^3
#
#
#
# Elastic Constant Matrix: (Units=GPa)
#
#
# Indices 1 2 3 4 5 6 
#
# 1 105.4878 45.0040 46.9797 0.0000 0.0000 0.0000
# 2 45.0040 115.9428 56.8384 0.0000 0.0000 0.0000
# 3 46.9797 56.8384 108.1530 0.0000 0.0000 0.0000
# 4 0.0000 0.0000 0.0000 7.3680 0.0000 0.0000
# 5 0.0000 0.0000 0.0000 0.0000 -36.3223 0.0000
# 6 0.0000 0.0000 0.0000 0.0000 0.0000 30.2898
#
#
#
# Elastic Compliance Matrix: (Units=1/GPa)
#
#
# Indices 1 2 3 4 5 6 
#
# 1 0.012455 -0.002940 -0.003866 0.000000 0.000000 0.000000
# 2 -0.002940 0.012312 -0.005193 0.000000 0.000000 0.000000
# 3 -0.003866 -0.005193 0.013655 0.000000 0.000000 0.000000
# 4 0.000000 0.000000 0.000000 0.135722 0.000000 0.000000
# 5 0.000000 0.000000 0.000000 0.000000 -0.027531 0.000000
# 6 0.000000 0.000000 0.000000 0.000000 0.000000 0.033014
#
#
# Mechanical properties :
#
#
# Convention : Reuss Voigt Hill
#
# Bulk Modulus (GPa) = 69.32528 69.69197 69.50862
# Shear Modulus (GPa) = 23.98853 12.31789 18.15321
#
# Velocity S-wave (km/s) = 3.57007 2.55825 3.10564
# Velocity P-wave (km/s) = 7.33670 6.76420 7.05626
#
# Compressibility (1/GPa) = 0.01442475
#
# Stress axis : x y z
#
# Youngs Moduli (GPa) = 80.28614 81.22181 73.23538
#
# Poissons Ratio (x) = 0.23877 0.28309
# Poissons Ratio (y) = 0.23602 0.38034
# Poissons Ratio (z) = 0.31035 0.42182
#
# Static dielectric constant tensor:
#      x y z
#    x 2.848320 0.000000 0.000000 
#    y 0.000000 1.642050 0.000000 
#    z 0.000000 0.000000 1.673100 
# 
# From -- ./inp_files/66427.got.cif
#   From: 2010.05.17/outbox.cif.g08.bks.cpg/sg65_34_cif.got.tgz:66427.got - 2010.06.03 17:01:31.
