data_PCOD9490113
_publ_section_title
;
Structure prediction by ZEFSAII (Michael W. Deem and Ramdas Pophale) SiO2 
 PCOD9490113
Probable space group: C M M M
;
_chemical_formula_sum "Si O2"
_cell_formula_units_Z 80
_cell_length_a 18.832022
_cell_length_b 26.324142
_cell_length_c 8.584051
_cell_angle_alpha 90.000000
_cell_angle_beta 90.000000
_cell_angle_gamma 90.000000
_cell_volume 4255.430156
_symmetry_space_group_name_H-M "C M M M"
_symmetry_group_IT_number 65
_symmetry_cell_setting 'orthorhombic'
loop_
_space_group_symop_operation_xyz
x,y,z
-x,-y,z
x,-y,-z
-x,y,-z
-x,-y,-z
x,y,-z
-x,y,z
x,-y,z
1/2+x,1/2+y,z
1/2-x,1/2-y,z
1/2+x,1/2-y,-z
1/2-x,1/2+y,-z
1/2-x,1/2-y,-z
1/2+x,1/2+y,-z
1/2-x,1/2+y,z
1/2+x,1/2-y,z
loop_
_atom_site_type_symbol
_atom_site_label
_atom_site_fract_x
_atom_site_fract_y
_atom_site_fract_z
Si Si1 0.418107 0.251646 0.688426
Si Si2 0.917400 0.941634 0.312190
Si Si3 0.168115 0.847399 0.815235
Si Si4 0.672908 0.846589 0.311257
Si Si5 0.918124 0.442680 0.689812
O O1 0.417781 0.252984 0.500000
O O2 0.500000 0.248971 0.739493
O O3 0.379913 0.301952 0.748796
O O4 0.374013 0.201891 0.736826
O O5 0.912083 0.937892 0.500000
O O6 0.866550 0.900507 0.236867
O O7 0.000000 0.931729 0.271124
O O8 0.900960 0.000000 0.269207
O O9 0.247542 0.842833 0.749917
O O10 0.169643 0.844096 0.000000
O O11 0.675030 0.847083 0.500000
O O12 0.634270 0.898361 0.258188
O O13 0.917324 0.442419 0.500000
O O14 0.898894 0.500000 0.739303
O O15 0.000000 0.432726 0.735685
#
# Coordination Sequence:
#
# PCOD9490113 Si02
#       5
#    16  16  16  16  16
#     4  10  21  38  60  82 104 136 183 236 282 325
#     4   9  19  38  63  86 107 137 181 229 273 320
#     4  12  25  37  52  79 115 150 181 218 269 329
#     4  10  20  35  56  81 109 143 183 226 272 321
#     4   8  14  27  51  83 112 135 168 219 272 318
#
# _framework density 18.799510000000001
#
# number of rings (size 3 to 8) (size 9 to 14) (size 15 to 20)
#    0.000    2.200    0.000    4.800    0.000   10.000 
#    0.000    3.000    0.000    1.800    0.000    1.400 
#    0.000    0.000    0.000    0.000    0.000    0.000 
#
# Total GULP energy -223388.166923 kJ/mol
# GULP energy per Si atom -5584.704173 kJ/mol
# Density = 1.875672 g / cm^3
# Si number density = 18.799510 Si / 1000 Ang^3
#
#
#
# Elastic Constant Matrix: (Units=GPa)
#
#
# Indices 1 2 3 4 5 6 
#
# 1 180.3718 121.4493 34.3017 0.0000 0.0000 0.0000
# 2 121.4493 152.3806 31.5333 0.0000 0.0000 0.0000
# 3 34.3017 31.5333 13.7331 0.0000 0.0000 0.0000
# 4 0.0000 0.0000 0.0000 -7.0275 0.0000 0.0000
# 5 0.0000 0.0000 0.0000 0.0000 -22.1575 0.0000
# 6 0.0000 0.0000 0.0000 0.0000 0.0000 -22.1730
#
#
#
# Elastic Compliance Matrix: (Units=1/GPa)
#
#
# Indices 1 2 3 4 5 6 
#
# 1 0.013906 -0.007423 -0.017691 0.000000 0.000000 0.000000
# 2 -0.007423 0.016466 -0.019268 0.000000 0.000000 0.000000
# 3 -0.017691 -0.019268 0.161247 0.000000 0.000000 0.000000
# 4 0.000000 0.000000 0.000000 -0.142297 0.000000 0.000000
# 5 0.000000 0.000000 0.000000 0.000000 -0.045131 0.000000
# 6 0.000000 0.000000 0.000000 0.000000 0.000000 -0.045100
#
#
# Mechanical properties :
#
#
# Convention : Reuss Voigt Hill
#
# Bulk Modulus (GPa) = 9.72236 80.11713 44.91974
# Shear Modulus (GPa) = 60.87220 0.34179 30.60700
#
# Velocity S-wave (km/s) = 5.69649 0.42685 4.03932
# Velocity P-wave (km/s) = 6.96056 6.55378 6.76023
#
# Compressibility (1/GPa) = 0.10285568
#
# Stress axis : x y z
#
# Youngs Moduli (GPa) = 71.91037 60.73229 6.20166
#
# Poissons Ratio (x) = 0.45079 0.10971
# Poissons Ratio (y) = 0.53376 0.11950
# Poissons Ratio (z) = 1.27216 1.17021
#
# Static dielectric constant tensor:
#      x y z
#    x 1.619650 0.000000 0.000000 
#    y 0.000000 1.639420 0.000000 
#    z 0.000000 0.000000 1.630920 
# 
# From -- ./inp_files/9664.got.cif
#   From: 2010.05.17/outbox.cif.g08.bks.cpg/sg65_5_cif.got.tgz:9664.got - 2010.06.03 17:01:31.
