data_PCOD9490815
_publ_section_title
;
Structure prediction by ZEFSAII (Michael W. Deem and Ramdas Pophale) SiO2 
 PCOD9490815
Probable space group: C M M M
;
_chemical_formula_sum "Si O2"
_cell_formula_units_Z 88
_cell_length_a 28.099619
_cell_length_b 19.727185
_cell_length_c 7.754555
_cell_angle_alpha 90.000000
_cell_angle_beta 90.000000
_cell_angle_gamma 90.000000
_cell_volume 4298.554421
_symmetry_space_group_name_H-M "C M M M"
_symmetry_group_IT_number 65
_symmetry_cell_setting 'orthorhombic'
loop_
_space_group_symop_operation_xyz
x,y,z
-x,-y,z
x,-y,-z
-x,y,-z
-x,-y,-z
x,y,-z
-x,y,z
x,-y,z
1/2+x,1/2+y,z
1/2-x,1/2-y,z
1/2+x,1/2-y,-z
1/2-x,1/2+y,-z
1/2-x,1/2-y,-z
1/2+x,1/2+y,-z
1/2-x,1/2+y,z
1/2+x,1/2-y,z
loop_
_atom_site_type_symbol
_atom_site_label
_atom_site_fract_x
_atom_site_fract_y
_atom_site_fract_z
Si Si1 0.945211 0.075842 0.291492
Si Si2 0.125052 0.195159 0.796263
Si Si3 0.592365 0.160359 0.798896
Si Si4 0.815644 0.422855 0.296862
Si Si5 0.500000 0.921359 0.211974
Si Si6 0.230932 0.175652 0.208328
O O1 0.944152 0.077228 0.500000
O O2 0.911879 0.134803 0.225134
O O3 0.000000 0.085957 0.238118
O O4 0.930442 0.000000 0.236715
O O5 0.104610 0.265707 0.722186
O O6 0.176657 0.172911 0.727659
O O7 0.132865 0.207955 0.000000
O O8 0.640339 0.116370 0.787900
O O9 0.547284 0.118716 0.728767
O O10 0.580523 0.171611 0.000000
O O11 0.826012 0.424602 0.500000
O O12 0.811677 0.500000 0.232998
O O13 0.766990 0.381505 0.271654
O O14 0.500000 0.000000 0.267101
O O15 0.500000 0.922930 0.000000
O O16 0.250000 0.250000 0.256418
O O17 0.231707 0.171118 0.000000
#
# Coordination Sequence:
#
# PCOD9490815 Si02
#       6
#    16  16  16  16   8  16
#     4   9  20  39  59  80 112 154 193 227 273 338
#     4  10  21  35  58  88 114 143 186 239 287 332
#     4  10  20  37  59  84 115 151 190 233 280 332
#     4  11  24  39  57  85 117 150 190 231 277 335
#     4   9  18  32  55  85 112 145 190 232 275 331
#     4  10  20  39  60  81 111 147 189 232 280 334
#
# _framework density 20.471997999999999
#
# number of rings (size 3 to 8) (size 9 to 14) (size 15 to 20)
#    0.000    2.091    1.818    1.636    1.273    5.455 
#    0.000    5.000    0.000    1.636    0.000    0.000 
#    0.000    0.000    0.000    0.000    0.000    0.000 
#
# Total GULP energy -245680.524924 kJ/mol
# GULP energy per Si atom -5583.648294 kJ/mol
# Density = 2.042540 g / cm^3
# Si number density = 20.471998 Si / 1000 Ang^3
#
#
#
# Elastic Constant Matrix: (Units=GPa)
#
#
# Indices 1 2 3 4 5 6 
#
# 1 142.1148 88.2001 -8.9252 0.0000 0.0000 0.0000
# 2 88.2001 150.9187 -13.4925 0.0000 0.0000 0.0000
# 3 -8.9252 -13.4925 23.1102 0.0000 0.0000 0.0000
# 4 0.0000 0.0000 0.0000 22.9806 0.0000 0.0000
# 5 0.0000 0.0000 0.0000 0.0000 6.6448 0.0000
# 6 0.0000 0.0000 0.0000 0.0000 0.0000 38.2937
#
#
#
# Elastic Compliance Matrix: (Units=1/GPa)
#
#
# Indices 1 2 3 4 5 6 
#
# 1 0.011047 -0.006409 0.000524 0.000000 0.000000 0.000000
# 2 -0.006409 0.010710 0.003777 0.000000 0.000000 0.000000
# 3 0.000524 0.003777 0.045679 0.000000 0.000000 0.000000
# 4 0.000000 0.000000 0.000000 0.043515 0.000000 0.000000
# 5 0.000000 0.000000 0.000000 0.000000 0.150493 0.000000
# 6 0.000000 0.000000 0.000000 0.000000 0.000000 0.026114
#
#
# Mechanical properties :
#
#
# Convention : Reuss Voigt Hill
#
# Bulk Modulus (GPa) = 15.81767 49.74538 32.78153
# Shear Modulus (GPa) = 15.98226 30.27458 23.12842
#
# Velocity S-wave (km/s) = 2.79711 3.84973 3.36484
# Velocity P-wave (km/s) = 4.26322 6.64172 5.58066
#
# Compressibility (1/GPa) = 0.06322043
#
# Stress axis : x y z
#
# Youngs Moduli (GPa) = 90.51938 93.37427 21.89200
#
# Poissons Ratio (x) = 0.59848 -0.01148
# Poissons Ratio (y) = 0.58018 -0.08269
# Poissons Ratio (z) = -0.04748 -0.35270
#
# Static dielectric constant tensor:
#      x y z
#    x 1.698760 0.000000 0.000000 
#    y 0.000000 1.703060 0.000000 
#    z 0.000000 0.000000 1.768720 
# 
# From -- ./inp_files/13990.got.cif
#   From: 2010.05.17/outbox.cif.g08.bks.cpg/sg65_7_cif.got.tgz:13990.got - 2010.06.03 17:01:31.
