data_PCOD9490869
_publ_section_title
;
Structure prediction by ZEFSAII (Michael W. Deem and Ramdas Pophale) SiO2 
 PCOD9490869
Probable space group: C M M M
;
_chemical_formula_sum "Si O2"
_cell_formula_units_Z 72
_cell_length_a 16.826242
_cell_length_b 8.474035
_cell_length_c 25.785253
_cell_angle_alpha 90.000000
_cell_angle_beta 90.000000
_cell_angle_gamma 90.000000
_cell_volume 3676.620303
_symmetry_space_group_name_H-M "C M M M"
_symmetry_group_IT_number 65
_symmetry_cell_setting 'orthorhombic'
loop_
_space_group_symop_operation_xyz
x,y,z
-x,-y,z
x,-y,-z
-x,y,-z
-x,-y,-z
x,y,-z
-x,y,z
x,-y,z
1/2+x,1/2+y,z
1/2-x,1/2-y,z
1/2+x,1/2-y,-z
1/2-x,1/2+y,-z
1/2-x,1/2-y,-z
1/2+x,1/2+y,-z
1/2-x,1/2+y,z
1/2+x,1/2-y,z
loop_
_atom_site_type_symbol
_atom_site_label
_atom_site_fract_x
_atom_site_fract_y
_atom_site_fract_z
Si Si1 0.159920 0.691159 0.444084
Si Si2 0.337136 0.314649 0.233640
Si Si3 0.159450 0.312165 0.120565
Si Si4 0.406565 0.820910 0.664580
Si Si5 0.500000 0.192473 0.060322
O O1 0.123435 0.739600 0.500000
O O2 0.156580 0.500000 0.442729
O O3 0.250000 0.750000 0.444824
O O4 0.124456 0.747614 0.389723
O O5 0.334375 0.500000 0.223460
O O6 0.250000 0.250000 0.246295
O O7 0.360865 0.230394 0.180164
O O8 0.388072 0.276039 0.284004
O O9 0.164078 0.500000 0.114732
O O10 0.250000 0.250000 0.109851
O O11 0.083498 0.254928 0.086781
O O12 0.500000 0.833433 0.658964
O O13 0.373541 0.000000 0.671651
O O14 0.500000 0.000000 0.063728
O O15 0.500000 0.236574 0.000000
#
# Coordination Sequence:
#
# PCOD9490869 Si02
#       5
#    16  16  16  16   8
#     4   9  18  33  53  75  99 133 177 223 270 324
#     4  11  22  37  57  81 110 144 185 232 281 333
#     4  10  20  37  61  88 118 156 197 241 290 344
#     4  10  21  35  52  77 109 143 179 222 276 334
#     4   9  20  38  61  89 121 159 198 235 284 345
#
# _framework density 19.583202
#
# number of rings (size 3 to 8) (size 9 to 14) (size 15 to 20)
#    0.000    2.111    0.000    4.667    1.556    4.000 
#    0.000    3.889    0.000    4.667    0.000    4.667 
#    0.000    0.000    0.000    0.000    0.000    0.000 
#
# Total GULP energy -200649.229025 kJ/mol
# GULP energy per Si atom -5573.589695 kJ/mol
# Density = 1.953863 g / cm^3
# Si number density = 19.583202 Si / 1000 Ang^3
#
#
#
# Elastic Constant Matrix: (Units=GPa)
#
#
# Indices 1 2 3 4 5 6 
#
# 1 96.0852 13.7229 94.6348 0.0000 0.0000 0.0000
# 2 13.7229 29.4578 8.2307 0.0000 0.0000 0.0000
# 3 94.6348 8.2307 136.2149 0.0000 0.0000 0.0000
# 4 0.0000 0.0000 0.0000 98.7865 0.0000 0.0000
# 5 0.0000 0.0000 0.0000 0.0000 51.6034 0.0000
# 6 0.0000 0.0000 0.0000 0.0000 0.0000 22.0124
#
#
#
# Elastic Compliance Matrix: (Units=1/GPa)
#
#
# Indices 1 2 3 4 5 6 
#
# 1 0.035555 -0.009827 -0.024108 0.000000 0.000000 0.000000
# 2 -0.009827 0.037246 0.004577 0.000000 0.000000 0.000000
# 3 -0.024108 0.004577 0.023814 0.000000 0.000000 0.000000
# 4 0.000000 0.000000 0.000000 0.010123 0.000000 0.000000
# 5 0.000000 0.000000 0.000000 0.000000 0.019379 0.000000
# 6 0.000000 0.000000 0.000000 0.000000 0.000000 0.045429
#
#
# Mechanical properties :
#
#
# Convention : Reuss Voigt Hill
#
# Bulk Modulus (GPa) = 26.38652 54.99276 40.68964
# Shear Modulus (GPa) = 20.58508 44.15841 32.37175
#
# Velocity S-wave (km/s) = 3.24568 4.75374 4.07017
# Velocity P-wave (km/s) = 5.24873 7.63370 6.55067
#
# Compressibility (1/GPa) = 0.03789813
#
# Stress axis : x y z
#
# Youngs Moduli (GPa) = 28.12547 26.84845 41.99276
#
# Poissons Ratio (x) = 0.26385 1.01236
# Poissons Ratio (y) = 0.27640 -0.19220
# Poissons Ratio (z) = 0.67805 -0.12288
#
# Static dielectric constant tensor:
#      x y z
#    x 1.665430 0.000000 0.000000 
#    y 0.000000 1.703450 0.000000 
#    z 0.000000 0.000000 1.718740 
# 
# From -- ./inp_files/72483.got.cif
#   From: 2010.05.17/outbox.cif.g08.bks.cpg/sg65_37_cif.got.tgz:72483.got - 2010.06.03 17:01:31.
