data_PCOD9490801
_publ_section_title
;
Structure prediction by ZEFSAII (Michael W. Deem and Ramdas Pophale) SiO2 
 PCOD9490801
Probable space group: C M M M
;
_chemical_formula_sum "Si O2"
_cell_formula_units_Z 88
_cell_length_a 25.412374
_cell_length_b 20.464634
_cell_length_c 9.645185
_cell_angle_alpha 90.000000
_cell_angle_beta 90.000000
_cell_angle_gamma 90.000000
_cell_volume 5016.026039
_symmetry_space_group_name_H-M "C M M M"
_symmetry_group_IT_number 65
_symmetry_cell_setting 'orthorhombic'
loop_
_space_group_symop_operation_xyz
x,y,z
-x,-y,z
x,-y,-z
-x,y,-z
-x,-y,-z
x,y,-z
-x,y,z
x,-y,z
1/2+x,1/2+y,z
1/2-x,1/2-y,z
1/2+x,1/2-y,-z
1/2-x,1/2+y,-z
1/2-x,1/2-y,-z
1/2+x,1/2+y,-z
1/2-x,1/2+y,z
1/2+x,1/2-y,z
loop_
_atom_site_type_symbol
_atom_site_label
_atom_site_fract_x
_atom_site_fract_y
_atom_site_fract_z
Si Si1 0.833599 0.000000 0.166574
Si Si2 0.148120 0.371472 0.165142
Si Si3 0.061937 0.577906 0.346744
Si Si4 0.210092 0.500000 0.833297
Si Si5 0.382924 0.380743 0.665900
Si Si6 0.813672 0.749306 0.339185
Si Si7 0.500000 0.422996 0.666663
O O1 0.771451 0.000000 0.195979
O O2 0.858030 0.937086 0.240293
O O3 0.841547 0.000000 0.000000
O O4 0.090575 0.386132 0.223397
O O5 0.182614 0.433631 0.215822
O O6 0.167785 0.305884 0.234586
O O7 0.150184 0.368082 0.000000
O O8 0.082144 0.597417 0.500000
O O9 0.069643 0.500000 0.333297
O O10 0.000000 0.589917 0.344357
O O11 0.203740 0.500000 0.000000
O O12 0.378957 0.395269 0.500000
O O13 0.347855 0.315269 0.688141
O O14 0.445722 0.384479 0.701488
O O15 0.824558 0.732130 0.500000
O O16 0.750000 0.750000 0.325929
O O17 0.500000 0.500000 0.716842
O O18 0.500000 0.427705 0.500000
#
# Coordination Sequence:
#
# PCOD9490801 Si02
#       7
#     8  16  16   8  16  16   8
#     4  11  21  34  56  84 113 140 181 230 279 340
#     4  11  21  36  57  80 113 150 189 232 283 346
#     4   9  18  34  56  81 109 141 181 230 279 328
#     4   9  20  35  51  79 113 149 185 224 275 342
#     4  10  20  37  59  81 109 146 187 229 283 343
#     4  10  22  39  57  81 114 149 192 242 289 342
#     4   9  16  32  60  86 108 137 182 229 271 341
#
# _framework density 17.543769000000001
#
# number of rings (size 3 to 8) (size 9 to 14) (size 15 to 20)
#    0.000    2.091    1.818    2.455    0.000    1.455 
#    1.636    4.545    0.000    0.000    0.000    0.000 
#    0.000    0.000    0.000    0.000    0.000    0.000 
#
# Total GULP energy -245114.145677 kJ/mol
# GULP energy per Si atom -5570.776038 kJ/mol
# Density = 1.750384 g / cm^3
# Si number density = 17.543769 Si / 1000 Ang^3
#
#
#
# Elastic Constant Matrix: (Units=GPa)
#
#
# Indices 1 2 3 4 5 6 
#
# 1 111.7451 71.4969 57.5607 0.0000 0.0000 0.0000
# 2 71.4969 110.2646 76.6003 0.0000 0.0000 0.0000
# 3 57.5607 76.6003 87.1474 0.0000 0.0000 0.0000
# 4 0.0000 0.0000 0.0000 26.8990 0.0000 0.0000
# 5 0.0000 0.0000 0.0000 0.0000 24.1144 0.0000
# 6 0.0000 0.0000 0.0000 0.0000 0.0000 -3.0108
#
#
#
# Elastic Compliance Matrix: (Units=1/GPa)
#
#
# Indices 1 2 3 4 5 6 
#
# 1 0.015736 -0.007661 -0.003660 0.000000 0.000000 0.000000
# 2 -0.007661 0.027021 -0.018691 0.000000 0.000000 0.000000
# 3 -0.003660 -0.018691 0.030321 0.000000 0.000000 0.000000
# 4 0.000000 0.000000 0.000000 0.037176 0.000000 0.000000
# 5 0.000000 0.000000 0.000000 0.000000 0.041469 0.000000
# 6 0.000000 0.000000 0.000000 0.000000 0.000000 -0.332139
#
#
# Mechanical properties :
#
#
# Convention : Reuss Voigt Hill
#
# Bulk Modulus (GPa) = 76.60039 80.05254 78.32646
# Shear Modulus (GPa) = -43.08735 16.50046 -13.29344
#
# Velocity S-wave (km/s) = -4.96117 3.07014 -2.75568
# Velocity P-wave (km/s) = 3.30751 7.63524 5.88373
#
# Compressibility (1/GPa) = 0.01305476
#
# Stress axis : x y z
#
# Youngs Moduli (GPa) = 63.55013 37.00871 32.98089
#
# Poissons Ratio (x) = 0.28351 0.12070
# Poissons Ratio (y) = 0.48684 0.61643
# Poissons Ratio (z) = 0.23258 0.69171
#
# Static dielectric constant tensor:
#      x y z
#    x 1.628770 0.000000 0.000000 
#    y 0.000000 1.257060 0.000000 
#    z 0.000000 0.000000 1.580010 
# 
# From -- ./inp_files/14085.got.cif
#   From: 2010.05.17/outbox.cif.g08.bks.cpg/sg65_8_cif.got.tgz:14085.got - 2010.06.03 17:01:31.
