data_PCOD9490904
_publ_section_title
;
Structure prediction by ZEFSAII (Michael W. Deem and Ramdas Pophale) SiO2 
 PCOD9490904
Probable space group: C M M M
;
_chemical_formula_sum "Si O2"
_cell_formula_units_Z 112
_cell_length_a 14.260796
_cell_length_b 25.179280
_cell_length_c 15.211471
_cell_angle_alpha 90.000000
_cell_angle_beta 90.000000
_cell_angle_gamma 90.000000
_cell_volume 5462.082915
_symmetry_space_group_name_H-M "C M M M"
_symmetry_group_IT_number 65
_symmetry_cell_setting 'orthorhombic'
loop_
_space_group_symop_operation_xyz
x,y,z
-x,-y,z
x,-y,-z
-x,y,-z
-x,-y,-z
x,y,-z
-x,y,z
x,-y,z
1/2+x,1/2+y,z
1/2-x,1/2-y,z
1/2+x,1/2-y,-z
1/2-x,1/2+y,-z
1/2-x,1/2-y,-z
1/2+x,1/2+y,-z
1/2-x,1/2+y,z
1/2+x,1/2-y,z
loop_
_atom_site_type_symbol
_atom_site_label
_atom_site_fract_x
_atom_site_fract_y
_atom_site_fract_z
Si Si1 0.104198 0.363758 0.653503
Si Si2 0.106352 0.436785 0.174258
Si Si3 0.892310 0.757993 0.713603
Si Si4 0.387669 0.706551 0.095348
Si Si5 0.808092 0.849958 0.599592
Si Si6 0.797149 0.909179 0.903655
Si Si7 0.888858 0.058433 0.722605
O O1 0.115183 0.404931 0.734092
O O2 0.105855 0.303435 0.688911
O O3 0.198205 0.364945 0.597211
O O4 0.000000 0.372700 0.614303
O O5 0.119708 0.500000 0.187340
O O6 0.186245 0.415332 0.110222
O O7 0.000000 0.428383 0.142089
O O8 0.865146 0.762425 0.815911
O O9 0.828949 0.795247 0.652002
O O10 0.000000 0.778184 0.704404
O O11 0.500000 0.695354 0.097699
O O12 0.331730 0.651518 0.099157
O O13 0.368605 0.732401 0.000000
O O14 0.844109 0.846187 0.500000
O O15 0.855446 0.895589 0.657974
O O16 0.843104 0.935770 0.818568
O O17 0.823869 0.930570 0.000000
O O18 0.000000 0.062431 0.733273
O O19 0.864983 0.000000 0.687010
#
# Coordination Sequence:
#
# PCOD9490904 Si02
#       7
#    16  16  16  16  16  16  16
#     4  10  22  40  64  92 121 157 208 264 312 363
#     4  10  21  39  62  86 119 165 210 251 299 355
#     4  10  20  37  62  91 127 164 204 256 309 366
#     4   9  17  32  58  91 127 167 205 244 299 367
#     4  12  25  41  64  90 122 165 207 252 315 380
#     4  11  21  35  61  95 126 162 206 248 297 358
#     4  11  24  42  64  92 127 163 203 253 304 364
#
# _framework density 20.504996999999999
#
# number of rings (size 3 to 8) (size 9 to 14) (size 15 to 20)
#    0.000    1.571    2.857    1.714    0.000    5.143 
#    0.000    4.286    0.000    5.143    0.000    3.000 
#    0.000    0.000    0.000    0.000    0.000    0.000 
#
# Total GULP energy -312674.755189 kJ/mol
# GULP energy per Si atom -5583.477771 kJ/mol
# Density = 2.045833 g / cm^3
# Si number density = 20.504997 Si / 1000 Ang^3
#
#
#
# Elastic Constant Matrix: (Units=GPa)
#
#
# Indices 1 2 3 4 5 6 
#
# 1 88.2102 11.2557 31.8322 0.0000 0.0000 0.0000
# 2 11.2557 39.3494 26.8102 0.0000 0.0000 0.0000
# 3 31.8322 26.8102 124.5703 0.0000 0.0000 0.0000
# 4 0.0000 0.0000 0.0000 -2.9531 0.0000 0.0000
# 5 0.0000 0.0000 0.0000 0.0000 8.4323 0.0000
# 6 0.0000 0.0000 0.0000 0.0000 0.0000 9.9473
#
#
#
# Elastic Compliance Matrix: (Units=1/GPa)
#
#
# Indices 1 2 3 4 5 6 
#
# 1 0.012579 -0.001650 -0.002859 0.000000 0.000000 0.000000
# 2 -0.001650 0.029997 -0.006034 0.000000 0.000000 0.000000
# 3 -0.002859 -0.006034 0.010057 0.000000 0.000000 0.000000
# 4 0.000000 0.000000 0.000000 -0.338632 0.000000 0.000000
# 5 0.000000 0.000000 0.000000 0.000000 0.118592 0.000000
# 6 0.000000 0.000000 0.000000 0.000000 0.000000 0.100529
#
#
# Mechanical properties :
#
#
# Convention : Reuss Voigt Hill
#
# Bulk Modulus (GPa) = 31.70033 43.54736 37.62384
# Shear Modulus (GPa) = -141.73759 15.23410 -63.25174
#
# Velocity S-wave (km/s) = -8.32307 2.72866 -5.56003
# Velocity P-wave (km/s) = 8.76763 5.58668 4.77809
#
# Compressibility (1/GPa) = 0.03154542
#
# Stress axis : x y z
#
# Youngs Moduli (GPa) = 79.49810 33.33701 99.43374
#
# Poissons Ratio (x) = 0.05501 0.28431
# Poissons Ratio (y) = 0.13117 0.60001
# Poissons Ratio (z) = 0.22730 0.20117
#
# Static dielectric constant tensor:
#      x y z
#    x 1.783300 0.000000 0.000000 
#    y 0.000000 1.698180 0.000000 
#    z 0.000000 0.000000 1.736400 
# 
# From -- ./inp_files/41080.got.cif
#   From: 2010.05.17/outbox.cif.g08.bks.cpg/sg65_21_cif.got.tgz:41080.got - 2010.06.03 17:01:31.
