data_PCOD9490839
_publ_section_title
;
Structure prediction by ZEFSAII (Michael W. Deem and Ramdas Pophale) SiO2 
 PCOD9490839
Probable space group: C M M M
;
_chemical_formula_sum "Si O2"
_cell_formula_units_Z 88
_cell_length_a 15.147193
_cell_length_b 8.775718
_cell_length_c 32.210737
_cell_angle_alpha 90.000000
_cell_angle_beta 90.000000
_cell_angle_gamma 90.000000
_cell_volume 4281.692558
_symmetry_space_group_name_H-M "C M M M"
_symmetry_group_IT_number 65
_symmetry_cell_setting 'orthorhombic'
loop_
_space_group_symop_operation_xyz
x,y,z
-x,-y,z
x,-y,-z
-x,y,-z
-x,-y,-z
x,y,-z
-x,y,z
x,-y,z
1/2+x,1/2+y,z
1/2-x,1/2-y,z
1/2+x,1/2-y,-z
1/2-x,1/2+y,-z
1/2-x,1/2-y,-z
1/2+x,1/2+y,-z
1/2-x,1/2+y,z
1/2+x,1/2-y,z
loop_
_atom_site_type_symbol
_atom_site_label
_atom_site_fract_x
_atom_site_fract_y
_atom_site_fract_z
Si Si1 0.500000 0.685418 0.047331
Si Si2 0.106926 0.680797 0.454963
Si Si3 0.847565 0.319590 0.195412
Si Si4 0.396176 0.683215 0.630155
Si Si5 0.104811 0.172020 0.280565
Si Si6 0.651331 0.683130 0.110594
O O1 0.500000 0.500000 0.046398
O O2 0.586742 0.729792 0.073312
O O3 0.500000 0.740271 0.000000
O O4 0.139058 0.738903 0.500000
O O5 0.122441 0.500000 0.453082
O O6 0.142241 0.755503 0.412874
O O7 0.000000 0.702687 0.455457
O O8 0.847201 0.500000 0.190292
O O9 0.750000 0.250000 0.195928
O O10 0.884222 0.273476 0.240107
O O11 0.888030 0.243285 0.154306
O O12 0.500000 0.728425 0.629246
O O13 0.392024 0.500000 0.630221
O O14 0.359783 0.733166 0.675211
O O15 0.000000 0.156951 0.286862
O O16 0.140308 0.000000 0.272720
O O17 0.656777 0.500000 0.112392
O O18 0.750000 0.750000 0.105511
#
# Coordination Sequence:
#
# PCOD9490839 Si02
#       6
#     8  16  16  16  16  16
#     4   9  20  38  61  89 119 155 197 233 278 343
#     4   8  13  20  30  46  72 109 150 192 240 293
#     4  11  22  36  54  77 105 137 176 219 263 314
#     4   8  14  24  37  55  81 114 152 195 242 297
#     4   9  18  32  49  70  99 133 167 206 259 315
#     4  10  20  37  60  85 115 153 191 235 286 335
#
# _framework density 20.552619
#
# number of rings (size 3 to 8) (size 9 to 14) (size 15 to 20)
#    0.000    2.818    0.000    4.909    1.273    1.818 
#    0.000    5.000    0.000    3.818    0.000    0.000 
#    0.000    0.727    0.000    2.364    0.000    5.273 
#
# Total GULP energy -245222.083038 kJ/mol
# GULP energy per Si atom -5573.229160 kJ/mol
# Density = 2.050584 g / cm^3
# Si number density = 20.552619 Si / 1000 Ang^3
#
#
#
# Elastic Constant Matrix: (Units=GPa)
#
#
# Indices 1 2 3 4 5 6 
#
# 1 57.0211 17.1117 48.6024 0.0000 0.0000 0.0000
# 2 17.1117 61.0292 57.6943 0.0000 0.0000 0.0000
# 3 48.6024 57.6943 237.7419 0.0000 0.0000 0.0000
# 4 0.0000 0.0000 0.0000 -44.1822 0.0000 0.0000
# 5 0.0000 0.0000 0.0000 0.0000 -215.3393 0.0000
# 6 0.0000 0.0000 0.0000 0.0000 0.0000 13.7939
#
#
#
# Elastic Compliance Matrix: (Units=1/GPa)
#
#
# Indices 1 2 3 4 5 6 
#
# 1 0.021513 -0.002432 -0.003808 0.000000 0.000000 0.000000
# 2 -0.002432 0.021539 -0.004730 0.000000 0.000000 0.000000
# 3 -0.003808 -0.004730 0.006132 0.000000 0.000000 0.000000
# 4 0.000000 0.000000 0.000000 -0.022634 0.000000 0.000000
# 5 0.000000 0.000000 0.000000 0.000000 -0.004644 0.000000
# 6 0.000000 0.000000 0.000000 0.000000 0.000000 0.072496
#
#
# Mechanical properties :
#
#
# Convention : Reuss Voigt Hill
#
# Bulk Modulus (GPa) = 36.70433 66.95655 51.83044
# Shear Modulus (GPa) = 39.86503 -33.65324 3.10590
#
# Velocity S-wave (km/s) = 4.40893 -4.05089 1.23064
# Velocity P-wave (km/s) = 6.61934 3.28164 5.22422
#
# Compressibility (1/GPa) = 0.02724474
#
# Stress axis : x y z
#
# Youngs Moduli (GPa) = 46.48400 46.42780 163.06695
#
# Poissons Ratio (x) = 0.11292 0.62091
# Poissons Ratio (y) = 0.11306 0.77126
# Poissons Ratio (z) = 0.17700 0.21959
#
# Static dielectric constant tensor:
#      x y z
#    x 1.837640 0.000000 0.000000 
#    y 0.000000 1.698640 0.000000 
#    z 0.000000 0.000000 1.808270 
# 
# From -- ./inp_files/77979.got.cif
#   From: 2010.05.17/outbox.cif.g08.bks.cpg/sg65_39_cif.got.tgz:77979.got - 2010.06.03 17:01:31.
