data_PCOD9490631
_publ_section_title
;
Structure prediction by ZEFSAII (Michael W. Deem and Ramdas Pophale) SiO2 
 PCOD9490631
Probable space group: C M M M
;
_chemical_formula_sum "Si O2"
_cell_formula_units_Z 72
_cell_length_a 33.454242
_cell_length_b 14.811078
_cell_length_c 7.246193
_cell_angle_alpha 90.000000
_cell_angle_beta 90.000000
_cell_angle_gamma 90.000000
_cell_volume 3590.440717
_symmetry_space_group_name_H-M "C M M M"
_symmetry_group_IT_number 65
_symmetry_cell_setting 'orthorhombic'
loop_
_space_group_symop_operation_xyz
x,y,z
-x,-y,z
x,-y,-z
-x,y,-z
-x,-y,-z
x,y,-z
-x,y,z
x,-y,z
1/2+x,1/2+y,z
1/2-x,1/2-y,z
1/2+x,1/2-y,-z
1/2-x,1/2+y,-z
1/2-x,1/2-y,-z
1/2+x,1/2+y,-z
1/2-x,1/2+y,z
1/2+x,1/2-y,z
loop_
_atom_site_type_symbol
_atom_site_label
_atom_site_fract_x
_atom_site_fract_y
_atom_site_fract_z
Si Si1 0.545759 0.101422 0.223765
Si Si2 0.741764 0.896720 0.224615
Si Si3 0.095042 0.775959 0.777570
Si Si4 0.046569 0.107560 0.500000
Si Si5 0.813038 0.232755 0.776099
O O1 0.500000 0.120512 0.281031
O O2 0.575874 0.179796 0.277558
O O3 0.556345 0.000000 0.283700
O O4 0.545602 0.100387 0.000000
O O5 0.782976 0.847285 0.280221
O O6 0.706530 0.828138 0.281183
O O7 0.738265 0.000000 0.286292
O O8 0.741489 0.898314 0.000000
O O9 0.069034 0.851233 0.676508
O O10 0.141339 0.779908 0.720826
O O11 0.092671 0.784431 0.000000
O O12 0.000000 0.134414 0.500000
O O13 0.048907 0.000000 0.500000
O O14 0.812768 0.233366 0.000000
#
# Coordination Sequence:
#
# PCOD9490631 Si02
#       5
#    16  16  16   8  16
#     4   8  14  26  47  76 106 135 170 213 265 327
#     4   8  13  23  41  68 106 145 177 216 264 312
#     4  10  20  36  59  83 110 145 184 230 279 324
#     4  11  26  44  59  80 109 141 184 234 281 333
#     4   8  15  26  43  73 105 136 180 221 259 318
#
# _framework density 20.053249000000001
#
# number of rings (size 3 to 8) (size 9 to 14) (size 15 to 20)
#    0.000    3.222    0.000    2.667    0.000    3.556 
#    0.000    8.333    0.000    4.667    0.000    1.556 
#    0.000    0.000    0.000    0.000    0.000    0.000 
#
# Total GULP energy -200915.793137 kJ/mol
# GULP energy per Si atom -5580.994254 kJ/mol
# Density = 2.000761 g / cm^3
# Si number density = 20.053249 Si / 1000 Ang^3
#
#
#
# Elastic Constant Matrix: (Units=GPa)
#
#
# Indices 1 2 3 4 5 6 
#
# 1 176.3831 85.8617 31.6615 0.0000 0.0000 0.0000
# 2 85.8617 138.3952 23.4768 0.0000 0.0000 0.0000
# 3 31.6615 23.4768 99.2809 0.0000 0.0000 0.0000
# 4 0.0000 0.0000 0.0000 30.6536 0.0000 0.0000
# 5 0.0000 0.0000 0.0000 0.0000 -11.3352 0.0000
# 6 0.0000 0.0000 0.0000 0.0000 0.0000 -16.2585
#
#
#
# Elastic Compliance Matrix: (Units=1/GPa)
#
#
# Indices 1 2 3 4 5 6 
#
# 1 0.008330 -0.004915 -0.001494 0.000000 0.000000 0.000000
# 2 -0.004915 0.010427 -0.000898 0.000000 0.000000 0.000000
# 3 -0.001494 -0.000898 0.010761 0.000000 0.000000 0.000000
# 4 0.000000 0.000000 0.000000 0.032623 0.000000 0.000000
# 5 0.000000 0.000000 0.000000 0.000000 -0.088220 0.000000
# 6 0.000000 0.000000 0.000000 0.000000 0.000000 -0.061506
#
#
# Mechanical properties :
#
#
# Convention : Reuss Voigt Hill
#
# Bulk Modulus (GPa) = 67.09624 77.33990 72.21807
# Shear Modulus (GPa) = -73.52624 18.81592 -27.35516
#
# Velocity S-wave (km/s) = -6.06177 3.06649 -3.69741
# Velocity P-wave (km/s) = 3.93215 7.15463 4.22652
#
# Compressibility (1/GPa) = 0.01490397
#
# Stress axis : x y z
#
# Youngs Moduli (GPa) = 120.04670 95.90378 92.92426
#
# Poissons Ratio (x) = 0.47132 0.13887
# Poissons Ratio (y) = 0.58998 0.08348
# Poissons Ratio (z) = 0.17940 0.08616
#
# Static dielectric constant tensor:
#      x y z
#    x 1.670130 0.000000 0.000000 
#    y 0.000000 1.671210 0.000000 
#    z 0.000000 0.000000 1.777020 
# 
# From -- ./inp_files/18012.got.cif
#   From: 2010.05.17/outbox.cif.g08.bks.cpg/sg65_10_cif.got.tgz:18012.got - 2010.06.03 17:01:31.
