data_PCOD9490411
_publ_section_title
;
Structure prediction by ZEFSAII (Michael W. Deem and Ramdas Pophale) SiO2 
 PCOD9490411
Probable space group: C M M M
;
_chemical_formula_sum "Si O2"
_cell_formula_units_Z 88
_cell_length_a 22.006372
_cell_length_b 17.878949
_cell_length_c 12.411779
_cell_angle_alpha 90.000000
_cell_angle_beta 90.000000
_cell_angle_gamma 90.000000
_cell_volume 4883.424410
_symmetry_space_group_name_H-M "C M M M"
_symmetry_group_IT_number 65
_symmetry_cell_setting 'orthorhombic'
loop_
_space_group_symop_operation_xyz
x,y,z
-x,-y,z
x,-y,-z
-x,y,-z
-x,-y,-z
x,y,-z
-x,y,z
x,-y,z
1/2+x,1/2+y,z
1/2-x,1/2-y,z
1/2+x,1/2-y,-z
1/2-x,1/2+y,-z
1/2-x,1/2-y,-z
1/2+x,1/2+y,-z
1/2-x,1/2+y,z
1/2+x,1/2-y,z
loop_
_atom_site_type_symbol
_atom_site_label
_atom_site_fract_x
_atom_site_fract_y
_atom_site_fract_z
Si Si1 0.246435 0.839896 0.805373
Si Si2 0.109539 0.815626 0.195821
Si Si3 0.429225 0.203306 0.371431
Si Si4 0.673750 0.087256 0.371522
Si Si5 0.823580 0.589643 0.000000
Si Si6 0.000000 0.911622 0.125730
Si Si7 0.426681 0.793541 0.000000
O O1 0.250000 0.750000 0.813055
O O2 0.174898 0.853249 0.816888
O O3 0.274308 0.869746 0.694084
O O4 0.286191 0.879298 0.897424
O O5 0.101790 0.770964 0.307157
O O6 0.095688 0.754000 0.103398
O O7 0.058349 0.877401 0.182248
O O8 0.427339 0.215234 0.500000
O O9 0.500000 0.196847 0.338660
O O10 0.389773 0.129332 0.347530
O O11 0.683663 0.092078 0.500000
O O12 0.671790 0.000000 0.341061
O O13 0.889641 0.628927 0.000000
O O14 0.826596 0.500000 0.000000
O O15 0.000000 0.000000 0.128678
O O16 0.000000 0.887426 0.000000
O O17 0.500000 0.800795 0.000000
#
# Coordination Sequence:
#
# PCOD9490411 Si02
#       7
#    16  16  16  16   8   8   8
#     4  12  23  38  63  88 117 161 205 243 295 359
#     4  12  21  39  63  86 117 155 200 253 289 350
#     4  10  20  35  61  91 118 157 201 241 295 356
#     4  10  22  40  60  89 126 157 197 253 303 353
#     4  12  26  41  59  92 132 156 192 248 306 360
#     4  11  24  40  61  91 119 150 198 255 307 348
#     4  12  21  38  66  90 116 160 201 240 295 352
#
# _framework density 18.020142
#
# number of rings (size 3 to 8) (size 9 to 14) (size 15 to 20)
#    0.000    0.818    6.364    1.364    0.000    3.091 
#    0.000    1.818    0.000    5.455    0.000    0.000 
#    0.000    0.000    0.000    0.000    0.000    0.000 
#
# Total GULP energy -245797.657343 kJ/mol
# GULP energy per Si atom -5586.310394 kJ/mol
# Density = 1.797913 g / cm^3
# Si number density = 18.020142 Si / 1000 Ang^3
#
#
#
# Elastic Constant Matrix: (Units=GPa)
#
#
# Indices 1 2 3 4 5 6 
#
# 1 136.5248 35.0422 29.3850 0.0000 0.0000 0.0000
# 2 35.0422 110.6226 31.2926 0.0000 0.0000 0.0000
# 3 29.3850 31.2926 43.4814 0.0000 0.0000 0.0000
# 4 0.0000 0.0000 0.0000 26.4972 0.0000 0.0000
# 5 0.0000 0.0000 0.0000 0.0000 25.6779 0.0000
# 6 0.0000 0.0000 0.0000 0.0000 0.0000 28.7352
#
#
#
# Elastic Compliance Matrix: (Units=1/GPa)
#
#
# Indices 1 2 3 4 5 6 
#
# 1 0.008736 -0.001378 -0.004912 0.000000 0.000000 0.000000
# 2 -0.001378 0.011568 -0.007394 0.000000 0.000000 0.000000
# 3 -0.004912 -0.007394 0.031639 0.000000 0.000000 0.000000
# 4 0.000000 0.000000 0.000000 0.037740 0.000000 0.000000
# 5 0.000000 0.000000 0.000000 0.000000 0.038944 0.000000
# 6 0.000000 0.000000 0.000000 0.000000 0.000000 0.034801
#
#
# Mechanical properties :
#
#
# Convention : Reuss Voigt Hill
#
# Bulk Modulus (GPa) = 40.69165 53.56316 47.12741
# Shear Modulus (GPa) = 25.12738 29.17599 27.15168
#
# Velocity S-wave (km/s) = 3.73822 4.02814 3.88589
# Velocity P-wave (km/s) = 6.42360 7.17099 6.80756
#
# Compressibility (1/GPa) = 0.02457506
#
# Stress axis : x y z
#
# Youngs Moduli (GPa) = 114.47495 86.44719 31.60628
#
# Poissons Ratio (x) = 0.11910 0.15525
# Poissons Ratio (y) = 0.15771 0.23370
# Poissons Ratio (z) = 0.56231 0.63919
#
# Static dielectric constant tensor:
#      x y z
#    x 1.632840 0.000000 0.000000 
#    y 0.000000 1.588220 0.000000 
#    z 0.000000 0.000000 1.636400 
# 
# From -- ./inp_files/28781.got.cif
#   From: 2010.05.17/outbox.cif.g08.bks.cpg/sg65_15_cif.got.tgz:28781.got - 2010.06.03 17:01:31.
