data_PCOD9490526
_publ_section_title
;
Structure prediction by ZEFSAII (Michael W. Deem and Ramdas Pophale) SiO2 
 PCOD9490526
Probable space group: C M M M
;
_chemical_formula_sum "Si O2"
_cell_formula_units_Z 88
_cell_length_a 7.577799
_cell_length_b 28.901352
_cell_length_c 19.048832
_cell_angle_alpha 90.000000
_cell_angle_beta 90.000000
_cell_angle_gamma 90.000000
_cell_volume 4171.858719
_symmetry_space_group_name_H-M "C M M M"
_symmetry_group_IT_number 65
_symmetry_cell_setting 'orthorhombic'
loop_
_space_group_symop_operation_xyz
x,y,z
-x,-y,z
x,-y,-z
-x,y,-z
-x,-y,-z
x,y,-z
-x,y,z
x,-y,z
1/2+x,1/2+y,z
1/2-x,1/2-y,z
1/2+x,1/2-y,-z
1/2-x,1/2+y,-z
1/2-x,1/2-y,-z
1/2+x,1/2+y,-z
1/2-x,1/2+y,z
1/2+x,1/2-y,z
loop_
_atom_site_type_symbol
_atom_site_label
_atom_site_fract_x
_atom_site_fract_y
_atom_site_fract_z
Si Si1 0.787585 0.695522 0.500000
Si Si2 0.786598 0.052079 0.141026
Si Si3 0.212104 0.304143 0.216613
Si Si4 0.207256 0.647848 0.923407
Si Si5 0.208489 0.351316 0.358262
Si Si6 0.287271 0.551794 0.302833
O O1 0.750000 0.750000 0.500000
O O2 0.718657 0.671246 0.429153
O O3 0.000000 0.689866 0.500000
O O4 0.722068 0.093308 0.092590
O O5 0.729589 0.060512 0.222005
O O6 0.000000 0.052915 0.140138
O O7 0.731254 0.000000 0.121411
O O8 0.250000 0.250000 0.219822
O O9 0.283288 0.326084 0.144439
O O10 0.282469 0.329137 0.286548
O O11 0.000000 0.310977 0.215942
O O12 0.000000 0.659647 0.926224
O O13 0.284176 0.658635 0.000000
O O14 0.229779 0.406344 0.351759
O O15 0.000000 0.341049 0.358122
O O16 0.500000 0.551447 0.301965
O O17 0.228122 0.500000 0.322559
#
# Coordination Sequence:
#
# PCOD9490526 Si02
#       6
#     8  16  16  16  16  16
#     4  10  22  38  57  84 115 143 178 223 269 316
#     4   9  18  33  53  78 107 138 175 219 264 313
#     4  10  21  36  54  76 101 134 176 218 263 314
#     4  10  21  36  52  74 106 139 175 220 265 314
#     4  10  20  36  57  82 110 141 177 217 262 316
#     4   9  18  33  55  83 111 140 178 220 261 312
#
# _framework density 21.093715
#
# number of rings (size 3 to 8) (size 9 to 14) (size 15 to 20)
#    0.000    2.364    1.818    1.636    0.000    4.000 
#    0.000    4.091    0.000    2.727    0.000    0.000 
#    0.000    0.000    0.000    0.000    0.000    0.000 
#
# Total GULP energy -245672.725549 kJ/mol
# GULP energy per Si atom -5583.471035 kJ/mol
# Density = 2.104570 g / cm^3
# Si number density = 21.093715 Si / 1000 Ang^3
#
#
#
# Elastic Constant Matrix: (Units=GPa)
#
#
# Indices 1 2 3 4 5 6 
#
# 1 46.3627 -13.2386 14.9980 0.0000 0.0000 0.0000
# 2 -13.2386 126.0669 98.7373 0.0000 0.0000 0.0000
# 3 14.9980 98.7373 188.5560 0.0000 0.0000 0.0000
# 4 0.0000 0.0000 0.0000 9.4162 0.0000 0.0000
# 5 0.0000 0.0000 0.0000 0.0000 1.4631 0.0000
# 6 0.0000 0.0000 0.0000 0.0000 0.0000 29.0020
#
#
#
# Elastic Compliance Matrix: (Units=1/GPa)
#
#
# Indices 1 2 3 4 5 6 
#
# 1 0.025519 0.007238 -0.005820 0.000000 0.000000 0.000000
# 2 0.007238 0.015501 -0.008693 0.000000 0.000000 0.000000
# 3 -0.005820 -0.008693 0.010318 0.000000 0.000000 0.000000
# 4 0.000000 0.000000 0.000000 0.106200 0.000000 0.000000
# 5 0.000000 0.000000 0.000000 0.000000 0.683473 0.000000
# 6 0.000000 0.000000 0.000000 0.000000 0.000000 0.034480
#
#
# Mechanical properties :
#
#
# Convention : Reuss Voigt Hill
#
# Bulk Modulus (GPa) = 27.18251 62.44209 44.81230
# Shear Modulus (GPa) = 5.54137 25.34219 15.44178
#
# Velocity S-wave (km/s) = 1.62257 3.46990 2.70859
# Velocity P-wave (km/s) = 4.05276 6.76166 5.57427
#
# Compressibility (1/GPa) = 0.03678837
#
# Stress axis : x y z
#
# Youngs Moduli (GPa) = 39.18715 64.51397 96.91564
#
# Poissons Ratio (x) = -0.46696 0.56405
# Poissons Ratio (y) = -0.28364 0.84245
# Poissons Ratio (z) = 0.22807 0.56079
#
# Static dielectric constant tensor:
#      x y z
#    x 1.775460 0.000000 0.000000 
#    y 0.000000 1.724260 0.000000 
#    z 0.000000 0.000000 1.773830 
# 
# From -- ./inp_files/50291.got.cif
#   From: 2010.05.17/outbox.cif.g08.bks.cpg/sg65_26_cif.got.tgz:50291.got - 2010.06.03 17:01:31.
