data_PCOD9490304
_publ_section_title
;
Structure prediction by ZEFSAII (Michael W. Deem and Ramdas Pophale) SiO2 
 PCOD9490304
Probable space group: C M M M
;
_chemical_formula_sum "Si O2"
_cell_formula_units_Z 72
_cell_length_a 15.946227
_cell_length_b 8.895808
_cell_length_c 27.232821
_cell_angle_alpha 90.000000
_cell_angle_beta 90.000000
_cell_angle_gamma 90.000000
_cell_volume 3863.100214
_symmetry_space_group_name_H-M "C M M M"
_symmetry_group_IT_number 65
_symmetry_cell_setting 'orthorhombic'
loop_
_space_group_symop_operation_xyz
x,y,z
-x,-y,z
x,-y,-z
-x,y,-z
-x,-y,-z
x,y,-z
-x,y,z
x,-y,z
1/2+x,1/2+y,z
1/2-x,1/2-y,z
1/2+x,1/2-y,-z
1/2-x,1/2+y,-z
1/2-x,1/2-y,-z
1/2+x,1/2+y,-z
1/2-x,1/2+y,z
1/2+x,1/2-y,z
loop_
_atom_site_type_symbol
_atom_site_label
_atom_site_fract_x
_atom_site_fract_y
_atom_site_fract_z
Si Si1 0.843343 0.318769 0.208026
Si Si2 0.000000 0.680866 0.612113
Si Si3 0.098227 0.165488 0.000000
Si Si4 0.160474 0.178724 0.441368
Si Si5 0.658399 0.820896 0.098345
Si Si6 0.000000 0.317221 0.726556
O O1 0.834573 0.500000 0.211439
O O2 0.750000 0.250000 0.214754
O O3 0.876563 0.285188 0.152662
O O4 0.914646 0.267569 0.246125
O O5 0.082878 0.746048 0.586318
O O6 0.000000 0.500000 0.608301
O O7 0.000000 0.723798 0.669508
O O8 0.118485 0.252455 0.049827
O O9 0.000000 0.146559 0.000000
O O10 0.140292 0.000000 0.000000
O O11 0.150214 0.202980 0.500000
O O12 0.250000 0.250000 0.426990
O O13 0.161543 0.000000 0.432580
O O14 0.750000 0.750000 0.099764
O O15 0.660897 0.000000 0.093686
O O16 0.000000 0.500000 0.729521
#
# Coordination Sequence:
#
# PCOD9490304 Si02
#       6
#    16   8   8  16  16   8
#     4   9  19  37  60  82 108 142 184 231 278 330
#     4  11  22  36  57  86 121 159 194 238 291 344
#     4  11  24  37  50  75 111 141 168 215 270 323
#     4  10  21  38  60  86 118 156 198 243 289 341
#     4  10  20  35  58  80 103 136 176 219 266 327
#     4   9  20  38  58  82 113 150 189 232 281 332
#
# _framework density 18.637881
#
# number of rings (size 3 to 8) (size 9 to 14) (size 15 to 20)
#    0.000    2.111    0.000    2.667    1.556    5.333 
#    0.000    5.000    0.000    0.000    0.000    0.000 
#    0.000    0.000    0.000    0.000    0.000    0.000 
#
# Total GULP energy -200813.664538 kJ/mol
# GULP energy per Si atom -5578.157348 kJ/mol
# Density = 1.859546 g / cm^3
# Si number density = 18.637881 Si / 1000 Ang^3
#
#
#
# Elastic Constant Matrix: (Units=GPa)
#
#
# Indices 1 2 3 4 5 6 
#
# 1 143.2457 56.8997 104.1666 0.0000 0.0000 0.0000
# 2 56.8997 75.4160 72.8425 0.0000 0.0000 0.0000
# 3 104.1666 72.8425 138.6033 0.0000 0.0000 0.0000
# 4 0.0000 0.0000 0.0000 22.5119 0.0000 0.0000
# 5 0.0000 0.0000 0.0000 0.0000 9.5882 0.0000
# 6 0.0000 0.0000 0.0000 0.0000 0.0000 28.2622
#
#
#
# Elastic Compliance Matrix: (Units=1/GPa)
#
#
# Indices 1 2 3 4 5 6 
#
# 1 0.015424 -0.000895 -0.011121 0.000000 0.000000 0.000000
# 2 -0.000895 0.026982 -0.013507 0.000000 0.000000 0.000000
# 3 -0.011121 -0.013507 0.022672 0.000000 0.000000 0.000000
# 4 0.000000 0.000000 0.000000 0.044421 0.000000 0.000000
# 5 0.000000 0.000000 0.000000 0.000000 0.104294 0.000000
# 6 0.000000 0.000000 0.000000 0.000000 0.000000 0.035383
#
#
# Mechanical properties :
#
#
# Convention : Reuss Voigt Hill
#
# Bulk Modulus (GPa) = 71.27788 91.67585 81.47687
# Shear Modulus (GPa) = 16.39886 20.29623 18.34755
#
# Velocity S-wave (km/s) = 2.96947 3.30355 3.14095
# Velocity P-wave (km/s) = 7.07698 7.99036 7.54750
#
# Compressibility (1/GPa) = 0.01402960
#
# Stress axis : x y z
#
# Youngs Moduli (GPa) = 64.83480 37.06231 44.10797
#
# Poissons Ratio (x) = 0.03318 0.49053
# Poissons Ratio (y) = 0.05804 0.59578
# Poissons Ratio (z) = 0.72104 0.50061
#
# Static dielectric constant tensor:
#      x y z
#    x 1.610800 0.000000 0.000000 
#    y 0.000000 1.681930 0.000000 
#    z 0.000000 0.000000 1.699430 
# 
# From -- ./inp_files/72611.got.cif
#   From: 2010.05.17/outbox.cif.g08.bks.cpg/sg65_37_cif.got.tgz:72611.got - 2010.06.03 17:01:31.
