data_PCOD9490960
_publ_section_title
;
Structure prediction by ZEFSAII (Michael W. Deem and Ramdas Pophale) SiO2 
 PCOD9490960
Probable space group: C M M M
;
_chemical_formula_sum "Si O2"
_cell_formula_units_Z 96
_cell_length_a 18.920168
_cell_length_b 18.589875
_cell_length_c 14.833361
_cell_angle_alpha 90.000000
_cell_angle_beta 90.000000
_cell_angle_gamma 90.000000
_cell_volume 5217.242509
_symmetry_space_group_name_H-M "C M M M"
_symmetry_group_IT_number 65
_symmetry_cell_setting 'orthorhombic'
loop_
_space_group_symop_operation_xyz
x,y,z
-x,-y,z
x,-y,-z
-x,y,-z
-x,-y,-z
x,y,-z
-x,y,z
x,-y,z
1/2+x,1/2+y,z
1/2-x,1/2-y,z
1/2+x,1/2-y,-z
1/2-x,1/2+y,-z
1/2-x,1/2-y,-z
1/2+x,1/2+y,-z
1/2-x,1/2+y,z
1/2+x,1/2-y,z
loop_
_atom_site_type_symbol
_atom_site_label
_atom_site_fract_x
_atom_site_fract_y
_atom_site_fract_z
Si Si1 0.339900 0.080243 0.228862
Si Si2 0.415598 0.363789 0.104118
Si Si3 0.826099 0.784675 0.393324
Si Si4 0.583919 0.856541 0.395203
Si Si5 0.582485 0.805452 0.893347
Si Si6 0.826342 0.080453 0.266579
O O1 0.376279 0.092190 0.325862
O O2 0.369759 0.141755 0.164237
O O3 0.256029 0.086330 0.240268
O O4 0.356913 0.000000 0.195181
O O5 0.500000 0.374180 0.112918
O O6 0.401104 0.278839 0.120520
O O7 0.373026 0.407958 0.177537
O O8 0.396737 0.380116 0.000000
O O9 0.677302 0.699050 0.500000
O O10 0.750000 0.750000 0.367745
O O11 0.884826 0.723264 0.378995
O O12 0.841131 0.855798 0.336677
O O13 0.598482 0.874430 0.500000
O O14 0.500000 0.858219 0.380958
O O15 0.500000 0.816340 0.869075
O O16 0.589917 0.819401 0.000000
O O17 0.838360 0.000000 0.303161
#
# Coordination Sequence:
#
# PCOD9490960 Si02
#       6
#    16  16  16  16  16  16
#     4  11  23  36  51  78 118 155 185 228 287 344
#     4   9  20  40  64  87 112 148 196 248 298 348
#     4  10  20  38  62  83 110 152 195 235 286 345
#     4  10  21  37  59  86 111 143 193 244 284 333
#     4   9  19  36  57  80 105 140 189 236 279 335
#     4  11  24  37  55  87 120 151 190 234 287 351
#
# _framework density 18.400524000000001
#
# number of rings (size 3 to 8) (size 9 to 14) (size 15 to 20)
#    0.000    2.000    1.667    2.500    0.000    5.667 
#    0.000    7.500    0.000    0.000    0.000    3.500 
#    0.000    0.000    0.000    0.000    0.000    0.000 
#
# Total GULP energy -268075.508877 kJ/mol
# GULP energy per Si atom -5584.906435 kJ/mol
# Density = 1.835864 g / cm^3
# Si number density = 18.400524 Si / 1000 Ang^3
#
#
#
# Elastic Constant Matrix: (Units=GPa)
#
#
# Indices 1 2 3 4 5 6 
#
# 1 48.9905 18.4392 20.8549 0.0000 0.0000 0.0000
# 2 18.4392 49.3077 32.1085 0.0000 0.0000 0.0000
# 3 20.8549 32.1085 46.0639 0.0000 0.0000 0.0000
# 4 0.0000 0.0000 0.0000 3.1402 0.0000 0.0000
# 5 0.0000 0.0000 0.0000 0.0000 26.1011 0.0000
# 6 0.0000 0.0000 0.0000 0.0000 0.0000 -140.9691
#
#
#
# Elastic Compliance Matrix: (Units=1/GPa)
#
#
# Indices 1 2 3 4 5 6 
#
# 1 0.025652 -0.003718 -0.009022 0.000000 0.000000 0.000000
# 2 -0.003718 0.037677 -0.024579 0.000000 0.000000 0.000000
# 3 -0.009022 -0.024579 0.042927 0.000000 0.000000 0.000000
# 4 0.000000 0.000000 0.000000 0.318449 0.000000 0.000000
# 5 0.000000 0.000000 0.000000 0.000000 0.038313 0.000000
# 6 0.000000 0.000000 0.000000 0.000000 0.000000 -0.007094
#
#
# Mechanical properties :
#
#
# Convention : Reuss Voigt Hill
#
# Bulk Modulus (GPa) = 31.62858 31.90748 31.76803
# Shear Modulus (GPa) = 9.24043 -17.48160 -4.12058
#
# Velocity S-wave (km/s) = 2.24338 -3.08565 -1.49808
# Velocity P-wave (km/s) = 4.89250 2.16407 3.78284
#
# Compressibility (1/GPa) = 0.03161698
#
# Stress axis : x y z
#
# Youngs Moduli (GPa) = 38.98311 26.54156 23.29560
#
# Poissons Ratio (x) = 0.09867 0.21018
# Poissons Ratio (y) = 0.14493 0.57259
# Poissons Ratio (z) = 0.35172 0.65237
#
# Static dielectric constant tensor:
#      x y z
#    x 1.609890 0.000000 0.000000 
#    y 0.000000 1.620110 0.000000 
#    z 0.000000 0.000000 1.627500 
# 
# From -- ./inp_files/44100.got.cif
#   From: 2010.05.17/outbox.cif.g08.bks.cpg/sg65_23_cif.got.tgz:44100.got - 2010.06.03 17:01:31.
