data_PCOD9490615
_publ_section_title
;
Structure prediction by ZEFSAII (Michael W. Deem and Ramdas Pophale) SiO2 
 PCOD9490615
Probable space group: C M M M
;
_chemical_formula_sum "Si O2"
_cell_formula_units_Z 88
_cell_length_a 29.157479
_cell_length_b 14.252533
_cell_length_c 11.422199
_cell_angle_alpha 90.000000
_cell_angle_beta 90.000000
_cell_angle_gamma 90.000000
_cell_volume 4746.699613
_symmetry_space_group_name_H-M "C M M M"
_symmetry_group_IT_number 65
_symmetry_cell_setting 'orthorhombic'
loop_
_space_group_symop_operation_xyz
x,y,z
-x,-y,z
x,-y,-z
-x,y,-z
-x,-y,-z
x,y,-z
-x,y,z
x,-y,z
1/2+x,1/2+y,z
1/2-x,1/2-y,z
1/2+x,1/2-y,-z
1/2-x,1/2+y,-z
1/2-x,1/2-y,-z
1/2+x,1/2+y,-z
1/2-x,1/2+y,z
1/2+x,1/2-y,z
loop_
_atom_site_type_symbol
_atom_site_label
_atom_site_fract_x
_atom_site_fract_y
_atom_site_fract_z
Si Si1 0.500000 0.607975 0.357558
Si Si2 0.278851 0.886434 0.366960
Si Si3 0.198897 0.788544 0.000000
Si Si4 0.623139 0.107007 0.736924
Si Si5 0.594310 0.703981 0.361022
Si Si6 0.137746 0.603997 0.000000
Si Si7 0.684110 0.386963 0.753917
O O1 0.500000 0.500000 0.320321
O O2 0.500000 0.609679 0.500000
O O3 0.546719 0.658276 0.319835
O O4 0.286782 0.852395 0.500000
O O5 0.322963 0.867228 0.285591
O O6 0.229946 0.855384 0.316206
O O7 0.276257 0.000000 0.371821
O O8 0.250000 0.750000 0.000000
O O9 0.189207 0.849381 0.885099
O O10 0.169145 0.694495 0.000000
O O11 0.595403 0.186201 0.670101
O O12 0.616924 0.000000 0.694511
O O13 0.612434 0.108439 0.875313
O O14 0.598181 0.691274 0.500000
O O15 0.638163 0.655004 0.302129
O O16 0.161294 0.500000 0.000000
O O17 0.682246 0.500000 0.751096
#
# Coordination Sequence:
#
# PCOD9490615 Si02
#       7
#     8  16   8  16  16   8  16
#     4   9  20  40  63  88 119 154 195 240 293 362
#     4   9  18  32  50  77 116 157 192 232 287 348
#     4  12  23  37  56  81 117 158 204 246 293 344
#     4  10  20  36  58  85 117 154 196 243 292 350
#     4  11  22  37  62  91 119 156 198 244 302 361
#     4  10  20  37  58  77 107 152 199 236 280 342
#     4  11  23  37  56  84 119 158 203 251 292 344
#
# _framework density 18.539196
#
# number of rings (size 3 to 8) (size 9 to 14) (size 15 to 20)
#    0.000    1.727    1.818    3.000    0.000    5.091 
#    0.000    2.273    0.000    3.818    0.000    5.727 
#    0.000    0.000    0.000    0.000    0.000    0.000 
#
# Total GULP energy -245672.329541 kJ/mol
# GULP energy per Si atom -5583.462035 kJ/mol
# Density = 1.849700 g / cm^3
# Si number density = 18.539196 Si / 1000 Ang^3
#
#
#
# Elastic Constant Matrix: (Units=GPa)
#
#
# Indices 1 2 3 4 5 6 
#
# 1 107.5022 54.5272 36.5035 0.0000 0.0000 0.0000
# 2 54.5272 114.9159 18.7178 0.0000 0.0000 0.0000
# 3 36.5035 18.7178 104.2162 0.0000 0.0000 0.0000
# 4 0.0000 0.0000 0.0000 30.0331 0.0000 0.0000
# 5 0.0000 0.0000 0.0000 0.0000 -6.3811 0.0000
# 6 0.0000 0.0000 0.0000 0.0000 0.0000 29.2731
#
#
#
# Elastic Compliance Matrix: (Units=1/GPa)
#
#
# Indices 1 2 3 4 5 6 
#
# 1 0.013498 -0.005804 -0.003685 0.000000 0.000000 0.000000
# 2 -0.005804 0.011460 -0.000025 0.000000 0.000000 0.000000
# 3 -0.003685 -0.000025 0.010891 0.000000 0.000000 0.000000
# 4 0.000000 0.000000 0.000000 0.033297 0.000000 0.000000
# 5 0.000000 0.000000 0.000000 0.000000 -0.156713 0.000000
# 6 0.000000 0.000000 0.000000 0.000000 0.000000 0.034161
#
#
# Mechanical properties :
#
#
# Convention : Reuss Voigt Hill
#
# Bulk Modulus (GPa) = 59.45674 60.68128 60.06901
# Shear Modulus (GPa) = -173.78762 25.04407 -74.37177
#
# Velocity S-wave (km/s) = -9.69248 3.67941 -6.34059
# Velocity P-wave (km/s) = 9.64979 7.13114 4.59703
#
# Compressibility (1/GPa) = 0.01681895
#
# Stress axis : x y z
#
# Youngs Moduli (GPa) = 74.08751 87.25820 91.82057
#
# Poissons Ratio (x) = 0.50647 0.33838
# Poissons Ratio (y) = 0.43002 0.00232
# Poissons Ratio (z) = 0.27303 0.00221
#
# Static dielectric constant tensor:
#      x y z
#    x 1.612450 0.000000 0.000000 
#    y 0.000000 1.649560 0.000000 
#    z 0.000000 0.000000 1.653380 
# 
# From -- ./inp_files/32274.got.cif
#   From: 2010.05.17/outbox.cif.g08.bks.cpg/sg65_17_cif.got.tgz:32274.got - 2010.06.03 17:01:31.
