data_PCOD9490230
_publ_section_title
;
Structure prediction by ZEFSAII (Michael W. Deem and Ramdas Pophale) SiO2 
 PCOD9490230
Probable space group: C M M M
;
_chemical_formula_sum "Si O2"
_cell_formula_units_Z 64
_cell_length_a 9.097580
_cell_length_b 30.771389
_cell_length_c 12.874864
_cell_angle_alpha 90.000000
_cell_angle_beta 90.000000
_cell_angle_gamma 90.000000
_cell_volume 3604.256032
_symmetry_space_group_name_H-M "C M M M"
_symmetry_group_IT_number 65
_symmetry_cell_setting 'orthorhombic'
loop_
_space_group_symop_operation_xyz
x,y,z
-x,-y,z
x,-y,-z
-x,y,-z
-x,-y,-z
x,y,-z
-x,y,z
x,-y,z
1/2+x,1/2+y,z
1/2-x,1/2-y,z
1/2+x,1/2-y,-z
1/2-x,1/2+y,-z
1/2-x,1/2-y,-z
1/2+x,1/2+y,-z
1/2-x,1/2+y,z
1/2+x,1/2-y,z
loop_
_atom_site_type_symbol
_atom_site_label
_atom_site_fract_x
_atom_site_fract_y
_atom_site_fract_z
Si Si1 0.325073 0.588229 0.117212
Si Si2 0.664597 0.208689 0.621956
Si Si3 0.176145 0.881188 0.660476
Si Si4 0.677975 0.947619 0.500000
Si Si5 0.837538 0.500000 0.875057
O O1 0.500000 0.582010 0.112118
O O2 0.295131 0.618088 0.215600
O O3 0.250962 0.543015 0.148576
O O4 0.275857 0.600735 0.000000
O O5 0.646783 0.218215 0.500000
O O6 0.500000 0.202981 0.665869
O O7 0.750000 0.250000 0.668932
O O8 0.757137 0.164528 0.625828
O O9 0.253553 0.920984 0.598292
O O10 0.000000 0.883712 0.642922
O O11 0.500000 0.943181 0.500000
O O12 0.711091 0.000000 0.500000
O O13 0.000000 0.500000 0.828138
O O14 0.850738 0.500000 0.000000
#
# Coordination Sequence:
#
# PCOD9490230 Si02
#       5
#    16  16  16   8   8
#     4   9  19  35  53  75 105 142 182 224 271 320
#     4  10  20  35  57  83 112 142 175 222 275 325
#     4  11  22  36  58  83 110 145 185 227 270 326
#     4  11  25  41  54  75 112 155 189 225 273 325
#     4   9  17  29  47  72  99 132 179 229 269 307
#
# _framework density 17.756786000000002
#
# number of rings (size 3 to 8) (size 9 to 14) (size 15 to 20)
#    0.000    2.000    1.250    2.250    1.750    5.500 
#    0.000    0.000    0.000    0.750    0.000    0.000 
#    0.000    0.000    0.000    0.000    0.000    0.000 
#
# Total GULP energy -178171.032704 kJ/mol
# GULP energy per Si atom -5567.844772 kJ/mol
# Density = 1.771637 g / cm^3
# Si number density = 17.756786 Si / 1000 Ang^3
#
#
#
# Elastic Constant Matrix: (Units=GPa)
#
#
# Indices 1 2 3 4 5 6 
#
# 1 63.5055 52.2293 39.5385 0.0000 0.0000 0.0000
# 2 52.2293 110.4335 26.4525 0.0000 0.0000 0.0000
# 3 39.5385 26.4525 79.7227 0.0000 0.0000 0.0000
# 4 0.0000 0.0000 0.0000 12.9933 0.0000 0.0000
# 5 0.0000 0.0000 0.0000 0.0000 10.6999 0.0000
# 6 0.0000 0.0000 0.0000 0.0000 0.0000 54.8005
#
#
#
# Elastic Compliance Matrix: (Units=1/GPa)
#
#
# Indices 1 2 3 4 5 6 
#
# 1 0.034663 -0.013336 -0.012766 0.000000 0.000000 0.000000
# 2 -0.013336 0.014968 0.001647 0.000000 0.000000 0.000000
# 3 -0.012766 0.001647 0.018328 0.000000 0.000000 0.000000
# 4 0.000000 0.000000 0.000000 0.076963 0.000000 0.000000
# 5 0.000000 0.000000 0.000000 0.000000 0.093459 0.000000
# 6 0.000000 0.000000 0.000000 0.000000 0.000000 0.018248
#
#
# Mechanical properties :
#
#
# Convention : Reuss Voigt Hill
#
# Bulk Modulus (GPa) = 52.49378 54.45582 53.47480
# Shear Modulus (GPa) = 16.03147 24.72816 20.37981
#
# Velocity S-wave (km/s) = 3.00798 3.73581 3.39148
# Velocity P-wave (km/s) = 6.45684 7.02442 6.74660
#
# Compressibility (1/GPa) = 0.01904988
#
# Stress axis : x y z
#
# Youngs Moduli (GPa) = 28.84954 66.81057 54.56085
#
# Poissons Ratio (x) = 0.89097 0.69653
# Poissons Ratio (y) = 0.38473 -0.08989
# Poissons Ratio (z) = 0.36829 -0.11007
#
# Static dielectric constant tensor:
#      x y z
#    x 1.643200 0.000000 0.000000 
#    y 0.000000 1.568410 0.000000 
#    z 0.000000 0.000000 1.643580 
# 
# From -- ./inp_files/36879.got.cif
#   From: 2010.05.17/outbox.cif.g08.bks.cpg/sg65_19_cif.got.tgz:36879.got - 2010.06.03 17:01:31.
