data_PCOD9490020
_publ_section_title
;
Structure prediction by ZEFSAII (Michael W. Deem and Ramdas Pophale) SiO2 
 PCOD9490020
Probable space group: C M M M
;
_chemical_formula_sum "Si O2"
_cell_formula_units_Z 72
_cell_length_a 18.295497
_cell_length_b 24.394607
_cell_length_c 8.548242
_cell_angle_alpha 90.000000
_cell_angle_beta 90.000000
_cell_angle_gamma 90.000000
_cell_volume 3815.178360
_symmetry_space_group_name_H-M "C M M M"
_symmetry_group_IT_number 65
_symmetry_cell_setting 'orthorhombic'
loop_
_space_group_symop_operation_xyz
x,y,z
-x,-y,z
x,-y,-z
-x,y,-z
-x,-y,-z
x,y,-z
-x,y,z
x,-y,z
1/2+x,1/2+y,z
1/2-x,1/2-y,z
1/2+x,1/2-y,-z
1/2-x,1/2+y,-z
1/2-x,1/2-y,-z
1/2+x,1/2+y,-z
1/2-x,1/2+y,z
1/2+x,1/2-y,z
loop_
_atom_site_type_symbol
_atom_site_label
_atom_site_fract_x
_atom_site_fract_y
_atom_site_fract_z
Si Si1 0.085257 0.262182 0.312910
Si Si2 0.141946 0.626773 0.187430
Si Si3 0.500000 0.064054 0.312546
Si Si4 0.287557 0.562992 0.191065
Si Si5 0.416232 0.642401 0.189024
O O1 0.088008 0.262519 0.500000
O O2 0.133776 0.311295 0.247380
O O3 0.105891 0.202319 0.250311
O O4 0.000000 0.271858 0.265554
O O5 0.215569 0.596266 0.240531
O O6 0.071845 0.593488 0.247610
O O7 0.141187 0.627230 0.000000
O O8 0.500000 0.068878 0.500000
O O9 0.500000 0.000000 0.269490
O O10 0.286104 0.500000 0.243795
O O11 0.359720 0.595937 0.240591
O O12 0.287417 0.562201 0.000000
O O13 0.500000 0.632120 0.239458
O O14 0.415504 0.644024 0.000000
#
# Coordination Sequence:
#
# PCOD9490020 Si02
#       5
#    16  16   8  16  16
#     4  10  20  35  55  79 112 146 181 228 279 329
#     4  11  21  34  56  81 109 146 187 229 272 325
#     4  11  23  37  53  77 111 149 188 227 270 323
#     4   9  19  35  54  81 114 143 179 231 281 324
#     4   9  18  34  58  84 109 141 183 227 275 331
#
# _framework density 18.871988999999999
#
# number of rings (size 3 to 8) (size 9 to 14) (size 15 to 20)
#    0.000    2.111    1.111    2.333    0.000    4.000 
#    0.000    8.889    0.000    3.333    0.000    3.111 
#    0.000    0.000    0.000    0.000    0.000    0.000 
#
# Total GULP energy -201047.984699 kJ/mol
# GULP energy per Si atom -5584.666242 kJ/mol
# Density = 1.882904 g / cm^3
# Si number density = 18.871989 Si / 1000 Ang^3
#
#
#
# Elastic Constant Matrix: (Units=GPa)
#
#
# Indices 1 2 3 4 5 6 
#
# 1 133.1685 108.2107 17.7621 0.0000 0.0000 0.0000
# 2 108.2107 168.7219 19.9576 0.0000 0.0000 0.0000
# 3 17.7621 19.9576 15.0277 0.0000 0.0000 0.0000
# 4 0.0000 0.0000 0.0000 14.2970 0.0000 0.0000
# 5 0.0000 0.0000 0.0000 0.0000 4.9069 0.0000
# 6 0.0000 0.0000 0.0000 0.0000 0.0000 70.4481
#
#
#
# Elastic Compliance Matrix: (Units=1/GPa)
#
#
# Indices 1 2 3 4 5 6 
#
# 1 0.016175 -0.009625 -0.006337 0.000000 0.000000 0.000000
# 2 -0.009625 0.012758 -0.005568 0.000000 0.000000 0.000000
# 3 -0.006337 -0.005568 0.081428 0.000000 0.000000 0.000000
# 4 0.000000 0.000000 0.000000 0.069945 0.000000 0.000000
# 5 0.000000 0.000000 0.000000 0.000000 0.203795 0.000000
# 6 0.000000 0.000000 0.000000 0.000000 0.000000 0.014195
#
#
# Mechanical properties :
#
#
# Convention : Reuss Voigt Hill
#
# Bulk Modulus (GPa) = 14.85807 67.64208 41.25008
# Shear Modulus (GPa) = 10.78077 29.32957 20.05517
#
# Velocity S-wave (km/s) = 2.39269 3.94653 3.26344
# Velocity P-wave (km/s) = 3.93999 7.52909 6.00877
#
# Compressibility (1/GPa) = 0.06730348
#
# Stress axis : x y z
#
# Youngs Moduli (GPa) = 61.82309 78.38070 12.28080
#
# Poissons Ratio (x) = 0.75438 0.07782
# Poissons Ratio (y) = 0.59502 0.06838
# Poissons Ratio (z) = 0.39175 0.43641
#
# Static dielectric constant tensor:
#      x y z
#    x 1.646590 0.000000 0.000000 
#    y 0.000000 1.632510 0.000000 
#    z 0.000000 0.000000 1.634950 
# 
# From -- ./inp_files/9214.got.cif
#   From: 2010.05.17/outbox.cif.g08.bks.cpg/sg65_5_cif.got.tgz:9214.got - 2010.06.03 17:01:31.
