data_PCOD9490573
_publ_section_title
;
Structure prediction by ZEFSAII (Michael W. Deem and Ramdas Pophale) SiO2 
 PCOD9490573
Probable space group: C M M M
;
_chemical_formula_sum "Si O2"
_cell_formula_units_Z 104
_cell_length_a 22.270278
_cell_length_b 8.608108
_cell_length_c 30.528579
_cell_angle_alpha 90.000000
_cell_angle_beta 90.000000
_cell_angle_gamma 90.000000
_cell_volume 5852.479962
_symmetry_space_group_name_H-M "C M M M"
_symmetry_group_IT_number 65
_symmetry_cell_setting 'orthorhombic'
loop_
_space_group_symop_operation_xyz
x,y,z
-x,-y,z
x,-y,-z
-x,y,-z
-x,-y,-z
x,y,-z
-x,y,z
x,-y,z
1/2+x,1/2+y,z
1/2-x,1/2-y,z
1/2+x,1/2-y,-z
1/2-x,1/2+y,-z
1/2-x,1/2-y,-z
1/2+x,1/2+y,-z
1/2-x,1/2+y,z
1/2+x,1/2-y,z
loop_
_atom_site_type_symbol
_atom_site_label
_atom_site_fract_x
_atom_site_fract_y
_atom_site_fract_z
Si Si1 0.428569 0.822152 0.205884
Si Si2 0.819255 0.685446 0.358858
Si Si3 0.570105 0.315062 0.301139
Si Si4 0.399417 0.318928 0.114047
Si Si5 0.683929 0.185672 0.952329
Si Si6 0.682140 0.313366 0.452362
Si Si7 0.000000 0.314534 0.050143
O O1 0.500000 0.822071 0.197336
O O2 0.419487 0.725473 0.250075
O O3 0.400269 0.753788 0.162090
O O4 0.409445 0.000000 0.213276
O O5 0.814549 0.500000 0.356942
O O6 0.750000 0.750000 0.351471
O O7 0.873342 0.742200 0.327238
O O8 0.840412 0.739140 0.407467
O O9 0.500000 0.262932 0.311311
O O10 0.571365 0.500000 0.307898
O O11 0.413275 0.500000 0.117513
O O12 0.339031 0.281946 0.088768
O O13 0.445026 0.239588 0.080023
O O14 0.750000 0.250000 0.957775
O O15 0.681273 0.000000 0.944757
O O16 0.652453 0.212802 0.000000
O O17 0.653769 0.275372 0.500000
O O18 0.750000 0.250000 0.454660
O O19 0.817248 0.000000 0.448015
O O20 0.000000 0.500000 0.047808
O O21 0.000000 0.254409 0.000000
#
# Coordination Sequence:
#
# PCOD9490573 Si02
#       7
#    16  16  16  16  16  16   8
#     4  10  20  36  58  81 108 141 179 220 267 322
#     4  11  21  34  55  83 117 153 192 238 290 341
#     4  10  21  38  60  84 112 146 189 236 285 342
#     4  12  23  35  55  81 109 138 172 213 261 314
#     4  10  21  38  58  78 103 137 176 215 257 309
#     4   9  16  27  46  74 109 148 190 235 285 340
#     4  11  23  37  53  77 109 141 171 209 260 311
#
# _framework density 17.770244999999999
#
# number of rings (size 3 to 8) (size 9 to 14) (size 15 to 20)
#    0.000    1.615    0.769    6.231    0.000    5.846 
#    0.000    0.769    0.000    0.462    0.000    3.231 
#    0.000    0.000    0.000    0.000    0.000    0.000 
#
# Total GULP energy -289614.715695 kJ/mol
# GULP energy per Si atom -5569.513763 kJ/mol
# Density = 1.772980 g / cm^3
# Si number density = 17.770245 Si / 1000 Ang^3
#
#
#
# Elastic Constant Matrix: (Units=GPa)
#
#
# Indices 1 2 3 4 5 6 
#
# 1 73.4747 23.3158 55.9136 0.0000 0.0000 0.0000
# 2 23.3158 86.5001 29.6990 0.0000 0.0000 0.0000
# 3 55.9136 29.6990 129.9032 0.0000 0.0000 0.0000
# 4 0.0000 0.0000 0.0000 30.4694 0.0000 0.0000
# 5 0.0000 0.0000 0.0000 0.0000 42.0642 0.0000
# 6 0.0000 0.0000 0.0000 0.0000 0.0000 24.3802
#
#
#
# Elastic Compliance Matrix: (Units=1/GPa)
#
#
# Indices 1 2 3 4 5 6 
#
# 1 0.020826 -0.002752 -0.008335 0.000000 0.000000 0.000000
# 2 -0.002752 0.012909 -0.001767 0.000000 0.000000 0.000000
# 3 -0.008335 -0.001767 0.011690 0.000000 0.000000 0.000000
# 4 0.000000 0.000000 0.000000 0.032820 0.000000 0.000000
# 5 0.000000 0.000000 0.000000 0.000000 0.023773 0.000000
# 6 0.000000 0.000000 0.000000 0.000000 0.000000 0.041017
#
#
# Mechanical properties :
#
#
# Convention : Reuss Voigt Hill
#
# Bulk Modulus (GPa) = 50.71654 56.41499 53.56577
# Shear Modulus (GPa) = 28.52012 31.44605 29.98308
#
# Velocity S-wave (km/s) = 4.01051 4.21121 4.11209
# Velocity P-wave (km/s) = 7.07444 7.44725 7.26324
#
# Compressibility (1/GPa) = 0.01971743
#
# Stress axis : x y z
#
# Youngs Moduli (GPa) = 48.01627 77.46484 85.54630
#
# Poissons Ratio (x) = 0.21318 0.71303
# Poissons Ratio (y) = 0.13214 0.15115
# Poissons Ratio (z) = 0.40022 0.13687
#
# Static dielectric constant tensor:
#      x y z
#    x 1.716010 0.000000 0.000000 
#    y 0.000000 1.612570 0.000000 
#    z 0.000000 0.000000 1.626720 
# 
# From -- ./inp_files/75784.got.cif
#   From: 2010.05.17/outbox.cif.g08.bks.cpg/sg65_38_cif.got.tgz:75784.got - 2010.06.03 17:01:31.
