data_PCOD9490496
_publ_section_title
;
Structure prediction by ZEFSAII (Michael W. Deem and Ramdas Pophale) SiO2 
 PCOD9490496
Probable space group: C M M M
;
_chemical_formula_sum "Si O2"
_cell_formula_units_Z 88
_cell_length_a 8.699533
_cell_length_b 25.526066
_cell_length_c 22.530529
_cell_angle_alpha 90.000000
_cell_angle_beta 90.000000
_cell_angle_gamma 90.000000
_cell_volume 5003.238622
_symmetry_space_group_name_H-M "C M M M"
_symmetry_group_IT_number 65
_symmetry_cell_setting 'orthorhombic'
loop_
_space_group_symop_operation_xyz
x,y,z
-x,-y,z
x,-y,-z
-x,y,-z
-x,-y,-z
x,y,-z
-x,y,z
x,-y,z
1/2+x,1/2+y,z
1/2-x,1/2-y,z
1/2+x,1/2-y,-z
1/2-x,1/2+y,-z
1/2-x,1/2-y,-z
1/2+x,1/2+y,-z
1/2-x,1/2+y,z
1/2+x,1/2-y,z
loop_
_atom_site_type_symbol
_atom_site_label
_atom_site_fract_x
_atom_site_fract_y
_atom_site_fract_z
Si Si1 0.185038 0.193795 0.796858
Si Si2 0.186120 0.083119 0.841528
Si Si3 0.314684 0.500000 0.606963
Si Si4 0.184233 0.500000 0.068654
Si Si5 0.186007 0.000000 0.743582
Si Si6 0.684351 0.693326 0.658593
Si Si7 0.816126 0.390055 0.566918
O O1 0.250000 0.250000 0.815619
O O2 0.234998 0.143255 0.834426
O O3 0.228718 0.184888 0.727701
O O4 0.000000 0.196121 0.798872
O O5 0.252899 0.050662 0.896323
O O6 0.000000 0.081426 0.844938
O O7 0.231371 0.050645 0.782202
O O8 0.500000 0.500000 0.605260
O O9 0.261810 0.500000 0.675993
O O10 0.251779 0.552272 0.576910
O O11 0.000000 0.500000 0.071592
O O12 0.232020 0.500000 0.000000
O O13 0.000000 0.000000 0.741512
O O14 0.500000 0.693709 0.655570
O O15 0.750000 0.750000 0.641047
O O16 0.748631 0.648681 0.616085
O O17 0.777517 0.372209 0.500000
O O18 0.000000 0.392011 0.572332
#
# Coordination Sequence:
#
# PCOD9490496 Si02
#       7
#    16  16   8   8   8  16  16
#     4   9  18  32  52  79 108 136 165 204 252 301
#     4   9  17  32  53  76 104 137 172 204 241 295
#     4  11  21  35  56  77  99 129 165 207 260 317
#     4  10  21  35  51  76 109 140 172 214 256 286
#     4   8  15  29  50  75 100 125 157 204 254 300
#     4  10  20  36  57  79 103 131 166 208 257 310
#     4  11  24  39  52  69  97 132 170 213 259 309
#
# _framework density 17.588608000000001
#
# number of rings (size 3 to 8) (size 9 to 14) (size 15 to 20)
#    0.000    2.273    0.000    3.545    0.000    8.000 
#    0.000    7.273    0.000    0.545    0.000    0.000 
#    0.000    0.000    0.000    0.000    0.000    0.000 
#
# Total GULP energy -245571.482453 kJ/mol
# GULP energy per Si atom -5581.170056 kJ/mol
# Density = 1.754858 g / cm^3
# Si number density = 17.588608 Si / 1000 Ang^3
#
#
#
# Elastic Constant Matrix: (Units=GPa)
#
#
# Indices 1 2 3 4 5 6 
#
# 1 34.0559 34.6899 26.2547 0.0000 0.0000 0.0000
# 2 34.6899 162.2960 57.4250 0.0000 0.0000 0.0000
# 3 26.2547 57.4250 82.7422 0.0000 0.0000 0.0000
# 4 0.0000 0.0000 0.0000 -34.7802 0.0000 0.0000
# 5 0.0000 0.0000 0.0000 0.0000 23.1869 0.0000
# 6 0.0000 0.0000 0.0000 0.0000 0.0000 32.7739
#
#
#
# Elastic Compliance Matrix: (Units=1/GPa)
#
#
# Indices 1 2 3 4 5 6 
#
# 1 0.042535 -0.005721 -0.009526 0.000000 0.000000 0.000000
# 2 -0.005721 0.008937 -0.004387 0.000000 0.000000 0.000000
# 3 -0.009526 -0.004387 0.018153 0.000000 0.000000 0.000000
# 4 0.000000 0.000000 0.000000 -0.028752 0.000000 0.000000
# 5 0.000000 0.000000 0.000000 0.000000 0.043128 0.000000
# 6 0.000000 0.000000 0.000000 0.000000 0.000000 0.030512
#
#
# Mechanical properties :
#
#
# Convention : Reuss Voigt Hill
#
# Bulk Modulus (GPa) = 32.94178 57.31480 45.12829
# Shear Modulus (GPa) = 30.50645 14.95107 22.72876
#
# Velocity S-wave (km/s) = 4.16918 2.91871 3.59868
# Velocity P-wave (km/s) = 6.47656 6.63442 6.55597
#
# Compressibility (1/GPa) = 0.03035658
#
# Stress axis : x y z
#
# Youngs Moduli (GPa) = 23.51001 111.89903 55.08714
#
# Poissons Ratio (x) = 0.64018 0.52477
# Poissons Ratio (y) = 0.13450 0.24166
# Poissons Ratio (z) = 0.22396 0.49089
#
# Static dielectric constant tensor:
#      x y z
#    x 1.593710 0.000000 0.000000 
#    y 0.000000 1.594350 0.000000 
#    z 0.000000 0.000000 1.583950 
# 
# From -- ./inp_files/59898.got.cif
#   From: 2010.05.17/outbox.cif.g08.bks.cpg/sg65_30_cif.got.tgz:59898.got - 2010.06.03 17:01:31.
