data_PCOD9490566
_publ_section_title
;
Structure prediction by ZEFSAII (Michael W. Deem and Ramdas Pophale) SiO2 
 PCOD9490566
Probable space group: C M M M
;
_chemical_formula_sum "Si O2"
_cell_formula_units_Z 104
_cell_length_a 22.414385
_cell_length_b 7.913218
_cell_length_c 27.747545
_cell_angle_alpha 90.000000
_cell_angle_beta 90.000000
_cell_angle_gamma 90.000000
_cell_volume 4921.579694
_symmetry_space_group_name_H-M "C M M M"
_symmetry_group_IT_number 65
_symmetry_cell_setting 'orthorhombic'
loop_
_space_group_symop_operation_xyz
x,y,z
-x,-y,z
x,-y,-z
-x,y,-z
-x,-y,-z
x,y,-z
-x,y,z
x,-y,z
1/2+x,1/2+y,z
1/2-x,1/2-y,z
1/2+x,1/2-y,-z
1/2-x,1/2+y,-z
1/2-x,1/2-y,-z
1/2+x,1/2+y,-z
1/2-x,1/2+y,z
1/2+x,1/2-y,z
loop_
_atom_site_type_symbol
_atom_site_label
_atom_site_fract_x
_atom_site_fract_y
_atom_site_fract_z
Si Si1 0.183426 0.204180 0.166058
Si Si2 0.428325 0.809470 0.000000
Si Si3 0.500000 0.792771 0.384347
Si Si4 0.500000 0.201859 0.273229
Si Si5 0.371105 0.701402 0.262510
Si Si6 0.931644 0.199368 0.893167
Si Si7 0.612736 0.200658 0.445853
Si Si8 0.816235 0.798995 0.358953
O O1 0.250000 0.250000 0.149149
O O2 0.172729 0.265214 0.221029
O O3 0.125039 0.267322 0.136813
O O4 0.180627 0.000000 0.165584
O O5 0.414633 0.721469 0.949463
O O6 0.500000 0.819027 0.000000
O O7 0.404014 0.000000 0.000000
O O8 0.500000 0.735446 0.329001
O O9 0.442693 0.733354 0.414389
O O10 0.500000 0.000000 0.383189
O O11 0.560634 0.263512 0.249114
O O12 0.500000 0.000000 0.273678
O O13 0.363087 0.500000 0.265376
O O14 0.358262 0.770188 0.316082
O O15 0.000000 0.268467 0.885647
O O16 0.935620 0.000000 0.882591
O O17 0.616682 0.270082 0.500000
O O18 0.668799 0.228538 0.411461
O O19 0.603476 0.000000 0.450146
O O20 0.750000 0.750000 0.344558
O O21 0.822520 0.000000 0.361988
#
# Coordination Sequence:
#
# PCOD9490566 Si02
#       8
#    16   8   8   8  16  16  16  16
#     4  10  22  39  60  85 117 157 196 242 293 344
#     4   9  17  31  54  85 120 155 191 243 300 339
#     4   9  17  33  56  83 109 133 166 210 262 323
#     4  11  21  34  59  89 114 143 181 231 278 329
#     4  10  22  39  59  83 114 150 186 228 281 338
#     4   9  18  34  58  86 115 154 201 242 285 344
#     4  10  20  36  58  81 107 139 173 215 268 326
#     4  11  23  38  57  79 105 141 183 226 273 326
#
# _framework density 21.131426000000001
#
# number of rings (size 3 to 8) (size 9 to 14) (size 15 to 20)
#    0.000    2.077    1.538    1.615    1.077    4.308 
#    0.000    0.769    0.000    0.923    0.000    0.000 
#    0.000    0.000    0.000    0.000    0.000    0.000 
#
# Total GULP energy -290070.166028 kJ/mol
# GULP energy per Si atom -5578.272424 kJ/mol
# Density = 2.108333 g / cm^3
# Si number density = 21.131426 Si / 1000 Ang^3
#
#
#
# Elastic Constant Matrix: (Units=GPa)
#
#
# Indices 1 2 3 4 5 6 
#
# 1 114.9441 -8.5186 39.9506 0.0000 0.0000 0.0000
# 2 -8.5186 18.4501 3.7306 0.0000 0.0000 0.0000
# 3 39.9506 3.7306 89.2442 0.0000 0.0000 0.0000
# 4 0.0000 0.0000 0.0000 5.9048 0.0000 0.0000
# 5 0.0000 0.0000 0.0000 0.0000 17.4722 0.0000
# 6 0.0000 0.0000 0.0000 0.0000 0.0000 12.4244
#
#
#
# Elastic Compliance Matrix: (Units=1/GPa)
#
#
# Indices 1 2 3 4 5 6 
#
# 1 0.010943 0.006094 -0.005153 0.000000 0.000000 0.000000
# 2 0.006094 0.058056 -0.005155 0.000000 0.000000 0.000000
# 3 -0.005153 -0.005155 0.013728 0.000000 0.000000 0.000000
# 4 0.000000 0.000000 0.000000 0.169354 0.000000 0.000000
# 5 0.000000 0.000000 0.000000 0.000000 0.057234 0.000000
# 6 0.000000 0.000000 0.000000 0.000000 0.000000 0.080487
#
#
# Mechanical properties :
#
#
# Convention : Reuss Voigt Hill
#
# Bulk Modulus (GPa) = 13.45921 32.55151 23.00536
# Shear Modulus (GPa) = 11.82048 19.65868 15.73958
#
# Velocity S-wave (km/s) = 2.36769 3.05340 2.73214
# Velocity P-wave (km/s) = 3.72259 5.27909 4.56763
#
# Compressibility (1/GPa) = 0.07429859
#
# Stress axis : x y z
#
# Youngs Moduli (GPa) = 91.38568 17.22464 72.84606
#
# Poissons Ratio (x) = -0.10497 0.37540
# Poissons Ratio (y) = -0.55693 0.37552
# Poissons Ratio (z) = 0.47094 0.08879
#
# Static dielectric constant tensor:
#      x y z
#    x 1.779270 0.000000 0.000000 
#    y 0.000000 1.771030 0.000000 
#    z 0.000000 0.000000 1.771790 
# 
# From -- ./inp_files/78296.got.cif
#   From: 2010.05.17/outbox.cif.g08.bks.cpg/sg65_40_cif.got.tgz:78296.got - 2010.06.03 17:01:31.
