data_PCOD9490315
_publ_section_title
;
Structure prediction by ZEFSAII (Michael W. Deem and Ramdas Pophale) SiO2 
 PCOD9490315
Probable space group: C M M M
;
_chemical_formula_sum "Si O2"
_cell_formula_units_Z 88
_cell_length_a 21.987923
_cell_length_b 24.379984
_cell_length_c 7.417056
_cell_angle_alpha 90.000000
_cell_angle_beta 90.000000
_cell_angle_gamma 90.000000
_cell_volume 3976.025689
_symmetry_space_group_name_H-M "C M M M"
_symmetry_group_IT_number 65
_symmetry_cell_setting 'orthorhombic'
loop_
_space_group_symop_operation_xyz
x,y,z
-x,-y,z
x,-y,-z
-x,y,-z
-x,-y,-z
x,y,-z
-x,y,z
x,-y,z
1/2+x,1/2+y,z
1/2-x,1/2-y,z
1/2+x,1/2-y,-z
1/2-x,1/2+y,-z
1/2-x,1/2-y,-z
1/2+x,1/2+y,-z
1/2-x,1/2+y,z
1/2+x,1/2-y,z
loop_
_atom_site_type_symbol
_atom_site_label
_atom_site_fract_x
_atom_site_fract_y
_atom_site_fract_z
Si Si1 0.703155 0.500000 0.779930
Si Si2 0.000000 0.065385 0.780118
Si Si3 0.432973 0.092246 0.217890
Si Si4 0.868482 0.107981 0.217619
Si Si5 0.686042 0.273981 0.287683
Si Si6 0.433933 0.780245 0.290300
Si Si7 0.341634 0.000000 0.779431
O O1 0.668060 0.554268 0.723164
O O2 0.772571 0.500000 0.719955
O O3 0.702871 0.500000 0.000000
O O4 0.938593 0.097702 0.723558
O O5 0.000000 0.000000 0.726623
O O6 0.000000 0.064153 0.000000
O O7 0.500000 0.071192 0.269826
O O8 0.427960 0.154259 0.283047
O O9 0.379329 0.053102 0.279165
O O10 0.431398 0.093755 0.000000
O O11 0.830641 0.161815 0.273023
O O12 0.870081 0.109290 0.000000
O O13 0.687385 0.259972 0.500000
O O14 0.750000 0.250000 0.214809
O O15 0.626252 0.245167 0.207076
O O16 0.435941 0.763280 0.500000
O O17 0.500000 0.765579 0.210701
O O18 0.341604 0.000000 0.000000
#
# Coordination Sequence:
#
# PCOD9490315 Si02
#       7
#     8   8  16  16  16  16   8
#     4   9  18  32  51  79 109 138 170 209 262 319
#     4   9  16  32  57  85 117 147 175 220 281 336
#     4   9  17  30  50  75 101 130 167 211 255 300
#     4  10  20  35  58  84 109 141 182 222 266 324
#     4  10  23  40  56  76 108 146 181 223 276 325
#     4   9  19  36  54  71  98 137 174 209 255 310
#     4   9  17  28  47  74 105 134 164 207 258 308
#
# _framework density 22.132652
#
# number of rings (size 3 to 8) (size 9 to 14) (size 15 to 20)
#    0.000    2.636    0.909    0.273    3.818    2.182 
#    0.000    0.909    0.000    3.818    0.000    0.000 
#    0.000    0.000    0.000    0.000    0.000    0.000 
#
# Total GULP energy -245546.352435 kJ/mol
# GULP energy per Si atom -5580.598919 kJ/mol
# Density = 2.208228 g / cm^3
# Si number density = 22.132652 Si / 1000 Ang^3
#
#
#
# Elastic Constant Matrix: (Units=GPa)
#
#
# Indices 1 2 3 4 5 6 
#
# 1 256.9157 107.3212 11.6616 0.0000 0.0000 0.0000
# 2 107.3212 106.6270 -13.0074 0.0000 0.0000 0.0000
# 3 11.6616 -13.0074 72.2141 0.0000 0.0000 0.0000
# 4 0.0000 0.0000 0.0000 2.7046 0.0000 0.0000
# 5 0.0000 0.0000 0.0000 0.0000 -10.6741 0.0000
# 6 0.0000 0.0000 0.0000 0.0000 0.0000 37.7553
#
#
#
# Elastic Compliance Matrix: (Units=1/GPa)
#
#
# Indices 1 2 3 4 5 6 
#
# 1 0.007132 -0.007483 -0.002500 0.000000 0.000000 0.000000
# 2 -0.007483 0.017441 0.004350 0.000000 0.000000 0.000000
# 3 -0.002500 0.004350 0.015035 0.000000 0.000000 0.000000
# 4 0.000000 0.000000 0.000000 0.369743 0.000000 0.000000
# 5 0.000000 0.000000 0.000000 0.000000 -0.093684 0.000000
# 6 0.000000 0.000000 0.000000 0.000000 0.000000 0.026486
#
#
# Mechanical properties :
#
#
# Convention : Reuss Voigt Hill
#
# Bulk Modulus (GPa) = 35.28320 71.96751 53.62536
# Shear Modulus (GPa) = 13.77923 27.94257 20.86090
#
# Velocity S-wave (km/s) = 2.49785 3.55703 3.07341
# Velocity P-wave (km/s) = 4.92903 7.03256 6.07257
#
# Compressibility (1/GPa) = 0.02834210
#
# Stress axis : x y z
#
# Youngs Moduli (GPa) = 140.22007 57.33671 66.51206
#
# Poissons Ratio (x) = 0.42905 0.16625
# Poissons Ratio (y) = 1.04927 -0.28932
# Poissons Ratio (z) = 0.35048 -0.24941
#
# Static dielectric constant tensor:
#      x y z
#    x 1.822660 0.000000 0.000000 
#    y 0.000000 1.772120 0.000000 
#    z 0.000000 0.000000 1.839410 
# 
# From -- ./inp_files/26837.got.cif
#   From: 2010.05.17/outbox.cif.g08.bks.cpg/sg65_14_cif.got.tgz:26837.got - 2010.06.03 17:01:31.
