data_PCOD9490163
_publ_section_title
;
Structure prediction by ZEFSAII (Michael W. Deem and Ramdas Pophale) SiO2 
 PCOD9490163
Probable space group: C M M M
;
_chemical_formula_sum "Si O2"
_cell_formula_units_Z 64
_cell_length_a 8.620614
_cell_length_b 15.062055
_cell_length_c 26.951194
_cell_angle_alpha 90.000000
_cell_angle_beta 90.000000
_cell_angle_gamma 90.000000
_cell_volume 3499.455205
_symmetry_space_group_name_H-M "C M M M"
_symmetry_group_IT_number 65
_symmetry_cell_setting 'orthorhombic'
loop_
_space_group_symop_operation_xyz
x,y,z
-x,-y,z
x,-y,-z
-x,y,-z
-x,-y,-z
x,y,-z
-x,y,z
x,-y,z
1/2+x,1/2+y,z
1/2-x,1/2-y,z
1/2+x,1/2-y,-z
1/2-x,1/2+y,-z
1/2-x,1/2-y,-z
1/2+x,1/2+y,-z
1/2-x,1/2+y,z
1/2+x,1/2-y,z
loop_
_atom_site_type_symbol
_atom_site_label
_atom_site_fract_x
_atom_site_fract_y
_atom_site_fract_z
Si Si1 0.188364 0.500000 0.056487
Si Si2 0.185105 0.156059 0.605996
Si Si3 0.687053 0.850906 0.134925
Si Si4 0.189042 0.000000 0.322184
Si Si5 0.676443 0.893504 0.500000
Si Si6 0.187381 0.000000 0.207726
O O1 0.233304 0.411268 0.086997
O O2 0.000000 0.500000 0.055619
O O3 0.244797 0.500000 0.000000
O O4 0.250000 0.250000 0.621464
O O5 0.240480 0.083727 0.645468
O O6 0.242046 0.136284 0.550369
O O7 0.000000 0.155724 0.605434
O O8 0.500000 0.847774 0.137026
O O9 0.750000 0.750000 0.134326
O O10 0.749240 0.911983 0.180096
O O11 0.237309 0.000000 0.265170
O O12 0.000000 0.000000 0.321770
O O13 0.500000 0.859514 0.500000
O O14 0.674554 0.000000 0.500000
O O15 0.000000 0.000000 0.204861
#
# Coordination Sequence:
#
# PCOD9490163 Si02
#       6
#     8  16  16   8   8   8
#     4   8  16  32  53  79 114 151 188 232 278 326
#     4  11  22  39  59  82 110 142 178 217 268 323
#     4  10  20  35  56  83 113 149 191 231 278 331
#     4   9  21  39  59  81 109 142 178 223 277 330
#     4  11  22  37  58  84 110 140 180 219 263 319
#     4  10  20  38  60  82 110 143 185 235 284 332
#
# _framework density 18.288561999999999
#
# number of rings (size 3 to 8) (size 9 to 14) (size 15 to 20)
#    0.000    2.000    1.250    3.375    0.000    2.000 
#    0.000    7.500    0.000   12.750    0.000    0.000 
#    0.000    0.000    0.000    0.000    0.000    0.000 
#
# Total GULP energy -178575.213676 kJ/mol
# GULP energy per Si atom -5580.475427 kJ/mol
# Density = 1.824694 g / cm^3
# Si number density = 18.288562 Si / 1000 Ang^3
#
#
#
# Elastic Constant Matrix: (Units=GPa)
#
#
# Indices 1 2 3 4 5 6 
#
# 1 67.7258 47.2607 40.7529 0.0000 0.0000 0.0000
# 2 47.2607 199.5313 108.8768 0.0000 0.0000 0.0000
# 3 40.7529 108.8768 189.1318 0.0000 0.0000 0.0000
# 4 0.0000 0.0000 0.0000 35.7025 0.0000 0.0000
# 5 0.0000 0.0000 0.0000 0.0000 35.2100 0.0000
# 6 0.0000 0.0000 0.0000 0.0000 0.0000 24.2383
#
#
#
# Elastic Compliance Matrix: (Units=1/GPa)
#
#
# Indices 1 2 3 4 5 6 
#
# 1 0.018246 -0.003173 -0.002105 0.000000 0.000000 0.000000
# 2 -0.003173 0.007859 -0.003840 0.000000 0.000000 0.000000
# 3 -0.002105 -0.003840 0.007952 0.000000 0.000000 0.000000
# 4 0.000000 0.000000 0.000000 0.028009 0.000000 0.000000
# 5 0.000000 0.000000 0.000000 0.000000 0.028401 0.000000
# 6 0.000000 0.000000 0.000000 0.000000 0.000000 0.041257
#
#
# Mechanical properties :
#
#
# Convention : Reuss Voigt Hill
#
# Bulk Modulus (GPa) = 63.21142 94.46329 78.83736
# Shear Modulus (GPa) = 32.20935 36.33007 34.26971
#
# Velocity S-wave (km/s) = 4.20119 4.46184 4.33348
# Velocity P-wave (km/s) = 7.62704 8.84917 8.26073
#
# Compressibility (1/GPa) = 0.01581993
#
# Stress axis : x y z
#
# Youngs Moduli (GPa) = 54.80544 127.24444 125.76058
#
# Poissons Ratio (x) = 0.40378 0.26471
# Poissons Ratio (y) = 0.17391 0.48296
# Poissons Ratio (z) = 0.11536 0.48866
#
# Static dielectric constant tensor:
#      x y z
#    x 1.628730 0.000000 0.000000 
#    y 0.000000 1.624970 0.000000 
#    z 0.000000 0.000000 1.620130 
# 
# From -- ./inp_files/66872.got.cif
#   From: 2010.05.17/outbox.cif.g08.bks.cpg/sg65_34_cif.got.tgz:66872.got - 2010.06.03 17:01:31.
