data_PCOD9490258
_publ_section_title
;
Structure prediction by ZEFSAII (Michael W. Deem and Ramdas Pophale) SiO2 
 PCOD9490258
Probable space group: C M M M
;
_chemical_formula_sum "Si O2"
_cell_formula_units_Z 104
_cell_length_a 22.349896
_cell_length_b 7.904445
_cell_length_c 28.527834
_cell_angle_alpha 90.000000
_cell_angle_beta 90.000000
_cell_angle_gamma 90.000000
_cell_volume 5039.827678
_symmetry_space_group_name_H-M "C M M M"
_symmetry_group_IT_number 65
_symmetry_cell_setting 'orthorhombic'
loop_
_space_group_symop_operation_xyz
x,y,z
-x,-y,z
x,-y,-z
-x,y,-z
-x,-y,-z
x,y,-z
-x,y,z
x,-y,z
1/2+x,1/2+y,z
1/2-x,1/2-y,z
1/2+x,1/2-y,-z
1/2-x,1/2+y,-z
1/2-x,1/2-y,-z
1/2+x,1/2+y,-z
1/2-x,1/2+y,z
1/2+x,1/2-y,z
loop_
_atom_site_type_symbol
_atom_site_label
_atom_site_fract_x
_atom_site_fract_y
_atom_site_fract_z
Si Si1 0.933559 0.296402 0.945990
Si Si2 0.684095 0.704429 0.781386
Si Si3 0.681229 0.203855 0.449746
Si Si4 0.933811 0.198596 0.728220
Si Si5 0.684595 0.700696 0.888550
Si Si6 0.000000 0.204755 0.554335
Si Si7 0.100004 0.302639 0.626194
O O1 0.935457 0.500000 0.946578
O O2 0.874870 0.249177 0.916799
O O3 0.000000 0.238456 0.928958
O O4 0.927234 0.238296 0.000000
O O5 0.681548 0.500000 0.781583
O O6 0.750000 0.750000 0.762128
O O7 0.625476 0.768288 0.753781
O O8 0.681546 0.768645 0.835153
O O9 0.654118 0.265125 0.500000
O O10 0.750000 0.250000 0.452120
O O11 0.658159 0.268908 0.399700
O O12 0.673612 0.000000 0.448908
O O13 0.922943 0.213392 0.672598
O O14 0.000000 0.271942 0.739145
O O15 0.936516 0.000000 0.740370
O O16 0.684752 0.500000 0.885474
O O17 0.750000 0.750000 0.908652
O O18 0.054912 0.280776 0.582983
O O19 0.000000 0.250693 0.500000
O O20 0.000000 0.000000 0.558283
O O21 0.106214 0.500000 0.638571
#
# Coordination Sequence:
#
# PCOD9490258 Si02
#       7
#    16  16  16  16  16   8  16
#     4   9  19  36  56  80 115 157 197 240 294 352
#     4   9  20  38  59  83 111 147 188 235 289 341
#     4   9  19  35  53  74 101 133 167 205 251 303
#     4  10  21  38  58  79 109 145 182 224 274 332
#     4  10  20  35  57  84 114 149 194 244 293 347
#     4  11  23  37  55  79 105 137 175 211 256 317
#     4  11  22  36  55  79 107 136 171 216 263 312
#
# _framework density 20.635626999999999
#
# number of rings (size 3 to 8) (size 9 to 14) (size 15 to 20)
#    0.000    2.231    0.769    2.077    0.000    5.846 
#    0.000    6.923    0.000    0.000    0.000    0.000 
#    0.000    0.000    0.000    0.000    0.000    0.000 
#
# Total GULP energy -289750.601263 kJ/mol
# GULP energy per Si atom -5572.126947 kJ/mol
# Density = 2.058866 g / cm^3
# Si number density = 20.635627 Si / 1000 Ang^3
#
#
#
# Elastic Constant Matrix: (Units=GPa)
#
#
# Indices 1 2 3 4 5 6 
#
# 1 192.5830 8.4032 78.5559 0.0000 0.0000 0.0000
# 2 8.4032 29.0161 2.6323 0.0000 0.0000 0.0000
# 3 78.5559 2.6323 70.2216 0.0000 0.0000 0.0000
# 4 0.0000 0.0000 0.0000 14.5141 0.0000 0.0000
# 5 0.0000 0.0000 0.0000 0.0000 91.7210 0.0000
# 6 0.0000 0.0000 0.0000 0.0000 0.0000 27.4593
#
#
#
# Elastic Compliance Matrix: (Units=1/GPa)
#
#
# Indices 1 2 3 4 5 6 
#
# 1 0.009646 -0.001821 -0.010722 0.000000 0.000000 0.000000
# 2 -0.001821 0.034925 0.000728 0.000000 0.000000 0.000000
# 3 -0.010722 0.000728 0.026208 0.000000 0.000000 0.000000
# 4 0.000000 0.000000 0.000000 0.068899 0.000000 0.000000
# 5 0.000000 0.000000 0.000000 0.000000 0.010903 0.000000
# 6 0.000000 0.000000 0.000000 0.000000 0.000000 0.036418
#
#
# Mechanical properties :
#
#
# Convention : Reuss Voigt Hill
#
# Bulk Modulus (GPa) = 21.20977 52.33372 36.77174
# Shear Modulus (GPa) = 22.09025 40.22082 31.15554
#
# Velocity S-wave (km/s) = 3.27539 4.41965 3.88982
# Velocity P-wave (km/s) = 4.96032 7.17358 6.16705
#
# Compressibility (1/GPa) = 0.04714809
#
# Stress axis : x y z
#
# Youngs Moduli (GPa) = 103.67326 28.63285 38.15605
#
# Poissons Ratio (x) = 0.05213 0.40912
# Poissons Ratio (y) = 0.18876 -0.02776
# Poissons Ratio (z) = 1.11161 -0.02083
#
# Static dielectric constant tensor:
#      x y z
#    x 1.994450 0.000000 0.000000 
#    y 0.000000 1.747940 0.000000 
#    z 0.000000 0.000000 1.743370 
# 
# From -- ./inp_files/75466.got.cif
#   From: 2010.05.17/outbox.cif.g08.bks.cpg/sg65_38_cif.got.tgz:75466.got - 2010.06.03 17:01:31.
