data_PCOD9490458
_publ_section_title
;
Structure prediction by ZEFSAII (Michael W. Deem and Ramdas Pophale) SiO2 
 PCOD9490458
Probable space group: C M M M
;
_chemical_formula_sum "Si O2"
_cell_formula_units_Z 104
_cell_length_a 16.379183
_cell_length_b 14.820133
_cell_length_c 20.259872
_cell_angle_alpha 90.000000
_cell_angle_beta 90.000000
_cell_angle_gamma 90.000000
_cell_volume 4917.915173
_symmetry_space_group_name_H-M "C M M M"
_symmetry_group_IT_number 65
_symmetry_cell_setting 'orthorhombic'
loop_
_space_group_symop_operation_xyz
x,y,z
-x,-y,z
x,-y,-z
-x,y,-z
-x,-y,-z
x,y,-z
-x,y,z
x,-y,z
1/2+x,1/2+y,z
1/2-x,1/2-y,z
1/2+x,1/2-y,-z
1/2-x,1/2+y,-z
1/2-x,1/2-y,-z
1/2+x,1/2+y,-z
1/2-x,1/2+y,z
1/2+x,1/2-y,z
loop_
_atom_site_type_symbol
_atom_site_label
_atom_site_fract_x
_atom_site_fract_y
_atom_site_fract_z
Si Si1 0.407391 0.241902 0.810572
Si Si2 0.099396 0.599436 0.700107
Si Si3 0.686660 0.603727 0.869094
Si Si4 0.410077 0.609268 0.000000
Si Si5 0.899897 0.293633 0.575460
Si Si6 0.628192 0.103726 0.078901
Si Si7 0.903708 0.903492 0.419802
O O1 0.500000 0.274861 0.796612
O O2 0.379100 0.173905 0.753594
O O3 0.344018 0.323581 0.817007
O O4 0.412054 0.180062 0.876439
O O5 0.129914 0.500000 0.717375
O O6 0.124930 0.630910 0.627400
O O7 0.000000 0.596411 0.700484
O O8 0.667233 0.500000 0.851140
O O9 0.779204 0.606238 0.893830
O O10 0.636349 0.632232 0.934009
O O11 0.414164 0.500000 0.000000
O O12 0.500000 0.647869 0.000000
O O13 0.873606 0.309377 0.500000
O O14 0.871059 0.194585 0.599710
O O15 0.000000 0.290958 0.574525
O O16 0.598481 0.000000 0.089275
O O17 0.625373 0.120703 0.000000
O O18 0.900846 0.902380 0.500000
O O19 0.000000 0.904341 0.402041
O O20 0.868137 0.000000 0.397515
#
# Coordination Sequence:
#
# PCOD9490458 Si02
#       7
#    16  16  16   8  16  16  16
#     4  11  23  35  51  75 107 146 180 211 260 327
#     4   9  18  32  45  60  91 133 172 211 261 318
#     4  10  20  36  56  78 104 134 173 223 271 315
#     4   9  16  28  49  76 104 132 161 201 260 318
#     4   8  13  22  39  62  85 116 165 215 254 302
#     4  10  21  38  58  79 104 135 177 227 270 306
#     4   7   9  14  26  47  76 106 137 180 234 288
#
# _framework density 21.147172999999999
#
# number of rings (size 3 to 8) (size 9 to 14) (size 15 to 20)
#    0.000    2.846    0.769    2.769    1.077    3.077 
#    0.000    3.077    0.000    2.769    0.000    0.000 
#    0.000    2.462    0.000    3.692    0.000    3.077 
#
# Total GULP energy -289927.007491 kJ/mol
# GULP energy per Si atom -5575.519375 kJ/mol
# Density = 2.109904 g / cm^3
# Si number density = 21.147173 Si / 1000 Ang^3
#
#
#
# Elastic Constant Matrix: (Units=GPa)
#
#
# Indices 1 2 3 4 5 6 
#
# 1 41.4089 16.4760 5.0389 0.0000 0.0000 0.0000
# 2 16.4760 103.2150 57.6627 0.0000 0.0000 0.0000
# 3 5.0389 57.6627 75.1175 0.0000 0.0000 0.0000
# 4 0.0000 0.0000 0.0000 26.5456 0.0000 0.0000
# 5 0.0000 0.0000 0.0000 0.0000 15.9738 0.0000
# 6 0.0000 0.0000 0.0000 0.0000 0.0000 197.9323
#
#
#
# Elastic Compliance Matrix: (Units=1/GPa)
#
#
# Indices 1 2 3 4 5 6 
#
# 1 0.026059 -0.005573 0.002530 0.000000 0.000000 0.000000
# 2 -0.005573 0.018155 -0.013563 0.000000 0.000000 0.000000
# 3 0.002530 -0.013563 0.023554 0.000000 0.000000 0.000000
# 4 0.000000 0.000000 0.000000 0.037671 0.000000 0.000000
# 5 0.000000 0.000000 0.000000 0.000000 0.062602 0.000000
# 6 0.000000 0.000000 0.000000 0.000000 0.000000 0.005052
#
#
# Mechanical properties :
#
#
# Convention : Reuss Voigt Hill
#
# Bulk Modulus (GPa) = 28.93801 42.01073 35.47437
# Shear Modulus (GPa) = 22.95431 57.46127 40.20779
#
# Velocity S-wave (km/s) = 3.29820 5.21834 4.36516
# Velocity P-wave (km/s) = 5.31206 7.49781 6.49750
#
# Compressibility (1/GPa) = 0.03455663
#
# Stress axis : x y z
#
# Youngs Moduli (GPa) = 38.37438 55.08080 42.45583
#
# Poissons Ratio (x) = 0.30698 -0.10742
# Poissons Ratio (y) = 0.21387 0.57581
# Poissons Ratio (z) = -0.09709 0.74704
#
# Static dielectric constant tensor:
#      x y z
#    x 1.801950 0.000000 0.000000 
#    y 0.000000 1.797260 0.000000 
#    z 0.000000 0.000000 1.756220 
# 
# From -- ./inp_files/63826.got.cif
#   From: 2010.05.17/outbox.cif.g08.bks.cpg/sg65_32_cif.got.tgz:63826.got - 2010.06.03 17:01:31.
