data_PCOD9490227
_publ_section_title
;
Structure prediction by ZEFSAII (Michael W. Deem and Ramdas Pophale) SiO2 
 PCOD9490227
Probable space group: C M M M
;
_chemical_formula_sum "Si O2"
_cell_formula_units_Z 88
_cell_length_a 33.002464
_cell_length_b 8.208539
_cell_length_c 17.143977
_cell_angle_alpha 90.000000
_cell_angle_beta 90.000000
_cell_angle_gamma 90.000000
_cell_volume 4644.337877
_symmetry_space_group_name_H-M "C M M M"
_symmetry_group_IT_number 65
_symmetry_cell_setting 'orthorhombic'
loop_
_space_group_symop_operation_xyz
x,y,z
-x,-y,z
x,-y,-z
-x,y,-z
-x,-y,-z
x,y,-z
-x,y,z
x,-y,z
1/2+x,1/2+y,z
1/2-x,1/2-y,z
1/2+x,1/2-y,-z
1/2-x,1/2+y,-z
1/2-x,1/2-y,-z
1/2+x,1/2+y,-z
1/2-x,1/2+y,z
1/2+x,1/2-y,z
loop_
_atom_site_type_symbol
_atom_site_label
_atom_site_fract_x
_atom_site_fract_y
_atom_site_fract_z
Si Si1 0.441502 0.309659 0.915287
Si Si2 0.866171 0.195449 0.297410
Si Si3 0.455977 0.301189 0.739612
Si Si4 0.143898 0.310596 0.875071
Si Si5 0.204511 0.193683 0.000000
Si Si6 0.705489 0.804936 0.410009
O O1 0.452852 0.500000 0.916097
O O2 0.454845 0.244094 0.830565
O O3 0.393173 0.293427 0.909092
O O4 0.453859 0.239758 0.000000
O O5 0.913918 0.248241 0.302454
O O6 0.851600 0.268473 0.215308
O O7 0.833707 0.245466 0.362446
O O8 0.866311 0.000000 0.292164
O O9 0.500000 0.252277 0.706549
O O10 0.455213 0.500000 0.741437
O O11 0.133562 0.500000 0.884681
O O12 0.182797 0.266645 0.924409
O O13 0.250000 0.250000 0.000000
O O14 0.299378 0.500000 0.000000
O O15 0.702734 0.747038 0.500000
O O16 0.750000 0.750000 0.379768
O O17 0.705117 0.000000 0.409325
#
# Coordination Sequence:
#
# PCOD9490227 Si02
#       6
#    16  16  16  16   8  16
#     4   9  16  27  46  69  96 133 176 226 277 323
#     4  10  20  35  57  83 111 147 185 224 271 323
#     4   8  15  28  47  75 108 142 185 233 276 318
#     4  11  21  34  51  72  99 137 180 221 269 321
#     4  12  24  38  52  70  97 130 175 226 276 325
#     4  10  21  38  61  89 118 144 173 215 268 328
#
# _framework density 18.947801999999999
#
# number of rings (size 3 to 8) (size 9 to 14) (size 15 to 20)
#    0.000    2.182    0.909    4.636    0.000    2.182 
#    0.000    5.455    0.000   14.182    0.000    8.909 
#    0.000    0.000    0.000    0.000    0.000    0.000 
#
# Total GULP energy -245254.582042 kJ/mol
# GULP energy per Si atom -5573.967774 kJ/mol
# Density = 1.890468 g / cm^3
# Si number density = 18.947802 Si / 1000 Ang^3
#
#
#
# Elastic Constant Matrix: (Units=GPa)
#
#
# Indices 1 2 3 4 5 6 
#
# 1 189.4578 14.1120 63.5070 0.0000 0.0000 0.0000
# 2 14.1120 44.5371 9.3139 0.0000 0.0000 0.0000
# 3 63.5070 9.3139 66.7493 0.0000 0.0000 0.0000
# 4 0.0000 0.0000 0.0000 10.8729 0.0000 0.0000
# 5 0.0000 0.0000 0.0000 0.0000 -515.4719 0.0000
# 6 0.0000 0.0000 0.0000 0.0000 0.0000 4.2494
#
#
#
# Elastic Compliance Matrix: (Units=1/GPa)
#
#
# Indices 1 2 3 4 5 6 
#
# 1 0.007788 -0.000946 -0.007278 0.000000 0.000000 0.000000
# 2 -0.000946 0.023243 -0.002343 0.000000 0.000000 0.000000
# 3 -0.007278 -0.002343 0.022233 0.000000 0.000000 0.000000
# 4 0.000000 0.000000 0.000000 0.091972 0.000000 0.000000
# 5 0.000000 0.000000 0.000000 0.000000 -0.001940 0.000000
# 6 0.000000 0.000000 0.000000 0.000000 0.000000 0.235329
#
#
# Mechanical properties :
#
#
# Convention : Reuss Voigt Hill
#
# Bulk Modulus (GPa) = 31.12373 52.73443 41.92908
# Shear Modulus (GPa) = 12.18119 -85.81583 -36.81732
#
# Velocity S-wave (km/s) = 2.53826 -6.73713 -4.41283
# Velocity P-wave (km/s) = 5.00520 5.71199 1.94612
#
# Compressibility (1/GPa) = 0.03212983
#
# Stress axis : x y z
#
# Youngs Moduli (GPa) = 128.39804 43.02380 44.97842
#
# Poissons Ratio (x) = 0.04069 0.32735
# Poissons Ratio (y) = 0.12144 0.10540
# Poissons Ratio (z) = 0.93448 0.10082
#
# Static dielectric constant tensor:
#      x y z
#    x 1.684700 0.000000 0.000000 
#    y 0.000000 1.673650 0.000000 
#    z 0.000000 0.000000 1.652320 
# 
# From -- ./inp_files/57981.got.cif
#   From: 2010.05.17/outbox.cif.g08.bks.cpg/sg65_29_cif.got.tgz:57981.got - 2010.06.03 17:01:31.
