data_PCOD9490347
_publ_section_title
;
Structure prediction by ZEFSAII (Michael W. Deem and Ramdas Pophale) SiO2 
 PCOD9490347
Probable space group: C M M M
;
_chemical_formula_sum "Si O2"
_cell_formula_units_Z 84
_cell_length_a 25.182813
_cell_length_b 16.121852
_cell_length_c 10.833867
_cell_angle_alpha 90.000000
_cell_angle_beta 90.000000
_cell_angle_gamma 90.000000
_cell_volume 4398.480493
_symmetry_space_group_name_H-M "C M M M"
_symmetry_group_IT_number 65
_symmetry_cell_setting 'orthorhombic'
loop_
_space_group_symop_operation_xyz
x,y,z
-x,-y,z
x,-y,-z
-x,y,-z
-x,-y,-z
x,y,-z
-x,y,z
x,-y,z
1/2+x,1/2+y,z
1/2-x,1/2-y,z
1/2+x,1/2-y,-z
1/2-x,1/2+y,-z
1/2-x,1/2-y,-z
1/2+x,1/2+y,-z
1/2-x,1/2+y,z
1/2+x,1/2-y,z
loop_
_atom_site_type_symbol
_atom_site_label
_atom_site_fract_x
_atom_site_fract_y
_atom_site_fract_z
Si Si1 0.086287 0.000000 0.141687
Si Si2 0.145648 0.000000 0.500000
Si Si3 0.797740 0.000000 0.236877
Si Si4 0.059437 0.819193 0.773005
Si Si5 0.060484 0.146835 0.500000
Si Si6 0.889056 0.666910 0.857060
Si Si7 0.269737 0.156698 0.150055
Si Si8 0.500000 0.901182 0.854553
O O1 0.066264 0.916786 0.206449
O O2 0.149655 0.000000 0.152768
O O3 0.069068 0.000000 0.000000
O O4 0.180872 0.000000 0.623035
O O5 0.106164 0.921589 0.500000
O O6 0.764997 0.916901 0.206968
O O7 0.065096 0.803143 0.627254
O O8 0.102023 0.765746 0.846492
O O9 0.000000 0.796444 0.814670
O O10 0.000000 0.111412 0.500000
O O11 0.831027 0.645995 0.807651
O O12 0.943553 0.630049 0.801199
O O13 0.888136 0.640799 0.000000
O O14 0.250000 0.250000 0.180852
O O15 0.267789 0.150013 0.000000
O O16 0.500000 0.000000 0.849948
O O17 0.500000 0.875507 0.000000
#
# Coordination Sequence:
#
# PCOD9490347 Si02
#       8
#     8   4   8  16   8  16  16   8
#     4  12  23  33  54  83 119 157 189 232 294 361
#     4  12  23  42  64  84 116 161 214 262 294 340
#     4  12  24  42  62  86 118 159 210 253 304 353
#     4  11  21  36  56  86 122 159 196 239 290 350
#     4  10  21  38  61  85 116 165 211 243 284 354
#     4  10  20  35  58  87 123 156 192 247 304 360
#     4  10  22  39  60  88 122 160 201 247 307 374
#     4   9  18  32  54  86 116 151 194 238 300 364
#
# _framework density 19.097505000000002
#
# number of rings (size 3 to 8) (size 9 to 14) (size 15 to 20)
#    0.000    1.429    2.857    3.000    1.333    4.571 
#    0.000    1.429    0.000    0.000    0.000    0.667 
#    0.000    0.000    0.000    0.000    0.000    0.000 
#
# Total GULP energy -234352.997602 kJ/mol
# GULP energy per Si atom -5579.833276 kJ/mol
# Density = 1.905404 g / cm^3
# Si number density = 19.097505 Si / 1000 Ang^3
#
#
#
# Elastic Constant Matrix: (Units=GPa)
#
#
# Indices 1 2 3 4 5 6 
#
# 1 150.7467 46.2825 19.8219 0.0000 0.0000 0.0000
# 2 46.2825 75.9550 9.0037 0.0000 0.0000 0.0000
# 3 19.8219 9.0037 55.8238 0.0000 0.0000 0.0000
# 4 0.0000 0.0000 0.0000 10.1153 0.0000 0.0000
# 5 0.0000 0.0000 0.0000 0.0000 13.3024 0.0000
# 6 0.0000 0.0000 0.0000 0.0000 0.0000 28.2153
#
#
#
# Elastic Compliance Matrix: (Units=1/GPa)
#
#
# Indices 1 2 3 4 5 6 
#
# 1 0.008418 -0.004868 -0.002204 0.000000 0.000000 0.000000
# 2 -0.004868 0.016238 -0.000890 0.000000 0.000000 0.000000
# 3 -0.002204 -0.000890 0.018840 0.000000 0.000000 0.000000
# 4 0.000000 0.000000 0.000000 0.098860 0.000000 0.000000
# 5 0.000000 0.000000 0.000000 0.000000 0.075174 0.000000
# 6 0.000000 0.000000 0.000000 0.000000 0.000000 0.035442
#
#
# Mechanical properties :
#
#
# Convention : Reuss Voigt Hill
#
# Bulk Modulus (GPa) = 36.27071 48.08242 42.17657
# Shear Modulus (GPa) = 17.98003 24.15445 21.06724
#
# Velocity S-wave (km/s) = 3.07169 3.56026 3.32496
# Velocity P-wave (km/s) = 5.62263 6.49096 6.07234
#
# Compressibility (1/GPa) = 0.02757046
#
# Stress axis : x y z
#
# Youngs Moduli (GPa) = 118.79180 61.58529 53.07954
#
# Poissons Ratio (x) = 0.29981 0.11698
# Poissons Ratio (y) = 0.57831 0.04726
# Poissons Ratio (z) = 0.26181 0.05483
#
# Static dielectric constant tensor:
#      x y z
#    x 1.695690 0.000000 0.000000 
#    y 0.000000 1.677020 0.000000 
#    z 0.000000 0.000000 1.657400 
# 
# From -- ./inp_files/30629.got.cif
#   From: 2010.05.17/outbox.cif.g08.bks.cpg/sg65_16_cif.got.tgz:30629.got - 2010.06.03 17:01:31.
