data_PCOD9490228
_publ_section_title
;
Structure prediction by ZEFSAII (Michael W. Deem and Ramdas Pophale) SiO2 
 PCOD9490228
Probable space group: C M M M
;
_chemical_formula_sum "Si O2"
_cell_formula_units_Z 72
_cell_length_a 8.098480
_cell_length_b 26.342269
_cell_length_c 15.096281
_cell_angle_alpha 90.000000
_cell_angle_beta 90.000000
_cell_angle_gamma 90.000000
_cell_volume 3220.524931
_symmetry_space_group_name_H-M "C M M M"
_symmetry_group_IT_number 65
_symmetry_cell_setting 'orthorhombic'
loop_
_space_group_symop_operation_xyz
x,y,z
-x,-y,z
x,-y,-z
-x,y,-z
-x,-y,-z
x,y,-z
-x,y,z
x,-y,z
1/2+x,1/2+y,z
1/2-x,1/2-y,z
1/2+x,1/2-y,-z
1/2-x,1/2+y,-z
1/2-x,1/2-y,-z
1/2+x,1/2+y,-z
1/2-x,1/2+y,z
1/2+x,1/2-y,z
loop_
_atom_site_type_symbol
_atom_site_label
_atom_site_fract_x
_atom_site_fract_y
_atom_site_fract_z
Si Si1 0.201946 0.500000 0.400999
Si Si2 0.197184 0.807848 0.398159
Si Si3 0.682715 0.698068 0.105411
Si Si4 0.810958 0.410088 0.097397
Si Si5 0.299995 0.904991 0.712414
O O1 0.261177 0.500000 0.500000
O O2 0.254110 0.448360 0.354622
O O3 0.000000 0.500000 0.399851
O O4 0.257124 0.819127 0.500000
O O5 0.250000 0.750000 0.377388
O O6 0.253884 0.850023 0.327079
O O7 0.000000 0.809194 0.399742
O O8 0.500000 0.685101 0.140283
O O9 0.750000 0.750000 0.145349
O O10 0.805361 0.651035 0.109474
O O11 0.663892 0.706485 0.000000
O O12 0.734229 0.423825 0.191404
O O13 0.000000 0.428168 0.093923
O O14 0.735727 0.421271 0.000000
O O15 0.500000 0.905223 0.719841
#
# Coordination Sequence:
#
# PCOD9490228 Si02
#       5
#     8  16  16  16  16
#     4   9  18  34  58  86 112 139 177 227 280 333
#     4  10  21  37  58  85 116 148 182 225 280 339
#     4   9  16  26  42  64  91 128 174 220 265 312
#     4   9  18  32  48  69 101 139 179 224 269 313
#     4  10  20  35  57  83 111 147 189 229 273 328
#
# _framework density 22.356604999999998
#
# number of rings (size 3 to 8) (size 9 to 14) (size 15 to 20)
#    0.000    2.556    0.000    2.000    0.000    6.667 
#    0.000    1.111    0.000    5.333    0.000    0.000 
#    0.000    5.333    0.000    0.000    0.000    0.000 
#
# Total GULP energy -200595.750180 kJ/mol
# GULP energy per Si atom -5572.104172 kJ/mol
# Density = 2.230572 g / cm^3
# Si number density = 22.356605 Si / 1000 Ang^3
#
#
#
# Elastic Constant Matrix: (Units=GPa)
#
#
# Indices 1 2 3 4 5 6 
#
# 1 37.3601 -1.8569 6.8143 0.0000 0.0000 0.0000
# 2 -1.8569 68.1050 57.3434 0.0000 0.0000 0.0000
# 3 6.8143 57.3434 198.8111 0.0000 0.0000 0.0000
# 4 0.0000 0.0000 0.0000 -16.4560 0.0000 0.0000
# 5 0.0000 0.0000 0.0000 0.0000 11.3747 0.0000
# 6 0.0000 0.0000 0.0000 0.0000 0.0000 2.2515
#
#
#
# Elastic Compliance Matrix: (Units=1/GPa)
#
#
# Indices 1 2 3 4 5 6 
#
# 1 0.027142 0.002012 -0.001511 0.000000 0.000000 0.000000
# 2 0.002012 0.019542 -0.005705 0.000000 0.000000 0.000000
# 3 -0.001511 -0.005705 0.006727 0.000000 0.000000 0.000000
# 4 0.000000 0.000000 0.000000 -0.060768 0.000000 0.000000
# 5 0.000000 0.000000 0.000000 0.000000 0.087915 0.000000
# 6 0.000000 0.000000 0.000000 0.000000 0.000000 0.444155
#
#
# Mechanical properties :
#
#
# Convention : Reuss Voigt Hill
#
# Bulk Modulus (GPa) = 23.25415 47.65308 35.45361
# Shear Modulus (GPa) = 9.09992 15.56575 12.33284
#
# Velocity S-wave (km/s) = 2.01970 2.64151 2.35125
# Velocity P-wave (km/s) = 3.98283 5.53757 4.82326
#
# Compressibility (1/GPa) = 0.04300308
#
# Stress axis : x y z
#
# Youngs Moduli (GPa) = 36.84322 51.17187 148.64770
#
# Poissons Ratio (x) = -0.10296 0.22455
# Poissons Ratio (y) = -0.07413 0.84811
# Poissons Ratio (z) = 0.05566 0.29196
#
# Static dielectric constant tensor:
#      x y z
#    x 1.828670 0.000000 0.000000 
#    y 0.000000 1.802520 0.000000 
#    z 0.000000 0.000000 1.920230 
# 
# From -- ./inp_files/36519.got.cif
#   From: 2010.05.17/outbox.cif.g08.bks.cpg/sg65_19_cif.got.tgz:36519.got - 2010.06.03 17:01:31.
