data_PCOD9490464
_publ_section_title
;
Structure prediction by ZEFSAII (Michael W. Deem and Ramdas Pophale) SiO2 
 PCOD9490464
Probable space group: C M M M
;
_chemical_formula_sum "Si O2"
_cell_formula_units_Z 72
_cell_length_a 21.986049
_cell_length_b 7.532895
_cell_length_c 22.443860
_cell_angle_alpha 90.000000
_cell_angle_beta 90.000000
_cell_angle_gamma 90.000000
_cell_volume 3717.120640
_symmetry_space_group_name_H-M "C M M M"
_symmetry_group_IT_number 65
_symmetry_cell_setting 'orthorhombic'
loop_
_space_group_symop_operation_xyz
x,y,z
-x,-y,z
x,-y,-z
-x,y,-z
-x,-y,-z
x,y,-z
-x,y,z
x,-y,z
1/2+x,1/2+y,z
1/2-x,1/2-y,z
1/2+x,1/2-y,-z
1/2-x,1/2+y,-z
1/2-x,1/2-y,-z
1/2+x,1/2+y,-z
1/2-x,1/2+y,z
1/2+x,1/2-y,z
loop_
_atom_site_type_symbol
_atom_site_label
_atom_site_fract_x
_atom_site_fract_y
_atom_site_fract_z
Si Si1 0.122810 0.704702 0.376020
Si Si2 0.680063 0.290740 0.500000
Si Si3 0.179643 0.712149 0.744173
Si Si4 0.072915 0.000000 0.066824
Si Si5 0.500000 0.219107 0.429806
Si Si6 0.571640 0.213260 0.165274
O O1 0.111016 0.500000 0.359415
O O2 0.155279 0.709918 0.439395
O O3 0.162754 0.780613 0.322246
O O4 0.057920 0.783753 0.392934
O O5 0.666987 0.500000 0.500000
O O6 0.750000 0.250000 0.500000
O O7 0.177447 0.500000 0.743904
O O8 0.250000 0.750000 0.760429
O O9 0.123529 0.767052 0.786931
O O10 0.086636 0.174268 0.106089
O O11 0.000000 0.000000 0.061341
O O12 0.098924 0.000000 0.000000
O O13 0.500000 0.271730 0.500000
O O14 0.500000 0.000000 0.431304
O O15 0.500000 0.251235 0.181780
O O16 0.575210 0.000000 0.156460
#
# Coordination Sequence:
#
# PCOD9490464 Si02
#       6
#    16   8  16   8   8  16
#     4  10  20  36  56  79 105 138 185 230 283 345
#     4  12  24  37  52  71  99 136 178 236 289 346
#     4  10  22  36  56  83 111 150 191 237 289 348
#     4   9  18  34  60  94 126 159 196 236 287 341
#     4   9  16  30  56  80 100 134 176 223 283 346
#     4   9  19  36  58  89 123 156 197 243 289 341
#
# _framework density 19.369831000000001
#
# number of rings (size 3 to 8) (size 9 to 14) (size 15 to 20)
#    0.000    2.222    1.111    1.667    3.111    3.111 
#    0.000    3.333    0.000    0.667    0.000    0.000 
#    0.000    0.000    0.000    0.000    0.000    0.000 
#
# Total GULP energy -200513.577593 kJ/mol
# GULP energy per Si atom -5569.821600 kJ/mol
# Density = 1.932574 g / cm^3
# Si number density = 19.369831 Si / 1000 Ang^3
#
#
#
# Elastic Constant Matrix: (Units=GPa)
#
#
# Indices 1 2 3 4 5 6 
#
# 1 152.7618 12.6586 72.8115 0.0000 0.0000 0.0000
# 2 12.6586 61.3773 24.7126 0.0000 0.0000 0.0000
# 3 72.8115 24.7126 139.3797 0.0000 0.0000 0.0000
# 4 0.0000 0.0000 0.0000 16.8333 0.0000 0.0000
# 5 0.0000 0.0000 0.0000 0.0000 -6.5053 0.0000
# 6 0.0000 0.0000 0.0000 0.0000 0.0000 13.2646
#
#
#
# Elastic Compliance Matrix: (Units=1/GPa)
#
#
# Indices 1 2 3 4 5 6 
#
# 1 0.008717 0.000038 -0.004560 0.000000 0.000000 0.000000
# 2 0.000038 0.017545 -0.003131 0.000000 0.000000 0.000000
# 3 -0.004560 -0.003131 0.010112 0.000000 0.000000 0.000000
# 4 0.000000 0.000000 0.000000 0.059406 0.000000 0.000000
# 5 0.000000 0.000000 0.000000 0.000000 -0.153721 0.000000
# 6 0.000000 0.000000 0.000000 0.000000 0.000000 0.075389
#
#
# Mechanical properties :
#
#
# Convention : Reuss Voigt Hill
#
# Bulk Modulus (GPa) = 47.46462 63.76491 55.61476
# Shear Modulus (GPa) = 125.70290 20.94092 73.32191
#
# Velocity S-wave (km/s) = 8.06456 3.29159 6.15921
# Velocity P-wave (km/s) = 10.54864 6.88747 8.90817
#
# Compressibility (1/GPa) = 0.02106833
#
# Stress axis : x y z
#
# Youngs Moduli (GPa) = 114.72418 56.99507 98.89175
#
# Poissons Ratio (x) = -0.00219 0.45098
# Poissons Ratio (y) = -0.00441 0.30962
# Poissons Ratio (z) = 0.52318 0.17845
#
# Static dielectric constant tensor:
#      x y z
#    x 1.420230 0.000000 0.000000 
#    y 0.000000 1.746050 0.000000 
#    z 0.000000 0.000000 1.598590 
# 
# From -- ./inp_files/64385.got.cif
#   From: 2010.05.17/outbox.cif.g08.bks.cpg/sg65_33_cif.got.tgz:64385.got - 2010.06.03 17:01:31.
