data_PCOD9490158
_publ_section_title
;
Structure prediction by ZEFSAII (Michael W. Deem and Ramdas Pophale) SiO2 
 PCOD9490158
Probable space group: C M M M
;
_chemical_formula_sum "Si O2"
_cell_formula_units_Z 72
_cell_length_a 7.973186
_cell_length_b 14.967939
_cell_length_c 27.621030
_cell_angle_alpha 90.000000
_cell_angle_beta 90.000000
_cell_angle_gamma 90.000000
_cell_volume 3296.353428
_symmetry_space_group_name_H-M "C M M M"
_symmetry_group_IT_number 65
_symmetry_cell_setting 'orthorhombic'
loop_
_space_group_symop_operation_xyz
x,y,z
-x,-y,z
x,-y,-z
-x,y,-z
-x,-y,-z
x,y,-z
-x,y,z
x,-y,z
1/2+x,1/2+y,z
1/2-x,1/2-y,z
1/2+x,1/2-y,-z
1/2-x,1/2+y,-z
1/2-x,1/2-y,-z
1/2+x,1/2+y,-z
1/2-x,1/2+y,z
1/2+x,1/2-y,z
loop_
_atom_site_type_symbol
_atom_site_label
_atom_site_fract_x
_atom_site_fract_y
_atom_site_fract_z
Si Si1 0.809777 0.104494 0.340442
Si Si2 0.200048 0.646629 0.000000
Si Si3 0.500000 0.890124 0.277889
Si Si4 0.817271 0.104461 0.106351
Si Si5 0.000000 0.390085 0.165758
Si Si6 0.298371 0.646005 0.448010
O O1 0.667212 0.142111 0.305458
O O2 0.746098 0.109155 0.396052
O O3 0.000000 0.142839 0.337581
O O4 0.825067 0.000000 0.328366
O O5 0.250000 0.750000 0.000000
O O6 0.273680 0.608486 0.049585
O O7 0.000000 0.634489 0.000000
O O8 0.500000 0.864850 0.221793
O O9 0.500000 0.000000 0.280172
O O10 0.664706 0.142141 0.137417
O O11 0.000000 0.145874 0.114608
O O12 0.827677 0.000000 0.119462
O O13 0.000000 0.500000 0.163606
O O14 0.235637 0.609596 0.500000
O O15 0.500000 0.635876 0.448669
O O16 0.250000 0.750000 0.447387
#
# Coordination Sequence:
#
# PCOD9490158 Si02
#       6
#    16   8   8  16   8  16
#     4   9  18  32  50  74 102 133 168 211 259 308
#     4  12  23  36  55  82 113 148 181 213 262 320
#     4   9  18  32  52  78 104 132 173 216 260 306
#     4  10  20  35  56  83 112 141 178 221 261 308
#     4   9  18  33  54  80 106 137 174 219 266 304
#     4   9  18  31  48  72  99 131 167 207 256 310
#
# _framework density 21.842317999999999
#
# number of rings (size 3 to 8) (size 9 to 14) (size 15 to 20)
#    0.000    2.444    1.111    1.333    1.556    2.667 
#    0.000    6.667    0.000    3.333    0.000    0.000 
#    0.000    0.000    0.000    0.000    0.000    0.000 
#
# Total GULP energy -200875.258855 kJ/mol
# GULP energy per Si atom -5579.868302 kJ/mol
# Density = 2.179260 g / cm^3
# Si number density = 21.842318 Si / 1000 Ang^3
#
#
#
# Elastic Constant Matrix: (Units=GPa)
#
#
# Indices 1 2 3 4 5 6 
#
# 1 173.9464 9.2727 113.8596 0.0000 0.0000 0.0000
# 2 9.2727 32.6560 -6.8102 0.0000 0.0000 0.0000
# 3 113.8596 -6.8102 186.0574 0.0000 0.0000 0.0000
# 4 0.0000 0.0000 0.0000 88.9944 0.0000 0.0000
# 5 0.0000 0.0000 0.0000 0.0000 -102.0267 0.0000
# 6 0.0000 0.0000 0.0000 0.0000 0.0000 15.0526
#
#
#
# Elastic Compliance Matrix: (Units=1/GPa)
#
#
# Indices 1 2 3 4 5 6 
#
# 1 0.010132 -0.004202 -0.006354 0.000000 0.000000 0.000000
# 2 -0.004202 0.032601 0.003765 0.000000 0.000000 0.000000
# 3 -0.006354 0.003765 0.009401 0.000000 0.000000 0.000000
# 4 0.000000 0.000000 0.000000 0.011237 0.000000 0.000000
# 5 0.000000 0.000000 0.000000 0.000000 -0.009801 0.000000
# 6 0.000000 0.000000 0.000000 0.000000 0.000000 0.066434
#
#
# Mechanical properties :
#
#
# Convention : Reuss Voigt Hill
#
# Bulk Modulus (GPa) = 25.93994 69.47822 47.70908
# Shear Modulus (GPa) = 34.14442 18.82656 26.48549
#
# Velocity S-wave (km/s) = 3.95805 2.93905 3.48599
# Velocity P-wave (km/s) = 5.72626 6.58752 6.17193
#
# Compressibility (1/GPa) = 0.03855059
#
# Stress axis : x y z
#
# Youngs Moduli (GPa) = 98.69472 30.67424 106.37060
#
# Poissons Ratio (x) = 0.12890 0.67592
# Poissons Ratio (y) = 0.41474 -0.40047
# Poissons Ratio (z) = 0.62714 -0.11548
#
# Static dielectric constant tensor:
#      x y z
#    x 1.872190 0.000000 0.000000 
#    y 0.000000 1.798390 0.000000 
#    z 0.000000 0.000000 1.772240 
# 
# From -- ./inp_files/59387.got.cif
#   From: 2010.05.17/outbox.cif.g08.bks.cpg/sg65_30_cif.got.tgz:59387.got - 2010.06.03 17:01:31.
