data_PCOD9490970
_publ_section_title
;
Structure prediction by ZEFSAII (Michael W. Deem and Ramdas Pophale) SiO2 
 PCOD9490970
Probable space group: C M M M
;
_chemical_formula_sum "Si O2"
_cell_formula_units_Z 66
_cell_length_a 22.786069
_cell_length_b 18.122784
_cell_length_c 8.033868
_cell_angle_alpha 90.000000
_cell_angle_beta 90.000000
_cell_angle_gamma 90.000000
_cell_volume 3317.561743
_symmetry_space_group_name_H-M "C M M M"
_symmetry_group_IT_number 65
_symmetry_cell_setting 'orthorhombic'
loop_
_space_group_symop_operation_xyz
x,y,z
-x,-y,z
x,-y,-z
-x,y,-z
-x,-y,-z
x,y,-z
-x,y,z
x,-y,z
1/2+x,1/2+y,z
1/2-x,1/2-y,z
1/2+x,1/2-y,-z
1/2-x,1/2+y,-z
1/2-x,1/2-y,-z
1/2+x,1/2+y,-z
1/2-x,1/2+y,z
1/2+x,1/2-y,z
loop_
_atom_site_type_symbol
_atom_site_label
_atom_site_fract_x
_atom_site_fract_y
_atom_site_fract_z
Si Si1 0.874632 0.204031 0.301781
Si Si2 0.066529 0.500000 0.801420
Si Si3 0.281730 0.583420 0.703826
Si Si4 0.000000 0.000000 0.000000
Si Si5 0.651565 0.131508 0.700969
Si Si6 0.500000 0.653494 0.182411
O O1 0.865025 0.207466 0.500000
O O2 0.828880 0.143158 0.236107
O O3 0.862717 0.286328 0.236368
O O4 0.940616 0.177913 0.270544
O O5 0.102775 0.571986 0.747968
O O6 0.000000 0.500000 0.734700
O O7 0.063775 0.500000 0.000000
O O8 0.282320 0.583676 0.500000
O O9 0.295799 0.500000 0.757078
O O10 0.216024 0.605121 0.756632
O O11 0.000000 0.066276 0.142516
O O12 0.653498 0.133772 0.500000
O O13 0.500000 0.690619 0.000000
#
# Coordination Sequence:
#
# PCOD9490970 Si02
#       6
#    16   8  16   2  16   8
#     4  10  21  36  61  93 119 148 194 249 299 349
#     4  11  25  41  58  83 119 161 203 241 289 346
#     4   9  17  32  58  90 120 150 185 237 299 350
#     4   8  24  44  58  72 112 166 202 232 282 344
#     4  10  20  38  62  89 120 151 192 244 301 355
#     4  10  23  41  59  80 118 161 198 236 289 350
#
# _framework density 19.894129
#
# number of rings (size 3 to 8) (size 9 to 14) (size 15 to 20)
#    0.364    1.818    1.212    1.455    3.394    4.848 
#    0.000    1.818    2.667    2.909    0.000    0.000 
#    0.000    0.000    0.000    0.000    0.000    0.000 
#
# Total GULP energy -183898.564101 kJ/mol
# GULP energy per Si atom -5572.683761 kJ/mol
# Density = 1.984885 g / cm^3
# Si number density = 19.894129 Si / 1000 Ang^3
#
#
#
# Elastic Constant Matrix: (Units=GPa)
#
#
# Indices 1 2 3 4 5 6 
#
# 1 179.4527 114.8590 0.5013 0.0000 0.0000 0.0000
# 2 114.8590 229.6700 11.2526 0.0000 0.0000 0.0000
# 3 0.5013 11.2526 12.2603 0.0000 0.0000 0.0000
# 4 0.0000 0.0000 0.0000 10.7275 0.0000 0.0000
# 5 0.0000 0.0000 0.0000 0.0000 511.3558 0.0000
# 6 0.0000 0.0000 0.0000 0.0000 0.0000 38.3766
#
#
#
# Elastic Compliance Matrix: (Units=1/GPa)
#
#
# Indices 1 2 3 4 5 6 
#
# 1 0.008350 -0.004355 0.003655 0.000000 0.000000 0.000000
# 2 -0.004355 0.006830 -0.006091 0.000000 0.000000 0.000000
# 3 0.003655 -0.006091 0.087005 0.000000 0.000000 0.000000
# 4 0.000000 0.000000 0.000000 0.093218 0.000000 0.000000
# 5 0.000000 0.000000 0.000000 0.000000 0.001956 0.000000
# 6 0.000000 0.000000 0.000000 0.000000 0.000000 0.026058
#
#
# Mechanical properties :
#
#
# Convention : Reuss Voigt Hill
#
# Bulk Modulus (GPa) = 11.28614 74.95653 43.12133
# Shear Modulus (GPa) = 18.75953 131.74333 75.25143
#
# Velocity S-wave (km/s) = 3.07411 8.14653 6.15695
# Velocity P-wave (km/s) = 4.27617 11.23599 8.50097
#
# Compressibility (1/GPa) = 0.08860429
#
# Stress axis : x y z
#
# Youngs Moduli (GPa) = 119.76701 146.40617 11.49362
#
# Poissons Ratio (x) = 0.63756 -0.04201
# Poissons Ratio (y) = 0.52155 0.07001
# Poissons Ratio (z) = -0.43779 0.89173
#
# Static dielectric constant tensor:
#      x y z
#    x 1.690880 0.000000 0.000000 
#    y 0.000000 1.687240 0.000000 
#    z 0.000000 0.000000 1.715670 
# 
# From -- ./inp_files/10973.got.cif
#   From: 2010.05.17/outbox.cif.g08.bks.cpg/sg65_6_cif.got.tgz:10973.got - 2010.06.03 17:01:31.
