data_PCOD9490857
_publ_section_title
;
Structure prediction by ZEFSAII (Michael W. Deem and Ramdas Pophale) SiO2 
 PCOD9490857
Probable space group: C M M M
;
_chemical_formula_sum "Si O2"
_cell_formula_units_Z 72
_cell_length_a 24.728495
_cell_length_b 17.118699
_cell_length_c 9.175550
_cell_angle_alpha 90.000000
_cell_angle_beta 90.000000
_cell_angle_gamma 90.000000
_cell_volume 3884.190730
_symmetry_space_group_name_H-M "C M M M"
_symmetry_group_IT_number 65
_symmetry_cell_setting 'orthorhombic'
loop_
_space_group_symop_operation_xyz
x,y,z
-x,-y,z
x,-y,-z
-x,y,-z
-x,-y,-z
x,y,-z
-x,y,z
x,-y,z
1/2+x,1/2+y,z
1/2-x,1/2-y,z
1/2+x,1/2-y,-z
1/2-x,1/2+y,-z
1/2-x,1/2-y,-z
1/2+x,1/2+y,-z
1/2-x,1/2+y,z
1/2+x,1/2-y,z
loop_
_atom_site_type_symbol
_atom_site_label
_atom_site_fract_x
_atom_site_fract_y
_atom_site_fract_z
Si Si1 0.734750 0.588470 0.672314
Si Si2 0.562250 0.000000 0.677544
Si Si3 0.649895 0.696293 0.827225
Si Si4 0.063990 0.907679 0.669004
Si Si5 0.141996 0.637729 0.673003
O O1 0.722721 0.597678 0.500000
O O2 0.719129 0.500000 0.714783
O O3 0.702374 0.653277 0.760706
O O4 0.798971 0.598845 0.690032
O O5 0.595888 0.076881 0.721283
O O6 0.500000 0.000000 0.725937
O O7 0.562451 0.000000 0.500000
O O8 0.599765 0.643306 0.775472
O O9 0.642345 0.781623 0.758968
O O10 0.653885 0.700458 0.000000
O O11 0.077669 0.889182 0.500000
O O12 0.000000 0.894241 0.687824
O O13 0.073901 0.000000 0.689710
O O14 0.134649 0.653232 0.500000
#
# Coordination Sequence:
#
# PCOD9490857 Si02
#       5
#    16   8  16  16  16
#     4  10  20  37  61  85 112 150 197 247 295 344
#     4   9  18  36  65  95 115 139 188 251 304 347
#     4  12  25  36  52  85 123 157 191 231 287 355
#     4   9  19  38  62  84 108 144 192 241 286 336
#     4  10  20  38  61  85 113 148 193 245 295 344
#
# _framework density 18.536678999999999
#
# number of rings (size 3 to 8) (size 9 to 14) (size 15 to 20)
#    0.000    1.889    1.111    4.000    0.000    8.444 
#    0.000    3.889    0.000    0.667    0.000    0.000 
#    0.000    0.000    0.000    0.000    0.000    0.000 
#
# Total GULP energy -201138.247334 kJ/mol
# GULP energy per Si atom -5587.173537 kJ/mol
# Density = 1.849449 g / cm^3
# Si number density = 18.536679 Si / 1000 Ang^3
#
#
#
# Elastic Constant Matrix: (Units=GPa)
#
#
# Indices 1 2 3 4 5 6 
#
# 1 116.2185 75.5872 55.2136 0.0000 0.0000 0.0000
# 2 75.5872 134.9010 74.7705 0.0000 0.0000 0.0000
# 3 55.2136 74.7705 77.9831 0.0000 0.0000 0.0000
# 4 0.0000 0.0000 0.0000 -15.7988 0.0000 0.0000
# 5 0.0000 0.0000 0.0000 0.0000 -22.9865 0.0000
# 6 0.0000 0.0000 0.0000 0.0000 0.0000 468.8675
#
#
#
# Elastic Compliance Matrix: (Units=1/GPa)
#
#
# Indices 1 2 3 4 5 6 
#
# 1 0.014490 -0.005192 -0.005281 0.000000 0.000000 0.000000
# 2 -0.005192 0.017680 -0.013276 0.000000 0.000000 0.000000
# 3 -0.005281 -0.013276 0.029292 0.000000 0.000000 0.000000
# 4 0.000000 0.000000 0.000000 -0.063296 0.000000 0.000000
# 5 0.000000 0.000000 0.000000 0.000000 -0.043504 0.000000
# 6 0.000000 0.000000 0.000000 0.000000 0.000000 0.002133
#
#
# Mechanical properties :
#
#
# Convention : Reuss Voigt Hill
#
# Bulk Modulus (GPa) = 71.61406 82.24948 76.93177
# Shear Modulus (GPa) = 558.73299 94.25186 326.49242
#
# Velocity S-wave (km/s) = 17.38029 7.13838 13.28592
# Velocity P-wave (km/s) = 21.01151 10.60234 16.64171
#
# Compressibility (1/GPa) = 0.01396374
#
# Stress axis : x y z
#
# Youngs Moduli (GPa) = 69.01144 56.56005 34.13921
#
# Poissons Ratio (x) = 0.29365 0.18031
# Poissons Ratio (y) = 0.35830 0.45323
# Poissons Ratio (z) = 0.36448 0.75089
#
# Static dielectric constant tensor:
#      x y z
#    x 1.646110 0.000000 0.000000 
#    y 0.000000 1.620070 0.000000 
#    z 0.000000 0.000000 1.605310 
# 
# From -- ./inp_files/13585.got.cif
#   From: 2010.05.17/outbox.cif.g08.bks.cpg/sg65_7_cif.got.tgz:13585.got - 2010.06.03 17:01:31.
