data_PCOD9490447
_publ_section_title
;
Structure prediction by ZEFSAII (Michael W. Deem and Ramdas Pophale) SiO2 
 PCOD9490447
Probable space group: C M M M
;
_chemical_formula_sum "Si O2"
_cell_formula_units_Z 88
_cell_length_a 13.888201
_cell_length_b 14.238175
_cell_length_c 19.820296
_cell_angle_alpha 90.000000
_cell_angle_beta 90.000000
_cell_angle_gamma 90.000000
_cell_volume 3919.317583
_symmetry_space_group_name_H-M "C M M M"
_symmetry_group_IT_number 65
_symmetry_cell_setting 'orthorhombic'
loop_
_space_group_symop_operation_xyz
x,y,z
-x,-y,z
x,-y,-z
-x,y,-z
-x,-y,-z
x,y,-z
-x,y,z
x,-y,z
1/2+x,1/2+y,z
1/2-x,1/2-y,z
1/2+x,1/2-y,-z
1/2-x,1/2+y,-z
1/2-x,1/2-y,-z
1/2+x,1/2+y,-z
1/2-x,1/2+y,z
1/2+x,1/2-y,z
loop_
_atom_site_type_symbol
_atom_site_label
_atom_site_fract_x
_atom_site_fract_y
_atom_site_fract_z
Si Si1 0.114155 0.607369 0.226588
Si Si2 0.611413 0.113347 0.928768
Si Si3 0.308572 0.606520 0.622539
Si Si4 0.250000 0.250000 0.785158
Si Si5 0.609466 0.806555 0.580149
Si Si6 0.610686 0.605935 0.775818
O O1 0.143355 0.500000 0.241655
O O2 0.140359 0.630671 0.148127
O O3 0.174461 0.689646 0.259916
O O4 0.000000 0.612964 0.234326
O O5 0.500000 0.143809 0.930518
O O6 0.612073 0.000000 0.931313
O O7 0.657074 0.146449 0.000000
O O8 0.328761 0.500000 0.596939
O O9 0.362983 0.696605 0.590924
O O10 0.195450 0.628659 0.609347
O O11 0.346544 0.604994 0.700120
O O12 0.322922 0.324216 0.817902
O O13 0.608770 0.823428 0.500000
O O14 0.500000 0.824681 0.606193
O O15 0.500000 0.635880 0.774594
O O16 0.616102 0.500000 0.802114
#
# Coordination Sequence:
#
# PCOD9490447 Si02
#       6
#    16  16  16   8  16  16
#     4   9  18  31  47  71 100 127 161 203 243 289
#     4   7  10  20  40  63  89 124 160 193 234 282
#     4  10  20  36  56  74  96 130 170 206 237 276
#     4  12  20  32  53  74  97 130 160 198 254 302
#     4  10  21  35  52  79 111 135 157 191 237 288
#     4  10  22  38  54  73  97 127 165 206 246 290
#
# _framework density 22.452888000000002
#
# number of rings (size 3 to 8) (size 9 to 14) (size 15 to 20)
#    0.000    2.545    0.000    5.455    0.000    2.909 
#    0.000    3.182    0.000    2.182    0.000    0.000 
#    0.000    0.000    0.000   22.182    0.000    1.455 
#
# Total GULP energy -245018.389375 kJ/mol
# GULP energy per Si atom -5568.599759 kJ/mol
# Density = 2.240178 g / cm^3
# Si number density = 22.452888 Si / 1000 Ang^3
#
#
#
# Elastic Constant Matrix: (Units=GPa)
#
#
# Indices 1 2 3 4 5 6 
#
# 1 172.0937 51.4370 -5.4984 0.0000 0.0000 0.0000
# 2 51.4370 113.5728 7.1330 0.0000 0.0000 0.0000
# 3 -5.4984 7.1330 55.2317 0.0000 0.0000 0.0000
# 4 0.0000 0.0000 0.0000 7.0246 0.0000 0.0000
# 5 0.0000 0.0000 0.0000 0.0000 3.7540 0.0000
# 6 0.0000 0.0000 0.0000 0.0000 0.0000 36.9662
#
#
#
# Elastic Compliance Matrix: (Units=1/GPa)
#
#
# Indices 1 2 3 4 5 6 
#
# 1 0.006784 -0.003140 0.001081 0.000000 0.000000 0.000000
# 2 -0.003140 0.010331 -0.001647 0.000000 0.000000 0.000000
# 3 0.001081 -0.001647 0.018426 0.000000 0.000000 0.000000
# 4 0.000000 0.000000 0.000000 0.142357 0.000000 0.000000
# 5 0.000000 0.000000 0.000000 0.000000 0.266383 0.000000
# 6 0.000000 0.000000 0.000000 0.000000 0.000000 0.027052
#
#
# Mechanical properties :
#
#
# Convention : Reuss Voigt Hill
#
# Bulk Modulus (GPa) = 35.55177 49.67123 42.61150
# Shear Modulus (GPa) = 10.24337 28.73740 19.49038
#
# Velocity S-wave (km/s) = 2.13824 3.58145 2.94948
# Velocity P-wave (km/s) = 4.68662 6.26680 5.53341
#
# Compressibility (1/GPa) = 0.02812799
#
# Stress axis : x y z
#
# Youngs Moduli (GPa) = 147.40713 96.79977 54.27161
#
# Poissons Ratio (x) = 0.30398 -0.05866
# Poissons Ratio (y) = 0.46291 0.08937
# Poissons Ratio (z) = -0.15933 0.15941
#
# Static dielectric constant tensor:
#      x y z
#    x 1.877330 0.000000 0.000000 
#    y 0.000000 1.897230 0.000000 
#    z 0.000000 0.000000 1.880290 
# 
# From -- ./inp_files/69876.got.cif
#   From: 2010.05.17/outbox.cif.g08.bks.cpg/sg65_35_cif.got.tgz:69876.got - 2010.06.03 17:01:31.
