data_PCOD9490323
_publ_section_title
;
Structure prediction by ZEFSAII (Michael W. Deem and Ramdas Pophale) SiO2 
 PCOD9490323
Probable space group: C M M M
;
_chemical_formula_sum "Si O2"
_cell_formula_units_Z 72
_cell_length_a 9.028721
_cell_length_b 23.931530
_cell_length_c 17.548573
_cell_angle_alpha 90.000000
_cell_angle_beta 90.000000
_cell_angle_gamma 90.000000
_cell_volume 3791.739603
_symmetry_space_group_name_H-M "C M M M"
_symmetry_group_IT_number 65
_symmetry_cell_setting 'orthorhombic'
loop_
_space_group_symop_operation_xyz
x,y,z
-x,-y,z
x,-y,-z
-x,y,-z
-x,-y,-z
x,y,-z
-x,y,z
x,-y,z
1/2+x,1/2+y,z
1/2-x,1/2-y,z
1/2+x,1/2-y,-z
1/2-x,1/2+y,-z
1/2-x,1/2-y,-z
1/2+x,1/2+y,-z
1/2-x,1/2+y,z
1/2+x,1/2-y,z
loop_
_atom_site_type_symbol
_atom_site_label
_atom_site_fract_x
_atom_site_fract_y
_atom_site_fract_z
Si Si1 0.325264 0.884320 0.091217
Si Si2 0.677358 0.310312 0.500000
Si Si3 0.670062 0.500000 0.092698
Si Si4 0.177337 0.500000 0.590019
Si Si5 0.822827 0.809630 0.212376
Si Si6 0.177564 0.113138 0.356157
O O1 0.500000 0.883894 0.107986
O O2 0.243113 0.834904 0.134944
O O3 0.253751 0.943537 0.115582
O O4 0.307009 0.879406 0.000000
O O5 0.500000 0.303738 0.500000
O O6 0.750000 0.250000 0.500000
O O7 0.718473 0.345834 0.574333
O O8 0.500000 0.500000 0.119471
O O9 0.668063 0.500000 0.000000
O O10 0.221822 0.500000 0.500000
O O11 0.241256 0.554920 0.630432
O O12 0.000000 0.500000 0.593049
O O13 0.750000 0.750000 0.229616
O O14 0.787564 0.854509 0.278384
O O15 0.000000 0.803807 0.207980
O O16 0.000000 0.103902 0.358964
#
# Coordination Sequence:
#
# PCOD9490323 Si02
#       6
#    16   8   8   8  16  16
#     4  10  21  38  61  88 119 159 204 250 304 362
#     4  10  20  35  58  85 113 150 192 232 279 338
#     4   9  17  32  57  88 119 149 187 240 296 353
#     4  11  23  38  61  94 124 154 196 247 296 344
#     4  11  24  41  61  87 119 157 202 251 304 359
#     4  10  22  40  62  86 117 158 196 236 293 356
#
# _framework density 18.988645999999999
#
# number of rings (size 3 to 8) (size 9 to 14) (size 15 to 20)
#    0.000    1.778    1.111    2.667    0.000    7.111 
#    0.000    1.111    0.000    0.000    0.000    0.000 
#    0.000    0.000    0.000    0.000    0.000    0.000 
#
# Total GULP energy -201188.787395 kJ/mol
# GULP energy per Si atom -5588.577428 kJ/mol
# Density = 1.894543 g / cm^3
# Si number density = 18.988646 Si / 1000 Ang^3
#
#
#
# Elastic Constant Matrix: (Units=GPa)
#
#
# Indices 1 2 3 4 5 6 
#
# 1 89.0256 78.8222 53.8675 0.0000 0.0000 0.0000
# 2 78.8222 172.4789 51.2883 0.0000 0.0000 0.0000
# 3 53.8675 51.2883 57.5497 0.0000 0.0000 0.0000
# 4 0.0000 0.0000 0.0000 23.4959 0.0000 0.0000
# 5 0.0000 0.0000 0.0000 0.0000 21.5106 0.0000
# 6 0.0000 0.0000 0.0000 0.0000 0.0000 44.2449
#
#
#
# Elastic Compliance Matrix: (Units=1/GPa)
#
#
# Indices 1 2 3 4 5 6 
#
# 1 0.032140 -0.007813 -0.023121 0.000000 0.000000 0.000000
# 2 -0.007813 0.009787 -0.001410 0.000000 0.000000 0.000000
# 3 -0.023121 -0.001410 0.040274 0.000000 0.000000 0.000000
# 4 0.000000 0.000000 0.000000 0.042561 0.000000 0.000000
# 5 0.000000 0.000000 0.000000 0.000000 0.046489 0.000000
# 6 0.000000 0.000000 0.000000 0.000000 0.000000 0.022601
#
#
# Mechanical properties :
#
#
# Convention : Reuss Voigt Hill
#
# Bulk Modulus (GPa) = 57.09413 76.33446 66.71430
# Shear Modulus (GPa) = 18.91241 26.85536 22.88388
#
# Velocity S-wave (km/s) = 3.15935 3.76478 3.47527
# Velocity P-wave (km/s) = 6.59101 7.69320 7.16334
#
# Compressibility (1/GPa) = 0.01751493
#
# Stress axis : x y z
#
# Youngs Moduli (GPa) = 31.11410 102.17299 24.82984
#
# Poissons Ratio (x) = 0.79823 0.57409
# Poissons Ratio (y) = 0.24308 0.03500
# Poissons Ratio (z) = 0.71938 0.14404
#
# Static dielectric constant tensor:
#      x y z
#    x 1.633710 0.000000 0.000000 
#    y 0.000000 1.621310 0.000000 
#    z 0.000000 0.000000 1.667570 
# 
# From -- ./inp_files/36712.got.cif
#   From: 2010.05.17/outbox.cif.g08.bks.cpg/sg65_19_cif.got.tgz:36712.got - 2010.06.03 17:01:31.
