data_PCOD9490479
_publ_section_title
;
Structure prediction by ZEFSAII (Michael W. Deem and Ramdas Pophale) SiO2 
 PCOD9490479
Probable space group: C M M M
;
_chemical_formula_sum "Si O2"
_cell_formula_units_Z 88
_cell_length_a 8.381021
_cell_length_b 31.376484
_cell_length_c 18.000225
_cell_angle_alpha 90.000000
_cell_angle_beta 90.000000
_cell_angle_gamma 90.000000
_cell_volume 4733.464651
_symmetry_space_group_name_H-M "C M M M"
_symmetry_group_IT_number 65
_symmetry_cell_setting 'orthorhombic'
loop_
_space_group_symop_operation_xyz
x,y,z
-x,-y,z
x,-y,-z
-x,y,-z
-x,-y,-z
x,y,-z
-x,y,z
x,-y,z
1/2+x,1/2+y,z
1/2-x,1/2-y,z
1/2+x,1/2-y,-z
1/2-x,1/2+y,-z
1/2-x,1/2-y,-z
1/2+x,1/2+y,-z
1/2-x,1/2+y,z
1/2+x,1/2-y,z
loop_
_atom_site_type_symbol
_atom_site_label
_atom_site_fract_x
_atom_site_fract_y
_atom_site_fract_z
Si Si1 0.323336 0.669902 0.720312
Si Si2 0.500000 0.800985 0.912697
Si Si3 0.000000 0.403680 0.912768
Si Si4 0.750000 0.250000 0.815774
Si Si5 0.811555 0.086537 0.816793
Si Si6 0.307595 0.952334 0.669620
Si Si7 0.189497 0.368958 0.582087
O O1 0.500000 0.659105 0.693968
O O2 0.323625 0.714942 0.760870
O O3 0.282135 0.633328 0.780202
O O4 0.218800 0.665320 0.646911
O O5 0.500000 0.852000 0.905424
O O6 0.355239 0.778690 0.870242
O O7 0.500000 0.790955 0.000000
O O8 0.166348 0.419383 0.875142
O O9 0.000000 0.414122 0.000000
O O10 0.779666 0.054906 0.748044
O O11 0.000000 0.084454 0.840801
O O12 0.500000 0.947644 0.681947
O O13 0.254509 0.914556 0.614786
O O14 0.279408 0.000000 0.641304
O O15 0.255310 0.359631 0.500000
O O16 0.000000 0.372905 0.575341
#
# Coordination Sequence:
#
# PCOD9490479 Si02
#       7
#    16   8   8   8  16  16  16
#     4  10  21  34  54  79 103 148 191 227 277 336
#     4  11  24  38  56  83 118 148 180 234 297 345
#     4  11  22  38  59  84 115 154 190 231 295 354
#     4  12  21  36  57  80 110 146 186 232 277 340
#     4  10  20  36  56  82 114 149 194 238 279 340
#     4   9  17  31  57  86 114 150 187 228 283 342
#     4   9  19  34  54  81 114 147 184 232 283 335
#
# _framework density 18.591032999999999
#
# number of rings (size 3 to 8) (size 9 to 14) (size 15 to 20)
#    0.000    2.000    3.636    0.273    2.545    1.455 
#    0.000    2.273    0.000    1.091    0.000    6.364 
#    0.000    0.000    0.000    0.000    0.000    0.000 
#
# Total GULP energy -244942.658056 kJ/mol
# GULP energy per Si atom -5566.878592 kJ/mol
# Density = 1.854872 g / cm^3
# Si number density = 18.591033 Si / 1000 Ang^3
#
#
#
# Elastic Constant Matrix: (Units=GPa)
#
#
# Indices 1 2 3 4 5 6 
#
# 1 72.2258 -2.5286 56.4102 0.0000 0.0000 0.0000
# 2 -2.5286 36.2779 12.7391 0.0000 0.0000 0.0000
# 3 56.4102 12.7391 114.4270 0.0000 0.0000 0.0000
# 4 0.0000 0.0000 0.0000 10.6195 0.0000 0.0000
# 5 0.0000 0.0000 0.0000 0.0000 14.0402 0.0000
# 6 0.0000 0.0000 0.0000 0.0000 0.0000 44.1642
#
#
#
# Elastic Compliance Matrix: (Units=1/GPa)
#
#
# Indices 1 2 3 4 5 6 
#
# 1 0.023702 0.005989 -0.012351 0.000000 0.000000 0.000000
# 2 0.005989 0.030200 -0.006315 0.000000 0.000000 0.000000
# 3 -0.012351 -0.006315 0.015531 0.000000 0.000000 0.000000
# 4 0.000000 0.000000 0.000000 0.094166 0.000000 0.000000
# 5 0.000000 0.000000 0.000000 0.000000 0.071224 0.000000
# 6 0.000000 0.000000 0.000000 0.000000 0.000000 0.022643
#
#
# Mechanical properties :
#
#
# Convention : Reuss Voigt Hill
#
# Bulk Modulus (GPa) = 22.68641 39.57467 31.13054
# Shear Modulus (GPa) = 16.80601 24.18544 20.49573
#
# Velocity S-wave (km/s) = 3.00990 3.61074 3.32392
# Velocity P-wave (km/s) = 4.93038 6.22225 5.61360
#
# Compressibility (1/GPa) = 0.04407925
#
# Stress axis : x y z
#
# Youngs Moduli (GPa) = 42.19084 33.11277 64.38678
#
# Poissons Ratio (x) = -0.19832 0.79526
# Poissons Ratio (y) = -0.25269 0.40658
# Poissons Ratio (z) = 0.52111 0.20910
#
# Static dielectric constant tensor:
#      x y z
#    x 1.699040 0.000000 0.000000 
#    y 0.000000 1.625370 0.000000 
#    z 0.000000 0.000000 1.643130 
# 
# From -- ./inp_files/50554.got.cif
#   From: 2010.05.17/outbox.cif.g08.bks.cpg/sg65_26_cif.got.tgz:50554.got - 2010.06.03 17:01:31.
