data_PCOD9490050
_publ_section_title
;
Structure prediction by ZEFSAII (Michael W. Deem and Ramdas Pophale) SiO2 
 PCOD9490050
Probable space group: C M M M
;
_chemical_formula_sum "Si O2"
_cell_formula_units_Z 72
_cell_length_a 14.152007
_cell_length_b 25.927018
_cell_length_c 10.386013
_cell_angle_alpha 90.000000
_cell_angle_beta 90.000000
_cell_angle_gamma 90.000000
_cell_volume 3810.829038
_symmetry_space_group_name_H-M "C M M M"
_symmetry_group_IT_number 65
_symmetry_cell_setting 'orthorhombic'
loop_
_space_group_symop_operation_xyz
x,y,z
-x,-y,z
x,-y,-z
-x,y,-z
-x,-y,-z
x,y,-z
-x,y,z
x,-y,z
1/2+x,1/2+y,z
1/2-x,1/2-y,z
1/2+x,1/2-y,-z
1/2-x,1/2+y,-z
1/2-x,1/2-y,-z
1/2+x,1/2+y,-z
1/2-x,1/2+y,z
1/2+x,1/2-y,z
loop_
_atom_site_type_symbol
_atom_site_label
_atom_site_fract_x
_atom_site_fract_y
_atom_site_fract_z
Si Si1 0.886551 0.284007 0.500000
Si Si2 0.605982 0.853099 0.745084
Si Si3 0.613725 0.500000 0.653536
Si Si4 0.385296 0.333413 0.500000
Si Si5 0.155310 0.173554 0.000000
Si Si6 0.810679 0.892166 0.249173
Si Si7 0.128404 0.289218 0.000000
O O1 0.864550 0.316464 0.373339
O O2 0.851604 0.225758 0.500000
O O3 0.000000 0.278989 0.500000
O O4 0.500000 0.875133 0.719643
O O5 0.696087 0.890351 0.763218
O O6 0.596939 0.817366 0.870334
O O7 0.500000 0.500000 0.657774
O O8 0.640162 0.500000 0.500000
O O9 0.653013 0.449606 0.725243
O O10 0.500000 0.336603 0.500000
O O11 0.345245 0.360893 0.374054
O O12 0.146193 0.137677 0.125641
O O13 0.102876 0.228719 0.000000
O O14 0.260981 0.196455 0.000000
#
# Coordination Sequence:
#
# PCOD9490050 Si02
#       7
#     8  16   8   8   8  16   8
#     4   9  19  31  49  81 117 146 186 237 278 329
#     4  10  20  35  55  85 122 159 192 228 280 348
#     4  11  24  45  66  84 107 142 197 255 309 357
#     4  11  21  36  57  83 111 151 198 236 288 354
#     4   9  20  35  57  93 123 153 197 240 280 339
#     4  11  22  38  62  84 114 153 195 245 296 342
#     4   9  17  34  58  85 126 168 194 221 275 340
#
# _framework density 18.893525
#
# number of rings (size 3 to 8) (size 9 to 14) (size 15 to 20)
#    0.000    1.889    1.111    3.000    0.000    4.000 
#    0.000    6.667    0.000    0.667    0.000    4.667 
#    0.000    0.000    0.000    0.000    0.000    0.000 
#
# Total GULP energy -200750.982085 kJ/mol
# GULP energy per Si atom -5576.416169 kJ/mol
# Density = 1.885052 g / cm^3
# Si number density = 18.893525 Si / 1000 Ang^3
#
#
#
# Elastic Constant Matrix: (Units=GPa)
#
#
# Indices 1 2 3 4 5 6 
#
# 1 117.6899 45.1640 24.2720 0.0000 0.0000 0.0000
# 2 45.1640 134.1381 58.5201 0.0000 0.0000 0.0000
# 3 24.2720 58.5201 156.2761 0.0000 0.0000 0.0000
# 4 0.0000 0.0000 0.0000 317.6578 0.0000 0.0000
# 5 0.0000 0.0000 0.0000 0.0000 -4.2703 0.0000
# 6 0.0000 0.0000 0.0000 0.0000 0.0000 21.4248
#
#
#
# Elastic Compliance Matrix: (Units=1/GPa)
#
#
# Indices 1 2 3 4 5 6 
#
# 1 0.009773 -0.003142 -0.000341 0.000000 0.000000 0.000000
# 2 -0.003142 0.009921 -0.003227 0.000000 0.000000 0.000000
# 3 -0.000341 -0.003227 0.007660 0.000000 0.000000 0.000000
# 4 0.000000 0.000000 0.000000 0.003148 0.000000 0.000000
# 5 0.000000 0.000000 0.000000 0.000000 -0.234174 0.000000
# 6 0.000000 0.000000 0.000000 0.000000 0.000000 0.046675
#
#
# Mechanical properties :
#
#
# Convention : Reuss Voigt Hill
#
# Bulk Modulus (GPa) = 71.76776 73.77960 72.77368
# Shear Modulus (GPa) = -35.98872 85.63898 24.82513
#
# Velocity S-wave (km/s) = -4.36916 6.73985 3.62878
# Velocity P-wave (km/s) = 3.55178 9.98511 7.49391
#
# Compressibility (1/GPa) = 0.01393383
#
# Stress axis : x y z
#
# Youngs Moduli (GPa) = 102.32364 100.80044 130.54205
#
# Poissons Ratio (x) = 0.31667 0.04458
# Poissons Ratio (y) = 0.32145 0.42126
# Poissons Ratio (z) = 0.03494 0.32528
#
# Static dielectric constant tensor:
#      x y z
#    x 1.735420 0.000000 0.000000 
#    y 0.000000 1.639540 0.000000 
#    z 0.000000 0.000000 1.636450 
# 
# From -- ./inp_files/7479.got.cif
#   From: 2010.05.17/outbox.cif.g08.bks.cpg/sg65_4_cif.got.tgz:7479.got - 2010.06.03 17:01:31.
