data_PCOD9490469
_publ_section_title
;
Structure prediction by ZEFSAII (Michael W. Deem and Ramdas Pophale) SiO2 
 PCOD9490469
Probable space group: C M M M
;
_chemical_formula_sum "Si O2"
_cell_formula_units_Z 112
_cell_length_a 24.237895
_cell_length_b 13.692514
_cell_length_c 15.826247
_cell_angle_alpha 90.000000
_cell_angle_beta 90.000000
_cell_angle_gamma 90.000000
_cell_volume 5252.378717
_symmetry_space_group_name_H-M "C M M M"
_symmetry_group_IT_number 65
_symmetry_cell_setting 'orthorhombic'
loop_
_space_group_symop_operation_xyz
x,y,z
-x,-y,z
x,-y,-z
-x,y,-z
-x,-y,-z
x,y,-z
-x,y,z
x,-y,z
1/2+x,1/2+y,z
1/2-x,1/2-y,z
1/2+x,1/2-y,-z
1/2-x,1/2+y,-z
1/2-x,1/2-y,-z
1/2+x,1/2+y,-z
1/2-x,1/2+y,z
1/2+x,1/2-y,z
loop_
_atom_site_type_symbol
_atom_site_label
_atom_site_fract_x
_atom_site_fract_y
_atom_site_fract_z
Si Si1 0.061110 0.256180 0.409567
Si Si2 0.159409 0.112173 0.374134
Si Si3 0.620030 0.387935 0.184673
Si Si4 0.714977 0.119059 0.592502
Si Si5 0.822780 0.383377 0.775433
Si Si6 0.271517 0.381652 0.095390
Si Si7 0.061044 0.304508 0.220651
O O1 0.064356 0.309720 0.500000
O O2 0.109758 0.178148 0.405976
O O3 0.062970 0.316195 0.322864
O O4 0.000000 0.208407 0.406952
O O5 0.154253 0.112399 0.272578
O O6 0.220274 0.144116 0.400872
O O7 0.152432 0.000000 0.401399
O O8 0.602121 0.500000 0.169163
O O9 0.665500 0.354412 0.116969
O O10 0.571824 0.309523 0.198159
O O11 0.693836 0.150367 0.500000
O O12 0.686413 0.154022 0.679077
O O13 0.712042 0.000000 0.593641
O O14 0.818645 0.500000 0.771037
O O15 0.774222 0.348687 0.837239
O O16 0.883341 0.356812 0.809017
O O17 0.272094 0.500000 0.101083
O O18 0.256431 0.355947 0.000000
O O19 0.000000 0.334928 0.191842
#
# Coordination Sequence:
#
# PCOD9490469 Si02
#       7
#    16  16  16  16  16  16  16
#     4   9  18  31  44  63  97 139 184 231 267 303
#     4   9  15  26  45  69 102 140 174 214 266 320
#     4   9  17  33  56  80 111 142 169 213 267 319
#     4   9  16  27  46  73 106 141 174 214 269 326
#     4  10  20  36  56  79 110 142 177 226 274 317
#     4   9  17  33  60  90 115 141 175 216 269 328
#     4  10  22  37  54  77 104 142 189 227 265 318
#
# _framework density 21.323671999999998
#
# number of rings (size 3 to 8) (size 9 to 14) (size 15 to 20)
#    0.000    2.714    1.429    0.429    0.000    2.857 
#    0.000    5.000    0.000    4.286    0.000    8.000 
#    0.000    0.000    0.000    0.000    0.000    0.000 
#
# Total GULP energy -312499.979564 kJ/mol
# GULP energy per Si atom -5580.356778 kJ/mol
# Density = 2.127514 g / cm^3
# Si number density = 21.323672 Si / 1000 Ang^3
#
#
#
# Elastic Constant Matrix: (Units=GPa)
#
#
# Indices 1 2 3 4 5 6 
#
# 1 113.7553 -0.9530 32.0915 0.0000 0.0000 0.0000
# 2 -0.9530 42.1304 5.0737 0.0000 0.0000 0.0000
# 3 32.0915 5.0737 82.8296 0.0000 0.0000 0.0000
# 4 0.0000 0.0000 0.0000 -6.1223 0.0000 0.0000
# 5 0.0000 0.0000 0.0000 0.0000 90.0229 0.0000
# 6 0.0000 0.0000 0.0000 0.0000 0.0000 21.3796
#
#
#
# Elastic Compliance Matrix: (Units=1/GPa)
#
#
# Indices 1 2 3 4 5 6 
#
# 1 0.009889 0.000690 -0.003874 0.000000 0.000000 0.000000
# 2 0.000690 0.023960 -0.001735 0.000000 0.000000 0.000000
# 3 -0.003874 -0.001735 0.013680 0.000000 0.000000 0.000000
# 4 0.000000 0.000000 0.000000 -0.163336 0.000000 0.000000
# 5 0.000000 0.000000 0.000000 0.000000 0.011108 0.000000
# 6 0.000000 0.000000 0.000000 0.000000 0.000000 0.046774
#
#
# Mechanical properties :
#
#
# Convention : Reuss Voigt Hill
#
# Bulk Modulus (GPa) = 26.53043 34.57105 30.55074
# Shear Modulus (GPa) = -140.75395 34.55625 -53.09885
#
# Velocity S-wave (km/s) = -8.13336 4.02998 -4.99554
# Velocity P-wave (km/s) = 8.70249 6.15647 4.34921
#
# Compressibility (1/GPa) = 0.03769257
#
# Stress axis : x y z
#
# Youngs Moduli (GPa) = 101.11802 41.73551 73.09861
#
# Poissons Ratio (x) = -0.02881 0.28317
# Poissons Ratio (y) = -0.06979 0.12683
# Poissons Ratio (z) = 0.39172 0.07242
#
# Static dielectric constant tensor:
#      x y z
#    x 1.752020 0.000000 0.000000 
#    y 0.000000 1.814910 0.000000 
#    z 0.000000 0.000000 1.806470 
# 
# From -- ./inp_files/45749.got.cif
#   From: 2010.05.17/outbox.cif.g08.bks.cpg/sg65_23_cif.got.tgz:45749.got - 2010.06.03 17:01:31.
