data_PCOD9490765
_publ_section_title
;
Structure prediction by ZEFSAII (Michael W. Deem and Ramdas Pophale) SiO2 
 PCOD9490765
Probable space group: C M M M
;
_chemical_formula_sum "Si O2"
_cell_formula_units_Z 88
_cell_length_a 23.946373
_cell_length_b 7.776799
_cell_length_c 23.772031
_cell_angle_alpha 90.000000
_cell_angle_beta 90.000000
_cell_angle_gamma 90.000000
_cell_volume 4426.973326
_symmetry_space_group_name_H-M "C M M M"
_symmetry_group_IT_number 65
_symmetry_cell_setting 'orthorhombic'
loop_
_space_group_symop_operation_xyz
x,y,z
-x,-y,z
x,-y,-z
-x,y,-z
-x,-y,-z
x,y,-z
-x,y,z
x,-y,z
1/2+x,1/2+y,z
1/2-x,1/2-y,z
1/2+x,1/2-y,-z
1/2-x,1/2+y,-z
1/2-x,1/2-y,-z
1/2+x,1/2+y,-z
1/2-x,1/2+y,z
1/2+x,1/2-y,z
loop_
_atom_site_type_symbol
_atom_site_label
_atom_site_fract_x
_atom_site_fract_y
_atom_site_fract_z
Si Si1 0.184434 0.207999 0.000000
Si Si2 0.185736 0.707253 0.436666
Si Si3 0.882134 0.202190 0.108521
Si Si4 0.500000 0.704864 0.284471
Si Si5 0.185088 0.294277 0.219054
Si Si6 0.000000 0.211730 0.845928
Si Si7 0.120245 0.705730 0.670951
O O1 0.250000 0.250000 0.000000
O O2 0.152001 0.273254 0.944575
O O3 0.182038 0.000000 0.000000
O O4 0.174402 0.772492 0.500000
O O5 0.181198 0.500000 0.438635
O O6 0.250000 0.750000 0.422614
O O7 0.144920 0.772624 0.387827
O O8 0.845236 0.221029 0.164373
O O9 0.943672 0.271350 0.123125
O O10 0.890157 0.000000 0.097066
O O11 0.500000 0.500000 0.281275
O O12 0.500000 0.768501 0.219537
O O13 0.555753 0.759946 0.316573
O O14 0.178774 0.500000 0.216894
O O15 0.250000 0.250000 0.219329
O O16 0.155450 0.228070 0.275689
O O17 0.000000 0.000000 0.845207
O O18 0.127991 0.500000 0.669846
#
# Coordination Sequence:
#
# PCOD9490765 Si02
#       7
#     8  16  16   8  16   8  16
#     4  10  22  37  57  79 107 144 179 220 269 320
#     4   9  18  34  56  81 110 145 183 224 272 323
#     4  10  20  37  57  80 108 140 178 221 268 320
#     4  11  21  35  57  82 107 143 182 225 273 319
#     4  11  22  34  52  79 108 140 176 220 270 320
#     4   9  18  34  57  81 106 135 175 222 267 315
#     4  10  21  36  54  79 110 143 180 223 271 324
#
# _framework density 19.878140999999999
#
# number of rings (size 3 to 8) (size 9 to 14) (size 15 to 20)
#    0.000    2.000    1.818    1.909    0.000    4.000 
#    0.000    2.727    0.000    2.727    0.000    1.909 
#    0.000    0.000    0.000    0.000    0.000    0.000 
#
# Total GULP energy -245706.584320 kJ/mol
# GULP energy per Si atom -5584.240553 kJ/mol
# Density = 1.983290 g / cm^3
# Si number density = 19.878141 Si / 1000 Ang^3
#
#
#
# Elastic Constant Matrix: (Units=GPa)
#
#
# Indices 1 2 3 4 5 6 
#
# 1 201.3113 -12.5532 126.4124 0.0000 0.0000 0.0000
# 2 -12.5532 22.1396 5.3589 0.0000 0.0000 0.0000
# 3 126.4124 5.3589 187.3475 0.0000 0.0000 0.0000
# 4 0.0000 0.0000 0.0000 36.9126 0.0000 0.0000
# 5 0.0000 0.0000 0.0000 0.0000 -23.9598 0.0000
# 6 0.0000 0.0000 0.0000 0.0000 0.0000 -8.6955
#
#
#
# Elastic Compliance Matrix: (Units=1/GPa)
#
#
# Indices 1 2 3 4 5 6 
#
# 1 0.009604 0.007063 -0.006682 0.000000 0.000000 0.000000
# 2 0.007063 0.050677 -0.006215 0.000000 0.000000 0.000000
# 3 -0.006682 -0.006215 0.010024 0.000000 0.000000 0.000000
# 4 0.000000 0.000000 0.000000 0.027091 0.000000 0.000000
# 5 0.000000 0.000000 0.000000 0.000000 -0.041737 0.000000
# 6 0.000000 0.000000 0.000000 0.000000 0.000000 -0.115002
#
#
# Mechanical properties :
#
#
# Convention : Reuss Voigt Hill
#
# Bulk Modulus (GPa) = 17.05435 72.13717 44.59576
# Shear Modulus (GPa) = -177.76125 20.29015 -78.73555
#
# Velocity S-wave (km/s) = -9.46676 3.19835 -6.30040
# Velocity P-wave (km/s) = 10.53066 7.07161 5.51756
#
# Compressibility (1/GPa) = 0.05863608
#
# Stress axis : x y z
#
# Youngs Moduli (GPa) = 104.12375 19.73280 99.75747
#
# Poissons Ratio (x) = -0.13937 0.66661
# Poissons Ratio (y) = -0.73542 0.62002
# Poissons Ratio (z) = 0.69578 0.12264
#
# Static dielectric constant tensor:
#      x y z
#    x 1.679180 0.000000 0.000000 
#    y 0.000000 1.741810 0.000000 
#    z 0.000000 0.000000 1.705640 
# 
# From -- ./inp_files/65270.got.cif
#   From: 2010.05.17/outbox.cif.g08.bks.cpg/sg65_33_cif.got.tgz:65270.got - 2010.06.03 17:01:31.
