data_PCOD9490977
_publ_section_title
;
Structure prediction by ZEFSAII (Michael W. Deem and Ramdas Pophale) SiO2 
 PCOD9490977
Probable space group: C M M M
;
_chemical_formula_sum "Si O2"
_cell_formula_units_Z 64
_cell_length_a 15.372339
_cell_length_b 8.637702
_cell_length_c 24.832433
_cell_angle_alpha 90.000000
_cell_angle_beta 90.000000
_cell_angle_gamma 90.000000
_cell_volume 3297.292255
_symmetry_space_group_name_H-M "C M M M"
_symmetry_group_IT_number 65
_symmetry_cell_setting 'orthorhombic'
loop_
_space_group_symop_operation_xyz
x,y,z
-x,-y,z
x,-y,-z
-x,y,-z
-x,-y,-z
x,y,-z
-x,y,z
x,-y,z
1/2+x,1/2+y,z
1/2-x,1/2-y,z
1/2+x,1/2-y,-z
1/2-x,1/2+y,-z
1/2-x,1/2-y,-z
1/2+x,1/2+y,-z
1/2-x,1/2+y,z
1/2+x,1/2-y,z
loop_
_atom_site_type_symbol
_atom_site_label
_atom_site_fract_x
_atom_site_fract_y
_atom_site_fract_z
Si Si1 0.500000 0.684961 0.306375
Si Si2 0.395158 0.180865 0.000000
Si Si3 0.848860 0.313055 0.618753
Si Si4 0.500000 0.815041 0.185877
Si Si5 0.347846 0.813883 0.500000
Si Si6 0.343250 0.315422 0.115008
O O1 0.500000 0.500000 0.306084
O O2 0.585228 0.746307 0.337601
O O3 0.500000 0.748459 0.245853
O O4 0.361287 0.261312 0.946130
O O5 0.500000 0.188272 0.000000
O O6 0.369298 0.000000 0.000000
O O7 0.846937 0.500000 0.622135
O O8 0.750000 0.250000 0.624530
O O9 0.883323 0.267897 0.558561
O O10 0.583144 0.755147 0.153013
O O11 0.500000 0.000000 0.187119
O O12 0.250000 0.750000 0.500000
O O13 0.346585 0.000000 0.500000
O O14 0.345070 0.500000 0.117740
O O15 0.250000 0.250000 0.131517
#
# Coordination Sequence:
#
# PCOD9490977 Si02
#       6
#     8   8  16   8   8  16
#     4  12  26  43  62  89 121 162 211 258 308 368
#     4  11  22  39  66  98 135 173 209 253 308 366
#     4  10  20  38  62  91 124 162 203 253 309 368
#     4  12  26  47  68  91 122 160 209 264 315 368
#     4   8  16  31  56  87 122 158 198 245 304 367
#     4  12  25  43  68  98 131 168 209 255 310 370
#
# _framework density 19.409866000000001
#
# number of rings (size 3 to 8) (size 9 to 14) (size 15 to 20)
#    0.000    1.125    1.250    6.000    0.000    3.000 
#    0.000    7.500    0.000    0.000    0.000    0.000 
#    0.000    0.000    0.000    0.000    0.000    0.000 
#
# Total GULP energy -178929.628795 kJ/mol
# GULP energy per Si atom -5591.550900 kJ/mol
# Density = 1.936569 g / cm^3
# Si number density = 19.409866 Si / 1000 Ang^3
#
#
#
# Elastic Constant Matrix: (Units=GPa)
#
#
# Indices 1 2 3 4 5 6 
#
# 1 150.9579 70.6217 97.4342 0.0000 0.0000 0.0000
# 2 70.6217 168.0266 78.1014 0.0000 0.0000 0.0000
# 3 97.4342 78.1014 195.5534 0.0000 0.0000 0.0000
# 4 0.0000 0.0000 0.0000 29.0685 0.0000 0.0000
# 5 0.0000 0.0000 0.0000 0.0000 -296.0401 0.0000
# 6 0.0000 0.0000 0.0000 0.0000 0.0000 34.9333
#
#
#
# Elastic Compliance Matrix: (Units=1/GPa)
#
#
# Indices 1 2 3 4 5 6 
#
# 1 0.010519 -0.002438 -0.004268 0.000000 0.000000 0.000000
# 2 -0.002438 0.007873 -0.001930 0.000000 0.000000 0.000000
# 3 -0.004268 -0.001930 0.008011 0.000000 0.000000 0.000000
# 4 0.000000 0.000000 0.000000 0.034402 0.000000 0.000000
# 5 0.000000 0.000000 0.000000 0.000000 -0.003378 0.000000
# 6 0.000000 0.000000 0.000000 0.000000 0.000000 0.028626
#
#
# Mechanical properties :
#
#
# Convention : Reuss Voigt Hill
#
# Bulk Modulus (GPa) = 109.49468 111.87249 110.68359
# Shear Modulus (GPa) = 47.00705 -28.51562 9.24571
#
# Velocity S-wave (km/s) = 4.92653 -3.83708 2.18489
# Velocity P-wave (km/s) = 9.42843 6.17504 7.96952
#
# Compressibility (1/GPa) = 0.00913286
#
# Stress axis : x y z
#
# Youngs Moduli (GPa) = 95.06395 127.01690 124.83134
#
# Poissons Ratio (x) = 0.30961 0.53274
# Poissons Ratio (y) = 0.23172 0.24091
# Poissons Ratio (z) = 0.40570 0.24512
#
# Static dielectric constant tensor:
#      x y z
#    x 1.653690 0.000000 0.000000 
#    y 0.000000 1.646260 0.000000 
#    z 0.000000 0.000000 1.670380 
# 
# From -- ./inp_files/69576.got.cif
#   From: 2010.05.17/outbox.cif.g08.bks.cpg/sg65_35_cif.got.tgz:69576.got - 2010.06.03 17:01:31.
