data_PCOD9490673
_publ_section_title
;
Structure prediction by ZEFSAII (Michael W. Deem and Ramdas Pophale) SiO2 
 PCOD9490673
Probable space group: C M M M
;
_chemical_formula_sum "Si O2"
_cell_formula_units_Z 64
_cell_length_a 36.605384
_cell_length_b 12.340161
_cell_length_c 7.913701
_cell_angle_alpha 90.000000
_cell_angle_beta 90.000000
_cell_angle_gamma 90.000000
_cell_volume 3574.747988
_symmetry_space_group_name_H-M "C M M M"
_symmetry_group_IT_number 65
_symmetry_cell_setting 'orthorhombic'
loop_
_space_group_symop_operation_xyz
x,y,z
-x,-y,z
x,-y,-z
-x,y,-z
-x,-y,-z
x,y,-z
-x,y,z
x,-y,z
1/2+x,1/2+y,z
1/2-x,1/2-y,z
1/2+x,1/2-y,-z
1/2-x,1/2+y,-z
1/2-x,1/2-y,-z
1/2+x,1/2+y,-z
1/2-x,1/2+y,z
1/2+x,1/2-y,z
loop_
_atom_site_type_symbol
_atom_site_label
_atom_site_fract_x
_atom_site_fract_y
_atom_site_fract_z
Si Si1 0.539801 0.624591 0.293850
Si Si2 0.905664 0.300623 0.298720
Si Si3 0.726647 0.865354 0.500000
Si Si4 0.042450 0.500000 0.203279
Si Si5 0.172596 0.372014 0.185831
O O1 0.540092 0.627476 0.500000
O O2 0.500000 0.668091 0.240297
O O3 0.542222 0.500000 0.242961
O O4 0.573489 0.694620 0.234687
O O5 0.899871 0.294540 0.500000
O O6 0.934156 0.397337 0.264385
O O7 0.866328 0.316817 0.217408
O O8 0.750000 0.750000 0.500000
O O9 0.701444 0.854491 0.334073
O O10 0.739115 0.000000 0.500000
O O11 0.000000 0.500000 0.261464
O O12 0.042193 0.500000 0.000000
O O13 0.164348 0.500000 0.187372
O O14 0.186942 0.342545 0.000000
#
# Coordination Sequence:
#
# PCOD9490673 Si02
#       5
#    16  16   8   8  16
#     4   8  15  28  45  67  98 139 188 239 288 335
#     4  11  19  30  52  78 105 140 191 237 279 335
#     4  10  22  42  68  96 122 153 190 232 283 354
#     4  11  23  33  43  69 111 151 189 240 293 331
#     4  10  20  36  59  87 119 154 188 228 281 347
#
# _framework density 17.903359999999999
#
# number of rings (size 3 to 8) (size 9 to 14) (size 15 to 20)
#    0.000    2.125    2.500    2.625    0.000    2.500 
#    0.000    1.250    0.000    4.500    0.000    8.750 
#    0.000    0.000    0.000    0.000    0.000    0.000 
#
# Total GULP energy -178217.222932 kJ/mol
# GULP energy per Si atom -5569.288217 kJ/mol
# Density = 1.786261 g / cm^3
# Si number density = 17.903360 Si / 1000 Ang^3
#
#
#
# Elastic Constant Matrix: (Units=GPa)
#
#
# Indices 1 2 3 4 5 6 
#
# 1 89.1589 56.1401 37.5484 0.0000 0.0000 0.0000
# 2 56.1401 79.7414 21.4166 0.0000 0.0000 0.0000
# 3 37.5484 21.4166 88.5577 0.0000 0.0000 0.0000
# 4 0.0000 0.0000 0.0000 -14.3688 0.0000 0.0000
# 5 0.0000 0.0000 0.0000 0.0000 7.8265 0.0000
# 6 0.0000 0.0000 0.0000 0.0000 0.0000 57.3407
#
#
#
# Elastic Compliance Matrix: (Units=1/GPa)
#
#
# Indices 1 2 3 4 5 6 
#
# 1 0.022969 -0.014497 -0.006233 0.000000 0.000000 0.000000
# 2 -0.014497 0.022561 0.000690 0.000000 0.000000 0.000000
# 3 -0.006233 0.000690 0.013768 0.000000 0.000000 0.000000
# 4 0.000000 0.000000 0.000000 -0.069595 0.000000 0.000000
# 5 0.000000 0.000000 0.000000 0.000000 0.127771 0.000000
# 6 0.000000 0.000000 0.000000 0.000000 0.000000 0.017440
#
#
# Mechanical properties :
#
#
# Convention : Reuss Voigt Hill
#
# Bulk Modulus (GPa) = 52.03044 54.18537 53.10790
# Shear Modulus (GPa) = 27.56361 19.64985 23.60673
#
# Velocity S-wave (km/s) = 3.92800 3.31653 3.63514
# Velocity P-wave (km/s) = 7.04962 6.70798 6.88092
#
# Compressibility (1/GPa) = 0.01921952
#
# Stress axis : x y z
#
# Youngs Moduli (GPa) = 43.53706 44.32393 72.63292
#
# Poissons Ratio (x) = 0.64255 0.45272
# Poissons Ratio (y) = 0.63114 -0.05015
# Poissons Ratio (z) = 0.27136 -0.03060
#
# Static dielectric constant tensor:
#      x y z
#    x 1.602210 0.000000 0.000000 
#    y 0.000000 1.644690 0.000000 
#    z 0.000000 0.000000 1.647910 
# 
# From -- ./inp_files/4973.got.cif
#   From: 2010.05.17/outbox.cif.g08.bks.cpg/sg65_3_cif.got.tgz:4973.got - 2010.06.03 17:01:31.
