data_PCOD9490002
_publ_section_title
;
Structure prediction by ZEFSAII (Michael W. Deem and Ramdas Pophale) SiO2 
 PCOD9490002
Probable space group: C M M M
;
_chemical_formula_sum "Si O2"
_cell_formula_units_Z 80
_cell_length_a 9.100143
_cell_length_b 15.535855
_cell_length_c 26.673390
_cell_angle_alpha 90.000000
_cell_angle_beta 90.000000
_cell_angle_gamma 90.000000
_cell_volume 3771.043925
_symmetry_space_group_name_H-M "C M M M"
_symmetry_group_IT_number 65
_symmetry_cell_setting 'orthorhombic'
loop_
_space_group_symop_operation_xyz
x,y,z
-x,-y,z
x,-y,-z
-x,y,-z
-x,-y,-z
x,y,-z
-x,y,z
x,-y,z
1/2+x,1/2+y,z
1/2-x,1/2-y,z
1/2+x,1/2-y,-z
1/2-x,1/2+y,-z
1/2-x,1/2-y,-z
1/2+x,1/2+y,-z
1/2-x,1/2+y,z
1/2+x,1/2-y,z
loop_
_atom_site_type_symbol
_atom_site_label
_atom_site_fract_x
_atom_site_fract_y
_atom_site_fract_z
Si Si1 0.669086 0.894730 0.500000
Si Si2 0.669271 0.605572 0.398284
Si Si3 0.165502 0.602140 0.099521
Si Si4 0.669572 0.605816 0.000000
Si Si5 0.324435 0.657205 0.199315
Si Si6 0.665316 0.897680 0.700936
O O1 0.752192 0.867492 0.449604
O O2 0.000000 0.633263 0.500000
O O3 0.669044 0.000000 0.500000
O O4 0.500000 0.632899 0.396738
O O5 0.669705 0.500000 0.397845
O O6 0.757063 0.635962 0.349257
O O7 0.151308 0.500000 0.092046
O O8 0.261774 0.614204 0.149080
O O9 0.000000 0.638033 0.105812
O O10 0.246566 0.635676 0.049956
O O11 0.669514 0.500000 0.000000
O O12 0.500000 0.632856 0.000000
O O13 0.500000 0.659340 0.198894
O O14 0.250000 0.750000 0.199122
O O15 0.264024 0.615170 0.250152
O O16 0.500000 0.862123 0.708095
O O17 0.651604 0.000000 0.693931
#
# Coordination Sequence:
#
# PCOD9490002 Si02
#       6
#     8  16  16   8  16  16
#     4   9  15  23  37  61  96 135 170 209 262 317
#     4   9  16  26  42  67  99 134 172 214 261 314
#     4  10  20  36  59  86 115 146 180 219 264 314
#     4   9  17  31  54  85 116 145 180 219 259 307
#     4  12  25  40  57  78 107 142 181 224 271 321
#     4  10  20  35  55  79 107 139 177 221 268 319
#
# _framework density 21.214285
#
# number of rings (size 3 to 8) (size 9 to 14) (size 15 to 20)
#    0.000    2.000    0.000    4.800    0.000    9.600 
#    0.000    0.500    0.000    0.000    0.000    0.700 
#    0.000    0.000    0.000    0.000    0.000    0.000 
#
# Total GULP energy -223505.562955 kJ/mol
# GULP energy per Si atom -5587.639074 kJ/mol
# Density = 2.116600 g / cm^3
# Si number density = 21.214285 Si / 1000 Ang^3
#
#
#
# Elastic Constant Matrix: (Units=GPa)
#
#
# Indices 1 2 3 4 5 6 
#
# 1 256.9513 10.4314 132.4126 0.0000 0.0000 0.0000
# 2 10.4314 15.9268 2.3332 0.0000 0.0000 0.0000
# 3 132.4126 2.3332 222.8482 0.0000 0.0000 0.0000
# 4 0.0000 0.0000 0.0000 -240.1745 0.0000 0.0000
# 5 0.0000 0.0000 0.0000 0.0000 74.6535 0.0000
# 6 0.0000 0.0000 0.0000 0.0000 0.0000 15.8691
#
#
#
# Elastic Compliance Matrix: (Units=1/GPa)
#
#
# Indices 1 2 3 4 5 6 
#
# 1 0.005776 -0.003285 -0.003398 0.000000 0.000000 0.000000
# 2 -0.003285 0.064752 0.001274 0.000000 0.000000 0.000000
# 3 -0.003398 0.001274 0.006493 0.000000 0.000000 0.000000
# 4 0.000000 0.000000 0.000000 -0.004164 0.000000 0.000000
# 5 0.000000 0.000000 0.000000 0.000000 0.013395 0.000000
# 6 0.000000 0.000000 0.000000 0.000000 0.000000 0.063016
#
#
# Mechanical properties :
#
#
# Convention : Reuss Voigt Hill
#
# Bulk Modulus (GPa) = 15.10492 87.34228 51.22360
# Shear Modulus (GPa) = 27.44930 -6.56044 10.44443
#
# Velocity S-wave (km/s) = 3.60099 -1.76045 2.22126
# Velocity P-wave (km/s) = 4.94218 6.09332 5.54769
#
# Compressibility (1/GPa) = 0.06620359
#
# Stress axis : x y z
#
# Youngs Moduli (GPa) = 173.12928 15.44345 154.01606
#
# Poissons Ratio (x) = 0.05074 0.52329
# Poissons Ratio (y) = 0.56879 -0.19624
# Poissons Ratio (z) = 0.58823 -0.01968
#
# Static dielectric constant tensor:
#      x y z
#    x 1.737420 0.000000 0.000000 
#    y 0.000000 1.865710 0.000000 
#    z 0.000000 0.000000 1.807550 
# 
# From -- ./inp_files/72945.got.cif
#   From: 2010.05.17/outbox.cif.g08.bks.cpg/sg65_37_cif.got.tgz:72945.got - 2010.06.03 17:01:31.
