data_PCOD9490267
_publ_section_title
;
Structure prediction by ZEFSAII (Michael W. Deem and Ramdas Pophale) SiO2 
 PCOD9490267
Probable space group: C M M M
;
_chemical_formula_sum "Si O2"
_cell_formula_units_Z 104
_cell_length_a 21.878447
_cell_length_b 27.813421
_cell_length_c 8.995187
_cell_angle_alpha 90.000000
_cell_angle_beta 90.000000
_cell_angle_gamma 90.000000
_cell_volume 5473.701335
_symmetry_space_group_name_H-M "C M M M"
_symmetry_group_IT_number 65
_symmetry_cell_setting 'orthorhombic'
loop_
_space_group_symop_operation_xyz
x,y,z
-x,-y,z
x,-y,-z
-x,y,-z
-x,-y,-z
x,y,-z
-x,y,z
x,-y,z
1/2+x,1/2+y,z
1/2-x,1/2-y,z
1/2+x,1/2-y,-z
1/2-x,1/2+y,-z
1/2-x,1/2-y,-z
1/2+x,1/2+y,-z
1/2-x,1/2+y,z
1/2+x,1/2-y,z
loop_
_atom_site_type_symbol
_atom_site_label
_atom_site_fract_x
_atom_site_fract_y
_atom_site_fract_z
Si Si1 0.065409 0.057902 0.823496
Si Si2 0.314984 0.445857 0.676327
Si Si3 0.092554 0.633034 0.822961
Si Si4 0.500000 0.942290 0.320599
Si Si5 0.932594 0.743731 0.821102
Si Si6 0.191773 0.217734 0.677509
Si Si7 0.777815 0.369506 0.325241
O O1 0.125890 0.078041 0.749652
O O2 0.000000 0.076962 0.768837
O O3 0.064539 0.000000 0.796646
O O4 0.068288 0.064610 0.000000
O O5 0.325724 0.445820 0.500000
O O6 0.311689 0.500000 0.732597
O O7 0.250605 0.421366 0.701143
O O8 0.057325 0.589181 0.742041
O O9 0.068209 0.686555 0.785291
O O10 0.162992 0.636496 0.773776
O O11 0.086017 0.626450 0.000000
O O12 0.500000 0.940322 0.500000
O O13 0.500000 0.000000 0.279898
O O14 0.872286 0.768411 0.752359
O O15 0.000000 0.762735 0.775440
O O16 0.928263 0.747844 0.000000
O O17 0.184168 0.224550 0.500000
O O18 0.250000 0.250000 0.726201
O O19 0.220139 0.165265 0.704301
O O20 0.794069 0.362675 0.500000
#
# Coordination Sequence:
#
# PCOD9490267 Si02
#       7
#    16  16  16   8  16  16  16
#     4   8  14  26  45  68  93 123 163 212 261 311
#     4   9  18  32  50  72 101 140 181 224 275 330
#     4  11  22  38  61  88 116 150 195 242 293 352
#     4  11  25  43  63  89 123 163 205 249 300 355
#     4  10  21  38  59  86 119 152 190 240 299 363
#     4  10  20  35  57  85 112 147 195 243 295 357
#     4  10  21  37  55  81 117 150 190 242 291 350
#
# _framework density 18.999939999999999
#
# number of rings (size 3 to 8) (size 9 to 14) (size 15 to 20)
#    0.000    2.231    2.308    1.154    0.000    4.000 
#    0.000    3.846    0.000    4.615    0.000    0.000 
#    0.000    0.000    0.000    0.000    0.000    0.000 
#
# Total GULP energy -289609.159591 kJ/mol
# GULP energy per Si atom -5569.406915 kJ/mol
# Density = 1.895669 g / cm^3
# Si number density = 18.999940 Si / 1000 Ang^3
#
#
#
# Elastic Constant Matrix: (Units=GPa)
#
#
# Indices 1 2 3 4 5 6 
#
# 1 143.2501 35.1804 43.6000 0.0000 0.0000 0.0000
# 2 35.1804 34.9533 17.2501 0.0000 0.0000 0.0000
# 3 43.6000 17.2501 24.3068 0.0000 0.0000 0.0000
# 4 0.0000 0.0000 0.0000 19.2168 0.0000 0.0000
# 5 0.0000 0.0000 0.0000 0.0000 39.4374 0.0000
# 6 0.0000 0.0000 0.0000 0.0000 0.0000 1.2953
#
#
#
# Elastic Compliance Matrix: (Units=1/GPa)
#
#
# Indices 1 2 3 4 5 6 
#
# 1 0.015564 -0.002904 -0.025856 0.000000 0.000000 0.000000
# 2 -0.002904 0.044573 -0.026423 0.000000 0.000000 0.000000
# 3 -0.025856 -0.026423 0.106271 0.000000 0.000000 0.000000
# 4 0.000000 0.000000 0.000000 0.052038 0.000000 0.000000
# 5 0.000000 0.000000 0.000000 0.000000 0.025357 0.000000
# 6 0.000000 0.000000 0.000000 0.000000 0.000000 0.772051
#
#
# Mechanical properties :
#
#
# Convention : Reuss Voigt Hill
#
# Bulk Modulus (GPa) = 17.84394 43.84125 30.84260
# Shear Modulus (GPa) = 4.36719 19.08852 11.72786
#
# Velocity S-wave (km/s) = 1.51773 3.17308 2.48716
# Velocity P-wave (km/s) = 3.53317 6.04558 4.95138
#
# Compressibility (1/GPa) = 0.05604144
#
# Stress axis : x y z
#
# Youngs Moduli (GPa) = 64.25234 22.43503 9.40986
#
# Poissons Ratio (x) = 0.06516 0.24330
# Poissons Ratio (y) = 0.18661 0.24864
# Poissons Ratio (z) = 1.66130 0.59280
#
# Static dielectric constant tensor:
#      x y z
#    x 1.641320 0.000000 0.000000 
#    y 0.000000 1.798390 0.000000 
#    z 0.000000 0.000000 1.641940 
# 
# From -- ./inp_files/12401.got.cif
#   From: 2010.05.17/outbox.cif.g08.bks.cpg/sg65_7_cif.got.tgz:12401.got - 2010.06.03 17:01:31.
