data_PCOD9490029
_publ_section_title
;
Structure prediction by ZEFSAII (Michael W. Deem and Ramdas Pophale) SiO2 
 PCOD9490029
Probable space group: C M M M
;
_chemical_formula_sum "Si O2"
_cell_formula_units_Z 120
_cell_length_a 23.307308
_cell_length_b 19.133274
_cell_length_c 14.404553
_cell_angle_alpha 90.000000
_cell_angle_beta 90.000000
_cell_angle_gamma 90.000000
_cell_volume 6423.639974
_symmetry_space_group_name_H-M "C M M M"
_symmetry_group_IT_number 65
_symmetry_cell_setting 'orthorhombic'
loop_
_space_group_symop_operation_xyz
x,y,z
-x,-y,z
x,-y,-z
-x,y,-z
-x,-y,-z
x,y,-z
-x,y,z
x,-y,z
1/2+x,1/2+y,z
1/2-x,1/2-y,z
1/2+x,1/2-y,-z
1/2-x,1/2+y,-z
1/2-x,1/2-y,-z
1/2+x,1/2+y,-z
1/2-x,1/2+y,z
1/2+x,1/2-y,z
loop_
_atom_site_type_symbol
_atom_site_label
_atom_site_fract_x
_atom_site_fract_y
_atom_site_fract_z
Si Si1 0.809126 0.576460 0.225042
Si Si2 0.000000 0.419698 0.388073
Si Si3 0.677259 0.423917 0.282105
Si Si4 0.812176 0.716019 0.888216
Si Si5 0.878215 0.640993 0.390201
Si Si6 0.597832 0.423111 0.896792
Si Si7 0.437925 0.269918 0.890905
Si Si8 0.311817 0.281986 0.390156
O O1 0.827322 0.500000 0.190842
O O2 0.742967 0.574597 0.252345
O O3 0.815844 0.638039 0.151347
O O4 0.841032 0.594941 0.320608
O O5 0.943269 0.376773 0.364480
O O6 0.000000 0.500000 0.352376
O O7 0.000000 0.425137 0.500000
O O8 0.663429 0.500000 0.327029
O O9 0.641943 0.420119 0.187154
O O10 0.670585 0.353958 0.341837
O O11 0.750000 0.750000 0.859265
O O12 0.873466 0.749994 0.856095
O O13 0.811786 0.718316 0.000000
O O14 0.869073 0.624683 0.500000
O O15 0.858249 0.720744 0.376702
O O16 0.569715 0.500000 0.892848
O O17 0.560705 0.354020 0.887529
O O18 0.625454 0.418159 0.000000
O O19 0.500000 0.244197 0.851530
O O20 0.437720 0.249443 0.000000
O O21 0.305713 0.295319 0.500000
O O22 0.250000 0.250000 0.358714
#
# Coordination Sequence:
#
# PCOD9490029 Si02
#       8
#    16   8  16  16  16  16  16  16
#     4  11  23  35  54  83 110 144 185 230 282 336
#     4   9  18  36  60  84 114 148 186 239 290 338
#     4  10  21  34  52  79 113 149 182 225 276 331
#     4  10  22  39  59  81 110 151 192 233 282 335
#     4  10  21  37  59  84 112 147 187 234 290 345
#     4   9  18  32  51  78 111 146 181 220 271 327
#     4   9  18  33  54  80 107 140 185 232 279 330
#     4  10  20  35  55  80 109 143 181 226 278 335
#
# _framework density 18.680997999999999
#
# number of rings (size 3 to 8) (size 9 to 14) (size 15 to 20)
#    0.000    2.200    1.333    1.200    3.733    3.200 
#    1.200    4.000    0.000    0.400    0.000    1.867 
#    0.000    2.667    0.000    0.000    0.000    0.000 
#
# Total GULP energy -334135.523787 kJ/mol
# GULP energy per Si atom -5568.925396 kJ/mol
# Density = 1.863848 g / cm^3
# Si number density = 18.680998 Si / 1000 Ang^3
#
#
#
# Elastic Constant Matrix: (Units=GPa)
#
#
# Indices 1 2 3 4 5 6 
#
# 1 130.9830 59.9842 33.3578 0.0000 0.0000 0.0000
# 2 59.9842 147.7344 39.0279 0.0000 0.0000 0.0000
# 3 33.3578 39.0279 56.2366 0.0000 0.0000 0.0000
# 4 0.0000 0.0000 0.0000 19.9501 0.0000 0.0000
# 5 0.0000 0.0000 0.0000 0.0000 25.7079 0.0000
# 6 0.0000 0.0000 0.0000 0.0000 0.0000 -0.7157
#
#
#
# Elastic Compliance Matrix: (Units=1/GPa)
#
#
# Indices 1 2 3 4 5 6 
#
# 1 0.010005 -0.003054 -0.003815 0.000000 0.000000 0.000000
# 2 -0.003054 0.009221 -0.004588 0.000000 0.000000 0.000000
# 3 -0.003815 -0.004588 0.023229 0.000000 0.000000 0.000000
# 4 0.000000 0.000000 0.000000 0.050125 0.000000 0.000000
# 5 0.000000 0.000000 0.000000 0.000000 0.038899 0.000000
# 6 0.000000 0.000000 0.000000 0.000000 0.000000 -1.397143
#
#
# Mechanical properties :
#
#
# Convention : Reuss Voigt Hill
#
# Bulk Modulus (GPa) = 51.17477 66.63264 58.90370
# Shear Modulus (GPa) = -4.04453 22.49406 9.22477
#
# Velocity S-wave (km/s) = -1.47301 3.47380 2.22458
# Velocity P-wave (km/s) = 4.95585 7.19971 6.18047
#
# Compressibility (1/GPa) = 0.01954088
#
# Stress axis : x y z
#
# Youngs Moduli (GPa) = 99.95082 108.44788 43.05044
#
# Poissons Ratio (x) = 0.33125 0.16423
# Poissons Ratio (y) = 0.30530 0.19749
# Poissons Ratio (z) = 0.38129 0.49751
#
# Static dielectric constant tensor:
#      x y z
#    x 1.654310 0.000000 0.000000 
#    y 0.000000 1.689070 0.000000 
#    z 0.000000 0.000000 1.639750 
# 
# From -- ./inp_files/44714.got.cif
#   From: 2010.05.17/outbox.cif.g08.bks.cpg/sg65_23_cif.got.tgz:44714.got - 2010.06.03 17:01:31.
