data_PCOD9490914
_publ_section_title
;
Structure prediction by ZEFSAII (Michael W. Deem and Ramdas Pophale) SiO2 
 PCOD9490914
Probable space group: C M M M
;
_chemical_formula_sum "Si O2"
_cell_formula_units_Z 88
_cell_length_a 22.992368
_cell_length_b 9.965110
_cell_length_c 20.968797
_cell_angle_alpha 90.000000
_cell_angle_beta 90.000000
_cell_angle_gamma 90.000000
_cell_volume 4804.401724
_symmetry_space_group_name_H-M "C M M M"
_symmetry_group_IT_number 65
_symmetry_cell_setting 'orthorhombic'
loop_
_space_group_symop_operation_xyz
x,y,z
-x,-y,z
x,-y,-z
-x,y,-z
-x,-y,-z
x,y,-z
-x,y,z
x,-y,z
1/2+x,1/2+y,z
1/2-x,1/2-y,z
1/2+x,1/2-y,-z
1/2-x,1/2+y,-z
1/2-x,1/2-y,-z
1/2+x,1/2+y,-z
1/2-x,1/2+y,z
1/2+x,1/2-y,z
loop_
_atom_site_type_symbol
_atom_site_label
_atom_site_fract_x
_atom_site_fract_y
_atom_site_fract_z
Si Si1 0.802839 0.500000 0.422414
Si Si2 0.500000 0.646160 0.204324
Si Si3 0.000000 0.343845 0.679156
Si Si4 0.888150 0.847176 0.113549
Si Si5 0.373705 0.238379 0.356580
Si Si6 0.691911 0.661696 0.767438
Si Si7 0.070501 0.661241 0.000000
Si Si8 0.665762 0.500000 0.575255
O O1 0.809884 0.500000 0.500000
O O2 0.832852 0.627299 0.389245
O O3 0.734238 0.500000 0.407413
O O4 0.500000 0.500000 0.237240
O O5 0.500000 0.760421 0.255982
O O6 0.555866 0.653376 0.159532
O O7 0.940147 0.308728 0.643893
O O8 0.000000 0.500000 0.693751
O O9 0.834684 0.822803 0.161635
O O10 0.900481 0.735573 0.060505
O O11 0.883308 0.000000 0.086996
O O12 0.352145 0.277744 0.285383
O O13 0.365102 0.371116 0.396985
O O14 0.699574 0.500000 0.756402
O O15 0.750000 0.750000 0.761492
O O16 0.079154 0.500000 0.000000
O O17 0.000000 0.685002 0.000000
O O18 0.663229 0.500000 0.500000
#
# Coordination Sequence:
#
# PCOD9490914 Si02
#       8
#     8   8   8  16  16  16   8   8
#     4  11  24  45  69  93 129 169 213 266 318 386
#     4  10  20  37  63  91 124 162 206 260 309 371
#     4  12  26  42  60  92 133 174 208 262 329 385
#     4  10  21  39  62  92 124 166 211 253 312 373
#     4  12  24  42  65  98 129 167 216 262 324 385
#     4  11  24  41  65  97 129 163 212 269 322 380
#     4  11  23  37  58  93 132 167 208 260 313 374
#     4  11  24  43  69  97 125 165 215 268 320 376
#
# _framework density 18.316535999999999
#
# number of rings (size 3 to 8) (size 9 to 14) (size 15 to 20)
#    0.000    1.000    4.545    2.455    2.545    3.273 
#    0.000    3.182    0.000    0.000    0.000    0.000 
#    0.000    0.000    0.000    0.000    0.000    0.000 
#
# Total GULP energy -245753.969407 kJ/mol
# GULP energy per Si atom -5585.317487 kJ/mol
# Density = 1.827485 g / cm^3
# Si number density = 18.316536 Si / 1000 Ang^3
#
#
#
# Elastic Constant Matrix: (Units=GPa)
#
#
# Indices 1 2 3 4 5 6 
#
# 1 80.6013 41.0936 28.5137 0.0000 0.0000 0.0000
# 2 41.0936 165.0051 60.9477 0.0000 0.0000 0.0000
# 3 28.5137 60.9477 85.6501 0.0000 0.0000 0.0000
# 4 0.0000 0.0000 0.0000 32.4823 0.0000 0.0000
# 5 0.0000 0.0000 0.0000 0.0000 24.7547 0.0000
# 6 0.0000 0.0000 0.0000 0.0000 0.0000 -89.7917
#
#
#
# Elastic Compliance Matrix: (Units=1/GPa)
#
#
# Indices 1 2 3 4 5 6 
#
# 1 0.014804 -0.002532 -0.003127 0.000000 0.000000 0.000000
# 2 -0.002532 0.008654 -0.005315 0.000000 0.000000 0.000000
# 3 -0.003127 -0.005315 0.016499 0.000000 0.000000 0.000000
# 4 0.000000 0.000000 0.000000 0.030786 0.000000 0.000000
# 5 0.000000 0.000000 0.000000 0.000000 0.040396 0.000000
# 6 0.000000 0.000000 0.000000 0.000000 0.000000 -0.011137
#
#
# Mechanical properties :
#
#
# Convention : Reuss Voigt Hill
#
# Bulk Modulus (GPa) = 55.52835 65.81850 60.67343
# Shear Modulus (GPa) = 39.07685 6.86917 22.97301
#
# Velocity S-wave (km/s) = 4.62391 1.93866 3.54534
# Velocity P-wave (km/s) = 7.67393 6.40493 7.06796
#
# Compressibility (1/GPa) = 0.01800882
#
# Stress axis : x y z
#
# Youngs Moduli (GPa) = 67.55074 115.54914 60.61090
#
# Poissons Ratio (x) = 0.29256 0.18951
# Poissons Ratio (y) = 0.17103 0.32217
# Poissons Ratio (z) = 0.21120 0.61419
#
# Static dielectric constant tensor:
#      x y z
#    x 1.623970 0.000000 0.000000 
#    y 0.000000 1.617980 0.000000 
#    z 0.000000 0.000000 1.613410 
# 
# From -- ./inp_files/59968.got.cif
#   From: 2010.05.17/outbox.cif.g08.bks.cpg/sg65_30_cif.got.tgz:59968.got - 2010.06.03 17:01:31.
