data_PCOD9490061
_publ_section_title
;
Structure prediction by ZEFSAII (Michael W. Deem and Ramdas Pophale) SiO2 
 PCOD9490061
Probable space group: C M M M
;
_chemical_formula_sum "Si O2"
_cell_formula_units_Z 72
_cell_length_a 15.899254
_cell_length_b 8.232499
_cell_length_c 27.518089
_cell_angle_alpha 90.000000
_cell_angle_beta 90.000000
_cell_angle_gamma 90.000000
_cell_volume 3601.858978
_symmetry_space_group_name_H-M "C M M M"
_symmetry_group_IT_number 65
_symmetry_cell_setting 'orthorhombic'
loop_
_space_group_symop_operation_xyz
x,y,z
-x,-y,z
x,-y,-z
-x,y,-z
-x,-y,-z
x,y,-z
-x,y,z
x,-y,z
1/2+x,1/2+y,z
1/2-x,1/2-y,z
1/2+x,1/2-y,-z
1/2-x,1/2+y,-z
1/2-x,1/2-y,-z
1/2+x,1/2+y,-z
1/2-x,1/2+y,z
1/2+x,1/2-y,z
loop_
_atom_site_type_symbol
_atom_site_label
_atom_site_fract_x
_atom_site_fract_y
_atom_site_fract_z
Si Si1 0.340433 0.303965 0.208754
Si Si2 0.599008 0.301823 0.895044
Si Si3 0.500000 0.808085 0.619342
Si Si4 0.102660 0.808802 0.000000
Si Si5 0.157098 0.805622 0.555802
Si Si6 0.000000 0.195349 0.270225
O O1 0.343331 0.500000 0.207721
O O2 0.250000 0.250000 0.227053
O O3 0.354065 0.245552 0.153218
O O4 0.416889 0.245357 0.242235
O O5 0.500000 0.261668 0.889820
O O6 0.602998 0.500000 0.896421
O O7 0.629874 0.240059 0.947746
O O8 0.417388 0.754195 0.589889
O O9 0.500000 0.737446 0.673437
O O10 0.500000 0.000000 0.623049
O O11 0.000000 0.801702 0.000000
O O12 0.124789 0.000000 0.000000
O O13 0.144670 0.747190 0.500000
O O14 0.250000 0.750000 0.571549
O O15 0.155326 0.000000 0.555264
O O16 0.000000 0.000000 0.265847
#
# Coordination Sequence:
#
# PCOD9490061 Si02
#       6
#    16  16   8   8  16   8
#     4  10  20  35  56  78 102 136 179 227 279 336
#     4   8  12  23  44  70  99 131 170 212 261 322
#     4  12  25  39  60  89 121 157 199 245 292 345
#     4   7  10  16  35  68  99 126 161 210 257 309
#     4  10  21  39  64  94 128 164 200 238 282 335
#     4  10  22  41  59  75 104 147 190 237 288 337
#
# _framework density 19.989677
#
# number of rings (size 3 to 8) (size 9 to 14) (size 15 to 20)
#    0.000    2.556    1.111    3.333    0.000    4.444 
#    0.000    2.778    0.000    0.000    0.000    0.000 
#    0.000    2.667    0.000    0.000    0.000    0.000 
#
# Total GULP energy -200868.793899 kJ/mol
# GULP energy per Si atom -5579.688719 kJ/mol
# Density = 1.994418 g / cm^3
# Si number density = 19.989677 Si / 1000 Ang^3
#
#
#
# Elastic Constant Matrix: (Units=GPa)
#
#
# Indices 1 2 3 4 5 6 
#
# 1 151.5200 10.3027 95.5971 0.0000 0.0000 0.0000
# 2 10.3027 10.7845 4.9761 0.0000 0.0000 0.0000
# 3 95.5971 4.9761 135.5238 0.0000 0.0000 0.0000
# 4 0.0000 0.0000 0.0000 7.5369 0.0000 0.0000
# 5 0.0000 0.0000 0.0000 0.0000 99.0394 0.0000
# 6 0.0000 0.0000 0.0000 0.0000 0.0000 23.4006
#
#
#
# Elastic Compliance Matrix: (Units=1/GPa)
#
#
# Indices 1 2 3 4 5 6 
#
# 1 0.012542 -0.008035 -0.008552 0.000000 0.000000 0.000000
# 2 -0.008035 0.099472 0.002016 0.000000 0.000000 0.000000
# 3 -0.008552 0.002016 0.013337 0.000000 0.000000 0.000000
# 4 0.000000 0.000000 0.000000 0.132680 0.000000 0.000000
# 5 0.000000 0.000000 0.000000 0.000000 0.010097 0.000000
# 6 0.000000 0.000000 0.000000 0.000000 0.000000 0.042734
#
#
# Mechanical properties :
#
#
# Convention : Reuss Voigt Hill
#
# Bulk Modulus (GPa) = 10.39416 57.73113 34.06265
# Shear Modulus (GPa) = 13.43820 38.45888 25.94854
#
# Velocity S-wave (km/s) = 2.59561 4.39103 3.60682
# Velocity P-wave (km/s) = 3.76748 7.39266 5.86708
#
# Compressibility (1/GPa) = 0.09620784
#
# Stress axis : x y z
#
# Youngs Moduli (GPa) = 79.73479 10.05309 74.97927
#
# Poissons Ratio (x) = 0.08078 0.64120
# Poissons Ratio (y) = 0.64070 -0.15113
# Poissons Ratio (z) = 0.68186 -0.02026
#
# Static dielectric constant tensor:
#      x y z
#    x 1.675600 0.000000 0.000000 
#    y 0.000000 1.692580 0.000000 
#    z 0.000000 0.000000 1.729840 
# 
# From -- ./inp_files/74666.got.cif
#   From: 2010.05.17/outbox.cif.g08.bks.cpg/sg65_38_cif.got.tgz:74666.got - 2010.06.03 17:01:31.
