data_PCOD9490614
_publ_section_title
;
Structure prediction by ZEFSAII (Michael W. Deem and Ramdas Pophale) SiO2 
 PCOD9490614
Probable space group: C M M M
;
_chemical_formula_sum "Si O2"
_cell_formula_units_Z 104
_cell_length_a 19.237473
_cell_length_b 20.197210
_cell_length_c 14.828963
_cell_angle_alpha 90.000000
_cell_angle_beta 90.000000
_cell_angle_gamma 90.000000
_cell_volume 5761.693953
_symmetry_space_group_name_H-M "C M M M"
_symmetry_group_IT_number 65
_symmetry_cell_setting 'orthorhombic'
loop_
_space_group_symop_operation_xyz
x,y,z
-x,-y,z
x,-y,-z
-x,y,-z
-x,-y,-z
x,y,-z
-x,y,z
x,-y,z
1/2+x,1/2+y,z
1/2-x,1/2-y,z
1/2+x,1/2-y,-z
1/2-x,1/2+y,-z
1/2-x,1/2-y,-z
1/2+x,1/2+y,-z
1/2-x,1/2+y,z
1/2+x,1/2-y,z
loop_
_atom_site_type_symbol
_atom_site_label
_atom_site_fract_x
_atom_site_fract_y
_atom_site_fract_z
Si Si1 0.785831 0.922368 0.284945
Si Si2 0.920665 0.276199 0.736391
Si Si3 0.416225 0.577359 0.000000
Si Si4 0.082421 0.125415 0.200442
Si Si5 0.226952 0.575928 0.097996
Si Si6 0.575615 0.121576 0.899376
Si Si7 0.796723 0.684034 0.395741
O O1 0.868268 0.914805 0.268738
O O2 0.755732 0.894520 0.189672
O O3 0.749811 0.877004 0.359680
O O4 0.768232 0.000000 0.296097
O O5 0.907377 0.201856 0.771672
O O6 0.918341 0.323360 0.823395
O O7 0.864233 0.302151 0.665530
O O8 0.000000 0.278146 0.700320
O O9 0.396325 0.609890 0.096168
O O10 0.395917 0.500000 0.000000
O O11 0.500000 0.579724 0.000000
O O12 0.000000 0.109870 0.208230
O O13 0.250860 0.500000 0.097181
O O14 0.143483 0.576842 0.105341
O O15 0.245203 0.605701 0.000000
O O16 0.500000 0.088259 0.889209
O O17 0.576704 0.151793 0.000000
O O18 0.815881 0.673472 0.500000
O O19 0.750000 0.750000 0.389588
#
# Coordination Sequence:
#
# PCOD9490614 Si02
#       7
#    16  16   8  16  16  16  16
#     4  11  22  37  59  85 115 151 191 237 291 346
#     4  10  20  36  58  85 115 149 194 238 282 338
#     4   9  18  32  50  77 116 164 204 229 268 329
#     4  10  21  35  54  82 118 158 199 237 274 330
#     4   9  18  31  48  75 110 148 190 230 270 324
#     4   9  17  29  49  77 111 149 185 226 273 324
#     4  11  23  42  64  85 110 143 189 246 301 355
#
# _framework density 18.050246999999999
#
# number of rings (size 3 to 8) (size 9 to 14) (size 15 to 20)
#    0.000    2.077    3.077    0.462    2.154    1.846 
#    0.000    1.538    0.000    4.615    0.000    2.154 
#    0.000    0.000    0.000    0.000    0.000    0.000 
#
# Total GULP energy -289723.854600 kJ/mol
# GULP energy per Si atom -5571.612588 kJ/mol
# Density = 1.800916 g / cm^3
# Si number density = 18.050247 Si / 1000 Ang^3
#
#
#
# Elastic Constant Matrix: (Units=GPa)
#
#
# Indices 1 2 3 4 5 6 
#
# 1 93.4425 29.2627 54.3492 0.0000 0.0000 0.0000
# 2 29.2627 73.4939 45.6973 0.0000 0.0000 0.0000
# 3 54.3492 45.6973 115.8861 0.0000 0.0000 0.0000
# 4 0.0000 0.0000 0.0000 19.1947 0.0000 0.0000
# 5 0.0000 0.0000 0.0000 0.0000 20.9159 0.0000
# 6 0.0000 0.0000 0.0000 0.0000 0.0000 17.0522
#
#
#
# Elastic Compliance Matrix: (Units=1/GPa)
#
#
# Indices 1 2 3 4 5 6 
#
# 1 0.014959 -0.002112 -0.006183 0.000000 0.000000 0.000000
# 2 -0.002112 0.018325 -0.006235 0.000000 0.000000 0.000000
# 3 -0.006183 -0.006235 0.013988 0.000000 0.000000 0.000000
# 4 0.000000 0.000000 0.000000 0.052098 0.000000 0.000000
# 5 0.000000 0.000000 0.000000 0.000000 0.047811 0.000000
# 6 0.000000 0.000000 0.000000 0.000000 0.000000 0.058644
#
#
# Mechanical properties :
#
#
# Convention : Reuss Voigt Hill
#
# Bulk Modulus (GPa) = 54.91176 60.16011 57.53594
# Shear Modulus (GPa) = 20.75081 21.66677 21.20879
#
# Velocity S-wave (km/s) = 3.39427 3.46838 3.43153
# Velocity P-wave (km/s) = 6.77120 7.03144 6.90254
#
# Compressibility (1/GPa) = 0.01821104
#
# Stress axis : x y z
#
# Youngs Moduli (GPa) = 66.84783 54.57165 71.49109
#
# Poissons Ratio (x) = 0.11524 0.44203
# Poissons Ratio (y) = 0.14117 0.44578
# Poissons Ratio (z) = 0.41332 0.34028
#
# Static dielectric constant tensor:
#      x y z
#    x 1.682370 0.000000 0.000000 
#    y 0.000000 1.597950 0.000000 
#    z 0.000000 0.000000 1.614870 
# 
# From -- ./inp_files/42828.got.cif
#   From: 2010.05.17/outbox.cif.g08.bks.cpg/sg65_22_cif.got.tgz:42828.got - 2010.06.03 17:01:31.
