data_PCOD9490520
_publ_section_title
;
Structure prediction by ZEFSAII (Michael W. Deem and Ramdas Pophale) SiO2 
 PCOD9490520
Probable space group: C M M M
;
_chemical_formula_sum "Si O2"
_cell_formula_units_Z 88
_cell_length_a 24.197418
_cell_length_b 8.023281
_cell_length_c 23.644071
_cell_angle_alpha 90.000000
_cell_angle_beta 90.000000
_cell_angle_gamma 90.000000
_cell_volume 4590.323407
_symmetry_space_group_name_H-M "C M M M"
_symmetry_group_IT_number 65
_symmetry_cell_setting 'orthorhombic'
loop_
_space_group_symop_operation_xyz
x,y,z
-x,-y,z
x,-y,-z
-x,y,-z
-x,-y,-z
x,y,-z
-x,y,z
x,-y,z
1/2+x,1/2+y,z
1/2-x,1/2-y,z
1/2+x,1/2-y,-z
1/2-x,1/2+y,-z
1/2-x,1/2-y,-z
1/2+x,1/2+y,-z
1/2-x,1/2+y,z
1/2+x,1/2-y,z
loop_
_atom_site_type_symbol
_atom_site_label
_atom_site_fract_x
_atom_site_fract_y
_atom_site_fract_z
Si Si1 0.186387 0.701013 0.437111
Si Si2 0.500000 0.688787 0.705468
Si Si3 0.383340 0.800794 0.329977
Si Si4 0.111822 0.804433 0.881688
Si Si5 0.000000 0.690227 0.172922
Si Si6 0.565272 0.704993 0.000000
Si Si7 0.313878 0.700273 0.219211
O O1 0.169518 0.759886 0.500000
O O2 0.183501 0.500000 0.437200
O O3 0.250000 0.750000 0.428633
O O4 0.150188 0.761059 0.384665
O O5 0.500000 0.500000 0.727264
O O6 0.556288 0.721095 0.672468
O O7 0.500000 0.807261 0.759716
O O8 0.349409 0.762316 0.272695
O O9 0.389484 0.000000 0.333683
O O10 0.054418 0.782026 0.848481
O O11 0.097695 0.736916 0.943993
O O12 0.158774 0.735488 0.839598
O O13 0.123990 0.000000 0.889267
O O14 0.000000 0.500000 0.152079
O O15 0.564382 0.500000 0.000000
O O16 0.500000 0.754353 0.000000
O O17 0.317838 0.500000 0.219229
O O18 0.250000 0.750000 0.224223
#
# Coordination Sequence:
#
# PCOD9490520 Si02
#       7
#    16   8  16  16   8   8  16
#     4   9  19  36  58  84 114 149 189 232 276 325
#     4  12  24  38  56  82 116 151 186 224 279 340
#     4  11  22  37  59  86 115 146 186 232 282 333
#     4  10  20  36  57  81 110 146 187 231 277 332
#     4  12  22  33  55  83 114 146 179 227 281 332
#     4   9  16  30  57  84 106 140 188 230 273 331
#     4  11  23  37  56  80 112 149 188 233 281 331
#
# _framework density 19.170763000000001
#
# number of rings (size 3 to 8) (size 9 to 14) (size 15 to 20)
#    0.000    1.545    2.727    3.273    0.000    3.636 
#    0.000    1.818    0.000    2.727    0.000    0.000 
#    0.000    0.000    0.000    0.000    0.000    0.000 
#
# Total GULP energy -245631.719319 kJ/mol
# GULP energy per Si atom -5582.539075 kJ/mol
# Density = 1.912713 g / cm^3
# Si number density = 19.170763 Si / 1000 Ang^3
#
#
#
# Elastic Constant Matrix: (Units=GPa)
#
#
# Indices 1 2 3 4 5 6 
#
# 1 132.1649 2.1797 80.9007 0.0000 0.0000 0.0000
# 2 2.1797 31.4732 5.9617 0.0000 0.0000 0.0000
# 3 80.9007 5.9617 163.6149 0.0000 0.0000 0.0000
# 4 0.0000 0.0000 0.0000 9.4229 0.0000 0.0000
# 5 0.0000 0.0000 0.0000 0.0000 38.0900 0.0000
# 6 0.0000 0.0000 0.0000 0.0000 0.0000 9.8329
#
#
#
# Elastic Compliance Matrix: (Units=1/GPa)
#
#
# Indices 1 2 3 4 5 6 
#
# 1 0.010853 0.000267 -0.005376 0.000000 0.000000 0.000000
# 2 0.000267 0.032000 -0.001298 0.000000 0.000000 0.000000
# 3 -0.005376 -0.001298 0.008817 0.000000 0.000000 0.000000
# 4 0.000000 0.000000 0.000000 0.106124 0.000000 0.000000
# 5 0.000000 0.000000 0.000000 0.000000 0.026254 0.000000
# 6 0.000000 0.000000 0.000000 0.000000 0.000000 0.101699
#
#
# Mechanical properties :
#
#
# Convention : Reuss Voigt Hill
#
# Bulk Modulus (GPa) = 25.73586 56.14858 40.94222
# Shear Modulus (GPa) = 16.05067 27.34990 21.70029
#
# Velocity S-wave (km/s) = 2.89666 3.78120 3.36809
# Velocity P-wave (km/s) = 4.96399 6.95812 6.04387
#
# Compressibility (1/GPa) = 0.03885629
#
# Stress axis : x y z
#
# Youngs Moduli (GPa) = 92.14404 31.24953 113.41288
#
# Poissons Ratio (x) = -0.00833 0.60969
# Poissons Ratio (y) = -0.02457 0.14720
# Poissons Ratio (z) = 0.49535 0.04056
#
# Static dielectric constant tensor:
#      x y z
#    x 1.633080 0.000000 0.000000 
#    y 0.000000 1.693240 0.000000 
#    z 0.000000 0.000000 1.691120 
# 
# From -- ./inp_files/65216.got.cif
#   From: 2010.05.17/outbox.cif.g08.bks.cpg/sg65_33_cif.got.tgz:65216.got - 2010.06.03 17:01:31.
