data_PCOD9490996
_publ_section_title
;
Structure prediction by ZEFSAII (Michael W. Deem and Ramdas Pophale) SiO2 
 PCOD9490996
Probable space group: C M M M
;
_chemical_formula_sum "Si O2"
_cell_formula_units_Z 66
_cell_length_a 15.015487
_cell_length_b 8.216192
_cell_length_c 28.275727
_cell_angle_alpha 90.000000
_cell_angle_beta 90.000000
_cell_angle_gamma 90.000000
_cell_volume 3488.379951
_symmetry_space_group_name_H-M "C M M M"
_symmetry_group_IT_number 65
_symmetry_cell_setting 'orthorhombic'
loop_
_space_group_symop_operation_xyz
x,y,z
-x,-y,z
x,-y,-z
-x,y,-z
-x,-y,-z
x,y,-z
-x,y,z
x,-y,z
1/2+x,1/2+y,z
1/2-x,1/2-y,z
1/2+x,1/2-y,-z
1/2-x,1/2+y,-z
1/2-x,1/2-y,-z
1/2+x,1/2+y,-z
1/2-x,1/2+y,z
1/2+x,1/2-y,z
loop_
_atom_site_type_symbol
_atom_site_label
_atom_site_fract_x
_atom_site_fract_y
_atom_site_fract_z
Si Si1 0.000000 0.000000 0.000000
Si Si2 0.500000 0.190159 0.075091
Si Si3 0.351699 0.809011 0.500000
Si Si4 0.647879 0.303959 0.853915
Si Si5 0.500000 0.688417 0.430013
Si Si6 0.648506 0.305402 0.254192
Si Si7 0.500000 0.811970 0.674690
O O1 0.000000 0.849131 0.959571
O O2 0.414230 0.215330 0.108550
O O3 0.500000 0.000000 0.057039
O O4 0.250000 0.750000 0.500000
O O5 0.411413 0.757745 0.454925
O O6 0.347532 0.000000 0.500000
O O7 0.640495 0.500000 0.859173
O O8 0.750000 0.250000 0.860195
O O9 0.622065 0.261997 0.799786
O O10 0.500000 0.500000 0.440982
O O11 0.500000 0.715510 0.374189
O O12 0.642976 0.500000 0.257955
O O13 0.750000 0.250000 0.260657
O O14 0.584686 0.228436 0.292842
O O15 0.500000 0.000000 0.661727
#
# Coordination Sequence:
#
# PCOD9490996 Si02
#       7
#     2   8   8  16   8  16   8
#     4  12  26  48  64  90 132 154 210 256 316 364
#     4  12  24  42  69  91 124 164 202 253 314 370
#     4  11  22  41  66  92 118 151 202 253 306 356
#     4  10  20  38  64  94 126 160 207 255 300 363
#     4  11  23  41  62  88 119 157 202 254 305 366
#     4  10  21  37  59  89 125 162 202 250 298 357
#     4  12  24  38  57  85 126 165 205 246 309 365
#
# _framework density 18.919958000000001
#
# number of rings (size 3 to 8) (size 9 to 14) (size 15 to 20)
#    0.000    1.212    1.212    6.364    0.000    6.788 
#    0.000    5.455    0.000    0.000    0.000    0.000 
#    0.000    0.000    0.000    0.000    0.000    0.000 
#
# Total GULP energy -184050.479501 kJ/mol
# GULP energy per Si atom -5577.287258 kJ/mol
# Density = 1.887690 g / cm^3
# Si number density = 18.919958 Si / 1000 Ang^3
#
#
#
# Elastic Constant Matrix: (Units=GPa)
#
#
# Indices 1 2 3 4 5 6 
#
# 1 109.5004 35.4450 59.6435 0.0000 0.0000 0.0000
# 2 35.4450 128.8862 37.2035 0.0000 0.0000 0.0000
# 3 59.6435 37.2035 112.5868 0.0000 0.0000 0.0000
# 4 0.0000 0.0000 0.0000 29.1198 0.0000 0.0000
# 5 0.0000 0.0000 0.0000 0.0000 -24.4789 0.0000
# 6 0.0000 0.0000 0.0000 0.0000 0.0000 37.2958
#
#
#
# Elastic Compliance Matrix: (Units=1/GPa)
#
#
# Indices 1 2 3 4 5 6 
#
# 1 0.013196 -0.001781 -0.006402 0.000000 0.000000 0.000000
# 2 -0.001781 0.008817 -0.001970 0.000000 0.000000 0.000000
# 3 -0.006402 -0.001970 0.012925 0.000000 0.000000 0.000000
# 4 0.000000 0.000000 0.000000 0.034341 0.000000 0.000000
# 5 0.000000 0.000000 0.000000 0.000000 -0.040851 0.000000
# 6 0.000000 0.000000 0.000000 0.000000 0.000000 0.026813
#
#
# Mechanical properties :
#
#
# Convention : Reuss Voigt Hill
#
# Bulk Modulus (GPa) = 68.34628 68.39528 68.37078
# Shear Modulus (GPa) = 62.17062 22.96608 42.56835
#
# Velocity S-wave (km/s) = 5.73857 3.48782 4.74848
# Velocity P-wave (km/s) = 8.95045 7.24211 8.14121
#
# Compressibility (1/GPa) = 0.01463137
#
# Stress axis : x y z
#
# Youngs Moduli (GPa) = 75.78002 113.41390 77.37167
#
# Poissons Ratio (x) = 0.20200 0.49535
# Poissons Ratio (y) = 0.13497 0.15243
# Poissons Ratio (z) = 0.48516 0.22343
#
# Static dielectric constant tensor:
#      x y z
#    x 1.608920 0.000000 0.000000 
#    y 0.000000 1.659820 0.000000 
#    z 0.000000 0.000000 1.640650 
# 
# From -- ./inp_files/74567.got.cif
#   From: 2010.05.17/outbox.cif.g08.bks.cpg/sg65_38_cif.got.tgz:74567.got - 2010.06.03 17:01:31.
