data_PCOD9490259
_publ_section_title
;
Structure prediction by ZEFSAII (Michael W. Deem and Ramdas Pophale) SiO2 
 PCOD9490259
Probable space group: C M M M
;
_chemical_formula_sum "Si O2"
_cell_formula_units_Z 104
_cell_length_a 28.105959
_cell_length_b 21.617423
_cell_length_c 9.021023
_cell_angle_alpha 90.000000
_cell_angle_beta 90.000000
_cell_angle_gamma 90.000000
_cell_volume 5480.978762
_symmetry_space_group_name_H-M "C M M M"
_symmetry_group_IT_number 65
_symmetry_cell_setting 'orthorhombic'
loop_
_space_group_symop_operation_xyz
x,y,z
-x,-y,z
x,-y,-z
-x,y,-z
-x,-y,-z
x,y,-z
-x,y,z
x,-y,z
1/2+x,1/2+y,z
1/2-x,1/2-y,z
1/2+x,1/2-y,-z
1/2-x,1/2+y,-z
1/2-x,1/2-y,-z
1/2+x,1/2+y,-z
1/2-x,1/2+y,z
1/2+x,1/2-y,z
loop_
_atom_site_type_symbol
_atom_site_label
_atom_site_fract_x
_atom_site_fract_y
_atom_site_fract_z
Si Si1 0.554695 0.428060 0.820302
Si Si2 0.000000 0.427644 0.823917
Si Si3 0.329687 0.797211 0.827398
Si Si4 0.911052 0.626651 0.665476
Si Si5 0.746254 0.371938 0.323804
Si Si6 0.352149 0.348576 0.173435
Si Si7 0.773442 0.500000 0.831674
Si Si8 0.144186 0.500000 0.656075
O O1 0.500000 0.412989 0.771476
O O2 0.564858 0.500000 0.776061
O O3 0.597430 0.380295 0.780586
O O4 0.553487 0.427578 0.000000
O O5 0.044197 0.388442 0.765381
O O6 0.000000 0.500000 0.769126
O O7 0.000000 0.430618 0.000000
O O8 0.371880 0.831680 0.743289
O O9 0.280183 0.819135 0.750159
O O10 0.345777 0.725650 0.823479
O O11 0.325720 0.815475 0.000000
O O12 0.923476 0.649525 0.500000
O O13 0.886564 0.560498 0.649810
O O14 0.752923 0.369503 0.500000
O O15 0.691188 0.367698 0.278400
O O16 0.760519 0.437751 0.254409
O O17 0.343939 0.367327 0.000000
O O18 0.829983 0.500000 0.813282
O O19 0.756537 0.500000 0.000000
O O20 0.173825 0.500000 0.500000
#
# Coordination Sequence:
#
# PCOD9490259 Si02
#       8
#    16   8  16  16  16  16   8   8
#     4   8  15  32  61  94 123 152 193 245 304 365
#     4  11  23  37  57  85 117 151 198 255 310 363
#     4  11  23  40  59  85 122 163 208 253 301 364
#     4  11  22  38  60  82 113 155 202 251 306 362
#     4  12  25  40  60  88 123 162 206 252 305 364
#     4  10  22  39  61  92 124 159 202 251 302 361
#     4  12  24  38  61  89 119 155 197 249 304 357
#     4  10  20  35  57  84 115 151 193 247 302 356
#
# _framework density 18.974713000000001
#
# number of rings (size 3 to 8) (size 9 to 14) (size 15 to 20)
#    0.000    1.462    2.308    4.154    1.077    4.000 
#    1.385    0.000    0.000    0.462    0.000    1.077 
#    0.000    0.000    0.000    0.000    0.000    0.000 
#
# Total GULP energy -289674.351123 kJ/mol
# GULP energy per Si atom -5570.660599 kJ/mol
# Density = 1.893153 g / cm^3
# Si number density = 18.974713 Si / 1000 Ang^3
#
#
#
# Elastic Constant Matrix: (Units=GPa)
#
#
# Indices 1 2 3 4 5 6 
#
# 1 132.1848 46.4067 48.2919 0.0000 0.0000 0.0000
# 2 46.4067 71.8366 34.4625 0.0000 0.0000 0.0000
# 3 48.2919 34.4625 111.4734 0.0000 0.0000 0.0000
# 4 0.0000 0.0000 0.0000 351.3782 0.0000 0.0000
# 5 0.0000 0.0000 0.0000 0.0000 60.2484 0.0000
# 6 0.0000 0.0000 0.0000 0.0000 0.0000 21.6327
#
#
#
# Elastic Compliance Matrix: (Units=1/GPa)
#
#
# Indices 1 2 3 4 5 6 
#
# 1 0.010519 -0.005412 -0.002884 0.000000 0.000000 0.000000
# 2 -0.005412 0.019129 -0.003569 0.000000 0.000000 0.000000
# 3 -0.002884 -0.003569 0.011324 0.000000 0.000000 0.000000
# 4 0.000000 0.000000 0.000000 0.002846 0.000000 0.000000
# 5 0.000000 0.000000 0.000000 0.000000 0.016598 0.000000
# 6 0.000000 0.000000 0.000000 0.000000 0.000000 0.046226
#
#
# Mechanical properties :
#
#
# Convention : Reuss Voigt Hill
#
# Bulk Modulus (GPa) = 57.99999 63.75746 60.87873
# Shear Modulus (GPa) = 36.73290 99.07410 67.90350
#
# Velocity S-wave (km/s) = 4.40464 7.23375 5.98866
# Velocity P-wave (km/s) = 7.51673 10.17073 8.94273
#
# Compressibility (1/GPa) = 0.01724138
#
# Stress axis : x y z
#
# Youngs Moduli (GPa) = 95.06975 52.27731 88.31167
#
# Poissons Ratio (x) = 0.28290 0.25467
# Poissons Ratio (y) = 0.51448 0.31522
# Poissons Ratio (z) = 0.27416 0.18660
#
# Static dielectric constant tensor:
#      x y z
#    x 1.608240 0.000000 0.000000 
#    y 0.000000 1.239440 0.000000 
#    z 0.000000 0.000000 1.682040 
# 
# From -- ./inp_files/16568.got.cif
#   From: 2010.05.17/outbox.cif.g08.bks.cpg/sg65_9_cif.got.tgz:16568.got - 2010.06.03 17:01:31.
