data_PCOD9490855
_publ_section_title
;
Structure prediction by ZEFSAII (Michael W. Deem and Ramdas Pophale) SiO2 
 PCOD9490855
Probable space group: C M M M
;
_chemical_formula_sum "Si O2"
_cell_formula_units_Z 72
_cell_length_a 15.843759
_cell_length_b 8.614889
_cell_length_c 28.769694
_cell_angle_alpha 90.000000
_cell_angle_beta 90.000000
_cell_angle_gamma 90.000000
_cell_volume 3926.839550
_symmetry_space_group_name_H-M "C M M M"
_symmetry_group_IT_number 65
_symmetry_cell_setting 'orthorhombic'
loop_
_space_group_symop_operation_xyz
x,y,z
-x,-y,z
x,-y,-z
-x,y,-z
-x,-y,-z
x,y,-z
-x,y,z
x,-y,z
1/2+x,1/2+y,z
1/2-x,1/2-y,z
1/2+x,1/2-y,-z
1/2-x,1/2+y,-z
1/2-x,1/2-y,-z
1/2+x,1/2+y,-z
1/2-x,1/2+y,z
1/2+x,1/2-y,z
loop_
_atom_site_type_symbol
_atom_site_label
_atom_site_fract_x
_atom_site_fract_y
_atom_site_fract_z
Si Si1 0.841297 0.313022 0.218881
Si Si2 0.000000 0.811966 0.615549
Si Si3 0.000000 0.186144 0.945999
Si Si4 0.158332 0.187270 0.446356
Si Si5 0.657933 0.813651 0.111042
Si Si6 0.000000 0.311945 0.719683
O O1 0.838815 0.500000 0.219826
O O2 0.750000 0.250000 0.233169
O O3 0.856345 0.266836 0.165094
O O4 0.916934 0.260883 0.252014
O O5 0.083159 0.761426 0.587217
O O6 0.000000 0.749703 0.667585
O O7 0.000000 0.000000 0.616498
O O8 0.917004 0.249334 0.920334
O O9 0.000000 0.000000 0.943671
O O10 0.000000 0.233410 0.000000
O O11 0.142419 0.235189 0.500000
O O12 0.250000 0.250000 0.432515
O O13 0.160645 0.000000 0.445686
O O14 0.750000 0.750000 0.097318
O O15 0.658516 0.000000 0.108879
O O16 0.000000 0.500000 0.718911
#
# Coordination Sequence:
#
# PCOD9490855 Si02
#       6
#    16   8   8  16  16   8
#     4   9  19  36  57  80 105 136 175 218 262 310
#     4  10  21  35  51  74 104 137 172 208 253 309
#     4  11  24  39  55  80 114 149 184 222 267 321
#     4   9  18  34  55  76  99 130 169 213 258 304
#     4  10  20  37  61  85 109 140 181 227 273 320
#     4  10  21  36  52  74 108 143 172 208 258 310
#
# _framework density 18.335356000000001
#
# number of rings (size 3 to 8) (size 9 to 14) (size 15 to 20)
#    0.000    2.333    0.000    2.000    0.000    8.000 
#    0.000    5.556    0.000    3.333    0.000    0.000 
#    0.000    0.000    0.000    0.000    0.000    0.000 
#
# Total GULP energy -200988.716613 kJ/mol
# GULP energy per Si atom -5583.019906 kJ/mol
# Density = 1.829362 g / cm^3
# Si number density = 18.335356 Si / 1000 Ang^3
#
#
#
# Elastic Constant Matrix: (Units=GPa)
#
#
# Indices 1 2 3 4 5 6 
#
# 1 218.3665 40.6490 141.0604 0.0000 0.0000 0.0000
# 2 40.6490 19.3222 32.2439 0.0000 0.0000 0.0000
# 3 141.0604 32.2439 131.9265 0.0000 0.0000 0.0000
# 4 0.0000 0.0000 0.0000 29.6723 0.0000 0.0000
# 5 0.0000 0.0000 0.0000 0.0000 -10.3996 0.0000
# 6 0.0000 0.0000 0.0000 0.0000 0.0000 35.6385
#
#
#
# Elastic Compliance Matrix: (Units=1/GPa)
#
#
# Indices 1 2 3 4 5 6 
#
# 1 0.015574 -0.008402 -0.014599 0.000000 0.000000 0.000000
# 2 -0.008402 0.091934 -0.013486 0.000000 0.000000 0.000000
# 3 -0.014599 -0.013486 0.026485 0.000000 0.000000 0.000000
# 4 0.000000 0.000000 0.000000 0.033701 0.000000 0.000000
# 5 0.000000 0.000000 0.000000 0.000000 -0.096158 0.000000
# 6 0.000000 0.000000 0.000000 0.000000 0.000000 0.028060
#
#
# Mechanical properties :
#
#
# Convention : Reuss Voigt Hill
#
# Bulk Modulus (GPa) = 16.38790 88.61354 52.50072
# Shear Modulus (GPa) = 25.91885 21.35971 23.63928
#
# Velocity S-wave (km/s) = 3.76387 3.41683 3.59454
# Velocity P-wave (km/s) = 5.27695 8.00004 6.77668
#
# Compressibility (1/GPa) = 0.06102062
#
# Stress axis : x y z
#
# Youngs Moduli (GPa) = 64.20957 10.87736 37.75666
#
# Poissons Ratio (x) = 0.09139 0.55120
# Poissons Ratio (y) = 0.53950 0.50917
# Poissons Ratio (z) = 0.93738 0.14669
#
# Static dielectric constant tensor:
#      x y z
#    x 1.604330 0.000000 0.000000 
#    y 0.000000 1.627050 0.000000 
#    z 0.000000 0.000000 1.611360 
# 
# From -- ./inp_files/72603.got.cif
#   From: 2010.05.17/outbox.cif.g08.bks.cpg/sg65_37_cif.got.tgz:72603.got - 2010.06.03 17:01:31.
