data_PCOD9490025
_publ_section_title
;
Structure prediction by ZEFSAII (Michael W. Deem and Ramdas Pophale) SiO2 
 PCOD9490025
Probable space group: C M M M
;
_chemical_formula_sum "Si O2"
_cell_formula_units_Z 72
_cell_length_a 7.515632
_cell_length_b 15.489643
_cell_length_c 26.888697
_cell_angle_alpha 90.000000
_cell_angle_beta 90.000000
_cell_angle_gamma 90.000000
_cell_volume 3130.233050
_symmetry_space_group_name_H-M "C M M M"
_symmetry_group_IT_number 65
_symmetry_cell_setting 'orthorhombic'
loop_
_space_group_symop_operation_xyz
x,y,z
-x,-y,z
x,-y,-z
-x,y,-z
-x,-y,-z
x,y,-z
-x,y,z
x,-y,z
1/2+x,1/2+y,z
1/2-x,1/2-y,z
1/2+x,1/2-y,-z
1/2-x,1/2+y,-z
1/2-x,1/2-y,-z
1/2+x,1/2+y,-z
1/2-x,1/2+y,z
1/2+x,1/2-y,z
loop_
_atom_site_type_symbol
_atom_site_label
_atom_site_fract_x
_atom_site_fract_y
_atom_site_fract_z
Si Si1 0.787051 0.895218 0.446679
Si Si2 0.781677 0.500000 0.943012
Si Si3 0.787661 0.654758 0.873755
Si Si4 0.212970 0.400714 0.767086
Si Si5 0.712891 0.400332 0.340639
O O1 0.714064 0.864218 0.500000
O O2 0.718885 0.862662 0.393127
O O3 0.000000 0.880360 0.447964
O O4 0.763839 0.000000 0.445611
O O5 0.721703 0.582634 0.911496
O O6 0.000000 0.500000 0.943756
O O7 0.723304 0.500000 0.000000
O O8 0.750000 0.750000 0.892056
O O9 0.718407 0.643598 0.817221
O O10 0.000000 0.643316 0.870995
O O11 0.279809 0.500000 0.767368
O O12 0.251401 0.360318 0.713179
O O13 0.000000 0.404104 0.770314
O O14 0.500000 0.404349 0.345233
O O15 0.779675 0.500000 0.337627
#
# Coordination Sequence:
#
# PCOD9490025 Si02
#       5
#    16   8  16  16  16
#     4   7   9  14  25  43  71 107 145 188 239 291
#     4   9  18  36  61  83 107 143 180 209 246 304
#     4  10  20  35  55  80 107 138 176 214 254 302
#     4   9  16  28  45  63  90 128 165 199 242 301
#     4   8  13  20  33  56  82 111 154 203 246 289
#
# _framework density 23.001483
#
# number of rings (size 3 to 8) (size 9 to 14) (size 15 to 20)
#    0.000    3.444    1.111    2.000    0.000    1.333 
#    0.000    0.556    0.000    1.333    0.000    4.667 
#    0.000    0.889    0.000    2.000    0.000    5.333 
#
# Total GULP energy -200655.168248 kJ/mol
# GULP energy per Si atom -5573.754674 kJ/mol
# Density = 2.294913 g / cm^3
# Si number density = 23.001483 Si / 1000 Ang^3
#
#
#
# Elastic Constant Matrix: (Units=GPa)
#
#
# Indices 1 2 3 4 5 6 
#
# 1 60.1993 -3.5686 12.8652 0.0000 0.0000 0.0000
# 2 -3.5686 90.9631 78.2665 0.0000 0.0000 0.0000
# 3 12.8652 78.2665 260.7556 0.0000 0.0000 0.0000
# 4 0.0000 0.0000 0.0000 -97.5397 0.0000 0.0000
# 5 0.0000 0.0000 0.0000 0.0000 10.7097 0.0000
# 6 0.0000 0.0000 0.0000 0.0000 0.0000 4.9733
#
#
#
# Elastic Compliance Matrix: (Units=1/GPa)
#
#
# Indices 1 2 3 4 5 6 
#
# 1 0.017022 0.001875 -0.001403 0.000000 0.000000 0.000000
# 2 0.001875 0.015028 -0.004603 0.000000 0.000000 0.000000
# 3 -0.001403 -0.004603 0.005286 0.000000 0.000000 0.000000
# 4 0.000000 0.000000 0.000000 -0.010252 0.000000 0.000000
# 5 0.000000 0.000000 0.000000 0.000000 0.093373 0.000000
# 6 0.000000 0.000000 0.000000 0.000000 0.000000 0.201073
#
#
# Mechanical properties :
#
#
# Convention : Reuss Voigt Hill
#
# Bulk Modulus (GPa) = 34.39533 65.22715 49.81124
# Shear Modulus (GPa) = 14.72828 5.25232 9.99030
#
# Velocity S-wave (km/s) = 2.53320 1.51275 2.08633
# Velocity P-wave (km/s) = 4.85202 5.60987 5.24465
#
# Compressibility (1/GPa) = 0.02907371
#
# Stress axis : x y z
#
# Youngs Moduli (GPa) = 58.74634 66.54437 189.18523
#
# Poissons Ratio (x) = -0.12474 0.26533
# Poissons Ratio (y) = -0.11012 0.87083
# Poissons Ratio (z) = 0.08239 0.30631
#
# Static dielectric constant tensor:
#      x y z
#    x 1.893950 0.000000 0.000000 
#    y 0.000000 1.853340 0.000000 
#    z 0.000000 0.000000 1.920420 
# 
# From -- ./inp_files/72510.got.cif
#   From: 2010.05.17/outbox.cif.g08.bks.cpg/sg65_37_cif.got.tgz:72510.got - 2010.06.03 17:01:31.
