data_PCOD9490732
_publ_section_title
;
Structure prediction by ZEFSAII (Michael W. Deem and Ramdas Pophale) SiO2 
 PCOD9490732
Probable space group: C M M M
;
_chemical_formula_sum "Si O2"
_cell_formula_units_Z 88
_cell_length_a 25.799148
_cell_length_b 15.327688
_cell_length_c 11.920336
_cell_angle_alpha 90.000000
_cell_angle_beta 90.000000
_cell_angle_gamma 90.000000
_cell_volume 4713.793059
_symmetry_space_group_name_H-M "C M M M"
_symmetry_group_IT_number 65
_symmetry_cell_setting 'orthorhombic'
loop_
_space_group_symop_operation_xyz
x,y,z
-x,-y,z
x,-y,-z
-x,y,-z
-x,-y,-z
x,y,-z
-x,y,z
x,-y,z
1/2+x,1/2+y,z
1/2-x,1/2-y,z
1/2+x,1/2-y,-z
1/2-x,1/2+y,-z
1/2-x,1/2-y,-z
1/2+x,1/2+y,-z
1/2-x,1/2+y,z
1/2+x,1/2-y,z
loop_
_atom_site_type_symbol
_atom_site_label
_atom_site_fract_x
_atom_site_fract_y
_atom_site_fract_z
Si Si1 0.128797 0.334681 0.714698
Si Si2 0.297222 0.500000 0.863765
Si Si3 0.612664 0.398698 0.500000
Si Si4 0.083362 0.000000 0.134256
Si Si5 0.811865 0.258353 0.500000
Si Si6 0.225419 0.657396 0.864991
Si Si7 0.941069 0.167094 0.274918
Si Si8 0.938435 0.500000 0.635578
O O1 0.164130 0.307421 0.607922
O O2 0.169621 0.357649 0.811325
O O3 0.095611 0.249542 0.749596
O O4 0.090939 0.414147 0.682136
O O5 0.356396 0.500000 0.828702
O O6 0.265840 0.584328 0.826523
O O7 0.297686 0.500000 0.000000
O O8 0.625361 0.500000 0.500000
O O9 0.663055 0.337878 0.500000
O O10 0.579272 0.374100 0.390892
O O11 0.060917 0.910862 0.184722
O O12 0.079352 0.000000 0.000000
O O13 0.750000 0.250000 0.500000
O O14 0.250000 0.750000 0.832635
O O15 0.221604 0.654683 0.000000
O O16 0.000000 0.197506 0.287808
O O17 0.934195 0.500000 0.500000
O O18 0.000000 0.500000 0.663225
#
# Coordination Sequence:
#
# PCOD9490732 Si02
#       8
#    16   8   8   8   8  16  16   8
#     4  11  22  40  60  89 123 154 202 254 306 363
#     4   9  19  36  56  82 111 148 196 235 277 338
#     4  10  21  40  59  83 111 152 201 241 278 345
#     4  11  23  38  58  89 127 156 193 244 297 364
#     4  10  22  38  56  87 125 157 191 242 308 369
#     4  10  20  36  61  88 116 157 200 240 290 356
#     4  11  23  38  60  85 115 156 199 244 294 346
#     4  11  23  42  65  89 118 158 212 266 315 371
#
# _framework density 18.668616
#
# number of rings (size 3 to 8) (size 9 to 14) (size 15 to 20)
#    0.000    1.545    1.818    3.273    0.000    4.727 
#    1.636    0.000    0.000    2.182    0.000    0.000 
#    0.000    0.000    0.000    0.000    0.000    0.000 
#
# Total GULP energy -245832.378440 kJ/mol
# GULP energy per Si atom -5587.099510 kJ/mol
# Density = 1.862613 g / cm^3
# Si number density = 18.668616 Si / 1000 Ang^3
#
#
#
# Elastic Constant Matrix: (Units=GPa)
#
#
# Indices 1 2 3 4 5 6 
#
# 1 152.1939 44.7656 25.6108 0.0000 0.0000 0.0000
# 2 44.7656 95.2055 9.3827 0.0000 0.0000 0.0000
# 3 25.6108 9.3827 45.0749 0.0000 0.0000 0.0000
# 4 0.0000 0.0000 0.0000 -48.5371 0.0000 0.0000
# 5 0.0000 0.0000 0.0000 0.0000 15.7287 0.0000
# 6 0.0000 0.0000 0.0000 0.0000 0.0000 28.8253
#
#
#
# Elastic Compliance Matrix: (Units=1/GPa)
#
#
# Indices 1 2 3 4 5 6 
#
# 1 0.008267 -0.003496 -0.003969 0.000000 0.000000 0.000000
# 2 -0.003496 0.012202 -0.000554 0.000000 0.000000 0.000000
# 3 -0.003969 -0.000554 0.024556 0.000000 0.000000 0.000000
# 4 0.000000 0.000000 0.000000 -0.020603 0.000000 0.000000
# 5 0.000000 0.000000 0.000000 0.000000 0.063578 0.000000
# 6 0.000000 0.000000 0.000000 0.000000 0.000000 0.034692
#
#
# Mechanical properties :
#
#
# Convention : Reuss Voigt Hill
#
# Bulk Modulus (GPa) = 34.49841 50.22140 42.35990
# Shear Modulus (GPa) = 33.69463 13.38438 23.53950
#
# Velocity S-wave (km/s) = 4.25300 2.68049 3.55479
# Velocity P-wave (km/s) = 6.52969 6.04483 6.29193
#
# Compressibility (1/GPa) = 0.02898685
#
# Stress axis : x y z
#
# Youngs Moduli (GPa) = 120.96629 81.95439 40.72349
#
# Poissons Ratio (x) = 0.28650 0.16165
# Poissons Ratio (y) = 0.42288 0.02255
# Poissons Ratio (z) = 0.48016 0.04537
#
# Static dielectric constant tensor:
#      x y z
#    x 1.614350 0.000000 0.000000 
#    y 0.000000 1.621480 0.000000 
#    z 0.000000 0.000000 1.643970 
# 
# From -- ./inp_files/30610.got.cif
#   From: 2010.05.17/outbox.cif.g08.bks.cpg/sg65_16_cif.got.tgz:30610.got - 2010.06.03 17:01:31.
