data_PCOD9490870
_publ_section_title
;
Structure prediction by ZEFSAII (Michael W. Deem and Ramdas Pophale) SiO2 
 PCOD9490870
Probable space group: C M M M
;
_chemical_formula_sum "Si O2"
_cell_formula_units_Z 48
_cell_length_a 8.642967
_cell_length_b 15.891485
_cell_length_c 17.945337
_cell_angle_alpha 90.000000
_cell_angle_beta 90.000000
_cell_angle_gamma 90.000000
_cell_volume 2464.784508
_symmetry_space_group_name_H-M "C M M M"
_symmetry_group_IT_number 65
_symmetry_cell_setting 'orthorhombic'
loop_
_space_group_symop_operation_xyz
x,y,z
-x,-y,z
x,-y,-z
-x,y,-z
-x,-y,-z
x,y,-z
-x,y,z
x,-y,z
1/2+x,1/2+y,z
1/2-x,1/2-y,z
1/2+x,1/2-y,-z
1/2-x,1/2+y,-z
1/2-x,1/2-y,-z
1/2+x,1/2+y,-z
1/2-x,1/2+y,z
1/2+x,1/2-y,z
loop_
_atom_site_type_symbol
_atom_site_label
_atom_site_fract_x
_atom_site_fract_y
_atom_site_fract_z
Si Si1 0.188463 0.500000 0.914524
Si Si2 0.314019 0.845528 0.810062
Si Si3 0.828101 0.598799 0.500000
Si Si4 0.184125 0.843890 0.653932
O O1 0.234631 0.585551 0.871470
O O2 0.000000 0.500000 0.914295
O O3 0.240997 0.500000 0.000000
O O4 0.500000 0.839782 0.808816
O O5 0.250000 0.750000 0.821372
O O6 0.256350 0.880048 0.729855
O O7 0.847223 0.500000 0.500000
O O8 0.738722 0.619662 0.424476
O O9 0.000000 0.639843 0.500000
O O10 0.250000 0.750000 0.653366
O O11 0.000000 0.845357 0.659410
#
# Coordination Sequence:
#
# PCOD9490870 Si02
#       4
#     8  16   8  16
#     4   9  20  38  61  88 119 156 195 237 294 363
#     4  10  20  37  61  88 118 156 199 243 295 352
#     4  11  24  39  56  81 115 153 194 237 288 343
#     4  11  22  38  59  83 114 151 194 240 290 342
#
# _framework density 19.474319000000001
#
# number of rings (size 3 to 8) (size 9 to 14) (size 15 to 20)
#    0.000    1.667    0.000    7.000    2.333    2.000 
#    0.000    2.500    0.000    7.000    0.000    0.000 
#    0.000    0.000    0.000    0.000    0.000    0.000 
#
# Total GULP energy -133931.154701 kJ/mol
# GULP energy per Si atom -5580.464779 kJ/mol
# Density = 1.942999 g / cm^3
# Si number density = 19.474319 Si / 1000 Ang^3
#
#
#
# Elastic Constant Matrix: (Units=GPa)
#
#
# Indices 1 2 3 4 5 6 
#
# 1 114.6641 33.1400 54.0120 0.0000 0.0000 0.0000
# 2 33.1400 86.2163 86.6671 0.0000 0.0000 0.0000
# 3 54.0120 86.6671 209.6181 0.0000 0.0000 0.0000
# 4 0.0000 0.0000 0.0000 43.4865 0.0000 0.0000
# 5 0.0000 0.0000 0.0000 0.0000 32.1715 0.0000
# 6 0.0000 0.0000 0.0000 0.0000 0.0000 19.4677
#
#
#
# Elastic Compliance Matrix: (Units=1/GPa)
#
#
# Indices 1 2 3 4 5 6 
#
# 1 0.010160 -0.002180 -0.001717 0.000000 0.000000 0.000000
# 2 -0.002180 0.020315 -0.007838 0.000000 0.000000 0.000000
# 3 -0.001717 -0.007838 0.008453 0.000000 0.000000 0.000000
# 4 0.000000 0.000000 0.000000 0.022996 0.000000 0.000000
# 5 0.000000 0.000000 0.000000 0.000000 0.031083 0.000000
# 6 0.000000 0.000000 0.000000 0.000000 0.000000 0.051367
#
#
# Mechanical properties :
#
#
# Convention : Reuss Voigt Hill
#
# Bulk Modulus (GPa) = 64.68141 84.23740 74.45940
# Shear Modulus (GPa) = 28.90238 34.80378 31.85308
#
# Velocity S-wave (km/s) = 3.85662 4.23207 4.04870
# Velocity P-wave (km/s) = 7.28815 8.19940 7.75717
#
# Compressibility (1/GPa) = 0.01546039
#
# Stress axis : x y z
#
# Youngs Moduli (GPa) = 98.42824 49.22406 118.29452
#
# Poissons Ratio (x) = 0.10728 0.20308
# Poissons Ratio (y) = 0.21453 0.92717
# Poissons Ratio (z) = 0.16897 0.38581
#
# Static dielectric constant tensor:
#      x y z
#    x 1.687100 0.000000 0.000000 
#    y 0.000000 1.660930 0.000000 
#    z 0.000000 0.000000 1.781950 
# 
# From -- ./inp_files/35071.got.cif
#   From: 2010.05.17/outbox.cif.g08.bks.cpg/sg65_18_cif.got.tgz:35071.got - 2010.06.03 17:01:31.
