data_PCOD9490627
_publ_section_title
;
Structure prediction by ZEFSAII (Michael W. Deem and Ramdas Pophale) SiO2 
 PCOD9490627
Probable space group: C M M M
;
_chemical_formula_sum "Si O2"
_cell_formula_units_Z 72
_cell_length_a 19.680571
_cell_length_b 8.713108
_cell_length_c 22.983356
_cell_angle_alpha 90.000000
_cell_angle_beta 90.000000
_cell_angle_gamma 90.000000
_cell_volume 3941.161539
_symmetry_space_group_name_H-M "C M M M"
_symmetry_group_IT_number 65
_symmetry_cell_setting 'orthorhombic'
loop_
_space_group_symop_operation_xyz
x,y,z
-x,-y,z
x,-y,-z
-x,y,-z
-x,-y,-z
x,y,-z
-x,y,z
x,-y,z
1/2+x,1/2+y,z
1/2-x,1/2-y,z
1/2+x,1/2-y,-z
1/2-x,1/2+y,-z
1/2-x,1/2-y,-z
1/2+x,1/2+y,-z
1/2-x,1/2+y,z
1/2+x,1/2-y,z
loop_
_atom_site_type_symbol
_atom_site_label
_atom_site_fract_x
_atom_site_fract_y
_atom_site_fract_z
Si Si1 0.324220 0.315571 0.901990
Si Si2 0.421763 0.314295 0.664407
Si Si3 0.176567 0.815394 0.232582
Si Si4 0.176311 0.316421 0.432189
Si Si5 0.079217 0.684168 0.000000
O O1 0.322736 0.500000 0.906344
O O2 0.250000 0.250000 0.918188
O O3 0.336781 0.271482 0.834502
O O4 0.381234 0.249161 0.944124
O O5 0.500000 0.264631 0.665245
O O6 0.420505 0.500000 0.662368
O O7 0.381090 0.265576 0.722366
O O8 0.381186 0.250582 0.609292
O O9 0.250000 0.750000 0.249641
O O10 0.180369 0.000000 0.234252
O O11 0.164667 0.275427 0.500000
O O12 0.178152 0.500000 0.427503
O O13 0.250000 0.250000 0.415310
O O14 0.083434 0.500000 0.000000
O O15 0.000000 0.728845 0.000000
#
# Coordination Sequence:
#
# PCOD9490627 Si02
#       5
#    16  16  16  16   8
#     4  10  20  36  59  83 108 140 179 221 265 316
#     4  10  21  36  54  79 112 146 178 216 265 318
#     4   9  19  35  56  81 107 138 177 221 265 312
#     4  10  21  37  57  80 106 138 179 225 269 316
#     4  11  24  39  54  77 111 145 178 221 270 317
#
# _framework density 18.268726000000001
#
# number of rings (size 3 to 8) (size 9 to 14) (size 15 to 20)
#    0.000    2.111    0.000    2.667    0.000    7.556 
#    0.000    4.444    0.000    0.000    0.000    0.000 
#    0.000    0.000    0.000    0.000    0.000    0.000 
#
# Total GULP energy -201075.470733 kJ/mol
# GULP energy per Si atom -5585.429743 kJ/mol
# Density = 1.822715 g / cm^3
# Si number density = 18.268726 Si / 1000 Ang^3
#
#
#
# Elastic Constant Matrix: (Units=GPa)
#
#
# Indices 1 2 3 4 5 6 
#
# 1 207.6839 48.2514 121.6340 0.0000 0.0000 0.0000
# 2 48.2514 30.7762 36.2937 0.0000 0.0000 0.0000
# 3 121.6340 36.2937 116.9122 0.0000 0.0000 0.0000
# 4 0.0000 0.0000 0.0000 14.4122 0.0000 0.0000
# 5 0.0000 0.0000 0.0000 0.0000 -14.8902 0.0000
# 6 0.0000 0.0000 0.0000 0.0000 0.0000 29.6459
#
#
#
# Elastic Compliance Matrix: (Units=1/GPa)
#
#
# Indices 1 2 3 4 5 6 
#
# 1 0.013246 -0.007123 -0.011569 0.000000 0.000000 0.000000
# 2 -0.007123 0.055088 -0.009690 0.000000 0.000000 0.000000
# 3 -0.011569 -0.009690 0.023598 0.000000 0.000000 0.000000
# 4 0.000000 0.000000 0.000000 0.069386 0.000000 0.000000
# 5 0.000000 0.000000 0.000000 0.000000 -0.067158 0.000000
# 6 0.000000 0.000000 0.000000 0.000000 0.000000 0.033731
#
#
# Mechanical properties :
#
#
# Convention : Reuss Voigt Hill
#
# Bulk Modulus (GPa) = 28.43633 85.30337 56.86985
# Shear Modulus (GPa) = 25.46082 15.77979 20.62030
#
# Velocity S-wave (km/s) = 3.73726 2.94217 3.36329
# Velocity P-wave (km/s) = 5.84997 7.63785 6.80290
#
# Compressibility (1/GPa) = 0.03516629
#
# Stress axis : x y z
#
# Youngs Moduli (GPa) = 75.49507 18.15264 42.37579
#
# Poissons Ratio (x) = 0.12931 0.49027
# Poissons Ratio (y) = 0.53779 0.41063
# Poissons Ratio (z) = 0.87344 0.17590
#
# Static dielectric constant tensor:
#      x y z
#    x 1.590070 0.000000 0.000000 
#    y 0.000000 1.616780 0.000000 
#    z 0.000000 0.000000 1.631430 
# 
# From -- ./inp_files/67089.got.cif
#   From: 2010.05.17/outbox.cif.g08.bks.cpg/sg65_34_cif.got.tgz:67089.got - 2010.06.03 17:01:31.
