data_PCOD9490178
_publ_section_title
;
Structure prediction by ZEFSAII (Michael W. Deem and Ramdas Pophale) SiO2 
 PCOD9490178
Probable space group: C M M M
;
_chemical_formula_sum "Si O2"
_cell_formula_units_Z 104
_cell_length_a 28.962783
_cell_length_b 8.811494
_cell_length_c 23.216393
_cell_angle_alpha 90.000000
_cell_angle_beta 90.000000
_cell_angle_gamma 90.000000
_cell_volume 5924.948598
_symmetry_space_group_name_H-M "C M M M"
_symmetry_group_IT_number 65
_symmetry_cell_setting 'orthorhombic'
loop_
_space_group_symop_operation_xyz
x,y,z
-x,-y,z
x,-y,-z
-x,y,-z
-x,-y,-z
x,y,-z
-x,y,z
x,-y,z
1/2+x,1/2+y,z
1/2-x,1/2-y,z
1/2+x,1/2-y,-z
1/2-x,1/2+y,-z
1/2-x,1/2-y,-z
1/2+x,1/2+y,-z
1/2-x,1/2+y,z
1/2+x,1/2-y,z
loop_
_atom_site_type_symbol
_atom_site_label
_atom_site_fract_x
_atom_site_fract_y
_atom_site_fract_z
Si Si1 0.699758 0.680879 0.567670
Si Si2 0.855667 0.180830 0.107205
Si Si3 0.198915 0.818457 0.226153
Si Si4 0.641112 0.818935 0.332084
Si Si5 0.552753 0.818414 0.849326
Si Si6 0.698820 0.818950 0.000000
Si Si7 0.946700 0.179777 0.278503
O O1 0.690859 0.709919 0.500000
O O2 0.700831 0.500000 0.576761
O O3 0.750000 0.750000 0.581549
O O4 0.662479 0.756428 0.608995
O O5 0.829692 0.211703 0.167743
O O6 0.907549 0.243308 0.112669
O O7 0.855970 0.000000 0.098318
O O8 0.828241 0.260799 0.056079
O O9 0.250000 0.750000 0.221371
O O10 0.172463 0.744906 0.279909
O O11 0.201428 0.000000 0.234184
O O12 0.589935 0.756337 0.320391
O O13 0.641665 0.000000 0.331170
O O14 0.500000 0.783994 0.867519
O O15 0.558332 0.753845 0.784635
O O16 0.558386 0.000000 0.848330
O O17 0.750000 0.750000 0.000000
O O18 0.701532 0.000000 0.000000
O O19 0.000000 0.199891 0.296330
O O20 0.937175 0.000000 0.273687
#
# Coordination Sequence:
#
# PCOD9490178 Si02
#       7
#    16  16  16  16  16   8  16
#     4  10  21  38  59  82 113 153 196 239 284 339
#     4  11  23  40  62  86 115 152 194 239 286 343
#     4  11  23  37  55  81 114 149 187 235 286 340
#     4  12  23  35  56  84 117 151 189 237 286 342
#     4  10  20  35  58  88 120 152 188 233 287 344
#     4  12  26  44  65  86 115 152 196 243 285 345
#     4  10  20  35  56  83 116 152 191 235 284 341
#
# _framework density 17.552893999999998
#
# number of rings (size 3 to 8) (size 9 to 14) (size 15 to 20)
#    0.000    1.231    1.538    5.308    0.000    5.846 
#    0.000    0.385    0.000    2.769    0.000    3.231 
#    0.000    0.000    0.000    0.000    0.000    0.000 
#
# Total GULP energy -290761.955889 kJ/mol
# GULP energy per Si atom -5591.576075 kJ/mol
# Density = 1.751294 g / cm^3
# Si number density = 17.552894 Si / 1000 Ang^3
#
#
#
# Elastic Constant Matrix: (Units=GPa)
#
#
# Indices 1 2 3 4 5 6 
#
# 1 148.1335 80.1622 66.5271 0.0000 0.0000 0.0000
# 2 80.1622 121.0372 62.6151 0.0000 0.0000 0.0000
# 3 66.5271 62.6151 76.4329 0.0000 0.0000 0.0000
# 4 0.0000 0.0000 0.0000 25.3697 0.0000 0.0000
# 5 0.0000 0.0000 0.0000 0.0000 28.4868 0.0000
# 6 0.0000 0.0000 0.0000 0.0000 0.0000 36.0533
#
#
#
# Elastic Compliance Matrix: (Units=1/GPa)
#
#
# Indices 1 2 3 4 5 6 
#
# 1 0.012378 -0.004555 -0.007043 0.000000 0.000000 0.000000
# 2 -0.004555 0.016015 -0.009155 0.000000 0.000000 0.000000
# 3 -0.007043 -0.009155 0.026713 0.000000 0.000000 0.000000
# 4 0.000000 0.000000 0.000000 0.039417 0.000000 0.000000
# 5 0.000000 0.000000 0.000000 0.000000 0.035104 0.000000
# 6 0.000000 0.000000 0.000000 0.000000 0.000000 0.027737
#
#
# Mechanical properties :
#
#
# Convention : Reuss Voigt Hill
#
# Bulk Modulus (GPa) = 73.52265 84.91248 79.21756
# Shear Modulus (GPa) = 24.58176 27.06857 25.82517
#
# Velocity S-wave (km/s) = 3.74630 3.93124 3.83988
# Velocity P-wave (km/s) = 7.79040 8.31182 8.05533
#
# Compressibility (1/GPa) = 0.01360125
#
# Stress axis : x y z
#
# Youngs Moduli (GPa) = 80.78579 62.44325 37.43450
#
# Poissons Ratio (x) = 0.28441 0.26365
# Poissons Ratio (y) = 0.36796 0.34271
# Poissons Ratio (z) = 0.56896 0.57166
#
# Static dielectric constant tensor:
#      x y z
#    x 1.591240 0.000000 0.000000 
#    y 0.000000 1.581970 0.000000 
#    z 0.000000 0.000000 1.569980 
# 
# From -- ./inp_files/65885.got.cif
#   From: 2010.05.17/outbox.cif.g08.bks.cpg/sg65_33_cif.got.tgz:65885.got - 2010.06.03 17:01:31.
