data_PCOD9490565
_publ_section_title
;
Structure prediction by ZEFSAII (Michael W. Deem and Ramdas Pophale) SiO2 
 PCOD9490565
Probable space group: C M M M
;
_chemical_formula_sum "Si O2"
_cell_formula_units_Z 72
_cell_length_a 15.778137
_cell_length_b 8.761897
_cell_length_c 28.629025
_cell_angle_alpha 90.000000
_cell_angle_beta 90.000000
_cell_angle_gamma 90.000000
_cell_volume 3957.859964
_symmetry_space_group_name_H-M "C M M M"
_symmetry_group_IT_number 65
_symmetry_cell_setting 'orthorhombic'
loop_
_space_group_symop_operation_xyz
x,y,z
-x,-y,z
x,-y,-z
-x,y,-z
-x,-y,-z
x,y,-z
-x,y,z
x,-y,z
1/2+x,1/2+y,z
1/2-x,1/2-y,z
1/2+x,1/2-y,-z
1/2-x,1/2+y,-z
1/2-x,1/2-y,-z
1/2+x,1/2+y,-z
1/2-x,1/2+y,z
1/2+x,1/2-y,z
loop_
_atom_site_type_symbol
_atom_site_label
_atom_site_fract_x
_atom_site_fract_y
_atom_site_fract_z
Si Si1 0.341524 0.182554 0.054891
Si Si2 0.000000 0.182709 0.110269
Si Si3 0.157910 0.316733 0.275852
Si Si4 0.000000 0.182932 0.219759
Si Si5 0.158964 0.683618 0.615346
Si Si6 0.500000 0.186535 0.553725
O O1 0.250000 0.250000 0.068171
O O2 0.416954 0.251014 0.085242
O O3 0.340050 0.000000 0.059460
O O4 0.355654 0.219594 0.000000
O O5 0.000000 0.222479 0.164996
O O6 0.000000 0.000000 0.105896
O O7 0.159369 0.500000 0.272273
O O8 0.250000 0.250000 0.263100
O O9 0.083158 0.249930 0.244606
O O10 0.142208 0.275619 0.330421
O O11 0.000000 0.000000 0.224199
O O12 0.163097 0.500000 0.613233
O O13 0.250000 0.750000 0.601966
O O14 0.083444 0.735811 0.581859
O O15 0.500000 0.235990 0.500000
O O16 0.500000 0.000000 0.553991
#
# Coordination Sequence:
#
# PCOD9490565 Si02
#       6
#    16   8  16   8  16   8
#     4  10  21  38  61  87 113 144 184 227 269 316
#     4  11  24  39  56  81 114 149 182 221 270 323
#     4  10  20  36  58  81 106 139 180 226 273 321
#     4  11  24  39  55  80 112 145 182 222 269 325
#     4   9  18  33  53  77 102 132 174 218 261 312
#     4   9  17  30  49  73 104 141 174 207 255 315
#
# _framework density 18.191651
#
# number of rings (size 3 to 8) (size 9 to 14) (size 15 to 20)
#    0.000    2.111    0.000    3.000    0.000    8.444 
#    0.000    0.556    0.000    0.667    0.000    0.000 
#    0.000    0.000    0.000    0.000    0.000    0.000 
#
# Total GULP energy -201080.219394 kJ/mol
# GULP energy per Si atom -5585.561650 kJ/mol
# Density = 1.815025 g / cm^3
# Si number density = 18.191651 Si / 1000 Ang^3
#
#
#
# Elastic Constant Matrix: (Units=GPa)
#
#
# Indices 1 2 3 4 5 6 
#
# 1 219.9730 63.2536 141.3697 0.0000 0.0000 0.0000
# 2 63.2536 39.7133 54.5989 0.0000 0.0000 0.0000
# 3 141.3697 54.5989 127.7187 0.0000 0.0000 0.0000
# 4 0.0000 0.0000 0.0000 19.8225 0.0000 0.0000
# 5 0.0000 0.0000 0.0000 0.0000 18.6159 0.0000
# 6 0.0000 0.0000 0.0000 0.0000 0.0000 38.9736
#
#
#
# Elastic Compliance Matrix: (Units=1/GPa)
#
#
# Indices 1 2 3 4 5 6 
#
# 1 0.015871 -0.002733 -0.016399 0.000000 0.000000 0.000000
# 2 -0.002733 0.061548 -0.023286 0.000000 0.000000 0.000000
# 3 -0.016399 -0.023286 0.035936 0.000000 0.000000 0.000000
# 4 0.000000 0.000000 0.000000 0.050448 0.000000 0.000000
# 5 0.000000 0.000000 0.000000 0.000000 0.053718 0.000000
# 6 0.000000 0.000000 0.000000 0.000000 0.000000 0.025658
#
#
# Mechanical properties :
#
#
# Convention : Reuss Voigt Hill
#
# Bulk Modulus (GPa) = 35.06478 100.64993 67.85735
# Shear Modulus (GPa) = 14.81385 24.02792 19.42089
#
# Velocity S-wave (km/s) = 2.85673 3.63825 3.27092
# Velocity P-wave (km/s) = 5.49529 8.54967 7.18662
#
# Compressibility (1/GPa) = 0.02851865
#
# Stress axis : x y z
#
# Youngs Moduli (GPa) = 63.00783 16.24752 27.82687
#
# Poissons Ratio (x) = 0.04440 0.45634
# Poissons Ratio (y) = 0.17218 0.64799
# Poissons Ratio (z) = 1.03328 0.37835
#
# Static dielectric constant tensor:
#      x y z
#    x 1.588200 0.000000 0.000000 
#    y 0.000000 1.608300 0.000000 
#    z 0.000000 0.000000 1.611140 
# 
# From -- ./inp_files/72564.got.cif
#   From: 2010.05.17/outbox.cif.g08.bks.cpg/sg65_37_cif.got.tgz:72564.got - 2010.06.03 17:01:31.
