data_PCOD9490537
_publ_section_title
;
Structure prediction by ZEFSAII (Michael W. Deem and Ramdas Pophale) SiO2 
 PCOD9490537
Probable space group: C M M M
;
_chemical_formula_sum "Si O2"
_cell_formula_units_Z 76
_cell_length_a 25.671734
_cell_length_b 7.543441
_cell_length_c 20.606120
_cell_angle_alpha 90.000000
_cell_angle_beta 90.000000
_cell_angle_gamma 90.000000
_cell_volume 3990.441300
_symmetry_space_group_name_H-M "C M M M"
_symmetry_group_IT_number 65
_symmetry_cell_setting 'orthorhombic'
loop_
_space_group_symop_operation_xyz
x,y,z
-x,-y,z
x,-y,-z
-x,y,-z
-x,-y,-z
x,y,-z
-x,y,z
x,-y,z
1/2+x,1/2+y,z
1/2-x,1/2-y,z
1/2+x,1/2-y,-z
1/2-x,1/2+y,-z
1/2-x,1/2-y,-z
1/2+x,1/2+y,-z
1/2-x,1/2+y,z
1/2+x,1/2-y,z
loop_
_atom_site_type_symbol
_atom_site_label
_atom_site_fract_x
_atom_site_fract_y
_atom_site_fract_z
Si Si1 0.596896 0.711610 0.858126
Si Si2 0.058401 0.291148 0.000000
Si Si3 0.390952 0.000000 0.575779
Si Si4 0.192051 0.211377 0.222809
Si Si5 0.000000 0.500000 0.655803
Si Si6 0.500000 0.284577 0.231698
Si Si7 0.689773 0.287576 0.626653
O O1 0.598253 0.500000 0.853052
O O2 0.587252 0.747838 0.933331
O O3 0.649255 0.784298 0.826071
O O4 0.549320 0.767315 0.812352
O O5 0.052577 0.500000 0.000000
O O6 0.000000 0.210468 0.000000
O O7 0.445549 0.000000 0.615486
O O8 0.353868 0.169927 0.591475
O O9 0.403727 0.000000 0.500000
O O10 0.250000 0.250000 0.200203
O O11 0.186557 0.270659 0.297430
O O12 0.186263 0.000000 0.226097
O O13 0.000000 0.673355 0.702381
O O14 0.500000 0.500000 0.241960
O O15 0.680894 0.500000 0.621219
O O16 0.750000 0.250000 0.605949
#
# Coordination Sequence:
#
# PCOD9490537 Si02
#       7
#    16   8   8  16   4   8  16
#     4  10  20  36  57  83 114 154 196 243 300 362
#     4  11  23  35  50  79 118 149 192 244 296 355
#     4  12  27  44  64  94 131 174 212 248 309 387
#     4   9  19  34  57  86 115 148 193 243 299 357
#     4  12  27  44  66  91 130 174 208 260 310 373
#     4  10  22  40  66  94 118 155 209 262 311 359
#     4  10  20  41  67  98 129 159 207 268 321 367
#
# _framework density 19.045514000000001
#
# number of rings (size 3 to 8) (size 9 to 14) (size 15 to 20)
#    0.000    1.789    2.105    1.737    2.947    4.632 
#    0.000    0.526    0.000    1.895    0.000    0.000 
#    0.000    0.000    0.000    0.000    0.000    0.000 
#
# Total GULP energy -212045.516764 kJ/mol
# GULP energy per Si atom -5580.145178 kJ/mol
# Density = 1.900217 g / cm^3
# Si number density = 19.045514 Si / 1000 Ang^3
#
#
#
# Elastic Constant Matrix: (Units=GPa)
#
#
# Indices 1 2 3 4 5 6 
#
# 1 147.8612 39.4709 95.5495 0.0000 0.0000 0.0000
# 2 39.4709 87.8084 32.0861 0.0000 0.0000 0.0000
# 3 95.5495 32.0861 135.6792 0.0000 0.0000 0.0000
# 4 0.0000 0.0000 0.0000 17.0715 0.0000 0.0000
# 5 0.0000 0.0000 0.0000 0.0000 21.2406 0.0000
# 6 0.0000 0.0000 0.0000 0.0000 0.0000 19.6964
#
#
#
# Elastic Compliance Matrix: (Units=1/GPa)
#
#
# Indices 1 2 3 4 5 6 
#
# 1 0.012983 -0.002731 -0.008497 0.000000 0.000000 0.000000
# 2 -0.002731 0.013040 -0.001160 0.000000 0.000000 0.000000
# 3 -0.008497 -0.001160 0.013629 0.000000 0.000000 0.000000
# 4 0.000000 0.000000 0.000000 0.058577 0.000000 0.000000
# 5 0.000000 0.000000 0.000000 0.000000 0.047080 0.000000
# 6 0.000000 0.000000 0.000000 0.000000 0.000000 0.050771
#
#
# Mechanical properties :
#
#
# Convention : Reuss Voigt Hill
#
# Bulk Modulus (GPa) = 67.22952 78.39573 72.81263
# Shear Modulus (GPa) = 22.14196 25.21785 23.67990
#
# Velocity S-wave (km/s) = 3.41336 3.64274 3.52992
# Velocity P-wave (km/s) = 7.13518 7.67753 7.41132
#
# Compressibility (1/GPa) = 0.01487442
#
# Stress axis : x y z
#
# Youngs Moduli (GPa) = 77.02254 76.68626 73.37385
#
# Poissons Ratio (x) = 0.20944 0.62348
# Poissons Ratio (y) = 0.21036 0.08515
# Poissons Ratio (z) = 0.65448 0.08899
#
# Static dielectric constant tensor:
#      x y z
#    x 1.620300 0.000000 0.000000 
#    y 0.000000 1.694380 0.000000 
#    z 0.000000 0.000000 1.782810 
# 
# From -- ./inp_files/57336.got.cif
#   From: 2010.05.17/outbox.cif.g08.bks.cpg/sg65_29_cif.got.tgz:57336.got - 2010.06.03 17:01:31.
