data_PCOD9490971
_publ_section_title
;
Structure prediction by ZEFSAII (Michael W. Deem and Ramdas Pophale) SiO2 
 PCOD9490971
Probable space group: C M M M
;
_chemical_formula_sum "Si O2"
_cell_formula_units_Z 72
_cell_length_a 15.016631
_cell_length_b 8.229808
_cell_length_c 28.777724
_cell_angle_alpha 90.000000
_cell_angle_beta 90.000000
_cell_angle_gamma 90.000000
_cell_volume 3556.465953
_symmetry_space_group_name_H-M "C M M M"
_symmetry_group_IT_number 65
_symmetry_cell_setting 'orthorhombic'
loop_
_space_group_symop_operation_xyz
x,y,z
-x,-y,z
x,-y,-z
-x,y,-z
-x,-y,-z
x,y,-z
-x,y,z
x,-y,z
1/2+x,1/2+y,z
1/2-x,1/2-y,z
1/2+x,1/2-y,-z
1/2-x,1/2+y,-z
1/2-x,1/2-y,-z
1/2+x,1/2+y,-z
1/2-x,1/2+y,z
1/2+x,1/2-y,z
loop_
_atom_site_type_symbol
_atom_site_label
_atom_site_fract_x
_atom_site_fract_y
_atom_site_fract_z
Si Si1 0.000000 0.808504 0.672083
Si Si2 0.646880 0.803844 0.500000
Si Si3 0.500000 0.804185 0.222304
Si Si4 0.646480 0.196487 0.049905
Si Si5 0.647941 0.196552 0.848487
Si Si6 0.647765 0.194700 0.398602
O O1 0.914299 0.753561 0.642670
O O2 0.000000 0.742013 0.724167
O O3 0.000000 0.000000 0.674888
O O4 0.750000 0.750000 0.500000
O O5 0.612746 0.747897 0.550374
O O6 0.640582 0.000000 0.500000
O O7 0.585977 0.745775 0.193386
O O8 0.500000 0.000000 0.220065
O O9 0.750000 0.250000 0.049877
O O10 0.612702 0.250729 0.100450
O O11 0.641261 0.000000 0.049632
O O12 0.608634 0.253033 0.000000
O O13 0.750000 0.250000 0.843396
O O14 0.646361 0.000000 0.848670
O O15 0.750000 0.250000 0.393494
O O16 0.646157 0.000000 0.398941
#
# Coordination Sequence:
#
# PCOD9490971 Si02
#       6
#     8   8   8  16  16  16
#     4  12  26  41  57  81 110 147 194 239 284 331
#     4   8  16  31  56  87 118 150 182 217 264 323
#     4  10  22  40  56  73 102 138 179 231 282 325
#     4   8  13  23  42  70 101 130 161 200 249 310
#     4   9  18  33  54  77 102 135 173 213 264 322
#     4  10  20  38  62  89 120 152 185 225 273 327
#
# _framework density 20.244816
#
# number of rings (size 3 to 8) (size 9 to 14) (size 15 to 20)
#    0.000    2.667    0.000    1.667    0.000    3.111 
#    0.000    5.000    0.000    3.333    0.000    0.000 
#    0.000   18.667    0.000    0.000    0.000    0.000 
#
# Total GULP energy -200668.861781 kJ/mol
# GULP energy per Si atom -5574.135049 kJ/mol
# Density = 2.019874 g / cm^3
# Si number density = 20.244816 Si / 1000 Ang^3
#
#
#
# Elastic Constant Matrix: (Units=GPa)
#
#
# Indices 1 2 3 4 5 6 
#
# 1 101.7004 11.5338 92.1512 0.0000 0.0000 0.0000
# 2 11.5338 23.2432 24.5595 0.0000 0.0000 0.0000
# 3 92.1512 24.5595 251.7776 0.0000 0.0000 0.0000
# 4 0.0000 0.0000 0.0000 18.3242 0.0000 0.0000
# 5 0.0000 0.0000 0.0000 0.0000 42.0120 0.0000
# 6 0.0000 0.0000 0.0000 0.0000 0.0000 17.0267
#
#
#
# Elastic Compliance Matrix: (Units=1/GPa)
#
#
# Indices 1 2 3 4 5 6 
#
# 1 0.014779 -0.001804 -0.005233 0.000000 0.000000 0.000000
# 2 -0.001804 0.048188 -0.004040 0.000000 0.000000 0.000000
# 3 -0.005233 -0.004040 0.006281 0.000000 0.000000 0.000000
# 4 0.000000 0.000000 0.000000 0.054573 0.000000 0.000000
# 5 0.000000 0.000000 0.000000 0.000000 0.023803 0.000000
# 6 0.000000 0.000000 0.000000 0.000000 0.000000 0.058731
#
#
# Mechanical properties :
#
#
# Convention : Reuss Voigt Hill
#
# Bulk Modulus (GPa) = 21.23460 70.35671 45.79566
# Shear Modulus (GPa) = 20.47440 32.03770 26.25605
#
# Velocity S-wave (km/s) = 3.18361 3.98240 3.60519
# Velocity P-wave (km/s) = 4.90158 7.48160 6.32455
#
# Compressibility (1/GPa) = 0.04709294
#
# Stress axis : x y z
#
# Youngs Moduli (GPa) = 67.66214 20.75226 159.20426
#
# Poissons Ratio (x) = 0.03744 0.83316
# Poissons Ratio (y) = 0.12208 0.64320
# Poissons Ratio (z) = 0.35409 0.08384
#
# Static dielectric constant tensor:
#      x y z
#    x 1.672890 0.000000 0.000000 
#    y 0.000000 1.697140 0.000000 
#    z 0.000000 0.000000 1.777400 
# 
# From -- ./inp_files/70398.got.cif
#   From: 2010.05.17/outbox.cif.g08.bks.cpg/sg65_36_cif.got.tgz:70398.got - 2010.06.03 17:01:31.
