data_PCOD9490524
_publ_section_title
;
Structure prediction by ZEFSAII (Michael W. Deem and Ramdas Pophale) SiO2 
 PCOD9490524
Probable space group: C M M M
;
_chemical_formula_sum "Si O2"
_cell_formula_units_Z 104
_cell_length_a 8.863058
_cell_length_b 27.514250
_cell_length_c 21.504773
_cell_angle_alpha 90.000000
_cell_angle_beta 90.000000
_cell_angle_gamma 90.000000
_cell_volume 5244.162408
_symmetry_space_group_name_H-M "C M M M"
_symmetry_group_IT_number 65
_symmetry_cell_setting 'orthorhombic'
loop_
_space_group_symop_operation_xyz
x,y,z
-x,-y,z
x,-y,-z
-x,y,-z
-x,-y,-z
x,y,-z
-x,y,z
x,-y,z
1/2+x,1/2+y,z
1/2-x,1/2-y,z
1/2+x,1/2-y,-z
1/2-x,1/2+y,-z
1/2-x,1/2-y,-z
1/2+x,1/2+y,-z
1/2-x,1/2+y,z
1/2+x,1/2-y,z
loop_
_atom_site_type_symbol
_atom_site_label
_atom_site_fract_x
_atom_site_fract_y
_atom_site_fract_z
Si Si1 0.820434 0.599909 0.249153
Si Si2 0.181523 0.153152 0.068120
Si Si3 0.680365 0.597161 0.623968
Si Si4 0.318608 0.698288 0.198406
Si Si5 0.819263 0.800653 0.572200
Si Si6 0.170211 0.557556 0.500000
Si Si7 0.819068 0.445226 0.116248
O O1 0.755190 0.578881 0.312912
O O2 0.743520 0.652154 0.236319
O O3 0.788926 0.566582 0.188965
O O4 0.000000 0.605942 0.253682
O O5 0.227597 0.186061 0.126763
O O6 0.243034 0.098750 0.079234
O O7 0.000000 0.151266 0.069310
O O8 0.230801 0.170730 0.000000
O O9 0.500000 0.593003 0.627095
O O10 0.722372 0.653889 0.614320
O O11 0.741643 0.572633 0.561792
O O12 0.500000 0.699659 0.202940
O O13 0.250000 0.750000 0.217114
O O14 0.772091 0.809464 0.500000
O O15 0.750000 0.750000 0.592917
O O16 0.000000 0.796934 0.572123
O O17 0.158812 0.500000 0.500000
O O18 0.000000 0.578495 0.500000
O O19 0.769671 0.500000 0.100476
O O20 0.000000 0.442599 0.107214
#
# Coordination Sequence:
#
# PCOD9490524 Si02
#       7
#    16  16  16  16  16   8  16
#     4  10  21  37  57  82 111 146 188 232 279 332
#     4   9  19  35  54  80 114 148 184 228 277 331
#     4  11  22  39  60  84 115 147 183 229 283 340
#     4  10  20  36  57  81 112 151 192 234 279 329
#     4   9  18  33  52  77 106 137 170 208 255 313
#     4  11  25  43  62  85 112 145 188 235 284 341
#     4   9  19  36  56  78 107 143 183 230 280 330
#
# _framework density 19.831575999999998
#
# number of rings (size 3 to 8) (size 9 to 14) (size 15 to 20)
#    0.000    2.231    0.769    1.615    0.000    5.538 
#    0.000    4.615    0.000    0.000    0.000    0.000 
#    0.000    0.000    0.000    0.000    0.000    0.000 
#
# Total GULP energy -290342.173448 kJ/mol
# GULP energy per Si atom -5583.503336 kJ/mol
# Density = 1.978644 g / cm^3
# Si number density = 19.831576 Si / 1000 Ang^3
#
#
#
# Elastic Constant Matrix: (Units=GPa)
#
#
# Indices 1 2 3 4 5 6 
#
# 1 31.8185 3.5132 15.5478 0.0000 0.0000 0.0000
# 2 3.5132 38.8165 -18.7654 0.0000 0.0000 0.0000
# 3 15.5478 -18.7654 81.9578 0.0000 0.0000 0.0000
# 4 0.0000 0.0000 0.0000 0.1286 0.0000 0.0000
# 5 0.0000 0.0000 0.0000 0.0000 27.9089 0.0000
# 6 0.0000 0.0000 0.0000 0.0000 0.0000 27.4589
#
#
#
# Elastic Compliance Matrix: (Units=1/GPa)
#
#
# Indices 1 2 3 4 5 6 
#
# 1 0.036470 -0.007473 -0.008630 0.000000 0.000000 0.000000
# 2 -0.007473 0.030500 0.008401 0.000000 0.000000 0.000000
# 3 -0.008630 0.008401 0.015762 0.000000 0.000000 0.000000
# 4 0.000000 0.000000 0.000000 7.774858 0.000000 0.000000
# 5 0.000000 0.000000 0.000000 0.000000 0.035831 0.000000
# 6 0.000000 0.000000 0.000000 0.000000 0.000000 0.036418
#
#
# Mechanical properties :
#
#
# Convention : Reuss Voigt Hill
#
# Bulk Modulus (GPa) = 14.85230 17.02043 15.93636
# Shear Modulus (GPa) = 0.62753 21.25242 10.93998
#
# Velocity S-wave (km/s) = 0.56313 3.27715 2.35126
# Velocity P-wave (km/s) = 2.81572 4.78756 3.92741
#
# Compressibility (1/GPa) = 0.06732965
#
# Stress axis : x y z
#
# Youngs Moduli (GPa) = 27.41972 32.78688 63.44373
#
# Poissons Ratio (x) = 0.24501 0.54749
# Poissons Ratio (y) = 0.20490 -0.53299
# Poissons Ratio (z) = 0.23662 -0.27544
#
# Static dielectric constant tensor:
#      x y z
#    x 1.673600 0.000000 0.000000 
#    y 0.000000 1.672860 0.000000 
#    z 0.000000 0.000000 1.734340 
# 
# From -- ./inp_files/60448.got.cif
#   From: 2010.05.17/outbox.cif.g08.bks.cpg/sg65_31_cif.got.tgz:60448.got - 2010.06.03 17:01:31.
