data_PCOD9490367
_publ_section_title
;
Structure prediction by ZEFSAII (Michael W. Deem and Ramdas Pophale) SiO2 
 PCOD9490367
Probable space group: C M M M
;
_chemical_formula_sum "Si O2"
_cell_formula_units_Z 56
_cell_length_a 14.523994
_cell_length_b 10.209554
_cell_length_c 19.443235
_cell_angle_alpha 90.000000
_cell_angle_beta 90.000000
_cell_angle_gamma 90.000000
_cell_volume 2883.110957
_symmetry_space_group_name_H-M "C M M M"
_symmetry_group_IT_number 65
_symmetry_cell_setting 'orthorhombic'
loop_
_space_group_symop_operation_xyz
x,y,z
-x,-y,z
x,-y,-z
-x,y,-z
-x,-y,-z
x,y,-z
-x,y,z
x,-y,z
1/2+x,1/2+y,z
1/2-x,1/2-y,z
1/2+x,1/2-y,-z
1/2-x,1/2+y,-z
1/2-x,1/2-y,-z
1/2+x,1/2+y,-z
1/2-x,1/2+y,z
1/2+x,1/2-y,z
loop_
_atom_site_type_symbol
_atom_site_label
_atom_site_fract_x
_atom_site_fract_y
_atom_site_fract_z
Si Si1 0.140015 0.000000 0.922294
Si Si2 0.864562 0.500000 0.080637
Si Si3 0.000000 0.157393 0.422582
Si Si4 0.341051 0.339567 0.684730
Si Si5 0.362004 0.745550 0.165513
O O1 0.109343 0.873487 0.881934
O O2 0.252401 0.000000 0.922248
O O3 0.109399 0.000000 0.000000
O O4 0.892375 0.375623 0.126335
O O5 0.893716 0.500000 0.000000
O O6 0.909852 0.188393 0.377931
O O7 0.000000 0.211859 0.500000
O O8 0.000000 0.000000 0.427777
O O9 0.324818 0.500000 0.689875
O O10 0.250000 0.250000 0.675886
O O11 0.386111 0.288432 0.756093
O O12 0.250000 0.750000 0.166588
#
# Coordination Sequence:
#
# PCOD9490367 Si02
#       5
#     8   8   8  16  16
#     4   9  14  22  36  61  99 138 177 229 282 318
#     4   9  16  24  38  65 103 144 187 233 280 324
#     4   9  20  40  63  89 118 149 187 227 279 349
#     4  10  20  35  59  87 116 152 191 233 281 337
#     4   9  16  25  41  68 102 142 184 232 271 330
#
# _framework density 19.423463999999999
#
# number of rings (size 3 to 8) (size 9 to 14) (size 15 to 20)
#    0.000    2.714    1.429    0.857    6.000    4.000 
#    0.000    0.714    0.000    0.857    0.000    6.000 
#    0.000    0.000    0.000    0.000    0.000    0.000 
#
# Total GULP energy -156081.890470 kJ/mol
# GULP energy per Si atom -5574.353231 kJ/mol
# Density = 1.937926 g / cm^3
# Si number density = 19.423464 Si / 1000 Ang^3
#
#
#
# Elastic Constant Matrix: (Units=GPa)
#
#
# Indices 1 2 3 4 5 6 
#
# 1 98.2131 35.5837 57.8297 0.0000 0.0000 0.0000
# 2 35.5837 159.3807 90.4652 0.0000 0.0000 0.0000
# 3 57.8297 90.4652 228.5210 0.0000 0.0000 0.0000
# 4 0.0000 0.0000 0.0000 29.8673 0.0000 0.0000
# 5 0.0000 0.0000 0.0000 0.0000 26.8413 0.0000
# 6 0.0000 0.0000 0.0000 0.0000 0.0000 -0.9182
#
#
#
# Elastic Compliance Matrix: (Units=1/GPa)
#
#
# Indices 1 2 3 4 5 6 
#
# 1 0.012154 -0.001248 -0.002582 0.000000 0.000000 0.000000
# 2 -0.001248 0.008221 -0.002939 0.000000 0.000000 0.000000
# 3 -0.002582 -0.002939 0.006193 0.000000 0.000000 0.000000
# 4 0.000000 0.000000 0.000000 0.033481 0.000000 0.000000
# 5 0.000000 0.000000 0.000000 0.000000 0.037256 0.000000
# 6 0.000000 0.000000 0.000000 0.000000 0.000000 -1.089114
#
#
# Mechanical properties :
#
#
# Convention : Reuss Voigt Hill
#
# Bulk Modulus (GPa) = 76.74056 94.87467 85.80761
# Shear Modulus (GPa) = -5.13385 31.30715 13.08665
#
# Velocity S-wave (km/s) = -1.62753 4.01910 2.59849
# Velocity P-wave (km/s) = 6.00526 8.39577 7.29905
#
# Compressibility (1/GPa) = 0.01303092
#
# Stress axis : x y z
#
# Youngs Moduli (GPa) = 82.27531 121.64100 161.48392
#
# Poissons Ratio (x) = 0.15184 0.41689
# Poissons Ratio (y) = 0.10270 0.47453
# Poissons Ratio (z) = 0.21240 0.35745
#
# Static dielectric constant tensor:
#      x y z
#    x 1.739840 0.000000 0.000000 
#    y 0.000000 1.615180 0.000000 
#    z 0.000000 0.000000 1.666680 
# 
# From -- ./inp_files/53915.got.cif
#   From: 2010.05.17/outbox.cif.g08.bks.cpg/sg65_27_cif.got.tgz:53915.got - 2010.06.03 17:01:31.
