data_PCOD9490172
_publ_section_title
;
Structure prediction by ZEFSAII (Michael W. Deem and Ramdas Pophale) SiO2 
 PCOD9490172
Probable space group: C M M M
;
_chemical_formula_sum "Si O2"
_cell_formula_units_Z 88
_cell_length_a 8.665488
_cell_length_b 24.599772
_cell_length_c 23.179632
_cell_angle_alpha 90.000000
_cell_angle_beta 90.000000
_cell_angle_gamma 90.000000
_cell_volume 4941.179648
_symmetry_space_group_name_H-M "C M M M"
_symmetry_group_IT_number 65
_symmetry_cell_setting 'orthorhombic'
loop_
_space_group_symop_operation_xyz
x,y,z
-x,-y,z
x,-y,-z
-x,y,-z
-x,-y,-z
x,y,-z
-x,y,z
x,-y,z
1/2+x,1/2+y,z
1/2-x,1/2-y,z
1/2+x,1/2-y,-z
1/2-x,1/2+y,-z
1/2-x,1/2-y,-z
1/2+x,1/2+y,-z
1/2-x,1/2+y,z
1/2+x,1/2-y,z
loop_
_atom_site_type_symbol
_atom_site_label
_atom_site_fract_x
_atom_site_fract_y
_atom_site_fract_z
Si Si1 0.816642 0.614947 0.067770
Si Si2 0.685580 0.000000 0.568245
Si Si3 0.824200 0.000000 0.069615
Si Si4 0.817096 0.190555 0.835311
Si Si5 0.185441 0.810854 0.500000
Si Si6 0.685953 0.615374 0.390595
Si Si7 0.684510 0.188781 0.288823
O O1 0.767650 0.554074 0.084729
O O2 0.726804 0.654003 0.110551
O O3 0.000000 0.622287 0.073732
O O4 0.777281 0.623271 0.000000
O O5 0.750025 0.944996 0.597347
O O6 0.500000 0.000000 0.571743
O O7 0.729390 0.000000 0.500000
O O8 0.000000 0.000000 0.091910
O O9 0.833444 0.000000 0.000000
O O10 0.750000 0.250000 0.846889
O O11 0.738601 0.172520 0.775422
O O12 0.000000 0.192936 0.826839
O O13 0.250000 0.750000 0.500000
O O14 0.231872 0.845640 0.555905
O O15 0.000000 0.807121 0.500000
O O16 0.500000 0.612950 0.388118
O O17 0.750614 0.645416 0.334218
O O18 0.500000 0.191280 0.291821
O O19 0.750000 0.250000 0.299850
#
# Coordination Sequence:
#
# PCOD9490172 Si02
#       7
#    16   8   8  16   8  16  16
#     4  10  20  35  56  83 115 151 191 237 289 344
#     4  11  23  39  60  87 118 157 196 235 285 343
#     4   9  17  31  52  79 110 145 185 228 276 332
#     4  11  22  38  59  83 113 151 192 236 288 346
#     4  10  22  35  54  83 115 146 182 228 277 326
#     4  11  22  39  60  85 115 153 193 234 283 337
#     4  11  22  39  61  86 115 150 191 237 288 344
#
# _framework density 17.809512000000002
#
# number of rings (size 3 to 8) (size 9 to 14) (size 15 to 20)
#    0.000    1.455    0.909    6.545    0.000    5.818 
#    0.000    0.909    0.000    0.000    0.000    0.000 
#    0.000    0.000    0.000    0.000    0.000    0.000 
#
# Total GULP energy -245778.081318 kJ/mol
# GULP energy per Si atom -5585.865485 kJ/mol
# Density = 1.776898 g / cm^3
# Si number density = 17.809512 Si / 1000 Ang^3
#
#
#
# Elastic Constant Matrix: (Units=GPa)
#
#
# Indices 1 2 3 4 5 6 
#
# 1 107.6734 47.7135 43.8086 0.0000 0.0000 0.0000
# 2 47.7135 124.4801 78.5263 0.0000 0.0000 0.0000
# 3 43.8086 78.5263 95.4143 0.0000 0.0000 0.0000
# 4 0.0000 0.0000 0.0000 894.0193 0.0000 0.0000
# 5 0.0000 0.0000 0.0000 0.0000 26.7894 0.0000
# 6 0.0000 0.0000 0.0000 0.0000 0.0000 35.5314
#
#
#
# Elastic Compliance Matrix: (Units=1/GPa)
#
#
# Indices 1 2 3 4 5 6 
#
# 1 0.011725 -0.002284 -0.003504 0.000000 0.000000 0.000000
# 2 -0.002284 0.017153 -0.013068 0.000000 0.000000 0.000000
# 3 -0.003504 -0.013068 0.022844 0.000000 0.000000 0.000000
# 4 0.000000 0.000000 0.000000 0.001119 0.000000 0.000000
# 5 0.000000 0.000000 0.000000 0.000000 0.037328 0.000000
# 6 0.000000 0.000000 0.000000 0.000000 0.000000 0.028144
#
#
# Mechanical properties :
#
#
# Convention : Reuss Voigt Hill
#
# Bulk Modulus (GPa) = 71.37470 74.18495 72.77982
# Shear Modulus (GPa) = 31.11500 201.76930 116.44215
#
# Velocity S-wave (km/s) = 4.18437 10.65547 8.09469
# Velocity P-wave (km/s) = 7.96925 13.89714 11.32783
#
# Compressibility (1/GPa) = 0.01401057
#
# Stress axis : x y z
#
# Youngs Moduli (GPa) = 85.28800 58.30027 43.77461
#
# Poissons Ratio (x) = 0.13315 0.15337
# Poissons Ratio (y) = 0.19479 0.57205
# Poissons Ratio (z) = 0.29883 0.76187
#
# Static dielectric constant tensor:
#      x y z
#    x 1.600140 0.000000 0.000000 
#    y 0.000000 1.578160 0.000000 
#    z 0.000000 0.000000 1.602260 
# 
# From -- ./inp_files/67673.got.cif
#   From: 2010.05.17/outbox.cif.g08.bks.cpg/sg65_34_cif.got.tgz:67673.got - 2010.06.03 17:01:31.
