data_PCOD9490413
_publ_section_title
;
Structure prediction by ZEFSAII (Michael W. Deem and Ramdas Pophale) SiO2 
 PCOD9490413
Probable space group: C M M M
;
_chemical_formula_sum "Si O2"
_cell_formula_units_Z 76
_cell_length_a 11.764736
_cell_length_b 29.315748
_cell_length_c 12.558434
_cell_angle_alpha 90.000000
_cell_angle_beta 90.000000
_cell_angle_gamma 90.000000
_cell_volume 4331.303870
_symmetry_space_group_name_H-M "C M M M"
_symmetry_group_IT_number 65
_symmetry_cell_setting 'orthorhombic'
loop_
_space_group_symop_operation_xyz
x,y,z
-x,-y,z
x,-y,-z
-x,y,-z
-x,-y,-z
x,y,-z
-x,y,z
x,-y,z
1/2+x,1/2+y,z
1/2-x,1/2-y,z
1/2+x,1/2-y,-z
1/2-x,1/2+y,-z
1/2-x,1/2-y,-z
1/2+x,1/2+y,-z
1/2-x,1/2+y,z
1/2+x,1/2-y,z
loop_
_atom_site_type_symbol
_atom_site_label
_atom_site_fract_x
_atom_site_fract_y
_atom_site_fract_z
Si Si1 0.000000 0.346683 0.000000
Si Si2 0.246441 0.304192 0.000000
Si Si3 0.500000 0.919466 0.810757
Si Si4 0.000000 0.649531 0.625736
Si Si5 0.753583 0.448998 0.127985
Si Si6 0.864812 0.143326 0.805329
Si Si7 0.759867 0.696691 0.373165
O O1 0.885008 0.318401 0.000000
O O2 0.000000 0.378529 0.103566
O O3 0.250000 0.250000 0.000000
O O4 0.307318 0.326168 0.897587
O O5 0.500000 0.895875 0.695909
O O6 0.616203 0.946030 0.832722
O O7 0.886877 0.678491 0.649813
O O8 0.000000 0.639471 0.500000
O O9 0.708977 0.500000 0.149307
O O10 0.684508 0.407707 0.180484
O O11 0.753195 0.441882 0.000000
O O12 0.825445 0.165964 0.694901
O O13 0.000000 0.143192 0.816534
O O14 0.739604 0.692756 0.500000
O O15 0.750000 0.750000 0.344309
#
# Coordination Sequence:
#
# PCOD9490413 Si02
#       7
#     4   8   8   8  16  16  16
#     4  12  20  36  65  82 112 158 189 248 298 338
#     4  12  25  40  57  86 121 160 197 235 290 360
#     4  12  17  37  60  88 123 142 194 247 303 345
#     4  10  20  35  62  88 120 156 190 245 300 344
#     4  11  22  38  62  90 117 153 198 247 300 354
#     4  12  24  40  59  86 124 159 196 243 293 353
#     4  10  22  40  62  89 118 157 205 247 289 341
#
# _framework density 17.546679000000001
#
# number of rings (size 3 to 8) (size 9 to 14) (size 15 to 20)
#    0.000    0.842    6.316    1.263    2.947    1.684 
#    0.000    1.053    0.000    3.158    0.000    1.474 
#    0.000    0.000    0.000    0.000    0.000    0.000 
#
# Total GULP energy -212360.443592 kJ/mol
# GULP energy per Si atom -5588.432726 kJ/mol
# Density = 1.750674 g / cm^3
# Si number density = 17.546679 Si / 1000 Ang^3
#
#
#
# Elastic Constant Matrix: (Units=GPa)
#
#
# Indices 1 2 3 4 5 6 
#
# 1 138.8037 60.5871 34.8627 0.0000 0.0000 0.0000
# 2 60.5871 153.6719 46.1430 0.0000 0.0000 0.0000
# 3 34.8627 46.1430 48.0761 0.0000 0.0000 0.0000
# 4 0.0000 0.0000 0.0000 30.5200 0.0000 0.0000
# 5 0.0000 0.0000 0.0000 0.0000 16.0543 0.0000
# 6 0.0000 0.0000 0.0000 0.0000 0.0000 95.7941
#
#
#
# Elastic Compliance Matrix: (Units=1/GPa)
#
#
# Indices 1 2 3 4 5 6 
#
# 1 0.009364 -0.002322 -0.004561 0.000000 0.000000 0.000000
# 2 -0.002322 0.009718 -0.007643 0.000000 0.000000 0.000000
# 3 -0.004561 -0.007643 0.031444 0.000000 0.000000 0.000000
# 4 0.000000 0.000000 0.000000 0.032765 0.000000 0.000000
# 5 0.000000 0.000000 0.000000 0.000000 0.062289 0.000000
# 6 0.000000 0.000000 0.000000 0.000000 0.000000 0.010439
#
#
# Mechanical properties :
#
#
# Convention : Reuss Voigt Hill
#
# Bulk Modulus (GPa) = 46.57212 69.30415 57.93814
# Shear Modulus (GPa) = 26.01053 41.73760 33.87406
#
# Velocity S-wave (km/s) = 3.85432 4.88244 4.39853
# Velocity P-wave (km/s) = 6.81228 8.44790 7.67380
#
# Compressibility (1/GPa) = 0.02147207
#
# Stress axis : x y z
#
# Youngs Moduli (GPa) = 106.79581 102.90243 31.80248
#
# Poissons Ratio (x) = 0.23895 0.14506
# Poissons Ratio (y) = 0.24799 0.24308
# Poissons Ratio (z) = 0.48714 0.78652
#
# Static dielectric constant tensor:
#      x y z
#    x 1.594760 0.000000 0.000000 
#    y 0.000000 1.595260 0.000000 
#    z 0.000000 0.000000 1.599630 
# 
# From -- ./inp_files/22965.got.cif
#   From: 2010.05.17/outbox.cif.g08.bks.cpg/sg65_12_cif.got.tgz:22965.got - 2010.06.03 17:01:31.
