data_PCOD9490606
_publ_section_title
;
Structure prediction by ZEFSAII (Michael W. Deem and Ramdas Pophale) SiO2 
 PCOD9490606
Probable space group: C M M M
;
_chemical_formula_sum "Si O2"
_cell_formula_units_Z 104
_cell_length_a 29.868070
_cell_length_b 8.111608
_cell_length_c 21.051864
_cell_angle_alpha 90.000000
_cell_angle_beta 90.000000
_cell_angle_gamma 90.000000
_cell_volume 5100.405097
_symmetry_space_group_name_H-M "C M M M"
_symmetry_group_IT_number 65
_symmetry_cell_setting 'orthorhombic'
loop_
_space_group_symop_operation_xyz
x,y,z
-x,-y,z
x,-y,-z
-x,y,-z
-x,-y,-z
x,y,-z
-x,y,z
x,-y,z
1/2+x,1/2+y,z
1/2-x,1/2-y,z
1/2+x,1/2-y,-z
1/2-x,1/2+y,-z
1/2-x,1/2-y,-z
1/2+x,1/2+y,-z
1/2-x,1/2+y,z
1/2+x,1/2-y,z
loop_
_atom_site_type_symbol
_atom_site_label
_atom_site_fract_x
_atom_site_fract_y
_atom_site_fract_z
Si Si1 0.608587 0.303552 0.121118
Si Si2 0.699604 0.803696 0.168347
Si Si3 0.949213 0.799377 0.762272
Si Si4 0.356806 0.803191 0.568522
Si Si5 0.050559 0.199525 0.616450
Si Si6 0.800890 0.699292 0.688072
Si Si7 0.051141 0.303626 0.000000
O O1 0.606886 0.500000 0.123263
O O2 0.660328 0.252372 0.121802
O O3 0.585565 0.237352 0.185818
O O4 0.579093 0.248546 0.061738
O O5 0.750000 0.750000 0.152001
O O6 0.689143 0.739669 0.240251
O O7 0.699232 0.000000 0.170714
O O8 0.941352 0.747242 0.689758
O O9 0.000000 0.752358 0.780144
O O10 0.947830 0.000000 0.761764
O O11 0.340760 0.738264 0.500000
O O12 0.409360 0.768545 0.575338
O O13 0.332311 0.736781 0.631502
O O14 0.349834 0.000000 0.568471
O O15 0.000000 0.249116 0.598647
O O16 0.052015 0.000000 0.614411
O O17 0.803954 0.500000 0.689545
O O18 0.750000 0.750000 0.674321
O O19 0.048265 0.500000 0.000000
O O20 0.000000 0.236863 0.000000
#
# Coordination Sequence:
#
# PCOD9490606 Si02
#       7
#    16  16  16  16  16  16   8
#     4  11  21  35  59  87 114 147 186 226 271 321
#     4  10  20  36  58  84 113 143 180 226 276 328
#     4   8  15  29  51  79 107 134 169 218 272 322
#     4  10  21  35  49  69 101 139 177 218 268 326
#     4   9  18  33  52  74 100 131 172 222 271 319
#     4   9  19  35  55  79 107 139 176 221 272 325
#     4  11  25  43  60  83 120 161 195 225 261 309
#
# _framework density 20.390536999999998
#
# number of rings (size 3 to 8) (size 9 to 14) (size 15 to 20)
#    0.000    2.385    0.000    3.462    0.000    3.692 
#    0.000    2.692    0.000    1.846    0.000    0.000 
#    0.000    0.000    0.000    0.000    0.000    0.000 
#
# Total GULP energy -290251.572622 kJ/mol
# GULP energy per Si atom -5581.761012 kJ/mol
# Density = 2.034413 g / cm^3
# Si number density = 20.390537 Si / 1000 Ang^3
#
#
#
# Elastic Constant Matrix: (Units=GPa)
#
#
# Indices 1 2 3 4 5 6 
#
# 1 129.5235 8.3437 72.9028 0.0000 0.0000 0.0000
# 2 8.3437 22.8786 11.0143 0.0000 0.0000 0.0000
# 3 72.9028 11.0143 63.4572 0.0000 0.0000 0.0000
# 4 0.0000 0.0000 0.0000 14.0382 0.0000 0.0000
# 5 0.0000 0.0000 0.0000 0.0000 15.4883 0.0000
# 6 0.0000 0.0000 0.0000 0.0000 0.0000 24.4597
#
#
#
# Elastic Compliance Matrix: (Units=1/GPa)
#
#
# Indices 1 2 3 4 5 6 
#
# 1 0.022280 0.004580 -0.026391 0.000000 0.000000 0.000000
# 2 0.004580 0.048636 -0.013703 0.000000 0.000000 0.000000
# 3 -0.026391 -0.013703 0.048457 0.000000 0.000000 0.000000
# 4 0.000000 0.000000 0.000000 0.071234 0.000000 0.000000
# 5 0.000000 0.000000 0.000000 0.000000 0.064565 0.000000
# 6 0.000000 0.000000 0.000000 0.000000 0.000000 0.040884
#
#
# Mechanical properties :
#
#
# Convention : Reuss Voigt Hill
#
# Bulk Modulus (GPa) = 20.68549 44.48677 32.58613
# Shear Modulus (GPa) = 13.04803 19.03714 16.04259
#
# Velocity S-wave (km/s) = 2.53238 3.05884 2.80798
# Velocity P-wave (km/s) = 4.32635 5.86004 5.15060
#
# Compressibility (1/GPa) = 0.04834306
#
# Stress axis : x y z
#
# Youngs Moduli (GPa) = 44.88316 20.56099 20.63687
#
# Poissons Ratio (x) = -0.09417 0.54464
# Poissons Ratio (y) = -0.20556 0.28280
# Poissons Ratio (z) = 1.18453 0.28176
#
# Static dielectric constant tensor:
#      x y z
#    x 1.721300 0.000000 0.000000 
#    y 0.000000 1.712040 0.000000 
#    z 0.000000 0.000000 1.758800 
# 
# From -- ./inp_files/66372.got.cif
#   From: 2010.05.17/outbox.cif.g08.bks.cpg/sg65_34_cif.got.tgz:66372.got - 2010.06.03 17:01:31.
