data_PCOD9490978
_publ_section_title
;
Structure prediction by ZEFSAII (Michael W. Deem and Ramdas Pophale) SiO2 
 PCOD9490978
Probable space group: C M M M
;
_chemical_formula_sum "Si O2"
_cell_formula_units_Z 84
_cell_length_a 13.299762
_cell_length_b 13.571651
_cell_length_c 20.221447
_cell_angle_alpha 90.000000
_cell_angle_beta 90.000000
_cell_angle_gamma 90.000000
_cell_volume 3649.965688
_symmetry_space_group_name_H-M "C M M M"
_symmetry_group_IT_number 65
_symmetry_cell_setting 'orthorhombic'
loop_
_space_group_symop_operation_xyz
x,y,z
-x,-y,z
x,-y,-z
-x,y,-z
-x,-y,-z
x,y,-z
-x,y,z
x,-y,z
1/2+x,1/2+y,z
1/2-x,1/2-y,z
1/2+x,1/2-y,-z
1/2-x,1/2+y,-z
1/2-x,1/2-y,-z
1/2+x,1/2+y,-z
1/2-x,1/2+y,z
1/2+x,1/2-y,z
loop_
_atom_site_type_symbol
_atom_site_label
_atom_site_fract_x
_atom_site_fract_y
_atom_site_fract_z
Si Si1 0.214055 0.143123 0.272915
Si Si2 0.680062 0.394918 0.873394
Si Si3 0.888933 0.684027 0.920823
Si Si4 0.307572 0.500000 0.500000
Si Si5 0.884523 0.172300 0.592906
Si Si6 0.118689 0.393138 0.379142
O O1 0.250000 0.250000 0.250975
O O2 0.173940 0.099053 0.205855
O O3 0.130407 0.153653 0.329324
O O4 0.310304 0.104066 0.314584
O O5 0.647097 0.500000 0.901937
O O6 0.797660 0.376447 0.889799
O O7 0.624849 0.298351 0.900318
O O8 0.000000 0.650117 0.900549
O O9 0.880449 0.677530 0.000000
O O10 0.321557 0.588641 0.556283
O O11 0.859300 0.288987 0.584045
O O12 0.000000 0.157898 0.573599
O O13 0.128995 0.500000 0.415388
O O14 0.000000 0.385761 0.361839
#
# Coordination Sequence:
#
# PCOD9490978 Si02
#       6
#    16  16  16   4  16  16
#     4  10  20  38  62  91 127 161 202 258 318 380
#     4  11  22  38  63  96 130 168 217 274 329 388
#     4  10  23  43  63  89 131 178 221 268 323 389
#     4  12  25  44  64  90 127 170 217 256 310 392
#     4  10  22  39  63  89 119 162 208 258 313 379
#     4   9  19  37  61  88 119 156 199 254 319 379
#
# _framework density 23.013912999999999
#
# number of rings (size 3 to 8) (size 9 to 14) (size 15 to 20)
#    0.000    1.905    1.905    2.571    2.667    3.810 
#    0.000    6.667    0.000    2.286    0.000    0.000 
#    0.000    0.000    0.000    0.000    0.000    0.000 
#
# Total GULP energy -233929.662010 kJ/mol
# GULP energy per Si atom -5569.753857 kJ/mol
# Density = 2.296153 g / cm^3
# Si number density = 23.013913 Si / 1000 Ang^3
#
#
#
# Elastic Constant Matrix: (Units=GPa)
#
#
# Indices 1 2 3 4 5 6 
#
# 1 84.6999 0.4854 0.9496 0.0000 0.0000 0.0000
# 2 0.4854 148.1143 5.9519 0.0000 0.0000 0.0000
# 3 0.9496 5.9519 76.7939 0.0000 0.0000 0.0000
# 4 0.0000 0.0000 0.0000 50.0825 0.0000 0.0000
# 5 0.0000 0.0000 0.0000 0.0000 59.8182 0.0000
# 6 0.0000 0.0000 0.0000 0.0000 0.0000 20.6978
#
#
#
# Elastic Compliance Matrix: (Units=1/GPa)
#
#
# Indices 1 2 3 4 5 6 
#
# 1 0.011808 -0.000033 -0.000143 0.000000 0.000000 0.000000
# 2 -0.000033 0.006773 -0.000525 0.000000 0.000000 0.000000
# 3 -0.000143 -0.000525 0.013064 0.000000 0.000000 0.000000
# 4 0.000000 0.000000 0.000000 0.019967 0.000000 0.000000
# 5 0.000000 0.000000 0.000000 0.000000 0.016717 0.000000
# 6 0.000000 0.000000 0.000000 0.000000 0.000000 0.048314
#
#
# Mechanical properties :
#
#
# Convention : Reuss Voigt Hill
#
# Bulk Modulus (GPa) = 33.06507 36.04244 34.55375
# Shear Modulus (GPa) = 39.02381 46.26778 42.64579
#
# Velocity S-wave (km/s) = 4.12231 4.48864 4.30937
# Velocity P-wave (km/s) = 6.08741 6.52373 6.30934
#
# Compressibility (1/GPa) = 0.03024339
#
# Stress axis : x y z
#
# Youngs Moduli (GPa) = 84.68700 147.65098 76.54453
#
# Poissons Ratio (x) = 0.00486 0.01098
# Poissons Ratio (y) = 0.00279 0.04015
# Poissons Ratio (z) = 0.01215 0.07744
#
# Static dielectric constant tensor:
#      x y z
#    x 1.901290 0.000000 0.000000 
#    y 0.000000 1.947670 0.000000 
#    z 0.000000 0.000000 1.832970 
# 
# From -- ./inp_files/62467.got.cif
#   From: 2010.05.17/outbox.cif.g08.bks.cpg/sg65_32_cif.got.tgz:62467.got - 2010.06.03 17:01:31.
