data_PCOD9490897
_publ_section_title
;
Structure prediction by ZEFSAII (Michael W. Deem and Ramdas Pophale) SiO2 
 PCOD9490897
Probable space group: C M M M
;
_chemical_formula_sum "Si O2"
_cell_formula_units_Z 88
_cell_length_a 23.176412
_cell_length_b 9.915556
_cell_length_c 21.318922
_cell_angle_alpha 90.000000
_cell_angle_beta 90.000000
_cell_angle_gamma 90.000000
_cell_volume 4899.237744
_symmetry_space_group_name_H-M "C M M M"
_symmetry_group_IT_number 65
_symmetry_cell_setting 'orthorhombic'
loop_
_space_group_symop_operation_xyz
x,y,z
-x,-y,z
x,-y,-z
-x,y,-z
-x,-y,-z
x,y,-z
-x,y,z
x,-y,z
1/2+x,1/2+y,z
1/2-x,1/2-y,z
1/2+x,1/2-y,-z
1/2-x,1/2+y,-z
1/2-x,1/2-y,-z
1/2+x,1/2+y,-z
1/2-x,1/2+y,z
1/2+x,1/2-y,z
loop_
_atom_site_type_symbol
_atom_site_label
_atom_site_fract_x
_atom_site_fract_y
_atom_site_fract_z
Si Si1 0.833426 0.500000 0.425979
Si Si2 0.500000 0.661321 0.201447
Si Si3 0.000000 0.161900 0.658351
Si Si4 0.889858 0.839149 0.116926
Si Si5 0.371467 0.267396 0.357422
Si Si6 0.692157 0.661823 0.768338
Si Si7 0.070428 0.663341 0.000000
Si Si8 0.695412 0.500000 0.572415
O O1 0.849824 0.500000 0.500000
O O2 0.856107 0.626320 0.387495
O O3 0.764108 0.500000 0.423645
O O4 0.500000 0.500000 0.209303
O O5 0.500000 0.719107 0.270719
O O6 0.556296 0.692519 0.162047
O O7 0.938800 0.204583 0.630828
O O8 0.000000 0.000000 0.658877
O O9 0.834456 0.820652 0.161886
O O10 0.892662 0.000000 0.099112
O O11 0.899713 0.738804 0.059017
O O12 0.353635 0.288776 0.284491
O O13 0.331495 0.372704 0.393606
O O14 0.701439 0.500000 0.758980
O O15 0.750000 0.750000 0.760824
O O16 0.078378 0.500000 0.000000
O O17 0.000000 0.687574 0.000000
O O18 0.678636 0.500000 0.500000
#
# Coordination Sequence:
#
# PCOD9490897 Si02
#       8
#     8   8   8  16  16  16   8   8
#     4  11  26  45  63  87 127 169 209 264 316 374
#     4   9  16  31  57  87 118 150 193 248 295 350
#     4  11  20  39  63  93 130 161 200 263 316 377
#     4  10  20  37  62  90 118 160 209 247 298 364
#     4  12  23  40  65  95 124 164 211 258 319 376
#     4  11  23  39  63  95 126 158 207 262 312 371
#     4  11  23  37  56  89 132 165 200 252 309 368
#     4  11  22  41  67  93 121 161 213 260 310 374
#
# _framework density 17.961978999999999
#
# number of rings (size 3 to 8) (size 9 to 14) (size 15 to 20)
#    0.000    1.182    4.545    2.455    1.273    2.909 
#    0.000    3.182    2.000    0.000    0.000    0.000 
#    0.000    0.000    0.000    0.000    0.000    0.000 
#
# Total GULP energy -245433.811383 kJ/mol
# GULP energy per Si atom -5578.041168 kJ/mol
# Density = 1.792110 g / cm^3
# Si number density = 17.961979 Si / 1000 Ang^3
#
#
#
# Elastic Constant Matrix: (Units=GPa)
#
#
# Indices 1 2 3 4 5 6 
#
# 1 95.9907 45.2622 29.8671 0.0000 0.0000 0.0000
# 2 45.2622 141.6893 64.0314 0.0000 0.0000 0.0000
# 3 29.8671 64.0314 103.7341 0.0000 0.0000 0.0000
# 4 0.0000 0.0000 0.0000 33.1401 0.0000 0.0000
# 5 0.0000 0.0000 0.0000 0.0000 29.9472 0.0000
# 6 0.0000 0.0000 0.0000 0.0000 0.0000 11.8638
#
#
#
# Elastic Compliance Matrix: (Units=1/GPa)
#
#
# Indices 1 2 3 4 5 6 
#
# 1 0.012446 -0.003268 -0.001566 0.000000 0.000000 0.000000
# 2 -0.003268 0.010646 -0.005631 0.000000 0.000000 0.000000
# 3 -0.001566 -0.005631 0.013567 0.000000 0.000000 0.000000
# 4 0.000000 0.000000 0.000000 0.030175 0.000000 0.000000
# 5 0.000000 0.000000 0.000000 0.000000 0.033392 0.000000
# 6 0.000000 0.000000 0.000000 0.000000 0.000000 0.084290
#
#
# Mechanical properties :
#
#
# Convention : Reuss Voigt Hill
#
# Bulk Modulus (GPa) = 63.57665 68.85952 66.21808
# Shear Modulus (GPa) = 23.73174 28.47378 26.10276
#
# Velocity S-wave (km/s) = 3.63880 3.98581 3.81625
# Velocity P-wave (km/s) = 7.28879 7.72021 7.50760
#
# Compressibility (1/GPa) = 0.01572904
#
# Stress axis : x y z
#
# Youngs Moduli (GPa) = 80.34736 93.93019 73.71077
#
# Poissons Ratio (x) = 0.30697 0.11545
# Poissons Ratio (y) = 0.26258 0.41504
# Poissons Ratio (z) = 0.12584 0.52888
#
# Static dielectric constant tensor:
#      x y z
#    x 1.607610 0.000000 0.000000 
#    y 0.000000 1.608240 0.000000 
#    z 0.000000 0.000000 1.637160 
# 
# From -- ./inp_files/65289.got.cif
#   From: 2010.05.17/outbox.cif.g08.bks.cpg/sg65_33_cif.got.tgz:65289.got - 2010.06.03 17:01:31.
