data_PCOD9490110
_publ_section_title
;
Structure prediction by ZEFSAII (Michael W. Deem and Ramdas Pophale) SiO2 
 PCOD9490110
Probable space group: C M M M
;
_chemical_formula_sum "Si O2"
_cell_formula_units_Z 80
_cell_length_a 24.919741
_cell_length_b 24.055944
_cell_length_c 7.811057
_cell_angle_alpha 90.000000
_cell_angle_beta 90.000000
_cell_angle_gamma 90.000000
_cell_volume 4682.477890
_symmetry_space_group_name_H-M "C M M M"
_symmetry_group_IT_number 65
_symmetry_cell_setting 'orthorhombic'
loop_
_space_group_symop_operation_xyz
x,y,z
-x,-y,z
x,-y,-z
-x,y,-z
-x,-y,-z
x,y,-z
-x,y,z
x,-y,z
1/2+x,1/2+y,z
1/2-x,1/2-y,z
1/2+x,1/2-y,-z
1/2-x,1/2+y,-z
1/2-x,1/2-y,-z
1/2+x,1/2+y,-z
1/2-x,1/2+y,z
1/2+x,1/2-y,z
loop_
_atom_site_type_symbol
_atom_site_label
_atom_site_fract_x
_atom_site_fract_y
_atom_site_fract_z
Si Si1 0.935928 0.839644 0.702058
Si Si2 0.143767 0.936635 0.705550
Si Si3 0.935583 0.371946 0.000000
Si Si4 0.122989 0.433282 0.306203
Si Si5 0.260982 0.935446 0.796766
Si Si6 0.064911 0.755889 0.000000
O O1 0.925275 0.828126 0.500000
O O2 0.903385 0.894744 0.754830
O O3 0.000000 0.848375 0.718985
O O4 0.919694 0.790070 0.829753
O O5 0.142875 0.940114 0.500000
O O6 0.202082 0.912662 0.756674
O O7 0.137902 0.000000 0.773375
O O8 0.912513 0.402820 0.166211
O O9 0.917008 0.307751 0.000000
O O10 0.000000 0.373907 0.000000
O O11 0.104368 0.424168 0.500000
O O12 0.122853 0.500000 0.272934
O O13 0.184930 0.413449 0.288453
O O14 0.256979 0.000000 0.740378
O O15 0.269671 0.933913 0.000000
O O16 0.000000 0.754178 0.000000
#
# Coordination Sequence:
#
# PCOD9490110 Si02
#       6
#    16  16   8  16  16   8
#     4   9  18  33  52  73 101 138 176 216 261 304
#     4   9  17  28  46  76 108 137 172 213 257 304
#     4  11  23  38  56  79 105 132 166 209 252 300
#     4  10  20  35  56  81 109 138 164 196 246 305
#     4   9  16  28  48  74 105 139 172 204 241 294
#     4   9  20  37  54  71  94 131 179 219 250 292
#
# _framework density 17.084970999999999
#
# number of rings (size 3 to 8) (size 9 to 14) (size 15 to 20)
#    0.000    2.600    1.000    0.900    1.400    4.800 
#    0.000    5.000    0.000    4.200    0.000    4.200 
#    0.000    0.000    0.000    0.000    0.000    0.000 
#
# Total GULP energy -222830.302924 kJ/mol
# GULP energy per Si atom -5570.757573 kJ/mol
# Density = 1.704608 g / cm^3
# Si number density = 17.084971 Si / 1000 Ang^3
#
#
#
# Elastic Constant Matrix: (Units=GPa)
#
#
# Indices 1 2 3 4 5 6 
#
# 1 78.8076 47.8097 48.9138 0.0000 0.0000 0.0000
# 2 47.8097 89.6057 63.2230 0.0000 0.0000 0.0000
# 3 48.9138 63.2230 86.5314 0.0000 0.0000 0.0000
# 4 0.0000 0.0000 0.0000 15.0159 0.0000 0.0000
# 5 0.0000 0.0000 0.0000 0.0000 23.2730 0.0000
# 6 0.0000 0.0000 0.0000 0.0000 0.0000 -6.3597
#
#
#
# Elastic Compliance Matrix: (Units=1/GPa)
#
#
# Indices 1 2 3 4 5 6 
#
# 1 0.020920 -0.005817 -0.007575 0.000000 0.000000 0.000000
# 2 -0.005817 0.024652 -0.014724 0.000000 0.000000 0.000000
# 3 -0.007575 -0.014724 0.026596 0.000000 0.000000 0.000000
# 4 0.000000 0.000000 0.000000 0.066596 0.000000 0.000000
# 5 0.000000 0.000000 0.000000 0.000000 0.042968 0.000000
# 6 0.000000 0.000000 0.000000 0.000000 0.000000 -0.157241
#
#
# Mechanical properties :
#
#
# Convention : Reuss Voigt Hill
#
# Bulk Modulus (GPa) = 62.74924 63.87086 63.31005
# Shear Modulus (GPa) = 58.11550 12.71906 35.41728
#
# Velocity S-wave (km/s) = 5.83861 2.73144 4.55797
# Velocity P-wave (km/s) = 9.06973 6.88571 8.05211
#
# Compressibility (1/GPa) = 0.01593645
#
# Stress axis : x y z
#
# Youngs Moduli (GPa) = 47.80133 40.56423 37.59938
#
# Poissons Ratio (x) = 0.23597 0.28483
# Poissons Ratio (y) = 0.27806 0.55360
# Poissons Ratio (z) = 0.36211 0.59725
#
# Static dielectric constant tensor:
#      x y z
#    x 1.591650 0.000000 0.000000 
#    y 0.000000 1.566060 0.000000 
#    z 0.000000 0.000000 1.592700 
# 
# From -- ./inp_files/13855.got.cif
#   From: 2010.05.17/outbox.cif.g08.bks.cpg/sg65_7_cif.got.tgz:13855.got - 2010.06.03 17:01:31.
