data_PCOD9490911
_publ_section_title
;
Structure prediction by ZEFSAII (Michael W. Deem and Ramdas Pophale) SiO2 
 PCOD9490911
Probable space group: C M M M
;
_chemical_formula_sum "Si O2"
_cell_formula_units_Z 64
_cell_length_a 18.340552
_cell_length_b 7.583044
_cell_length_c 25.233331
_cell_angle_alpha 90.000000
_cell_angle_beta 90.000000
_cell_angle_gamma 90.000000
_cell_volume 3509.381345
_symmetry_space_group_name_H-M "C M M M"
_symmetry_group_IT_number 65
_symmetry_cell_setting 'orthorhombic'
loop_
_space_group_symop_operation_xyz
x,y,z
-x,-y,z
x,-y,-z
-x,y,-z
-x,-y,-z
x,y,-z
-x,y,z
x,-y,z
1/2+x,1/2+y,z
1/2-x,1/2-y,z
1/2+x,1/2-y,-z
1/2-x,1/2+y,-z
1/2-x,1/2-y,-z
1/2+x,1/2+y,-z
1/2-x,1/2+y,z
1/2+x,1/2-y,z
loop_
_atom_site_type_symbol
_atom_site_label
_atom_site_fract_x
_atom_site_fract_y
_atom_site_fract_z
Si Si1 0.588619 0.500000 0.252627
Si Si2 0.587707 0.794391 0.665092
Si Si3 0.912545 0.000000 0.869274
Si Si4 0.335700 0.792681 0.938250
Si Si5 0.164263 0.711342 0.558221
O O1 0.500000 0.500000 0.251703
O O2 0.611199 0.328566 0.286287
O O3 0.612641 0.500000 0.191914
O O4 0.500000 0.786611 0.661088
O O5 0.621429 0.726731 0.609877
O O6 0.608108 0.000000 0.672819
O O7 0.881802 0.169809 0.899853
O O8 0.000000 0.000000 0.870497
O O9 0.250000 0.750000 0.931400
O O10 0.347458 0.000000 0.928909
O O11 0.353335 0.754337 0.000000
O O12 0.141283 0.779412 0.500000
O O13 0.154592 0.500000 0.557120
O O14 0.250000 0.750000 0.563975
#
# Coordination Sequence:
#
# PCOD9490911 Si02
#       5
#     8  16   8  16  16
#     4   9  20  37  55  77 107 145 183 222 274 320
#     4   9  18  34  55  75  99 135 179 222 264 320
#     4  11  23  38  59  89 123 155 195 247 289 333
#     4  10  20  37  63  89 118 158 194 231 289 351
#     4   9  18  31  49  73 101 133 165 210 275 331
#
# _framework density 18.236833000000001
#
# number of rings (size 3 to 8) (size 9 to 14) (size 15 to 20)
#    0.000    2.500    1.250    0.375    1.750    3.000 
#    0.000    7.500    0.000    2.250    0.000    0.000 
#    0.000    0.000    0.000    0.000    0.000    0.000 
#
# Total GULP energy -178488.509107 kJ/mol
# GULP energy per Si atom -5577.765910 kJ/mol
# Density = 1.819533 g / cm^3
# Si number density = 18.236833 Si / 1000 Ang^3
#
#
#
# Elastic Constant Matrix: (Units=GPa)
#
#
# Indices 1 2 3 4 5 6 
#
# 1 32.3280 31.4626 60.6852 0.0000 0.0000 0.0000
# 2 31.4626 108.2071 97.2322 0.0000 0.0000 0.0000
# 3 60.6852 97.2322 194.8763 0.0000 0.0000 0.0000
# 4 0.0000 0.0000 0.0000 47.9123 0.0000 0.0000
# 5 0.0000 0.0000 0.0000 0.0000 689.7183 0.0000
# 6 0.0000 0.0000 0.0000 0.0000 0.0000 23.8098
#
#
#
# Elastic Compliance Matrix: (Units=1/GPa)
#
#
# Indices 1 2 3 4 5 6 
#
# 1 0.074588 -0.001480 -0.022489 0.000000 0.000000 0.000000
# 2 -0.001480 0.016782 -0.007912 0.000000 0.000000 0.000000
# 3 -0.022489 -0.007912 0.016082 0.000000 0.000000 0.000000
# 4 0.000000 0.000000 0.000000 0.020871 0.000000 0.000000
# 5 0.000000 0.000000 0.000000 0.000000 0.001450 0.000000
# 6 0.000000 0.000000 0.000000 0.000000 0.000000 0.041999
#
#
# Mechanical properties :
#
#
# Convention : Reuss Voigt Hill
#
# Bulk Modulus (GPa) = 22.88808 79.35237 51.12022
# Shear Modulus (GPa) = 19.99214 162.02352 91.00783
#
# Velocity S-wave (km/s) = 3.31456 9.43594 7.07189
# Velocity P-wave (km/s) = 5.21787 12.74059 9.73521
#
# Compressibility (1/GPa) = 0.04369087
#
# Stress axis : x y z
#
# Youngs Moduli (GPa) = 13.40690 59.58935 62.17990
#
# Poissons Ratio (x) = 0.08817 1.39836
# Poissons Ratio (y) = 0.01984 0.49199
# Poissons Ratio (z) = 0.30151 0.47149
#
# Static dielectric constant tensor:
#      x y z
#    x 1.597380 0.000000 0.000000 
#    y 0.000000 1.645000 0.000000 
#    z 0.000000 0.000000 1.624740 
# 
# From -- ./inp_files/63270.got.cif
#   From: 2010.05.17/outbox.cif.g08.bks.cpg/sg65_32_cif.got.tgz:63270.got - 2010.06.03 17:01:31.
