data_PCOD9490671
_publ_section_title
;
Structure prediction by ZEFSAII (Michael W. Deem and Ramdas Pophale) SiO2 
 PCOD9490671
Probable space group: C M M M
;
_chemical_formula_sum "Si O2"
_cell_formula_units_Z 104
_cell_length_a 7.914668
_cell_length_b 30.992128
_cell_length_c 20.812509
_cell_angle_alpha 90.000000
_cell_angle_beta 90.000000
_cell_angle_gamma 90.000000
_cell_volume 5105.150360
_symmetry_space_group_name_H-M "C M M M"
_symmetry_group_IT_number 65
_symmetry_cell_setting 'orthorhombic'
loop_
_space_group_symop_operation_xyz
x,y,z
-x,-y,z
x,-y,-z
-x,y,-z
-x,-y,-z
x,y,-z
-x,y,z
x,-y,z
1/2+x,1/2+y,z
1/2-x,1/2-y,z
1/2+x,1/2-y,-z
1/2-x,1/2+y,-z
1/2-x,1/2-y,-z
1/2+x,1/2+y,-z
1/2-x,1/2+y,z
1/2+x,1/2-y,z
loop_
_atom_site_type_symbol
_atom_site_label
_atom_site_fract_x
_atom_site_fract_y
_atom_site_fract_z
Si Si1 0.190571 0.000000 0.924856
Si Si2 0.198982 0.172813 0.072270
Si Si3 0.297620 0.362681 0.315549
Si Si4 0.199601 0.950881 0.727047
Si Si5 0.203781 0.796996 0.793011
Si Si6 0.694398 0.085291 0.135970
Si Si7 0.298445 0.798276 0.426889
O O1 0.289663 0.957776 0.905049
O O2 0.000000 0.000000 0.895114
O O3 0.170929 0.000000 0.000000
O O4 0.270580 0.198519 0.133800
O O5 0.217379 0.123652 0.097043
O O6 0.000000 0.182952 0.067953
O O7 0.270544 0.178541 0.000000
O O8 0.500000 0.365610 0.307580
O O9 0.231445 0.411936 0.317419
O O10 0.233408 0.334864 0.254138
O O11 0.263843 0.334507 0.378305
O O12 0.223049 0.929328 0.797080
O O13 0.000000 0.955190 0.714631
O O14 0.270678 0.000000 0.724919
O O15 0.250000 0.750000 0.767266
O O16 0.000000 0.800517 0.795426
O O17 0.500000 0.097237 0.146658
O O18 0.233092 0.803659 0.500000
O O19 0.500000 0.800496 0.428557
O O20 0.250000 0.750000 0.405234
#
# Coordination Sequence:
#
# PCOD9490671 Si02
#       7
#     8  16  16  16  16  16  16
#     4  11  23  37  53  71  97 139 182 223 284 357
#     4  10  21  39  58  72  97 143 190 230 282 349
#     4  10  20  36  59  87 117 150 191 237 281 330
#     4  10  20  37  61  83 110 150 192 230 276 338
#     4  10  21  36  54  80 109 141 186 234 282 339
#     4  12  23  34  52  79 107 134 174 234 294 343
#     4  10  21  37  59  90 126 161 195 230 275 334
#
# _framework density 20.371583999999999
#
# number of rings (size 3 to 8) (size 9 to 14) (size 15 to 20)
#    0.000    1.615    2.308    3.000    0.000    7.077 
#    0.000    0.000    0.000    0.462    0.000    3.231 
#    0.000    0.000    0.000    0.000    0.000    0.000 
#
# Total GULP energy -290150.370593 kJ/mol
# GULP energy per Si atom -5579.814819 kJ/mol
# Density = 2.032522 g / cm^3
# Si number density = 20.371584 Si / 1000 Ang^3
#
#
#
# Elastic Constant Matrix: (Units=GPa)
#
#
# Indices 1 2 3 4 5 6 
#
# 1 30.9965 2.9968 2.4770 0.0000 0.0000 0.0000
# 2 2.9968 126.4689 59.0050 0.0000 0.0000 0.0000
# 3 2.4770 59.0050 95.3493 0.0000 0.0000 0.0000
# 4 0.0000 0.0000 0.0000 31.2925 0.0000 0.0000
# 5 0.0000 0.0000 0.0000 0.0000 6.8038 0.0000
# 6 0.0000 0.0000 0.0000 0.0000 0.0000 21.2344
#
#
#
# Elastic Compliance Matrix: (Units=1/GPa)
#
#
# Indices 1 2 3 4 5 6 
#
# 1 0.032354 -0.000527 -0.000515 0.000000 0.000000 0.000000
# 2 -0.000527 0.011125 -0.006871 0.000000 0.000000 0.000000
# 3 -0.000515 -0.006871 0.014753 0.000000 0.000000 0.000000
# 4 0.000000 0.000000 0.000000 0.031957 0.000000 0.000000
# 5 0.000000 0.000000 0.000000 0.000000 0.146978 0.000000
# 6 0.000000 0.000000 0.000000 0.000000 0.000000 0.047093
#
#
# Mechanical properties :
#
#
# Convention : Reuss Voigt Hill
#
# Bulk Modulus (GPa) = 23.58057 42.41915 32.99986
# Shear Modulus (GPa) = 15.91242 24.42185 20.16714
#
# Velocity S-wave (km/s) = 2.79786 3.46615 3.14978
# Velocity P-wave (km/s) = 4.69444 6.07346 5.42792
#
# Compressibility (1/GPa) = 0.04240780
#
# Stress axis : x y z
#
# Youngs Moduli (GPa) = 30.90829 89.88555 67.78249
#
# Poissons Ratio (x) = 0.04733 0.03488
# Poissons Ratio (y) = 0.01627 0.46573
# Poissons Ratio (z) = 0.01591 0.61760
#
# Static dielectric constant tensor:
#      x y z
#    x 1.785570 0.000000 0.000000 
#    y 0.000000 1.751040 0.000000 
#    z 0.000000 0.000000 1.746750 
# 
# From -- ./inp_files/60892.got.cif
#   From: 2010.05.17/outbox.cif.g08.bks.cpg/sg65_31_cif.got.tgz:60892.got - 2010.06.03 17:01:31.
