data_PCOD9490102
_publ_section_title
;
Structure prediction by ZEFSAII (Michael W. Deem and Ramdas Pophale) SiO2 
 PCOD9490102
Probable space group: C M M M
;
_chemical_formula_sum "Si O2"
_cell_formula_units_Z 72
_cell_length_a 18.719588
_cell_length_b 8.358818
_cell_length_c 24.694903
_cell_angle_alpha 90.000000
_cell_angle_beta 90.000000
_cell_angle_gamma 90.000000
_cell_volume 3864.101093
_symmetry_space_group_name_H-M "C M M M"
_symmetry_group_IT_number 65
_symmetry_cell_setting 'orthorhombic'
loop_
_space_group_symop_operation_xyz
x,y,z
-x,-y,z
x,-y,-z
-x,y,-z
-x,-y,-z
x,y,-z
-x,y,z
x,-y,z
1/2+x,1/2+y,z
1/2-x,1/2-y,z
1/2+x,1/2-y,-z
1/2-x,1/2+y,-z
1/2-x,1/2-y,-z
1/2+x,1/2+y,-z
1/2-x,1/2+y,z
1/2+x,1/2-y,z
loop_
_atom_site_type_symbol
_atom_site_label
_atom_site_fract_x
_atom_site_fract_y
_atom_site_fract_z
Si Si1 0.913504 0.690489 0.058178
Si Si2 0.583338 0.190869 0.500000
Si Si3 0.417510 0.308887 0.385068
Si Si4 0.169153 0.308511 0.718601
Si Si5 0.916810 0.304298 0.176085
O O1 0.898269 0.500000 0.057358
O O2 0.889801 0.752669 0.116906
O O3 0.000000 0.704781 0.058929
O O4 0.888492 0.757884 0.000000
O O5 0.500000 0.245200 0.500000
O O6 0.613061 0.253121 0.556886
O O7 0.585309 0.000000 0.500000
O O8 0.500000 0.250146 0.380635
O O9 0.418600 0.500000 0.384526
O O10 0.372800 0.247687 0.334504
O O11 0.168113 0.500000 0.719628
O O12 0.250000 0.250000 0.717374
O O13 0.129347 0.249961 0.773040
O O14 0.915711 0.500000 0.174881
O O15 0.000000 0.258316 0.182862
#
# Coordination Sequence:
#
# PCOD9490102 Si02
#       5
#    16   8  16  16  16
#     4   7   9  15  31  58  90 118 146 189 245 297
#     4   9  17  31  54  83 110 135 164 197 237 287
#     4  10  20  35  56  81 107 133 164 203 246 293
#     4  11  22  35  50  69  98 135 173 212 254 298
#     4   8  14  25  43  67  92 121 160 204 249 298
#
# _framework density 18.633054000000001
#
# number of rings (size 3 to 8) (size 9 to 14) (size 15 to 20)
#    0.000    3.000    0.000    4.333    0.000    3.556 
#    0.000    0.556    0.000    0.667    0.000    0.000 
#    0.000    2.667    0.000   25.111    0.000   20.667 
#
# Total GULP energy -200511.400864 kJ/mol
# GULP energy per Si atom -5569.761135 kJ/mol
# Density = 1.859064 g / cm^3
# Si number density = 18.633054 Si / 1000 Ang^3
#
#
#
# Elastic Constant Matrix: (Units=GPa)
#
#
# Indices 1 2 3 4 5 6 
#
# 1 64.8304 10.6449 80.7539 0.0000 0.0000 0.0000
# 2 10.6449 20.6535 30.1763 0.0000 0.0000 0.0000
# 3 80.7539 30.1763 251.8454 0.0000 0.0000 0.0000
# 4 0.0000 0.0000 0.0000 0.5226 0.0000 0.0000
# 5 0.0000 0.0000 0.0000 0.0000 -4.7595 0.0000
# 6 0.0000 0.0000 0.0000 0.0000 0.0000 8.6257
#
#
#
# Elastic Compliance Matrix: (Units=1/GPa)
#
#
# Indices 1 2 3 4 5 6 
#
# 1 0.025719 -0.001463 -0.008072 0.000000 0.000000 0.000000
# 2 -0.001463 0.058776 -0.006574 0.000000 0.000000 0.000000
# 3 -0.008072 -0.006574 0.007346 0.000000 0.000000 0.000000
# 4 0.000000 0.000000 0.000000 1.913569 0.000000 0.000000
# 5 0.000000 0.000000 0.000000 0.000000 -0.210106 0.000000
# 6 0.000000 0.000000 0.000000 0.000000 0.000000 0.115933
#
#
# Mechanical properties :
#
#
# Convention : Reuss Voigt Hill
#
# Bulk Modulus (GPa) = 16.77112 64.49772 40.63442
# Shear Modulus (GPa) = 2.54670 15.26136 8.90403
#
# Velocity S-wave (km/s) = 1.17035 2.86501 2.18838
# Velocity P-wave (km/s) = 3.29341 6.75531 5.31417
#
# Compressibility (1/GPa) = 0.05962632
#
# Stress axis : x y z
#
# Youngs Moduli (GPa) = 38.88163 17.01365 136.11973
#
# Poissons Ratio (x) = 0.02488 1.09870
# Poissons Ratio (y) = 0.05687 0.89480
# Poissons Ratio (z) = 0.31383 0.11184
#
# Static dielectric constant tensor:
#      x y z
#    x 1.610040 0.000000 0.000000 
#    y 0.000000 1.630660 0.000000 
#    z 0.000000 0.000000 1.695640 
# 
# From -- ./inp_files/64333.got.cif
#   From: 2010.05.17/outbox.cif.g08.bks.cpg/sg65_33_cif.got.tgz:64333.got - 2010.06.03 17:01:31.
