data_PCOD9490040
_publ_section_title
;
Structure prediction by ZEFSAII (Michael W. Deem and Ramdas Pophale) SiO2 
 PCOD9490040
Probable space group: C M M M
;
_chemical_formula_sum "Si O2"
_cell_formula_units_Z 76
_cell_length_a 14.597853
_cell_length_b 24.903230
_cell_length_c 11.923482
_cell_angle_alpha 90.000000
_cell_angle_beta 90.000000
_cell_angle_gamma 90.000000
_cell_volume 4334.587418
_symmetry_space_group_name_H-M "C M M M"
_symmetry_group_IT_number 65
_symmetry_cell_setting 'orthorhombic'
loop_
_space_group_symop_operation_xyz
x,y,z
-x,-y,z
x,-y,-z
-x,y,-z
-x,-y,-z
x,y,-z
-x,y,z
x,-y,z
1/2+x,1/2+y,z
1/2-x,1/2-y,z
1/2+x,1/2-y,-z
1/2-x,1/2+y,-z
1/2-x,1/2-y,-z
1/2+x,1/2+y,-z
1/2-x,1/2+y,z
1/2+x,1/2-y,z
loop_
_atom_site_type_symbol
_atom_site_label
_atom_site_fract_x
_atom_site_fract_y
_atom_site_fract_z
Si Si1 0.000000 0.940246 0.863235
Si Si2 0.500000 0.132082 0.500000
Si Si3 0.861588 0.250854 0.250232
Si Si4 0.500000 0.935067 0.268171
Si Si5 0.859147 0.269720 0.500000
Si Si6 0.364083 0.862673 0.134129
Si Si7 0.647842 0.642714 0.867085
O O1 0.911098 0.907419 0.828015
O O2 0.000000 0.000000 0.820004
O O3 0.000000 0.942143 0.000000
O O4 0.500000 0.094559 0.389271
O O5 0.592650 0.170136 0.500000
O O6 0.750000 0.250000 0.246765
O O7 0.890933 0.248965 0.379324
O O8 0.891992 0.305484 0.189062
O O9 0.888210 0.197059 0.187493
O O10 0.414776 0.910884 0.197258
O O11 0.500000 0.000000 0.275686
O O12 0.750000 0.250000 0.500000
O O13 0.255147 0.865997 0.153317
O O14 0.381414 0.862814 0.000000
O O15 0.636523 0.648531 0.000000
#
# Coordination Sequence:
#
# PCOD9490040 Si02
#       7
#     8   4  16   8   8  16  16
#     4   9  18  32  50  75 106 143 187 223 254 310
#     4  12  23  44  64  82 110 148 183 232 294 332
#     4   9  17  32  54  83 112 140 173 220 279 338
#     4  12  26  41  57  79 107 150 202 239 270 326
#     4  10  20  35  61  88 110 139 179 225 275 334
#     4  10  20  35  55  81 115 148 178 228 285 333
#     4   9  18  32  54  83 115 147 178 221 282 342
#
# _framework density 17.533387999999999
#
# number of rings (size 3 to 8) (size 9 to 14) (size 15 to 20)
#    0.000    2.211    2.105    1.105    0.000    5.895 
#    0.000    4.211    0.000    0.000    0.000    1.474 
#    0.000    0.000    0.000    0.000    0.000    0.000 
#
# Total GULP energy -211636.331705 kJ/mol
# GULP energy per Si atom -5569.377150 kJ/mol
# Density = 1.749348 g / cm^3
# Si number density = 17.533388 Si / 1000 Ang^3
#
#
#
# Elastic Constant Matrix: (Units=GPa)
#
#
# Indices 1 2 3 4 5 6 
#
# 1 92.8116 66.9824 52.7137 0.0000 0.0000 0.0000
# 2 66.9824 174.8558 62.4311 0.0000 0.0000 0.0000
# 3 52.7137 62.4311 90.6741 0.0000 0.0000 0.0000
# 4 0.0000 0.0000 0.0000 24.6267 0.0000 0.0000
# 5 0.0000 0.0000 0.0000 0.0000 30.9862 0.0000
# 6 0.0000 0.0000 0.0000 0.0000 0.0000 27.6932
#
#
#
# Elastic Compliance Matrix: (Units=1/GPa)
#
#
# Indices 1 2 3 4 5 6 
#
# 1 0.018174 -0.004229 -0.007653 0.000000 0.000000 0.000000
# 2 -0.004229 0.008567 -0.003440 0.000000 0.000000 0.000000
# 3 -0.007653 -0.003440 0.017846 0.000000 0.000000 0.000000
# 4 0.000000 0.000000 0.000000 0.040606 0.000000 0.000000
# 5 0.000000 0.000000 0.000000 0.000000 0.032272 0.000000
# 6 0.000000 0.000000 0.000000 0.000000 0.000000 0.036110
#
#
# Mechanical properties :
#
#
# Convention : Reuss Voigt Hill
#
# Bulk Modulus (GPa) = 71.72608 80.28842 76.00725
# Shear Modulus (GPa) = 26.47336 28.40882 27.44109
#
# Velocity S-wave (km/s) = 3.88994 4.02962 3.96040
# Velocity P-wave (km/s) = 7.82129 8.21837 8.02229
#
# Compressibility (1/GPa) = 0.01394193
#
# Stress axis : x y z
#
# Youngs Moduli (GPa) = 55.02483 116.72186 56.03352
#
# Poissons Ratio (x) = 0.49364 0.42885
# Poissons Ratio (y) = 0.23271 0.19276
# Poissons Ratio (z) = 0.42113 0.40154
#
# Static dielectric constant tensor:
#      x y z
#    x 1.683430 0.000000 0.000000 
#    y 0.000000 1.573710 0.000000 
#    z 0.000000 0.000000 1.577960 
# 
# From -- ./inp_files/24720.got.cif
#   From: 2010.05.17/outbox.cif.g08.bks.cpg/sg65_13_cif.got.tgz:24720.got - 2010.06.03 17:01:31.
