data_PCOD9490327
_publ_section_title
;
Structure prediction by ZEFSAII (Michael W. Deem and Ramdas Pophale) SiO2 
 PCOD9490327
Probable space group: C M M M
;
_chemical_formula_sum "Si O2"
_cell_formula_units_Z 88
_cell_length_a 8.705548
_cell_length_b 23.980484
_cell_length_c 23.192479
_cell_angle_alpha 90.000000
_cell_angle_beta 90.000000
_cell_angle_gamma 90.000000
_cell_volume 4841.737397
_symmetry_space_group_name_H-M "C M M M"
_symmetry_group_IT_number 65
_symmetry_cell_setting 'orthorhombic'
loop_
_space_group_symop_operation_xyz
x,y,z
-x,-y,z
x,-y,-z
-x,y,-z
-x,-y,-z
x,y,-z
-x,y,z
x,-y,z
1/2+x,1/2+y,z
1/2-x,1/2-y,z
1/2+x,1/2-y,-z
1/2-x,1/2+y,-z
1/2-x,1/2-y,-z
1/2+x,1/2+y,-z
1/2-x,1/2+y,z
1/2+x,1/2-y,z
loop_
_atom_site_type_symbol
_atom_site_label
_atom_site_fract_x
_atom_site_fract_y
_atom_site_fract_z
Si Si1 0.317801 0.500000 0.858110
Si Si2 0.316856 0.811750 0.774978
Si Si3 0.682636 0.387921 0.321717
Si Si4 0.181249 0.500000 0.733421
Si Si5 0.185801 0.188028 0.000000
Si Si6 0.683968 0.375908 0.115277
Si Si7 0.815276 0.434931 0.566760
O O1 0.500000 0.500000 0.841663
O O2 0.215825 0.500000 0.801022
O O3 0.288499 0.442034 0.890314
O O4 0.500000 0.809888 0.774150
O O5 0.250000 0.750000 0.783556
O O6 0.255581 0.838259 0.715461
O O7 0.261746 0.850891 0.827715
O O8 0.500000 0.384695 0.317954
O O9 0.742666 0.444912 0.292577
O O10 0.736671 0.394297 0.387665
O O11 0.000000 0.500000 0.721139
O O12 0.250000 0.250000 0.000000
O O13 0.234827 0.156253 0.941983
O O14 0.000000 0.189292 0.000000
O O15 0.500000 0.368176 0.121955
O O16 0.777432 0.423361 0.500000
O O17 0.772559 0.500000 0.578346
O O18 0.000000 0.431595 0.573031
#
# Coordination Sequence:
#
# PCOD9490327 Si02
#       7
#     8  16  16   8   8  16  16
#     4  10  20  35  58  85 119 153 188 234 291 351
#     4  12  25  41  61  85 114 150 194 244 294 346
#     4  12  23  36  57  86 119 155 194 239 291 347
#     4  12  22  34  54  84 119 155 194 233 289 350
#     4  10  22  39  59  83 113 154 201 245 292 345
#     4  10  21  38  60  87 118 152 192 239 292 350
#     4   9  18  33  54  82 118 157 195 236 285 341
#
# _framework density 18.175294999999998
#
# number of rings (size 3 to 8) (size 9 to 14) (size 15 to 20)
#    0.000    1.273    2.727    5.182    0.000    2.909 
#    0.000    2.727    0.000    0.545    0.000    2.545 
#    0.000    0.000    0.000    0.000    0.000    0.000 
#
# Total GULP energy -245879.045119 kJ/mol
# GULP energy per Si atom -5588.160116 kJ/mol
# Density = 1.813393 g / cm^3
# Si number density = 18.175295 Si / 1000 Ang^3
#
#
#
# Elastic Constant Matrix: (Units=GPa)
#
#
# Indices 1 2 3 4 5 6 
#
# 1 89.4508 47.3257 50.0730 0.0000 0.0000 0.0000
# 2 47.3257 121.5238 54.9476 0.0000 0.0000 0.0000
# 3 50.0730 54.9476 121.8593 0.0000 0.0000 0.0000
# 4 0.0000 0.0000 0.0000 20.0615 0.0000 0.0000
# 5 0.0000 0.0000 0.0000 0.0000 19.8764 0.0000
# 6 0.0000 0.0000 0.0000 0.0000 0.0000 23.4681
#
#
#
# Elastic Compliance Matrix: (Units=1/GPa)
#
#
# Indices 1 2 3 4 5 6 
#
# 1 0.015988 -0.004090 -0.004726 0.000000 0.000000 0.000000
# 2 -0.004090 0.011382 -0.003452 0.000000 0.000000 0.000000
# 3 -0.004726 -0.003452 0.011705 0.000000 0.000000 0.000000
# 4 0.000000 0.000000 0.000000 0.049847 0.000000 0.000000
# 5 0.000000 0.000000 0.000000 0.000000 0.050311 0.000000
# 6 0.000000 0.000000 0.000000 0.000000 0.000000 0.042611
#
#
# Mechanical properties :
#
#
# Convention : Reuss Voigt Hill
#
# Bulk Modulus (GPa) = 68.77275 70.83628 69.80452
# Shear Modulus (GPa) = 23.67140 24.71371 24.19256
#
# Velocity S-wave (km/s) = 3.61279 3.69147 3.65234
# Velocity P-wave (km/s) = 7.43799 7.56491 7.50172
#
# Compressibility (1/GPa) = 0.01454064
#
# Stress axis : x y z
#
# Youngs Moduli (GPa) = 62.54515 87.85550 85.43713
#
# Poissons Ratio (x) = 0.35931 0.40375
# Poissons Ratio (y) = 0.25579 0.29492
# Poissons Ratio (z) = 0.29557 0.30327
#
# Static dielectric constant tensor:
#      x y z
#    x 1.611860 0.000000 0.000000 
#    y 0.000000 1.604120 0.000000 
#    z 0.000000 0.000000 1.628410 
# 
# From -- ./inp_files/67659.got.cif
#   From: 2010.05.17/outbox.cif.g08.bks.cpg/sg65_34_cif.got.tgz:67659.got - 2010.06.03 17:01:31.
