data_PCOD9490750
_publ_section_title
;
Structure prediction by ZEFSAII (Michael W. Deem and Ramdas Pophale) SiO2 
 PCOD9490750
Probable space group: C M M M
;
_chemical_formula_sum "Si O2"
_cell_formula_units_Z 72
_cell_length_a 18.147675
_cell_length_b 24.636846
_cell_length_c 7.995357
_cell_angle_alpha 90.000000
_cell_angle_beta 90.000000
_cell_angle_gamma 90.000000
_cell_volume 3574.735902
_symmetry_space_group_name_H-M "C M M M"
_symmetry_group_IT_number 65
_symmetry_cell_setting 'orthorhombic'
loop_
_space_group_symop_operation_xyz
x,y,z
-x,-y,z
x,-y,-z
-x,y,-z
-x,-y,-z
x,y,-z
-x,y,z
x,-y,z
1/2+x,1/2+y,z
1/2-x,1/2-y,z
1/2+x,1/2-y,-z
1/2-x,1/2+y,-z
1/2-x,1/2-y,-z
1/2+x,1/2+y,-z
1/2-x,1/2+y,z
1/2+x,1/2-y,z
loop_
_atom_site_type_symbol
_atom_site_label
_atom_site_fract_x
_atom_site_fract_y
_atom_site_fract_z
Si Si1 0.918528 0.622415 0.798492
Si Si2 0.500000 0.564297 0.701094
Si Si3 0.344691 0.608856 0.800096
Si Si4 0.222056 0.000000 0.193375
Si Si5 0.774027 0.307875 0.694429
Si Si6 0.396255 0.000000 0.193821
O O1 0.846343 0.658547 0.756341
O O2 0.915683 0.559520 0.734195
O O3 0.000000 0.644583 0.749593
O O4 0.917122 0.618469 0.000000
O O5 0.500000 0.500000 0.756626
O O6 0.500000 0.563418 0.500000
O O7 0.429600 0.597477 0.765316
O O8 0.307331 0.554384 0.729278
O O9 0.299648 0.656707 0.716431
O O10 0.332222 0.613833 0.000000
O O11 0.308612 0.000000 0.191251
O O12 0.195132 0.000000 0.000000
O O13 0.790064 0.298591 0.500000
O O14 0.750000 0.250000 0.772883
O O15 0.421620 0.000000 0.000000
#
# Coordination Sequence:
#
# PCOD9490750 Si02
#       6
#    16   8  16   8  16   8
#     4  10  20  36  62  94 123 153 193 240 291 354
#     4  11  23  37  57  93 135 165 193 238 303 374
#     4  11  21  38  63  89 118 156 206 256 300 354
#     4   9  16  28  55  88 117 150 190 240 300 349
#     4  11  25  44  62  82 115 162 207 252 310 363
#     4   9  15  30  56  91 125 151 179 226 292 355
#
# _framework density 20.141349000000002
#
# number of rings (size 3 to 8) (size 9 to 14) (size 15 to 20)
#    0.000    1.667    3.333    2.000    0.000    4.000 
#    2.000    1.667    0.000    1.333    0.000    0.000 
#    0.000    0.000    0.000    0.000    0.000    0.000 
#
# Total GULP energy -200527.609529 kJ/mol
# GULP energy per Si atom -5570.211376 kJ/mol
# Density = 2.009551 g / cm^3
# Si number density = 20.141349 Si / 1000 Ang^3
#
#
#
# Elastic Constant Matrix: (Units=GPa)
#
#
# Indices 1 2 3 4 5 6 
#
# 1 157.5907 71.5874 -4.7078 0.0000 0.0000 0.0000
# 2 71.5874 147.4148 -1.0368 0.0000 0.0000 0.0000
# 3 -4.7078 -1.0368 26.7812 0.0000 0.0000 0.0000
# 4 0.0000 0.0000 0.0000 19.2600 0.0000 0.0000
# 5 0.0000 0.0000 0.0000 0.0000 12.4833 0.0000
# 6 0.0000 0.0000 0.0000 0.0000 0.0000 3.9129
#
#
#
# Elastic Compliance Matrix: (Units=1/GPa)
#
#
# Indices 1 2 3 4 5 6 
#
# 1 0.008186 -0.003966 0.001285 0.000000 0.000000 0.000000
# 2 -0.003966 0.008707 -0.000360 0.000000 0.000000 0.000000
# 3 0.001285 -0.000360 0.037552 0.000000 0.000000 0.000000
# 4 0.000000 0.000000 0.000000 0.051921 0.000000 0.000000
# 5 0.000000 0.000000 0.000000 0.000000 0.080107 0.000000
# 6 0.000000 0.000000 0.000000 0.000000 0.000000 0.255565
#
#
# Mechanical properties :
#
#
# Convention : Reuss Voigt Hill
#
# Bulk Modulus (GPa) = 20.67710 51.49693 36.08701
# Shear Modulus (GPa) = 10.77029 24.86083 17.81556
#
# Velocity S-wave (km/s) = 2.31494 3.51710 2.97733
# Velocity P-wave (km/s) = 4.17535 6.48973 5.45665
#
# Compressibility (1/GPa) = 0.04836269
#
# Stress axis : x y z
#
# Youngs Moduli (GPa) = 122.16628 114.84981 26.63004
#
# Poissons Ratio (x) = 0.45550 -0.03423
# Poissons Ratio (y) = 0.48451 0.00959
# Poissons Ratio (z) = -0.15703 0.04136
#
# Static dielectric constant tensor:
#      x y z
#    x 1.806970 0.000000 0.000000 
#    y 0.000000 1.118860 0.000000 
#    z 0.000000 0.000000 1.740110 
# 
# From -- ./inp_files/9327.got.cif
#   From: 2010.05.17/outbox.cif.g08.bks.cpg/sg65_5_cif.got.tgz:9327.got - 2010.06.03 17:01:31.
