data_PCOD9490690
_publ_section_title
;
Structure prediction by ZEFSAII (Michael W. Deem and Ramdas Pophale) SiO2 
 PCOD9490690
Probable space group: C M M M
;
_chemical_formula_sum "Si O2"
_cell_formula_units_Z 68
_cell_length_a 13.921629
_cell_length_b 23.003491
_cell_length_c 11.783745
_cell_angle_alpha 90.000000
_cell_angle_beta 90.000000
_cell_angle_gamma 90.000000
_cell_volume 3773.697996
_symmetry_space_group_name_H-M "C M M M"
_symmetry_group_IT_number 65
_symmetry_cell_setting 'orthorhombic'
loop_
_space_group_symop_operation_xyz
x,y,z
-x,-y,z
x,-y,-z
-x,y,-z
-x,-y,-z
x,y,-z
-x,y,z
x,-y,z
1/2+x,1/2+y,z
1/2-x,1/2-y,z
1/2+x,1/2-y,-z
1/2-x,1/2+y,-z
1/2-x,1/2-y,-z
1/2+x,1/2+y,-z
1/2-x,1/2+y,z
1/2+x,1/2-y,z
loop_
_atom_site_type_symbol
_atom_site_label
_atom_site_fract_x
_atom_site_fract_y
_atom_site_fract_z
Si Si1 0.886003 0.728451 0.370284
Si Si2 0.385196 0.000000 0.770621
Si Si3 0.612161 0.653005 0.248608
Si Si4 0.260450 0.000000 0.000000
Si Si5 0.788709 0.396096 0.365711
Si Si6 0.611216 0.606253 0.000000
O O1 0.863732 0.747109 0.500000
O O2 0.862745 0.781679 0.287898
O O3 0.834915 0.667625 0.348259
O O4 0.000000 0.718392 0.363768
O O5 0.328027 0.000000 0.889391
O O6 0.350509 0.056064 0.699638
O O7 0.500000 0.000000 0.785905
O O8 0.500000 0.643646 0.277886
O O9 0.682149 0.609019 0.313969
O O10 0.623361 0.643247 0.114594
O O11 0.189498 0.055377 0.000000
O O12 0.786739 0.407935 0.500000
O O13 0.500000 0.584279 0.000000
#
# Coordination Sequence:
#
# PCOD9490690 Si02
#       6
#    16   8  16   4  16   8
#     4   9  18  34  58  87 121 159 196 235 289 356
#     4  12  26  43  64  87 116 154 203 254 293 341
#     4  10  20  36  59  89 120 153 195 245 296 354
#     4  12  22  46  66  84 114 158 204 246 294 346
#     4  11  22  38  60  88 122 161 199 240 294 354
#     4  10  21  39  65  89 116 156 200 242 292 356
#
# _framework density 18.019459999999999
#
# number of rings (size 3 to 8) (size 9 to 14) (size 15 to 20)
#    0.000    1.647    2.353    2.824    0.000    5.176 
#    0.000    4.118    0.000    4.235    0.000    0.000 
#    0.000    0.000    0.000    0.000    0.000    0.000 
#
# Total GULP energy -189861.738606 kJ/mol
# GULP energy per Si atom -5584.168783 kJ/mol
# Density = 1.797845 g / cm^3
# Si number density = 18.019460 Si / 1000 Ang^3
#
#
#
# Elastic Constant Matrix: (Units=GPa)
#
#
# Indices 1 2 3 4 5 6 
#
# 1 130.8755 69.3367 86.4604 0.0000 0.0000 0.0000
# 2 69.3367 96.0230 83.7040 0.0000 0.0000 0.0000
# 3 86.4604 83.7040 144.8012 0.0000 0.0000 0.0000
# 4 0.0000 0.0000 0.0000 48.5947 0.0000 0.0000
# 5 0.0000 0.0000 0.0000 0.0000 21.3707 0.0000
# 6 0.0000 0.0000 0.0000 0.0000 0.0000 30.8961
#
#
#
# Elastic Compliance Matrix: (Units=1/GPa)
#
#
# Indices 1 2 3 4 5 6 
#
# 1 0.014009 -0.005692 -0.005074 0.000000 0.000000 0.000000
# 2 -0.005692 0.023305 -0.010073 0.000000 0.000000 0.000000
# 3 -0.005074 -0.010073 0.015758 0.000000 0.000000 0.000000
# 4 0.000000 0.000000 0.000000 0.020578 0.000000 0.000000
# 5 0.000000 0.000000 0.000000 0.000000 0.046793 0.000000
# 6 0.000000 0.000000 0.000000 0.000000 0.000000 0.032367
#
#
# Mechanical properties :
#
#
# Convention : Reuss Voigt Hill
#
# Bulk Modulus (GPa) = 87.76774 94.52243 91.14508
# Shear Modulus (GPa) = 25.21599 28.98554 27.10077
#
# Velocity S-wave (km/s) = 3.74488 4.01505 3.88232
# Velocity P-wave (km/s) = 8.21656 8.60603 8.41355
#
# Compressibility (1/GPa) = 0.01139371
#
# Stress axis : x y z
#
# Youngs Moduli (GPa) = 71.38452 42.90884 63.45803
#
# Poissons Ratio (x) = 0.24425 0.32198
# Poissons Ratio (y) = 0.40635 0.63921
# Poissons Ratio (z) = 0.36220 0.43222
#
# Static dielectric constant tensor:
#      x y z
#    x 1.639930 0.000000 0.000000 
#    y 0.000000 1.589860 0.000000 
#    z 0.000000 0.000000 1.595300 
# 
# From -- ./inp_files/24317.got.cif
#   From: 2010.05.17/outbox.cif.g08.bks.cpg/sg65_13_cif.got.tgz:24317.got - 2010.06.03 17:01:31.
