data_PCOD9490546
_publ_section_title
;
Structure prediction by ZEFSAII (Michael W. Deem and Ramdas Pophale) SiO2 
 PCOD9490546
Probable space group: C M M M
;
_chemical_formula_sum "Si O2"
_cell_formula_units_Z 108
_cell_length_a 24.765191
_cell_length_b 15.768122
_cell_length_c 15.047889
_cell_angle_alpha 90.000000
_cell_angle_beta 90.000000
_cell_angle_gamma 90.000000
_cell_volume 5876.208977
_symmetry_space_group_name_H-M "C M M M"
_symmetry_group_IT_number 65
_symmetry_cell_setting 'orthorhombic'
loop_
_space_group_symop_operation_xyz
x,y,z
-x,-y,z
x,-y,-z
-x,y,-z
-x,-y,-z
x,y,-z
-x,y,z
x,-y,z
1/2+x,1/2+y,z
1/2-x,1/2-y,z
1/2+x,1/2-y,-z
1/2-x,1/2+y,-z
1/2-x,1/2-y,-z
1/2+x,1/2+y,-z
1/2-x,1/2+y,z
1/2+x,1/2-y,z
loop_
_atom_site_type_symbol
_atom_site_label
_atom_site_fract_x
_atom_site_fract_y
_atom_site_fract_z
Si Si1 0.441051 0.097577 0.817545
Si Si2 0.750961 0.402642 0.774920
Si Si3 0.435251 0.500000 0.894405
Si Si4 0.816097 0.401902 0.398774
Si Si5 0.587421 0.221279 0.341780
Si Si6 0.000000 0.744184 0.500000
Si Si7 0.838909 0.679659 0.898602
Si Si8 0.628962 0.347993 0.803534
O O1 0.500000 0.110008 0.861108
O O2 0.437781 0.158962 0.732742
O O3 0.389545 0.118587 0.877656
O O4 0.437502 0.000000 0.788655
O O5 0.762931 0.500000 0.799954
O O6 0.769453 0.390401 0.673464
O O7 0.789235 0.343970 0.834831
O O8 0.688023 0.385946 0.785643
O O9 0.500000 0.500000 0.886568
O O10 0.409935 0.581903 0.845794
O O11 0.421626 0.500000 0.000000
O O12 0.797608 0.392870 0.500000
O O13 0.836394 0.500000 0.388486
O O14 0.861948 0.333199 0.377990
O O15 0.547025 0.241190 0.421326
O O16 0.606131 0.303802 0.285916
O O17 0.861017 0.772004 0.873023
O O18 0.822046 0.674141 0.000000
#
# Coordination Sequence:
#
# PCOD9490546 Si02
#       8
#    16  16   8  16  16   4  16  16
#     4  10  20  36  57  84 126 175 217 256 306 380
#     4  11  22  41  64  94 132 169 213 266 324 396
#     4  11  26  48  74 100 122 162 227 290 341 395
#     4  10  20  37  61  92 133 173 214 260 310 375
#     4  11  22  38  61  90 129 167 212 267 324 384
#     4  12  24  40  61 103 128 166 226 276 320 391
#     4  11  24  38  60  94 132 173 213 263 330 399
#     4  11  24  44  68  91 127 167 213 273 340 401
#
# _framework density 18.379197000000001
#
# number of rings (size 3 to 8) (size 9 to 14) (size 15 to 20)
#    0.000    1.259    5.185    1.778    1.037    3.852 
#    1.333    2.963    0.000    0.889    0.000    0.000 
#    0.000    0.000    0.000    0.000    0.000    0.000 
#
# Total GULP energy -300928.099798 kJ/mol
# GULP energy per Si atom -5572.742589 kJ/mol
# Density = 1.833737 g / cm^3
# Si number density = 18.379197 Si / 1000 Ang^3
#
#
#
# Elastic Constant Matrix: (Units=GPa)
#
#
# Indices 1 2 3 4 5 6 
#
# 1 113.8926 45.8311 53.6153 0.0000 0.0000 0.0000
# 2 45.8311 96.7747 51.9200 0.0000 0.0000 0.0000
# 3 53.6153 51.9200 134.3155 0.0000 0.0000 0.0000
# 4 0.0000 0.0000 0.0000 17.8219 0.0000 0.0000
# 5 0.0000 0.0000 0.0000 0.0000 14.0519 0.0000
# 6 0.0000 0.0000 0.0000 0.0000 0.0000 153.5821
#
#
#
# Elastic Compliance Matrix: (Units=1/GPa)
#
#
# Indices 1 2 3 4 5 6 
#
# 1 0.011866 -0.003884 -0.003235 0.000000 0.000000 0.000000
# 2 -0.003884 0.014308 -0.003981 0.000000 0.000000 0.000000
# 3 -0.003235 -0.003981 0.010275 0.000000 0.000000 0.000000
# 4 0.000000 0.000000 0.000000 0.056111 0.000000 0.000000
# 5 0.000000 0.000000 0.000000 0.000000 0.071165 0.000000
# 6 0.000000 0.000000 0.000000 0.000000 0.000000 0.006511
#
#
# Mechanical properties :
#
#
# Convention : Reuss Voigt Hill
#
# Bulk Modulus (GPa) = 70.17460 71.96841 71.07151
# Shear Modulus (GPa) = 25.35681 49.99893 37.67787
#
# Velocity S-wave (km/s) = 3.71839 5.22141 4.53264
# Velocity P-wave (km/s) = 7.52992 8.69445 8.13305
#
# Compressibility (1/GPa) = 0.01425017
#
# Stress axis : x y z
#
# Youngs Moduli (GPa) = 84.27339 69.89004 97.32058
#
# Poissons Ratio (x) = 0.27144 0.31487
# Poissons Ratio (y) = 0.32731 0.38739
# Poissons Ratio (z) = 0.27265 0.27820
#
# Static dielectric constant tensor:
#      x y z
#    x 1.640060 0.000000 0.000000 
#    y 0.000000 1.647670 0.000000 
#    z 0.000000 0.000000 1.612680 
# 
# From -- ./inp_files/45816.got.cif
#   From: 2010.05.17/outbox.cif.g08.bks.cpg/sg65_23_cif.got.tgz:45816.got - 2010.06.03 17:01:31.
