data_PCOD9490442
_publ_section_title
;
Structure prediction by ZEFSAII (Michael W. Deem and Ramdas Pophale) SiO2 
 PCOD9490442
Probable space group: C M M M
;
_chemical_formula_sum "Si O2"
_cell_formula_units_Z 116
_cell_length_a 23.075735
_cell_length_b 31.406306
_cell_length_c 7.961427
_cell_angle_alpha 90.000000
_cell_angle_beta 90.000000
_cell_angle_gamma 90.000000
_cell_volume 5769.833993
_symmetry_space_group_name_H-M "C M M M"
_symmetry_group_IT_number 65
_symmetry_cell_setting 'orthorhombic'
loop_
_space_group_symop_operation_xyz
x,y,z
-x,-y,z
x,-y,-z
-x,y,-z
-x,-y,-z
x,y,-z
-x,y,z
x,-y,z
1/2+x,1/2+y,z
1/2-x,1/2-y,z
1/2+x,1/2-y,-z
1/2-x,1/2+y,-z
1/2-x,1/2-y,-z
1/2+x,1/2+y,-z
1/2-x,1/2+y,z
1/2+x,1/2-y,z
loop_
_atom_site_type_symbol
_atom_site_label
_atom_site_fract_x
_atom_site_fract_y
_atom_site_fract_z
Si Si1 0.135765 0.560570 0.804941
Si Si2 0.565122 0.684968 0.201875
Si Si3 0.600564 0.000000 0.500000
Si Si4 0.320075 0.637660 0.302176
Si Si5 0.222546 0.296991 0.304773
Si Si6 0.404430 0.779428 0.193538
Si Si7 0.562226 0.131802 0.304179
Si Si8 0.727702 0.547498 0.799243
O O1 0.103563 0.536142 0.653275
O O2 0.114480 0.608958 0.790402
O O3 0.203811 0.554395 0.767131
O O4 0.126243 0.547086 0.000000
O O5 0.500000 0.674299 0.262198
O O6 0.616887 0.652763 0.243175
O O7 0.583114 0.732301 0.262757
O O8 0.562897 0.686942 0.000000
O O9 0.318994 0.644862 0.500000
O O10 0.268531 0.668550 0.234888
O O11 0.306234 0.588406 0.267124
O O12 0.208515 0.308391 0.500000
O O13 0.250000 0.250000 0.305690
O O14 0.163071 0.291253 0.207001
O O15 0.435729 0.817775 0.284684
O O16 0.422917 0.779762 0.000000
O O17 0.566532 0.122340 0.500000
O O18 0.500000 0.115657 0.239310
O O19 0.712138 0.500000 0.734791
O O20 0.720354 0.547049 0.000000
#
# Coordination Sequence:
#
# PCOD9490442 Si02
#       8
#    16  16   4  16  16  16  16  16
#     4  11  23  41  66  94 123 162 206 255 317 379
#     4  10  22  40  59  81 116 161 205 248 298 361
#     4  12  22  40  69  92 128 160 199 266 316 382
#     4  11  23  36  59  90 120 158 199 248 305 359
#     4  10  20  36  55  82 124 159 193 240 298 364
#     4  11  22  36  59  87 118 158 206 254 302 359
#     4  11  24  41  60  85 118 161 212 262 313 368
#     4  10  22  40  63  91 123 156 197 246 302 373
#
# _framework density 20.104565000000001
#
# number of rings (size 3 to 8) (size 9 to 14) (size 15 to 20)
#    0.000    1.379    2.759    2.690    0.966    6.345 
#    0.000    0.690    0.000    1.241    0.000    2.897 
#    0.000    0.000    0.000    0.000    0.000    0.000 
#
# Total GULP energy -323258.346399 kJ/mol
# GULP energy per Si atom -5573.419766 kJ/mol
# Density = 2.005881 g / cm^3
# Si number density = 20.104565 Si / 1000 Ang^3
#
#
#
# Elastic Constant Matrix: (Units=GPa)
#
#
# Indices 1 2 3 4 5 6 
#
# 1 98.3851 51.4511 13.4330 0.0000 0.0000 0.0000
# 2 51.4511 125.3493 15.3181 0.0000 0.0000 0.0000
# 3 13.4330 15.3181 54.7566 0.0000 0.0000 0.0000
# 4 0.0000 0.0000 0.0000 32.5509 0.0000 0.0000
# 5 0.0000 0.0000 0.0000 0.0000 13.0629 0.0000
# 6 0.0000 0.0000 0.0000 0.0000 0.0000 7.3088
#
#
#
# Elastic Compliance Matrix: (Units=1/GPa)
#
#
# Indices 1 2 3 4 5 6 
#
# 1 0.013106 -0.005163 -0.001771 0.000000 0.000000 0.000000
# 2 -0.005163 0.010294 -0.001613 0.000000 0.000000 0.000000
# 3 -0.001771 -0.001613 0.019148 0.000000 0.000000 0.000000
# 4 0.000000 0.000000 0.000000 0.030721 0.000000 0.000000
# 5 0.000000 0.000000 0.000000 0.000000 0.076553 0.000000
# 6 0.000000 0.000000 0.000000 0.000000 0.000000 0.136822
#
#
# Mechanical properties :
#
#
# Convention : Reuss Voigt Hill
#
# Bulk Modulus (GPa) = 39.28609 48.76617 44.02613
# Shear Modulus (GPa) = 16.01420 23.80376 19.90898
#
# Velocity S-wave (km/s) = 2.82538 3.44466 3.15027
# Velocity P-wave (km/s) = 5.49791 6.33481 5.93114
#
# Compressibility (1/GPa) = 0.02545430
#
# Stress axis : x y z
#
# Youngs Moduli (GPa) = 76.30097 97.14306 52.22383
#
# Poissons Ratio (x) = 0.50156 0.09248
# Poissons Ratio (y) = 0.39395 0.08424
# Poissons Ratio (z) = 0.13511 0.15671
#
# Static dielectric constant tensor:
#      x y z
#    x 1.741510 0.000000 0.000000 
#    y 0.000000 1.748310 0.000000 
#    z 0.000000 0.000000 1.715610 
# 
# From -- ./inp_files/15127.got.cif
#   From: 2010.05.17/outbox.cif.g08.bks.cpg/sg65_8_cif.got.tgz:15127.got - 2010.06.03 17:01:31.
