data_PCOD9490319
_publ_section_title
;
Structure prediction by ZEFSAII (Michael W. Deem and Ramdas Pophale) SiO2 
 PCOD9490319
Probable space group: C M M M
;
_chemical_formula_sum "Si O2"
_cell_formula_units_Z 88
_cell_length_a 30.270275
_cell_length_b 8.672197
_cell_length_c 17.840809
_cell_angle_alpha 90.000000
_cell_angle_beta 90.000000
_cell_angle_gamma 90.000000
_cell_volume 4683.386989
_symmetry_space_group_name_H-M "C M M M"
_symmetry_group_IT_number 65
_symmetry_cell_setting 'orthorhombic'
loop_
_space_group_symop_operation_xyz
x,y,z
-x,-y,z
x,-y,-z
-x,y,-z
-x,-y,-z
x,y,-z
-x,y,z
x,-y,z
1/2+x,1/2+y,z
1/2-x,1/2-y,z
1/2+x,1/2-y,-z
1/2-x,1/2+y,-z
1/2-x,1/2-y,-z
1/2+x,1/2+y,-z
1/2-x,1/2+y,z
1/2+x,1/2-y,z
loop_
_atom_site_type_symbol
_atom_site_label
_atom_site_fract_x
_atom_site_fract_y
_atom_site_fract_z
Si Si1 0.892909 0.683948 0.355529
Si Si2 0.672234 0.679992 0.846905
Si Si3 0.920460 0.315879 0.809888
Si Si4 0.051254 0.688448 0.500000
Si Si5 0.297932 0.819808 0.000000
Si Si6 0.000000 0.186688 0.910225
Si Si7 0.703025 0.314486 0.313773
O O1 0.885392 0.500000 0.361734
O O2 0.922556 0.706146 0.280306
O O3 0.921174 0.737067 0.426756
O O4 0.843846 0.758382 0.348756
O O5 0.681547 0.500000 0.856537
O O6 0.621732 0.713483 0.829010
O O7 0.680572 0.764465 0.923819
O O8 0.698860 0.735726 0.773817
O O9 0.913391 0.500000 0.821959
O O10 0.958932 0.257467 0.864168
O O11 0.050412 0.500000 0.500000
O O12 0.000000 0.738944 0.500000
O O13 0.250000 0.750000 0.000000
O O14 0.295896 0.000000 0.000000
O O15 0.000000 0.000000 0.904816
O O16 0.000000 0.224597 0.000000
O O17 0.703952 0.500000 0.316960
O O18 0.750000 0.250000 0.343473
#
# Coordination Sequence:
#
# PCOD9490319 Si02
#       7
#    16  16  16   8   8   8  16
#     4   9  19  36  60  90 121 153 191 236 286 347
#     4  10  21  37  56  78 109 147 186 233 289 346
#     4  10  21  37  59  85 113 147 190 240 288 341
#     4   9  18  34  62  93 122 153 190 235 288 347
#     4  12  24  36  52  77 108 143 186 236 286 338
#     4  11  25  41  57  78 109 152 198 245 294 346
#     4  10  20  35  58  84 114 152 193 237 285 342
#
# _framework density 18.789821
#
# number of rings (size 3 to 8) (size 9 to 14) (size 15 to 20)
#    0.000    2.000    0.000    3.273    2.545    5.091 
#    0.000    0.909    0.000    0.545    0.000    0.000 
#    0.000    0.000    0.000    0.000    0.000    0.000 
#
# Total GULP energy -245254.752759 kJ/mol
# GULP energy per Si atom -5573.971654 kJ/mol
# Density = 1.874705 g / cm^3
# Si number density = 18.789821 Si / 1000 Ang^3
#
#
#
# Elastic Constant Matrix: (Units=GPa)
#
#
# Indices 1 2 3 4 5 6 
#
# 1 110.9105 11.5735 58.4424 0.0000 0.0000 0.0000
# 2 11.5735 42.2686 31.4632 0.0000 0.0000 0.0000
# 3 58.4424 31.4632 124.4457 0.0000 0.0000 0.0000
# 4 0.0000 0.0000 0.0000 17.5040 0.0000 0.0000
# 5 0.0000 0.0000 0.0000 0.0000 14.8796 0.0000
# 6 0.0000 0.0000 0.0000 0.0000 0.0000 30.3934
#
#
#
# Elastic Compliance Matrix: (Units=1/GPa)
#
#
# Indices 1 2 3 4 5 6 
#
# 1 0.012024 0.001122 -0.005931 0.000000 0.000000 0.000000
# 2 0.001122 0.029247 -0.007922 0.000000 0.000000 0.000000
# 3 -0.005931 -0.007922 0.012824 0.000000 0.000000 0.000000
# 4 0.000000 0.000000 0.000000 0.057130 0.000000 0.000000
# 5 0.000000 0.000000 0.000000 0.000000 0.067206 0.000000
# 6 0.000000 0.000000 0.000000 0.000000 0.000000 0.032902
#
#
# Mechanical properties :
#
#
# Convention : Reuss Voigt Hill
#
# Bulk Modulus (GPa) = 34.92189 53.39813 44.16001
# Shear Modulus (GPa) = 20.29733 24.29845 22.29789
#
# Velocity S-wave (km/s) = 3.29025 3.59997 3.44859
# Velocity P-wave (km/s) = 5.74980 6.76462 6.27775
#
# Compressibility (1/GPa) = 0.02863534
#
# Stress axis : x y z
#
# Youngs Moduli (GPa) = 83.16580 34.19101 77.98177
#
# Poissons Ratio (x) = -0.03837 0.46247
# Poissons Ratio (y) = -0.09332 0.61773
# Poissons Ratio (z) = 0.49322 0.27084
#
# Static dielectric constant tensor:
#      x y z
#    x 1.620930 0.000000 0.000000 
#    y 0.000000 1.637270 0.000000 
#    z 0.000000 0.000000 1.678700 
# 
# From -- ./inp_files/58080.got.cif
#   From: 2010.05.17/outbox.cif.g08.bks.cpg/sg65_30_cif.got.tgz:58080.got - 2010.06.03 17:01:31.
