data_PCOD9490252
_publ_section_title
;
Structure prediction by ZEFSAII (Michael W. Deem and Ramdas Pophale) SiO2 
 PCOD9490252
Probable space group: C M M M
;
_chemical_formula_sum "Si O2"
_cell_formula_units_Z 88
_cell_length_a 9.019342
_cell_length_b 18.716747
_cell_length_c 29.028122
_cell_angle_alpha 90.000000
_cell_angle_beta 90.000000
_cell_angle_gamma 90.000000
_cell_volume 4900.316879
_symmetry_space_group_name_H-M "C M M M"
_symmetry_group_IT_number 65
_symmetry_cell_setting 'orthorhombic'
loop_
_space_group_symop_operation_xyz
x,y,z
-x,-y,z
x,-y,-z
-x,y,-z
-x,-y,-z
x,y,-z
-x,y,z
x,-y,z
1/2+x,1/2+y,z
1/2-x,1/2-y,z
1/2+x,1/2-y,-z
1/2-x,1/2+y,-z
1/2-x,1/2-y,-z
1/2+x,1/2+y,-z
1/2-x,1/2+y,z
1/2+x,1/2-y,z
loop_
_atom_site_type_symbol
_atom_site_label
_atom_site_fract_x
_atom_site_fract_y
_atom_site_fract_z
Si Si1 0.177256 0.083605 0.229296
Si Si2 0.673180 0.914269 0.133435
Si Si3 0.823972 0.585642 0.595632
Si Si4 0.823115 0.172173 0.947794
Si Si5 0.170850 0.086808 0.500000
Si Si6 0.678282 0.328084 0.320998
O O1 0.258784 0.107097 0.182747
O O2 0.215367 0.130819 0.273515
O O3 0.000000 0.087773 0.222047
O O4 0.213992 0.000000 0.238029
O O5 0.500000 0.895526 0.131506
O O6 0.758253 0.878315 0.091364
O O7 0.687482 0.000000 0.130360
O O8 0.801468 0.500000 0.600622
O O9 0.755314 0.608170 0.546502
O O10 0.743000 0.626687 0.636621
O O11 0.000000 0.599079 0.596434
O O12 0.750000 0.250000 0.942931
O O13 0.000000 0.178061 0.943266
O O14 0.789997 0.146521 0.000000
O O15 0.000000 0.110867 0.500000
O O16 0.169951 0.000000 0.500000
O O17 0.500000 0.323630 0.324578
O O18 0.750000 0.250000 0.320962
#
# Coordination Sequence:
#
# PCOD9490252 Si02
#       6
#    16  16  16  16   8  16
#     4   9  19  37  59  80 105 141 184 228 273 323
#     4  10  21  36  56  83 113 144 179 222 271 322
#     4  10  20  35  57  84 113 145 182 225 272 322
#     4  10  21  37  57  80 108 144 184 225 270 322
#     4   9  17  31  54  83 112 143 182 225 267 317
#     4  11  23  38  56  80 111 146 184 225 272 324
#
# _framework density 17.958022
#
# number of rings (size 3 to 8) (size 9 to 14) (size 15 to 20)
#    0.000    2.091    0.000    3.000    0.000    7.636 
#    0.000    5.909    0.000    0.000    0.000    0.000 
#    0.000    0.000    0.000    0.000    0.000    0.000 
#
# Total GULP energy -245711.318577 kJ/mol
# GULP energy per Si atom -5584.348149 kJ/mol
# Density = 1.791715 g / cm^3
# Si number density = 17.958022 Si / 1000 Ang^3
#
#
#
# Elastic Constant Matrix: (Units=GPa)
#
#
# Indices 1 2 3 4 5 6 
#
# 1 108.4885 59.7727 106.7821 0.0000 0.0000 0.0000
# 2 59.7727 55.4300 77.9353 0.0000 0.0000 0.0000
# 3 106.7821 77.9353 202.1975 0.0000 0.0000 0.0000
# 4 0.0000 0.0000 0.0000 -41.7606 0.0000 0.0000
# 5 0.0000 0.0000 0.0000 0.0000 30.6222 0.0000
# 6 0.0000 0.0000 0.0000 0.0000 0.0000 28.7636
#
#
#
# Elastic Compliance Matrix: (Units=1/GPa)
#
#
# Indices 1 2 3 4 5 6 
#
# 1 0.026008 -0.019067 -0.006386 0.000000 0.000000 0.000000
# 2 -0.019067 0.053364 -0.010499 0.000000 0.000000 0.000000
# 3 -0.006386 -0.010499 0.012365 0.000000 0.000000 0.000000
# 4 0.000000 0.000000 0.000000 -0.023946 0.000000 0.000000
# 5 0.000000 0.000000 0.000000 0.000000 0.032656 0.000000
# 6 0.000000 0.000000 0.000000 0.000000 0.000000 0.034766
#
#
# Mechanical properties :
#
#
# Convention : Reuss Voigt Hill
#
# Bulk Modulus (GPa) = 50.42243 95.01069 72.71656
# Shear Modulus (GPa) = 23.39421 11.63344 17.51382
#
# Velocity S-wave (km/s) = 3.61323 2.54798 3.12631
# Velocity P-wave (km/s) = 6.74879 7.85355 7.32203
#
# Compressibility (1/GPa) = 0.01983245
#
# Stress axis : x y z
#
# Youngs Moduli (GPa) = 38.44927 18.73933 80.87490
#
# Poissons Ratio (x) = 0.35731 0.51645
# Poissons Ratio (y) = 0.73313 0.84910
# Poissons Ratio (z) = 0.24553 0.19674
#
# Static dielectric constant tensor:
#      x y z
#    x 1.597870 0.000000 0.000000 
#    y 0.000000 1.593100 0.000000 
#    z 0.000000 0.000000 1.589140 
# 
# From -- ./inp_files/67462.got.cif
#   From: 2010.05.17/outbox.cif.g08.bks.cpg/sg65_34_cif.got.tgz:67462.got - 2010.06.03 17:01:31.
