data_PCOD9490336
_publ_section_title
;
Structure prediction by ZEFSAII (Michael W. Deem and Ramdas Pophale) SiO2 
 PCOD9490336
Probable space group: C M M M
;
_chemical_formula_sum "Si O2"
_cell_formula_units_Z 90
_cell_length_a 8.660247
_cell_length_b 24.122590
_cell_length_c 23.003525
_cell_angle_alpha 90.000000
_cell_angle_beta 90.000000
_cell_angle_gamma 90.000000
_cell_volume 4805.610916
_symmetry_space_group_name_H-M "C M M M"
_symmetry_group_IT_number 65
_symmetry_cell_setting 'orthorhombic'
loop_
_space_group_symop_operation_xyz
x,y,z
-x,-y,z
x,-y,-z
-x,y,-z
-x,-y,-z
x,y,-z
-x,y,z
x,-y,z
1/2+x,1/2+y,z
1/2-x,1/2-y,z
1/2+x,1/2-y,-z
1/2-x,1/2+y,-z
1/2-x,1/2-y,-z
1/2+x,1/2+y,-z
1/2-x,1/2+y,z
1/2+x,1/2-y,z
loop_
_atom_site_type_symbol
_atom_site_label
_atom_site_fract_x
_atom_site_fract_y
_atom_site_fract_z
Si Si1 0.175513 0.625707 0.885762
Si Si2 0.317531 0.689214 0.219836
Si Si3 0.312523 0.435202 0.564024
Si Si4 0.313781 0.000000 0.236890
Si Si5 0.812924 0.688312 0.000000
Si Si6 0.312105 0.602526 0.311172
Si Si7 0.000000 0.000000 0.000000
Si Si8 0.752286 0.000000 0.106966
O O1 0.269427 0.646185 0.830427
O O2 0.239363 0.655897 0.942795
O O3 0.173547 0.560189 0.897012
O O4 0.000000 0.644485 0.876049
O O5 0.500000 0.694615 0.219163
O O6 0.250000 0.750000 0.210150
O O7 0.270944 0.660232 0.280337
O O8 0.258819 0.416494 0.500000
O O9 0.500000 0.433796 0.563040
O O10 0.269284 0.500000 0.571078
O O11 0.264671 0.402617 0.621565
O O12 0.267745 0.946514 0.274634
O O13 0.214333 0.000000 0.177007
O O14 0.500000 0.000000 0.223790
O O15 0.750000 0.750000 0.000000
O O16 0.000000 0.688493 0.000000
O O17 0.500000 0.595313 0.307615
O O18 0.130924 0.000000 0.947181
#
# Coordination Sequence:
#
# PCOD9490336 Si02
#       8
#    16  16  16   8   8  16   2   8
#     4  11  23  42  66  89 118 151 191 241 300 363
#     4  11  24  39  59  86 116 154 199 250 306 360
#     4   8  13  24  48  83 119 154 197 247 296 350
#     4  12  23  35  60  93 122 157 192 243 306 367
#     4  10  23  41  60  81 105 143 187 233 278 335
#     4  10  20  35  58  86 119 159 200 249 300 358
#     4  12  32  44  62  92 128 164 204 244 284 350
#     4  12  26  44  64  92 123 157 197 237 302 361
#
# _framework density 18.728107999999999
#
# number of rings (size 3 to 8) (size 9 to 14) (size 15 to 20)
#    0.000    1.600    2.667    3.200    2.489    2.844 
#    1.600    2.889    0.000    1.600    0.000    0.000 
#    0.000    0.000    0.000    0.000    0.000    0.178 
#
# Total GULP energy -250617.642732 kJ/mol
# GULP energy per Si atom -5569.280950 kJ/mol
# Density = 1.868548 g / cm^3
# Si number density = 18.728108 Si / 1000 Ang^3
#
#
#
# Elastic Constant Matrix: (Units=GPa)
#
#
# Indices 1 2 3 4 5 6 
#
# 1 24.0911 15.0735 26.6264 0.0000 0.0000 0.0000
# 2 15.0735 108.9980 44.8385 0.0000 0.0000 0.0000
# 3 26.6264 44.8385 167.4785 0.0000 0.0000 0.0000
# 4 0.0000 0.0000 0.0000 12.3079 0.0000 0.0000
# 5 0.0000 0.0000 0.0000 0.0000 11.5933 0.0000
# 6 0.0000 0.0000 0.0000 0.0000 0.0000 -11.0378
#
#
#
# Elastic Compliance Matrix: (Units=1/GPa)
#
#
# Indices 1 2 3 4 5 6 
#
# 1 0.052064 -0.004265 -0.007136 0.000000 0.000000 0.000000
# 2 -0.004265 0.010659 -0.002176 0.000000 0.000000 0.000000
# 3 -0.007136 -0.002176 0.007688 0.000000 0.000000 0.000000
# 4 0.000000 0.000000 0.000000 0.081248 0.000000 0.000000
# 5 0.000000 0.000000 0.000000 0.000000 0.086257 0.000000
# 6 0.000000 0.000000 0.000000 0.000000 0.000000 -0.090598
#
#
# Mechanical properties :
#
#
# Convention : Reuss Voigt Hill
#
# Bulk Modulus (GPa) = 23.11652 52.62715 37.87184
# Shear Modulus (GPa) = 26.47043 16.84130 21.65586
#
# Velocity S-wave (km/s) = 3.76361 3.00201 3.40417
# Velocity P-wave (km/s) = 5.59074 6.33859 5.97637
#
# Compressibility (1/GPa) = 0.04325911
#
# Stress axis : x y z
#
# Youngs Moduli (GPa) = 19.20717 93.81485 130.07502
#
# Poissons Ratio (x) = 0.40009 0.92816
# Poissons Ratio (y) = 0.08191 0.28301
# Poissons Ratio (z) = 0.13705 0.20412
#
# Static dielectric constant tensor:
#      x y z
#    x 1.672030 0.000000 0.000000 
#    y 0.000000 1.635440 0.000000 
#    z 0.000000 0.000000 1.674020 
# 
# From -- ./inp_files/59953.got.cif
#   From: 2010.05.17/outbox.cif.g08.bks.cpg/sg65_30_cif.got.tgz:59953.got - 2010.06.03 17:01:31.
