data_PCOD9490249
_publ_section_title
;
Structure prediction by ZEFSAII (Michael W. Deem and Ramdas Pophale) SiO2 
 PCOD9490249
Probable space group: C M M M
;
_chemical_formula_sum "Si O2"
_cell_formula_units_Z 88
_cell_length_a 8.753767
_cell_length_b 19.103918
_cell_length_c 29.334555
_cell_angle_alpha 90.000000
_cell_angle_beta 90.000000
_cell_angle_gamma 90.000000
_cell_volume 4905.654212
_symmetry_space_group_name_H-M "C M M M"
_symmetry_group_IT_number 65
_symmetry_cell_setting 'orthorhombic'
loop_
_space_group_symop_operation_xyz
x,y,z
-x,-y,z
x,-y,-z
-x,y,-z
-x,-y,-z
x,y,-z
-x,y,z
x,-y,z
1/2+x,1/2+y,z
1/2-x,1/2-y,z
1/2+x,1/2-y,-z
1/2-x,1/2+y,-z
1/2-x,1/2-y,-z
1/2+x,1/2+y,-z
1/2-x,1/2+y,z
1/2+x,1/2-y,z
loop_
_atom_site_type_symbol
_atom_site_label
_atom_site_fract_x
_atom_site_fract_y
_atom_site_fract_z
Si Si1 0.182716 0.082460 0.096458
Si Si2 0.315475 0.672228 0.550714
Si Si3 0.184168 0.918673 0.363352
Si Si4 0.824300 0.584945 0.000000
Si Si5 0.684011 0.918787 0.733512
Si Si6 0.316322 0.172042 0.820917
O O1 0.241017 0.105653 0.046606
O O2 0.257604 0.128663 0.135694
O O3 0.000000 0.087918 0.098369
O O4 0.223577 0.000000 0.102515
O O5 0.272428 0.645722 0.500000
O O6 0.500000 0.675224 0.552103
O O7 0.250000 0.750000 0.555337
O O8 0.263751 0.625049 0.592894
O O9 0.251091 0.894499 0.315062
O O10 0.000000 0.914987 0.361071
O O11 0.227507 0.000000 0.368912
O O12 0.823293 0.500000 0.000000
O O13 0.000000 0.608310 0.000000
O O14 0.500000 0.918179 0.731428
O O15 0.731882 0.870102 0.775391
O O16 0.732411 0.000000 0.740745
O O17 0.500000 0.174857 0.821853
O O18 0.250000 0.250000 0.820952
#
# Coordination Sequence:
#
# PCOD9490249 Si02
#       6
#    16  16  16   8  16  16
#     4  10  20  35  57  84 112 142 178 220 264 310
#     4   9  18  32  49  70  98 132 168 205 247 298
#     4   9  18  32  51  75 100 127 163 208 255 302
#     4   9  17  31  54  83 112 143 180 219 259 307
#     4   9  19  36  56  76 100 133 171 211 257 310
#     4  11  23  38  55  77 107 141 178 218 263 315
#
# _framework density 17.938483999999999
#
# number of rings (size 3 to 8) (size 9 to 14) (size 15 to 20)
#    0.000    2.455    0.000    1.909    0.000    6.182 
#    0.000    7.727    0.000    0.000    0.000    5.091 
#    0.000    0.000    0.000    0.000    0.000    0.000 
#
# Total GULP energy -245480.918336 kJ/mol
# GULP energy per Si atom -5579.111780 kJ/mol
# Density = 1.789766 g / cm^3
# Si number density = 17.938484 Si / 1000 Ang^3
#
#
#
# Elastic Constant Matrix: (Units=GPa)
#
#
# Indices 1 2 3 4 5 6 
#
# 1 33.7801 34.4404 49.1317 0.0000 0.0000 0.0000
# 2 34.4404 85.5539 102.4756 0.0000 0.0000 0.0000
# 3 49.1317 102.4756 219.3257 0.0000 0.0000 0.0000
# 4 0.0000 0.0000 0.0000 -17.4580 0.0000 0.0000
# 5 0.0000 0.0000 0.0000 0.0000 33.1851 0.0000
# 6 0.0000 0.0000 0.0000 0.0000 0.0000 23.3257
#
#
#
# Elastic Compliance Matrix: (Units=1/GPa)
#
#
# Indices 1 2 3 4 5 6 
#
# 1 0.051886 -0.015817 -0.004233 0.000000 0.000000 0.000000
# 2 -0.015817 0.031365 -0.011111 0.000000 0.000000 0.000000
# 3 -0.004233 -0.011111 0.010699 0.000000 0.000000 0.000000
# 4 0.000000 0.000000 0.000000 -0.057280 0.000000 0.000000
# 5 0.000000 0.000000 0.000000 0.000000 0.030134 0.000000
# 6 0.000000 0.000000 0.000000 0.000000 0.000000 0.042871
#
#
# Mechanical properties :
#
#
# Convention : Reuss Voigt Hill
#
# Bulk Modulus (GPa) = 31.61802 78.97280 55.29541
# Shear Modulus (GPa) = 27.39124 17.98471 22.68797
#
# Velocity S-wave (km/s) = 3.91186 3.16978 3.56021
# Velocity P-wave (km/s) = 6.16990 7.58396 6.91318
#
# Compressibility (1/GPa) = 0.03162753
#
# Stress axis : x y z
#
# Youngs Moduli (GPa) = 19.27301 31.88271 93.46425
#
# Poissons Ratio (x) = 0.50429 0.39563
# Poissons Ratio (y) = 0.30484 1.03852
# Poissons Ratio (z) = 0.08158 0.35426
#
# Static dielectric constant tensor:
#      x y z
#    x 1.606320 0.000000 0.000000 
#    y 0.000000 1.591940 0.000000 
#    z 0.000000 0.000000 1.605660 
# 
# From -- ./inp_files/67532.got.cif
#   From: 2010.05.17/outbox.cif.g08.bks.cpg/sg65_34_cif.got.tgz:67532.got - 2010.06.03 17:01:31.
