data_PCOD9490036
_publ_section_title
;
Structure prediction by ZEFSAII (Michael W. Deem and Ramdas Pophale) SiO2 
 PCOD9490036
Probable space group: C M M M
;
_chemical_formula_sum "Si O2"
_cell_formula_units_Z 84
_cell_length_a 18.745283
_cell_length_b 14.338985
_cell_length_c 17.926875
_cell_angle_alpha 90.000000
_cell_angle_beta 90.000000
_cell_angle_gamma 90.000000
_cell_volume 4818.534825
_symmetry_space_group_name_H-M "C M M M"
_symmetry_group_IT_number 65
_symmetry_cell_setting 'orthorhombic'
loop_
_space_group_symop_operation_xyz
x,y,z
-x,-y,z
x,-y,-z
-x,y,-z
-x,-y,-z
x,y,-z
-x,y,z
x,-y,z
1/2+x,1/2+y,z
1/2-x,1/2-y,z
1/2+x,1/2-y,-z
1/2-x,1/2+y,-z
1/2-x,1/2-y,-z
1/2+x,1/2+y,-z
1/2-x,1/2+y,z
1/2+x,1/2-y,z
loop_
_atom_site_type_symbol
_atom_site_label
_atom_site_fract_x
_atom_site_fract_y
_atom_site_fract_z
Si Si1 0.175771 0.108919 0.085550
Si Si2 0.250000 0.250000 0.500000
Si Si3 0.079252 0.890751 0.680747
Si Si4 0.201495 0.389775 0.792472
Si Si5 0.081573 0.759327 0.174231
Si Si6 0.733350 0.389598 0.370554
O O1 0.239269 0.127433 0.143938
O O2 0.112851 0.178867 0.107156
O O3 0.154623 0.000000 0.094973
O O4 0.198585 0.121603 0.000000
O O5 0.233451 0.327603 0.565640
O O6 0.083746 0.827160 0.753656
O O7 0.147729 0.870918 0.630034
O O8 0.000000 0.877892 0.646981
O O9 0.085516 0.000000 0.702597
O O10 0.184687 0.500000 0.793453
O O11 0.133413 0.326706 0.809053
O O12 0.235845 0.368082 0.711704
O O13 0.000000 0.731194 0.161666
O O14 0.743256 0.500000 0.383020
#
# Coordination Sequence:
#
# PCOD9490036 Si02
#       6
#    16   4  16  16  16  16
#     4  10  21  37  58  84 112 144 185 231 280 333
#     4  12  22  32  54  80 110 142 178 238 280 328
#     4   9  17  31  53  81 112 144 177 218 273 338
#     4  10  21  38  58  78 109 152 195 234 270 320
#     4  11  21  32  52  82 114 148 187 228 276 328
#     4  10  20  35  55  81 110 145 186 227 278 333
#
# _framework density 17.432684999999999
#
# number of rings (size 3 to 8) (size 9 to 14) (size 15 to 20)
#    0.000    1.905    1.905    2.571    0.000    3.429 
#    0.000    1.429    0.000    3.429    0.000    4.000 
#    0.000   10.667    0.000    0.000    0.000    0.000 
#
# Total GULP energy -233853.544022 kJ/mol
# GULP energy per Si atom -5567.941524 kJ/mol
# Density = 1.739301 g / cm^3
# Si number density = 17.432685 Si / 1000 Ang^3
#
#
#
# Elastic Constant Matrix: (Units=GPa)
#
#
# Indices 1 2 3 4 5 6 
#
# 1 95.9747 47.4397 21.5438 0.0000 0.0000 0.0000
# 2 47.4397 72.8249 36.9144 0.0000 0.0000 0.0000
# 3 21.5438 36.9144 80.9289 0.0000 0.0000 0.0000
# 4 0.0000 0.0000 0.0000 10.3538 0.0000 0.0000
# 5 0.0000 0.0000 0.0000 0.0000 -12.8772 0.0000
# 6 0.0000 0.0000 0.0000 0.0000 0.0000 19.4517
#
#
#
# Elastic Compliance Matrix: (Units=1/GPa)
#
#
# Indices 1 2 3 4 5 6 
#
# 1 0.015392 -0.010340 0.000619 0.000000 0.000000 0.000000
# 2 -0.010340 0.024808 -0.008563 0.000000 0.000000 0.000000
# 3 0.000619 -0.008563 0.016098 0.000000 0.000000 0.000000
# 4 0.000000 0.000000 0.000000 0.096583 0.000000 0.000000
# 5 0.000000 0.000000 0.000000 0.000000 -0.077657 0.000000
# 6 0.000000 0.000000 0.000000 0.000000 0.000000 0.051409
#
#
# Mechanical properties :
#
#
# Convention : Reuss Voigt Hill
#
# Bulk Modulus (GPa) = 50.68722 51.28046 50.98384
# Shear Modulus (GPa) = 29.45028 12.97436 21.21232
#
# Velocity S-wave (km/s) = 4.11466 2.73106 3.49207
# Velocity P-wave (km/s) = 7.19117 6.27894 6.75048
#
# Compressibility (1/GPa) = 0.01972884
#
# Stress axis : x y z
#
# Youngs Moduli (GPa) = 64.97073 40.30952 62.12100
#
# Poissons Ratio (x) = 0.41681 -0.03847
# Poissons Ratio (y) = 0.67181 0.53195
# Poissons Ratio (z) = -0.04023 0.34518
#
# Static dielectric constant tensor:
#      x y z
#    x 1.604720 0.000000 0.000000 
#    y 0.000000 1.604760 0.000000 
#    z 0.000000 0.000000 1.579060 
# 
# From -- ./inp_files/43978.got.cif
#   From: 2010.05.17/outbox.cif.g08.bks.cpg/sg65_22_cif.got.tgz:43978.got - 2010.06.03 17:01:31.
