data_PCOD9490725
_publ_section_title
;
Structure prediction by ZEFSAII (Michael W. Deem and Ramdas Pophale) SiO2 
 PCOD9490725
Probable space group: C M M M
;
_chemical_formula_sum "Si O2"
_cell_formula_units_Z 72
_cell_length_a 23.738500
_cell_length_b 19.477446
_cell_length_c 7.952927
_cell_angle_alpha 90.000000
_cell_angle_beta 90.000000
_cell_angle_gamma 90.000000
_cell_volume 3677.157891
_symmetry_space_group_name_H-M "C M M M"
_symmetry_group_IT_number 65
_symmetry_cell_setting 'orthorhombic'
loop_
_space_group_symop_operation_xyz
x,y,z
-x,-y,z
x,-y,-z
-x,y,-z
-x,-y,-z
x,y,-z
-x,y,z
x,-y,z
1/2+x,1/2+y,z
1/2-x,1/2-y,z
1/2+x,1/2-y,-z
1/2-x,1/2+y,-z
1/2-x,1/2-y,-z
1/2+x,1/2+y,-z
1/2-x,1/2+y,z
1/2+x,1/2-y,z
loop_
_atom_site_type_symbol
_atom_site_label
_atom_site_fract_x
_atom_site_fract_y
_atom_site_fract_z
Si Si1 0.433905 0.693659 0.795377
Si Si2 0.566970 0.076979 0.000000
Si Si3 0.753109 0.672807 0.301973
Si Si4 0.848921 0.077586 0.200130
Si Si5 0.885053 0.660737 0.690933
O O1 0.500000 0.692584 0.750813
O O2 0.399955 0.626021 0.738767
O O3 0.403125 0.760292 0.720334
O O4 0.430463 0.698601 0.000000
O O5 0.585651 0.116702 0.166118
O O6 0.500000 0.074351 0.000000
O O7 0.590343 0.000000 0.000000
O O8 0.738824 0.677681 0.500000
O O9 0.750000 0.750000 0.229088
O O10 0.708893 0.619255 0.228229
O O11 0.818050 0.651987 0.287668
O O12 0.847511 0.000000 0.269650
O O13 0.856700 0.072075 0.000000
O O14 0.900194 0.641371 0.500000
#
# Coordination Sequence:
#
# PCOD9490725 Si02
#       5
#    16   8  16  16  16
#     4  10  20  36  60  89 124 166 210 256 307 367
#     4  11  26  46  65  90 127 165 203 256 318 374
#     4  10  21  38  60  86 117 155 199 253 314 370
#     4  10  22  37  57  89 125 164 208 255 311 373
#     4  11  23  40  66  95 124 160 209 261 310 372
#
# _framework density 19.58034
#
# number of rings (size 3 to 8) (size 9 to 14) (size 15 to 20)
#    0.000    1.667    3.333    0.667    1.556    4.444 
#    0.000    5.556    0.000    0.000    0.000    3.111 
#    0.000    0.000    0.000    0.000    0.000    0.000 
#
# Total GULP energy -201053.283071 kJ/mol
# GULP energy per Si atom -5584.813419 kJ/mol
# Density = 1.953577 g / cm^3
# Si number density = 19.580340 Si / 1000 Ang^3
#
#
#
# Elastic Constant Matrix: (Units=GPa)
#
#
# Indices 1 2 3 4 5 6 
#
# 1 96.6810 49.8968 29.0158 0.0000 0.0000 0.0000
# 2 49.8968 140.0313 34.7545 0.0000 0.0000 0.0000
# 3 29.0158 34.7545 68.2629 0.0000 0.0000 0.0000
# 4 0.0000 0.0000 0.0000 -1.3178 0.0000 0.0000
# 5 0.0000 0.0000 0.0000 0.0000 -62.0558 0.0000
# 6 0.0000 0.0000 0.0000 0.0000 0.0000 22.2740
#
#
#
# Elastic Compliance Matrix: (Units=1/GPa)
#
#
# Indices 1 2 3 4 5 6 
#
# 1 0.013466 -0.003866 -0.003755 0.000000 0.000000 0.000000
# 2 -0.003866 0.009284 -0.003083 0.000000 0.000000 0.000000
# 3 -0.003755 -0.003083 0.017815 0.000000 0.000000 0.000000
# 4 0.000000 0.000000 0.000000 -0.758847 0.000000 0.000000
# 5 0.000000 0.000000 0.000000 0.000000 -0.016115 0.000000
# 6 0.000000 0.000000 0.000000 0.000000 0.000000 0.044895
#
#
# Mechanical properties :
#
#
# Convention : Reuss Voigt Hill
#
# Bulk Modulus (GPa) = 52.20496 59.14546 55.67521
# Shear Modulus (GPa) = -7.55623 4.53394 -1.51114
#
# Velocity S-wave (km/s) = -1.96659 1.52335 -0.87945
# Velocity P-wave (km/s) = 4.64362 5.77635 5.24068
#
# Compressibility (1/GPa) = 0.01915527
#
# Stress axis : x y z
#
# Youngs Moduli (GPa) = 74.26309 107.71043 56.13131
#
# Poissons Ratio (x) = 0.41642 0.21079
# Poissons Ratio (y) = 0.28711 0.17308
# Poissons Ratio (z) = 0.27888 0.33212
#
# Static dielectric constant tensor:
#      x y z
#    x 1.660900 0.000000 0.000000 
#    y 0.000000 1.691550 0.000000 
#    z 0.000000 0.000000 1.672120 
# 
# From -- ./inp_files/13571.got.cif
#   From: 2010.05.17/outbox.cif.g08.bks.cpg/sg65_7_cif.got.tgz:13571.got - 2010.06.03 17:01:31.
