data_PCOD9490846
_publ_section_title
;
Structure prediction by ZEFSAII (Michael W. Deem and Ramdas Pophale) SiO2 
 PCOD9490846
Probable space group: C M M M
;
_chemical_formula_sum "Si O2"
_cell_formula_units_Z 56
_cell_length_a 15.046159
_cell_length_b 9.957370
_cell_length_c 17.277298
_cell_angle_alpha 90.000000
_cell_angle_beta 90.000000
_cell_angle_gamma 90.000000
_cell_volume 2588.487762
_symmetry_space_group_name_H-M "C M M M"
_symmetry_group_IT_number 65
_symmetry_cell_setting 'orthorhombic'
loop_
_space_group_symop_operation_xyz
x,y,z
-x,-y,z
x,-y,-z
-x,y,-z
-x,-y,-z
x,y,-z
-x,y,z
x,-y,z
1/2+x,1/2+y,z
1/2-x,1/2-y,z
1/2+x,1/2-y,-z
1/2-x,1/2+y,-z
1/2-x,1/2-y,-z
1/2+x,1/2+y,-z
1/2-x,1/2+y,z
1/2+x,1/2-y,z
loop_
_atom_site_type_symbol
_atom_site_label
_atom_site_fract_x
_atom_site_fract_y
_atom_site_fract_z
Si Si1 0.394777 0.154379 0.141860
Si Si2 0.341218 0.665354 0.000000
Si Si3 0.391884 0.000000 0.413442
Si Si4 0.891447 0.747577 0.309009
Si Si5 0.391064 0.500000 0.409587
O O1 0.500000 0.137069 0.151611
O O2 0.384563 0.268125 0.076266
O O3 0.359054 0.213891 0.222681
O O4 0.360229 0.000000 0.124897
O O5 0.250000 0.750000 0.000000
O O6 0.338047 0.500000 0.000000
O O7 0.366039 0.873284 0.364204
O O8 0.500000 0.000000 0.417396
O O9 0.357592 0.000000 0.500000
O O10 0.862094 0.875895 0.356957
O O11 0.000000 0.755064 0.304296
O O12 0.500000 0.500000 0.412446
O O13 0.363149 0.500000 0.500000
#
# Coordination Sequence:
#
# PCOD9490846 Si02
#       5
#    16   8   8  16   8
#     4  10  20  37  60  86 118 152 187 230 281 334
#     4  12  27  44  63  85 111 143 183 232 285 344
#     4   9  14  22  38  63  99 144 188 221 257 313
#     4   9  16  26  42  68 104 146 186 223 267 321
#     4   9  16  24  36  61 103 150 188 227 273 315
#
# _framework density 21.634255
#
# number of rings (size 3 to 8) (size 9 to 14) (size 15 to 20)
#    0.000    2.286    1.429    2.571    2.000    5.714 
#    0.000    0.000    0.000    0.000    0.000    0.000 
#    0.000    6.857    0.000    0.000    0.000    0.000 
#
# Total GULP energy -155992.516494 kJ/mol
# GULP energy per Si atom -5571.161303 kJ/mol
# Density = 2.158501 g / cm^3
# Si number density = 21.634255 Si / 1000 Ang^3
#
#
#
# Elastic Constant Matrix: (Units=GPa)
#
#
# Indices 1 2 3 4 5 6 
#
# 1 43.2304 7.0048 3.1165 0.0000 0.0000 0.0000
# 2 7.0048 265.7380 133.1768 0.0000 0.0000 0.0000
# 3 3.1165 133.1768 232.8178 0.0000 0.0000 0.0000
# 4 0.0000 0.0000 0.0000 21.4231 0.0000 0.0000
# 5 0.0000 0.0000 0.0000 0.0000 -77.5718 0.0000
# 6 0.0000 0.0000 0.0000 0.0000 0.0000 6.4598
#
#
#
# Elastic Compliance Matrix: (Units=1/GPa)
#
#
# Indices 1 2 3 4 5 6 
#
# 1 0.023232 -0.000640 0.000055 0.000000 0.000000 0.000000
# 2 -0.000640 0.005293 -0.003019 0.000000 0.000000 0.000000
# 3 0.000055 -0.003019 0.006022 0.000000 0.000000 0.000000
# 4 0.000000 0.000000 0.000000 0.046679 0.000000 0.000000
# 5 0.000000 0.000000 0.000000 0.000000 -0.012891 0.000000
# 6 0.000000 0.000000 0.000000 0.000000 0.000000 0.154805
#
#
# Mechanical properties :
#
#
# Convention : Reuss Voigt Hill
#
# Bulk Modulus (GPa) = 36.57905 92.04248 64.31077
# Shear Modulus (GPa) = 20.88041 16.62808 18.75425
#
# Velocity S-wave (km/s) = 3.11007 2.77537 2.94747
# Velocity P-wave (km/s) = 5.46272 7.27375 6.43229
#
# Compressibility (1/GPa) = 0.02733805
#
# Stress axis : x y z
#
# Youngs Moduli (GPa) = 43.04478 188.92658 166.07153
#
# Poissons Ratio (x) = 0.12091 -0.00915
# Poissons Ratio (y) = 0.02755 0.50140
# Poissons Ratio (z) = -0.00237 0.57040
#
# Static dielectric constant tensor:
#      x y z
#    x 1.917090 0.000000 0.000000 
#    y 0.000000 1.739210 0.000000 
#    z 0.000000 0.000000 1.789190 
# 
# From -- ./inp_files/53914.got.cif
#   From: 2010.05.17/outbox.cif.g08.bks.cpg/sg65_27_cif.got.tgz:53914.got - 2010.06.03 17:01:31.
