data_PCOD9490980
_publ_section_title
;
Structure prediction by ZEFSAII (Michael W. Deem and Ramdas Pophale) SiO2 
 PCOD9490980
Probable space group: C M M M
;
_chemical_formula_sum "Si O2"
_cell_formula_units_Z 90
_cell_length_a 8.899485
_cell_length_b 23.612398
_cell_length_c 22.443413
_cell_angle_alpha 90.000000
_cell_angle_beta 90.000000
_cell_angle_gamma 90.000000
_cell_volume 4716.218002
_symmetry_space_group_name_H-M "C M M M"
_symmetry_group_IT_number 65
_symmetry_cell_setting 'orthorhombic'
loop_
_space_group_symop_operation_xyz
x,y,z
-x,-y,z
x,-y,-z
-x,y,-z
-x,-y,-z
x,y,-z
-x,y,z
x,-y,z
1/2+x,1/2+y,z
1/2-x,1/2-y,z
1/2+x,1/2-y,-z
1/2-x,1/2+y,-z
1/2-x,1/2-y,-z
1/2+x,1/2+y,-z
1/2-x,1/2+y,z
1/2+x,1/2-y,z
loop_
_atom_site_type_symbol
_atom_site_label
_atom_site_fract_x
_atom_site_fract_y
_atom_site_fract_z
Si Si1 0.170232 0.627510 0.890013
Si Si2 0.320760 0.688054 0.219995
Si Si3 0.320437 0.432738 0.568218
Si Si4 0.320898 0.000000 0.236683
Si Si5 0.678013 0.688368 0.000000
Si Si6 0.177480 0.613131 0.314926
Si Si7 0.000000 0.000000 0.000000
Si Si8 0.749530 0.000000 0.106232
O O1 0.248751 0.646069 0.828964
O O2 0.167997 0.560240 0.899300
O O3 0.000000 0.649396 0.890686
O O4 0.265059 0.655036 0.942584
O O5 0.500000 0.690056 0.213952
O O6 0.250000 0.750000 0.210713
O O7 0.270367 0.662653 0.283254
O O8 0.283221 0.417189 0.500000
O O9 0.500000 0.425368 0.576267
O O10 0.289382 0.500000 0.574982
O O11 0.231352 0.399195 0.618369
O O12 0.296725 0.944506 0.276789
O O13 0.216786 0.000000 0.177887
O O14 0.500000 0.000000 0.218538
O O15 0.750000 0.750000 0.000000
O O16 0.500000 0.692081 0.000000
O O17 0.000000 0.625548 0.312251
O O18 0.128333 0.000000 0.946282
#
# Coordination Sequence:
#
# PCOD9490980 Si02
#       8
#    16  16  16   8   8  16   2   8
#     4  12  25  44  70  97 127 163 206 256 320 388
#     4  12  26  44  66  94 126 165 211 267 327 386
#     4   9  18  33  54  87 134 180 223 268 319 382
#     4  10  20  38  62  93 126 165 206 257 321 386
#     4  12  27  47  68  90 120 161 210 262 315 377
#     4  11  21  37  62  94 132 171 217 268 321 387
#     4  12  32  44  58  96 136 168 220 256 308 374
#     4  12  26  44  69  90 137 168 208 257 321 384
#
# _framework density 19.083088
#
# number of rings (size 3 to 8) (size 9 to 14) (size 15 to 20)
#    0.000    0.889    2.667    5.867    3.733    0.356 
#    1.600    3.333    0.000    0.533    0.000    0.000 
#    0.000    0.000    0.000    0.000    0.000    0.000 
#
# Total GULP energy -251226.910236 kJ/mol
# GULP energy per Si atom -5582.820227 kJ/mol
# Density = 1.903965 g / cm^3
# Si number density = 19.083088 Si / 1000 Ang^3
#
#
#
# Elastic Constant Matrix: (Units=GPa)
#
#
# Indices 1 2 3 4 5 6 
#
# 1 141.7048 42.3084 56.0053 0.0000 0.0000 0.0000
# 2 42.3084 99.4132 26.3493 0.0000 0.0000 0.0000
# 3 56.0053 26.3493 125.3407 0.0000 0.0000 0.0000
# 4 0.0000 0.0000 0.0000 -2.2241 0.0000 0.0000
# 5 0.0000 0.0000 0.0000 0.0000 19.9542 0.0000
# 6 0.0000 0.0000 0.0000 0.0000 0.0000 -0.0328
#
#
#
# Elastic Compliance Matrix: (Units=1/GPa)
#
#
# Indices 1 2 3 4 5 6 
#
# 1 0.009368 -0.003047 -0.003545 0.000000 0.000000 0.000000
# 2 -0.003047 0.011644 -0.001086 0.000000 0.000000 0.000000
# 3 -0.003545 -0.001086 0.009791 0.000000 0.000000 0.000000
# 4 0.000000 0.000000 0.000000 -0.449616 0.000000 0.000000
# 5 0.000000 0.000000 0.000000 0.000000 0.050115 0.000000
# 6 0.000000 0.000000 0.000000 0.000000 0.000000-30.468037
#
#
# Mechanical properties :
#
#
# Convention : Reuss Voigt Hill
#
# Bulk Modulus (GPa) = 64.74536 68.42055 66.58296
# Shear Modulus (GPa) = -0.16225 19.65917 9.74846
#
# Velocity S-wave (km/s) = -0.29191 3.21314 2.26264
# Velocity P-wave (km/s) = 5.82136 7.04965 6.46474
#
# Compressibility (1/GPa) = 0.01544512
#
# Stress axis : x y z
#
# Youngs Moduli (GPa) = 106.74804 85.88317 102.13777
#
# Poissons Ratio (x) = 0.26170 0.36210
# Poissons Ratio (y) = 0.32527 0.11095
# Poissons Ratio (z) = 0.37845 0.09329
#
# Static dielectric constant tensor:
#      x y z
#    x 1.657500 0.000000 0.000000 
#    y 0.000000 1.661390 0.000000 
#    z 0.000000 0.000000 1.686990 
# 
# From -- ./inp_files/59951.got.cif
#   From: 2010.05.17/outbox.cif.g08.bks.cpg/sg65_30_cif.got.tgz:59951.got - 2010.06.03 17:01:31.
