data_PCOD9490213
_publ_section_title
;
Structure prediction by ZEFSAII (Michael W. Deem and Ramdas Pophale) SiO2 
 PCOD9490213
Probable space group: C M M M
;
_chemical_formula_sum "Si O2"
_cell_formula_units_Z 112
_cell_length_a 13.656150
_cell_length_b 16.117002
_cell_length_c 26.673228
_cell_angle_alpha 90.000000
_cell_angle_beta 90.000000
_cell_angle_gamma 90.000000
_cell_volume 5870.676041
_symmetry_space_group_name_H-M "C M M M"
_symmetry_group_IT_number 65
_symmetry_cell_setting 'orthorhombic'
loop_
_space_group_symop_operation_xyz
x,y,z
-x,-y,z
x,-y,-z
-x,y,-z
-x,-y,-z
x,y,-z
-x,y,z
x,-y,z
1/2+x,1/2+y,z
1/2-x,1/2-y,z
1/2+x,1/2-y,-z
1/2-x,1/2+y,-z
1/2-x,1/2-y,-z
1/2+x,1/2+y,-z
1/2-x,1/2+y,z
1/2+x,1/2-y,z
loop_
_atom_site_type_symbol
_atom_site_label
_atom_site_fract_x
_atom_site_fract_y
_atom_site_fract_z
Si Si1 0.607903 0.403107 0.348615
Si Si2 0.881628 0.000000 0.938963
Si Si3 0.713722 0.655603 0.555451
Si Si4 0.288691 0.158389 0.709827
Si Si5 0.760969 0.649946 0.093731
Si Si6 0.889940 0.595207 0.614760
Si Si7 0.387717 0.900860 0.188677
Si Si8 0.390266 0.900661 0.000000
O O1 0.500000 0.377896 0.331198
O O2 0.606907 0.500000 0.361601
O O3 0.637962 0.356232 0.399418
O O4 0.691502 0.390538 0.307311
O O5 0.829232 0.916083 0.916232
O O6 0.000000 0.000000 0.930512
O O7 0.865820 0.000000 0.000000
O O8 0.677911 0.632982 0.500000
O O9 0.750000 0.750000 0.554889
O O10 0.809790 0.604298 0.571591
O O11 0.250000 0.250000 0.719981
O O12 0.357516 0.153376 0.660697
O O13 0.346004 0.123513 0.757110
O O14 0.750000 0.750000 0.091233
O O15 0.813940 0.630821 0.146206
O O16 0.834565 0.627628 0.049126
O O17 0.886626 0.500000 0.633520
O O18 0.000000 0.613386 0.598049
O O19 0.500000 0.870322 0.182104
O O20 0.390333 0.000000 0.184891
O O21 0.500000 0.867700 0.000000
O O22 0.392906 0.000000 0.000000
#
# Coordination Sequence:
#
# PCOD9490213 Si02
#       8
#    16   8  16  16  16  16  16   8
#     4  10  21  37  57  79 106 147 189 228 276 337
#     4  11  24  44  66  94 136 184 222 264 325 388
#     4  10  21  35  52  77 109 143 181 229 285 340
#     4  11  22  37  58  87 115 148 186 238 293 357
#     4  12  23  42  65  96 131 172 219 269 318 384
#     4  10  20  35  57  82 108 142 187 233 289 354
#     4  11  23  41  66  90 120 157 200 256 316 366
#     4  11  21  38  66  97 130 168 214 270 326 372
#
# _framework density 19.077870000000001
#
# number of rings (size 3 to 8) (size 9 to 14) (size 15 to 20)
#    0.000    1.286    2.143    5.786    0.000    8.000 
#    0.000    3.571    0.000    0.000    0.000    0.000 
#    0.000    0.000    0.000    0.000    0.000    0.000 
#
# Total GULP energy -312500.812592 kJ/mol
# GULP energy per Si atom -5580.371653 kJ/mol
# Density = 1.903445 g / cm^3
# Si number density = 19.077870 Si / 1000 Ang^3
#
#
#
# Elastic Constant Matrix: (Units=GPa)
#
#
# Indices 1 2 3 4 5 6 
#
# 1 114.0348 37.3650 23.0945 0.0000 0.0000 0.0000
# 2 37.3650 88.4276 21.8830 0.0000 0.0000 0.0000
# 3 23.0945 21.8830 82.8676 0.0000 0.0000 0.0000
# 4 0.0000 0.0000 0.0000 40.9869 0.0000 0.0000
# 5 0.0000 0.0000 0.0000 0.0000 -2.3536 0.0000
# 6 0.0000 0.0000 0.0000 0.0000 0.0000 1.9412
#
#
#
# Elastic Compliance Matrix: (Units=1/GPa)
#
#
# Indices 1 2 3 4 5 6 
#
# 1 0.010442 -0.003950 -0.001867 0.000000 0.000000 0.000000
# 2 -0.003950 0.013594 -0.002489 0.000000 0.000000 0.000000
# 3 -0.001867 -0.002489 0.013245 0.000000 0.000000 0.000000
# 4 0.000000 0.000000 0.000000 0.024398 0.000000 0.000000
# 5 0.000000 0.000000 0.000000 0.000000 -0.424879 0.000000
# 6 0.000000 0.000000 0.000000 0.000000 0.000000 0.515152
#
#
# Mechanical properties :
#
#
# Convention : Reuss Voigt Hill
#
# Bulk Modulus (GPa) = 48.38252 50.00166 49.19209
# Shear Modulus (GPa) = 28.49771 21.64740 25.07255
#
# Velocity S-wave (km/s) = 3.86911 3.37216 3.62915
# Velocity P-wave (km/s) = 6.73614 6.43647 6.58801
#
# Compressibility (1/GPa) = 0.02066862
#
# Stress axis : x y z
#
# Youngs Moduli (GPa) = 95.77042 73.56338 75.50039
#
# Poissons Ratio (x) = 0.29058 0.14095
# Poissons Ratio (y) = 0.37830 0.18791
# Poissons Ratio (z) = 0.17879 0.18309
#
# Static dielectric constant tensor:
#      x y z
#    x 1.675240 0.000000 0.000000 
#    y 0.000000 1.696510 0.000000 
#    z 0.000000 0.000000 1.711870 
# 
# From -- ./inp_files/74918.got.cif
#   From: 2010.05.17/outbox.cif.g08.bks.cpg/sg65_38_cif.got.tgz:74918.got - 2010.06.03 17:01:31.
