data_PCOD9490551
_publ_section_title
;
Structure prediction by ZEFSAII (Michael W. Deem and Ramdas Pophale) SiO2 
 PCOD9490551
Probable space group: C M M M
;
_chemical_formula_sum "Si O2"
_cell_formula_units_Z 72
_cell_length_a 30.651958
_cell_length_b 15.377027
_cell_length_c 8.218430
_cell_angle_alpha 90.000000
_cell_angle_beta 90.000000
_cell_angle_gamma 90.000000
_cell_volume 3873.641806
_symmetry_space_group_name_H-M "C M M M"
_symmetry_group_IT_number 65
_symmetry_cell_setting 'orthorhombic'
loop_
_space_group_symop_operation_xyz
x,y,z
-x,-y,z
x,-y,-z
-x,y,-z
-x,-y,-z
x,y,-z
-x,y,z
x,-y,z
1/2+x,1/2+y,z
1/2-x,1/2-y,z
1/2+x,1/2-y,-z
1/2-x,1/2+y,-z
1/2-x,1/2-y,-z
1/2+x,1/2+y,-z
1/2-x,1/2+y,z
1/2+x,1/2-y,z
loop_
_atom_site_type_symbol
_atom_site_label
_atom_site_fract_x
_atom_site_fract_y
_atom_site_fract_z
Si Si1 0.707812 0.192448 0.196470
Si Si2 0.632654 0.321655 0.193169
Si Si3 0.052871 0.403027 0.500000
Si Si4 0.827911 0.000000 0.691253
Si Si5 0.551662 0.212503 0.811116
Si Si6 0.270697 0.000000 0.305133
O O1 0.750000 0.250000 0.249541
O O2 0.665046 0.245259 0.252633
O O3 0.709140 0.092402 0.251989
O O4 0.708396 0.191103 0.000000
O O5 0.646650 0.413379 0.262724
O O6 0.582793 0.294446 0.219969
O O7 0.639307 0.327221 0.000000
O O8 0.070955 0.500000 0.500000
O O9 0.063822 0.354906 0.331294
O O10 0.000000 0.407277 0.500000
O O11 0.779037 0.000000 0.763356
O O12 0.821970 0.000000 0.500000
O O13 0.500000 0.230744 0.798242
O O14 0.559691 0.183495 0.000000
O O15 0.270585 0.000000 0.500000
#
# Coordination Sequence:
#
# PCOD9490551 Si02
#       6
#    16  16   8   8  16   8
#     4  10  20  36  58  79 105 144 187 229 275 329
#     4  10  21  38  59  83 108 146 193 234 282 340
#     4   9  18  34  58  85 110 147 197 239 289 349
#     4  11  23  35  56  84 113 147 186 232 287 344
#     4   9  19  37  59  83 116 154 192 241 292 338
#     4  11  23  37  53  82 117 150 184 228 286 342
#
# _framework density 18.587159
#
# number of rings (size 3 to 8) (size 9 to 14) (size 15 to 20)
#    0.000    2.111    2.222    0.667    1.556    2.667 
#    2.000    2.778    0.000    3.333    0.000    0.000 
#    0.000    0.000    0.000    0.000    0.000    0.000 
#
# Total GULP energy -200694.264615 kJ/mol
# GULP energy per Si atom -5574.840684 kJ/mol
# Density = 1.854485 g / cm^3
# Si number density = 18.587159 Si / 1000 Ang^3
#
#
#
# Elastic Constant Matrix: (Units=GPa)
#
#
# Indices 1 2 3 4 5 6 
#
# 1 68.3987 60.0779 38.7726 0.0000 0.0000 0.0000
# 2 60.0779 176.7185 52.2895 0.0000 0.0000 0.0000
# 3 38.7726 52.2895 47.9968 0.0000 0.0000 0.0000
# 4 0.0000 0.0000 0.0000 21.5675 0.0000 0.0000
# 5 0.0000 0.0000 0.0000 0.0000 15.5365 0.0000
# 6 0.0000 0.0000 0.0000 0.0000 0.0000 -12.6513
#
#
#
# Elastic Compliance Matrix: (Units=1/GPa)
#
#
# Indices 1 2 3 4 5 6 
#
# 1 0.029052 -0.004327 -0.018754 0.000000 0.000000 0.000000
# 2 -0.004327 0.008995 -0.006304 0.000000 0.000000 0.000000
# 3 -0.018754 -0.006304 0.042852 0.000000 0.000000 0.000000
# 4 0.000000 0.000000 0.000000 0.046366 0.000000 0.000000
# 5 0.000000 0.000000 0.000000 0.000000 0.064365 0.000000
# 6 0.000000 0.000000 0.000000 0.000000 0.000000 -0.079043
#
#
# Mechanical properties :
#
#
# Convention : Reuss Voigt Hill
#
# Bulk Modulus (GPa) = 45.19066 66.15490 55.67278
# Shear Modulus (GPa) = 27.97437 14.35547 21.16492
#
# Velocity S-wave (km/s) = 3.88369 2.78210 3.37810
# Velocity P-wave (km/s) = 6.66906 6.78153 6.72553
#
# Compressibility (1/GPa) = 0.02212847
#
# Stress axis : x y z
#
# Youngs Moduli (GPa) = 34.42063 111.17088 23.33589
#
# Poissons Ratio (x) = 0.48109 0.43765
# Poissons Ratio (y) = 0.14895 0.14711
# Poissons Ratio (z) = 0.64554 0.70080
#
# Static dielectric constant tensor:
#      x y z
#    x 1.657180 0.000000 0.000000 
#    y 0.000000 1.578630 0.000000 
#    z 0.000000 0.000000 1.656590 
# 
# From -- ./inp_files/7712.got.cif
#   From: 2010.05.17/outbox.cif.g08.bks.cpg/sg65_4_cif.got.tgz:7712.got - 2010.06.03 17:01:31.
