data_PCOD9490561
_publ_section_title
;
Structure prediction by ZEFSAII (Michael W. Deem and Ramdas Pophale) SiO2 
 PCOD9490561
Probable space group: C M M M
;
_chemical_formula_sum "Si O2"
_cell_formula_units_Z 120
_cell_length_a 25.097901
_cell_length_b 29.390318
_cell_length_c 8.970428
_cell_angle_alpha 90.000000
_cell_angle_beta 90.000000
_cell_angle_gamma 90.000000
_cell_volume 6616.904273
_symmetry_space_group_name_H-M "C M M M"
_symmetry_group_IT_number 65
_symmetry_cell_setting 'orthorhombic'
loop_
_space_group_symop_operation_xyz
x,y,z
-x,-y,z
x,-y,-z
-x,y,-z
-x,-y,-z
x,y,-z
-x,y,z
x,-y,z
1/2+x,1/2+y,z
1/2-x,1/2-y,z
1/2+x,1/2-y,-z
1/2-x,1/2+y,-z
1/2-x,1/2-y,-z
1/2+x,1/2+y,-z
1/2-x,1/2+y,z
1/2+x,1/2-y,z
loop_
_atom_site_type_symbol
_atom_site_label
_atom_site_fract_x
_atom_site_fract_y
_atom_site_fract_z
Si Si1 0.059124 0.357472 0.820977
Si Si2 0.558916 0.660608 0.677074
Si Si3 0.248182 0.053722 0.820573
Si Si4 0.583492 0.246691 0.172550
Si Si5 0.296161 0.784012 0.175166
Si Si6 0.369173 0.413160 0.820369
Si Si7 0.329789 0.878053 0.322418
Si Si8 0.560980 0.500000 0.181580
O O1 0.061563 0.303258 0.789965
O O2 0.109787 0.378874 0.739796
O O3 0.000000 0.374451 0.780904
O O4 0.066122 0.362178 0.000000
O O5 0.562799 0.656353 0.500000
O O6 0.500000 0.643721 0.724807
O O7 0.605443 0.632057 0.753779
O O8 0.593433 0.544708 0.772700
O O9 0.191473 0.075967 0.777371
O O10 0.295536 0.080391 0.741320
O O11 0.247170 0.000000 0.786299
O O12 0.253552 0.058213 0.000000
O O13 0.647299 0.241620 0.183455
O O14 0.563646 0.287044 0.274972
O O15 0.569647 0.256579 0.000000
O O16 0.250000 0.750000 0.227487
O O17 0.303142 0.831175 0.262202
O O18 0.286226 0.794828 0.000000
O O19 0.370621 0.410546 0.000000
O O20 0.330175 0.877934 0.500000
O O21 0.500000 0.500000 0.233376
O O22 0.560370 0.500000 0.000000
#
# Coordination Sequence:
#
# PCOD9490561 Si02
#       8
#    16  16  16  16  16  16  16   8
#     4   9  18  36  62  88 114 148 192 234 271 321
#     4  11  24  37  48  71 111 152 185 222 274 332
#     4  10  21  40  64  86 110 142 188 240 287 339
#     4   9  18  33  54  80 106 141 189 233 272 314
#     4   9  19  36  56  78 108 148 193 238 280 325
#     4  10  20  36  58  81 101 132 181 235 286 331
#     4  11  23  36  55  87 122 153 184 224 283 347
#     4   9  16  30  55  83 103 121 164 233 292 333
#
# _framework density 18.135370000000002
#
# number of rings (size 3 to 8) (size 9 to 14) (size 15 to 20)
#    0.000    2.200    0.667    3.200    1.867    5.600 
#    0.000    0.333    0.000    1.600    0.000    2.800 
#    0.000    0.000    0.000    0.000    0.000    0.000 
#
# Total GULP energy -334953.545761 kJ/mol
# GULP energy per Si atom -5582.559096 kJ/mol
# Density = 1.809409 g / cm^3
# Si number density = 18.135370 Si / 1000 Ang^3
#
#
#
# Elastic Constant Matrix: (Units=GPa)
#
#
# Indices 1 2 3 4 5 6 
#
# 1 150.9570 57.7329 53.8678 0.0000 0.0000 0.0000
# 2 57.7329 65.5982 40.0984 0.0000 0.0000 0.0000
# 3 53.8678 40.0984 45.8079 0.0000 0.0000 0.0000
# 4 0.0000 0.0000 0.0000 -16.1352 0.0000 0.0000
# 5 0.0000 0.0000 0.0000 0.0000 14.1462 0.0000
# 6 0.0000 0.0000 0.0000 0.0000 0.0000 12.7921
#
#
#
# Elastic Compliance Matrix: (Units=1/GPa)
#
#
# Indices 1 2 3 4 5 6 
#
# 1 0.011913 -0.004132 -0.010392 0.000000 0.000000 0.000000
# 2 -0.004132 0.034223 -0.025098 0.000000 0.000000 0.000000
# 3 -0.010392 -0.025098 0.056020 0.000000 0.000000 0.000000
# 4 0.000000 0.000000 0.000000 -0.061976 0.000000 0.000000
# 5 0.000000 0.000000 0.000000 0.000000 0.070690 0.000000
# 6 0.000000 0.000000 0.000000 0.000000 0.000000 0.078173
#
#
# Mechanical properties :
#
#
# Convention : Reuss Voigt Hill
#
# Bulk Modulus (GPa) = 43.64523 62.86236 53.25379
# Shear Modulus (GPa) = 18.12093 9.53823 13.82958
#
# Velocity S-wave (km/s) = 3.16445 2.29584 2.76447
# Velocity P-wave (km/s) = 6.12129 6.46266 6.29429
#
# Compressibility (1/GPa) = 0.02291201
#
# Stress axis : x y z
#
# Youngs Moduli (GPa) = 83.94136 29.22030 17.85080
#
# Poissons Ratio (x) = 0.12075 0.18550
# Poissons Ratio (y) = 0.34689 0.44801
# Poissons Ratio (z) = 0.87230 0.73336
#
# Static dielectric constant tensor:
#      x y z
#    x 1.638680 0.000000 0.000000 
#    y 0.000000 1.600730 0.000000 
#    z 0.000000 0.000000 1.602260 
# 
# From -- ./inp_files/17123.got.cif
#   From: 2010.05.17/outbox.cif.g08.bks.cpg/sg65_9_cif.got.tgz:17123.got - 2010.06.03 17:01:31.
