data_PCOD9490475
_publ_section_title
;
Structure prediction by ZEFSAII (Michael W. Deem and Ramdas Pophale) SiO2 
 PCOD9490475
Probable space group: C M M M
;
_chemical_formula_sum "Si O2"
_cell_formula_units_Z 88
_cell_length_a 24.304818
_cell_length_b 8.816375
_cell_length_c 23.279474
_cell_angle_alpha 90.000000
_cell_angle_beta 90.000000
_cell_angle_gamma 90.000000
_cell_volume 4988.334763
_symmetry_space_group_name_H-M "C M M M"
_symmetry_group_IT_number 65
_symmetry_cell_setting 'orthorhombic'
loop_
_space_group_symop_operation_xyz
x,y,z
-x,-y,z
x,-y,-z
-x,y,-z
-x,-y,-z
x,y,-z
-x,y,z
x,-y,z
1/2+x,1/2+y,z
1/2-x,1/2-y,z
1/2+x,1/2-y,-z
1/2-x,1/2+y,-z
1/2-x,1/2-y,-z
1/2+x,1/2+y,-z
1/2-x,1/2+y,z
1/2+x,1/2-y,z
loop_
_atom_site_type_symbol
_atom_site_label
_atom_site_fract_x
_atom_site_fract_y
_atom_site_fract_z
Si Si1 0.605555 0.181779 0.618128
Si Si2 0.434645 0.681843 0.500000
Si Si3 0.500000 0.327878 0.186847
Si Si4 0.689339 0.182813 0.935725
Si Si5 0.000000 0.173559 0.324154
Si Si6 0.617615 0.182983 0.173039
Si Si7 0.189065 0.683171 0.715561
O O1 0.596213 0.255382 0.556091
O O2 0.553305 0.238367 0.654371
O O3 0.658872 0.225825 0.655829
O O4 0.604876 0.000000 0.612878
O O5 0.433791 0.500000 0.500000
O O6 0.500000 0.728379 0.500000
O O7 0.500000 0.500000 0.165097
O O8 0.500000 0.332052 0.255962
O O9 0.556129 0.245197 0.170243
O O10 0.750000 0.250000 0.928157
O O11 0.650914 0.231960 0.883501
O O12 0.692918 0.000000 0.933708
O O13 0.669802 0.225345 0.000000
O O14 0.000000 0.000000 0.347051
O O15 0.650534 0.231606 0.230659
O O16 0.615528 0.000000 0.174432
O O17 0.192340 0.500000 0.717415
O O18 0.250000 0.750000 0.720278
#
# Coordination Sequence:
#
# PCOD9490475 Si02
#       7
#    16   8   8  16   8  16  16
#     4  11  22  37  58  83 111 144 183 222 269 328
#     4  11  23  37  56  85 115 142 181 225 272 320
#     4  11  23  35  53  83 113 144 183 225 278 331
#     4   9  18  33  55  82 111 146 188 231 275 324
#     4  11  21  34  54  82 112 143 176 223 278 325
#     4  10  20  36  56  80 112 147 184 225 274 330
#     4  10  22  37  56  82 109 142 182 224 271 324
#
# _framework density 17.641158000000001
#
# number of rings (size 3 to 8) (size 9 to 14) (size 15 to 20)
#    0.000    1.727    2.727    1.909    0.000    4.000 
#    0.000    0.909    0.000    2.727    0.000    0.000 
#    0.000    0.000    0.000    0.000    0.000    0.000 
#
# Total GULP energy -245580.185959 kJ/mol
# GULP energy per Si atom -5581.367863 kJ/mol
# Density = 1.760101 g / cm^3
# Si number density = 17.641158 Si / 1000 Ang^3
#
#
#
# Elastic Constant Matrix: (Units=GPa)
#
#
# Indices 1 2 3 4 5 6 
#
# 1 141.8565 32.3751 82.0059 0.0000 0.0000 0.0000
# 2 32.3751 30.7266 37.6561 0.0000 0.0000 0.0000
# 3 82.0059 37.6561 144.6458 0.0000 0.0000 0.0000
# 4 0.0000 0.0000 0.0000 15.4124 0.0000 0.0000
# 5 0.0000 0.0000 0.0000 0.0000 60.1136 0.0000
# 6 0.0000 0.0000 0.0000 0.0000 0.0000 30.9100
#
#
#
# Elastic Compliance Matrix: (Units=1/GPa)
#
#
# Indices 1 2 3 4 5 6 
#
# 1 0.011167 -0.005885 -0.004799 0.000000 0.000000 0.000000
# 2 -0.005885 0.050894 -0.009913 0.000000 0.000000 0.000000
# 3 -0.004799 -0.009913 0.012215 0.000000 0.000000 0.000000
# 4 0.000000 0.000000 0.000000 0.064883 0.000000 0.000000
# 5 0.000000 0.000000 0.000000 0.000000 0.016635 0.000000
# 6 0.000000 0.000000 0.000000 0.000000 0.000000 0.032352
#
#
# Mechanical properties :
#
#
# Convention : Reuss Voigt Hill
#
# Bulk Modulus (GPa) = 30.22761 69.03367 49.63064
# Shear Modulus (GPa) = 20.80160 32.30000 26.55080
#
# Velocity S-wave (km/s) = 3.43760 4.28360 3.88370
# Velocity P-wave (km/s) = 5.73830 7.98015 6.95021
#
# Compressibility (1/GPa) = 0.03308233
#
# Stress axis : x y z
#
# Youngs Moduli (GPa) = 89.55326 19.64861 81.86754
#
# Poissons Ratio (x) = 0.11562 0.39287
# Poissons Ratio (y) = 0.52698 0.81157
# Poissons Ratio (z) = 0.42975 0.19478
#
# Static dielectric constant tensor:
#      x y z
#    x 1.564210 0.000000 0.000000 
#    y 0.000000 1.602560 0.000000 
#    z 0.000000 0.000000 1.616430 
# 
# From -- ./inp_files/59930.got.cif
#   From: 2010.05.17/outbox.cif.g08.bks.cpg/sg65_30_cif.got.tgz:59930.got - 2010.06.03 17:01:31.
