data_PCOD9490147
_publ_section_title
;
Structure prediction by ZEFSAII (Michael W. Deem and Ramdas Pophale) SiO2 
 PCOD9490147
Probable space group: C M M M
;
_chemical_formula_sum "Si O2"
_cell_formula_units_Z 88
_cell_length_a 24.413472
_cell_length_b 7.822700
_cell_length_c 22.955873
_cell_angle_alpha 90.000000
_cell_angle_beta 90.000000
_cell_angle_gamma 90.000000
_cell_volume 4384.095808
_symmetry_space_group_name_H-M "C M M M"
_symmetry_group_IT_number 65
_symmetry_cell_setting 'orthorhombic'
loop_
_space_group_symop_operation_xyz
x,y,z
-x,-y,z
x,-y,-z
-x,y,-z
-x,-y,-z
x,y,-z
-x,y,z
x,-y,z
1/2+x,1/2+y,z
1/2-x,1/2-y,z
1/2+x,1/2-y,-z
1/2-x,1/2+y,-z
1/2-x,1/2-y,-z
1/2+x,1/2+y,-z
1/2-x,1/2+y,z
1/2+x,1/2-y,z
loop_
_atom_site_type_symbol
_atom_site_label
_atom_site_fract_x
_atom_site_fract_y
_atom_site_fract_z
Si Si1 0.814169 0.206948 0.000000
Si Si2 0.116920 0.196941 0.110302
Si Si3 0.313727 0.296051 0.435857
Si Si4 0.404282 0.800237 0.649954
Si Si5 0.000000 0.709487 0.566042
Si Si6 0.436939 0.702210 0.222130
Si Si7 0.500000 0.804122 0.068894
O O1 0.750000 0.250000 0.000000
O O2 0.844426 0.271465 0.940803
O O3 0.820611 0.000000 0.000000
O O4 0.106403 0.274351 0.174721
O O5 0.054881 0.208118 0.086838
O O6 0.134969 0.000000 0.117329
O O7 0.333872 0.233491 0.500000
O O8 0.319531 0.500000 0.434940
O O9 0.250000 0.250000 0.432429
O O10 0.346384 0.223106 0.381292
O O11 0.447621 0.733016 0.602646
O O12 0.414529 0.720594 0.712740
O O13 0.415375 0.000000 0.658150
O O14 0.000000 0.500000 0.564242
O O15 0.000000 0.770203 0.500000
O O16 0.500000 0.770025 0.218111
O O17 0.440901 0.500000 0.209554
O O18 0.500000 0.000000 0.091777
O O19 0.500000 0.814811 0.000000
#
# Coordination Sequence:
#
# PCOD9490147 Si02
#       7
#     8  16  16  16   8  16   8
#     4  10  22  39  62  85 113 148 190 236 285 342
#     4  10  20  37  60  83 109 152 196 232 279 344
#     4  10  21  38  60  85 111 143 188 242 294 343
#     4  11  21  35  55  81 117 156 192 233 286 344
#     4   9  18  31  49  76 110 148 189 230 276 336
#     4  10  20  35  56  82 114 152 192 234 282 337
#     4  11  21  30  49  86 120 141 170 229 290 331
#
# _framework density 20.072554
#
# number of rings (size 3 to 8) (size 9 to 14) (size 15 to 20)
#    0.000    1.818    2.727    1.909    0.000    3.636 
#    0.000    0.909    0.000    4.364    0.000    0.000 
#    0.000    0.000    0.000    0.000    0.000    0.000 
#
# Total GULP energy -245388.014040 kJ/mol
# GULP energy per Si atom -5577.000319 kJ/mol
# Density = 2.002687 g / cm^3
# Si number density = 20.072554 Si / 1000 Ang^3
#
#
#
# Elastic Constant Matrix: (Units=GPa)
#
#
# Indices 1 2 3 4 5 6 
#
# 1 92.6823 -11.4676 67.8346 0.0000 0.0000 0.0000
# 2 -11.4676 33.3108 4.8434 0.0000 0.0000 0.0000
# 3 67.8346 4.8434 195.9061 0.0000 0.0000 0.0000
# 4 0.0000 0.0000 0.0000 15.7853 0.0000 0.0000
# 5 0.0000 0.0000 0.0000 0.0000 21.1231 0.0000
# 6 0.0000 0.0000 0.0000 0.0000 0.0000 1457.3016
#
#
#
# Elastic Compliance Matrix: (Units=1/GPa)
#
#
# Indices 1 2 3 4 5 6 
#
# 1 0.015628 0.006189 -0.005564 0.000000 0.000000 0.000000
# 2 0.006189 0.032580 -0.002949 0.000000 0.000000 0.000000
# 3 -0.005564 -0.002949 0.007104 0.000000 0.000000 0.000000
# 4 0.000000 0.000000 0.000000 0.063350 0.000000 0.000000
# 5 0.000000 0.000000 0.000000 0.000000 0.047342 0.000000
# 6 0.000000 0.000000 0.000000 0.000000 0.000000 0.000686
#
#
# Mechanical properties :
#
#
# Convention : Reuss Voigt Hill
#
# Bulk Modulus (GPa) = 19.73783 49.36889 34.55336
# Shear Modulus (GPa) = 26.56398 316.22125 171.39262
#
# Velocity S-wave (km/s) = 3.64180 12.56508 9.25051
# Velocity P-wave (km/s) = 5.24769 15.33482 11.46069
#
# Compressibility (1/GPa) = 0.05066414
#
# Stress axis : x y z
#
# Youngs Moduli (GPa) = 63.98817 30.69402 140.76387
#
# Poissons Ratio (x) = -0.18997 0.78326
# Poissons Ratio (y) = -0.39603 0.41504
# Poissons Ratio (z) = 0.35605 0.09050
#
# Static dielectric constant tensor:
#      x y z
#    x 1.670540 0.000000 0.000000 
#    y 0.000000 1.759700 0.000000 
#    z 0.000000 0.000000 1.748830 
# 
# From -- ./inp_files/65251.got.cif
#   From: 2010.05.17/outbox.cif.g08.bks.cpg/sg65_33_cif.got.tgz:65251.got - 2010.06.03 17:01:31.
