data_PCOD9490302
_publ_section_title
;
Structure prediction by ZEFSAII (Michael W. Deem and Ramdas Pophale) SiO2 
 PCOD9490302
Probable space group: C M M M
;
_chemical_formula_sum "Si O2"
_cell_formula_units_Z 72
_cell_length_a 7.943635
_cell_length_b 29.065557
_cell_length_c 14.604795
_cell_angle_alpha 90.000000
_cell_angle_beta 90.000000
_cell_angle_gamma 90.000000
_cell_volume 3372.045267
_symmetry_space_group_name_H-M "C M M M"
_symmetry_group_IT_number 65
_symmetry_cell_setting 'orthorhombic'
loop_
_space_group_symop_operation_xyz
x,y,z
-x,-y,z
x,-y,-z
-x,y,-z
-x,-y,-z
x,y,-z
-x,y,z
x,-y,z
1/2+x,1/2+y,z
1/2-x,1/2-y,z
1/2+x,1/2-y,-z
1/2-x,1/2+y,-z
1/2-x,1/2-y,-z
1/2+x,1/2+y,-z
1/2-x,1/2+y,z
1/2+x,1/2-y,z
loop_
_atom_site_type_symbol
_atom_site_label
_atom_site_fract_x
_atom_site_fract_y
_atom_site_fract_z
Si Si1 0.307955 0.103592 0.100316
Si Si2 0.199607 0.604423 0.301582
Si Si3 0.314793 0.297633 0.891006
Si Si4 0.798337 0.197193 0.393356
Si Si5 0.500000 0.448612 0.391919
O O1 0.500000 0.087510 0.095600
O O2 0.241051 0.089512 0.199002
O O3 0.305327 0.158891 0.112831
O O4 0.228009 0.093991 0.000000
O O5 0.221624 0.658595 0.326559
O O6 0.330598 0.578245 0.365291
O O7 0.000000 0.593795 0.310743
O O8 0.500000 0.309663 0.854137
O O9 0.250000 0.250000 0.850608
O O10 0.333783 0.290002 0.000000
O O11 0.746298 0.188420 0.500000
O O12 0.750000 0.250000 0.372541
O O13 0.000000 0.193098 0.389046
O O14 0.500000 0.500000 0.351518
O O15 0.500000 0.451966 0.500000
#
# Coordination Sequence:
#
# PCOD9490302 Si02
#       5
#    16  16  16  16   8
#     4   9  19  35  54  80 116 160 208 255 307 365
#     4  11  23  40  66  97 131 172 215 265 322 385
#     4   9  16  25  40  64  99 150 206 257 303 348
#     4  10  20  35  57  88 128 172 217 267 322 387
#     4  11  26  48  73 101 131 163 206 266 332 396
#
# _framework density 21.352025999999999
#
# number of rings (size 3 to 8) (size 9 to 14) (size 15 to 20)
#    0.000    2.111    1.111    2.000    1.556    6.667 
#    0.000    1.111    0.000    1.333    0.000    3.111 
#    0.000    0.000    0.000    0.000    0.000    0.000 
#
# Total GULP energy -200613.543818 kJ/mol
# GULP energy per Si atom -5572.598439 kJ/mol
# Density = 2.130343 g / cm^3
# Si number density = 21.352026 Si / 1000 Ang^3
#
#
#
# Elastic Constant Matrix: (Units=GPa)
#
#
# Indices 1 2 3 4 5 6 
#
# 1 88.3856 22.4092 25.9492 0.0000 0.0000 0.0000
# 2 22.4092 50.7697 17.5421 0.0000 0.0000 0.0000
# 3 25.9492 17.5421 137.5699 0.0000 0.0000 0.0000
# 4 0.0000 0.0000 0.0000 -18.5017 0.0000 0.0000
# 5 0.0000 0.0000 0.0000 0.0000 22.5277 0.0000
# 6 0.0000 0.0000 0.0000 0.0000 0.0000 7.4943
#
#
#
# Elastic Compliance Matrix: (Units=1/GPa)
#
#
# Indices 1 2 3 4 5 6 
#
# 1 0.013162 -0.005180 -0.001822 0.000000 0.000000 0.000000
# 2 -0.005180 0.022643 -0.001910 0.000000 0.000000 0.000000
# 3 -0.001822 -0.001910 0.007856 0.000000 0.000000 0.000000
# 4 0.000000 0.000000 0.000000 -0.054049 0.000000 0.000000
# 5 0.000000 0.000000 0.000000 0.000000 0.044390 0.000000
# 6 0.000000 0.000000 0.000000 0.000000 0.000000 0.133435
#
#
# Mechanical properties :
#
#
# Convention : Reuss Voigt Hill
#
# Bulk Modulus (GPa) = 38.70440 45.39178 42.04809
# Shear Modulus (GPa) = 25.78977 16.35903 21.07440
#
# Velocity S-wave (km/s) = 3.47917 2.77096 3.14506
# Velocity P-wave (km/s) = 5.85710 5.61627 5.73795
#
# Compressibility (1/GPa) = 0.02583686
#
# Stress axis : x y z
#
# Youngs Moduli (GPa) = 75.97387 44.16322 127.28589
#
# Poissons Ratio (x) = 0.22877 0.23194
# Poissons Ratio (y) = 0.39355 0.24314
# Poissons Ratio (z) = 0.13844 0.08436
#
# Static dielectric constant tensor:
#      x y z
#    x 1.765990 0.000000 0.000000 
#    y 0.000000 1.749500 0.000000 
#    z 0.000000 0.000000 1.861770 
# 
# From -- ./inp_files/36952.got.cif
#   From: 2010.05.17/outbox.cif.g08.bks.cpg/sg65_19_cif.got.tgz:36952.got - 2010.06.03 17:01:31.
