data_PCOD9490280
_publ_section_title
;
Structure prediction by ZEFSAII (Michael W. Deem and Ramdas Pophale) SiO2 
 PCOD9490280
Probable space group: C M M M
;
_chemical_formula_sum "Si O2"
_cell_formula_units_Z 104
_cell_length_a 8.546636
_cell_length_b 22.116444
_cell_length_c 28.722308
_cell_angle_alpha 90.000000
_cell_angle_beta 90.000000
_cell_angle_gamma 90.000000
_cell_volume 5429.125024
_symmetry_space_group_name_H-M "C M M M"
_symmetry_group_IT_number 65
_symmetry_cell_setting 'orthorhombic'
loop_
_space_group_symop_operation_xyz
x,y,z
-x,-y,z
x,-y,-z
-x,y,-z
-x,-y,-z
x,y,-z
-x,y,z
x,-y,z
1/2+x,1/2+y,z
1/2-x,1/2-y,z
1/2+x,1/2-y,-z
1/2-x,1/2+y,-z
1/2-x,1/2-y,-z
1/2+x,1/2+y,-z
1/2-x,1/2+y,z
1/2+x,1/2-y,z
loop_
_atom_site_type_symbol
_atom_site_label
_atom_site_fract_x
_atom_site_fract_y
_atom_site_fract_z
Si Si1 0.187153 0.815066 0.608571
Si Si2 0.312229 0.500000 0.052789
Si Si3 0.184741 0.401368 0.122391
Si Si4 0.311458 0.932234 0.554787
Si Si5 0.812376 0.817164 0.948908
Si Si6 0.311026 0.315151 0.282913
Si Si7 0.811500 0.068405 0.224050
O O1 0.250000 0.750000 0.590875
O O2 0.244684 0.874564 0.581705
O O3 0.236368 0.820087 0.662844
O O4 0.000000 0.813220 0.606716
O O5 0.500000 0.500000 0.052949
O O6 0.249467 0.444513 0.082163
O O7 0.257020 0.500000 0.000000
O O8 0.233086 0.339042 0.098761
O O9 0.263777 0.417557 0.171087
O O10 0.000000 0.407553 0.127730
O O11 0.271386 0.927557 0.500000
O O12 0.500000 0.930593 0.558376
O O13 0.260579 0.000000 0.570808
O O14 0.750000 0.750000 0.953715
O O15 0.000000 0.821010 0.944346
O O16 0.774416 0.847124 0.000000
O O17 0.500000 0.313744 0.280853
O O18 0.250000 0.250000 0.265216
O O19 0.256251 0.375022 0.255425
O O20 0.000000 0.067437 0.227185
O O21 0.756345 0.000000 0.236411
#
# Coordination Sequence:
#
# PCOD9490280 Si02
#       7
#    16   8  16  16  16  16  16
#     4  10  20  35  57  85 117 151 195 246 296 352
#     4  11  23  39  59  81 107 143 183 221 268 325
#     4  12  24  37  56  83 113 142 178 223 271 326
#     4   9  19  36  56  80 115 158 201 245 297 356
#     4  10  21  38  59  82 109 142 180 220 265 321
#     4   9  20  38  60  86 113 148 191 238 294 350
#     4  10  21  39  61  81 110 150 190 233 285 343
#
# _framework density 19.155940999999999
#
# number of rings (size 3 to 8) (size 9 to 14) (size 15 to 20)
#    0.000    1.923    0.769    3.462    0.000    6.769 
#    0.000    3.846    0.000    0.000    0.000    0.000 
#    0.000    0.000    0.000    0.000    0.000    0.000 
#
# Total GULP energy -289914.649493 kJ/mol
# GULP energy per Si atom -5575.281721 kJ/mol
# Density = 1.911234 g / cm^3
# Si number density = 19.155941 Si / 1000 Ang^3
#
#
#
# Elastic Constant Matrix: (Units=GPa)
#
#
# Indices 1 2 3 4 5 6 
#
# 1 20.8643 24.8202 15.6349 0.0000 0.0000 0.0000
# 2 24.8202 178.9574 80.5310 0.0000 0.0000 0.0000
# 3 15.6349 80.5310 76.3117 0.0000 0.0000 0.0000
# 4 0.0000 0.0000 0.0000 58.2659 0.0000 0.0000
# 5 0.0000 0.0000 0.0000 0.0000 11.5255 0.0000
# 6 0.0000 0.0000 0.0000 0.0000 0.0000 5.0551
#
#
#
# Elastic Compliance Matrix: (Units=1/GPa)
#
#
# Indices 1 2 3 4 5 6 
#
# 1 0.059087 -0.005232 -0.006585 0.000000 0.000000 0.000000
# 2 -0.005232 0.011104 -0.010647 0.000000 0.000000 0.000000
# 3 -0.006585 -0.010647 0.025688 0.000000 0.000000 0.000000
# 4 0.000000 0.000000 0.000000 0.017163 0.000000 0.000000
# 5 0.000000 0.000000 0.000000 0.000000 0.086764 0.000000
# 6 0.000000 0.000000 0.000000 0.000000 0.000000 0.197819
#
#
# Mechanical properties :
#
#
# Convention : Reuss Voigt Hill
#
# Bulk Modulus (GPa) = 19.62573 57.56729 38.59651
# Shear Modulus (GPa) = 10.88053 25.31246 18.09650
#
# Velocity S-wave (km/s) = 2.38586 3.63904 3.07692
# Velocity P-wave (km/s) = 4.22578 6.91187 5.72849
#
# Compressibility (1/GPa) = 0.05095352
#
# Stress axis : x y z
#
# Youngs Moduli (GPa) = 16.92425 90.05362 38.92801
#
# Poissons Ratio (x) = 0.47114 0.25633
# Poissons Ratio (y) = 0.08854 0.41445
# Poissons Ratio (z) = 0.11144 0.95876
#
# Static dielectric constant tensor:
#      x y z
#    x 1.649530 0.000000 0.000000 
#    y 0.000000 4.325010 0.000000 
#    z 0.000000 0.000000 1.649720 
# 
# From -- ./inp_files/73331.got.cif
#   From: 2010.05.17/outbox.cif.g08.bks.cpg/sg65_37_cif.got.tgz:73331.got - 2010.06.03 17:01:31.
