data_PCOD9490853
_publ_section_title
;
Structure prediction by ZEFSAII (Michael W. Deem and Ramdas Pophale) SiO2 
 PCOD9490853
Probable space group: C M M M
;
_chemical_formula_sum "Si O2"
_cell_formula_units_Z 58
_cell_length_a 7.980417
_cell_length_b 25.335983
_cell_length_c 14.393040
_cell_angle_alpha 90.000000
_cell_angle_beta 90.000000
_cell_angle_gamma 90.000000
_cell_volume 2910.153362
_symmetry_space_group_name_H-M "C M M M"
_symmetry_group_IT_number 65
_symmetry_cell_setting 'orthorhombic'
loop_
_space_group_symop_operation_xyz
x,y,z
-x,-y,z
x,-y,-z
-x,y,-z
-x,-y,-z
x,y,-z
-x,y,z
x,-y,z
1/2+x,1/2+y,z
1/2-x,1/2-y,z
1/2+x,1/2-y,-z
1/2-x,1/2+y,-z
1/2-x,1/2-y,-z
1/2+x,1/2+y,-z
1/2-x,1/2+y,z
1/2+x,1/2-y,z
loop_
_atom_site_type_symbol
_atom_site_label
_atom_site_fract_x
_atom_site_fract_y
_atom_site_fract_z
Si Si1 0.500000 0.000000 0.000000
Si Si2 0.700973 0.311263 0.798770
Si Si3 0.688209 0.562970 0.500000
Si Si4 0.200987 0.188526 0.000000
Si Si5 0.191142 0.412561 0.704543
Si Si6 0.309429 0.500000 0.155554
O O1 0.345934 0.000000 0.082035
O O2 0.500000 0.314001 0.796731
O O3 0.750000 0.250000 0.788095
O O4 0.775139 0.351394 0.725779
O O5 0.762101 0.331592 0.900876
O O6 0.680198 0.500000 0.500000
O O7 0.500000 0.585020 0.500000
O O8 0.772242 0.578067 0.596677
O O9 0.250000 0.250000 0.000000
O O10 0.000000 0.184034 0.000000
O O11 0.294775 0.449442 0.775074
O O12 0.000000 0.426125 0.723389
O O13 0.500000 0.500000 0.115283
#
# Coordination Sequence:
#
# PCOD9490853 Si02
#       6
#     2  16   8   8  16   8
#     4  12  26  48  64 104 140 180 230 272 352 406
#     4  10  20  37  60  91 128 174 222 274 333 393
#     4  11  23  41  70  99 123 166 222 277 339 405
#     4   8  16  31  54  81 114 158 213 259 307 369
#     4  12  24  42  66  99 134 173 223 277 338 401
#     4  12  25  46  70  97 139 182 225 281 336 405
#
# _framework density 19.930219999999998
#
# number of rings (size 3 to 8) (size 9 to 14) (size 15 to 20)
#    0.000    1.241    2.759    3.931    0.000    2.759 
#    0.000    3.448    0.000    0.000    0.000    0.000 
#    0.000    0.000    0.000    0.000    0.000    0.000 
#
# Total GULP energy -161568.838925 kJ/mol
# GULP energy per Si atom -5571.339273 kJ/mol
# Density = 1.988486 g / cm^3
# Si number density = 19.930220 Si / 1000 Ang^3
#
#
#
# Elastic Constant Matrix: (Units=GPa)
#
#
# Indices 1 2 3 4 5 6 
#
# 1 117.0916 13.0230 37.8598 0.0000 0.0000 0.0000
# 2 13.0230 72.8353 52.9589 0.0000 0.0000 0.0000
# 3 37.8598 52.9589 141.5318 0.0000 0.0000 0.0000
# 4 0.0000 0.0000 0.0000 20.0663 0.0000 0.0000
# 5 0.0000 0.0000 0.0000 0.0000 23.7114 0.0000
# 6 0.0000 0.0000 0.0000 0.0000 0.0000 22.7895
#
#
#
# Elastic Compliance Matrix: (Units=1/GPa)
#
#
# Indices 1 2 3 4 5 6 
#
# 1 0.009351 0.000202 -0.002577 0.000000 0.000000 0.000000
# 2 0.000202 0.018866 -0.007113 0.000000 0.000000 0.000000
# 3 -0.002577 -0.007113 0.010416 0.000000 0.000000 0.000000
# 4 0.000000 0.000000 0.000000 0.049835 0.000000 0.000000
# 5 0.000000 0.000000 0.000000 0.000000 0.042174 0.000000
# 6 0.000000 0.000000 0.000000 0.000000 0.000000 0.043880
#
#
# Mechanical properties :
#
#
# Convention : Reuss Voigt Hill
#
# Bulk Modulus (GPa) = 50.87389 59.90467 55.38928
# Shear Modulus (GPa) = 24.99373 28.48793 26.74083
#
# Velocity S-wave (km/s) = 3.54512 3.78482 3.66693
# Velocity P-wave (km/s) = 6.50681 7.01586 6.76612
#
# Compressibility (1/GPa) = 0.01965645
#
# Stress axis : x y z
#
# Youngs Moduli (GPa) = 106.93950 53.00671 96.00174
#
# Poissons Ratio (x) = -0.01069 0.24738
# Poissons Ratio (y) = -0.02157 0.68287
# Poissons Ratio (z) = 0.27557 0.37704
#
# Static dielectric constant tensor:
#      x y z
#    x 1.746230 0.000000 0.000000 
#    y 0.000000 1.682980 0.000000 
#    z 0.000000 0.000000 1.711570 
# 
# From -- ./inp_files/20589.got.cif
#   From: 2010.05.17/outbox.cif.g08.bks.cpg/sg65_11_cif.got.tgz:20589.got - 2010.06.03 17:01:31.
