data_PCOD9490976
_publ_section_title
;
Structure prediction by ZEFSAII (Michael W. Deem and Ramdas Pophale) SiO2 
 PCOD9490976
Probable space group: C M M M
;
_chemical_formula_sum "Si O2"
_cell_formula_units_Z 64
_cell_length_a 8.531736
_cell_length_b 15.529196
_cell_length_c 24.901728
_cell_angle_alpha 90.000000
_cell_angle_beta 90.000000
_cell_angle_gamma 90.000000
_cell_volume 3299.254858
_symmetry_space_group_name_H-M "C M M M"
_symmetry_group_IT_number 65
_symmetry_cell_setting 'orthorhombic'
loop_
_space_group_symop_operation_xyz
x,y,z
-x,-y,z
x,-y,-z
-x,y,-z
-x,-y,-z
x,y,-z
-x,y,z
x,-y,z
1/2+x,1/2+y,z
1/2-x,1/2-y,z
1/2+x,1/2-y,-z
1/2-x,1/2+y,-z
1/2-x,1/2-y,-z
1/2+x,1/2+y,-z
1/2-x,1/2+y,z
1/2+x,1/2-y,z
loop_
_atom_site_type_symbol
_atom_site_label
_atom_site_fract_x
_atom_site_fract_y
_atom_site_fract_z
Si Si1 0.188230 0.158200 0.382923
Si Si2 0.311031 0.848376 0.881653
Si Si3 0.186817 0.000000 0.192667
Si Si4 0.809513 0.899986 0.500000
Si Si5 0.686791 0.000000 0.686495
Si Si6 0.811353 0.652433 0.000000
O O1 0.250000 0.250000 0.364267
O O2 0.243052 0.142806 0.444537
O O3 0.251895 0.082669 0.345802
O O4 0.000000 0.156039 0.382410
O O5 0.500000 0.846540 0.879232
O O6 0.250000 0.750000 0.875126
O O7 0.247380 0.915033 0.838230
O O8 0.262686 0.881812 0.941588
O O9 0.248933 0.000000 0.253258
O O10 0.000000 0.000000 0.192698
O O11 0.000000 0.897987 0.500000
O O12 0.762311 0.000000 0.500000
O O13 0.500000 0.000000 0.687422
O O14 0.750000 0.750000 0.000000
O O15 0.000000 0.651424 0.000000
#
# Coordination Sequence:
#
# PCOD9490976 Si02
#       6
#    16  16   8   8   8   8
#     4  11  22  40  65  94 127 163 202 246 298 357
#     4  10  20  38  62  91 124 160 199 246 299 358
#     4  12  26  43  62  87 117 158 206 254 305 360
#     4   9  17  34  62  93 128 166 198 239 296 353
#     4  12  26  45  64  87 117 156 206 258 307 358
#     4   8  16  31  56  87 122 158 194 237 294 355
#
# _framework density 19.398319999999998
#
# number of rings (size 3 to 8) (size 9 to 14) (size 15 to 20)
#    0.000    1.625    1.250    4.125    0.000    2.500 
#    0.000   10.000    0.000    0.000    0.000    0.000 
#    0.000    0.000    0.000    0.000    0.000    0.000 
#
# Total GULP energy -178745.421279 kJ/mol
# GULP energy per Si atom -5585.794415 kJ/mol
# Density = 1.935417 g / cm^3
# Si number density = 19.398320 Si / 1000 Ang^3
#
#
#
# Elastic Constant Matrix: (Units=GPa)
#
#
# Indices 1 2 3 4 5 6 
#
# 1 98.0714 51.2137 60.0739 0.0000 0.0000 0.0000
# 2 51.2137 160.2408 96.3140 0.0000 0.0000 0.0000
# 3 60.0739 96.3140 190.5038 0.0000 0.0000 0.0000
# 4 0.0000 0.0000 0.0000 -55.6921 0.0000 0.0000
# 5 0.0000 0.0000 0.0000 0.0000 26.8039 0.0000
# 6 0.0000 0.0000 0.0000 0.0000 0.0000 32.5127
#
#
#
# Elastic Compliance Matrix: (Units=1/GPa)
#
#
# Indices 1 2 3 4 5 6 
#
# 1 0.013292 -0.002484 -0.002936 0.000000 0.000000 0.000000
# 2 -0.002484 0.009429 -0.003984 0.000000 0.000000 0.000000
# 3 -0.002936 -0.003984 0.008189 0.000000 0.000000 0.000000
# 4 0.000000 0.000000 0.000000 -0.017956 0.000000 0.000000
# 5 0.000000 0.000000 0.000000 0.000000 0.037308 0.000000
# 6 0.000000 0.000000 0.000000 0.000000 0.000000 0.030757
#
#
# Mechanical properties :
#
#
# Convention : Reuss Voigt Hill
#
# Bulk Modulus (GPa) = 82.62090 96.00213 89.31152
# Shear Modulus (GPa) = 48.14154 16.80586 32.47370
#
# Velocity S-wave (km/s) = 4.98711 2.94659 4.09595
# Velocity P-wave (km/s) = 8.70896 7.82137 8.27707
#
# Compressibility (1/GPa) = 0.01210347
#
# Stress axis : x y z
#
# Youngs Moduli (GPa) = 75.23338 106.05718 122.11215
#
# Poissons Ratio (x) = 0.26340 0.35851
# Poissons Ratio (y) = 0.18684 0.48648
# Poissons Ratio (z) = 0.22088 0.42252
#
# Static dielectric constant tensor:
#      x y z
#    x 1.655290 0.000000 0.000000 
#    y 0.000000 1.642160 0.000000 
#    z 0.000000 0.000000 1.688110 
# 
# From -- ./inp_files/66905.got.cif
#   From: 2010.05.17/outbox.cif.g08.bks.cpg/sg65_34_cif.got.tgz:66905.got - 2010.06.03 17:01:31.
