data_PCOD9490695
_publ_section_title
;
Structure prediction by ZEFSAII (Michael W. Deem and Ramdas Pophale) SiO2 
 PCOD9490695
Probable space group: C M M M
;
_chemical_formula_sum "Si O2"
_cell_formula_units_Z 104
_cell_length_a 12.277060
_cell_length_b 16.456709
_cell_length_c 25.997131
_cell_angle_alpha 90.000000
_cell_angle_beta 90.000000
_cell_angle_gamma 90.000000
_cell_volume 5252.460446
_symmetry_space_group_name_H-M "C M M M"
_symmetry_group_IT_number 65
_symmetry_cell_setting 'orthorhombic'
loop_
_space_group_symop_operation_xyz
x,y,z
-x,-y,z
x,-y,-z
-x,y,-z
-x,-y,-z
x,y,-z
-x,y,z
x,-y,z
1/2+x,1/2+y,z
1/2-x,1/2-y,z
1/2+x,1/2-y,-z
1/2-x,1/2+y,-z
1/2-x,1/2-y,-z
1/2+x,1/2+y,-z
1/2-x,1/2+y,z
1/2+x,1/2-y,z
loop_
_atom_site_type_symbol
_atom_site_label
_atom_site_fract_x
_atom_site_fract_y
_atom_site_fract_z
Si Si1 0.123711 0.097547 0.652766
Si Si2 0.265066 0.153773 0.058858
Si Si3 0.500000 0.098040 0.400247
Si Si4 0.000000 0.598869 0.279206
Si Si5 0.737106 0.099673 0.751573
Si Si6 0.500000 0.093300 0.937544
Si Si7 0.376824 0.597477 0.151497
Si Si8 0.732879 0.153350 0.441947
O O1 0.195192 0.126112 0.701278
O O2 0.185786 0.117453 0.600311
O O3 0.000000 0.129414 0.653758
O O4 0.118186 0.000000 0.657285
O O5 0.250000 0.250000 0.057712
O O6 0.386760 0.133589 0.078302
O O7 0.176961 0.117149 0.097044
O O8 0.254308 0.122847 0.000000
O O9 0.500000 0.119869 0.339703
O O10 0.609620 0.131351 0.426071
O O11 0.500000 0.000000 0.403956
O O12 0.887822 0.626758 0.253365
O O13 0.000000 0.500000 0.277152
O O14 0.799219 0.127450 0.802619
O O15 0.736059 0.000000 0.751621
O O16 0.500000 0.000000 0.920614
O O17 0.500000 0.095746 0.000000
O O18 0.500000 0.629105 0.155712
O O19 0.381751 0.500000 0.156678
O O20 0.753877 0.123580 0.500000
O O21 0.750000 0.250000 0.441384
#
# Coordination Sequence:
#
# PCOD9490695 Si02
#       8
#    16  16   8   8  16   8  16  16
#     4  10  20  36  60  84 111 152 198 243 291 354
#     4  10  22  38  59  85 120 161 200 247 302 354
#     4  11  21  40  68  94 117 153 212 264 300 356
#     4   9  16  30  60  92 115 142 192 257 301 344
#     4   9  17  33  56  86 118 149 190 243 303 355
#     4   9  18  35  59  85 113 152 204 251 291 349
#     4  10  21  36  58  88 121 155 194 243 296 360
#     4  11  25  40  57  84 123 161 195 245 309 366
#
# _framework density 19.800243999999999
#
# number of rings (size 3 to 8) (size 9 to 14) (size 15 to 20)
#    0.000    2.077    1.538    1.615    2.154    5.538 
#    0.000    3.846    0.000    0.000    0.000    0.000 
#    0.000    0.000    0.000    0.000    0.000    0.000 
#
# Total GULP energy -290361.134869 kJ/mol
# GULP energy per Si atom -5583.867978 kJ/mol
# Density = 1.975518 g / cm^3
# Si number density = 19.800244 Si / 1000 Ang^3
#
#
#
# Elastic Constant Matrix: (Units=GPa)
#
#
# Indices 1 2 3 4 5 6 
#
# 1 206.0904 25.9456 94.1882 0.0000 0.0000 0.0000
# 2 25.9456 23.4261 3.6562 0.0000 0.0000 0.0000
# 3 94.1882 3.6562 131.8663 0.0000 0.0000 0.0000
# 4 0.0000 0.0000 0.0000 29.5555 0.0000 0.0000
# 5 0.0000 0.0000 0.0000 0.0000 23.4950 0.0000
# 6 0.0000 0.0000 0.0000 0.0000 0.0000 22.1336
#
#
#
# Elastic Compliance Matrix: (Units=1/GPa)
#
#
# Indices 1 2 3 4 5 6 
#
# 1 0.008660 -0.008664 -0.005945 0.000000 0.000000 0.000000
# 2 -0.008664 0.051540 0.004759 0.000000 0.000000 0.000000
# 3 -0.005945 0.004759 0.011698 0.000000 0.000000 0.000000
# 4 0.000000 0.000000 0.000000 0.033835 0.000000 0.000000
# 5 0.000000 0.000000 0.000000 0.000000 0.042562 0.000000
# 6 0.000000 0.000000 0.000000 0.000000 0.000000 0.045180
#
#
# Mechanical properties :
#
#
# Convention : Reuss Voigt Hill
#
# Bulk Modulus (GPa) = 19.15770 67.66255 43.41012
# Shear Modulus (GPa) = 21.68494 30.87635 26.28064
#
# Velocity S-wave (km/s) = 3.31295 3.95320 3.64715
# Velocity P-wave (km/s) = 4.93261 7.42185 6.30137
#
# Compressibility (1/GPa) = 0.05219835
#
# Stress axis : x y z
#
# Youngs Moduli (GPa) = 115.47125 19.40242 85.48351
#
# Poissons Ratio (x) = 0.16810 0.50824
# Poissons Ratio (y) = 1.00040 -0.40683
# Poissons Ratio (z) = 0.68653 -0.09234
#
# Static dielectric constant tensor:
#      x y z
#    x 1.683220 0.000000 0.000000 
#    y 0.000000 1.689020 0.000000 
#    z 0.000000 0.000000 1.686800 
# 
# From -- ./inp_files/74419.got.cif
#   From: 2010.05.17/outbox.cif.g08.bks.cpg/sg65_38_cif.got.tgz:74419.got - 2010.06.03 17:01:31.
