data_PCOD9490375
_publ_section_title
;
Structure prediction by ZEFSAII (Michael W. Deem and Ramdas Pophale) SiO2 
 PCOD9490375
Probable space group: C M M M
;
_chemical_formula_sum "Si O2"
_cell_formula_units_Z 80
_cell_length_a 21.904050
_cell_length_b 18.920343
_cell_length_c 10.489395
_cell_angle_alpha 90.000000
_cell_angle_beta 90.000000
_cell_angle_gamma 90.000000
_cell_volume 4347.142408
_symmetry_space_group_name_H-M "C M M M"
_symmetry_group_IT_number 65
_symmetry_cell_setting 'orthorhombic'
loop_
_space_group_symop_operation_xyz
x,y,z
-x,-y,z
x,-y,-z
-x,y,-z
-x,-y,-z
x,y,-z
-x,y,z
x,-y,z
1/2+x,1/2+y,z
1/2-x,1/2-y,z
1/2+x,1/2-y,-z
1/2-x,1/2+y,-z
1/2-x,1/2-y,-z
1/2+x,1/2+y,-z
1/2-x,1/2+y,z
1/2+x,1/2-y,z
loop_
_atom_site_type_symbol
_atom_site_label
_atom_site_fract_x
_atom_site_fract_y
_atom_site_fract_z
Si Si1 0.931834 0.914874 0.000000
Si Si2 0.232600 0.418182 0.850616
Si Si3 0.000000 0.579192 0.153449
Si Si4 0.614476 0.177829 0.151375
Si Si5 0.572635 0.287739 0.642188
Si Si6 0.136985 0.916682 0.739285
O O1 0.895380 0.897881 0.873302
O O2 0.000000 0.884214 0.000000
O O3 0.936739 0.000000 0.000000
O O4 0.212091 0.500000 0.832627
O O5 0.178180 0.363208 0.831270
O O6 0.291032 0.405461 0.761955
O O7 0.251845 0.413226 0.000000
O O8 0.060209 0.623254 0.184662
O O9 0.000000 0.500000 0.206575
O O10 0.000000 0.573572 0.000000
O O11 0.604831 0.242157 0.247630
O O12 0.609161 0.196942 0.000000
O O13 0.579435 0.256300 0.500000
O O14 0.500000 0.293474 0.668643
O O15 0.604440 0.364196 0.643324
O O16 0.127424 0.000000 0.713108
#
# Coordination Sequence:
#
# PCOD9490375 Si02
#       6
#     8  16   8  16  16  16
#     4   9  16  28  50  81 110 137 177 234 285 325
#     4   9  17  33  58  90 124 152 183 234 294 347
#     4   9  16  30  55  89 118 141 184 242 286 328
#     4  10  20  35  59  89 117 152 193 234 286 349
#     4  11  25  42  58  79 115 158 195 245 299 343
#     4  10  20  36  57  84 115 149 192 238 289 345
#
# _framework density 18.402894
#
# number of rings (size 3 to 8) (size 9 to 14) (size 15 to 20)
#    0.000    2.200    2.000    1.200    1.400    4.800 
#    0.000    5.000    0.000    4.200    0.000    0.000 
#    0.000    0.000    0.000    0.000    0.000    0.000 
#
# Total GULP energy -223066.596687 kJ/mol
# GULP energy per Si atom -5576.664917 kJ/mol
# Density = 1.836101 g / cm^3
# Si number density = 18.402894 Si / 1000 Ang^3
#
#
#
# Elastic Constant Matrix: (Units=GPa)
#
#
# Indices 1 2 3 4 5 6 
#
# 1 94.2245 49.0177 38.9295 0.0000 0.0000 0.0000
# 2 49.0177 91.7727 48.4270 0.0000 0.0000 0.0000
# 3 38.9295 48.4270 78.2068 0.0000 0.0000 0.0000
# 4 0.0000 0.0000 0.0000 10.0858 0.0000 0.0000
# 5 0.0000 0.0000 0.0000 0.0000 14.1580 0.0000
# 6 0.0000 0.0000 0.0000 0.0000 0.0000 60.4163
#
#
#
# Elastic Compliance Matrix: (Units=1/GPa)
#
#
# Indices 1 2 3 4 5 6 
#
# 1 0.015432 -0.006222 -0.003829 0.000000 0.000000 0.000000
# 2 -0.006222 0.018694 -0.008478 0.000000 0.000000 0.000000
# 3 -0.003829 -0.008478 0.019942 0.000000 0.000000 0.000000
# 4 0.000000 0.000000 0.000000 0.099149 0.000000 0.000000
# 5 0.000000 0.000000 0.000000 0.000000 0.070632 0.000000
# 6 0.000000 0.000000 0.000000 0.000000 0.000000 0.016552
#
#
# Mechanical properties :
#
#
# Convention : Reuss Voigt Hill
#
# Bulk Modulus (GPa) = 58.79018 59.66137 59.22578
# Shear Modulus (GPa) = 17.65985 25.45401 21.55693
#
# Velocity S-wave (km/s) = 3.10114 3.72311 3.42627
# Velocity P-wave (km/s) = 6.69614 7.13947 6.92135
#
# Compressibility (1/GPa) = 0.01700964
#
# Stress axis : x y z
#
# Youngs Moduli (GPa) = 64.80189 53.49419 50.14461
#
# Poissons Ratio (x) = 0.33284 0.19199
# Poissons Ratio (y) = 0.40320 0.42514
# Poissons Ratio (z) = 0.24811 0.45354
#
# Static dielectric constant tensor:
#      x y z
#    x 1.619660 0.000000 0.000000 
#    y 0.000000 1.651900 0.000000 
#    z 0.000000 0.000000 1.632880 
# 
# From -- ./inp_files/28585.got.cif
#   From: 2010.05.17/outbox.cif.g08.bks.cpg/sg65_15_cif.got.tgz:28585.got - 2010.06.03 17:01:31.
