data_PCOD9490292
_publ_section_title
;
Structure prediction by ZEFSAII (Michael W. Deem and Ramdas Pophale) SiO2 
 PCOD9490292
Probable space group: C M M M
;
_chemical_formula_sum "Si O2"
_cell_formula_units_Z 88
_cell_length_a 9.146322
_cell_length_b 16.313626
_cell_length_c 30.644112
_cell_angle_alpha 90.000000
_cell_angle_beta 90.000000
_cell_angle_gamma 90.000000
_cell_volume 4572.398035
_symmetry_space_group_name_H-M "C M M M"
_symmetry_group_IT_number 65
_symmetry_cell_setting 'orthorhombic'
loop_
_space_group_symop_operation_xyz
x,y,z
-x,-y,z
x,-y,-z
-x,y,-z
-x,-y,-z
x,y,-z
-x,y,z
x,-y,z
1/2+x,1/2+y,z
1/2-x,1/2-y,z
1/2+x,1/2-y,-z
1/2-x,1/2+y,-z
1/2-x,1/2-y,-z
1/2+x,1/2+y,-z
1/2-x,1/2+y,z
1/2+x,1/2-y,z
loop_
_atom_site_type_symbol
_atom_site_label
_atom_site_fract_x
_atom_site_fract_y
_atom_site_fract_z
Si Si1 0.322085 0.000000 0.550421
Si Si2 0.173410 0.337213 0.133144
Si Si3 0.676371 0.164252 0.602079
Si Si4 0.327077 0.098375 0.697366
Si Si5 0.832329 0.901294 0.950902
Si Si6 0.664219 0.597713 0.216094
O O1 0.276684 0.915890 0.574401
O O2 0.500000 0.000000 0.552059
O O3 0.277022 0.000000 0.500000
O O4 0.250000 0.250000 0.136793
O O5 0.225929 0.373332 0.087015
O O6 0.236700 0.386696 0.174111
O O7 0.000000 0.332406 0.135063
O O8 0.500000 0.171221 0.598420
O O9 0.750000 0.250000 0.589103
O O10 0.711478 0.143619 0.652572
O O11 0.500000 0.109257 0.705673
O O12 0.236682 0.128281 0.739144
O O13 0.304177 0.000000 0.691211
O O14 0.000000 0.874273 0.941711
O O15 0.833807 0.000000 0.951359
O O16 0.793256 0.873502 0.000000
O O17 0.500000 0.630832 0.209598
O O18 0.654018 0.500000 0.221038
#
# Coordination Sequence:
#
# PCOD9490292 Si02
#       6
#     8  16  16  16  16  16
#     4   9  18  36  61  85 115 159 205 245 292 357
#     4  12  25  39  56  79 111 149 187 231 281 334
#     4  10  20  35  57  86 117 154 198 247 299 354
#     4   9  17  33  56  79 108 148 195 238 281 340
#     4   9  19  38  63  87 111 141 178 223 276 334
#     4  10  21  37  58  84 114 148 187 231 282 338
#
# _framework density 19.245918
#
# number of rings (size 3 to 8) (size 9 to 14) (size 15 to 20)
#    0.000    2.091    0.909    3.273    0.000    6.182 
#    0.000    3.182    0.000    0.545    0.000    0.000 
#    0.000    0.000    0.000    0.000    0.000    0.000 
#
# Total GULP energy -245613.312919 kJ/mol
# GULP energy per Si atom -5582.120748 kJ/mol
# Density = 1.920211 g / cm^3
# Si number density = 19.245918 Si / 1000 Ang^3
#
#
#
# Elastic Constant Matrix: (Units=GPa)
#
#
# Indices 1 2 3 4 5 6 
#
# 1 98.0664 39.4701 74.1430 0.0000 0.0000 0.0000
# 2 39.4701 73.2771 49.5118 0.0000 0.0000 0.0000
# 3 74.1430 49.5118 141.9717 0.0000 0.0000 0.0000
# 4 0.0000 0.0000 0.0000 -21.3097 0.0000 0.0000
# 5 0.0000 0.0000 0.0000 0.0000 18.2769 0.0000
# 6 0.0000 0.0000 0.0000 0.0000 0.0000 33.3787
#
#
#
# Elastic Compliance Matrix: (Units=1/GPa)
#
#
# Indices 1 2 3 4 5 6 
#
# 1 0.017845 -0.004337 -0.007807 0.000000 0.000000 0.000000
# 2 -0.004337 0.018908 -0.004329 0.000000 0.000000 0.000000
# 3 -0.007807 -0.004329 0.012630 0.000000 0.000000 0.000000
# 4 0.000000 0.000000 0.000000 -0.046927 0.000000 0.000000
# 5 0.000000 0.000000 0.000000 0.000000 0.054714 0.000000
# 6 0.000000 0.000000 0.000000 0.000000 0.000000 0.029959
#
#
# Mechanical properties :
#
#
# Convention : Reuss Voigt Hill
#
# Bulk Modulus (GPa) = 60.83658 71.06277 65.94967
# Shear Modulus (GPa) = 39.82314 16.08187 27.95251
#
# Velocity S-wave (km/s) = 4.55375 2.89381 3.81515
# Velocity P-wave (km/s) = 7.70244 6.94040 7.33133
#
# Compressibility (1/GPa) = 0.01643748
#
# Stress axis : x y z
#
# Youngs Moduli (GPa) = 56.03754 52.88741 79.17402
#
# Poissons Ratio (x) = 0.22939 0.61810
# Poissons Ratio (y) = 0.24305 0.34275
# Poissons Ratio (z) = 0.43748 0.22895
#
# Static dielectric constant tensor:
#      x y z
#    x 1.662430 0.000000 0.000000 
#    y 0.000000 1.705560 0.000000 
#    z 0.000000 0.000000 1.690980 
# 
# From -- ./inp_files/76578.got.cif
#   From: 2010.05.17/outbox.cif.g08.bks.cpg/sg65_39_cif.got.tgz:76578.got - 2010.06.03 17:01:31.
