data_PCOD9490363
_publ_section_title
;
Structure prediction by ZEFSAII (Michael W. Deem and Ramdas Pophale) SiO2 
 PCOD9490363
Probable space group: C M M M
;
_chemical_formula_sum "Si O2"
_cell_formula_units_Z 88
_cell_length_a 22.321769
_cell_length_b 23.811018
_cell_length_c 8.569869
_cell_angle_alpha 90.000000
_cell_angle_beta 90.000000
_cell_angle_gamma 90.000000
_cell_volume 4554.920025
_symmetry_space_group_name_H-M "C M M M"
_symmetry_group_IT_number 65
_symmetry_cell_setting 'orthorhombic'
loop_
_space_group_symop_operation_xyz
x,y,z
-x,-y,z
x,-y,-z
-x,y,-z
-x,-y,-z
x,y,-z
-x,y,z
x,-y,z
1/2+x,1/2+y,z
1/2-x,1/2-y,z
1/2+x,1/2-y,-z
1/2-x,1/2+y,-z
1/2-x,1/2-y,-z
1/2+x,1/2+y,-z
1/2-x,1/2+y,z
1/2+x,1/2-y,z
loop_
_atom_site_type_symbol
_atom_site_label
_atom_site_fract_x
_atom_site_fract_y
_atom_site_fract_z
Si Si1 0.376041 0.382968 0.185711
Si Si2 0.158598 0.647355 0.315973
Si Si3 0.740100 0.562619 0.311065
Si Si4 0.500000 0.566356 0.687574
Si Si5 0.180510 0.232602 0.312305
Si Si6 0.428555 0.937473 0.181634
O O1 0.325750 0.426100 0.246982
O O2 0.440313 0.401447 0.253956
O O3 0.349369 0.322226 0.237971
O O4 0.379602 0.384381 0.000000
O O5 0.169829 0.653658 0.500000
O O6 0.215281 0.611701 0.253476
O O7 0.148509 0.710173 0.257435
O O8 0.102104 0.608952 0.284571
O O9 0.738534 0.565290 0.500000
O O10 0.760836 0.500000 0.267178
O O11 0.500000 0.500000 0.737314
O O12 0.500000 0.566870 0.500000
O O13 0.176851 0.224090 0.500000
O O14 0.250000 0.250000 0.279657
O O15 0.500000 0.934452 0.188868
O O16 0.410439 0.000000 0.232204
O O17 0.411181 0.930325 0.000000
#
# Coordination Sequence:
#
# PCOD9490363 Si02
#       6
#    16  16  16   8  16  16
#     4  12  25  40  62  93 128 160 200 254 312 371
#     4  10  20  35  59  87 112 147 199 251 293 343
#     4  10  20  36  59  87 120 157 198 244 299 363
#     4  11  25  47  73  95 121 165 216 261 312 377
#     4  10  20  40  65  85 116 160 202 244 294 357
#     4   9  19  36  55  77 112 156 192 228 288 360
#
# _framework density 19.319768
#
# number of rings (size 3 to 8) (size 9 to 14) (size 15 to 20)
#    0.000    1.727    1.818    3.545    0.000    6.545 
#    1.636    0.909    0.000    0.000    0.000    0.000 
#    0.000    0.000    0.000    0.000    0.000    0.000 
#
# Total GULP energy -245476.791621 kJ/mol
# GULP energy per Si atom -5579.017991 kJ/mol
# Density = 1.927580 g / cm^3
# Si number density = 19.319768 Si / 1000 Ang^3
#
#
#
# Elastic Constant Matrix: (Units=GPa)
#
#
# Indices 1 2 3 4 5 6 
#
# 1 78.9076 45.1173 17.1378 0.0000 0.0000 0.0000
# 2 45.1173 134.3120 30.5937 0.0000 0.0000 0.0000
# 3 17.1378 30.5937 23.1904 0.0000 0.0000 0.0000
# 4 0.0000 0.0000 0.0000 12.4868 0.0000 0.0000
# 5 0.0000 0.0000 0.0000 0.0000 54.8516 0.0000
# 6 0.0000 0.0000 0.0000 0.0000 0.0000 -20.0413
#
#
#
# Elastic Compliance Matrix: (Units=1/GPa)
#
#
# Indices 1 2 3 4 5 6 
#
# 1 0.016434 -0.003937 -0.006951 0.000000 0.000000 0.000000
# 2 -0.003937 0.011587 -0.012377 0.000000 0.000000 0.000000
# 3 -0.006951 -0.012377 0.064585 0.000000 0.000000 0.000000
# 4 0.000000 0.000000 0.000000 0.080085 0.000000 0.000000
# 5 0.000000 0.000000 0.000000 0.000000 0.018231 0.000000
# 6 0.000000 0.000000 0.000000 0.000000 0.000000 -0.049897
#
#
# Mechanical properties :
#
#
# Convention : Reuss Voigt Hill
#
# Bulk Modulus (GPa) = 21.70248 46.90084 34.30166
# Shear Modulus (GPa) = 24.64114 19.03016 21.83565
#
# Velocity S-wave (km/s) = 3.57520 3.14189 3.36553
# Velocity P-wave (km/s) = 5.31982 6.12297 5.73547
#
# Compressibility (1/GPa) = 0.04607768
#
# Stress axis : x y z
#
# Youngs Moduli (GPa) = 60.85029 86.30343 15.48338
#
# Poissons Ratio (x) = 0.33979 0.10762
# Poissons Ratio (y) = 0.23957 0.19163
# Poissons Ratio (z) = 0.42295 1.06814
#
# Static dielectric constant tensor:
#      x y z
#    x 1.674220 0.000000 0.000000 
#    y 0.000000 1.712740 0.000000 
#    z 0.000000 0.000000 1.667580 
# 
# From -- ./inp_files/11809.got.cif
#   From: 2010.05.17/outbox.cif.g08.bks.cpg/sg65_6_cif.got.tgz:11809.got - 2010.06.03 17:01:31.
