data_PCOD9490867
_publ_section_title
;
Structure prediction by ZEFSAII (Michael W. Deem and Ramdas Pophale) SiO2 
 PCOD9490867
Probable space group: C M M M
;
_chemical_formula_sum "Si O2"
_cell_formula_units_Z 72
_cell_length_a 18.053912
_cell_length_b 24.162252
_cell_length_c 9.008004
_cell_angle_alpha 90.000000
_cell_angle_beta 90.000000
_cell_angle_gamma 90.000000
_cell_volume 3929.500072
_symmetry_space_group_name_H-M "C M M M"
_symmetry_group_IT_number 65
_symmetry_cell_setting 'orthorhombic'
loop_
_space_group_symop_operation_xyz
x,y,z
-x,-y,z
x,-y,-z
-x,y,-z
-x,-y,-z
x,y,-z
-x,y,z
x,-y,z
1/2+x,1/2+y,z
1/2-x,1/2-y,z
1/2+x,1/2-y,-z
1/2-x,1/2+y,-z
1/2-x,1/2-y,-z
1/2+x,1/2+y,-z
1/2-x,1/2+y,z
1/2+x,1/2-y,z
loop_
_atom_site_type_symbol
_atom_site_label
_atom_site_fract_x
_atom_site_fract_y
_atom_site_fract_z
Si Si1 0.500000 0.933968 0.674116
Si Si2 0.585999 0.356214 0.321028
Si Si3 0.859859 0.376336 0.822281
Si Si4 0.705675 0.435516 0.821066
Si Si5 0.662379 0.759435 0.323749
O O1 0.500000 0.919663 0.500000
O O2 0.427477 0.909174 0.750722
O O3 0.500000 0.000000 0.688999
O O4 0.591077 0.360269 0.500000
O O5 0.500000 0.361014 0.278622
O O6 0.637187 0.402980 0.249421
O O7 0.618523 0.295931 0.279670
O O8 0.781891 0.404702 0.777975
O O9 0.861125 0.313521 0.765240
O O10 0.865161 0.378121 0.000000
O O11 0.707698 0.500000 0.777356
O O12 0.700226 0.433059 0.000000
O O13 0.650250 0.768680 0.500000
O O14 0.750000 0.750000 0.301138
#
# Coordination Sequence:
#
# PCOD9490867 Si02
#       5
#     8  16  16  16  16
#     4  11  25  43  63  89 123 163 204 247 300 365
#     4  10  22  39  59  87 121 157 197 247 301 352
#     4  11  23  39  62  91 122 157 200 251 305 362
#     4  10  22  40  61  85 116 156 199 246 301 359
#     4  10  20  37  61  87 119 158 200 246 298 357
#
# _framework density 18.322942999999999
#
# number of rings (size 3 to 8) (size 9 to 14) (size 15 to 20)
#    0.000    1.667    2.222    1.667    1.556    5.333 
#    0.000    2.222    0.000    0.000    0.000    0.000 
#    0.000    0.000    0.000    0.000    0.000    0.000 
#
# Total GULP energy -201191.103311 kJ/mol
# GULP energy per Si atom -5588.641759 kJ/mol
# Density = 1.828124 g / cm^3
# Si number density = 18.322943 Si / 1000 Ang^3
#
#
#
# Elastic Constant Matrix: (Units=GPa)
#
#
# Indices 1 2 3 4 5 6 
#
# 1 142.4115 65.8654 38.5581 0.0000 0.0000 0.0000
# 2 65.8654 129.8851 38.2720 0.0000 0.0000 0.0000
# 3 38.5581 38.2720 33.7105 0.0000 0.0000 0.0000
# 4 0.0000 0.0000 0.0000 21.9434 0.0000 0.0000
# 5 0.0000 0.0000 0.0000 0.0000 35.2015 0.0000
# 6 0.0000 0.0000 0.0000 0.0000 0.0000 20.3997
#
#
#
# Elastic Compliance Matrix: (Units=1/GPa)
#
#
# Indices 1 2 3 4 5 6 
#
# 1 0.010792 -0.002758 -0.009212 0.000000 0.000000 0.000000
# 2 -0.002758 0.012274 -0.010781 0.000000 0.000000 0.000000
# 3 -0.009212 -0.010781 0.052441 0.000000 0.000000 0.000000
# 4 0.000000 0.000000 0.000000 0.045572 0.000000 0.000000
# 5 0.000000 0.000000 0.000000 0.000000 0.028408 0.000000
# 6 0.000000 0.000000 0.000000 0.000000 0.000000 0.049020
#
#
# Mechanical properties :
#
#
# Convention : Reuss Voigt Hill
#
# Bulk Modulus (GPa) = 33.32785 65.71089 49.51937
# Shear Modulus (GPa) = 19.68422 26.39637 23.04030
#
# Velocity S-wave (km/s) = 3.28120 3.79967 3.54991
# Velocity P-wave (km/s) = 5.70821 7.42903 6.62473
#
# Compressibility (1/GPa) = 0.03000493
#
# Stress axis : x y z
#
# Youngs Moduli (GPa) = 92.66329 81.47080 19.06911
#
# Poissons Ratio (x) = 0.22470 0.17567
# Poissons Ratio (y) = 0.25557 0.20558
# Poissons Ratio (z) = 0.85365 0.87830
#
# Static dielectric constant tensor:
#      x y z
#    x 1.603350 0.000000 0.000000 
#    y 0.000000 1.602540 0.000000 
#    z 0.000000 0.000000 1.614870 
# 
# From -- ./inp_files/7230.got.cif
#   From: 2010.05.17/outbox.cif.g08.bks.cpg/sg65_4_cif.got.tgz:7230.got - 2010.06.03 17:01:31.
