data_PCOD9490982
_publ_section_title
;
Structure prediction by ZEFSAII (Michael W. Deem and Ramdas Pophale) SiO2 
 PCOD9490982
Probable space group: C M M M
;
_chemical_formula_sum "Si O2"
_cell_formula_units_Z 96
_cell_length_a 13.921742
_cell_length_b 14.556874
_cell_length_c 22.966895
_cell_angle_alpha 90.000000
_cell_angle_beta 90.000000
_cell_angle_gamma 90.000000
_cell_volume 4654.403054
_symmetry_space_group_name_H-M "C M M M"
_symmetry_group_IT_number 65
_symmetry_cell_setting 'orthorhombic'
loop_
_space_group_symop_operation_xyz
x,y,z
-x,-y,z
x,-y,-z
-x,y,-z
-x,-y,-z
x,y,-z
-x,y,z
x,-y,z
1/2+x,1/2+y,z
1/2-x,1/2-y,z
1/2+x,1/2-y,-z
1/2-x,1/2+y,-z
1/2-x,1/2-y,-z
1/2+x,1/2+y,-z
1/2-x,1/2+y,z
1/2+x,1/2-y,z
loop_
_atom_site_type_symbol
_atom_site_label
_atom_site_fract_x
_atom_site_fract_y
_atom_site_fract_z
Si Si1 0.702237 0.108763 0.891133
Si Si2 0.389801 0.654387 0.565227
Si Si3 0.251548 0.099615 0.333738
Si Si4 0.388701 0.707587 0.932147
Si Si5 0.110111 0.374536 0.437147
Si Si6 0.389091 0.109814 0.237161
O O1 0.643068 0.185255 0.927522
O O2 0.811855 0.146259 0.896405
O O3 0.655533 0.118143 0.827044
O O4 0.696474 0.000000 0.907478
O O5 0.356920 0.622559 0.500000
O O6 0.500000 0.624511 0.570439
O O7 0.333868 0.632999 0.624581
O O8 0.385450 0.764390 0.562629
O O9 0.333025 0.091887 0.382640
O O10 0.309972 0.149756 0.282161
O O11 0.220870 0.000000 0.310458
O O12 0.500000 0.697642 0.913940
O O13 0.380671 0.680285 0.000000
O O14 0.146734 0.403981 0.500000
O O15 0.000000 0.400172 0.432633
O O16 0.500000 0.144810 0.241155
O O17 0.395408 0.000000 0.249690
#
# Coordination Sequence:
#
# PCOD9490982 Si02
#       6
#    16  16  16  16  16  16
#     4  10  20  38  63  87 119 168 215 249 293 358
#     4   9  19  36  53  69  97 138 180 222 272 336
#     4  11  21  32  50  77 105 132 170 225 283 335
#     4  10  22  39  60  94 135 163 196 254 307 348
#     4   9  18  33  51  70  96 130 168 215 272 334
#     4   9  19  36  56  78 108 147 187 229 280 337
#
# _framework density 20.625630999999998
#
# number of rings (size 3 to 8) (size 9 to 14) (size 15 to 20)
#    0.000    2.333    0.000    4.000    0.000    6.667 
#    6.000    4.167    0.000    3.000    0.000    0.000 
#    0.000    0.000    0.000    0.000    0.000    0.000 
#
# Total GULP energy -267214.173024 kJ/mol
# GULP energy per Si atom -5566.961938 kJ/mol
# Density = 2.057869 g / cm^3
# Si number density = 20.625631 Si / 1000 Ang^3
#
#
#
# Elastic Constant Matrix: (Units=GPa)
#
#
# Indices 1 2 3 4 5 6 
#
# 1 148.3802 29.4389 37.8013 0.0000 0.0000 0.0000
# 2 29.4389 64.7284 10.9592 0.0000 0.0000 0.0000
# 3 37.8013 10.9592 69.8473 0.0000 0.0000 0.0000
# 4 0.0000 0.0000 0.0000 15.9418 0.0000 0.0000
# 5 0.0000 0.0000 0.0000 0.0000 37.6944 0.0000
# 6 0.0000 0.0000 0.0000 0.0000 0.0000 19.4534
#
#
#
# Elastic Compliance Matrix: (Units=1/GPa)
#
#
# Indices 1 2 3 4 5 6 
#
# 1 0.008393 -0.003131 -0.004051 0.000000 0.000000 0.000000
# 2 -0.003131 0.017039 -0.000979 0.000000 0.000000 0.000000
# 3 -0.004051 -0.000979 0.016663 0.000000 0.000000 0.000000
# 4 0.000000 0.000000 0.000000 0.062728 0.000000 0.000000
# 5 0.000000 0.000000 0.000000 0.000000 0.026529 0.000000
# 6 0.000000 0.000000 0.000000 0.000000 0.000000 0.051405
#
#
# Mechanical properties :
#
#
# Convention : Reuss Voigt Hill
#
# Bulk Modulus (GPa) = 38.80065 48.81718 43.80891
# Shear Modulus (GPa) = 24.07675 28.26836 26.17256
#
# Velocity S-wave (km/s) = 3.42032 3.70610 3.56607
# Velocity P-wave (km/s) = 5.86948 6.48330 6.18401
#
# Compressibility (1/GPa) = 0.02577277
#
# Stress axis : x y z
#
# Youngs Moduli (GPa) = 119.15175 58.68893 60.01386
#
# Poissons Ratio (x) = 0.18377 0.24310
# Poissons Ratio (y) = 0.37309 0.05874
# Poissons Ratio (z) = 0.48266 0.05745
#
# Static dielectric constant tensor:
#      x y z
#    x 1.776400 0.000000 0.000000 
#    y 0.000000 1.608470 0.000000 
#    z 0.000000 0.000000 1.754420 
# 
# From -- ./inp_files/62636.got.cif
#   From: 2010.05.17/outbox.cif.g08.bks.cpg/sg65_32_cif.got.tgz:62636.got - 2010.06.03 17:01:31.
