data_PCOD9490570
_publ_section_title
;
Structure prediction by ZEFSAII (Michael W. Deem and Ramdas Pophale) SiO2 
 PCOD9490570
Probable space group: C M M M
;
_chemical_formula_sum "Si O2"
_cell_formula_units_Z 88
_cell_length_a 9.565029
_cell_length_b 21.277145
_cell_length_c 22.155532
_cell_angle_alpha 90.000000
_cell_angle_beta 90.000000
_cell_angle_gamma 90.000000
_cell_volume 4509.016527
_symmetry_space_group_name_H-M "C M M M"
_symmetry_group_IT_number 65
_symmetry_cell_setting 'orthorhombic'
loop_
_space_group_symop_operation_xyz
x,y,z
-x,-y,z
x,-y,-z
-x,y,-z
-x,-y,-z
x,y,-z
-x,y,z
x,-y,z
1/2+x,1/2+y,z
1/2-x,1/2-y,z
1/2+x,1/2-y,-z
1/2-x,1/2+y,-z
1/2-x,1/2-y,-z
1/2+x,1/2+y,-z
1/2-x,1/2+y,z
1/2+x,1/2-y,z
loop_
_atom_site_type_symbol
_atom_site_label
_atom_site_fract_x
_atom_site_fract_y
_atom_site_fract_z
Si Si1 0.168436 0.500000 0.373883
Si Si2 0.169002 0.074188 0.000000
Si Si3 0.342364 0.385118 0.207557
Si Si4 0.334729 0.686760 0.089603
Si Si5 0.166220 0.500000 0.766546
Si Si6 0.160418 0.194263 0.325232
Si Si7 0.667000 0.866707 0.429318
O O1 0.214550 0.500000 0.304106
O O2 0.207388 0.437556 0.409988
O O3 0.000000 0.500000 0.371655
O O4 0.206656 0.121372 0.055649
O O5 0.000000 0.069553 0.000000
O O6 0.218239 0.000000 0.000000
O O7 0.500000 0.409234 0.195410
O O8 0.318350 0.329281 0.160301
O O9 0.229490 0.439154 0.201968
O O10 0.337634 0.360696 0.276038
O O11 0.500000 0.697007 0.077032
O O12 0.250000 0.750000 0.073598
O O13 0.000000 0.500000 0.767320
O O14 0.250000 0.250000 0.297120
O O15 0.240436 0.176037 0.386118
O O16 0.000000 0.211789 0.336579
O O17 0.690978 0.856288 0.500000
O O18 0.500000 0.858763 0.417789
#
# Coordination Sequence:
#
# PCOD9490570 Si02
#       7
#     8   8  16  16   8  16  16
#     4   9  17  33  56  83 108 136 174 220 275 336
#     4   9  19  36  61  93 124 163 210 248 291 350
#     4  10  22  38  58  86 118 153 192 237 290 348
#     4  10  21  38  63  91 122 162 205 251 297 349
#     4  11  21  34  59  88 117 152 188 236 293 349
#     4  11  23  38  56  78 108 144 186 234 285 341
#     4  10  20  36  58  81 107 141 181 227 281 342
#
# _framework density 19.516449999999999
#
# number of rings (size 3 to 8) (size 9 to 14) (size 15 to 20)
#    0.000    1.909    1.818    1.909    1.273    3.273 
#    0.000    0.455    0.000    1.636    0.000    0.000 
#    0.000    0.000    0.000    0.000    0.000    0.000 
#
# Total GULP energy -245330.021531 kJ/mol
# GULP energy per Si atom -5575.682308 kJ/mol
# Density = 1.947203 g / cm^3
# Si number density = 19.516450 Si / 1000 Ang^3
#
#
#
# Elastic Constant Matrix: (Units=GPa)
#
#
# Indices 1 2 3 4 5 6 
#
# 1 87.7853 59.5833 33.3519 0.0000 0.0000 0.0000
# 2 59.5833 117.4731 26.9368 0.0000 0.0000 0.0000
# 3 33.3519 26.9368 86.3212 0.0000 0.0000 0.0000
# 4 0.0000 0.0000 0.0000 23.5710 0.0000 0.0000
# 5 0.0000 0.0000 0.0000 0.0000 15.5118 0.0000
# 6 0.0000 0.0000 0.0000 0.0000 0.0000 35.2482
#
#
#
# Elastic Compliance Matrix: (Units=1/GPa)
#
#
# Indices 1 2 3 4 5 6 
#
# 1 0.018966 -0.008551 -0.004659 0.000000 0.000000 0.000000
# 2 -0.008551 0.013024 -0.000760 0.000000 0.000000 0.000000
# 3 -0.004659 -0.000760 0.013622 0.000000 0.000000 0.000000
# 4 0.000000 0.000000 0.000000 0.042425 0.000000 0.000000
# 5 0.000000 0.000000 0.000000 0.000000 0.064467 0.000000
# 6 0.000000 0.000000 0.000000 0.000000 0.000000 0.028370
#
#
# Mechanical properties :
#
#
# Convention : Reuss Voigt Hill
#
# Bulk Modulus (GPa) = 56.59211 59.03596 57.81403
# Shear Modulus (GPa) = 23.28768 26.31336 24.80052
#
# Velocity S-wave (km/s) = 3.45807 3.67586 3.56862
# Velocity P-wave (km/s) = 6.70853 6.95204 6.83137
#
# Compressibility (1/GPa) = 0.01767031
#
# Stress axis : x y z
#
# Youngs Moduli (GPa) = 52.72710 76.78062 73.40995
#
# Poissons Ratio (x) = 0.65656 0.34204
# Poissons Ratio (y) = 0.45087 0.05582
# Poissons Ratio (z) = 0.24567 0.05838
#
# Static dielectric constant tensor:
#      x y z
#    x 1.658930 0.000000 0.000000 
#    y 0.000000 1.740670 0.000000 
#    z 0.000000 0.000000 1.704750 
# 
# From -- ./inp_files/67677.got.cif
#   From: 2010.05.17/outbox.cif.g08.bks.cpg/sg65_34_cif.got.tgz:67677.got - 2010.06.03 17:01:31.
