data_PCOD9490068
_publ_section_title
;
Structure prediction by ZEFSAII (Michael W. Deem and Ramdas Pophale) SiO2 
 PCOD9490068
Probable space group: C M M M
;
_chemical_formula_sum "Si O2"
_cell_formula_units_Z 80
_cell_length_a 19.455632
_cell_length_b 7.963071
_cell_length_c 26.664439
_cell_angle_alpha 90.000000
_cell_angle_beta 90.000000
_cell_angle_gamma 90.000000
_cell_volume 4131.030314
_symmetry_space_group_name_H-M "C M M M"
_symmetry_group_IT_number 65
_symmetry_cell_setting 'orthorhombic'
loop_
_space_group_symop_operation_xyz
x,y,z
-x,-y,z
x,-y,-z
-x,y,-z
-x,-y,-z
x,y,-z
-x,y,z
x,-y,z
1/2+x,1/2+y,z
1/2-x,1/2-y,z
1/2+x,1/2-y,-z
1/2-x,1/2+y,-z
1/2-x,1/2-y,-z
1/2+x,1/2+y,-z
1/2-x,1/2+y,z
1/2+x,1/2-y,z
loop_
_atom_site_type_symbol
_atom_site_label
_atom_site_fract_x
_atom_site_fract_y
_atom_site_fract_z
Si Si1 0.171958 0.702617 0.795589
Si Si2 0.830183 0.702910 0.390454
Si Si3 0.076781 0.199201 0.000000
Si Si4 0.579203 0.205869 0.296431
Si Si5 0.172542 0.699696 0.908698
Si Si6 0.169664 0.297875 0.500000
O O1 0.168196 0.500000 0.796641
O O2 0.250000 0.750000 0.781772
O O3 0.118306 0.761693 0.753947
O O4 0.159074 0.766314 0.852280
O O5 0.832889 0.500000 0.390719
O O6 0.750000 0.750000 0.383876
O O7 0.877209 0.762153 0.344753
O O8 0.855589 0.762678 0.445563
O O9 0.118892 0.247127 0.049476
O O10 0.000000 0.272869 0.000000
O O11 0.071547 0.000000 0.000000
O O12 0.500000 0.258892 0.298049
O O13 0.579659 0.000000 0.296546
O O14 0.170723 0.500000 0.905794
O O15 0.250000 0.750000 0.923118
O O16 0.162943 0.500000 0.500000
O O17 0.250000 0.250000 0.500000
#
# Coordination Sequence:
#
# PCOD9490068 Si02
#       6
#    16  16   8  16  16   8
#     4   9  18  32  52  75  96 122 157 197 237 279
#     4   9  16  27  45  66  89 119 154 194 235 277
#     4  11  24  39  54  75 105 137 166 199 240 285
#     4   9  17  29  45  67  95 125 156 191 234 281
#     4  10  20  35  56  79 102 129 163 203 244 288
#     4   8  14  24  39  63  89 113 149 192 234 276
#
# _framework density 19.365628999999998
#
# number of rings (size 3 to 8) (size 9 to 14) (size 15 to 20)
#    0.000    2.700    0.000    1.800    0.000    2.400 
#    0.000    2.500    0.000    5.400    0.000    0.000 
#    0.000    8.000    0.000    0.000    0.000    0.000 
#
# Total GULP energy -223046.892721 kJ/mol
# GULP energy per Si atom -5576.172318 kJ/mol
# Density = 1.932155 g / cm^3
# Si number density = 19.365629 Si / 1000 Ang^3
#
#
#
# Elastic Constant Matrix: (Units=GPa)
#
#
# Indices 1 2 3 4 5 6 
#
# 1 154.6091 7.2027 134.5607 0.0000 0.0000 0.0000
# 2 7.2027 19.9920 12.8712 0.0000 0.0000 0.0000
# 3 134.5607 12.8712 175.3834 0.0000 0.0000 0.0000
# 4 0.0000 0.0000 0.0000 -1.8202 0.0000 0.0000
# 5 0.0000 0.0000 0.0000 0.0000 -4.8177 0.0000
# 6 0.0000 0.0000 0.0000 0.0000 0.0000 18.0680
#
#
#
# Elastic Compliance Matrix: (Units=1/GPa)
#
#
# Indices 1 2 3 4 5 6 
#
# 1 0.019610 0.002752 -0.015248 0.000000 0.000000 0.000000
# 2 0.002752 0.052887 -0.005992 0.000000 0.000000 0.000000
# 3 -0.015248 -0.005992 0.017840 0.000000 0.000000 0.000000
# 4 0.000000 0.000000 0.000000 -0.549403 0.000000 0.000000
# 5 0.000000 0.000000 0.000000 0.000000 -0.207568 0.000000
# 6 0.000000 0.000000 0.000000 0.000000 0.000000 0.055347
#
#
# Mechanical properties :
#
#
# Convention : Reuss Voigt Hill
#
# Bulk Modulus (GPa) = 18.74061 73.25041 45.99551
# Shear Modulus (GPa) = -8.98434 15.30935 3.16250
#
# Velocity S-wave (km/s) = -2.15625 2.81471 1.27929
# Velocity P-wave (km/s) = 1.87058 6.96208 5.09753
#
# Compressibility (1/GPa) = 0.05336006
#
# Stress axis : x y z
#
# Youngs Moduli (GPa) = 50.99405 18.90836 56.05358
#
# Poissons Ratio (x) = -0.05203 0.85468
# Poissons Ratio (y) = -0.14031 0.33590
# Poissons Ratio (z) = 0.77753 0.11331
#
# Static dielectric constant tensor:
#      x y z
#    x 1.538510 0.000000 0.000000 
#    y 0.000000 1.688350 0.000000 
#    z 0.000000 0.000000 1.726370 
# 
# From -- ./inp_files/75102.got.cif
#   From: 2010.05.17/outbox.cif.g08.bks.cpg/sg65_38_cif.got.tgz:75102.got - 2010.06.03 17:01:31.
