data_PCOD9490300
_publ_section_title
;
Structure prediction by ZEFSAII (Michael W. Deem and Ramdas Pophale) SiO2 
 PCOD9490300
Probable space group: C M M M
;
_chemical_formula_sum "Si O2"
_cell_formula_units_Z 80
_cell_length_a 15.051510
_cell_length_b 22.980114
_cell_length_c 11.469579
_cell_angle_alpha 90.000000
_cell_angle_beta 90.000000
_cell_angle_gamma 90.000000
_cell_volume 3967.160100
_symmetry_space_group_name_H-M "C M M M"
_symmetry_group_IT_number 65
_symmetry_cell_setting 'orthorhombic'
loop_
_space_group_symop_operation_xyz
x,y,z
-x,-y,z
x,-y,-z
-x,y,-z
-x,-y,-z
x,y,-z
-x,y,z
x,-y,z
1/2+x,1/2+y,z
1/2-x,1/2-y,z
1/2+x,1/2-y,-z
1/2-x,1/2+y,-z
1/2-x,1/2-y,-z
1/2+x,1/2+y,-z
1/2-x,1/2+y,z
1/2+x,1/2-y,z
loop_
_atom_site_type_symbol
_atom_site_label
_atom_site_fract_x
_atom_site_fract_y
_atom_site_fract_z
Si Si1 0.322531 0.368527 0.363657
Si Si2 0.762339 0.430854 0.828978
Si Si3 0.500000 0.435446 0.359724
Si Si4 0.392548 0.241345 0.636949
Si Si5 0.602687 0.570017 0.000000
Si Si6 0.605456 0.168488 0.872686
O O1 0.310593 0.374501 0.500000
O O2 0.249131 0.406374 0.300291
O O3 0.414228 0.399528 0.329549
O O4 0.337076 0.300345 0.341761
O O5 0.774628 0.500000 0.838091
O O6 0.669268 0.415055 0.893663
O O7 0.842214 0.392166 0.876000
O O8 0.500000 0.500000 0.307044
O O9 0.500000 0.440831 0.500000
O O10 0.374256 0.222326 0.500000
O O11 0.500000 0.253064 0.639075
O O12 0.373039 0.201268 0.750214
O O13 0.595057 0.500000 0.000000
O O14 0.500000 0.592534 0.000000
O O15 0.500000 0.159468 0.869267
O O16 0.625369 0.198271 0.000000
#
# Coordination Sequence:
#
# PCOD9490300 Si02
#       6
#    16  16   8  16   8  16
#     4  10  20  35  57  87 123 162 200 245 303 367
#     4  11  23  39  60  89 123 159 205 253 304 373
#     4   9  16  28  50  83 121 161 200 236 284 354
#     4   9  18  37  64  92 124 163 210 259 311 372
#     4   9  20  38  57  80 117 161 196 232 289 366
#     4  10  22  42  66  90 119 158 209 269 322 364
#
# _framework density 20.165558000000001
#
# number of rings (size 3 to 8) (size 9 to 14) (size 15 to 20)
#    0.000    2.200    2.000    0.600    1.400    3.200 
#    1.800    4.000    0.000    0.000    0.000    4.200 
#    0.000    0.000    0.000    0.000    0.000    0.000 
#
# Total GULP energy -222727.037217 kJ/mol
# GULP energy per Si atom -5568.175930 kJ/mol
# Density = 2.011966 g / cm^3
# Si number density = 20.165558 Si / 1000 Ang^3
#
#
#
# Elastic Constant Matrix: (Units=GPa)
#
#
# Indices 1 2 3 4 5 6 
#
# 1 35.6107 26.4387 41.0330 0.0000 0.0000 0.0000
# 2 26.4387 86.9335 84.8011 0.0000 0.0000 0.0000
# 3 41.0330 84.8011 147.2125 0.0000 0.0000 0.0000
# 4 0.0000 0.0000 0.0000 17.6881 0.0000 0.0000
# 5 0.0000 0.0000 0.0000 0.0000 12.3570 0.0000
# 6 0.0000 0.0000 0.0000 0.0000 0.0000 30.6696
#
#
#
# Elastic Compliance Matrix: (Units=1/GPa)
#
#
# Indices 1 2 3 4 5 6 
#
# 1 0.041723 -0.003070 -0.009861 0.000000 0.000000 0.000000
# 2 -0.003070 0.026483 -0.014400 0.000000 0.000000 0.000000
# 3 -0.009861 -0.014400 0.017837 0.000000 0.000000 0.000000
# 4 0.000000 0.000000 0.000000 0.056535 0.000000 0.000000
# 5 0.000000 0.000000 0.000000 0.000000 0.080926 0.000000
# 6 0.000000 0.000000 0.000000 0.000000 0.000000 0.032606
#
#
# Mechanical properties :
#
#
# Convention : Reuss Voigt Hill
#
# Bulk Modulus (GPa) = 31.86607 63.81137 47.83872
# Shear Modulus (GPa) = 15.56503 19.97520 17.77011
#
# Velocity S-wave (km/s) = 2.78125 3.15073 2.97174
# Velocity P-wave (km/s) = 5.11374 6.70437 5.96234
#
# Compressibility (1/GPa) = 0.03138134
#
# Stress axis : x y z
#
# Youngs Moduli (GPa) = 23.96735 37.75947 56.06412
#
# Poissons Ratio (x) = 0.11590 0.55288
# Poissons Ratio (y) = 0.07357 0.80733
# Poissons Ratio (z) = 0.23635 0.54374
#
# Static dielectric constant tensor:
#      x y z
#    x 1.734450 0.000000 0.000000 
#    y 0.000000 1.677850 0.000000 
#    z 0.000000 0.000000 1.803660 
# 
# From -- ./inp_files/24710.got.cif
#   From: 2010.05.17/outbox.cif.g08.bks.cpg/sg65_13_cif.got.tgz:24710.got - 2010.06.03 17:01:31.
