data_PCOD9490726
_publ_section_title
;
Structure prediction by ZEFSAII (Michael W. Deem and Ramdas Pophale) SiO2 
 PCOD9490726
Probable space group: C M M M
;
_chemical_formula_sum "Si O2"
_cell_formula_units_Z 96
_cell_length_a 17.827072
_cell_length_b 14.264548
_cell_length_c 19.019676
_cell_angle_alpha 90.000000
_cell_angle_beta 90.000000
_cell_angle_gamma 90.000000
_cell_volume 4836.610871
_symmetry_space_group_name_H-M "C M M M"
_symmetry_group_IT_number 65
_symmetry_cell_setting 'orthorhombic'
loop_
_space_group_symop_operation_xyz
x,y,z
-x,-y,z
x,-y,-z
-x,y,-z
-x,-y,-z
x,y,-z
-x,y,z
x,-y,z
1/2+x,1/2+y,z
1/2-x,1/2-y,z
1/2+x,1/2-y,-z
1/2-x,1/2+y,-z
1/2-x,1/2-y,-z
1/2+x,1/2+y,-z
1/2-x,1/2+y,z
1/2+x,1/2-y,z
loop_
_atom_site_type_symbol
_atom_site_label
_atom_site_fract_x
_atom_site_fract_y
_atom_site_fract_z
Si Si1 0.359055 0.111340 0.694196
Si Si2 0.914920 0.687731 0.157228
Si Si3 0.270414 0.140106 0.079115
Si Si4 0.413363 0.752055 0.417523
Si Si5 0.629264 0.397806 0.171480
Si Si6 0.183596 0.892505 0.330206
O O1 0.389951 0.162775 0.763415
O O2 0.400340 0.153358 0.626563
O O3 0.270465 0.131452 0.684417
O O4 0.368762 0.000000 0.701769
O O5 0.854696 0.636423 0.107806
O O6 0.908821 0.800875 0.147539
O O7 0.000000 0.658277 0.145324
O O8 0.250000 0.250000 0.077087
O O9 0.210472 0.100088 0.133699
O O10 0.262665 0.103944 0.000000
O O11 0.398779 0.764615 0.500000
O O12 0.500000 0.721870 0.408576
O O13 0.357400 0.676542 0.383435
O O14 0.593412 0.500000 0.157175
O O15 0.642316 0.389192 0.254886
O O16 0.181141 0.000000 0.355724
#
# Coordination Sequence:
#
# PCOD9490726 Si02
#       6
#    16  16  16  16  16  16
#     4  11  23  40  62  87 116 157 209 256 294 345
#     4  11  22  36  59  90 124 162 203 249 305 360
#     4   9  19  36  58  85 120 162 203 243 289 344
#     4  11  25  42  61  90 125 158 193 241 305 367
#     4  10  20  36  60  90 121 157 202 249 298 359
#     4  10  21  38  63  89 117 156 201 246 295 355
#
# _framework density 19.848610000000001
#
# number of rings (size 3 to 8) (size 9 to 14) (size 15 to 20)
#    0.000    1.667    3.333    1.000    0.000    4.667 
#    0.000    5.000    0.000    0.000    0.000    7.000 
#    0.000    0.000    0.000    0.000    0.000    0.000 
#
# Total GULP energy -268055.003665 kJ/mol
# GULP energy per Si atom -5584.479243 kJ/mol
# Density = 1.980343 g / cm^3
# Si number density = 19.848610 Si / 1000 Ang^3
#
#
#
# Elastic Constant Matrix: (Units=GPa)
#
#
# Indices 1 2 3 4 5 6 
#
# 1 88.1034 12.7114 8.4196 0.0000 0.0000 0.0000
# 2 12.7114 91.3563 14.0349 0.0000 0.0000 0.0000
# 3 8.4196 14.0349 64.6514 0.0000 0.0000 0.0000
# 4 0.0000 0.0000 0.0000 -48.2237 0.0000 0.0000
# 5 0.0000 0.0000 0.0000 0.0000 -3.3835 0.0000
# 6 0.0000 0.0000 0.0000 0.0000 0.0000 12.3637
#
#
#
# Elastic Compliance Matrix: (Units=1/GPa)
#
#
# Indices 1 2 3 4 5 6 
#
# 1 0.011673 -0.001439 -0.001208 0.000000 0.000000 0.000000
# 2 -0.001439 0.011501 -0.002309 0.000000 0.000000 0.000000
# 3 -0.001208 -0.002309 0.016126 0.000000 0.000000 0.000000
# 4 0.000000 0.000000 0.000000 -0.020737 0.000000 0.000000
# 5 0.000000 0.000000 0.000000 0.000000 -0.295553 0.000000
# 6 0.000000 0.000000 0.000000 0.000000 0.000000 0.080882
#
#
# Mechanical properties :
#
#
# Convention : Reuss Voigt Hill
#
# Bulk Modulus (GPa) = 34.02665 34.93810 34.48237
# Shear Modulus (GPa) = -28.34480 6.08099 -11.13191
#
# Velocity S-wave (km/s) = -3.78305 1.75224 -2.37078
# Velocity P-wave (km/s) = 1.37902 4.66200 3.14902
#
# Compressibility (1/GPa) = 0.02938873
#
# Stress axis : x y z
#
# Youngs Moduli (GPa) = 85.66559 86.94807 62.01084
#
# Poissons Ratio (x) = 0.12509 0.07490
# Poissons Ratio (y) = 0.12324 0.14321
# Poissons Ratio (z) = 0.10348 0.20080
#
# Static dielectric constant tensor:
#      x y z
#    x 1.684710 0.000000 0.000000 
#    y 0.000000 1.731560 0.000000 
#    z 0.000000 0.000000 1.659010 
# 
# From -- ./inp_files/62605.got.cif
#   From: 2010.05.17/outbox.cif.g08.bks.cpg/sg65_32_cif.got.tgz:62605.got - 2010.06.03 17:01:31.
