data_PCOD9490086
_publ_section_title
;
Structure prediction by ZEFSAII (Michael W. Deem and Ramdas Pophale) SiO2 
 PCOD9490086
Probable space group: C M M M
;
_chemical_formula_sum "Si O2"
_cell_formula_units_Z 88
_cell_length_a 8.400898
_cell_length_b 19.241873
_cell_length_c 28.820869
_cell_angle_alpha 90.000000
_cell_angle_beta 90.000000
_cell_angle_gamma 90.000000
_cell_volume 4658.865010
_symmetry_space_group_name_H-M "C M M M"
_symmetry_group_IT_number 65
_symmetry_cell_setting 'orthorhombic'
loop_
_space_group_symop_operation_xyz
x,y,z
-x,-y,z
x,-y,-z
-x,y,-z
-x,-y,-z
x,y,-z
-x,y,z
x,-y,z
1/2+x,1/2+y,z
1/2-x,1/2-y,z
1/2+x,1/2-y,-z
1/2-x,1/2+y,-z
1/2-x,1/2-y,-z
1/2+x,1/2+y,-z
1/2-x,1/2+y,z
1/2+x,1/2-y,z
loop_
_atom_site_type_symbol
_atom_site_label
_atom_site_fract_x
_atom_site_fract_y
_atom_site_fract_z
Si Si1 0.189491 0.170645 0.500000
Si Si2 0.309230 0.172666 0.221767
Si Si3 0.807894 0.672629 0.327600
Si Si4 0.192409 0.079235 0.138322
Si Si5 0.192885 0.419902 0.413334
Si Si6 0.307631 0.671801 0.947676
O O1 0.250000 0.250000 0.500000
O O2 0.249211 0.128253 0.455214
O O3 0.000000 0.172164 0.500000
O O4 0.500000 0.172127 0.221034
O O5 0.250000 0.250000 0.209801
O O6 0.255363 0.157954 0.274741
O O7 0.245649 0.118800 0.184426
O O8 0.750000 0.750000 0.340304
O O9 0.755364 0.616006 0.365146
O O10 0.000000 0.673532 0.327690
O O11 0.248519 0.120828 0.092772
O O12 0.000000 0.078974 0.137199
O O13 0.248522 0.000000 0.137952
O O14 0.246335 0.500000 0.417637
O O15 0.000000 0.420354 0.414155
O O16 0.500000 0.671771 0.947284
O O17 0.250000 0.750000 0.938584
O O18 0.256110 0.652303 0.000000
#
# Coordination Sequence:
#
# PCOD9490086 Si02
#       6
#     8  16  16  16  16  16
#     4  12  25  40  59  83 111 143 183 226 267 314
#     4  10  20  35  56  80 107 140 179 221 264 312
#     4   9  19  35  56  81 107 139 179 221 263 311
#     4  10  21  35  51  75 107 140 175 217 265 316
#     4  10  21  38  59  83 113 146 178 216 265 317
#     4   9  18  33  53  75  99 131 172 216 261 311
#
# _framework density 18.888721
#
# number of rings (size 3 to 8) (size 9 to 14) (size 15 to 20)
#    0.000    2.182    0.000    2.727    0.000    8.000 
#    0.000    3.636    0.000    0.000    0.000    3.818 
#    0.000    0.000    0.000    0.000    0.000    0.000 
#
# Total GULP energy -245678.840908 kJ/mol
# GULP energy per Si atom -5583.610021 kJ/mol
# Density = 1.884573 g / cm^3
# Si number density = 18.888721 Si / 1000 Ang^3
#
#
#
# Elastic Constant Matrix: (Units=GPa)
#
#
# Indices 1 2 3 4 5 6 
#
# 1 13.5714 24.3294 21.6202 0.0000 0.0000 0.0000
# 2 24.3294 186.2910 132.2719 0.0000 0.0000 0.0000
# 3 21.6202 132.2719 146.4338 0.0000 0.0000 0.0000
# 4 0.0000 0.0000 0.0000 -7.8739 0.0000 0.0000
# 5 0.0000 0.0000 0.0000 0.0000 39.5927 0.0000
# 6 0.0000 0.0000 0.0000 0.0000 0.0000 24.9888
#
#
#
# Elastic Compliance Matrix: (Units=1/GPa)
#
#
# Indices 1 2 3 4 5 6 
#
# 1 0.099657 -0.007160 -0.008246 0.000000 0.000000 0.000000
# 2 -0.007160 0.015482 -0.012927 0.000000 0.000000 0.000000
# 3 -0.008246 -0.012927 0.019724 0.000000 0.000000 0.000000
# 4 0.000000 0.000000 0.000000 -0.127002 0.000000 0.000000
# 5 0.000000 0.000000 0.000000 0.000000 0.025257 0.000000
# 6 0.000000 0.000000 0.000000 0.000000 0.000000 0.040018
#
#
# Mechanical properties :
#
#
# Convention : Reuss Voigt Hill
#
# Bulk Modulus (GPa) = 12.78849 78.08212 45.43530
# Shear Modulus (GPa) = 32.07824 22.54651 27.31237
#
# Velocity S-wave (km/s) = 4.12548 3.45867 3.80671
# Velocity P-wave (km/s) = 5.42936 7.57480 6.58997
#
# Compressibility (1/GPa) = 0.07819533
#
# Stress axis : x y z
#
# Youngs Moduli (GPa) = 10.03439 64.59152 50.70015
#
# Poissons Ratio (x) = 0.46247 0.41809
# Poissons Ratio (y) = 0.07185 0.65543
# Poissons Ratio (z) = 0.08275 0.83501
#
# Static dielectric constant tensor:
#      x y z
#    x 1.656100 0.000000 0.000000 
#    y 0.000000 1.620170 0.000000 
#    z 0.000000 0.000000 1.658210 
# 
# From -- ./inp_files/76609.got.cif
#   From: 2010.05.17/outbox.cif.g08.bks.cpg/sg65_39_cif.got.tgz:76609.got - 2010.06.03 17:01:31.
