data_PCOD9490776
_publ_section_title
;
Structure prediction by ZEFSAII (Michael W. Deem and Ramdas Pophale) SiO2 
 PCOD9490776
Probable space group: C M M M
;
_chemical_formula_sum "Si O2"
_cell_formula_units_Z 116
_cell_length_a 16.751284
_cell_length_b 15.526287
_cell_length_c 23.214775
_cell_angle_alpha 90.000000
_cell_angle_beta 90.000000
_cell_angle_gamma 90.000000
_cell_volume 6037.820397
_symmetry_space_group_name_H-M "C M M M"
_symmetry_group_IT_number 65
_symmetry_cell_setting 'orthorhombic'
loop_
_space_group_symop_operation_xyz
x,y,z
-x,-y,z
x,-y,-z
-x,y,-z
-x,-y,-z
x,y,-z
-x,y,z
x,-y,z
1/2+x,1/2+y,z
1/2-x,1/2-y,z
1/2+x,1/2-y,-z
1/2-x,1/2+y,-z
1/2-x,1/2-y,-z
1/2+x,1/2+y,-z
1/2-x,1/2+y,z
1/2+x,1/2-y,z
loop_
_atom_site_type_symbol
_atom_site_label
_atom_site_fract_x
_atom_site_fract_y
_atom_site_fract_z
Si Si1 0.408799 0.757910 0.641710
Si Si2 0.819841 0.599778 0.567293
Si Si3 0.413719 0.226075 0.149411
Si Si4 0.000000 0.000000 0.276871
Si Si5 0.127963 0.095405 0.431945
Si Si6 0.732225 0.097701 0.171209
Si Si7 0.628103 0.347934 0.251781
Si Si8 0.182581 0.824417 0.935879
O O1 0.500000 0.781598 0.656537
O O2 0.363985 0.834901 0.609335
O O3 0.410310 0.675347 0.599549
O O4 0.363988 0.722012 0.697714
O O5 0.835984 0.621901 0.500000
O O6 0.843527 0.500000 0.576221
O O7 0.723940 0.603499 0.574943
O O8 0.500000 0.183496 0.147507
O O9 0.341663 0.162138 0.164635
O O10 0.411922 0.298774 0.198328
O O11 0.393552 0.275035 0.090011
O O12 0.929542 0.924181 0.272925
O O13 0.111186 0.098050 0.500000
O O14 0.103254 0.000000 0.410418
O O15 0.787995 0.119540 0.225876
O O16 0.786202 0.111401 0.113638
O O17 0.704987 0.000000 0.174745
O O18 0.250000 0.750000 0.938938
O O19 0.171548 0.860178 0.000000
#
# Coordination Sequence:
#
# PCOD9490776 Si02
#       8
#    16  16  16   4  16  16  16  16
#     4  12  24  35  56  86 117 143 180 234 293 349
#     4   9  20  41  63  82 109 151 199 236 273 333
#     4  10  20  37  57  84 121 156 195 248 300 359
#     4  12  20  40  68  76 106 158 192 256 296 344
#     4   9  20  37  56  79 109 146 185 226 274 332
#     4  10  21  36  59  85 117 159 203 243 293 363
#     4  11  23  40  58  82 111 149 198 243 299 355
#     4   8  16  32  54  80 112 154 200 245 288 331
#
# _framework density 19.212230000000002
#
# number of rings (size 3 to 8) (size 9 to 14) (size 15 to 20)
#    0.000    2.069    2.069    2.897    0.966    5.793 
#    0.000    3.448    0.000    1.655    0.000    7.724 
#    0.000    0.000    0.000    0.000    0.000    0.000 
#
# Total GULP energy -323141.110847 kJ/mol
# GULP energy per Si atom -5571.398463 kJ/mol
# Density = 1.916850 g / cm^3
# Si number density = 19.212230 Si / 1000 Ang^3
#
#
#
# Elastic Constant Matrix: (Units=GPa)
#
#
# Indices 1 2 3 4 5 6 
#
# 1 72.6896 25.6495 12.9766 0.0000 0.0000 0.0000
# 2 25.6495 70.5420 27.6926 0.0000 0.0000 0.0000
# 3 12.9766 27.6926 76.8937 0.0000 0.0000 0.0000
# 4 0.0000 0.0000 0.0000 14.7994 0.0000 0.0000
# 5 0.0000 0.0000 0.0000 0.0000 90.1009 0.0000
# 6 0.0000 0.0000 0.0000 0.0000 0.0000 22.9692
#
#
#
# Elastic Compliance Matrix: (Units=1/GPa)
#
#
# Indices 1 2 3 4 5 6 
#
# 1 0.015814 -0.005477 -0.000696 0.000000 0.000000 0.000000
# 2 -0.005477 0.018407 -0.005705 0.000000 0.000000 0.000000
# 3 -0.000696 -0.005705 0.015177 0.000000 0.000000 0.000000
# 4 0.000000 0.000000 0.000000 0.067570 0.000000 0.000000
# 5 0.000000 0.000000 0.000000 0.000000 0.011099 0.000000
# 6 0.000000 0.000000 0.000000 0.000000 0.000000 0.043537
#
#
# Mechanical properties :
#
#
# Convention : Reuss Voigt Hill
#
# Bulk Modulus (GPa) = 38.99842 39.19586 39.09714
# Shear Modulus (GPa) = 24.52107 35.82768 30.17437
#
# Velocity S-wave (km/s) = 3.57645 4.32306 3.96736
# Velocity P-wave (km/s) = 6.11534 6.73530 6.43280
#
# Compressibility (1/GPa) = 0.02564206
#
# Stress axis : x y z
#
# Youngs Moduli (GPa) = 63.23529 54.32764 65.88901
#
# Poissons Ratio (x) = 0.29753 0.04588
# Poissons Ratio (y) = 0.34632 0.37588
# Poissons Ratio (z) = 0.04404 0.30993
#
# Static dielectric constant tensor:
#      x y z
#    x 1.693820 0.000000 0.000000 
#    y 0.000000 1.649540 0.000000 
#    z 0.000000 0.000000 1.700580 
# 
# From -- ./inp_files/70579.got.cif
#   From: 2010.05.17/outbox.cif.g08.bks.cpg/sg65_36_cif.got.tgz:70579.got - 2010.06.03 17:01:31.
