data_PCOD9490428
_publ_section_title
;
Structure prediction by ZEFSAII (Michael W. Deem and Ramdas Pophale) SiO2 
 PCOD9490428
Probable space group: C M M M
;
_chemical_formula_sum "Si O2"
_cell_formula_units_Z 104
_cell_length_a 7.928340
_cell_length_b 28.173076
_cell_length_c 24.725697
_cell_angle_alpha 90.000000
_cell_angle_beta 90.000000
_cell_angle_gamma 90.000000
_cell_volume 5522.873246
_symmetry_space_group_name_H-M "C M M M"
_symmetry_group_IT_number 65
_symmetry_cell_setting 'orthorhombic'
loop_
_space_group_symop_operation_xyz
x,y,z
-x,-y,z
x,-y,-z
-x,y,-z
-x,-y,-z
x,y,-z
-x,y,z
x,-y,z
1/2+x,1/2+y,z
1/2-x,1/2-y,z
1/2+x,1/2-y,-z
1/2-x,1/2+y,-z
1/2-x,1/2-y,-z
1/2+x,1/2+y,-z
1/2-x,1/2+y,z
1/2+x,1/2-y,z
loop_
_atom_site_type_symbol
_atom_site_label
_atom_site_fract_x
_atom_site_fract_y
_atom_site_fract_z
Si Si1 0.206945 0.104948 0.061678
Si Si2 0.796353 0.054471 0.561224
Si Si3 0.194461 0.398594 0.669375
Si Si4 0.696706 0.448262 0.227578
Si Si5 0.807456 0.000000 0.065621
Si Si6 0.706094 0.353507 0.169128
Si Si7 0.798706 0.197152 0.274112
O O1 0.265473 0.051711 0.078962
O O2 0.258041 0.143274 0.106643
O O3 0.000000 0.102738 0.061022
O O4 0.260569 0.114168 0.000000
O O5 0.741774 0.066330 0.500000
O O6 0.734567 0.089287 0.607718
O O7 0.000000 0.054857 0.561744
O O8 0.742474 0.000000 0.572685
O O9 0.294074 0.433589 0.709584
O O10 0.232763 0.344815 0.687474
O O11 0.000000 0.408285 0.679997
O O12 0.500000 0.450684 0.212556
O O13 0.772753 0.500000 0.217717
O O14 0.765537 0.403263 0.195408
O O15 0.000000 0.000000 0.086566
O O16 0.814922 0.000000 0.000000
O O17 0.500000 0.352507 0.169241
O O18 0.761460 0.314162 0.212451
O O19 0.750000 0.250000 0.290257
O O20 0.000000 0.193057 0.274467
#
# Coordination Sequence:
#
# PCOD9490428 Si02
#       7
#    16  16  16  16   8  16  16
#     4   8  12  18  30  52  84 120 155 191 232 279
#     4   9  18  33  53  77 108 147 183 209 235 271
#     4  11  21  32  49  74 102 131 165 205 248 293
#     4   9  17  28  42  62  93 132 168 203 243 288
#     4   7  10  14  22  42  74 112 149 181 214 257
#     4   8  15  25  39  61  87 119 157 196 240 293
#     4  10  20  36  55  73  93 119 157 204 255 307
#
# _framework density 18.830777000000001
#
# number of rings (size 3 to 8) (size 9 to 14) (size 15 to 20)
#    0.000    3.000    0.000    4.615    1.077    2.769 
#    0.000    0.769    0.000    0.923    0.000    0.000 
#    0.000   14.769    0.000    5.538    0.000    6.769 
#
# Total GULP energy -289686.056537 kJ/mol
# GULP energy per Si atom -5570.885703 kJ/mol
# Density = 1.878792 g / cm^3
# Si number density = 18.830777 Si / 1000 Ang^3
#
#
#
# Elastic Constant Matrix: (Units=GPa)
#
#
# Indices 1 2 3 4 5 6 
#
# 1 21.3811 -0.8773 0.5087 0.0000 0.0000 0.0000
# 2 -0.8773 62.0010 30.3464 0.0000 0.0000 0.0000
# 3 0.5087 30.3464 109.4642 0.0000 0.0000 0.0000
# 4 0.0000 0.0000 0.0000 21.1419 0.0000 0.0000
# 5 0.0000 0.0000 0.0000 0.0000 -37.2766 0.0000
# 6 0.0000 0.0000 0.0000 0.0000 0.0000 9.1617
#
#
#
# Elastic Compliance Matrix: (Units=1/GPa)
#
#
# Indices 1 2 3 4 5 6 
#
# 1 0.046818 0.000890 -0.000464 0.000000 0.000000 0.000000
# 2 0.000890 0.018678 -0.005182 0.000000 0.000000 0.000000
# 3 -0.000464 -0.005182 0.010574 0.000000 0.000000 0.000000
# 4 0.000000 0.000000 0.000000 0.047300 0.000000 0.000000
# 5 0.000000 0.000000 0.000000 0.000000 -0.026826 0.000000
# 6 0.000000 0.000000 0.000000 0.000000 0.000000 0.109150
#
#
# Mechanical properties :
#
#
# Convention : Reuss Voigt Hill
#
# Bulk Modulus (GPa) = 15.02486 28.08910 21.55698
# Shear Modulus (GPa) = 21.06225 9.46329 15.26277
#
# Velocity S-wave (km/s) = 3.34803 2.24418 2.85006
# Velocity P-wave (km/s) = 4.78977 4.65447 4.72261
#
# Compressibility (1/GPa) = 0.06655638
#
# Stress axis : x y z
#
# Youngs Moduli (GPa) = 21.35943 53.53968 94.56989
#
# Poissons Ratio (x) = -0.04763 0.04390
# Poissons Ratio (y) = -0.01900 0.49007
# Poissons Ratio (z) = 0.00991 0.27745
#
# Static dielectric constant tensor:
#      x y z
#    x 1.708440 0.000000 0.000000 
#    y 0.000000 1.612820 0.000000 
#    z 0.000000 0.000000 1.687440 
# 
# From -- ./inp_files/68285.got.cif
#   From: 2010.05.17/outbox.cif.g08.bks.cpg/sg65_35_cif.got.tgz:68285.got - 2010.06.03 17:01:31.
