data_PCOD9490017
_publ_section_title
;
Structure prediction by ZEFSAII (Michael W. Deem and Ramdas Pophale) SiO2 
 PCOD9490017
Probable space group: C M M M
;
_chemical_formula_sum "Si O2"
_cell_formula_units_Z 88
_cell_length_a 8.593928
_cell_length_b 22.732005
_cell_length_c 24.402322
_cell_angle_alpha 90.000000
_cell_angle_beta 90.000000
_cell_angle_gamma 90.000000
_cell_volume 4767.169648
_symmetry_space_group_name_H-M "C M M M"
_symmetry_group_IT_number 65
_symmetry_cell_setting 'orthorhombic'
loop_
_space_group_symop_operation_xyz
x,y,z
-x,-y,z
x,-y,-z
-x,y,-z
-x,-y,-z
x,y,-z
-x,y,z
x,-y,z
1/2+x,1/2+y,z
1/2-x,1/2-y,z
1/2+x,1/2-y,-z
1/2-x,1/2+y,-z
1/2-x,1/2-y,-z
1/2+x,1/2+y,-z
1/2-x,1/2+y,z
1/2+x,1/2-y,z
loop_
_atom_site_type_symbol
_atom_site_label
_atom_site_fract_x
_atom_site_fract_y
_atom_site_fract_z
Si Si1 0.683997 0.103261 0.855169
Si Si2 0.186426 0.815146 0.941001
Si Si3 0.322222 0.569654 0.258761
Si Si4 0.186185 0.813945 0.564456
Si Si5 0.689979 0.000000 0.063080
Si Si6 0.184393 0.431806 0.622624
O O1 0.500000 0.095695 0.847642
O O2 0.728081 0.160777 0.888016
O O3 0.762447 0.099664 0.796227
O O4 0.739450 0.054502 0.899180
O O5 0.250000 0.750000 0.946097
O O6 0.000000 0.817225 0.934929
O O7 0.225519 0.845395 0.000000
O O8 0.500000 0.586603 0.271056
O O9 0.318401 0.500000 0.246741
O O10 0.221125 0.578211 0.313140
O O11 0.228859 0.816973 0.500000
O O12 0.250000 0.750000 0.585066
O O13 0.244852 0.875033 0.591653
O O14 0.000000 0.812277 0.569496
O O15 0.500000 0.000000 0.060786
O O16 0.744879 0.000000 0.000000
O O17 0.240462 0.500000 0.609777
O O18 0.000000 0.431810 0.613081
#
# Coordination Sequence:
#
# PCOD9490017 Si02
#       6
#    16  16  16  16   8  16
#     4  11  20  33  54  78 107 140 177 220 269 328
#     4  10  21  37  55  75 100 133 174 220 272 330
#     4  10  20  35  55  79 111 148 187 230 279 332
#     4  10  21  38  61  89 123 162 201 242 293 350
#     4   9  18  30  47  75 107 137 170 211 262 321
#     4  10  21  37  59  87 119 156 201 247 292 345
#
# _framework density 18.459592000000001
#
# number of rings (size 3 to 8) (size 9 to 14) (size 15 to 20)
#    0.000    1.909    0.909    3.273    0.000    5.091 
#    0.000    2.727    0.000    2.182    0.000    0.000 
#    0.000    0.000    0.000    0.000    0.000    0.000 
#
# Total GULP energy -245124.121084 kJ/mol
# GULP energy per Si atom -5571.002752 kJ/mol
# Density = 1.841758 g / cm^3
# Si number density = 18.459592 Si / 1000 Ang^3
#
#
#
# Elastic Constant Matrix: (Units=GPa)
#
#
# Indices 1 2 3 4 5 6 
#
# 1 18.5278 13.4333 7.6059 0.0000 0.0000 0.0000
# 2 13.4333 110.7828 56.1751 0.0000 0.0000 0.0000
# 3 7.6059 56.1751 81.1729 0.0000 0.0000 0.0000
# 4 0.0000 0.0000 0.0000 -28.2020 0.0000 0.0000
# 5 0.0000 0.0000 0.0000 0.0000 28.4962 0.0000
# 6 0.0000 0.0000 0.0000 0.0000 0.0000 26.8386
#
#
#
# Elastic Compliance Matrix: (Units=1/GPa)
#
#
# Indices 1 2 3 4 5 6 
#
# 1 0.059218 -0.006728 -0.000893 0.000000 0.000000 0.000000
# 2 -0.006728 0.014671 -0.009523 0.000000 0.000000 0.000000
# 3 -0.000893 -0.009523 0.018993 0.000000 0.000000 0.000000
# 4 0.000000 0.000000 0.000000 -0.035458 0.000000 0.000000
# 5 0.000000 0.000000 0.000000 0.000000 0.035092 0.000000
# 6 0.000000 0.000000 0.000000 0.000000 0.000000 0.037260
#
#
# Mechanical properties :
#
#
# Convention : Reuss Voigt Hill
#
# Bulk Modulus (GPa) = 17.06623 40.54578 28.80600
# Shear Modulus (GPa) = 27.23404 14.31118 20.77261
#
# Velocity S-wave (km/s) = 3.84517 2.78739 3.35819
# Velocity P-wave (km/s) = 5.38322 5.68961 5.53854
#
# Compressibility (1/GPa) = 0.05859526
#
# Stress axis : x y z
#
# Youngs Moduli (GPa) = 16.88690 68.16084 52.65064
#
# Poissons Ratio (x) = 0.45858 0.04700
# Poissons Ratio (y) = 0.11361 0.50137
# Poissons Ratio (z) = 0.01507 0.64907
#
# Static dielectric constant tensor:
#      x y z
#    x 1.641470 0.000000 0.000000 
#    y 0.000000 1.692460 0.000000 
#    z 0.000000 0.000000 1.622410 
# 
# From -- ./inp_files/67552.got.cif
#   From: 2010.05.17/outbox.cif.g08.bks.cpg/sg65_34_cif.got.tgz:67552.got - 2010.06.03 17:01:31.
