data_PCOD9490180
_publ_section_title
;
Structure prediction by ZEFSAII (Michael W. Deem and Ramdas Pophale) SiO2 
 PCOD9490180
Probable space group: C M M M
;
_chemical_formula_sum "Si O2"
_cell_formula_units_Z 88
_cell_length_a 20.764792
_cell_length_b 15.818758
_cell_length_c 13.203791
_cell_angle_alpha 90.000000
_cell_angle_beta 90.000000
_cell_angle_gamma 90.000000
_cell_volume 4337.091740
_symmetry_space_group_name_H-M "C M M M"
_symmetry_group_IT_number 65
_symmetry_cell_setting 'orthorhombic'
loop_
_space_group_symop_operation_xyz
x,y,z
-x,-y,z
x,-y,-z
-x,y,-z
-x,-y,-z
x,y,-z
-x,y,z
x,-y,z
1/2+x,1/2+y,z
1/2-x,1/2-y,z
1/2+x,1/2-y,-z
1/2-x,1/2+y,-z
1/2-x,1/2-y,-z
1/2+x,1/2+y,-z
1/2-x,1/2+y,z
1/2+x,1/2-y,z
loop_
_atom_site_type_symbol
_atom_site_label
_atom_site_fract_x
_atom_site_fract_y
_atom_site_fract_z
Si Si1 0.113941 0.690900 0.608200
Si Si2 0.250000 0.750000 0.322486
Si Si3 0.926681 0.878742 0.615726
Si Si4 0.181088 0.902007 0.213242
Si Si5 0.926111 0.601486 0.189488
Si Si6 0.289473 0.340223 0.000000
Si Si7 0.650879 0.097380 0.000000
O O1 0.102363 0.648936 0.500000
O O2 0.187477 0.722783 0.615553
O O3 0.073926 0.777127 0.614889
O O4 0.096698 0.634945 0.703219
O O5 0.230985 0.833436 0.258693
O O6 0.906274 0.903597 0.500000
O O7 0.878361 0.902810 0.706657
O O8 0.000000 0.907200 0.631586
O O9 0.203506 0.000000 0.205294
O O10 0.170378 0.863104 0.100899
O O11 0.923305 0.500000 0.191916
O O12 0.879666 0.635755 0.101211
O O13 0.000000 0.625986 0.168810
O O14 0.250000 0.250000 0.000000
O O15 0.227060 0.400444 0.000000
O O16 0.629462 0.000000 0.000000
#
# Coordination Sequence:
#
# PCOD9490180 Si02
#       7
#    16   8  16  16  16   8   8
#     4  10  20  35  56  83 118 159 197 245 308 367
#     4  10  21  39  60  86 122 159 207 254 300 362
#     4   9  20  40  64  90 122 163 210 256 306 367
#     4  11  23  40  64  93 124 162 207 258 309 365
#     4  10  21  36  56  84 116 152 199 251 302 363
#     4  12  24  41  62  89 128 164 204 250 313 374
#     4  10  21  38  60  82 112 157 203 249 301 358
#
# _framework density 20.290094
#
# number of rings (size 3 to 8) (size 9 to 14) (size 15 to 20)
#    0.000    1.818    0.909    3.000    2.545    6.182 
#    0.000    2.273    0.000    1.091    0.000    0.000 
#    0.000    0.000    0.000    0.000    0.000    0.000 
#
# Total GULP energy -245365.961977 kJ/mol
# GULP energy per Si atom -5576.499136 kJ/mol
# Density = 2.024391 g / cm^3
# Si number density = 20.290094 Si / 1000 Ang^3
#
#
#
# Elastic Constant Matrix: (Units=GPa)
#
#
# Indices 1 2 3 4 5 6 
#
# 1 86.1700 20.5850 44.7034 0.0000 0.0000 0.0000
# 2 20.5850 75.6679 38.5538 0.0000 0.0000 0.0000
# 3 44.7034 38.5538 173.3424 0.0000 0.0000 0.0000
# 4 0.0000 0.0000 0.0000 62.6561 0.0000 0.0000
# 5 0.0000 0.0000 0.0000 0.0000 15.0427 0.0000
# 6 0.0000 0.0000 0.0000 0.0000 0.0000 8.2298
#
#
#
# Elastic Compliance Matrix: (Units=1/GPa)
#
#
# Indices 1 2 3 4 5 6 
#
# 1 0.013707 -0.002174 -0.003051 0.000000 0.000000 0.000000
# 2 -0.002174 0.015250 -0.002831 0.000000 0.000000 0.000000
# 3 -0.003051 -0.002831 0.007186 0.000000 0.000000 0.000000
# 4 0.000000 0.000000 0.000000 0.015960 0.000000 0.000000
# 5 0.000000 0.000000 0.000000 0.000000 0.066477 0.000000
# 6 0.000000 0.000000 0.000000 0.000000 0.000000 0.121510
#
#
# Mechanical properties :
#
#
# Convention : Reuss Voigt Hill
#
# Bulk Modulus (GPa) = 49.92736 60.31831 55.12284
# Shear Modulus (GPa) = 19.02010 32.60825 25.81417
#
# Velocity S-wave (km/s) = 3.06503 4.01322 3.57074
# Velocity P-wave (km/s) = 6.09804 7.16010 6.65031
#
# Compressibility (1/GPa) = 0.02002910
#
# Stress axis : x y z
#
# Youngs Moduli (GPa) = 72.95328 65.57566 139.16888
#
# Poissons Ratio (x) = 0.14258 0.42466
# Poissons Ratio (y) = 0.15862 0.39399
# Poissons Ratio (z) = 0.22261 0.18564
#
# Static dielectric constant tensor:
#      x y z
#    x 1.715860 0.000000 0.000000 
#    y 0.000000 1.745680 0.000000 
#    z 0.000000 0.000000 1.749680 
# 
# From -- ./inp_files/28775.got.cif
#   From: 2010.05.17/outbox.cif.g08.bks.cpg/sg65_15_cif.got.tgz:28775.got - 2010.06.03 17:01:31.
