data_PCOD9490054
_publ_section_title
;
Structure prediction by ZEFSAII (Michael W. Deem and Ramdas Pophale) SiO2 
 PCOD9490054
Probable space group: C M M M
;
_chemical_formula_sum "Si O2"
_cell_formula_units_Z 64
_cell_length_a 9.607531
_cell_length_b 21.039803
_cell_length_c 16.927188
_cell_angle_alpha 90.000000
_cell_angle_beta 90.000000
_cell_angle_gamma 90.000000
_cell_volume 3421.671254
_symmetry_space_group_name_H-M "C M M M"
_symmetry_group_IT_number 65
_symmetry_cell_setting 'orthorhombic'
loop_
_space_group_symop_operation_xyz
x,y,z
-x,-y,z
x,-y,-z
-x,y,-z
-x,-y,-z
x,y,-z
-x,y,z
x,-y,z
1/2+x,1/2+y,z
1/2-x,1/2-y,z
1/2+x,1/2-y,-z
1/2-x,1/2+y,-z
1/2-x,1/2-y,-z
1/2+x,1/2+y,-z
1/2-x,1/2+y,z
1/2+x,1/2-y,z
loop_
_atom_site_type_symbol
_atom_site_label
_atom_site_fract_x
_atom_site_fract_y
_atom_site_fract_z
Si Si1 0.666085 0.500000 0.405591
Si Si2 0.352910 0.806011 0.500000
Si Si3 0.166557 0.683908 0.178864
Si Si4 0.343005 0.112646 0.657718
Si Si5 0.162232 0.072770 0.095285
O O1 0.500000 0.500000 0.404400
O O2 0.708757 0.500000 0.500000
O O3 0.729188 0.440650 0.358234
O O4 0.500000 0.772769 0.500000
O O5 0.250000 0.750000 0.500000
O O6 0.342478 0.848113 0.422799
O O7 0.250000 0.750000 0.166972
O O8 0.182556 0.659150 0.268912
O O9 0.236982 0.627049 0.128560
O O10 0.000000 0.691078 0.162911
O O11 0.500000 0.085475 0.668253
O O12 0.000000 0.084199 0.118304
O O13 0.198647 0.000000 0.120144
O O14 0.167389 0.074091 0.000000
#
# Coordination Sequence:
#
# PCOD9490054 Si02
#       5
#     8   8  16  16  16
#     4  11  23  37  57  87 114 147 198 251 299 350
#     4  10  20  35  56  77 105 150 194 238 289 342
#     4  11  24  40  61  91 124 160 203 249 300 358
#     4  10  22  39  58  81 115 157 196 239 296 356
#     4   9  20  41  67  93 123 160 199 242 298 360
#
# _framework density 18.704308999999999
#
# number of rings (size 3 to 8) (size 9 to 14) (size 15 to 20)
#    0.000    1.875    1.250    2.625    1.750    5.000 
#    0.000    1.250    0.000    0.000    0.000    0.000 
#    0.000    0.000    0.000    0.000    0.000    0.000 
#
# Total GULP energy -178441.183134 kJ/mol
# GULP energy per Si atom -5576.286973 kJ/mol
# Density = 1.866174 g / cm^3
# Si number density = 18.704309 Si / 1000 Ang^3
#
#
#
# Elastic Constant Matrix: (Units=GPa)
#
#
# Indices 1 2 3 4 5 6 
#
# 1 140.3482 105.8853 36.3507 0.0000 0.0000 0.0000
# 2 105.8853 140.1128 37.8193 0.0000 0.0000 0.0000
# 3 36.3507 37.8193 56.3503 0.0000 0.0000 0.0000
# 4 0.0000 0.0000 0.0000 149.7482 0.0000 0.0000
# 5 0.0000 0.0000 0.0000 0.0000 33.9272 0.0000
# 6 0.0000 0.0000 0.0000 0.0000 0.0000 40.0216
#
#
#
# Elastic Compliance Matrix: (Units=1/GPa)
#
#
# Indices 1 2 3 4 5 6 
#
# 1 0.016943 -0.012034 -0.002853 0.000000 0.000000 0.000000
# 2 -0.012034 0.017263 -0.003823 0.000000 0.000000 0.000000
# 3 -0.002853 -0.003823 0.022153 0.000000 0.000000 0.000000
# 4 0.000000 0.000000 0.000000 0.006678 0.000000 0.000000
# 5 0.000000 0.000000 0.000000 0.000000 0.029475 0.000000
# 6 0.000000 0.000000 0.000000 0.000000 0.000000 0.024986
#
#
# Mechanical properties :
#
#
# Convention : Reuss Voigt Hill
#
# Bulk Modulus (GPa) = 52.80334 77.43580 65.11957
# Shear Modulus (GPa) = 31.01113 55.18978 43.10045
#
# Velocity S-wave (km/s) = 4.07623 5.43788 4.80553
# Velocity P-wave (km/s) = 7.10254 8.99540 8.10442
#
# Compressibility (1/GPa) = 0.01893820
#
# Stress axis : x y z
#
# Youngs Moduli (GPa) = 59.02065 57.92581 45.14137
#
# Poissons Ratio (x) = 0.69709 0.12879
# Poissons Ratio (y) = 0.71026 0.17259
# Poissons Ratio (z) = 0.16839 0.22147
#
# Static dielectric constant tensor:
#      x y z
#    x 1.659300 0.000000 0.000000 
#    y 0.000000 1.661100 0.000000 
#    z 0.000000 0.000000 1.620090 
# 
# From -- ./inp_files/36068.got.cif
#   From: 2010.05.17/outbox.cif.g08.bks.cpg/sg65_19_cif.got.tgz:36068.got - 2010.06.03 17:01:31.
