data_PCOD9490263
_publ_section_title
;
Structure prediction by ZEFSAII (Michael W. Deem and Ramdas Pophale) SiO2 
 PCOD9490263
Probable space group: C M M M
;
_chemical_formula_sum "Si O2"
_cell_formula_units_Z 74
_cell_length_a 15.813008
_cell_length_b 28.308063
_cell_length_c 7.874730
_cell_angle_alpha 90.000000
_cell_angle_beta 90.000000
_cell_angle_gamma 90.000000
_cell_volume 3525.009699
_symmetry_space_group_name_H-M "C M M M"
_symmetry_group_IT_number 65
_symmetry_cell_setting 'orthorhombic'
loop_
_space_group_symop_operation_xyz
x,y,z
-x,-y,z
x,-y,-z
-x,y,-z
-x,-y,-z
x,y,-z
-x,y,z
x,-y,z
1/2+x,1/2+y,z
1/2-x,1/2-y,z
1/2+x,1/2-y,-z
1/2-x,1/2+y,-z
1/2-x,1/2-y,-z
1/2+x,1/2+y,-z
1/2-x,1/2+y,z
1/2+x,1/2-y,z
loop_
_atom_site_type_symbol
_atom_site_label
_atom_site_fract_x
_atom_site_fract_y
_atom_site_fract_z
Si Si1 0.000000 0.927114 0.190126
Si Si2 0.500000 0.500000 0.500000
Si Si3 0.000000 0.288926 0.708747
Si Si4 0.322611 0.373484 0.802668
Si Si5 0.821461 0.554139 0.796326
Si Si6 0.163196 0.767426 0.300712
Si Si7 0.500000 0.898701 0.296363
O O1 0.913792 0.897704 0.200491
O O2 0.000000 0.960323 0.350192
O O3 0.000000 0.948598 0.000000
O O4 0.918190 0.259763 0.768787
O O5 0.000000 0.343839 0.761981
O O6 0.000000 0.289092 0.500000
O O7 0.250557 0.409230 0.733185
O O8 0.334304 0.323609 0.712824
O O9 0.300532 0.363814 0.000000
O O10 0.812492 0.500000 0.731503
O O11 0.914711 0.574632 0.760622
O O12 0.810617 0.551698 0.000000
O O13 0.163855 0.754633 0.500000
O O14 0.250000 0.750000 0.220086
O O15 0.500000 0.898398 0.500000
#
# Coordination Sequence:
#
# PCOD9490263 Si02
#       7
#     8   2   8  16  16  16   8
#     4  10  24  44  64  93 132 164 210 264 312 377
#     4  12  26  40  68  98 116 174 214 256 324 374
#     4   9  19  35  56  80 113 153 188 231 302 362
#     4  10  22  40  62  88 122 161 201 255 308 361
#     4  10  22  40  61  83 115 161 200 236 301 367
#     4  10  20  35  57  84 116 155 199 248 300 365
#     4  11  22  39  60  88 118 150 195 255 301 347
#
# _framework density 20.992851000000002
#
# number of rings (size 3 to 8) (size 9 to 14) (size 15 to 20)
#    0.000    1.946    0.000    2.757    3.027    4.757 
#    0.000    2.162    0.000    0.000    0.000    0.000 
#    0.000    0.000    0.000    0.000    0.000    0.000 
#
# Total GULP energy -206255.763201 kJ/mol
# GULP energy per Si atom -5574.480087 kJ/mol
# Density = 2.094507 g / cm^3
# Si number density = 20.992851 Si / 1000 Ang^3
#
#
#
# Elastic Constant Matrix: (Units=GPa)
#
#
# Indices 1 2 3 4 5 6 
#
# 1 128.9949 49.8794 0.2651 0.0000 0.0000 0.0000
# 2 49.8794 123.6272 4.7729 0.0000 0.0000 0.0000
# 3 0.2651 4.7729 48.6776 0.0000 0.0000 0.0000
# 4 0.0000 0.0000 0.0000 13.0138 0.0000 0.0000
# 5 0.0000 0.0000 0.0000 0.0000 -11.9265 0.0000
# 6 0.0000 0.0000 0.0000 0.0000 0.0000 34.6635
#
#
#
# Elastic Compliance Matrix: (Units=1/GPa)
#
#
# Indices 1 2 3 4 5 6 
#
# 1 0.009190 -0.003720 0.000315 0.000000 0.000000 0.000000
# 2 -0.003720 0.009625 -0.000924 0.000000 0.000000 0.000000
# 3 0.000315 -0.000924 0.020632 0.000000 0.000000 0.000000
# 4 0.000000 0.000000 0.000000 0.076842 0.000000 0.000000
# 5 0.000000 0.000000 0.000000 0.000000 -0.083847 0.000000
# 6 0.000000 0.000000 0.000000 0.000000 0.000000 0.028849
#
#
# Mechanical properties :
#
#
# Convention : Reuss Voigt Hill
#
# Bulk Modulus (GPa) = 32.47815 45.68161 39.07988
# Shear Modulus (GPa) = 62.33467 23.57565 42.95516
#
# Velocity S-wave (km/s) = 5.45507 3.35480 4.52838
# Velocity P-wave (km/s) = 7.42843 6.06746 6.78217
#
# Compressibility (1/GPa) = 0.03078993
#
# Stress axis : x y z
#
# Youngs Moduli (GPa) = 108.81336 103.89185 48.46802
#
# Poissons Ratio (x) = 0.38648 -0.01525
# Poissons Ratio (y) = 0.40479 0.04476
# Poissons Ratio (z) = -0.03424 0.09595
#
# Static dielectric constant tensor:
#      x y z
#    x 1.723320 0.000000 0.000000 
#    y 0.000000 1.681290 0.000000 
#    z 0.000000 0.000000 1.768910 
# 
# From -- ./inp_files/7460.got.cif
#   From: 2010.05.17/outbox.cif.g08.bks.cpg/sg65_4_cif.got.tgz:7460.got - 2010.06.03 17:01:31.
