data_PCOD9490333
_publ_section_title
;
Structure prediction by ZEFSAII (Michael W. Deem and Ramdas Pophale) SiO2 
 PCOD9490333
Probable space group: C M M M
;
_chemical_formula_sum "Si O2"
_cell_formula_units_Z 104
_cell_length_a 30.110187
_cell_length_b 8.927978
_cell_length_c 20.937759
_cell_angle_alpha 90.000000
_cell_angle_beta 90.000000
_cell_angle_gamma 90.000000
_cell_volume 5628.553012
_symmetry_space_group_name_H-M "C M M M"
_symmetry_group_IT_number 65
_symmetry_cell_setting 'orthorhombic'
loop_
_space_group_symop_operation_xyz
x,y,z
-x,-y,z
x,-y,-z
-x,y,-z
-x,-y,-z
x,y,-z
-x,y,z
x,-y,z
1/2+x,1/2+y,z
1/2-x,1/2-y,z
1/2+x,1/2-y,-z
1/2-x,1/2+y,-z
1/2-x,1/2-y,-z
1/2+x,1/2+y,-z
1/2-x,1/2+y,z
1/2+x,1/2-y,z
loop_
_atom_site_type_symbol
_atom_site_label
_atom_site_fract_x
_atom_site_fract_y
_atom_site_fract_z
Si Si1 0.608865 0.678915 0.927452
Si Si2 0.704525 0.828534 0.091540
Si Si3 0.794600 0.329173 0.755153
Si Si4 0.092275 0.179723 0.428017
Si Si5 0.617000 0.678976 0.291345
Si Si6 0.447377 0.820022 0.811078
Si Si7 0.000000 0.666924 0.576659
O O1 0.609520 0.500000 0.917040
O O2 0.659268 0.741004 0.924049
O O3 0.578647 0.754453 0.872801
O O4 0.592418 0.707909 0.000000
O O5 0.750000 0.750000 0.069589
O O6 0.707704 0.834322 0.168269
O O7 0.701647 0.000000 0.069568
O O8 0.798693 0.500000 0.731801
O O9 0.750000 0.250000 0.730906
O O10 0.837526 0.232694 0.739570
O O11 0.103881 0.233843 0.500000
O O12 0.120413 0.222436 0.366196
O O13 0.043922 0.241160 0.409519
O O14 0.090964 0.000000 0.431171
O O15 0.611721 0.500000 0.287050
O O16 0.577029 0.754985 0.251802
O O17 0.500000 0.783142 0.812348
O O18 0.442822 0.000000 0.811199
O O19 0.000000 0.500000 0.605116
O O20 0.000000 0.651742 0.500000
#
# Coordination Sequence:
#
# PCOD9490333 Si02
#       7
#    16  16  16  16  16  16   8
#     4  11  24  41  62  87 116 151 192 239 288 341
#     4  10  20  35  58  86 118 154 188 230 285 343
#     4  10  20  35  58  87 118 150 187 233 285 341
#     4   9  19  35  53  77 112 153 194 234 283 344
#     4  11  22  36  60  88 116 152 192 238 289 339
#     4  11  25  43  61  84 115 152 194 241 289 339
#     4   9  17  29  47  73 105 143 186 231 278 329
#
# _framework density 18.477218000000001
#
# number of rings (size 3 to 8) (size 9 to 14) (size 15 to 20)
#    0.000    1.769    1.538    2.538    1.077    6.462 
#    0.000    1.538    0.000    0.462    0.000    0.000 
#    0.000    0.000    0.000    0.000    0.000    0.000 
#
# Total GULP energy -290107.221327 kJ/mol
# GULP energy per Si atom -5578.985026 kJ/mol
# Density = 1.843516 g / cm^3
# Si number density = 18.477218 Si / 1000 Ang^3
#
#
#
# Elastic Constant Matrix: (Units=GPa)
#
#
# Indices 1 2 3 4 5 6 
#
# 1 113.7380 41.3197 50.6853 0.0000 0.0000 0.0000
# 2 41.3197 66.5294 47.2489 0.0000 0.0000 0.0000
# 3 50.6853 47.2489 111.6695 0.0000 0.0000 0.0000
# 4 0.0000 0.0000 0.0000 1.5745 0.0000 0.0000
# 5 0.0000 0.0000 0.0000 0.0000 -33.4925 0.0000
# 6 0.0000 0.0000 0.0000 0.0000 0.0000 7.1053
#
#
#
# Elastic Compliance Matrix: (Units=1/GPa)
#
#
# Indices 1 2 3 4 5 6 
#
# 1 0.012159 -0.005192 -0.003322 0.000000 0.000000 0.000000
# 2 -0.005192 0.023705 -0.007673 0.000000 0.000000 0.000000
# 3 -0.003322 -0.007673 0.013709 0.000000 0.000000 0.000000
# 4 0.000000 0.000000 0.000000 0.635128 0.000000 0.000000
# 5 0.000000 0.000000 0.000000 0.000000 -0.029857 0.000000
# 6 0.000000 0.000000 0.000000 0.000000 0.000000 0.140741
#
#
# Mechanical properties :
#
#
# Convention : Reuss Voigt Hill
#
# Bulk Modulus (GPa) = 58.14421 63.38274 60.76348
# Shear Modulus (GPa) = 5.99742 5.21633 5.60687
#
# Velocity S-wave (km/s) = 1.80358 1.68204 1.74387
# Velocity P-wave (km/s) = 5.98945 6.17657 6.08373
#
# Compressibility (1/GPa) = 0.01719862
#
# Stress axis : x y z
#
# Youngs Moduli (GPa) = 82.24538 42.18453 72.94293
#
# Poissons Ratio (x) = 0.21904 0.24229
# Poissons Ratio (y) = 0.42705 0.55971
# Poissons Ratio (z) = 0.27319 0.32369
#
# Static dielectric constant tensor:
#      x y z
#    x 1.606410 0.000000 0.000000 
#    y 0.000000 1.635650 0.000000 
#    z 0.000000 0.000000 1.668260 
# 
# From -- ./inp_files/65909.got.cif
#   From: 2010.05.17/outbox.cif.g08.bks.cpg/sg65_33_cif.got.tgz:65909.got - 2010.06.03 17:01:31.
