data_PCOD9490543
_publ_section_title
;
Structure prediction by ZEFSAII (Michael W. Deem and Ramdas Pophale) SiO2 
 PCOD9490543
Probable space group: C M M M
;
_chemical_formula_sum "Si O2"
_cell_formula_units_Z 64
_cell_length_a 8.506599
_cell_length_b 15.045257
_cell_length_c 27.163629
_cell_angle_alpha 90.000000
_cell_angle_beta 90.000000
_cell_angle_gamma 90.000000
_cell_volume 3476.509029
_symmetry_space_group_name_H-M "C M M M"
_symmetry_group_IT_number 65
_symmetry_cell_setting 'orthorhombic'
loop_
_space_group_symop_operation_xyz
x,y,z
-x,-y,z
x,-y,-z
-x,y,-z
-x,-y,-z
x,y,-z
-x,y,z
x,-y,z
1/2+x,1/2+y,z
1/2-x,1/2-y,z
1/2+x,1/2-y,-z
1/2-x,1/2+y,-z
1/2-x,1/2-y,-z
1/2+x,1/2+y,-z
1/2-x,1/2+y,z
1/2+x,1/2-y,z
loop_
_atom_site_type_symbol
_atom_site_label
_atom_site_fract_x
_atom_site_fract_y
_atom_site_fract_z
Si Si1 0.808039 0.500000 0.187348
Si Si2 0.310131 0.000000 0.926209
Si Si3 0.688416 0.351869 0.000000
Si Si4 0.189578 0.349244 0.261527
Si Si5 0.811511 0.349786 0.627595
Si Si6 0.312013 0.500000 0.556324
O O1 0.759690 0.500000 0.130691
O O2 0.755837 0.585153 0.218797
O O3 0.000000 0.500000 0.187230
O O4 0.500000 0.000000 0.929296
O O5 0.248108 0.088201 0.954003
O O6 0.750000 0.250000 0.000000
O O7 0.500000 0.350055 0.000000
O O8 0.250000 0.250000 0.254021
O O9 0.236691 0.378362 0.316839
O O10 0.000000 0.348574 0.260909
O O11 0.750000 0.250000 0.620659
O O12 0.746175 0.414864 0.586506
O O13 0.000000 0.350531 0.625695
O O14 0.500000 0.500000 0.555595
O O15 0.254516 0.500000 0.500000
#
# Coordination Sequence:
#
# PCOD9490543 Si02
#       6
#     8   8   8  16  16   8
#     4   9  18  33  54  79 113 147 173 211 263 316
#     4  10  20  36  57  84 114 144 180 223 271 322
#     4  11  22  39  60  80 106 143 186 231 274 320
#     4   9  18  34  54  79 108 141 178 214 258 313
#     4  10  20  36  59  82 108 142 180 221 265 318
#     4  11  24  39  55  78 107 138 177 225 275 326
#
# _framework density 18.409272999999999
#
# number of rings (size 3 to 8) (size 9 to 14) (size 15 to 20)
#    0.000    2.125    0.000    4.125    0.000    5.500 
#    0.000    5.625    0.000    0.000    0.000    0.000 
#    0.000    0.000    0.000    0.000    0.000    0.000 
#
# Total GULP energy -178623.578290 kJ/mol
# GULP energy per Si atom -5581.986822 kJ/mol
# Density = 1.836737 g / cm^3
# Si number density = 18.409273 Si / 1000 Ang^3
#
#
#
# Elastic Constant Matrix: (Units=GPa)
#
#
# Indices 1 2 3 4 5 6 
#
# 1 57.6351 37.3920 45.6981 0.0000 0.0000 0.0000
# 2 37.3920 143.8275 119.8247 0.0000 0.0000 0.0000
# 3 45.6981 119.8247 213.1597 0.0000 0.0000 0.0000
# 4 0.0000 0.0000 0.0000 53.6778 0.0000 0.0000
# 5 0.0000 0.0000 0.0000 0.0000 20.0867 0.0000
# 6 0.0000 0.0000 0.0000 0.0000 0.0000 34.4881
#
#
#
# Elastic Compliance Matrix: (Units=1/GPa)
#
#
# Indices 1 2 3 4 5 6 
#
# 1 0.021717 -0.003324 -0.002787 0.000000 0.000000 0.000000
# 2 -0.003324 0.013586 -0.006924 0.000000 0.000000 0.000000
# 3 -0.002787 -0.006924 0.009181 0.000000 0.000000 0.000000
# 4 0.000000 0.000000 0.000000 0.018630 0.000000 0.000000
# 5 0.000000 0.000000 0.000000 0.000000 0.049784 0.000000
# 6 0.000000 0.000000 0.000000 0.000000 0.000000 0.028995
#
#
# Mechanical properties :
#
#
# Convention : Reuss Voigt Hill
#
# Bulk Modulus (GPa) = 54.30973 91.16132 72.73553
# Shear Modulus (GPa) = 28.71876 35.76437 32.24156
#
# Velocity S-wave (km/s) = 3.95399 4.41243 4.18948
# Velocity P-wave (km/s) = 7.10005 8.69403 7.93715
#
# Compressibility (1/GPa) = 0.01841291
#
# Stress axis : x y z
#
# Youngs Moduli (GPa) = 46.04695 73.60656 108.91601
#
# Poissons Ratio (x) = 0.24465 0.30359
# Poissons Ratio (y) = 0.15305 0.75419
# Poissons Ratio (z) = 0.12835 0.50969
#
# Static dielectric constant tensor:
#      x y z
#    x 1.624570 0.000000 0.000000 
#    y 0.000000 1.602960 0.000000 
#    z 0.000000 0.000000 1.635910 
# 
# From -- ./inp_files/66864.got.cif
#   From: 2010.05.17/outbox.cif.g08.bks.cpg/sg65_34_cif.got.tgz:66864.got - 2010.06.03 17:01:31.
