data_PCOD9490497
_publ_section_title
;
Structure prediction by ZEFSAII (Michael W. Deem and Ramdas Pophale) SiO2 
 PCOD9490497
Probable space group: C M M M
;
_chemical_formula_sum "Si O2"
_cell_formula_units_Z 64
_cell_length_a 8.377754
_cell_length_b 15.177594
_cell_length_c 27.224864
_cell_angle_alpha 90.000000
_cell_angle_beta 90.000000
_cell_angle_gamma 90.000000
_cell_volume 3461.754409
_symmetry_space_group_name_H-M "C M M M"
_symmetry_group_IT_number 65
_symmetry_cell_setting 'orthorhombic'
loop_
_space_group_symop_operation_xyz
x,y,z
-x,-y,z
x,-y,-z
-x,y,-z
-x,-y,-z
x,y,-z
-x,y,z
x,-y,z
1/2+x,1/2+y,z
1/2-x,1/2-y,z
1/2+x,1/2-y,-z
1/2-x,1/2+y,-z
1/2-x,1/2-y,-z
1/2+x,1/2+y,-z
1/2-x,1/2+y,z
1/2+x,1/2-y,z
loop_
_atom_site_type_symbol
_atom_site_label
_atom_site_fract_x
_atom_site_fract_y
_atom_site_fract_z
Si Si1 0.804541 0.500000 0.188792
Si Si2 0.305316 0.000000 0.923628
Si Si3 0.192657 0.351064 0.000000
Si Si4 0.192549 0.348921 0.262168
Si Si5 0.808822 0.349270 0.627121
Si Si6 0.309490 0.500000 0.555880
O O1 0.750674 0.500000 0.132548
O O2 0.752601 0.584677 0.220137
O O3 0.000000 0.500000 0.187987
O O4 0.500000 0.000000 0.923913
O O5 0.256929 0.088154 0.953445
O O6 0.250000 0.250000 0.000000
O O7 0.000000 0.348438 0.000000
O O8 0.250000 0.250000 0.253514
O O9 0.243801 0.375509 0.317441
O O10 0.000000 0.349874 0.262153
O O11 0.750000 0.250000 0.618839
O O12 0.745944 0.415272 0.586355
O O13 0.000000 0.350926 0.626351
O O14 0.500000 0.500000 0.554081
O O15 0.247584 0.500000 0.500000
#
# Coordination Sequence:
#
# PCOD9490497 Si02
#       6
#     8   8   8  16  16   8
#     4   9  16  29  49  71  99 133 164 198 241 292
#     4   8  16  30  47  68  96 131 167 199 241 300
#     4   9  17  31  50  70  92 125 169 209 246 290
#     4   9  18  32  51  75 100 128 164 201 241 293
#     4  10  20  36  57  79 104 135 170 208 251 302
#     4  11  24  39  55  78 105 133 169 212 257 304
#
# _framework density 18.487736999999999
#
# number of rings (size 3 to 8) (size 9 to 14) (size 15 to 20)
#    0.000    2.625    0.000    2.625    0.000    5.500 
#    0.000    1.875    0.000    1.500    0.000    0.000 
#    0.000    0.000    0.000    0.000    0.000    0.000 
#
# Total GULP energy -178490.447863 kJ/mol
# GULP energy per Si atom -5577.826496 kJ/mol
# Density = 1.844566 g / cm^3
# Si number density = 18.487737 Si / 1000 Ang^3
#
#
#
# Elastic Constant Matrix: (Units=GPa)
#
#
# Indices 1 2 3 4 5 6 
#
# 1 16.3142 19.4136 28.1780 0.0000 0.0000 0.0000
# 2 19.4136 149.6599 129.9450 0.0000 0.0000 0.0000
# 3 28.1780 129.9450 213.6929 0.0000 0.0000 0.0000
# 4 0.0000 0.0000 0.0000 90.1381 0.0000 0.0000
# 5 0.0000 0.0000 0.0000 0.0000 13.0462 0.0000
# 6 0.0000 0.0000 0.0000 0.0000 0.0000 33.0283
#
#
#
# Elastic Compliance Matrix: (Units=1/GPa)
#
#
# Indices 1 2 3 4 5 6 
#
# 1 0.079840 -0.002575 -0.008962 0.000000 0.000000 0.000000
# 2 -0.002575 0.014239 -0.008319 0.000000 0.000000 0.000000
# 3 -0.008962 -0.008319 0.010920 0.000000 0.000000 0.000000
# 4 0.000000 0.000000 0.000000 0.011094 0.000000 0.000000
# 5 0.000000 0.000000 0.000000 0.000000 0.076650 0.000000
# 6 0.000000 0.000000 0.000000 0.000000 0.000000 0.030277
#
#
# Mechanical properties :
#
#
# Convention : Reuss Voigt Hill
#
# Bulk Modulus (GPa) = 15.31710 81.63778 48.47744
# Shear Modulus (GPa) = 17.57498 40.71790 29.14644
#
# Velocity S-wave (km/s) = 3.08657 4.69809 3.97486
# Velocity P-wave (km/s) = 4.58318 8.58389 6.88072
#
# Compressibility (1/GPa) = 0.06528651
#
# Stress axis : x y z
#
# Youngs Moduli (GPa) = 12.52507 70.22921 91.57440
#
# Poissons Ratio (x) = 0.18087 0.82066
# Poissons Ratio (y) = 0.03226 0.76181
# Poissons Ratio (z) = 0.11225 0.58424
#
# Static dielectric constant tensor:
#      x y z
#    x 1.634830 0.000000 0.000000 
#    y 0.000000 1.606810 0.000000 
#    z 0.000000 0.000000 1.644260 
# 
# From -- ./inp_files/66865.got.cif
#   From: 2010.05.17/outbox.cif.g08.bks.cpg/sg65_34_cif.got.tgz:66865.got - 2010.06.03 17:01:31.
