data_PCOD9490930
_publ_section_title
;
Structure prediction by ZEFSAII (Michael W. Deem and Ramdas Pophale) SiO2 
 PCOD9490930
Probable space group: C M M M
;
_chemical_formula_sum "Si O2"
_cell_formula_units_Z 72
_cell_length_a 9.837349
_cell_length_b 23.613659
_cell_length_c 14.222348
_cell_angle_alpha 90.000000
_cell_angle_beta 90.000000
_cell_angle_gamma 90.000000
_cell_volume 3303.791774
_symmetry_space_group_name_H-M "C M M M"
_symmetry_group_IT_number 65
_symmetry_cell_setting 'orthorhombic'
loop_
_space_group_symop_operation_xyz
x,y,z
-x,-y,z
x,-y,-z
-x,y,-z
-x,-y,-z
x,y,-z
-x,y,z
x,-y,z
1/2+x,1/2+y,z
1/2-x,1/2-y,z
1/2+x,1/2-y,-z
1/2-x,1/2+y,-z
1/2-x,1/2-y,-z
1/2+x,1/2+y,-z
1/2-x,1/2+y,z
1/2+x,1/2-y,z
loop_
_atom_site_type_symbol
_atom_site_label
_atom_site_fract_x
_atom_site_fract_y
_atom_site_fract_z
Si Si1 0.845759 0.800334 0.134656
Si Si2 0.711859 0.062202 0.311809
Si Si3 0.343335 0.906311 0.104057
Si Si4 0.000000 0.096981 0.608459
Si Si5 0.000000 0.217827 0.683838
Si Si6 0.000000 0.652650 0.387816
O O1 0.750000 0.750000 0.103280
O O2 0.766294 0.856540 0.109580
O O3 0.872129 0.793283 0.246629
O O4 0.000000 0.798700 0.098684
O O5 0.684800 0.060563 0.199910
O O6 0.626382 0.114795 0.352261
O O7 0.867508 0.074106 0.338154
O O8 0.672547 0.000000 0.350219
O O9 0.500000 0.885032 0.110832
O O10 0.331924 0.933287 0.000000
O O11 0.000000 0.165806 0.612029
O O12 0.000000 0.078646 0.500000
O O13 0.000000 0.282633 0.649789
O O14 0.000000 0.655270 0.500000
#
# Coordination Sequence:
#
# PCOD9490930 Si02
#       6
#    16  16  16   8   8   8
#     4  10  20  37  65  98 142 188 232 285 356 426
#     4  12  26  48  72 102 144 188 241 300 357 430
#     4  11  24  44  71 103 139 183 237 299 368 433
#     4  12  26  46  73 105 142 191 239 290 363 434
#     4  10  23  40  70 103 144 179 226 293 353 420
#     4  12  26  44  72 106 141 189 243 298 360 424
#
# _framework density 21.793140999999999
#
# number of rings (size 3 to 8) (size 9 to 14) (size 15 to 20)
#    0.667    0.222    3.333    3.667    0.000    4.000 
#    0.000    3.333    0.000    1.333    0.000    0.000 
#    0.000    0.000    0.000    0.000    0.000    0.000 
#
# Total GULP energy -200970.521718 kJ/mol
# GULP energy per Si atom -5582.514492 kJ/mol
# Density = 2.174354 g / cm^3
# Si number density = 21.793141 Si / 1000 Ang^3
#
#
#
# Elastic Constant Matrix: (Units=GPa)
#
#
# Indices 1 2 3 4 5 6 
#
# 1 176.1915 40.4207 40.6866 0.0000 0.0000 0.0000
# 2 40.4207 135.6836 34.2068 0.0000 0.0000 0.0000
# 3 40.6866 34.2068 166.0812 0.0000 0.0000 0.0000
# 4 0.0000 0.0000 0.0000 -125.3719 0.0000 0.0000
# 5 0.0000 0.0000 0.0000 0.0000 204.7591 0.0000
# 6 0.0000 0.0000 0.0000 0.0000 0.0000 -61.1194
#
#
#
# Elastic Compliance Matrix: (Units=1/GPa)
#
#
# Indices 1 2 3 4 5 6 
#
# 1 0.006319 -0.001574 -0.001224 0.000000 0.000000 0.000000
# 2 -0.001574 0.008166 -0.001296 0.000000 0.000000 0.000000
# 3 -0.001224 -0.001296 0.006588 0.000000 0.000000 0.000000
# 4 0.000000 0.000000 0.000000 -0.007976 0.000000 0.000000
# 5 0.000000 0.000000 0.000000 0.000000 0.004884 0.000000
# 6 0.000000 0.000000 0.000000 0.000000 0.000000 -0.016361
#
#
# Mechanical properties :
#
#
# Convention : Reuss Voigt Hill
#
# Bulk Modulus (GPa) = 77.61119 78.73159 78.17139
# Shear Modulus (GPa) = 354.54576 27.82970 191.18773
#
# Velocity S-wave (km/s) = 12.76871 3.57738 9.37651
# Velocity P-wave (km/s) = 15.90838 7.29854 12.37630
#
# Compressibility (1/GPa) = 0.01288474
#
# Stress axis : x y z
#
# Youngs Moduli (GPa) = 158.24355 122.46219 151.79170
#
# Poissons Ratio (x) = 0.19276 0.18578
# Poissons Ratio (y) = 0.24908 0.19676
# Poissons Ratio (z) = 0.19368 0.15874
#
# Static dielectric constant tensor:
#      x y z
#    x 1.765700 0.000000 0.000000 
#    y 0.000000 1.782170 0.000000 
#    z 0.000000 0.000000 1.819090 
# 
# From -- ./inp_files/36619.got.cif
#   From: 2010.05.17/outbox.cif.g08.bks.cpg/sg65_19_cif.got.tgz:36619.got - 2010.06.03 17:01:31.
