data_PCOD9490217
_publ_section_title
;
Structure prediction by ZEFSAII (Michael W. Deem and Ramdas Pophale) SiO2 
 PCOD9490217
Probable space group: C M M M
;
_chemical_formula_sum "Si O2"
_cell_formula_units_Z 104
_cell_length_a 21.659733
_cell_length_b 28.904707
_cell_length_c 7.661452
_cell_angle_alpha 90.000000
_cell_angle_beta 90.000000
_cell_angle_gamma 90.000000
_cell_volume 4796.591739
_symmetry_space_group_name_H-M "C M M M"
_symmetry_group_IT_number 65
_symmetry_cell_setting 'orthorhombic'
loop_
_space_group_symop_operation_xyz
x,y,z
-x,-y,z
x,-y,-z
-x,y,-z
-x,-y,-z
x,y,-z
-x,y,z
x,-y,z
1/2+x,1/2+y,z
1/2-x,1/2-y,z
1/2+x,1/2-y,-z
1/2-x,1/2+y,-z
1/2-x,1/2-y,-z
1/2+x,1/2+y,-z
1/2-x,1/2+y,z
1/2+x,1/2-y,z
loop_
_atom_site_type_symbol
_atom_site_label
_atom_site_fract_x
_atom_site_fract_y
_atom_site_fract_z
Si Si1 0.566900 0.769534 0.796767
Si Si2 0.672430 0.447724 0.710851
Si Si3 0.429204 0.622074 0.711489
Si Si4 0.094685 0.371455 0.701314
Si Si5 0.734480 0.134159 0.794939
Si Si6 0.000000 0.447476 0.286908
Si Si7 0.335276 0.297453 0.201296
O O1 0.500000 0.755992 0.719567
O O2 0.573326 0.824495 0.791800
O O3 0.628393 0.746062 0.718824
O O4 0.565752 0.755238 0.000000
O O5 0.676607 0.448293 0.500000
O O6 0.680208 0.500000 0.774308
O O7 0.606154 0.425425 0.755685
O O8 0.723346 0.411330 0.774694
O O9 0.427264 0.627232 0.500000
O O10 0.500000 0.623530 0.767245
O O11 0.387821 0.662807 0.790657
O O12 0.076748 0.365770 0.500000
O O13 0.168163 0.374140 0.713472
O O14 0.059349 0.416994 0.766449
O O15 0.774504 0.177630 0.722778
O O16 0.724381 0.142681 0.000000
O O17 0.000000 0.500000 0.222461
O O18 0.000000 0.450159 0.500000
O O19 0.319494 0.286337 0.000000
#
# Coordination Sequence:
#
# PCOD9490217 Si02
#       7
#    16  16  16  16  16   8  16
#     4  10  20  35  57  82 111 146 184 225 270 321
#     4   9  18  33  52  74 103 141 183 225 274 331
#     4   9  17  29  47  74 107 141 181 231 277 317
#     4  11  22  38  60  85 111 139 176 221 275 334
#     4  10  21  37  56  79 110 144 183 230 276 325
#     4   9  20  40  63  85 109 139 177 221 272 335
#     4   9  19  35  54  77 107 149 191 224 265 323
#
# _framework density 21.682061999999998
#
# number of rings (size 3 to 8) (size 9 to 14) (size 15 to 20)
#    0.000    2.385    0.769    1.385    0.000    4.000 
#    0.000    6.154    0.000    3.231    0.000    4.308 
#    0.000    0.000    0.000    0.000    0.000    0.000 
#
# Total GULP energy -290215.516705 kJ/mol
# GULP energy per Si atom -5581.067629 kJ/mol
# Density = 2.163271 g / cm^3
# Si number density = 21.682062 Si / 1000 Ang^3
#
#
#
# Elastic Constant Matrix: (Units=GPa)
#
#
# Indices 1 2 3 4 5 6 
#
# 1 155.2574 50.3799 1.3637 0.0000 0.0000 0.0000
# 2 50.3799 124.5796 0.7632 0.0000 0.0000 0.0000
# 3 1.3637 0.7632 45.3737 0.0000 0.0000 0.0000
# 4 0.0000 0.0000 0.0000 19.0627 0.0000 0.0000
# 5 0.0000 0.0000 0.0000 0.0000 7.5054 0.0000
# 6 0.0000 0.0000 0.0000 0.0000 0.0000 5.3303
#
#
#
# Elastic Compliance Matrix: (Units=1/GPa)
#
#
# Indices 1 2 3 4 5 6 
#
# 1 0.007415 -0.002998 -0.000172 0.000000 0.000000 0.000000
# 2 -0.002998 0.009240 -0.000065 0.000000 0.000000 0.000000
# 3 -0.000172 -0.000065 0.022045 0.000000 0.000000 0.000000
# 4 0.000000 0.000000 0.000000 0.052459 0.000000 0.000000
# 5 0.000000 0.000000 0.000000 0.000000 0.133238 0.000000
# 6 0.000000 0.000000 0.000000 0.000000 0.000000 0.187607
#
#
# Mechanical properties :
#
#
# Convention : Reuss Voigt Hill
#
# Bulk Modulus (GPa) = 31.02749 47.80268 39.41509
# Shear Modulus (GPa) = 11.64911 24.55994 18.10452
#
# Velocity S-wave (km/s) = 2.32042 3.36926 2.89277
# Velocity P-wave (km/s) = 4.63901 6.10171 5.41993
#
# Compressibility (1/GPa) = 0.03222949
#
# Stress axis : x y z
#
# Youngs Moduli (GPa) = 134.85934 108.22941 45.36080
#
# Poissons Ratio (x) = 0.32443 0.00782
# Poissons Ratio (y) = 0.40426 0.00296
# Poissons Ratio (z) = 0.02325 0.00707
#
# Static dielectric constant tensor:
#      x y z
#    x 1.805850 0.000000 0.000000 
#    y 0.000000 1.783310 0.000000 
#    z 0.000000 0.000000 1.856770 
# 
# From -- ./inp_files/12441.got.cif
#   From: 2010.05.17/outbox.cif.g08.bks.cpg/sg65_7_cif.got.tgz:12441.got - 2010.06.03 17:01:31.
