data_PCOD9490529
_publ_section_title
;
Structure prediction by ZEFSAII (Michael W. Deem and Ramdas Pophale) SiO2 
 PCOD9490529
Probable space group: C M M M
;
_chemical_formula_sum "Si O2"
_cell_formula_units_Z 72
_cell_length_a 8.527845
_cell_length_b 14.602168
_cell_length_c 30.125589
_cell_angle_alpha 90.000000
_cell_angle_beta 90.000000
_cell_angle_gamma 90.000000
_cell_volume 3751.389734
_symmetry_space_group_name_H-M "C M M M"
_symmetry_group_IT_number 65
_symmetry_cell_setting 'orthorhombic'
loop_
_space_group_symop_operation_xyz
x,y,z
-x,-y,z
x,-y,-z
-x,y,-z
-x,-y,-z
x,y,-z
-x,y,z
x,-y,z
1/2+x,1/2+y,z
1/2-x,1/2-y,z
1/2+x,1/2-y,-z
1/2-x,1/2+y,-z
1/2-x,1/2-y,-z
1/2+x,1/2+y,-z
1/2-x,1/2+y,z
1/2+x,1/2-y,z
loop_
_atom_site_type_symbol
_atom_site_label
_atom_site_fract_x
_atom_site_fract_y
_atom_site_fract_z
Si Si1 0.313554 0.000000 0.812513
Si Si2 0.310845 0.853809 0.645215
Si Si3 0.689557 0.854521 0.452262
Si Si4 0.687108 0.646835 0.880328
Si Si5 0.811587 0.500000 0.948488
Si Si6 0.185849 0.000000 0.286561
O O1 0.245987 0.088752 0.837934
O O2 0.500000 0.000000 0.817498
O O3 0.266009 0.000000 0.761345
O O4 0.500000 0.855884 0.647885
O O5 0.250000 0.750000 0.648126
O O6 0.263423 0.891113 0.596076
O O7 0.239397 0.913456 0.684283
O O8 0.740898 0.894563 0.500000
O O9 0.500000 0.855399 0.452394
O O10 0.750000 0.750000 0.452359
O O11 0.500000 0.647484 0.880598
O O12 0.750000 0.750000 0.880210
O O13 0.748059 0.588696 0.922476
O O14 0.000000 0.500000 0.945518
O O15 0.765716 0.500000 0.000000
O O16 0.000000 0.000000 0.280765
#
# Coordination Sequence:
#
# PCOD9490529 Si02
#       6
#     8  16  16  16   8   8
#     4  11  23  42  64  87 114 145 188 242 298 351
#     4  10  20  36  57  82 111 144 182 226 279 337
#     4   8  14  26  47  74 103 136 174 216 265 324
#     4  11  22  39  63  91 123 160 202 246 294 346
#     4  10  21  38  60  90 129 170 211 254 298 343
#     4  12  25  41  59  82 112 147 188 233 286 344
#
# _framework density 19.192888
#
# number of rings (size 3 to 8) (size 9 to 14) (size 15 to 20)
#    0.000    1.889    0.000    6.333    0.000    3.111 
#    0.000    5.000    0.000    3.333    0.000    0.000 
#    0.000    0.000    0.000    0.000    0.000    0.000 
#
# Total GULP energy -200982.757155 kJ/mol
# GULP energy per Si atom -5582.854365 kJ/mol
# Density = 1.914920 g / cm^3
# Si number density = 19.192888 Si / 1000 Ang^3
#
#
#
# Elastic Constant Matrix: (Units=GPa)
#
#
# Indices 1 2 3 4 5 6 
#
# 1 100.1289 39.8587 44.6375 0.0000 0.0000 0.0000
# 2 39.8587 149.8616 79.7829 0.0000 0.0000 0.0000
# 3 44.6375 79.7829 190.2291 0.0000 0.0000 0.0000
# 4 0.0000 0.0000 0.0000 9.6959 0.0000 0.0000
# 5 0.0000 0.0000 0.0000 0.0000 29.1194 0.0000
# 6 0.0000 0.0000 0.0000 0.0000 0.0000 28.2922
#
#
#
# Elastic Compliance Matrix: (Units=1/GPa)
#
#
# Indices 1 2 3 4 5 6 
#
# 1 0.011653 -0.002116 -0.001847 0.000000 0.000000 0.000000
# 2 -0.002116 0.008975 -0.003268 0.000000 0.000000 0.000000
# 3 -0.001847 -0.003268 0.007061 0.000000 0.000000 0.000000
# 4 0.000000 0.000000 0.000000 0.103136 0.000000 0.000000
# 5 0.000000 0.000000 0.000000 0.000000 0.034341 0.000000
# 6 0.000000 0.000000 0.000000 0.000000 0.000000 0.035345
#
#
# Mechanical properties :
#
#
# Convention : Reuss Voigt Hill
#
# Bulk Modulus (GPa) = 75.60028 85.41975 80.51001
# Shear Modulus (GPa) = 22.79129 31.81756 27.30442
#
# Velocity S-wave (km/s) = 3.44973 4.07600 3.77587
# Velocity P-wave (km/s) = 7.43927 8.17033 7.81335
#
# Compressibility (1/GPa) = 0.01322746
#
# Stress axis : x y z
#
# Youngs Moduli (GPa) = 85.81618 111.41681 141.62925
#
# Poissons Ratio (x) = 0.23577 0.26157
# Poissons Ratio (y) = 0.18159 0.46281
# Poissons Ratio (z) = 0.15849 0.36408
#
# Static dielectric constant tensor:
#      x y z
#    x 1.642870 0.000000 0.000000 
#    y 0.000000 1.679630 0.000000 
#    z 0.000000 0.000000 1.677310 
# 
# From -- ./inp_files/72615.got.cif
#   From: 2010.05.17/outbox.cif.g08.bks.cpg/sg65_37_cif.got.tgz:72615.got - 2010.06.03 17:01:31.
