data_PCOD9490345
_publ_section_title
;
Structure prediction by ZEFSAII (Michael W. Deem and Ramdas Pophale) SiO2 
 PCOD9490345
Probable space group: C M M M
;
_chemical_formula_sum "Si O2"
_cell_formula_units_Z 64
_cell_length_a 33.811879
_cell_length_b 10.968704
_cell_length_c 8.676703
_cell_angle_alpha 90.000000
_cell_angle_beta 90.000000
_cell_angle_gamma 90.000000
_cell_volume 3217.950468
_symmetry_space_group_name_H-M "C M M M"
_symmetry_group_IT_number 65
_symmetry_cell_setting 'orthorhombic'
loop_
_space_group_symop_operation_xyz
x,y,z
-x,-y,z
x,-y,-z
-x,y,-z
-x,-y,-z
x,y,-z
-x,y,z
x,-y,z
1/2+x,1/2+y,z
1/2-x,1/2-y,z
1/2+x,1/2-y,-z
1/2-x,1/2+y,-z
1/2-x,1/2-y,-z
1/2+x,1/2+y,-z
1/2-x,1/2+y,z
1/2+x,1/2-y,z
loop_
_atom_site_type_symbol
_atom_site_label
_atom_site_fract_x
_atom_site_fract_y
_atom_site_fract_z
Si Si1 0.500000 0.357229 0.328759
Si Si2 0.577786 0.250441 0.182862
Si Si3 0.162610 0.233827 0.686268
Si Si4 0.785970 0.000000 0.312236
Si Si5 0.952975 0.500000 0.684391
Si Si6 0.694190 0.000000 0.687930
O O1 0.500000 0.500000 0.347393
O O2 0.500000 0.297061 0.500000
O O3 0.539457 0.322862 0.239244
O O4 0.618659 0.294647 0.256039
O O5 0.568484 0.116059 0.245300
O O6 0.580720 0.252112 0.000000
O O7 0.162932 0.235272 0.500000
O O8 0.174775 0.371193 0.737895
O O9 0.191902 0.124602 0.736297
O O10 0.740199 0.000000 0.265478
O O11 0.786440 0.000000 0.500000
O O12 0.949323 0.500000 0.500000
O O13 0.000000 0.500000 0.722797
O O14 0.692561 0.000000 0.500000
#
# Coordination Sequence:
#
# PCOD9490345 Si02
#       6
#     8  16  16   8   8   8
#     4  11  25  44  65  86 115 159 211 259 304 357
#     4  12  25  40  61  90 126 161 200 248 304 366
#     4  10  20  35  58  87 120 159 203 253 305 363
#     4   9  18  33  58  90 118 151 201 260 309 355
#     4  11  22  39  64  88 114 153 202 251 298 353
#     4   9  17  33  59  89 118 150 199 259 311 354
#
# _framework density 19.888434
#
# number of rings (size 3 to 8) (size 9 to 14) (size 15 to 20)
#    0.000    1.500    1.250    4.500    1.750    5.500 
#    0.000    0.000    0.000    4.500    0.000    0.000 
#    0.000    0.000    0.000    0.000    0.000    0.000 
#
# Total GULP energy -178776.389996 kJ/mol
# GULP energy per Si atom -5586.762187 kJ/mol
# Density = 1.984317 g / cm^3
# Si number density = 19.888434 Si / 1000 Ang^3
#
#
#
# Elastic Constant Matrix: (Units=GPa)
#
#
# Indices 1 2 3 4 5 6 
#
# 1 142.3744 42.8922 13.2661 0.0000 0.0000 0.0000
# 2 42.8922 106.0940 17.2847 0.0000 0.0000 0.0000
# 3 13.2661 17.2847 32.2302 0.0000 0.0000 0.0000
# 4 0.0000 0.0000 0.0000 13.5720 0.0000 0.0000
# 5 0.0000 0.0000 0.0000 0.0000 -13.9317 0.0000
# 6 0.0000 0.0000 0.0000 0.0000 0.0000 103.5605
#
#
#
# Elastic Compliance Matrix: (Units=1/GPa)
#
#
# Indices 1 2 3 4 5 6 
#
# 1 0.008084 -0.002987 -0.001726 0.000000 0.000000 0.000000
# 2 -0.002987 0.011432 -0.004901 0.000000 0.000000 0.000000
# 3 -0.001726 -0.004901 0.034365 0.000000 0.000000 0.000000
# 4 0.000000 0.000000 0.000000 0.073681 0.000000 0.000000
# 5 0.000000 0.000000 0.000000 0.000000 -0.071779 0.000000
# 6 0.000000 0.000000 0.000000 0.000000 0.000000 0.009656
#
#
# Mechanical properties :
#
#
# Convention : Reuss Voigt Hill
#
# Bulk Modulus (GPa) = 28.85695 47.50942 38.18318
# Shear Modulus (GPa) = 51.96425 34.45719 43.21072
#
# Velocity S-wave (km/s) = 5.11709 4.16688 4.66623
# Velocity P-wave (km/s) = 7.03233 6.86224 6.94781
#
# Compressibility (1/GPa) = 0.03465369
#
# Stress axis : x y z
#
# Youngs Moduli (GPa) = 123.69378 87.47516 29.09900
#
# Poissons Ratio (x) = 0.26132 0.05021
# Poissons Ratio (y) = 0.36951 0.14262
# Poissons Ratio (z) = 0.21344 0.42873
#
# Static dielectric constant tensor:
#      x y z
#    x 1.739850 0.000000 0.000000 
#    y 0.000000 1.635740 0.000000 
#    z 0.000000 0.000000 1.670120 
# 
# From -- ./inp_files/17858.got.cif
#   From: 2010.05.17/outbox.cif.g08.bks.cpg/sg65_9_cif.got.tgz:17858.got - 2010.06.03 17:01:31.
