data_PCOD9490188
_publ_section_title
;
Structure prediction by ZEFSAII (Michael W. Deem and Ramdas Pophale) SiO2 
 PCOD9490188
Probable space group: C M M M
;
_chemical_formula_sum "Si O2"
_cell_formula_units_Z 90
_cell_length_a 25.208177
_cell_length_b 22.701783
_cell_length_c 7.681969
_cell_angle_alpha 90.000000
_cell_angle_beta 90.000000
_cell_angle_gamma 90.000000
_cell_volume 4396.164733
_symmetry_space_group_name_H-M "C M M M"
_symmetry_group_IT_number 65
_symmetry_cell_setting 'orthorhombic'
loop_
_space_group_symop_operation_xyz
x,y,z
-x,-y,z
x,-y,-z
-x,y,-z
-x,-y,-z
x,y,-z
-x,y,z
x,-y,z
1/2+x,1/2+y,z
1/2-x,1/2-y,z
1/2+x,1/2-y,-z
1/2-x,1/2+y,-z
1/2-x,1/2-y,-z
1/2+x,1/2+y,-z
1/2-x,1/2+y,z
1/2+x,1/2-y,z
loop_
_atom_site_type_symbol
_atom_site_label
_atom_site_fract_x
_atom_site_fract_y
_atom_site_fract_z
Si Si1 0.114901 0.067762 0.205413
Si Si2 0.937426 0.267629 0.000000
Si Si3 0.212740 0.854918 0.699606
Si Si4 0.674346 0.115321 0.700823
Si Si5 0.500000 0.000000 0.000000
Si Si6 0.404356 0.905999 0.000000
Si Si7 0.641862 0.747481 0.701839
Si Si8 0.000000 0.067773 0.707605
O O1 0.162231 0.102633 0.293301
O O2 0.056155 0.093826 0.234990
O O3 0.113888 0.000000 0.268083
O O4 0.125216 0.068074 0.000000
O O5 0.907901 0.242098 0.170126
O O6 0.925032 0.338063 0.000000
O O7 0.000000 0.257483 0.000000
O O8 0.228263 0.842207 0.500000
O O9 0.265356 0.885402 0.772276
O O10 0.189749 0.793601 0.770111
O O11 0.671161 0.093787 0.500000
O O12 0.632723 0.085711 0.830276
O O13 0.659618 0.184761 0.701267
O O14 0.453570 0.948991 0.000000
O O15 0.630382 0.730906 0.500000
O O16 0.000000 0.065946 0.500000
O O17 0.000000 0.000000 0.777291
#
# Coordination Sequence:
#
# PCOD9490188 Si02
#       8
#    16   8  16  16   2   8  16   8
#     4  10  21  35  51  74 106 147 193 237 284 335
#     4  10  20  37  59  84 117 156 199 243 298 361
#     4  10  20  35  56  84 117 150 190 239 296 359
#     4   9  19  38  62  90 120 151 191 242 300 364
#     4  12  24  48  70  92 128 170 208 270 292 364
#     4  10  22  41  66  88 118 157 201 246 303 350
#     4   9  19  35  57  86 116 150 192 241 297 362
#     4   9  17  33  55  70  89 131 185 230 268 315
#
# _framework density 20.472390999999998
#
# number of rings (size 3 to 8) (size 9 to 14) (size 15 to 20)
#    0.000    2.400    0.444    1.333    2.489    4.622 
#    3.200    4.000    0.000    0.000    0.000    0.000 
#    0.000    0.000    0.000    0.000    0.000    0.000 
#
# Total GULP energy -250817.734520 kJ/mol
# GULP energy per Si atom -5573.727434 kJ/mol
# Density = 2.042579 g / cm^3
# Si number density = 20.472391 Si / 1000 Ang^3
#
#
#
# Elastic Constant Matrix: (Units=GPa)
#
#
# Indices 1 2 3 4 5 6 
#
# 1 192.5500 29.2284 59.2352 0.0000 0.0000 0.0000
# 2 29.2284 41.6351 16.8558 0.0000 0.0000 0.0000
# 3 59.2352 16.8558 89.5787 0.0000 0.0000 0.0000
# 4 0.0000 0.0000 0.0000 6.7585 0.0000 0.0000
# 5 0.0000 0.0000 0.0000 0.0000 22.1886 0.0000
# 6 0.0000 0.0000 0.0000 0.0000 0.0000 26.0408
#
#
#
# Elastic Compliance Matrix: (Units=1/GPa)
#
#
# Indices 1 2 3 4 5 6 
#
# 1 0.006902 -0.003245 -0.003954 0.000000 0.000000 0.000000
# 2 -0.003245 0.027524 -0.003033 0.000000 0.000000 0.000000
# 3 -0.003954 -0.003033 0.014349 0.000000 0.000000 0.000000
# 4 0.000000 0.000000 0.000000 0.147961 0.000000 0.000000
# 5 0.000000 0.000000 0.000000 0.000000 0.045068 0.000000
# 6 0.000000 0.000000 0.000000 0.000000 0.000000 0.038401
#
#
# Mechanical properties :
#
#
# Convention : Reuss Voigt Hill
#
# Bulk Modulus (GPa) = 35.32181 59.37806 47.34993
# Shear Modulus (GPa) = 16.12348 25.56056 20.84202
#
# Velocity S-wave (km/s) = 2.80942 3.53730 3.19416
# Velocity P-wave (km/s) = 5.27395 6.76389 6.06485
#
# Compressibility (1/GPa) = 0.02831112
#
# Stress axis : x y z
#
# Youngs Moduli (GPa) = 144.87918 36.33165 69.69335
#
# Poissons Ratio (x) = 0.11789 0.27554
# Poissons Ratio (y) = 0.47012 0.21141
# Poissons Ratio (z) = 0.57280 0.11021
#
# Static dielectric constant tensor:
#      x y z
#    x 1.727590 0.000000 0.000000 
#    y 0.000000 1.738340 0.000000 
#    z 0.000000 0.000000 1.747650 
# 
# From -- ./inp_files/11927.got.cif
#   From: 2010.05.17/outbox.cif.g08.bks.cpg/sg65_6_cif.got.tgz:11927.got - 2010.06.03 17:01:31.
