data_PCOD9490136
_publ_section_title
;
Structure prediction by ZEFSAII (Michael W. Deem and Ramdas Pophale) SiO2 
 PCOD9490136
Probable space group: C M M M
;
_chemical_formula_sum "Si O2"
_cell_formula_units_Z 72
_cell_length_a 8.803867
_cell_length_b 19.286783
_cell_length_c 23.674562
_cell_angle_alpha 90.000000
_cell_angle_beta 90.000000
_cell_angle_gamma 90.000000
_cell_volume 4019.899727
_symmetry_space_group_name_H-M "C M M M"
_symmetry_group_IT_number 65
_symmetry_cell_setting 'orthorhombic'
loop_
_space_group_symop_operation_xyz
x,y,z
-x,-y,z
x,-y,-z
-x,y,-z
-x,-y,-z
x,y,-z
-x,y,z
x,-y,z
1/2+x,1/2+y,z
1/2-x,1/2-y,z
1/2+x,1/2-y,-z
1/2-x,1/2+y,-z
1/2-x,1/2-y,-z
1/2+x,1/2+y,-z
1/2-x,1/2+y,z
1/2+x,1/2-y,z
loop_
_atom_site_type_symbol
_atom_site_label
_atom_site_fract_x
_atom_site_fract_y
_atom_site_fract_z
Si Si1 0.319246 0.082455 0.564658
Si Si2 0.818539 0.673168 0.218397
Si Si3 0.319256 0.673678 0.662312
Si Si4 0.324876 0.084230 0.000000
Si Si5 0.319816 0.582832 0.118957
O O1 0.279551 0.101514 0.500000
O O2 0.500000 0.095051 0.571949
O O3 0.227627 0.124705 0.610896
O O4 0.294716 0.000000 0.570750
O O5 0.750000 0.750000 0.209370
O O6 0.752532 0.648260 0.278592
O O7 0.765111 0.623604 0.168205
O O8 0.000000 0.677189 0.221217
O O9 0.500000 0.678528 0.668058
O O10 0.250000 0.750000 0.652404
O O11 0.241333 0.105395 0.942515
O O12 0.500000 0.106939 0.000000
O O13 0.323681 0.000000 0.000000
O O14 0.500000 0.594949 0.122602
O O15 0.293537 0.500000 0.124291
#
# Coordination Sequence:
#
# PCOD9490136 Si02
#       5
#    16  16  16   8  16
#     4   9  19  37  59  82 110 143 178 219 268 319
#     4  11  22  38  58  79 108 143 180 223 272 323
#     4  11  22  37  57  80 108 142 181 223 267 318
#     4   9  17  31  52  79 110 143 180 221 267 317
#     4  10  20  35  56  82 111 143 181 223 267 317
#
# _framework density 17.910895
#
# number of rings (size 3 to 8) (size 9 to 14) (size 15 to 20)
#    0.000    1.889    0.000    7.000    0.000    4.889 
#    0.000    1.667    0.000    0.000    0.000    0.000 
#    0.000    0.000    0.000    0.000    0.000    0.000 
#
# Total GULP energy -201067.942844 kJ/mol
# GULP energy per Si atom -5585.220635 kJ/mol
# Density = 1.787013 g / cm^3
# Si number density = 17.910895 Si / 1000 Ang^3
#
#
#
# Elastic Constant Matrix: (Units=GPa)
#
#
# Indices 1 2 3 4 5 6 
#
# 1 166.6835 56.7958 104.1053 0.0000 0.0000 0.0000
# 2 56.7958 35.7933 65.7423 0.0000 0.0000 0.0000
# 3 104.1053 65.7423 169.5163 0.0000 0.0000 0.0000
# 4 0.0000 0.0000 0.0000 47.1694 0.0000 0.0000
# 5 0.0000 0.0000 0.0000 0.0000 35.0130 0.0000
# 6 0.0000 0.0000 0.0000 0.0000 0.0000 25.9441
#
#
#
# Elastic Compliance Matrix: (Units=1/GPa)
#
#
# Indices 1 2 3 4 5 6 
#
# 1 0.013062 -0.020830 0.000057 0.000000 0.000000 0.000000
# 2 -0.020830 0.130335 -0.037754 0.000000 0.000000 0.000000
# 3 0.000057 -0.037754 0.020506 0.000000 0.000000 0.000000
# 4 0.000000 0.000000 0.000000 0.021200 0.000000 0.000000
# 5 0.000000 0.000000 0.000000 0.000000 0.028561 0.000000
# 6 0.000000 0.000000 0.000000 0.000000 0.000000 0.038544
#
#
# Mechanical properties :
#
#
# Convention : Reuss Voigt Hill
#
# Bulk Modulus (GPa) = 21.34587 91.69776 56.52182
# Shear Modulus (GPa) = 12.99108 31.31531 22.15319
#
# Velocity S-wave (km/s) = 2.69609 4.18592 3.52071
# Velocity P-wave (km/s) = 4.65141 8.64120 6.93923
#
# Compressibility (1/GPa) = 0.04684746
#
# Stress axis : x y z
#
# Youngs Moduli (GPa) = 76.56074 7.67253 48.76577
#
# Poissons Ratio (x) = 0.15982 -0.00278
# Poissons Ratio (y) = 1.59478 1.84112
# Poissons Ratio (z) = -0.00436 0.28967
#
# Static dielectric constant tensor:
#      x y z
#    x 1.596120 0.000000 0.000000 
#    y 0.000000 1.590980 0.000000 
#    z 0.000000 0.000000 1.598500 
# 
# From -- ./inp_files/59199.got.cif
#   From: 2010.05.17/outbox.cif.g08.bks.cpg/sg65_30_cif.got.tgz:59199.got - 2010.06.03 17:01:31.
