data_PCOD9490286
_publ_section_title
;
Structure prediction by ZEFSAII (Michael W. Deem and Ramdas Pophale) SiO2 
 PCOD9490286
Probable space group: C M M M
;
_chemical_formula_sum "Si O2"
_cell_formula_units_Z 72
_cell_length_a 15.995314
_cell_length_b 9.175820
_cell_length_c 25.657844
_cell_angle_alpha 90.000000
_cell_angle_beta 90.000000
_cell_angle_gamma 90.000000
_cell_volume 3765.804897
_symmetry_space_group_name_H-M "C M M M"
_symmetry_group_IT_number 65
_symmetry_cell_setting 'orthorhombic'
loop_
_space_group_symop_operation_xyz
x,y,z
-x,-y,z
x,-y,-z
-x,y,-z
-x,-y,-z
x,y,-z
-x,y,z
x,-y,z
1/2+x,1/2+y,z
1/2-x,1/2-y,z
1/2+x,1/2-y,-z
1/2-x,1/2+y,-z
1/2-x,1/2-y,-z
1/2+x,1/2+y,-z
1/2-x,1/2+y,z
1/2+x,1/2-y,z
loop_
_atom_site_type_symbol
_atom_site_label
_atom_site_fract_x
_atom_site_fract_y
_atom_site_fract_z
Si Si1 0.336401 0.175917 0.624852
Si Si2 0.500000 0.822577 0.559934
Si Si3 0.659739 0.173853 0.057293
Si Si4 0.600741 0.828233 0.739348
Si Si5 0.400431 0.336725 0.158009
O O1 0.250000 0.250000 0.608713
O O2 0.415945 0.221919 0.590171
O O3 0.356890 0.213758 0.684986
O O4 0.329540 0.000000 0.621747
O O5 0.500000 0.774800 0.500000
O O6 0.500000 0.000000 0.560542
O O7 0.750000 0.250000 0.056905
O O8 0.614564 0.240948 0.106951
O O9 0.667464 0.000000 0.062455
O O10 0.620731 0.203541 0.000000
O O11 0.500000 0.809733 0.733393
O O12 0.631457 0.738066 0.789151
O O13 0.614951 0.000000 0.748602
O O14 0.500000 0.346872 0.164577
O O15 0.365986 0.500000 0.151148
#
# Coordination Sequence:
#
# PCOD9490286 Si02
#       5
#    16   8  16  16  16
#     4  10  20  35  57  86 115 150 195 239 287 342
#     4   9  18  36  61  85 115 157 198 235 280 339
#     4  10  21  37  56  76 101 137 180 226 277 333
#     4   9  17  33  55  75 103 144 188 230 276 335
#     4  10  21  35  53  80 111 142 179 224 276 330
#
# _framework density 19.119418
#
# number of rings (size 3 to 8) (size 9 to 14) (size 15 to 20)
#    0.000    2.333    1.111    1.333    0.000    5.333 
#    0.000    5.000    0.000    0.667    0.000    0.000 
#    0.000    0.000    0.000    0.000    0.000    0.000 
#
# Total GULP energy -200860.949972 kJ/mol
# GULP energy per Si atom -5579.470833 kJ/mol
# Density = 1.907590 g / cm^3
# Si number density = 19.119418 Si / 1000 Ang^3
#
#
#
# Elastic Constant Matrix: (Units=GPa)
#
#
# Indices 1 2 3 4 5 6 
#
# 1 80.5664 34.7770 63.5859 0.0000 0.0000 0.0000
# 2 34.7770 63.9155 62.9433 0.0000 0.0000 0.0000
# 3 63.5859 62.9433 166.3342 0.0000 0.0000 0.0000
# 4 0.0000 0.0000 0.0000 13.1160 0.0000 0.0000
# 5 0.0000 0.0000 0.0000 0.0000 84.1814 0.0000
# 6 0.0000 0.0000 0.0000 0.0000 0.0000 27.9838
#
#
#
# Elastic Compliance Matrix: (Units=1/GPa)
#
#
# Indices 1 2 3 4 5 6 
#
# 1 0.018728 -0.005005 -0.005265 0.000000 0.000000 0.000000
# 2 -0.005005 0.026277 -0.008030 0.000000 0.000000 0.000000
# 3 -0.005265 -0.008030 0.011064 0.000000 0.000000 0.000000
# 4 0.000000 0.000000 0.000000 0.076243 0.000000 0.000000
# 5 0.000000 0.000000 0.000000 0.000000 0.011879 0.000000
# 6 0.000000 0.000000 0.000000 0.000000 0.000000 0.035735
#
#
# Mechanical properties :
#
#
# Convention : Reuss Voigt Hill
#
# Bulk Modulus (GPa) = 51.36742 70.38095 60.87418
# Shear Modulus (GPa) = 22.41988 35.02357 28.72172
#
# Velocity S-wave (km/s) = 3.42807 4.28463 3.88006
# Velocity P-wave (km/s) = 6.52640 7.83381 7.20980
#
# Compressibility (1/GPa) = 0.01946759
#
# Stress axis : x y z
#
# Youngs Moduli (GPa) = 53.39548 38.05606 90.38570
#
# Poissons Ratio (x) = 0.19046 0.47593
# Poissons Ratio (y) = 0.26723 0.72583
# Poissons Ratio (z) = 0.28115 0.30561
#
# Static dielectric constant tensor:
#      x y z
#    x 1.676780 0.000000 0.000000 
#    y 0.000000 1.652520 0.000000 
#    z 0.000000 0.000000 1.664400 
# 
# From -- ./inp_files/72476.got.cif
#   From: 2010.05.17/outbox.cif.g08.bks.cpg/sg65_37_cif.got.tgz:72476.got - 2010.06.03 17:01:31.
