data_PCOD9490334
_publ_section_title
;
Structure prediction by ZEFSAII (Michael W. Deem and Ramdas Pophale) SiO2 
 PCOD9490334
Probable space group: C M M M
;
_chemical_formula_sum "Si O2"
_cell_formula_units_Z 116
_cell_length_a 7.798924
_cell_length_b 31.107278
_cell_length_c 23.601113
_cell_angle_alpha 90.000000
_cell_angle_beta 90.000000
_cell_angle_gamma 90.000000
_cell_volume 5725.707826
_symmetry_space_group_name_H-M "C M M M"
_symmetry_group_IT_number 65
_symmetry_cell_setting 'orthorhombic'
loop_
_space_group_symop_operation_xyz
x,y,z
-x,-y,z
x,-y,-z
-x,y,-z
-x,-y,-z
x,y,-z
-x,y,z
x,-y,z
1/2+x,1/2+y,z
1/2-x,1/2-y,z
1/2+x,1/2-y,-z
1/2-x,1/2+y,-z
1/2-x,1/2-y,-z
1/2+x,1/2+y,-z
1/2-x,1/2+y,z
1/2+x,1/2-y,z
loop_
_atom_site_type_symbol
_atom_site_label
_atom_site_fract_x
_atom_site_fract_y
_atom_site_fract_z
Si Si1 0.706932 0.048423 0.066244
Si Si2 0.000000 0.500000 0.609617
Si Si3 0.192328 0.614504 0.729526
Si Si4 0.295381 0.702547 0.322832
Si Si5 0.197051 0.125401 0.144899
Si Si6 0.293270 0.299511 0.935473
Si Si7 0.304232 0.428951 0.620177
Si Si8 0.206712 0.836970 0.562842
O O1 0.500000 0.051863 0.071411
O O2 0.791274 0.085491 0.102413
O O3 0.755547 0.000000 0.083851
O O4 0.749352 0.053271 0.000000
O O5 0.846094 0.537158 0.610367
O O6 0.219570 0.664418 0.714411
O O7 0.220544 0.611248 0.796218
O O8 0.303811 0.586578 0.686059
O O9 0.000000 0.601482 0.715747
O O10 0.500000 0.697284 0.322020
O O11 0.250000 0.750000 0.303462
O O12 0.231368 0.694181 0.387124
O O13 0.271584 0.166520 0.111024
O O14 0.000000 0.135686 0.158665
O O15 0.500000 0.303598 0.936721
O O16 0.250000 0.250000 0.922518
O O17 0.231158 0.308710 0.000000
O O18 0.500000 0.442895 0.606075
O O19 0.264570 0.385653 0.584275
O O20 0.276076 0.829528 0.500000
O O21 0.000000 0.832055 0.560326
#
# Coordination Sequence:
#
# PCOD9490334 Si02
#       8
#    16   4  16  16  16  16  16  16
#     4   9  19  37  58  81 111 146 186 234 288 346
#     4  12  22  40  65  92 120 156 213 250 296 364
#     4  11  22  40  60  81 114 152 197 249 303 360
#     4  10  20  35  58  86 118 157 199 245 296 354
#     4  11  22  36  56  83 113 147 189 235 293 360
#     4   9  19  35  54  78 109 143 182 230 283 344
#     4  10  21  40  63  88 121 160 201 250 305 358
#     4   8  16  34  60  86 120 164 201 243 302 353
#
# _framework density 20.259504
#
# number of rings (size 3 to 8) (size 9 to 14) (size 15 to 20)
#    0.000    2.207    0.690    3.931    0.000    3.034 
#    1.241    4.483    0.000    1.655    0.000    0.000 
#    0.000    0.000    0.000    0.000    0.000    0.000 
#
# Total GULP energy -323144.391428 kJ/mol
# GULP energy per Si atom -5571.455025 kJ/mol
# Density = 2.021339 g / cm^3
# Si number density = 20.259504 Si / 1000 Ang^3
#
#
#
# Elastic Constant Matrix: (Units=GPa)
#
#
# Indices 1 2 3 4 5 6 
#
# 1 65.7179 -6.1620 -9.1657 0.0000 0.0000 0.0000
# 2 -6.1620 25.6889 -15.6747 0.0000 0.0000 0.0000
# 3 -9.1657 -15.6747 31.4184 0.0000 0.0000 0.0000
# 4 0.0000 0.0000 0.0000 -14.9825 0.0000 0.0000
# 5 0.0000 0.0000 0.0000 0.0000 28.2030 0.0000
# 6 0.0000 0.0000 0.0000 0.0000 0.0000 30.7863
#
#
#
# Elastic Compliance Matrix: (Units=1/GPa)
#
#
# Indices 1 2 3 4 5 6 
#
# 1 0.017669 0.010615 0.010450 0.000000 0.000000 0.000000
# 2 0.010615 0.062340 0.034198 0.000000 0.000000 0.000000
# 3 0.010450 0.034198 0.051939 0.000000 0.000000 0.000000
# 4 0.000000 0.000000 0.000000 -0.066745 0.000000 0.000000
# 5 0.000000 0.000000 0.000000 0.000000 0.035457 0.000000
# 6 0.000000 0.000000 0.000000 0.000000 0.000000 0.032482
#
#
# Mechanical properties :
#
#
# Convention : Reuss Voigt Hill
#
# Bulk Modulus (GPa) = 4.12412 6.75785 5.44098
# Shear Modulus (GPa) = 48.33671 19.05654 33.69662
#
# Velocity S-wave (km/s) = 4.88984 3.07028 4.08272
# Velocity P-wave (km/s) = 5.82416 3.98895 4.99162
#
# Compressibility (1/GPa) = 0.24247613
#
# Stress axis : x y z
#
# Youngs Moduli (GPa) = 56.59514 16.04097 19.25341
#
# Poissons Ratio (x) = -0.17027 -0.20121
# Poissons Ratio (y) = -0.60075 -0.65844
# Poissons Ratio (z) = -0.59145 -0.54858
#
# Static dielectric constant tensor:
#      x y z
#    x 1.766710 0.000000 0.000000 
#    y 0.000000 1.691830 0.000000 
#    z 0.000000 0.000000 1.720120 
# 
# From -- ./inp_files/68656.got.cif
#   From: 2010.05.17/outbox.cif.g08.bks.cpg/sg65_35_cif.got.tgz:68656.got - 2010.06.03 17:01:31.
