data_PCOD9490843
_publ_section_title
;
Structure prediction by ZEFSAII (Michael W. Deem and Ramdas Pophale) SiO2 
 PCOD9490843
Probable space group: C M M M
;
_chemical_formula_sum "Si O2"
_cell_formula_units_Z 64
_cell_length_a 9.980973
_cell_length_b 39.641676
_cell_length_c 7.701293
_cell_angle_alpha 90.000000
_cell_angle_beta 90.000000
_cell_angle_gamma 90.000000
_cell_volume 3047.112825
_symmetry_space_group_name_H-M "C M M M"
_symmetry_group_IT_number 65
_symmetry_cell_setting 'orthorhombic'
loop_
_space_group_symop_operation_xyz
x,y,z
-x,-y,z
x,-y,-z
-x,y,-z
-x,-y,-z
x,y,-z
-x,y,z
x,-y,z
1/2+x,1/2+y,z
1/2-x,1/2-y,z
1/2+x,1/2-y,-z
1/2-x,1/2+y,-z
1/2-x,1/2-y,-z
1/2+x,1/2+y,-z
1/2-x,1/2+y,z
1/2+x,1/2-y,z
loop_
_atom_site_type_symbol
_atom_site_label
_atom_site_fract_x
_atom_site_fract_y
_atom_site_fract_z
Si Si1 0.656219 0.843448 0.789875
Si Si2 0.000000 0.461889 0.786757
Si Si3 0.257364 0.082880 0.207674
Si Si4 0.000000 0.961147 0.706203
Si Si5 0.344677 0.280239 0.707627
O O1 0.500000 0.839168 0.731512
O O2 0.717511 0.879194 0.727373
O O3 0.758875 0.814032 0.738859
O O4 0.651261 0.843797 0.000000
O O5 0.126731 0.441269 0.725970
O O6 0.000000 0.500000 0.727618
O O7 0.000000 0.462347 0.000000
O O8 0.124294 0.062110 0.242161
O O9 0.271011 0.085608 0.000000
O O10 0.000000 0.964314 0.500000
O O11 0.000000 0.000000 0.776896
O O12 0.355057 0.275624 0.500000
O O13 0.500000 0.280908 0.773160
O O14 0.250000 0.250000 0.776939
#
# Coordination Sequence:
#
# PCOD9490843 Si02
#       5
#    16   8  16   8  16
#     4  10  21  38  60  88 121 152 188 239 293 344
#     4   9  16  30  57  87 110 139 188 243 286 329
#     4  10  20  37  60  86 114 149 194 240 288 344
#     4  11  25  41  55  79 118 157 194 241 294 349
#     4  10  22  40  62  88 118 155 198 238 279 336
#
# _framework density 21.003487
#
# number of rings (size 3 to 8) (size 9 to 14) (size 15 to 20)
#    0.000    2.000    1.250    1.875    1.750    5.500 
#    0.000    0.625    0.000    2.250    0.000    0.000 
#    0.000    0.000    0.000    0.000    0.000    0.000 
#
# Total GULP energy -178520.680287 kJ/mol
# GULP energy per Si atom -5578.771259 kJ/mol
# Density = 2.095568 g / cm^3
# Si number density = 21.003487 Si / 1000 Ang^3
#
#
#
# Elastic Constant Matrix: (Units=GPa)
#
#
# Indices 1 2 3 4 5 6 
#
# 1 246.2380 140.5668 -1.8475 0.0000 0.0000 0.0000
# 2 140.5668 241.9774 0.4880 0.0000 0.0000 0.0000
# 3 -1.8475 0.4880 32.6002 0.0000 0.0000 0.0000
# 4 0.0000 0.0000 0.0000 21.5406 0.0000 0.0000
# 5 0.0000 0.0000 0.0000 0.0000 -59.2761 0.0000
# 6 0.0000 0.0000 0.0000 0.0000 0.0000 38.5931
#
#
#
# Elastic Compliance Matrix: (Units=1/GPa)
#
#
# Indices 1 2 3 4 5 6 
#
# 1 0.006081 -0.003533 0.000398 0.000000 0.000000 0.000000
# 2 -0.003533 0.006186 -0.000293 0.000000 0.000000 0.000000
# 3 0.000398 -0.000293 0.030702 0.000000 0.000000 0.000000
# 4 0.000000 0.000000 0.000000 0.046424 0.000000 0.000000
# 5 0.000000 0.000000 0.000000 0.000000 -0.016870 0.000000
# 6 0.000000 0.000000 0.000000 0.000000 0.000000 0.025911
#
#
# Mechanical properties :
#
#
# Convention : Reuss Voigt Hill
#
# Bulk Modulus (GPa) = 27.69231 88.80336 58.24784
# Shear Modulus (GPa) = 42.61554 25.61208 34.11381
#
# Velocity S-wave (km/s) = 4.50930 3.49581 4.03451
# Velocity P-wave (km/s) = 6.35019 7.65939 7.03531
#
# Compressibility (1/GPa) = 0.03611110
#
# Stress axis : x y z
#
# Youngs Moduli (GPa) = 164.44217 161.66078 32.57159
#
# Poissons Ratio (x) = 0.57121 -0.01295
# Poissons Ratio (y) = 0.58104 0.00954
# Poissons Ratio (z) = -0.06537 0.04734
#
# Static dielectric constant tensor:
#      x y z
#    x 1.440140 0.000000 0.000000 
#    y 0.000000 1.754760 0.000000 
#    z 0.000000 0.000000 1.789770 
# 
# From -- ./inp_files/20970.got.cif
#   From: 2010.05.17/outbox.cif.g08.bks.cpg/sg65_11_cif.got.tgz:20970.got - 2010.06.03 17:01:31.
