data_PCOD9490892
_publ_section_title
;
Structure prediction by ZEFSAII (Michael W. Deem and Ramdas Pophale) SiO2 
 PCOD9490892
Probable space group: C M M M
;
_chemical_formula_sum "Si O2"
_cell_formula_units_Z 72
_cell_length_a 25.197890
_cell_length_b 19.590226
_cell_length_c 7.424507
_cell_angle_alpha 90.000000
_cell_angle_beta 90.000000
_cell_angle_gamma 90.000000
_cell_volume 3664.976911
_symmetry_space_group_name_H-M "C M M M"
_symmetry_group_IT_number 65
_symmetry_cell_setting 'orthorhombic'
loop_
_space_group_symop_operation_xyz
x,y,z
-x,-y,z
x,-y,-z
-x,y,-z
-x,-y,-z
x,y,-z
-x,y,z
x,-y,z
1/2+x,1/2+y,z
1/2-x,1/2-y,z
1/2+x,1/2-y,-z
1/2-x,1/2+y,-z
1/2-x,1/2-y,-z
1/2+x,1/2+y,-z
1/2-x,1/2+y,z
1/2+x,1/2-y,z
loop_
_atom_site_type_symbol
_atom_site_label
_atom_site_fract_x
_atom_site_fract_y
_atom_site_fract_z
Si Si1 0.500000 0.920736 0.779619
Si Si2 0.939650 0.836390 0.212770
Si Si3 0.785787 0.683188 0.216319
Si Si4 0.409968 0.815463 0.217945
Si Si5 0.254027 0.577184 0.500000
Si Si6 0.119736 0.077166 0.500000
O O1 0.552354 0.877786 0.721795
O O2 0.500000 0.000000 0.722845
O O3 0.500000 0.920908 0.000000
O O4 0.934688 0.757326 0.268559
O O5 0.900748 0.882302 0.327056
O O6 0.000000 0.858954 0.242529
O O7 0.927943 0.839933 0.000000
O O8 0.750000 0.750000 0.261291
O O9 0.848001 0.687658 0.269015
O O10 0.763748 0.619193 0.325181
O O11 0.782845 0.674763 0.000000
O O12 0.410728 0.818713 0.000000
O O13 0.233071 0.500000 0.500000
O O14 0.317285 0.575239 0.500000
O O15 0.098992 0.000000 0.500000
#
# Coordination Sequence:
#
# PCOD9490892 Si02
#       6
#     8  16  16  16   8   8
#     4   9  16  28  50  83 121 156 189 231 288 354
#     4  10  20  37  62  88 118 154 191 236 292 355
#     4  10  21  38  63  91 116 151 204 258 303 353
#     4   9  17  32  56  87 119 151 194 242 290 352
#     4  11  25  42  58  81 119 161 201 249 302 359
#     4  11  25  41  57  83 116 152 197 244 297 357
#
# _framework density 19.645416999999998
#
# number of rings (size 3 to 8) (size 9 to 14) (size 15 to 20)
#    0.000    2.111    1.111    2.000    0.000    6.222 
#    0.000    5.556    0.000    0.000    0.000    2.333 
#    0.000    0.000    0.000    0.000    0.000    0.000 
#
# Total GULP energy -201014.414803 kJ/mol
# GULP energy per Si atom -5583.733745 kJ/mol
# Density = 1.960070 g / cm^3
# Si number density = 19.645417 Si / 1000 Ang^3
#
#
#
# Elastic Constant Matrix: (Units=GPa)
#
#
# Indices 1 2 3 4 5 6 
#
# 1 125.4744 63.1970 27.8079 0.0000 0.0000 0.0000
# 2 63.1970 131.7119 19.9508 0.0000 0.0000 0.0000
# 3 27.8079 19.9508 52.8801 0.0000 0.0000 0.0000
# 4 0.0000 0.0000 0.0000 33.2867 0.0000 0.0000
# 5 0.0000 0.0000 0.0000 0.0000 8.4572 0.0000
# 6 0.0000 0.0000 0.0000 0.0000 0.0000 32.5684
#
#
#
# Elastic Compliance Matrix: (Units=1/GPa)
#
#
# Indices 1 2 3 4 5 6 
#
# 1 0.011302 -0.004797 -0.004134 0.000000 0.000000 0.000000
# 2 -0.004797 0.010088 -0.001284 0.000000 0.000000 0.000000
# 3 -0.004134 -0.001284 0.021569 0.000000 0.000000 0.000000
# 4 0.000000 0.000000 0.000000 0.030042 0.000000 0.000000
# 5 0.000000 0.000000 0.000000 0.000000 0.118242 0.000000
# 6 0.000000 0.000000 0.000000 0.000000 0.000000 0.030705
#
#
# Mechanical properties :
#
#
# Convention : Reuss Voigt Hill
#
# Bulk Modulus (GPa) = 44.38341 59.10866 51.74603
# Shear Modulus (GPa) = 20.00915 28.13650 24.07282
#
# Velocity S-wave (km/s) = 3.19488 3.78857 3.50432
# Velocity P-wave (km/s) = 6.02088 7.02074 6.53994
#
# Compressibility (1/GPa) = 0.02253094
#
# Stress axis : x y z
#
# Youngs Moduli (GPa) = 88.48225 99.12528 46.36338
#
# Poissons Ratio (x) = 0.47546 0.19164
# Poissons Ratio (y) = 0.42441 0.05952
# Poissons Ratio (z) = 0.36574 0.12725
#
# Static dielectric constant tensor:
#      x y z
#    x 1.694170 0.000000 0.000000 
#    y 0.000000 1.662400 0.000000 
#    z 0.000000 0.000000 1.673980 
# 
# From -- ./inp_files/13619.got.cif
#   From: 2010.05.17/outbox.cif.g08.bks.cpg/sg65_7_cif.got.tgz:13619.got - 2010.06.03 17:01:31.
