data_PCOD9490873
_publ_section_title
;
Structure prediction by ZEFSAII (Michael W. Deem and Ramdas Pophale) SiO2 
 PCOD9490873
Probable space group: C M M M
;
_chemical_formula_sum "Si O2"
_cell_formula_units_Z 74
_cell_length_a 9.852893
_cell_length_b 14.477782
_cell_length_c 26.101525
_cell_angle_alpha 90.000000
_cell_angle_beta 90.000000
_cell_angle_gamma 90.000000
_cell_volume 3723.331302
_symmetry_space_group_name_H-M "C M M M"
_symmetry_group_IT_number 65
_symmetry_cell_setting 'orthorhombic'
loop_
_space_group_symop_operation_xyz
x,y,z
-x,-y,z
x,-y,-z
-x,y,-z
-x,-y,-z
x,y,-z
-x,y,z
x,-y,z
1/2+x,1/2+y,z
1/2-x,1/2-y,z
1/2+x,1/2-y,-z
1/2-x,1/2+y,-z
1/2-x,1/2-y,-z
1/2+x,1/2+y,-z
1/2-x,1/2+y,z
1/2+x,1/2-y,z
loop_
_atom_site_type_symbol
_atom_site_label
_atom_site_fract_x
_atom_site_fract_y
_atom_site_fract_z
Si Si1 0.339278 0.500000 0.209629
Si Si2 0.000000 0.000000 0.500000
Si Si3 0.500000 0.359897 0.942139
Si Si4 0.500000 0.136096 0.058860
Si Si5 0.660882 0.155691 0.612029
Si Si6 0.248763 0.860619 0.871216
Si Si7 0.336235 0.500000 0.668020
Si Si8 0.261167 0.861990 0.500000
O O1 0.500000 0.500000 0.197574
O O2 0.270284 0.412499 0.182093
O O3 0.328258 0.500000 0.270546
O O4 0.120072 0.081456 0.500000
O O5 0.500000 0.247981 0.944978
O O6 0.626638 0.386538 0.908479
O O7 0.500000 0.394022 0.000000
O O8 0.374824 0.110961 0.094292
O O9 0.500000 0.103268 0.000000
O O10 0.500000 0.166181 0.626492
O O11 0.750000 0.250000 0.613279
O O12 0.751230 0.086339 0.646119
O O13 0.665583 0.118206 0.553667
O O14 0.250000 0.750000 0.863437
O O15 0.500000 0.500000 0.653392
O O16 0.250000 0.750000 0.500000
#
# Coordination Sequence:
#
# PCOD9490873 Si02
#       8
#     8   2   8   8  16  16   8   8
#     4  11  24  45  65  87 119 164 222 279 317 382
#     4  12  24  40  66 102 148 216 242 292 364 414
#     4   9  16  31  59  88 121 158 198 241 308 396
#     4   9  18  33  55  89 126 159 193 246 320 391
#     4  11  24  44  71 105 144 180 227 281 347 420
#     4  10  20  37  61  89 120 161 203 256 319 387
#     4  11  26  45  67  92 131 179 232 292 350 398
#     4  10  25  38  73 107 151 189 239 287 353 438
#
# _framework density 19.874673999999999
#
# number of rings (size 3 to 8) (size 9 to 14) (size 15 to 20)
#    0.000    1.730    1.081    2.595    9.081    3.892 
#    3.892    4.865    0.000    0.000    0.000    0.000 
#    0.000    0.000    0.000    0.000    0.000    0.000 
#
# Total GULP energy -206091.776885 kJ/mol
# GULP energy per Si atom -5570.048024 kJ/mol
# Density = 1.982944 g / cm^3
# Si number density = 19.874674 Si / 1000 Ang^3
#
#
#
# Elastic Constant Matrix: (Units=GPa)
#
#
# Indices 1 2 3 4 5 6 
#
# 1 209.0403 56.5582 67.7227 0.0000 0.0000 0.0000
# 2 56.5582 131.7608 51.1892 0.0000 0.0000 0.0000
# 3 67.7227 51.1892 139.7893 0.0000 0.0000 0.0000
# 4 0.0000 0.0000 0.0000 35.6622 0.0000 0.0000
# 5 0.0000 0.0000 0.0000 0.0000 362.0500 0.0000
# 6 0.0000 0.0000 0.0000 0.0000 0.0000 29.5138
#
#
#
# Elastic Compliance Matrix: (Units=1/GPa)
#
#
# Indices 1 2 3 4 5 6 
#
# 1 0.005977 -0.001680 -0.002281 0.000000 0.000000 0.000000
# 2 -0.001680 0.009320 -0.002599 0.000000 0.000000 0.000000
# 3 -0.002281 -0.002599 0.009210 0.000000 0.000000 0.000000
# 4 0.000000 0.000000 0.000000 0.028041 0.000000 0.000000
# 5 0.000000 0.000000 0.000000 0.000000 0.002762 0.000000
# 6 0.000000 0.000000 0.000000 0.000000 0.000000 0.033882
#
#
# Mechanical properties :
#
#
# Convention : Reuss Voigt Hill
#
# Bulk Modulus (GPa) = 87.80652 92.39229 90.09940
# Shear Modulus (GPa) = 47.12169 105.78657 76.45413
#
# Velocity S-wave (km/s) = 4.87451 7.30359 6.20900
# Velocity P-wave (km/s) = 8.71534 10.84949 9.84045
#
# Compressibility (1/GPa) = 0.01138868
#
# Stress axis : x y z
#
# Youngs Moduli (GPa) = 167.30658 107.29255 108.57397
#
# Poissons Ratio (x) = 0.18021 0.24761
# Poissons Ratio (y) = 0.28101 0.28221
# Poissons Ratio (z) = 0.38156 0.27888
#
# Static dielectric constant tensor:
#      x y z
#    x 1.672790 0.000000 0.000000 
#    y 0.000000 1.758440 0.000000 
#    z 0.000000 0.000000 1.664060 
# 
# From -- ./inp_files/72682.got.cif
#   From: 2010.05.17/outbox.cif.g08.bks.cpg/sg65_37_cif.got.tgz:72682.got - 2010.06.03 17:01:31.
