data_PCOD9490580
_publ_section_title
;
Structure prediction by ZEFSAII (Michael W. Deem and Ramdas Pophale) SiO2 
 PCOD9490580
Probable space group: C M M M
;
_chemical_formula_sum "Si O2"
_cell_formula_units_Z 96
_cell_length_a 8.633842
_cell_length_b 19.628612
_cell_length_c 30.833496
_cell_angle_alpha 90.000000
_cell_angle_beta 90.000000
_cell_angle_gamma 90.000000
_cell_volume 5225.362887
_symmetry_space_group_name_H-M "C M M M"
_symmetry_group_IT_number 65
_symmetry_cell_setting 'orthorhombic'
loop_
_space_group_symop_operation_xyz
x,y,z
-x,-y,z
x,-y,-z
-x,y,-z
-x,-y,-z
x,y,-z
-x,y,z
x,-y,z
1/2+x,1/2+y,z
1/2-x,1/2-y,z
1/2+x,1/2-y,-z
1/2-x,1/2+y,-z
1/2-x,1/2-y,-z
1/2+x,1/2+y,-z
1/2-x,1/2+y,z
1/2+x,1/2-y,z
loop_
_atom_site_type_symbol
_atom_site_label
_atom_site_fract_x
_atom_site_fract_y
_atom_site_fract_z
Si Si1 0.313188 0.324429 0.950403
Si Si2 0.312961 0.578312 0.623268
Si Si3 0.684852 0.824672 0.202119
Si Si4 0.686280 0.324307 0.298058
Si Si5 0.312424 0.578966 0.127771
Si Si6 0.314658 0.175859 0.449775
O O1 0.500000 0.321531 0.950078
O O2 0.250000 0.250000 0.938127
O O3 0.264799 0.381219 0.915929
O O4 0.263408 0.338738 0.000000
O O5 0.500000 0.579112 0.621293
O O6 0.261314 0.500000 0.624509
O O7 0.267928 0.619853 0.666431
O O8 0.248897 0.618437 0.581942
O O9 0.500000 0.821649 0.202750
O O10 0.750000 0.750000 0.189784
O O11 0.747315 0.839462 0.250431
O O12 0.743599 0.880439 0.168315
O O13 0.500000 0.321174 0.295513
O O14 0.750000 0.250000 0.311008
O O15 0.500000 0.581591 0.130385
O O16 0.265989 0.500000 0.127157
O O17 0.268554 0.164010 0.500000
O O18 0.500000 0.177679 0.447600
O O19 0.250000 0.250000 0.436864
#
# Coordination Sequence:
#
# PCOD9490580 Si02
#       6
#    16  16  16  16  16  16
#     4   9  18  33  54  79 105 137 179 223 266 315
#     4  10  22  38  56  81 113 148 182 219 268 323
#     4  11  22  37  58  82 108 140 181 225 269 319
#     4  10  20  36  58  82 108 140 181 226 271 320
#     4  10  21  36  54  78 110 146 180 219 270 322
#     4  10  21  37  58  83 110 143 184 228 272 319
#
# _framework density 18.371929999999999
#
# number of rings (size 3 to 8) (size 9 to 14) (size 15 to 20)
#    0.000    2.000    0.000    4.500    0.000    7.667 
#    0.000    5.000    0.000    0.000    0.000    3.500 
#    0.000    0.000    0.000    0.000    0.000    0.000 
#
# Total GULP energy -268134.831082 kJ/mol
# GULP energy per Si atom -5586.142314 kJ/mol
# Density = 1.833011 g / cm^3
# Si number density = 18.371930 Si / 1000 Ang^3
#
#
#
# Elastic Constant Matrix: (Units=GPa)
#
#
# Indices 1 2 3 4 5 6 
#
# 1 40.0032 48.3920 39.5640 0.0000 0.0000 0.0000
# 2 48.3920 199.3415 131.9788 0.0000 0.0000 0.0000
# 3 39.5640 131.9788 125.2343 0.0000 0.0000 0.0000
# 4 0.0000 0.0000 0.0000 -17.3976 0.0000 0.0000
# 5 0.0000 0.0000 0.0000 0.0000 16.7329 0.0000
# 6 0.0000 0.0000 0.0000 0.0000 0.0000 28.9874
#
#
#
# Elastic Compliance Matrix: (Units=1/GPa)
#
#
# Indices 1 2 3 4 5 6 
#
# 1 0.037370 -0.004154 -0.007429 0.000000 0.000000 0.000000
# 2 -0.004154 0.017058 -0.016664 0.000000 0.000000 0.000000
# 3 -0.007429 -0.016664 0.027894 0.000000 0.000000 0.000000
# 4 0.000000 0.000000 0.000000 -0.057479 0.000000 0.000000
# 5 0.000000 0.000000 0.000000 0.000000 0.059763 0.000000
# 6 0.000000 0.000000 0.000000 0.000000 0.000000 0.034498
#
#
# Mechanical properties :
#
#
# Convention : Reuss Voigt Hill
#
# Bulk Modulus (GPa) = 38.71734 89.38316 64.05025
# Shear Modulus (GPa) = 27.14380 15.30749 21.22565
#
# Velocity S-wave (km/s) = 3.84794 2.88965 3.40270
# Velocity P-wave (km/s) = 6.39235 7.73893 7.09765
#
# Compressibility (1/GPa) = 0.02582822
#
# Stress axis : x y z
#
# Youngs Moduli (GPa) = 26.75976 58.62418 35.85053
#
# Poissons Ratio (x) = 0.24350 0.26632
# Poissons Ratio (y) = 0.11115 0.59742
# Poissons Ratio (z) = 0.19879 0.97693
#
# Static dielectric constant tensor:
#      x y z
#    x 1.622060 0.000000 0.000000 
#    y 0.000000 1.602280 0.000000 
#    z 0.000000 0.000000 1.625290 
# 
# From -- ./inp_files/73182.got.cif
#   From: 2010.05.17/outbox.cif.g08.bks.cpg/sg65_37_cif.got.tgz:73182.got - 2010.06.03 17:01:31.
