data_PCOD9490555
_publ_section_title
;
Structure prediction by ZEFSAII (Michael W. Deem and Ramdas Pophale) SiO2 
 PCOD9490555
Probable space group: C M M M
;
_chemical_formula_sum "Si O2"
_cell_formula_units_Z 88
_cell_length_a 20.109380
_cell_length_b 8.294652
_cell_length_c 28.753227
_cell_angle_alpha 90.000000
_cell_angle_beta 90.000000
_cell_angle_gamma 90.000000
_cell_volume 4796.047149
_symmetry_space_group_name_H-M "C M M M"
_symmetry_group_IT_number 65
_symmetry_cell_setting 'orthorhombic'
loop_
_space_group_symop_operation_xyz
x,y,z
-x,-y,z
x,-y,-z
-x,y,-z
-x,-y,-z
x,y,-z
-x,y,z
x,-y,z
1/2+x,1/2+y,z
1/2-x,1/2-y,z
1/2+x,1/2-y,-z
1/2-x,1/2+y,-z
1/2-x,1/2-y,-z
1/2+x,1/2+y,-z
1/2-x,1/2+y,z
1/2+x,1/2-y,z
loop_
_atom_site_type_symbol
_atom_site_label
_atom_site_fract_x
_atom_site_fract_y
_atom_site_fract_z
Si Si1 0.923526 0.805253 0.133242
Si Si2 0.175032 0.194885 0.052676
Si Si3 0.324173 0.806892 0.578981
Si Si4 0.076342 0.305221 0.764842
Si Si5 0.923686 0.807386 0.500000
Si Si6 0.676218 0.194713 0.314651
O O1 0.876202 0.747603 0.091790
O O2 0.900605 0.750329 0.184254
O O3 0.000000 0.750339 0.127162
O O4 0.923713 0.000000 0.132486
O O5 0.250000 0.250000 0.062772
O O6 0.173790 0.000000 0.052834
O O7 0.158202 0.248397 0.000000
O O8 0.250000 0.750000 0.565024
O O9 0.381143 0.747444 0.544565
O O10 0.335994 0.750721 0.632201
O O11 0.323943 0.000000 0.578319
O O12 0.076415 0.500000 0.764284
O O13 0.122806 0.247766 0.722941
O O14 0.000000 0.250328 0.758940
O O15 0.000000 0.746210 0.500000
O O16 0.926095 0.000000 0.500000
O O17 0.750000 0.250000 0.301498
O O18 0.674570 0.000000 0.315073
#
# Coordination Sequence:
#
# PCOD9490555 Si02
#       6
#    16  16  16  16   8  16
#     4   9  18  32  49  70  95 124 161 201 240 286
#     4   9  18  32  49  69  94 124 157 196 242 289
#     4  10  20  36  58  80 104 136 173 211 252 300
#     4   9  18  33  51  71  98 131 164 199 242 289
#     4  11  24  39  54  77 109 139 170 211 256 301
#     4   9  19  34  53  77 102 130 165 205 245 289
#
# _framework density 18.348444000000001
#
# number of rings (size 3 to 8) (size 9 to 14) (size 15 to 20)
#    0.000    2.636    0.000    1.091    0.000    4.727 
#    0.000    7.273    0.000    2.182    0.000    5.091 
#    0.000    0.000    0.000    0.000    0.000    0.000 
#
# Total GULP energy -245424.358135 kJ/mol
# GULP energy per Si atom -5577.826321 kJ/mol
# Density = 1.830668 g / cm^3
# Si number density = 18.348444 Si / 1000 Ang^3
#
#
#
# Elastic Constant Matrix: (Units=GPa)
#
#
# Indices 1 2 3 4 5 6 
#
# 1 134.4571 16.7933 120.2268 0.0000 0.0000 0.0000
# 2 16.7933 13.3870 16.4983 0.0000 0.0000 0.0000
# 3 120.2268 16.4983 153.1846 0.0000 0.0000 0.0000
# 4 0.0000 0.0000 0.0000 24.3234 0.0000 0.0000
# 5 0.0000 0.0000 0.0000 0.0000 85.8853 0.0000
# 6 0.0000 0.0000 0.0000 0.0000 0.0000 25.2739
#
#
#
# Elastic Compliance Matrix: (Units=1/GPa)
#
#
# Indices 1 2 3 4 5 6 
#
# 1 0.025757 -0.008529 -0.019297 0.000000 0.000000 0.000000
# 2 -0.008529 0.088956 -0.002886 0.000000 0.000000 0.000000
# 3 -0.019297 -0.002886 0.021984 0.000000 0.000000 0.000000
# 4 0.000000 0.000000 0.000000 0.041113 0.000000 0.000000
# 5 0.000000 0.000000 0.000000 0.000000 0.011643 0.000000
# 6 0.000000 0.000000 0.000000 0.000000 0.000000 0.039567
#
#
# Mechanical properties :
#
#
# Convention : Reuss Voigt Hill
#
# Bulk Modulus (GPa) = 13.28518 67.56283 40.42401
# Shear Modulus (GPa) = 15.84606 36.93055 26.38830
#
# Velocity S-wave (km/s) = 2.94193 4.49122 3.79644
# Velocity P-wave (km/s) = 4.33545 7.98729 6.42623
#
# Compressibility (1/GPa) = 0.07527183
#
# Stress axis : x y z
#
# Youngs Moduli (GPa) = 38.82409 11.24152 45.48742
#
# Poissons Ratio (x) = 0.09588 0.87777
# Poissons Ratio (y) = 0.33114 0.13130
# Poissons Ratio (z) = 0.74918 0.03245
#
# Static dielectric constant tensor:
#      x y z
#    x 1.609350 0.000000 0.000000 
#    y 0.000000 1.641680 0.000000 
#    z 0.000000 0.000000 1.633190 
# 
# From -- ./inp_files/77791.got.cif
#   From: 2010.05.17/outbox.cif.g08.bks.cpg/sg65_39_cif.got.tgz:77791.got - 2010.06.03 17:01:31.
