data_PCOD9490149
_publ_section_title
;
Structure prediction by ZEFSAII (Michael W. Deem and Ramdas Pophale) SiO2 
 PCOD9490149
Probable space group: C M M M
;
_chemical_formula_sum "Si O2"
_cell_formula_units_Z 104
_cell_length_a 29.152329
_cell_length_b 19.522419
_cell_length_c 8.199494
_cell_angle_alpha 90.000000
_cell_angle_beta 90.000000
_cell_angle_gamma 90.000000
_cell_volume 4666.528672
_symmetry_space_group_name_H-M "C M M M"
_symmetry_group_IT_number 65
_symmetry_cell_setting 'orthorhombic'
loop_
_space_group_symop_operation_xyz
x,y,z
-x,-y,z
x,-y,-z
-x,y,-z
-x,-y,-z
x,y,-z
-x,y,z
x,-y,z
1/2+x,1/2+y,z
1/2-x,1/2-y,z
1/2+x,1/2-y,-z
1/2-x,1/2+y,-z
1/2-x,1/2-y,-z
1/2+x,1/2+y,-z
1/2-x,1/2+y,z
1/2+x,1/2-y,z
loop_
_atom_site_type_symbol
_atom_site_label
_atom_site_fract_x
_atom_site_fract_y
_atom_site_fract_z
Si Si1 0.605873 0.365555 0.811238
Si Si2 0.278870 0.184360 0.310492
Si Si3 0.052353 0.000000 0.199199
Si Si4 0.050451 0.745781 0.315224
Si Si5 0.050896 0.599020 0.812065
Si Si6 0.696971 0.578776 0.688818
Si Si7 0.651586 0.075240 0.305691
O O1 0.578752 0.432105 0.748202
O O2 0.590061 0.299505 0.714644
O O3 0.658872 0.383107 0.793444
O O4 0.593561 0.354736 0.000000
O O5 0.289429 0.204091 0.500000
O O6 0.250000 0.250000 0.241988
O O7 0.243346 0.121409 0.307105
O O8 0.324190 0.145437 0.240621
O O9 0.000000 0.000000 0.252391
O O10 0.053388 0.000000 0.000000
O O11 0.053010 0.718970 0.500000
O O12 0.052457 0.681321 0.198367
O O13 0.000000 0.779447 0.294696
O O14 0.097048 0.576404 0.723342
O O15 0.000000 0.579521 0.747695
O O16 0.053387 0.577637 0.000000
O O17 0.681160 0.579113 0.500000
O O18 0.702432 0.500000 0.739793
O O19 0.660453 0.076067 0.500000
O O20 0.668346 0.000000 0.244016
#
# Coordination Sequence:
#
# PCOD9490149 Si02
#       7
#    16  16   8  16  16  16  16
#     4  11  21  34  53  79 113 153 197 244 299 358
#     4   9  19  36  60  89 117 154 202 251 303 360
#     4   9  18  32  49  71 105 151 199 241 286 345
#     4  10  21  37  57  82 113 151 196 247 301 356
#     4  10  22  40  62  90 124 161 200 244 301 366
#     4  10  20  35  56  82 115 152 194 245 300 356
#     4  10  21  38  62  92 126 163 205 253 306 362
#
# _framework density 22.286373999999999
#
# number of rings (size 3 to 8) (size 9 to 14) (size 15 to 20)
#    0.000    2.077    0.769    2.308    2.154    4.923 
#    0.000    2.308    0.000    4.615    0.000    0.000 
#    0.000    0.000    0.000    0.000    0.000    0.000 
#
# Total GULP energy -290144.664644 kJ/mol
# GULP energy per Si atom -5579.705089 kJ/mol
# Density = 2.223565 g / cm^3
# Si number density = 22.286374 Si / 1000 Ang^3
#
#
#
# Elastic Constant Matrix: (Units=GPa)
#
#
# Indices 1 2 3 4 5 6 
#
# 1 94.7850 34.8816 6.1502 0.0000 0.0000 0.0000
# 2 34.8816 114.0434 13.0429 0.0000 0.0000 0.0000
# 3 6.1502 13.0429 24.2732 0.0000 0.0000 0.0000
# 4 0.0000 0.0000 0.0000 -1.8562 0.0000 0.0000
# 5 0.0000 0.0000 0.0000 0.0000 10.2819 0.0000
# 6 0.0000 0.0000 0.0000 0.0000 0.0000 46.6642
#
#
#
# Elastic Compliance Matrix: (Units=1/GPa)
#
#
# Indices 1 2 3 4 5 6 
#
# 1 0.011917 -0.003516 -0.001130 0.000000 0.000000 0.000000
# 2 -0.003516 0.010380 -0.004687 0.000000 0.000000 0.000000
# 3 -0.001130 -0.004687 0.044002 0.000000 0.000000 0.000000
# 4 0.000000 0.000000 0.000000 -0.538743 0.000000 0.000000
# 5 0.000000 0.000000 0.000000 0.000000 0.097258 0.000000
# 6 0.000000 0.000000 0.000000 0.000000 0.000000 0.021430
#
#
# Mechanical properties :
#
#
# Convention : Reuss Voigt Hill
#
# Bulk Modulus (GPa) = 20.99342 37.91676 29.45509
# Shear Modulus (GPa) = -15.66358 22.95311 3.64476
#
# Velocity S-wave (km/s) = -2.65397 3.21271 1.28022
# Velocity P-wave (km/s) = 0.22103 5.55089 3.92818
#
# Compressibility (1/GPa) = 0.04763398
#
# Stress axis : x y z
#
# Youngs Moduli (GPa) = 83.91104 96.33960 22.72601
#
# Poissons Ratio (x) = 0.33871 0.02569
# Poissons Ratio (y) = 0.29501 0.10651
# Poissons Ratio (z) = 0.09485 0.45152
#
# Static dielectric constant tensor:
#      x y z
#    x 1.881390 0.000000 0.000000 
#    y 0.000000 1.920330 0.000000 
#    z 0.000000 0.000000 1.784660 
# 
# From -- ./inp_files/16507.got.cif
#   From: 2010.05.17/outbox.cif.g08.bks.cpg/sg65_9_cif.got.tgz:16507.got - 2010.06.03 17:01:31.
