data_PCOD9490326
_publ_section_title
;
Structure prediction by ZEFSAII (Michael W. Deem and Ramdas Pophale) SiO2 
 PCOD9490326
Probable space group: C M M M
;
_chemical_formula_sum "Si O2"
_cell_formula_units_Z 88
_cell_length_a 8.921087
_cell_length_b 28.968429
_cell_length_c 18.325560
_cell_angle_alpha 90.000000
_cell_angle_beta 90.000000
_cell_angle_gamma 90.000000
_cell_volume 4735.872187
_symmetry_space_group_name_H-M "C M M M"
_symmetry_group_IT_number 65
_symmetry_cell_setting 'orthorhombic'
loop_
_space_group_symop_operation_xyz
x,y,z
-x,-y,z
x,-y,-z
-x,y,-z
-x,-y,-z
x,y,-z
-x,y,z
x,-y,z
1/2+x,1/2+y,z
1/2-x,1/2-y,z
1/2+x,1/2-y,-z
1/2-x,1/2+y,-z
1/2-x,1/2-y,-z
1/2+x,1/2+y,-z
1/2-x,1/2+y,z
1/2+x,1/2-y,z
loop_
_atom_site_type_symbol
_atom_site_label
_atom_site_fract_x
_atom_site_fract_y
_atom_site_fract_z
Si Si1 0.176120 0.944954 0.217088
Si Si2 0.677238 0.298963 0.691242
Si Si3 0.677562 0.299015 0.133623
Si Si4 0.182409 0.446920 0.500000
Si Si5 0.821441 0.606925 0.083049
Si Si6 0.819950 0.393091 0.646054
O O1 0.243530 0.925585 0.142197
O O2 0.260074 0.920960 0.284180
O O3 0.000000 0.932977 0.220838
O O4 0.192279 0.000000 0.221138
O O5 0.500000 0.298286 0.677625
O O6 0.750000 0.250000 0.671388
O O7 0.699041 0.305150 0.778825
O O8 0.753913 0.341777 0.651291
O O9 0.500000 0.298865 0.118974
O O10 0.750000 0.250000 0.113285
O O11 0.757152 0.341721 0.094968
O O12 0.234676 0.500000 0.500000
O O13 0.227833 0.419756 0.427234
O O14 0.000000 0.448076 0.500000
O O15 0.000000 0.607389 0.095030
O O16 0.791935 0.592120 0.000000
O O17 0.000000 0.391117 0.648210
#
# Coordination Sequence:
#
# PCOD9490326 Si02
#       6
#    16  16  16   8  16  16
#     4  11  24  41  61  86 116 153 198 245 297 356
#     4  10  20  35  58  89 122 156 198 242 289 349
#     4  10  20  35  58  85 118 156 195 241 292 349
#     4   9  20  38  60  91 126 159 198 243 294 349
#     4  11  24  40  59  85 117 153 197 247 297 352
#     4  11  21  37  64  92 122 158 197 243 294 350
#
# _framework density 18.581582000000001
#
# number of rings (size 3 to 8) (size 9 to 14) (size 15 to 20)
#    0.000    1.545    1.818    3.273    0.000    5.818 
#    0.000    4.091    0.000    3.273    0.000    0.000 
#    0.000    0.000    0.000    0.000    0.000    0.000 
#
# Total GULP energy -245985.143588 kJ/mol
# GULP energy per Si atom -5590.571445 kJ/mol
# Density = 1.853929 g / cm^3
# Si number density = 18.581582 Si / 1000 Ang^3
#
#
#
# Elastic Constant Matrix: (Units=GPa)
#
#
# Indices 1 2 3 4 5 6 
#
# 1 89.9570 62.2803 64.7548 0.0000 0.0000 0.0000
# 2 62.2803 109.9524 75.2457 0.0000 0.0000 0.0000
# 3 64.7548 75.2457 115.1552 0.0000 0.0000 0.0000
# 4 0.0000 0.0000 0.0000 -5.5825 0.0000 0.0000
# 5 0.0000 0.0000 0.0000 0.0000 7.4185 0.0000
# 6 0.0000 0.0000 0.0000 0.0000 0.0000 35.7306
#
#
#
# Elastic Compliance Matrix: (Units=1/GPa)
#
#
# Indices 1 2 3 4 5 6 
#
# 1 0.021284 -0.006992 -0.007400 0.000000 0.000000 0.000000
# 2 -0.006992 0.018748 -0.008319 0.000000 0.000000 0.000000
# 3 -0.007400 -0.008319 0.018281 0.000000 0.000000 0.000000
# 4 0.000000 0.000000 0.000000 -0.179132 0.000000 0.000000
# 5 0.000000 0.000000 0.000000 0.000000 0.134798 0.000000
# 6 0.000000 0.000000 0.000000 0.000000 0.000000 0.027987
#
#
# Mechanical properties :
#
#
# Convention : Reuss Voigt Hill
#
# Bulk Modulus (GPa) = 77.56855 79.95847 78.76351
# Shear Modulus (GPa) = 54.53487 15.03225 34.78356
#
# Velocity S-wave (km/s) = 5.42334 2.84735 4.33128
# Velocity P-wave (km/s) = 9.00290 7.34400 8.21543
#
# Compressibility (1/GPa) = 0.01289182
#
# Stress axis : x y z
#
# Youngs Moduli (GPa) = 46.98435 53.33827 54.70165
#
# Poissons Ratio (x) = 0.37292 0.40478
# Poissons Ratio (y) = 0.32850 0.45507
# Poissons Ratio (z) = 0.34768 0.44372
#
# Static dielectric constant tensor:
#      x y z
#    x 1.619130 0.000000 0.000000 
#    y 0.000000 1.617400 0.000000 
#    z 0.000000 0.000000 1.627290 
# 
# From -- ./inp_files/50379.got.cif
#   From: 2010.05.17/outbox.cif.g08.bks.cpg/sg65_26_cif.got.tgz:50379.got - 2010.06.03 17:01:31.
