data_PCOD9490462
_publ_section_title
;
Structure prediction by ZEFSAII (Michael W. Deem and Ramdas Pophale) SiO2 
 PCOD9490462
Probable space group: C M M M
;
_chemical_formula_sum "Si O2"
_cell_formula_units_Z 68
_cell_length_a 22.895325
_cell_length_b 18.111025
_cell_length_c 7.486741
_cell_angle_alpha 90.000000
_cell_angle_beta 90.000000
_cell_angle_gamma 90.000000
_cell_volume 3104.435578
_symmetry_space_group_name_H-M "C M M M"
_symmetry_group_IT_number 65
_symmetry_cell_setting 'orthorhombic'
loop_
_space_group_symop_operation_xyz
x,y,z
-x,-y,z
x,-y,-z
-x,y,-z
-x,-y,-z
x,y,-z
-x,y,z
x,-y,z
1/2+x,1/2+y,z
1/2-x,1/2-y,z
1/2+x,1/2-y,-z
1/2-x,1/2+y,-z
1/2-x,1/2-y,-z
1/2+x,1/2+y,-z
1/2-x,1/2+y,z
1/2+x,1/2-y,z
loop_
_atom_site_type_symbol
_atom_site_label
_atom_site_fract_x
_atom_site_fract_y
_atom_site_fract_z
Si Si1 0.591830 0.143807 0.284621
Si Si2 0.172985 0.917377 0.792798
Si Si3 0.279427 0.822706 0.298348
Si Si4 0.436170 0.684301 0.713474
Si Si5 0.500000 0.092384 0.000000
O O1 0.585776 0.128908 0.500000
O O2 0.660136 0.144058 0.229376
O O3 0.572387 0.229003 0.250052
O O4 0.550934 0.095935 0.157850
O O5 0.228397 0.882264 0.696906
O O6 0.117248 0.864424 0.778792
O O7 0.159086 0.000000 0.729990
O O8 0.189600 0.920506 0.000000
O O9 0.296272 0.798353 0.500000
O O10 0.250000 0.750000 0.211322
O O11 0.436241 0.676772 0.500000
O O12 0.500000 0.661409 0.782046
#
# Coordination Sequence:
#
# PCOD9490462 Si02
#       5
#    16  16  16  16   4
#     4  10  21  35  55  90 121 150 201 248 291 361
#     4  11  25  39  54  82 120 156 199 248 293 355
#     4  10  20  37  61  85 112 149 198 254 298 347
#     4  10  20  36  56  78 114 156 198 245 289 344
#     4  12  22  32  58  86 122 168 176 238 318 360
#
# _framework density 21.904142
#
# number of rings (size 3 to 8) (size 9 to 14) (size 15 to 20)
#    0.000    1.647    3.529    1.059    3.294    3.294 
#    0.000    2.353    0.000    0.000    0.000    1.647 
#    0.000    3.765    0.000    0.000    0.000    0.000 
#
# Total GULP energy -189315.066216 kJ/mol
# GULP energy per Si atom -5568.090183 kJ/mol
# Density = 2.185429 g / cm^3
# Si number density = 21.904142 Si / 1000 Ang^3
#
#
#
# Elastic Constant Matrix: (Units=GPa)
#
#
# Indices 1 2 3 4 5 6 
#
# 1 186.9097 11.0236 27.8459 0.0000 0.0000 0.0000
# 2 11.0236 45.1232 13.2414 0.0000 0.0000 0.0000
# 3 27.8459 13.2414 91.4442 0.0000 0.0000 0.0000
# 4 0.0000 0.0000 0.0000 2.0989 0.0000 0.0000
# 5 0.0000 0.0000 0.0000 0.0000 36.2036 0.0000
# 6 0.0000 0.0000 0.0000 0.0000 0.0000 133.3671
#
#
#
# Elastic Compliance Matrix: (Units=1/GPa)
#
#
# Indices 1 2 3 4 5 6 
#
# 1 0.005640 -0.000913 -0.001585 0.000000 0.000000 0.000000
# 2 -0.000913 0.023293 -0.003095 0.000000 0.000000 0.000000
# 3 -0.001585 -0.003095 0.011867 0.000000 0.000000 0.000000
# 4 0.000000 0.000000 0.000000 0.476447 0.000000 0.000000
# 5 0.000000 0.000000 0.000000 0.000000 0.027622 0.000000
# 6 0.000000 0.000000 0.000000 0.000000 0.000000 0.007498
#
#
# Mechanical properties :
#
#
# Convention : Reuss Voigt Hill
#
# Bulk Modulus (GPa) = 33.76836 47.52210 40.64523
# Shear Modulus (GPa) = 8.71957 52.42499 30.57228
#
# Velocity S-wave (km/s) = 1.99736 4.89753 3.74000
# Velocity P-wave (km/s) = 4.55732 7.32964 6.10298
#
# Compressibility (1/GPa) = 0.02961352
#
# Stress axis : x y z
#
# Youngs Moduli (GPa) = 177.29888 42.93189 84.27053
#
# Poissons Ratio (x) = 0.03918 0.13360
# Poissons Ratio (y) = 0.16182 0.26081
# Poissons Ratio (z) = 0.28108 0.13287
#
# Static dielectric constant tensor:
#      x y z
#    x 1.829550 0.000000 0.000000 
#    y 0.000000 1.809300 0.000000 
#    z 0.000000 0.000000 1.841470 
# 
# From -- ./inp_files/10930.got.cif
#   From: 2010.05.17/outbox.cif.g08.bks.cpg/sg65_6_cif.got.tgz:10930.got - 2010.06.03 17:01:31.
