data_PCOD9490015
_publ_section_title
;
Structure prediction by ZEFSAII (Michael W. Deem and Ramdas Pophale) SiO2 
 PCOD9490015
Probable space group: C M M M
;
_chemical_formula_sum "Si O2"
_cell_formula_units_Z 104
_cell_length_a 20.785209
_cell_length_b 25.352814
_cell_length_c 8.868373
_cell_angle_alpha 90.000000
_cell_angle_beta 90.000000
_cell_angle_gamma 90.000000
_cell_volume 4673.309210
_symmetry_space_group_name_H-M "C M M M"
_symmetry_group_IT_number 65
_symmetry_cell_setting 'orthorhombic'
loop_
_space_group_symop_operation_xyz
x,y,z
-x,-y,z
x,-y,-z
-x,y,-z
-x,-y,-z
x,y,-z
-x,y,z
x,-y,z
1/2+x,1/2+y,z
1/2-x,1/2-y,z
1/2+x,1/2-y,-z
1/2-x,1/2+y,-z
1/2-x,1/2-y,-z
1/2+x,1/2+y,-z
1/2-x,1/2+y,z
1/2+x,1/2-y,z
loop_
_atom_site_type_symbol
_atom_site_label
_atom_site_fract_x
_atom_site_fract_y
_atom_site_fract_z
Si Si1 0.243737 0.586478 0.673957
Si Si2 0.074976 0.776776 0.820257
Si Si3 0.000000 0.935200 0.326492
Si Si4 0.076497 0.665889 0.667986
Si Si5 0.117813 0.557902 0.822325
Si Si6 0.791954 0.200659 0.320990
Si Si7 0.627637 0.437481 0.167655
O O1 0.227822 0.574647 0.500000
O O2 0.193543 0.559888 0.785455
O O3 0.247489 0.649231 0.697528
O O4 0.314946 0.568868 0.715924
O O5 0.090963 0.716214 0.771445
O O6 0.137609 0.806478 0.753317
O O7 0.000000 0.787834 0.769033
O O8 0.075031 0.781971 0.000000
O O9 0.937828 0.915906 0.237216
O O10 0.000000 0.918268 0.500000
O O11 0.000000 0.000000 0.328316
O O12 0.105332 0.672240 0.500000
O O13 0.092957 0.609066 0.735588
O O14 0.000000 0.666782 0.654012
O O15 0.092899 0.500000 0.774268
O O16 0.105716 0.563348 0.000000
O O17 0.803279 0.207601 0.500000
O O18 0.750000 0.250000 0.263980
O O19 0.617477 0.500000 0.152166
O O20 0.642076 0.416260 0.000000
#
# Coordination Sequence:
#
# PCOD9490015 Si02
#       7
#    16  16   8  16  16  16  16
#     4  11  23  38  58  85 114 150 196 243 293 350
#     4  10  21  38  62  92 123 157 199 246 300 363
#     4   9  17  31  53  79 105 137 181 229 275 327
#     4  10  21  38  62  90 120 157 198 240 290 351
#     4  11  24  40  59  86 121 159 198 245 300 354
#     4  10  22  40  61  86 116 152 197 247 299 357
#     4  10  20  35  55  79 110 148 188 231 283 341
#
# _framework density 22.254035999999999
#
# number of rings (size 3 to 8) (size 9 to 14) (size 15 to 20)
#    0.000    1.769    0.000    3.923    0.000    9.846 
#    1.385    1.538    0.000    0.000    0.000    0.000 
#    0.000    0.000    0.000    0.000    0.000    0.000 
#
# Total GULP energy -290534.825839 kJ/mol
# GULP energy per Si atom -5587.208189 kJ/mol
# Density = 2.220339 g / cm^3
# Si number density = 22.254036 Si / 1000 Ang^3
#
#
#
# Elastic Constant Matrix: (Units=GPa)
#
#
# Indices 1 2 3 4 5 6 
#
# 1 45.8045 1.1133 -1.1992 0.0000 0.0000 0.0000
# 2 1.1133 60.4840 12.4216 0.0000 0.0000 0.0000
# 3 -1.1992 12.4216 49.8927 0.0000 0.0000 0.0000
# 4 0.0000 0.0000 0.0000 24.2383 0.0000 0.0000
# 5 0.0000 0.0000 0.0000 0.0000 32.8895 0.0000
# 6 0.0000 0.0000 0.0000 0.0000 0.0000 -63.8111
#
#
#
# Elastic Compliance Matrix: (Units=1/GPa)
#
#
# Indices 1 2 3 4 5 6 
#
# 1 0.021862 -0.000538 0.000659 0.000000 0.000000 0.000000
# 2 -0.000538 0.017437 -0.004354 0.000000 0.000000 0.000000
# 3 0.000659 -0.004354 0.021143 0.000000 0.000000 0.000000
# 4 0.000000 0.000000 0.000000 0.041257 0.000000 0.000000
# 5 0.000000 0.000000 0.000000 0.000000 0.030405 0.000000
# 6 0.000000 0.000000 0.000000 0.000000 0.000000 -0.015671
#
#
# Mechanical properties :
#
#
# Convention : Reuss Voigt Hill
#
# Bulk Modulus (GPa) = 19.23920 20.09472 19.66696
# Shear Modulus (GPa) = 35.15573 8.25305 21.70439
#
# Velocity S-wave (km/s) = 3.97891 1.92785 3.12637
# Velocity P-wave (km/s) = 5.45647 3.74230 4.67856
#
# Compressibility (1/GPa) = 0.05197722
#
# Stress axis : x y z
#
# Youngs Moduli (GPa) = 45.74090 57.34791 47.29719
#
# Poissons Ratio (x) = 0.03084 -0.03119
# Poissons Ratio (y) = 0.02460 0.20594
# Poissons Ratio (z) = -0.03016 0.24971
#
# Static dielectric constant tensor:
#      x y z
#    x 1.844810 0.000000 0.000000 
#    y 0.000000 1.884090 0.000000 
#    z 0.000000 0.000000 1.779010 
# 
# From -- ./inp_files/12386.got.cif
#   From: 2010.05.17/outbox.cif.g08.bks.cpg/sg65_7_cif.got.tgz:12386.got - 2010.06.03 17:01:31.
