data_PCOD9490956
_publ_section_title
;
Structure prediction by ZEFSAII (Michael W. Deem and Ramdas Pophale) SiO2 
 PCOD9490956
Probable space group: C M M M
;
_chemical_formula_sum "Si O2"
_cell_formula_units_Z 66
_cell_length_a 10.200764
_cell_length_b 14.491879
_cell_length_c 20.417559
_cell_angle_alpha 90.000000
_cell_angle_beta 90.000000
_cell_angle_gamma 90.000000
_cell_volume 3018.291763
_symmetry_space_group_name_H-M "C M M M"
_symmetry_group_IT_number 65
_symmetry_cell_setting 'orthorhombic'
loop_
_space_group_symop_operation_xyz
x,y,z
-x,-y,z
x,-y,-z
-x,y,-z
-x,-y,-z
x,y,-z
-x,y,z
x,-y,z
1/2+x,1/2+y,z
1/2-x,1/2-y,z
1/2+x,1/2-y,-z
1/2-x,1/2+y,-z
1/2-x,1/2-y,-z
1/2+x,1/2+y,-z
1/2-x,1/2+y,z
1/2+x,1/2-y,z
loop_
_atom_site_type_symbol
_atom_site_label
_atom_site_fract_x
_atom_site_fract_y
_atom_site_fract_z
Si Si1 0.144678 0.107842 0.145976
Si Si2 0.350785 0.886988 0.251383
Si Si3 0.753349 0.860919 0.500000
Si Si4 0.850380 0.832283 0.000000
Si Si5 0.357136 0.608371 0.356460
Si Si6 0.000000 0.500000 0.500000
O O1 0.265973 0.143108 0.188421
O O2 0.167090 0.114672 0.068219
O O3 0.000000 0.148773 0.160431
O O4 0.136116 0.000000 0.162851
O O5 0.500000 0.854007 0.251639
O O6 0.265826 0.857223 0.314286
O O7 0.358280 0.000000 0.251641
O O8 0.750000 0.750000 0.500000
O O9 0.827833 0.885580 0.566848
O O10 0.616822 0.918460 0.500000
O O11 0.750000 0.750000 0.000000
O O12 0.000000 0.798144 0.000000
O O13 0.500000 0.649916 0.341090
O O14 0.365020 0.500000 0.339609
#
# Coordination Sequence:
#
# PCOD9490956 Si02
#       6
#    16  16   8   8  16   2
#     4   9  17  33  56  82 109 145 194 246 298 367
#     4   9  18  31  54  86 119 154 200 253 319 384
#     4  12  27  43  69 101 137 185 236 285 358 424
#     4  10  21  35  53  77 107 148 188 236 300 370
#     4  10  20  38  61  88 125 171 216 269 331 400
#     4  12  28  48  74 106 152 188 234 314 368 402
#
# _framework density 21.866672999999999
#
# number of rings (size 3 to 8) (size 9 to 14) (size 15 to 20)
#    0.000    2.182    1.212    1.455    3.394    6.303 
#    0.000    1.212    0.000    3.636    0.000    0.000 
#    0.000    0.000    0.000    0.000    0.000    0.000 
#
# Total GULP energy -183908.051990 kJ/mol
# GULP energy per Si atom -5572.971272 kJ/mol
# Density = 2.181690 g / cm^3
# Si number density = 21.866673 Si / 1000 Ang^3
#
#
#
# Elastic Constant Matrix: (Units=GPa)
#
#
# Indices 1 2 3 4 5 6 
#
# 1 230.2367 27.3033 111.3626 0.0000 0.0000 0.0000
# 2 27.3033 79.2604 -7.6473 0.0000 0.0000 0.0000
# 3 111.3626 -7.6473 149.1708 0.0000 0.0000 0.0000
# 4 0.0000 0.0000 0.0000 -74.1924 0.0000 0.0000
# 5 0.0000 0.0000 0.0000 0.0000 25.3786 0.0000
# 6 0.0000 0.0000 0.0000 0.0000 0.0000 11.2471
#
#
#
# Elastic Compliance Matrix: (Units=1/GPa)
#
#
# Indices 1 2 3 4 5 6 
#
# 1 0.007503 -0.003141 -0.005762 0.000000 0.000000 0.000000
# 2 -0.003141 0.013994 0.003062 0.000000 0.000000 0.000000
# 3 -0.005762 0.003062 0.011162 0.000000 0.000000 0.000000
# 4 0.000000 0.000000 0.000000 -0.013478 0.000000 0.000000
# 5 0.000000 0.000000 0.000000 0.000000 0.039403 0.000000
# 6 0.000000 0.000000 0.000000 0.000000 0.000000 0.088912
#
#
# Mechanical properties :
#
#
# Convention : Reuss Voigt Hill
#
# Bulk Modulus (GPa) = 47.66986 80.07835 63.87411
# Shear Modulus (GPa) = 30.08964 14.32995 22.20980
#
# Velocity S-wave (km/s) = 3.71354 2.56272 3.19045
# Velocity P-wave (km/s) = 6.34309 6.74221 6.54569
#
# Compressibility (1/GPa) = 0.02097761
#
# Stress axis : x y z
#
# Youngs Moduli (GPa) = 133.28143 71.45970 89.58577
#
# Poissons Ratio (x) = 0.22442 0.51622
# Poissons Ratio (y) = 0.41858 -0.27431
# Poissons Ratio (z) = 0.76800 -0.21881
#
# Static dielectric constant tensor:
#      x y z
#    x 1.812710 0.000000 0.000000 
#    y 0.000000 1.826280 0.000000 
#    z 0.000000 0.000000 1.811350 
# 
# From -- ./inp_files/58997.got.cif
#   From: 2010.05.17/outbox.cif.g08.bks.cpg/sg65_30_cif.got.tgz:58997.got - 2010.06.03 17:01:31.
