data_PCOD9490414
_publ_section_title
;
Structure prediction by ZEFSAII (Michael W. Deem and Ramdas Pophale) SiO2 
 PCOD9490414
Probable space group: C M M M
;
_chemical_formula_sum "Si O2"
_cell_formula_units_Z 96
_cell_length_a 23.153500
_cell_length_b 16.807241
_cell_length_c 12.892046
_cell_angle_alpha 90.000000
_cell_angle_beta 90.000000
_cell_angle_gamma 90.000000
_cell_volume 5016.893992
_symmetry_space_group_name_H-M "C M M M"
_symmetry_group_IT_number 65
_symmetry_cell_setting 'orthorhombic'
loop_
_space_group_symop_operation_xyz
x,y,z
-x,-y,z
x,-y,-z
-x,y,-z
-x,-y,-z
x,y,-z
-x,y,z
x,-y,z
1/2+x,1/2+y,z
1/2-x,1/2-y,z
1/2+x,1/2-y,-z
1/2-x,1/2+y,-z
1/2-x,1/2-y,-z
1/2+x,1/2+y,-z
1/2-x,1/2+y,z
1/2+x,1/2-y,z
loop_
_atom_site_type_symbol
_atom_site_label
_atom_site_fract_x
_atom_site_fract_y
_atom_site_fract_z
Si Si1 0.069468 0.312544 0.000000
Si Si2 0.804703 0.846674 0.665855
Si Si3 0.273087 0.405669 0.882437
Si Si4 0.669980 0.169022 0.616083
Si Si5 0.568820 0.500000 0.164241
Si Si6 0.122455 0.000000 0.387490
Si Si7 0.362194 0.906671 0.827598
Si Si8 0.929509 0.871007 0.000000
O O1 0.095780 0.356148 0.100152
O O2 0.088090 0.220162 0.000000
O O3 0.000000 0.316611 0.000000
O O4 0.800759 0.855051 0.790440
O O5 0.738621 0.848555 0.626701
O O6 0.833431 0.763905 0.633905
O O7 0.838100 0.921867 0.621625
O O8 0.285737 0.500000 0.865575
O O9 0.203702 0.397235 0.869152
O O10 0.288747 0.384143 0.000000
O O11 0.650905 0.148380 0.500000
O O12 0.638842 0.123435 0.709193
O O13 0.500000 0.500000 0.156087
O O14 0.584877 0.500000 0.283658
O O15 0.589078 0.422542 0.100054
O O16 0.092769 0.000000 0.500000
O O17 0.376205 0.000000 0.833607
O O18 0.000000 0.870554 0.000000
#
# Coordination Sequence:
#
# PCOD9490414 Si02
#       8
#     8  16  16  16   8   8  16   8
#     4  11  22  38  64  90 115 142 179 233 293 345
#     4  10  20  36  51  82 114 155 196 236 284 329
#     4   9  16  32  51  72 113 152 184 226 274 338
#     4  10  21  38  57  77 113 156 197 236 276 336
#     4   9  20  41  63  83 115 154 193 235 282 338
#     4  12  23  34  54  86 121 150 193 245 286 335
#     4  10  21  36  57  84 112 145 184 228 283 345
#     4   8  18  40  64  84 108 143 187 233 277 339
#
# _framework density 19.135345999999998
#
# number of rings (size 3 to 8) (size 9 to 14) (size 15 to 20)
#    0.000    2.167    1.667    2.750    3.500    1.167 
#    4.500    1.667    0.000    0.500    0.000    1.167 
#    0.000    0.000    0.000    0.000    0.000    0.000 
#
# Total GULP energy -268266.935024 kJ/mol
# GULP energy per Si atom -5588.894480 kJ/mol
# Density = 1.909179 g / cm^3
# Si number density = 19.135346 Si / 1000 Ang^3
#
#
#
# Elastic Constant Matrix: (Units=GPa)
#
#
# Indices 1 2 3 4 5 6 
#
# 1 44.8524 38.9858 30.1341 0.0000 0.0000 0.0000
# 2 38.9858 118.2226 64.8262 0.0000 0.0000 0.0000
# 3 30.1341 64.8262 200.6079 0.0000 0.0000 0.0000
# 4 0.0000 0.0000 0.0000 18.3352 0.0000 0.0000
# 5 0.0000 0.0000 0.0000 0.0000 18.4435 0.0000
# 6 0.0000 0.0000 0.0000 0.0000 0.0000 21.8027
#
#
#
# Elastic Compliance Matrix: (Units=1/GPa)
#
#
# Indices 1 2 3 4 5 6 
#
# 1 0.031714 -0.009536 -0.001682 0.000000 0.000000 0.000000
# 2 -0.009536 0.013147 -0.002816 0.000000 0.000000 0.000000
# 3 -0.001682 -0.002816 0.006148 0.000000 0.000000 0.000000
# 4 0.000000 0.000000 0.000000 0.054540 0.000000 0.000000
# 5 0.000000 0.000000 0.000000 0.000000 0.054220 0.000000
# 6 0.000000 0.000000 0.000000 0.000000 0.000000 0.045866
#
#
# Mechanical properties :
#
#
# Convention : Reuss Voigt Hill
#
# Bulk Modulus (GPa) = 43.59098 70.17501 56.88299
# Shear Modulus (GPa) = 20.71678 27.03205 23.87442
#
# Velocity S-wave (km/s) = 3.29393 3.76264 3.53606
# Velocity P-wave (km/s) = 6.10708 7.45850 6.81636
#
# Compressibility (1/GPa) = 0.02294053
#
# Stress axis : x y z
#
# Youngs Moduli (GPa) = 31.53164 76.06066 162.66454
#
# Poissons Ratio (x) = 0.72529 0.27367
# Poissons Ratio (y) = 0.30068 0.45809
# Poissons Ratio (z) = 0.05305 0.21420
#
# Static dielectric constant tensor:
#      x y z
#    x 1.675880 0.000000 0.000000 
#    y 0.000000 1.650620 0.000000 
#    z 0.000000 0.000000 1.683780 
# 
# From -- ./inp_files/30882.got.cif
#   From: 2010.05.17/outbox.cif.g08.bks.cpg/sg65_16_cif.got.tgz:30882.got - 2010.06.03 17:01:31.
