data_PCOD9490744
_publ_section_title
;
Structure prediction by ZEFSAII (Michael W. Deem and Ramdas Pophale) SiO2 
 PCOD9490744
Probable space group: C M M M
;
_chemical_formula_sum "Si O2"
_cell_formula_units_Z 82
_cell_length_a 20.485655
_cell_length_b 11.303975
_cell_length_c 15.327210
_cell_angle_alpha 90.000000
_cell_angle_beta 90.000000
_cell_angle_gamma 90.000000
_cell_volume 3549.311781
_symmetry_space_group_name_H-M "C M M M"
_symmetry_group_IT_number 65
_symmetry_cell_setting 'orthorhombic'
loop_
_space_group_symop_operation_xyz
x,y,z
-x,-y,z
x,-y,-z
-x,y,-z
-x,-y,-z
x,y,-z
-x,y,z
x,-y,z
1/2+x,1/2+y,z
1/2-x,1/2-y,z
1/2+x,1/2-y,-z
1/2-x,1/2+y,-z
1/2-x,1/2-y,-z
1/2+x,1/2+y,-z
1/2-x,1/2+y,z
1/2+x,1/2-y,z
loop_
_atom_site_type_symbol
_atom_site_label
_atom_site_fract_x
_atom_site_fract_y
_atom_site_fract_z
Si Si1 0.820885 0.719067 0.101275
Si Si2 0.602991 0.000000 0.837736
Si Si3 0.785265 0.868340 0.398839
Si Si4 0.426366 0.000000 0.362607
Si Si5 0.923236 0.236018 0.631960
Si Si6 0.570757 0.361851 0.825206
Si Si7 0.000000 0.500000 0.000000
O O1 0.750000 0.750000 0.134549
O O2 0.851934 0.613369 0.153832
O O3 0.870517 0.826936 0.112939
O O4 0.815744 0.685307 0.000000
O O5 0.555767 0.000000 0.921548
O O6 0.571493 0.000000 0.742742
O O7 0.764365 0.873840 0.500000
O O8 0.750000 0.750000 0.360648
O O9 0.863775 0.846548 0.398417
O O10 0.771455 0.000000 0.359826
O O11 0.400663 0.129154 0.388482
O O12 0.500000 0.000000 0.395753
O O13 0.925623 0.211288 0.735727
O O14 0.000000 0.218727 0.603450
O O15 0.500000 0.334715 0.866602
O O16 0.572827 0.500000 0.803161
#
# Coordination Sequence:
#
# PCOD9490744 Si02
#       7
#    16   8  16   8  16  16   2
#     4  11  25  40  57  81 118 156 195 252 313 372
#     4  12  22  40  62  91 113 153 210 260 309 368
#     4  10  23  43  67  96 131 171 211 256 309 372
#     4  10  20  36  61  92 128 159 200 263 325 372
#     4  10  21  39  64  93 126 161 205 259 317 373
#     4  10  22  39  60  84 114 156 201 248 301 366
#     4  12  24  32  76  96 110 152 216 272 312 386
#
# _framework density 23.103069000000001
#
# number of rings (size 3 to 8) (size 9 to 14) (size 15 to 20)
#    0.000    1.561    3.415    0.585    4.098    3.122 
#    0.000    1.951    0.000    1.756    0.000    0.000 
#    0.000    0.000    0.000    0.000    0.000    0.000 
#
# Total GULP energy -228624.371434 kJ/mol
# GULP energy per Si atom -5576.204181 kJ/mol
# Density = 2.305048 g / cm^3
# Si number density = 23.103069 Si / 1000 Ang^3
#
#
#
# Elastic Constant Matrix: (Units=GPa)
#
#
# Indices 1 2 3 4 5 6 
#
# 1 140.9072 54.0523 15.7658 0.0000 0.0000 0.0000
# 2 54.0523 151.6481 -1.3037 0.0000 0.0000 0.0000
# 3 15.7658 -1.3037 51.1601 0.0000 0.0000 0.0000
# 4 0.0000 0.0000 0.0000 14.2070 0.0000 0.0000
# 5 0.0000 0.0000 0.0000 0.0000 21.6273 0.0000
# 6 0.0000 0.0000 0.0000 0.0000 0.0000 50.6362
#
#
#
# Elastic Compliance Matrix: (Units=1/GPa)
#
#
# Indices 1 2 3 4 5 6 
#
# 1 0.008584 -0.003083 -0.002724 0.000000 0.000000 0.000000
# 2 -0.003083 0.007703 0.001146 0.000000 0.000000 0.000000
# 3 -0.002724 0.001146 0.020415 0.000000 0.000000 0.000000
# 4 0.000000 0.000000 0.000000 0.070388 0.000000 0.000000
# 5 0.000000 0.000000 0.000000 0.000000 0.046238 0.000000
# 6 0.000000 0.000000 0.000000 0.000000 0.000000 0.019749
#
#
# Mechanical properties :
#
#
# Convention : Reuss Voigt Hill
#
# Bulk Modulus (GPa) = 36.52158 53.41603 44.96881
# Shear Modulus (GPa) = 26.10617 35.64082 30.87350
#
# Velocity S-wave (km/s) = 3.36517 3.93197 3.65956
# Velocity P-wave (km/s) = 5.56252 6.61701 6.11254
#
# Compressibility (1/GPa) = 0.02738107
#
# Stress axis : x y z
#
# Youngs Moduli (GPa) = 116.49100 129.81942 48.98327
#
# Poissons Ratio (x) = 0.40025 0.13343
# Poissons Ratio (y) = 0.35916 -0.05616
# Poissons Ratio (z) = 0.31732 -0.14883
#
# Static dielectric constant tensor:
#      x y z
#    x 1.854250 0.000000 0.000000 
#    y 0.000000 1.896510 0.000000 
#    z 0.000000 0.000000 1.845170 
# 
# From -- ./inp_files/55624.got.cif
#   From: 2010.05.17/outbox.cif.g08.bks.cpg/sg65_28_cif.got.tgz:55624.got - 2010.06.03 17:01:31.
