data_PCOD9490937
_publ_section_title
;
Structure prediction by ZEFSAII (Michael W. Deem and Ramdas Pophale) SiO2 
 PCOD9490937
Probable space group: C M M M
;
_chemical_formula_sum "Si O2"
_cell_formula_units_Z 88
_cell_length_a 28.958009
_cell_length_b 18.577369
_cell_length_c 8.994904
_cell_angle_alpha 90.000000
_cell_angle_beta 90.000000
_cell_angle_gamma 90.000000
_cell_volume 4838.931106
_symmetry_space_group_name_H-M "C M M M"
_symmetry_group_IT_number 65
_symmetry_cell_setting 'orthorhombic'
loop_
_space_group_symop_operation_xyz
x,y,z
-x,-y,z
x,-y,-z
-x,y,-z
-x,-y,-z
x,y,-z
-x,y,z
x,-y,z
1/2+x,1/2+y,z
1/2-x,1/2-y,z
1/2+x,1/2-y,-z
1/2-x,1/2+y,-z
1/2-x,1/2-y,-z
1/2+x,1/2+y,-z
1/2-x,1/2+y,z
1/2+x,1/2-y,z
loop_
_atom_site_type_symbol
_atom_site_label
_atom_site_fract_x
_atom_site_fract_y
_atom_site_fract_z
Si Si1 0.220209 0.177405 0.675359
Si Si2 0.110903 0.369268 0.321723
Si Si3 0.614305 0.294031 0.320978
Si Si4 0.294620 0.086029 0.172185
Si Si5 0.554336 0.419125 0.178578
Si Si6 0.945113 0.500000 0.177301
O O1 0.220503 0.158574 0.500000
O O2 0.250000 0.250000 0.692560
O O3 0.167721 0.192540 0.721488
O O4 0.246577 0.117128 0.768326
O O5 0.107928 0.375547 0.500000
O O6 0.099583 0.287020 0.277852
O O7 0.163376 0.383862 0.270348
O O8 0.078838 0.429414 0.246767
O O9 0.612101 0.297172 0.500000
O O10 0.583078 0.355986 0.252540
O O11 0.295449 0.000000 0.182220
O O12 0.301681 0.106556 0.000000
O O13 0.500000 0.411922 0.213820
O O14 0.569096 0.500000 0.224629
O O15 0.558828 0.415078 0.000000
O O16 0.000000 0.500000 0.205417
O O17 0.937228 0.500000 0.000000
#
# Coordination Sequence:
#
# PCOD9490937 Si02
#       6
#    16  16  16  16  16   8
#     4  10  20  38  58  80 116 156 195 236 287 345
#     4  11  22  39  62  85 115 157 201 244 297 359
#     4  10  22  38  60  91 121 152 197 249 294 349
#     4  11  23  37  56  85 118 152 198 246 290 346
#     4   9  20  40  63  86 116 155 194 235 293 362
#     4  11  25  43  61  87 123 157 199 257 308 355
#
# _framework density 18.185832999999999
#
# number of rings (size 3 to 8) (size 9 to 14) (size 15 to 20)
#    0.000    1.727    2.727    1.909    0.000    6.545 
#    0.000    8.182    0.000    0.000    0.000    0.000 
#    0.000    0.000    0.000    0.000    0.000    0.000 
#
# Total GULP energy -245738.402103 kJ/mol
# GULP energy per Si atom -5584.963684 kJ/mol
# Density = 1.814444 g / cm^3
# Si number density = 18.185833 Si / 1000 Ang^3
#
#
#
# Elastic Constant Matrix: (Units=GPa)
#
#
# Indices 1 2 3 4 5 6 
#
# 1 102.8839 88.6552 43.6175 0.0000 0.0000 0.0000
# 2 88.6552 159.2493 58.4560 0.0000 0.0000 0.0000
# 3 43.6175 58.4560 46.0560 0.0000 0.0000 0.0000
# 4 0.0000 0.0000 0.0000 46.6266 0.0000 0.0000
# 5 0.0000 0.0000 0.0000 0.0000 35.6181 0.0000
# 6 0.0000 0.0000 0.0000 0.0000 0.0000 36.3560
#
#
#
# Elastic Compliance Matrix: (Units=1/GPa)
#
#
# Indices 1 2 3 4 5 6 
#
# 1 0.020600 -0.008064 -0.009275 0.000000 0.000000 0.000000
# 2 -0.008064 0.014914 -0.011292 0.000000 0.000000 0.000000
# 3 -0.009275 -0.011292 0.044829 0.000000 0.000000 0.000000
# 4 0.000000 0.000000 0.000000 0.021447 0.000000 0.000000
# 5 0.000000 0.000000 0.000000 0.000000 0.028076 0.000000
# 6 0.000000 0.000000 0.000000 0.000000 0.000000 0.027506
#
#
# Mechanical properties :
#
#
# Convention : Reuss Voigt Hill
#
# Bulk Modulus (GPa) = 43.32487 76.62742 59.97615
# Shear Modulus (GPa) = 22.48949 31.55085 27.02017
#
# Velocity S-wave (km/s) = 3.52042 4.16975 3.85877
# Velocity P-wave (km/s) = 6.35607 8.08762 7.27356
#
# Compressibility (1/GPa) = 0.02308143
#
# Stress axis : x y z
#
# Youngs Moduli (GPa) = 48.54289 67.05243 22.30716
#
# Poissons Ratio (x) = 0.54070 0.20689
# Poissons Ratio (y) = 0.39144 0.25189
# Poissons Ratio (z) = 0.45022 0.75716
#
# Static dielectric constant tensor:
#      x y z
#    x 1.601690 0.000000 0.000000 
#    y 0.000000 1.614460 0.000000 
#    z 0.000000 0.000000 1.614500 
# 
# From -- ./inp_files/18280.got.cif
#   From: 2010.05.17/outbox.cif.g08.bks.cpg/sg65_10_cif.got.tgz:18280.got - 2010.06.03 17:01:31.
