data_PCOD9490108
_publ_section_title
;
Structure prediction by ZEFSAII (Michael W. Deem and Ramdas Pophale) SiO2 
 PCOD9490108
Probable space group: C M M M
;
_chemical_formula_sum "Si O2"
_cell_formula_units_Z 72
_cell_length_a 24.578966
_cell_length_b 18.321281
_cell_length_c 7.636508
_cell_angle_alpha 90.000000
_cell_angle_beta 90.000000
_cell_angle_gamma 90.000000
_cell_volume 3438.858100
_symmetry_space_group_name_H-M "C M M M"
_symmetry_group_IT_number 65
_symmetry_cell_setting 'orthorhombic'
loop_
_space_group_symop_operation_xyz
x,y,z
-x,-y,z
x,-y,-z
-x,y,-z
-x,-y,-z
x,y,-z
-x,y,z
x,-y,z
1/2+x,1/2+y,z
1/2-x,1/2-y,z
1/2+x,1/2-y,-z
1/2-x,1/2+y,-z
1/2-x,1/2-y,-z
1/2+x,1/2+y,-z
1/2-x,1/2+y,z
1/2+x,1/2-y,z
loop_
_atom_site_type_symbol
_atom_site_label
_atom_site_fract_x
_atom_site_fract_y
_atom_site_fract_z
Si Si1 0.937925 0.500000 0.214666
Si Si2 0.562245 0.292413 0.289733
Si Si3 0.125148 0.357434 0.210942
Si Si4 0.357118 0.417393 0.291377
Si Si5 0.753842 0.334057 0.211674
O O1 0.908337 0.573179 0.274560
O O2 0.000000 0.500000 0.270268
O O3 0.937097 0.500000 0.000000
O O4 0.559310 0.299312 0.500000
O O5 0.500000 0.289251 0.223579
O O6 0.595386 0.218299 0.253777
O O7 0.597462 0.361020 0.221668
O O8 0.187323 0.361109 0.273420
O O9 0.127012 0.361112 0.000000
O O10 0.365718 0.421954 0.500000
O O11 0.359698 0.500000 0.220817
O O12 0.297834 0.381582 0.265453
O O13 0.750000 0.250000 0.270261
O O14 0.753774 0.333807 0.000000
#
# Coordination Sequence:
#
# PCOD9490108 Si02
#       5
#     8  16  16  16  16
#     4   9  18  32  51  77 107 139 176 217 260 314
#     4  10  21  37  57  80 107 142 184 230 278 326
#     4  10  20  35  56  81 108 142 182 223 270 326
#     4  10  22  38  56  81 112 147 186 227 275 329
#     4  10  20  35  56  82 109 139 179 225 275 325
#
# _framework density 20.937183000000001
#
# number of rings (size 3 to 8) (size 9 to 14) (size 15 to 20)
#    0.000    2.111    2.222    0.667    1.556    3.556 
#    0.000    2.778    0.000    2.000    0.000    3.111 
#    0.000    0.000    0.000    0.000    0.000    0.000 
#
# Total GULP energy -201085.635918 kJ/mol
# GULP energy per Si atom -5585.712109 kJ/mol
# Density = 2.088953 g / cm^3
# Si number density = 20.937183 Si / 1000 Ang^3
#
#
#
# Elastic Constant Matrix: (Units=GPa)
#
#
# Indices 1 2 3 4 5 6 
#
# 1 167.3678 75.9267 1.5040 0.0000 0.0000 0.0000
# 2 75.9267 171.8331 1.2299 0.0000 0.0000 0.0000
# 3 1.5040 1.2299 40.0612 0.0000 0.0000 0.0000
# 4 0.0000 0.0000 0.0000 30.7899 0.0000 0.0000
# 5 0.0000 0.0000 0.0000 0.0000 83.0291 0.0000
# 6 0.0000 0.0000 0.0000 0.0000 0.0000 35.6542
#
#
#
# Elastic Compliance Matrix: (Units=1/GPa)
#
#
# Indices 1 2 3 4 5 6 
#
# 1 0.007474 -0.003301 -0.000179 0.000000 0.000000 0.000000
# 2 -0.003301 0.007279 -0.000100 0.000000 0.000000 0.000000
# 3 -0.000179 -0.000100 0.024972 0.000000 0.000000 0.000000
# 4 0.000000 0.000000 0.000000 0.032478 0.000000 0.000000
# 5 0.000000 0.000000 0.000000 0.000000 0.012044 0.000000
# 6 0.000000 0.000000 0.000000 0.000000 0.000000 0.028047
#
#
# Mechanical properties :
#
#
# Convention : Reuss Voigt Hill
#
# Bulk Modulus (GPa) = 30.70811 59.62036 45.16424
# Shear Modulus (GPa) = 38.37035 49.93475 44.15255
#
# Velocity S-wave (km/s) = 4.28558 4.88892 4.59716
# Velocity P-wave (km/s) = 6.25994 7.77216 7.05667
#
# Compressibility (1/GPa) = 0.03256468
#
# Stress axis : x y z
#
# Youngs Moduli (GPa) = 133.79557 137.38130 40.04546
#
# Poissons Ratio (x) = 0.45353 0.00718
# Poissons Ratio (y) = 0.44169 0.00399
# Poissons Ratio (z) = 0.02398 0.01367
#
# Static dielectric constant tensor:
#      x y z
#    x 1.732910 0.000000 0.000000 
#    y 0.000000 1.728050 0.000000 
#    z 0.000000 0.000000 1.799570 
# 
# From -- ./inp_files/7298.got.cif
#   From: 2010.05.17/outbox.cif.g08.bks.cpg/sg65_4_cif.got.tgz:7298.got - 2010.06.03 17:01:31.
