data_PCOD9490288
_publ_section_title
;
Structure prediction by ZEFSAII (Michael W. Deem and Ramdas Pophale) SiO2 
 PCOD9490288
Probable space group: C M M M
;
_chemical_formula_sum "Si O2"
_cell_formula_units_Z 88
_cell_length_a 8.883609
_cell_length_b 16.511840
_cell_length_c 31.066691
_cell_angle_alpha 90.000000
_cell_angle_beta 90.000000
_cell_angle_gamma 90.000000
_cell_volume 4557.009195
_symmetry_space_group_name_H-M "C M M M"
_symmetry_group_IT_number 65
_symmetry_cell_setting 'orthorhombic'
loop_
_space_group_symop_operation_xyz
x,y,z
-x,-y,z
x,-y,-z
-x,y,-z
-x,-y,-z
x,y,-z
-x,y,z
x,-y,z
1/2+x,1/2+y,z
1/2-x,1/2-y,z
1/2+x,1/2-y,-z
1/2-x,1/2+y,-z
1/2-x,1/2-y,-z
1/2+x,1/2+y,-z
1/2-x,1/2+y,z
1/2+x,1/2-y,z
loop_
_atom_site_type_symbol
_atom_site_label
_atom_site_fract_x
_atom_site_fract_y
_atom_site_fract_z
Si Si1 0.682492 0.595307 0.453367
Si Si2 0.316771 0.500000 0.049800
Si Si3 0.680087 0.663387 0.637763
Si Si4 0.179900 0.903644 0.807591
Si Si5 0.682074 0.336490 0.900020
Si Si6 0.831825 0.403807 0.719977
O O1 0.735883 0.627481 0.500000
O O2 0.500000 0.601363 0.453454
O O3 0.718466 0.500000 0.451682
O O4 0.736345 0.635196 0.409356
O O5 0.500000 0.500000 0.051739
O O6 0.269730 0.416207 0.072936
O O7 0.271264 0.500000 0.000000
O O8 0.500000 0.665103 0.636715
O O9 0.750000 0.750000 0.646376
O O10 0.734669 0.609795 0.677432
O O11 0.224388 0.855867 0.850472
O O12 0.258214 0.873011 0.764112
O O13 0.000000 0.897378 0.802354
O O14 0.212468 0.000000 0.814021
O O15 0.500000 0.331898 0.902442
O O16 0.750000 0.250000 0.913511
O O17 0.842185 0.500000 0.725787
O O18 0.000000 0.370276 0.713859
#
# Coordination Sequence:
#
# PCOD9490288 Si02
#       6
#    16   8  16  16  16  16
#     4   8  15  30  53  78 100 126 167 216 262 315
#     4   9  18  36  61  85 115 157 199 237 282 343
#     4  11  22  35  52  75 106 143 179 218 267 321
#     4   9  17  33  56  78 105 144 190 231 272 331
#     4  10  20  35  57  86 116 151 194 240 288 341
#     4  10  21  36  55  80 109 141 180 226 275 325
#
# _framework density 19.310911999999998
#
# number of rings (size 3 to 8) (size 9 to 14) (size 15 to 20)
#    0.000    2.455    0.909    2.182    0.000    4.000 
#    0.000    2.273    0.000    2.182    0.000    6.364 
#    0.000    0.000    0.000    0.000    0.000    0.000 
#
# Total GULP energy -245310.194085 kJ/mol
# GULP energy per Si atom -5575.231684 kJ/mol
# Density = 1.926696 g / cm^3
# Si number density = 19.310912 Si / 1000 Ang^3
#
#
#
# Elastic Constant Matrix: (Units=GPa)
#
#
# Indices 1 2 3 4 5 6 
#
# 1 32.4637 21.8399 35.1320 0.0000 0.0000 0.0000
# 2 21.8399 75.3821 47.8778 0.0000 0.0000 0.0000
# 3 35.1320 47.8778 141.7595 0.0000 0.0000 0.0000
# 4 0.0000 0.0000 0.0000 -2.6553 0.0000 0.0000
# 5 0.0000 0.0000 0.0000 0.0000 7.1802 0.0000
# 6 0.0000 0.0000 0.0000 0.0000 0.0000 18.7370
#
#
#
# Elastic Compliance Matrix: (Units=1/GPa)
#
#
# Indices 1 2 3 4 5 6 
#
# 1 0.045296 -0.007630 -0.008649 0.000000 0.000000 0.000000
# 2 -0.007630 0.018174 -0.004247 0.000000 0.000000 0.000000
# 3 -0.008649 -0.004247 0.010632 0.000000 0.000000 0.000000
# 4 0.000000 0.000000 0.000000 -0.376600 0.000000 0.000000
# 5 0.000000 0.000000 0.000000 0.000000 0.139271 0.000000
# 6 0.000000 0.000000 0.000000 0.000000 0.000000 0.053370
#
#
# Mechanical properties :
#
#
# Convention : Reuss Voigt Hill
#
# Bulk Modulus (GPa) = 30.25700 51.03385 40.64542
# Shear Modulus (GPa) = -86.52368 14.30276 -36.11046
#
# Velocity S-wave (km/s) = -6.70096 2.72445 -4.32898
# Velocity P-wave (km/s) = 6.64591 6.03172 1.97312
#
# Compressibility (1/GPa) = 0.03305021
#
# Stress axis : x y z
#
# Youngs Moduli (GPa) = 22.07684 55.02410 94.05596
#
# Poissons Ratio (x) = 0.41985 0.81346
# Poissons Ratio (y) = 0.16845 0.39946
# Poissons Ratio (z) = 0.19093 0.23369
#
# Static dielectric constant tensor:
#      x y z
#    x 1.669940 0.000000 0.000000 
#    y 0.000000 1.699370 0.000000 
#    z 0.000000 0.000000 1.689960 
# 
# From -- ./inp_files/76661.got.cif
#   From: 2010.05.17/outbox.cif.g08.bks.cpg/sg65_39_cif.got.tgz:76661.got - 2010.06.03 17:01:31.
