data_PCOD9490389
_publ_section_title
;
Structure prediction by ZEFSAII (Michael W. Deem and Ramdas Pophale) SiO2 
 PCOD9490389
Probable space group: C M M M
;
_chemical_formula_sum "Si O2"
_cell_formula_units_Z 88
_cell_length_a 12.766864
_cell_length_b 23.500170
_cell_length_c 14.132249
_cell_angle_alpha 90.000000
_cell_angle_beta 90.000000
_cell_angle_gamma 90.000000
_cell_volume 4240.006446
_symmetry_space_group_name_H-M "C M M M"
_symmetry_group_IT_number 65
_symmetry_cell_setting 'orthorhombic'
loop_
_space_group_symop_operation_xyz
x,y,z
-x,-y,z
x,-y,-z
-x,y,-z
-x,-y,-z
x,y,-z
-x,y,z
x,-y,z
1/2+x,1/2+y,z
1/2-x,1/2-y,z
1/2+x,1/2-y,-z
1/2-x,1/2+y,-z
1/2-x,1/2-y,-z
1/2+x,1/2+y,-z
1/2-x,1/2+y,z
1/2+x,1/2-y,z
loop_
_atom_site_type_symbol
_atom_site_label
_atom_site_fract_x
_atom_site_fract_y
_atom_site_fract_z
Si Si1 0.000000 0.260815 0.386992
Si Si2 0.000000 0.208595 0.885837
Si Si3 0.116548 0.000000 0.610781
Si Si4 0.327873 0.297038 0.255847
Si Si5 0.500000 0.102320 0.386619
Si Si6 0.500000 0.158604 0.112009
Si Si7 0.671206 0.936355 0.892285
Si Si8 0.771331 0.412243 0.304012
O O1 0.099087 0.231695 0.335579
O O2 0.000000 0.251355 0.500000
O O3 0.000000 0.329082 0.371275
O O4 0.899722 0.183188 0.831942
O O5 0.000000 0.276393 0.854468
O O6 0.000000 0.203846 0.000000
O O7 0.187196 0.945888 0.635544
O O8 0.103282 0.000000 0.500000
O O9 0.000000 0.000000 0.655180
O O10 0.250000 0.250000 0.215702
O O11 0.259798 0.346541 0.301765
O O12 0.500000 0.091513 0.500000
O O13 0.608763 0.079593 0.340482
O O14 0.597188 0.117339 0.132354
O O15 0.500000 0.165313 0.000000
O O16 0.745413 0.935174 0.802643
O O17 0.621402 0.000000 0.892003
O O18 0.709952 0.928290 0.000000
#
# Coordination Sequence:
#
# PCOD9490389 Si02
#       8
#     8   8   8  16   8   8  16  16
#     4  10  23  41  60  94 131 169 220 275 340 402
#     4  10  23  40  59  93 134 177 226 277 335 402
#     4  11  28  51  72  96 129 179 235 279 331 402
#     4  11  23  39  64  95 131 176 225 275 334 406
#     4  11  24  42  70 104 139 171 213 281 350 409
#     4   9  17  31  56  88 129 176 218 262 321 392
#     4  10  20  35  59  93 130 171 219 268 328 398
#     4  12  24  44  70  99 138 176 225 279 343 399
#
# _framework density 20.754684999999998
#
# number of rings (size 3 to 8) (size 9 to 14) (size 15 to 20)
#    0.000    1.364    2.727    2.455    5.091    4.364 
#    0.000    0.909    0.000    0.545    0.000    0.000 
#    0.000    0.000    0.000    0.000    0.000    0.000 
#
# Total GULP energy -245378.027245 kJ/mol
# GULP energy per Si atom -5576.773346 kJ/mol
# Density = 2.070745 g / cm^3
# Si number density = 20.754685 Si / 1000 Ang^3
#
#
#
# Elastic Constant Matrix: (Units=GPa)
#
#
# Indices 1 2 3 4 5 6 
#
# 1 128.1735 21.9175 44.5875 0.0000 0.0000 0.0000
# 2 21.9175 64.9743 0.9066 0.0000 0.0000 0.0000
# 3 44.5875 0.9066 128.6879 0.0000 0.0000 0.0000
# 4 0.0000 0.0000 0.0000 33.2576 0.0000 0.0000
# 5 0.0000 0.0000 0.0000 0.0000 15.2628 0.0000
# 6 0.0000 0.0000 0.0000 0.0000 0.0000 161.8878
#
#
#
# Elastic Compliance Matrix: (Units=1/GPa)
#
#
# Indices 1 2 3 4 5 6 
#
# 1 0.009475 -0.003151 -0.003261 0.000000 0.000000 0.000000
# 2 -0.003151 0.016440 0.000976 0.000000 0.000000 0.000000
# 3 -0.003261 0.000976 0.008894 0.000000 0.000000 0.000000
# 4 0.000000 0.000000 0.000000 0.030068 0.000000 0.000000
# 5 0.000000 0.000000 0.000000 0.000000 0.065519 0.000000
# 6 0.000000 0.000000 0.000000 0.000000 0.000000 0.006177
#
#
# Mechanical properties :
#
#
# Convention : Reuss Voigt Hill
#
# Bulk Modulus (GPa) = 41.77554 50.73988 46.25771
# Shear Modulus (GPa) = 32.17035 59.04327 45.60681
#
# Velocity S-wave (km/s) = 3.94131 5.33947 4.69275
# Velocity P-wave (km/s) = 6.39405 7.90656 7.19019
#
# Compressibility (1/GPa) = 0.02393745
#
# Stress axis : x y z
#
# Youngs Moduli (GPa) = 105.54124 60.82764 112.44020
#
# Poissons Ratio (x) = 0.19165 0.36663
# Poissons Ratio (y) = 0.33252 -0.10972
# Poissons Ratio (z) = 0.34414 -0.05936
#
# Static dielectric constant tensor:
#      x y z
#    x 1.780790 0.000000 0.000000 
#    y 0.000000 1.794100 0.000000 
#    z 0.000000 0.000000 1.733350 
# 
# From -- ./inp_files/38464.got.cif
#   From: 2010.05.17/outbox.cif.g08.bks.cpg/sg65_20_cif.got.tgz:38464.got - 2010.06.03 17:01:31.
