data_PCOD9490170
_publ_section_title
;
Structure prediction by ZEFSAII (Michael W. Deem and Ramdas Pophale) SiO2 
 PCOD9490170
Probable space group: C M M M
;
_chemical_formula_sum "Si O2"
_cell_formula_units_Z 80
_cell_length_a 22.499058
_cell_length_b 22.460478
_cell_length_c 7.632645
_cell_angle_alpha 90.000000
_cell_angle_beta 90.000000
_cell_angle_gamma 90.000000
_cell_volume 3857.077750
_symmetry_space_group_name_H-M "C M M M"
_symmetry_group_IT_number 65
_symmetry_cell_setting 'orthorhombic'
loop_
_space_group_symop_operation_xyz
x,y,z
-x,-y,z
x,-y,-z
-x,y,-z
-x,-y,-z
x,y,-z
-x,y,z
x,-y,z
1/2+x,1/2+y,z
1/2-x,1/2-y,z
1/2+x,1/2-y,-z
1/2-x,1/2+y,-z
1/2-x,1/2-y,-z
1/2+x,1/2+y,-z
1/2-x,1/2+y,z
1/2+x,1/2-y,z
loop_
_atom_site_type_symbol
_atom_site_label
_atom_site_fract_x
_atom_site_fract_y
_atom_site_fract_z
Si Si1 0.000000 0.068155 0.214592
Si Si2 0.735197 0.431594 0.291199
Si Si3 0.068371 0.732480 0.290996
Si Si4 0.432516 0.000000 0.286472
Si Si5 0.860455 0.616922 0.714587
Si Si6 0.115394 0.861386 0.791207
O O1 0.941120 0.101511 0.276348
O O2 0.000000 0.000000 0.269146
O O3 0.000000 0.069259 0.000000
O O4 0.743020 0.437003 0.500000
O O5 0.731270 0.500000 0.222900
O O6 0.793243 0.396165 0.225499
O O7 0.676030 0.393449 0.262122
O O8 0.063283 0.724673 0.500000
O O9 0.106286 0.676382 0.223567
O O10 0.104168 0.793315 0.260780
O O11 0.000000 0.736136 0.222779
O O12 0.398411 0.059316 0.233424
O O13 0.500000 0.000000 0.225776
O O14 0.432995 0.000000 0.500000
O O15 0.859556 0.619538 0.500000
O O16 0.113564 0.863408 0.000000
#
# Coordination Sequence:
#
# PCOD9490170 Si02
#       6
#     8  16  16   8  16  16
#     4   9  18  34  55  77  99 130 177 230 280 325
#     4  10  20  36  57  82 114 148 184 228 281 334
#     4  10  20  35  56  83 115 147 185 231 279 330
#     4   9  14  24  48  82 113 142 185 230 272 324
#     4   9  17  31  52  80 114 150 181 224 280 330
#     4  11  22  37  57  79 109 148 189 232 279 331
#
# _framework density 20.74109
#
# number of rings (size 3 to 8) (size 9 to 14) (size 15 to 20)
#    0.000    2.200    2.000    1.800    0.000    4.400 
#    0.000    5.000    0.000    2.400    0.000    0.000 
#    0.000    3.200    0.000    0.000    0.000    0.000 
#
# Total GULP energy -223355.986761 kJ/mol
# GULP energy per Si atom -5583.899669 kJ/mol
# Density = 2.069388 g / cm^3
# Si number density = 20.741090 Si / 1000 Ang^3
#
#
#
# Elastic Constant Matrix: (Units=GPa)
#
#
# Indices 1 2 3 4 5 6 
#
# 1 213.8770 115.8402 2.8570 0.0000 0.0000 0.0000
# 2 115.8402 210.1319 0.5044 0.0000 0.0000 0.0000
# 3 2.8570 0.5044 40.9098 0.0000 0.0000 0.0000
# 4 0.0000 0.0000 0.0000 -21.0350 0.0000 0.0000
# 5 0.0000 0.0000 0.0000 0.0000 -9.6678 0.0000
# 6 0.0000 0.0000 0.0000 0.0000 0.0000 37.3780
#
#
#
# Elastic Compliance Matrix: (Units=1/GPa)
#
#
# Indices 1 2 3 4 5 6 
#
# 1 0.006673 -0.003678 -0.000421 0.000000 0.000000 0.000000
# 2 -0.003678 0.006786 0.000173 0.000000 0.000000 0.000000
# 3 -0.000421 0.000173 0.024471 0.000000 0.000000 0.000000
# 4 0.000000 0.000000 0.000000 -0.047540 0.000000 0.000000
# 5 0.000000 0.000000 0.000000 0.000000 -0.103437 0.000000
# 6 0.000000 0.000000 0.000000 0.000000 0.000000 0.026754
#
#
# Mechanical properties :
#
#
# Convention : Reuss Voigt Hill
#
# Bulk Modulus (GPa) = 33.24482 78.14690 55.69586
# Shear Modulus (GPa) = -73.08310 24.38285 -24.35013
#
# Velocity S-wave (km/s) = -5.94242 3.43240 -3.43009
# Velocity P-wave (km/s) = 5.56955 7.31215 3.35020
#
# Compressibility (1/GPa) = 0.03007988
#
# Stress axis : x y z
#
# Youngs Moduli (GPa) = 149.85471 147.36383 40.86423
#
# Poissons Ratio (x) = 0.54196 0.01719
# Poissons Ratio (y) = 0.55112 -0.00708
# Poissons Ratio (z) = 0.06304 -0.02552
#
# Static dielectric constant tensor:
#      x y z
#    x 1.754720 0.000000 0.000000 
#    y 0.000000 1.727800 0.000000 
#    z 0.000000 0.000000 1.787680 
# 
# From -- ./inp_files/13844.got.cif
#   From: 2010.05.17/outbox.cif.g08.bks.cpg/sg65_7_cif.got.tgz:13844.got - 2010.06.03 17:01:31.
