data_PCOD9490706
_publ_section_title
;
Structure prediction by ZEFSAII (Michael W. Deem and Ramdas Pophale) SiO2 
 PCOD9490706
Probable space group: C M M M
;
_chemical_formula_sum "Si O2"
_cell_formula_units_Z 88
_cell_length_a 24.247504
_cell_length_b 8.382206
_cell_length_c 24.079232
_cell_angle_alpha 90.000000
_cell_angle_beta 90.000000
_cell_angle_gamma 90.000000
_cell_volume 4894.045476
_symmetry_space_group_name_H-M "C M M M"
_symmetry_group_IT_number 65
_symmetry_cell_setting 'orthorhombic'
loop_
_space_group_symop_operation_xyz
x,y,z
-x,-y,z
x,-y,-z
-x,y,-z
-x,-y,-z
x,y,-z
-x,y,z
x,-y,z
1/2+x,1/2+y,z
1/2-x,1/2-y,z
1/2+x,1/2-y,-z
1/2-x,1/2+y,-z
1/2-x,1/2-y,-z
1/2+x,1/2+y,-z
1/2-x,1/2+y,z
1/2+x,1/2-y,z
loop_
_atom_site_type_symbol
_atom_site_label
_atom_site_fract_x
_atom_site_fract_y
_atom_site_fract_z
Si Si1 0.123120 0.693276 0.939591
Si Si2 0.687684 0.689430 0.169537
Si Si3 0.500000 0.806804 0.916688
Si Si4 0.387326 0.191438 0.731992
Si Si5 0.566808 0.316869 0.500000
Si Si6 0.935779 0.806643 0.621852
Si Si7 0.500000 0.806556 0.212129
O O1 0.123339 0.500000 0.936691
O O2 0.153706 0.753002 0.884645
O O3 0.059067 0.747213 0.938958
O O4 0.147241 0.739602 0.000000
O O5 0.686925 0.500000 0.170225
O O6 0.750000 0.750000 0.165024
O O7 0.660326 0.750715 0.226824
O O8 0.500000 0.765925 0.852020
O O9 0.500000 0.000000 0.923252
O O10 0.393730 0.250409 0.669016
O O11 0.444499 0.251012 0.759507
O O12 0.386523 0.000000 0.732091
O O13 0.587135 0.500000 0.500000
O O14 0.500000 0.323496 0.500000
O O15 0.580809 0.246709 0.439804
O O16 0.000000 0.755617 0.633105
O O17 0.936675 0.000000 0.620480
O O18 0.500000 0.000000 0.215724
#
# Coordination Sequence:
#
# PCOD9490706 Si02
#       7
#    16  16   8  16   8  16   8
#     4  10  20  36  60  87 113 143 177 214 260 318
#     4  12  26  43  60  78 102 136 179 229 278 325
#     4   9  15  30  55  84 113 143 173 205 251 314
#     4  11  20  34  54  80 110 143 180 222 272 324
#     4   7  12  24  41  65 106 153 188 219 257 306
#     4   9  16  27  46  75 110 149 189 224 262 310
#     4   9  16  27  50  77 108 141 173 209 259 318
#
# _framework density 17.981034000000001
#
# number of rings (size 3 to 8) (size 9 to 14) (size 15 to 20)
#    0.000    2.091    2.727    3.545    0.000    1.818 
#    0.000    1.818    0.000    2.727    0.000    0.636 
#    0.000    0.000    0.000    0.000    0.000    0.000 
#
# Total GULP energy -245236.554369 kJ/mol
# GULP energy per Si atom -5573.558054 kJ/mol
# Density = 1.794011 g / cm^3
# Si number density = 17.981034 Si / 1000 Ang^3
#
#
#
# Elastic Constant Matrix: (Units=GPa)
#
#
# Indices 1 2 3 4 5 6 
#
# 1 90.1787 22.2414 69.3714 0.0000 0.0000 0.0000
# 2 22.2414 45.3892 33.9026 0.0000 0.0000 0.0000
# 3 69.3714 33.9026 181.4627 0.0000 0.0000 0.0000
# 4 0.0000 0.0000 0.0000 20.8547 0.0000 0.0000
# 5 0.0000 0.0000 0.0000 0.0000 8.1672 0.0000
# 6 0.0000 0.0000 0.0000 0.0000 0.0000 14.4393
#
#
#
# Elastic Compliance Matrix: (Units=1/GPa)
#
#
# Indices 1 2 3 4 5 6 
#
# 1 0.016273 -0.003867 -0.005498 0.000000 0.000000 0.000000
# 2 -0.003867 0.026524 -0.003477 0.000000 0.000000 0.000000
# 3 -0.005498 -0.003477 0.008262 0.000000 0.000000 0.000000
# 4 0.000000 0.000000 0.000000 0.047951 0.000000 0.000000
# 5 0.000000 0.000000 0.000000 0.000000 0.122440 0.000000
# 6 0.000000 0.000000 0.000000 0.000000 0.000000 0.069255
#
#
# Mechanical properties :
#
#
# Convention : Reuss Voigt Hill
#
# Bulk Modulus (GPa) = 39.41075 63.11793 51.26434
# Shear Modulus (GPa) = 15.39183 21.45994 18.42588
#
# Velocity S-wave (km/s) = 2.92893 3.45842 3.20463
# Velocity P-wave (km/s) = 5.77959 7.15026 6.50115
#
# Compressibility (1/GPa) = 0.02537379
#
# Stress axis : x y z
#
# Youngs Moduli (GPa) = 61.45323 37.70217 121.03050
#
# Poissons Ratio (x) = 0.14579 0.66547
# Poissons Ratio (y) = 0.23763 0.42084
# Poissons Ratio (z) = 0.33789 0.13110
#
# Static dielectric constant tensor:
#      x y z
#    x 1.610640 0.000000 0.000000 
#    y 0.000000 1.626650 0.000000 
#    z 0.000000 0.000000 1.661660 
# 
# From -- ./inp_files/71047.got.cif
#   From: 2010.05.17/outbox.cif.g08.bks.cpg/sg65_36_cif.got.tgz:71047.got - 2010.06.03 17:01:31.
