data_PCOD9490161
_publ_section_title
;
Structure prediction by ZEFSAII (Michael W. Deem and Ramdas Pophale) SiO2 
 PCOD9490161
Probable space group: C M M M
;
_chemical_formula_sum "Si O2"
_cell_formula_units_Z 104
_cell_length_a 10.627110
_cell_length_b 15.225030
_cell_length_c 34.953377
_cell_angle_alpha 90.000000
_cell_angle_beta 90.000000
_cell_angle_gamma 90.000000
_cell_volume 5655.388888
_symmetry_space_group_name_H-M "C M M M"
_symmetry_group_IT_number 65
_symmetry_cell_setting 'orthorhombic'
loop_
_space_group_symop_operation_xyz
x,y,z
-x,-y,z
x,-y,-z
-x,y,-z
-x,-y,-z
x,y,-z
-x,y,z
x,-y,z
1/2+x,1/2+y,z
1/2-x,1/2-y,z
1/2+x,1/2-y,-z
1/2-x,1/2+y,-z
1/2-x,1/2-y,-z
1/2+x,1/2+y,-z
1/2-x,1/2+y,z
1/2+x,1/2-y,z
loop_
_atom_site_type_symbol
_atom_site_label
_atom_site_fract_x
_atom_site_fract_y
_atom_site_fract_z
Si Si1 0.848038 0.000000 0.043468
Si Si2 0.357821 0.392642 0.456049
Si Si3 0.851204 0.825782 0.909066
Si Si4 0.638698 0.105094 0.766874
Si Si5 0.857125 0.321960 0.682615
Si Si6 0.638504 0.104779 0.598918
Si Si7 0.858576 0.106399 0.177410
O O1 0.815523 0.911880 0.066403
O O2 0.000000 0.000000 0.041973
O O3 0.799972 0.000000 0.000000
O O4 0.331684 0.367217 0.500000
O O5 0.500000 0.365285 0.445950
O O6 0.357478 0.500000 0.455289
O O7 0.252198 0.360549 0.426821
O O8 0.750000 0.750000 0.917070
O O9 0.843346 0.851931 0.864356
O O10 0.000000 0.803983 0.916706
O O11 0.500000 0.138956 0.778420
O O12 0.656763 0.125838 0.722232
O O13 0.751713 0.137502 0.793385
O O14 0.636815 0.000000 0.770964
O O15 0.750000 0.250000 0.681861
O O16 0.843789 0.377554 0.643867
O O17 0.000000 0.285508 0.682408
O O18 0.500000 0.139523 0.587895
O O19 0.635906 0.000000 0.593398
O O20 0.000000 0.125617 0.191549
O O21 0.849920 0.000000 0.173200
#
# Coordination Sequence:
#
# PCOD9490161 Si02
#       7
#     8  16  16  16  16  16  16
#     4   9  18  36  61  83 109 151 195 231 277 341
#     4   8  14  25  42  67  97 122 145 182 234 286
#     4  10  20  35  56  83 113 147 187 231 279 332
#     4   9  18  33  53  75  99 130 169 211 255 301
#     4  10  21  35  49  67  95 128 161 200 245 292
#     4   9  17  30  49  70  91 119 155 193 234 282
#     4   9  17  32  53  75 103 138 175 214 259 313
#
# _framework density 18.38954
#
# number of rings (size 3 to 8) (size 9 to 14) (size 15 to 20)
#    0.000    2.846    0.769    0.923    0.000    4.923 
#    0.000    5.000    0.000    5.538    0.000    0.000 
#    0.000    0.000    0.000    0.000    0.000    0.000 
#
# Total GULP energy -289852.163238 kJ/mol
# GULP energy per Si atom -5574.080062 kJ/mol
# Density = 1.834768 g / cm^3
# Si number density = 18.389540 Si / 1000 Ang^3
#
#
#
# Elastic Constant Matrix: (Units=GPa)
#
#
# Indices 1 2 3 4 5 6 
#
# 1 146.3768 54.5164 97.8763 0.0000 0.0000 0.0000
# 2 54.5164 54.2502 26.3439 0.0000 0.0000 0.0000
# 3 97.8763 26.3439 110.6266 0.0000 0.0000 0.0000
# 4 0.0000 0.0000 0.0000 -13.4396 0.0000 0.0000
# 5 0.0000 0.0000 0.0000 0.0000 22.1441 0.0000
# 6 0.0000 0.0000 0.0000 0.0000 0.0000 22.7931
#
#
#
# Elastic Compliance Matrix: (Units=1/GPa)
#
#
# Indices 1 2 3 4 5 6 
#
# 1 0.025329 -0.016477 -0.018486 0.000000 0.000000 0.000000
# 2 -0.016477 0.031561 0.007062 0.000000 0.000000 0.000000
# 3 -0.018486 0.007062 0.023713 0.000000 0.000000 0.000000
# 4 0.000000 0.000000 0.000000 -0.074407 0.000000 0.000000
# 5 0.000000 0.000000 0.000000 0.000000 0.045159 0.000000
# 6 0.000000 0.000000 0.000000 0.000000 0.000000 0.043873
#
#
# Mechanical properties :
#
#
# Convention : Reuss Voigt Hill
#
# Bulk Modulus (GPa) = 40.31962 74.30300 57.31131
# Shear Modulus (GPa) = 31.38762 15.13399 23.26080
#
# Velocity S-wave (km/s) = 4.13585 2.87185 3.56039
# Velocity P-wave (km/s) = 6.69178 7.17562 6.93792
#
# Compressibility (1/GPa) = 0.02480182
#
# Stress axis : x y z
#
# Youngs Moduli (GPa) = 39.47997 31.68422 42.17019
#
# Poissons Ratio (x) = 0.52205 0.77957
# Poissons Ratio (y) = 0.65050 -0.29780
# Poissons Ratio (z) = 0.72984 -0.22375
#
# Static dielectric constant tensor:
#      x y z
#    x 1.649230 0.000000 0.000000 
#    y 0.000000 1.636740 0.000000 
#    z 0.000000 0.000000 1.621130 
# 
# From -- ./inp_files/77430.got.cif
#   From: 2010.05.17/outbox.cif.g08.bks.cpg/sg65_39_cif.got.tgz:77430.got - 2010.06.03 17:01:31.
