data_PCOD9490585
_publ_section_title
;
Structure prediction by ZEFSAII (Michael W. Deem and Ramdas Pophale) SiO2 
 PCOD9490585
Probable space group: C M M M
;
_chemical_formula_sum "Si O2"
_cell_formula_units_Z 104
_cell_length_a 21.783465
_cell_length_b 8.903732
_cell_length_c 27.350166
_cell_angle_alpha 90.000000
_cell_angle_beta 90.000000
_cell_angle_gamma 90.000000
_cell_volume 5304.677772
_symmetry_space_group_name_H-M "C M M M"
_symmetry_group_IT_number 65
_symmetry_cell_setting 'orthorhombic'
loop_
_space_group_symop_operation_xyz
x,y,z
-x,-y,z
x,-y,-z
-x,y,-z
-x,-y,-z
x,y,-z
-x,y,z
x,-y,z
1/2+x,1/2+y,z
1/2-x,1/2-y,z
1/2+x,1/2-y,-z
1/2-x,1/2+y,-z
1/2-x,1/2-y,-z
1/2+x,1/2+y,-z
1/2-x,1/2+y,z
1/2+x,1/2-y,z
loop_
_atom_site_type_symbol
_atom_site_label
_atom_site_fract_x
_atom_site_fract_y
_atom_site_fract_z
Si Si1 0.376217 0.321468 0.662522
Si Si2 0.811401 0.822518 0.760988
Si Si3 0.621532 0.319691 0.145797
Si Si4 0.815449 0.680544 0.426525
Si Si5 0.316603 0.820832 0.056495
Si Si6 0.500000 0.821304 0.316570
Si Si7 0.573658 0.181659 0.500000
Si Si8 0.500000 0.679024 0.791423
O O1 0.376754 0.500000 0.653591
O O2 0.361799 0.296844 0.719783
O O3 0.327186 0.242042 0.627891
O O4 0.441470 0.245083 0.655823
O O5 0.750000 0.750000 0.742496
O O6 0.828552 0.764978 0.814520
O O7 0.803802 0.000000 0.765300
O O8 0.626287 0.500000 0.139542
O O9 0.634054 0.241895 0.094552
O O10 0.558369 0.289865 0.174231
O O11 0.810415 0.500000 0.428544
O O12 0.750000 0.750000 0.443783
O O13 0.879028 0.723089 0.455388
O O14 0.250000 0.750000 0.067945
O O15 0.312321 0.000000 0.060499
O O16 0.330956 0.782248 0.000000
O O17 0.500000 0.765437 0.259964
O O18 0.500000 0.000000 0.317611
O O19 0.500000 0.232323 0.500000
O O20 0.569648 0.000000 0.500000
O O21 0.500000 0.500000 0.779450
#
# Coordination Sequence:
#
# PCOD9490585 Si02
#       8
#    16  16  16  16  16   8   8   8
#     4  11  23  41  62  87 125 166 206 255 308 363
#     4  10  21  35  54  80 114 152 189 236 292 349
#     4  10  20  36  58  82 109 149 192 236 288 347
#     4  11  23  41  67  97 130 171 216 264 322 382
#     4  10  21  37  57  82 112 145 184 235 292 349
#     4  12  24  38  60  90 122 164 210 253 304 368
#     4   9  21  42  67  95 130 169 215 273 324 372
#     4  10  20  40  61  81 115 156 196 240 289 346
#
# _framework density 19.605339000000001
#
# number of rings (size 3 to 8) (size 9 to 14) (size 15 to 20)
#    0.000    1.615    1.538    3.231    1.077    5.846 
#    0.000    1.538    0.000    4.154    0.000    0.000 
#    0.000    0.000    0.000    0.000    0.000    0.000 
#
# Total GULP energy -290057.094117 kJ/mol
# GULP energy per Si atom -5578.021041 kJ/mol
# Density = 1.956072 g / cm^3
# Si number density = 19.605339 Si / 1000 Ang^3
#
#
#
# Elastic Constant Matrix: (Units=GPa)
#
#
# Indices 1 2 3 4 5 6 
#
# 1 122.2315 38.5161 29.7105 0.0000 0.0000 0.0000
# 2 38.5161 38.3422 38.7074 0.0000 0.0000 0.0000
# 3 29.7105 38.7074 90.3411 0.0000 0.0000 0.0000
# 4 0.0000 0.0000 0.0000 17.1216 0.0000 0.0000
# 5 0.0000 0.0000 0.0000 0.0000 31.1223 0.0000
# 6 0.0000 0.0000 0.0000 0.0000 0.0000 28.8302
#
#
#
# Elastic Compliance Matrix: (Units=1/GPa)
#
#
# Indices 1 2 3 4 5 6 
#
# 1 0.012210 -0.014471 0.002185 0.000000 0.000000 0.000000
# 2 -0.014471 0.063111 -0.022281 0.000000 0.000000 0.000000
# 3 0.002185 -0.022281 0.019897 0.000000 0.000000 0.000000
# 4 0.000000 0.000000 0.000000 0.058406 0.000000 0.000000
# 5 0.000000 0.000000 0.000000 0.000000 0.032131 0.000000
# 6 0.000000 0.000000 0.000000 0.000000 0.000000 0.034686
#
#
# Mechanical properties :
#
#
# Convention : Reuss Voigt Hill
#
# Bulk Modulus (GPa) = 38.33893 51.64254 44.99074
# Shear Modulus (GPa) = 16.76328 25.01354 20.88841
#
# Velocity S-wave (km/s) = 2.92727 3.57578 3.26766
# Velocity P-wave (km/s) = 5.56983 6.59140 6.10203
#
# Compressibility (1/GPa) = 0.02608315
#
# Stress axis : x y z
#
# Youngs Moduli (GPa) = 81.89954 15.84510 50.25801
#
# Poissons Ratio (x) = 0.22929 -0.10980
# Poissons Ratio (y) = 1.18516 1.11982
# Poissons Ratio (z) = -0.17892 0.35305
#
# Static dielectric constant tensor:
#      x y z
#    x 1.800290 0.000000 0.000000 
#    y 0.000000 1.649260 0.000000 
#    z 0.000000 0.000000 1.698600 
# 
# From -- ./inp_files/75538.got.cif
#   From: 2010.05.17/outbox.cif.g08.bks.cpg/sg65_38_cif.got.tgz:75538.got - 2010.06.03 17:01:31.
