data_PCOD9490779
_publ_section_title
;
Structure prediction by ZEFSAII (Michael W. Deem and Ramdas Pophale) SiO2 
 PCOD9490779
Probable space group: C M M M
;
_chemical_formula_sum "Si O2"
_cell_formula_units_Z 56
_cell_length_a 10.292127
_cell_length_b 34.153543
_cell_length_c 9.319798
_cell_angle_alpha 90.000000
_cell_angle_beta 90.000000
_cell_angle_gamma 90.000000
_cell_volume 3276.026446
_symmetry_space_group_name_H-M "C M M M"
_symmetry_group_IT_number 65
_symmetry_cell_setting 'orthorhombic'
loop_
_space_group_symop_operation_xyz
x,y,z
-x,-y,z
x,-y,-z
-x,y,-z
-x,-y,-z
x,y,-z
-x,y,z
x,-y,z
1/2+x,1/2+y,z
1/2-x,1/2-y,z
1/2+x,1/2-y,-z
1/2-x,1/2+y,-z
1/2-x,1/2-y,-z
1/2+x,1/2+y,-z
1/2-x,1/2+y,z
1/2+x,1/2-y,z
loop_
_atom_site_type_symbol
_atom_site_label
_atom_site_fract_x
_atom_site_fract_y
_atom_site_fract_z
Si Si1 0.269740 0.335576 0.330088
Si Si2 0.658228 0.500000 0.834726
Si Si3 0.000000 0.209294 0.171564
Si Si4 0.000000 0.290898 0.667264
Si Si5 0.845278 0.922246 0.330338
O O1 0.304770 0.332289 0.500000
O O2 0.374592 0.312525 0.236527
O O3 0.128715 0.316664 0.311032
O O4 0.275503 0.381586 0.293904
O O5 0.500000 0.500000 0.828349
O O6 0.699738 0.460247 0.756054
O O7 0.697252 0.500000 0.000000
O O8 0.000000 0.253469 0.230702
O O9 0.000000 0.208172 0.000000
O O10 0.000000 0.277512 0.500000
O O11 0.830087 0.929701 0.500000
O O12 0.000000 0.916365 0.303826
#
# Coordination Sequence:
#
# PCOD9490779 Si02
#       5
#    16   8   8   8  16
#     4  10  20  37  58  80 105 138 179 222 266 313
#     4   9  17  27  43  72 107 134 164 208 255 305
#     4  12  24  36  54  79 108 141 178 220 266 316
#     4  10  22  38  58  79 104 139 179 222 268 316
#     4   9  16  29  50  74 101 132 169 212 259 307
#
# _framework density 17.093879999999999
#
# number of rings (size 3 to 8) (size 9 to 14) (size 15 to 20)
#    0.000    2.143    1.429    2.571    0.000    7.429 
#    0.000    0.000    0.000    0.857    0.000    6.000 
#    0.000    0.000    0.000    0.000    0.000    0.000 
#
# Total GULP energy -156266.045352 kJ/mol
# GULP energy per Si atom -5580.930191 kJ/mol
# Density = 1.705497 g / cm^3
# Si number density = 17.093880 Si / 1000 Ang^3
#
#
#
# Elastic Constant Matrix: (Units=GPa)
#
#
# Indices 1 2 3 4 5 6 
#
# 1 78.6559 56.1066 61.4936 0.0000 0.0000 0.0000
# 2 56.1066 182.9098 102.5575 0.0000 0.0000 0.0000
# 3 61.4936 102.5575 100.6508 0.0000 0.0000 0.0000
# 4 0.0000 0.0000 0.0000 -10.4548 0.0000 0.0000
# 5 0.0000 0.0000 0.0000 0.0000 4.2285 0.0000
# 6 0.0000 0.0000 0.0000 0.0000 0.0000 -14.9591
#
#
#
# Elastic Compliance Matrix: (Units=1/GPa)
#
#
# Indices 1 2 3 4 5 6 
#
# 1 0.024668 0.002061 -0.017171 0.000000 0.000000 0.000000
# 2 0.002061 0.012926 -0.014430 0.000000 0.000000 0.000000
# 3 -0.017171 -0.014430 0.035130 0.000000 0.000000 0.000000
# 4 0.000000 0.000000 0.000000 -0.095650 0.000000 0.000000
# 5 0.000000 0.000000 0.000000 0.000000 0.236491 0.000000
# 6 0.000000 0.000000 0.000000 0.000000 0.000000 -0.066849
#
#
# Mechanical properties :
#
#
# Convention : Reuss Voigt Hill
#
# Bulk Modulus (GPa) = 73.29683 89.17022 81.23352
# Shear Modulus (GPa) = 23.77059 5.23349 14.50204
#
# Velocity S-wave (km/s) = 3.73311 1.75165 2.91585
# Velocity P-wave (km/s) = 7.84561 7.50795 7.67863
#
# Compressibility (1/GPa) = 0.01364316
#
# Stress axis : x y z
#
# Youngs Moduli (GPa) = 40.53835 77.36461 28.46589
#
# Poissons Ratio (x) = -0.15947 0.48880
# Poissons Ratio (y) = -0.08356 0.41076
# Poissons Ratio (z) = 0.69610 1.11637
#
# Static dielectric constant tensor:
#      x y z
#    x 1.553480 0.000000 0.000000 
#    y 0.000000 1.569980 0.000000 
#    z 0.000000 0.000000 1.570200 
# 
# From -- ./inp_files/4753.got.cif
#   From: 2010.05.17/outbox.cif.g08.bks.cpg/sg65_3_cif.got.tgz:4753.got - 2010.06.03 17:01:31.
