data_PCOD9490907
_publ_section_title
;
Structure prediction by ZEFSAII (Michael W. Deem and Ramdas Pophale) SiO2 
 PCOD9490907
Probable space group: C M M M
;
_chemical_formula_sum "Si O2"
_cell_formula_units_Z 58
_cell_length_a 15.205163
_cell_length_b 10.430879
_cell_length_c 18.692386
_cell_angle_alpha 90.000000
_cell_angle_beta 90.000000
_cell_angle_gamma 90.000000
_cell_volume 2964.672524
_symmetry_space_group_name_H-M "C M M M"
_symmetry_group_IT_number 65
_symmetry_cell_setting 'orthorhombic'
loop_
_space_group_symop_operation_xyz
x,y,z
-x,-y,z
x,-y,-z
-x,y,-z
-x,-y,-z
x,y,-z
-x,y,z
x,-y,z
1/2+x,1/2+y,z
1/2-x,1/2-y,z
1/2+x,1/2-y,-z
1/2-x,1/2+y,-z
1/2-x,1/2-y,-z
1/2+x,1/2+y,-z
1/2-x,1/2+y,z
1/2+x,1/2-y,z
loop_
_atom_site_type_symbol
_atom_site_label
_atom_site_fract_x
_atom_site_fract_y
_atom_site_fract_z
Si Si1 0.500000 0.146760 0.247375
Si Si2 0.500000 0.500000 0.500000
Si Si3 0.500000 0.253889 0.395569
Si Si4 0.190137 0.360752 0.416323
Si Si5 0.600665 0.844988 0.000000
Si Si6 0.323443 0.849488 0.153960
O O1 0.500000 0.251328 0.309792
O O2 0.587387 0.158201 0.200082
O O3 0.500000 0.000000 0.277887
O O4 0.500000 0.386912 0.437687
O O5 0.411106 0.178846 0.415343
O O6 0.216880 0.370795 0.500000
O O7 0.203179 0.500000 0.382654
O O8 0.250000 0.250000 0.383299
O O9 0.650054 0.810972 0.072886
O O10 0.500000 0.796689 0.000000
O O11 0.595389 0.000000 0.000000
O O12 0.250000 0.750000 0.179785
O O13 0.295511 0.000000 0.154645
#
# Coordination Sequence:
#
# PCOD9490907 Si02
#       6
#     8   2   8  16   8  16
#     4  10  22  41  63  86 120 168 214 257 313 393
#     4  12  28  44  70  96 120 160 214 272 320 408
#     4  12  24  43  65  87 122 157 208 257 327 380
#     4  10  21  36  61  89 118 149 189 242 303 374
#     4   9  15  30  61  94 125 174 223 261 294 354
#     4  10  20  37  62  93 130 170 218 261 308 368
#
# _framework density 19.563714000000001
#
# number of rings (size 3 to 8) (size 9 to 14) (size 15 to 20)
#    0.000    1.793    2.759    1.655    1.931    2.207 
#    2.483    0.000    0.000    0.828    0.000    0.000 
#    0.000    0.000    0.000    0.000    0.000    0.000 
#
# Total GULP energy -161545.384246 kJ/mol
# GULP energy per Si atom -5570.530491 kJ/mol
# Density = 1.951919 g / cm^3
# Si number density = 19.563714 Si / 1000 Ang^3
#
#
#
# Elastic Constant Matrix: (Units=GPa)
#
#
# Indices 1 2 3 4 5 6 
#
# 1 113.5026 82.9451 8.6493 0.0000 0.0000 0.0000
# 2 82.9451 160.1611 36.3653 0.0000 0.0000 0.0000
# 3 8.6493 36.3653 85.8591 0.0000 0.0000 0.0000
# 4 0.0000 0.0000 0.0000 17.7152 0.0000 0.0000
# 5 0.0000 0.0000 0.0000 0.0000 -6.6539 0.0000
# 6 0.0000 0.0000 0.0000 0.0000 0.0000 12.2779
#
#
#
# Elastic Compliance Matrix: (Units=1/GPa)
#
#
# Indices 1 2 3 4 5 6 
#
# 1 0.014449 -0.007913 0.001896 0.000000 0.000000 0.000000
# 2 -0.007913 0.011242 -0.003964 0.000000 0.000000 0.000000
# 3 0.001896 -0.003964 0.013135 0.000000 0.000000 0.000000
# 4 0.000000 0.000000 0.000000 0.056449 0.000000 0.000000
# 5 0.000000 0.000000 0.000000 0.000000 -0.150287 0.000000
# 6 0.000000 0.000000 0.000000 0.000000 0.000000 0.081447
#
#
# Mechanical properties :
#
#
# Convention : Reuss Voigt Hill
#
# Bulk Modulus (GPa) = 53.01458 68.38249 60.69853
# Shear Modulus (GPa) = 94.90304 20.10538 57.50421
#
# Velocity S-wave (km/s) = 6.97245 3.20923 5.42744
# Velocity P-wave (km/s) = 9.59048 6.98297 8.38866
#
# Compressibility (1/GPa) = 0.01886274
#
# Stress axis : x y z
#
# Youngs Moduli (GPa) = 69.21014 88.95194 76.13210
#
# Poissons Ratio (x) = 0.70390 -0.14435
# Poissons Ratio (y) = 0.54768 0.30181
# Poissons Ratio (z) = -0.13123 0.35264
#
# Static dielectric constant tensor:
#      x y z
#    x 1.680240 0.000000 0.000000 
#    y 0.000000 1.693690 0.000000 
#    z 0.000000 0.000000 1.721310 
# 
# From -- ./inp_files/53990.got.cif
#   From: 2010.05.17/outbox.cif.g08.bks.cpg/sg65_27_cif.got.tgz:53990.got - 2010.06.03 17:01:31.
