data_PCOD9490240
_publ_section_title
;
Structure prediction by ZEFSAII (Michael W. Deem and Ramdas Pophale) SiO2 
 PCOD9490240
Probable space group: C M M M
;
_chemical_formula_sum "Si O2"
_cell_formula_units_Z 64
_cell_length_a 27.148225
_cell_length_b 14.311796
_cell_length_c 7.998849
_cell_angle_alpha 90.000000
_cell_angle_beta 90.000000
_cell_angle_gamma 90.000000
_cell_volume 3107.871654
_symmetry_space_group_name_H-M "C M M M"
_symmetry_group_IT_number 65
_symmetry_cell_setting 'orthorhombic'
loop_
_space_group_symop_operation_xyz
x,y,z
-x,-y,z
x,-y,-z
-x,y,-z
-x,-y,-z
x,y,-z
-x,y,z
x,-y,z
1/2+x,1/2+y,z
1/2-x,1/2-y,z
1/2+x,1/2-y,-z
1/2-x,1/2+y,-z
1/2-x,1/2-y,-z
1/2+x,1/2+y,-z
1/2-x,1/2+y,z
1/2+x,1/2-y,z
loop_
_atom_site_type_symbol
_atom_site_label
_atom_site_fract_x
_atom_site_fract_y
_atom_site_fract_z
Si Si1 0.941091 0.785739 0.196371
Si Si2 0.283243 0.345441 0.500000
Si Si3 0.233333 0.357778 0.814736
Si Si4 0.106892 0.110558 0.500000
Si Si5 0.879912 0.604479 0.202057
O O1 0.921895 0.859989 0.331575
O O2 0.916878 0.686796 0.249753
O O3 0.000000 0.780263 0.202230
O O4 0.927038 0.804161 0.000000
O O5 0.250000 0.250000 0.500000
O O6 0.267304 0.396178 0.669031
O O7 0.341375 0.333868 0.500000
O O8 0.250000 0.250000 0.830505
O O9 0.176520 0.367672 0.760812
O O10 0.238258 0.398296 0.000000
O O11 0.116449 0.000000 0.500000
O O12 0.890179 0.500000 0.267095
O O13 0.882781 0.599998 0.000000
#
# Coordination Sequence:
#
# PCOD9490240 Si02
#       5
#    16   8  16   8  16
#     4  10  22  42  67  91 119 159 202 249 310 370
#     4  10  20  35  57  83 113 152 194 237 292 353
#     4   9  17  31  52  79 117 160 197 237 283 337
#     4  12  27  44  63  91 124 156 201 260 308 353
#     4   9  18  34  59  92 127 162 201 247 300 358
#
# _framework density 20.592872
#
# number of rings (size 3 to 8) (size 9 to 14) (size 15 to 20)
#    0.000    2.250    0.000    3.375    0.000    6.000 
#    0.000    5.625    0.000    1.500    0.000    0.000 
#    0.000    0.000    0.000    0.000    0.000    0.000 
#
# Total GULP energy -178433.913458 kJ/mol
# GULP energy per Si atom -5576.059796 kJ/mol
# Density = 2.054600 g / cm^3
# Si number density = 20.592872 Si / 1000 Ang^3
#
#
#
# Elastic Constant Matrix: (Units=GPa)
#
#
# Indices 1 2 3 4 5 6 
#
# 1 91.1449 16.5293 49.6017 0.0000 0.0000 0.0000
# 2 16.5293 117.0637 19.2079 0.0000 0.0000 0.0000
# 3 49.6017 19.2079 125.3500 0.0000 0.0000 0.0000
# 4 0.0000 0.0000 0.0000 8.9624 0.0000 0.0000
# 5 0.0000 0.0000 0.0000 0.0000 41.3459 0.0000
# 6 0.0000 0.0000 0.0000 0.0000 0.0000 -19.2265
#
#
#
# Elastic Compliance Matrix: (Units=1/GPa)
#
#
# Indices 1 2 3 4 5 6 
#
# 1 0.014121 -0.001105 -0.005418 0.000000 0.000000 0.000000
# 2 -0.001105 0.008849 -0.000919 0.000000 0.000000 0.000000
# 3 -0.005418 -0.000919 0.010263 0.000000 0.000000 0.000000
# 4 0.000000 0.000000 0.000000 0.111577 0.000000 0.000000
# 5 0.000000 0.000000 0.000000 0.000000 0.024186 0.000000
# 6 0.000000 0.000000 0.000000 0.000000 0.000000 -0.052012
#
#
# Mechanical properties :
#
#
# Convention : Reuss Voigt Hill
#
# Bulk Modulus (GPa) = 54.50066 56.02627 55.26347
# Shear Modulus (GPa) = 36.23619 22.76434 29.50027
#
# Velocity S-wave (km/s) = 4.19937 3.32843 3.78901
# Velocity P-wave (km/s) = 7.07362 6.48359 6.78503
#
# Compressibility (1/GPa) = 0.01834840
#
# Stress axis : x y z
#
# Youngs Moduli (GPa) = 70.81872 113.00571 97.44206
#
# Poissons Ratio (x) = 0.12485 0.52797
# Poissons Ratio (y) = 0.07824 0.08953
# Poissons Ratio (z) = 0.38372 0.10383
#
# Static dielectric constant tensor:
#      x y z
#    x 1.689260 0.000000 0.000000 
#    y 0.000000 1.737630 0.000000 
#    z 0.000000 0.000000 1.824050 
# 
# From -- ./inp_files/13386.got.cif
#   From: 2010.05.17/outbox.cif.g08.bks.cpg/sg65_7_cif.got.tgz:13386.got - 2010.06.03 17:01:31.
