data_PCOD9490523
_publ_section_title
;
Structure prediction by ZEFSAII (Michael W. Deem and Ramdas Pophale) SiO2 
 PCOD9490523
Probable space group: C M M M
;
_chemical_formula_sum "Si O2"
_cell_formula_units_Z 80
_cell_length_a 18.857245
_cell_length_b 8.205704
_cell_length_c 28.095001
_cell_angle_alpha 90.000000
_cell_angle_beta 90.000000
_cell_angle_gamma 90.000000
_cell_volume 4347.335347
_symmetry_space_group_name_H-M "C M M M"
_symmetry_group_IT_number 65
_symmetry_cell_setting 'orthorhombic'
loop_
_space_group_symop_operation_xyz
x,y,z
-x,-y,z
x,-y,-z
-x,y,-z
-x,-y,-z
x,y,-z
-x,y,z
x,-y,z
1/2+x,1/2+y,z
1/2-x,1/2-y,z
1/2+x,1/2-y,-z
1/2-x,1/2+y,-z
1/2-x,1/2-y,-z
1/2+x,1/2+y,-z
1/2-x,1/2+y,z
1/2+x,1/2-y,z
loop_
_atom_site_type_symbol
_atom_site_label
_atom_site_fract_x
_atom_site_fract_y
_atom_site_fract_z
Si Si1 0.414577 0.190715 0.381550
Si Si2 0.169894 0.695401 0.287505
Si Si3 0.080266 0.194300 0.908938
Si Si4 0.330635 0.195327 0.819198
Si Si5 0.168992 0.692526 0.000000
Si Si6 0.413706 0.500000 0.445274
O O1 0.500000 0.192278 0.379148
O O2 0.381990 0.238954 0.330452
O O3 0.392263 0.332310 0.418538
O O4 0.394136 0.000000 0.392320
O O5 0.169381 0.500000 0.285028
O O6 0.250000 0.750000 0.298074
O O7 0.151274 0.755685 0.234327
O O8 0.116912 0.243616 0.859637
O O9 0.127845 0.249537 0.953112
O O10 0.000000 0.259882 0.912509
O O11 0.076906 0.000000 0.910687
O O12 0.250000 0.250000 0.829389
O O13 0.332266 0.000000 0.819371
O O14 0.250000 0.750000 0.000000
O O15 0.169299 0.500000 0.000000
O O16 0.500000 0.500000 0.445190
O O17 0.389962 0.500000 0.500000
#
# Coordination Sequence:
#
# PCOD9490523 Si02
#       6
#    16  16  16  16   8   8
#     4   9  18  33  52  78 109 141 182 230 279 330
#     4   9  19  33  53  80 107 144 183 222 273 326
#     4  11  24  41  59  83 115 147 181 227 280 329
#     4  10  20  36  57  81 112 145 185 228 270 329
#     4  12  25  42  65  87 109 143 187 228 275 330
#     4   9  18  32  52  80 108 140 183 228 280 334
#
# _framework density 18.402076999999998
#
# number of rings (size 3 to 8) (size 9 to 14) (size 15 to 20)
#    0.000    2.100    0.000    3.000    1.400    4.800 
#    0.000    4.000    0.000    0.600    0.000    0.000 
#    0.000    0.000    0.000    0.000    0.000    0.000 
#
# Total GULP energy -223156.696617 kJ/mol
# GULP energy per Si atom -5578.917415 kJ/mol
# Density = 1.836019 g / cm^3
# Si number density = 18.402077 Si / 1000 Ang^3
#
#
#
# Elastic Constant Matrix: (Units=GPa)
#
#
# Indices 1 2 3 4 5 6 
#
# 1 86.4860 41.0650 81.3489 0.0000 0.0000 0.0000
# 2 41.0650 85.9667 66.4694 0.0000 0.0000 0.0000
# 3 81.3489 66.4694 155.6498 0.0000 0.0000 0.0000
# 4 0.0000 0.0000 0.0000 20.0879 0.0000 0.0000
# 5 0.0000 0.0000 0.0000 0.0000 15.5652 0.0000
# 6 0.0000 0.0000 0.0000 0.0000 0.0000 20.9920
#
#
#
# Elastic Compliance Matrix: (Units=1/GPa)
#
#
# Indices 1 2 3 4 5 6 
#
# 1 0.023108 -0.002538 -0.010993 0.000000 0.000000 0.000000
# 2 -0.002538 0.017646 -0.006209 0.000000 0.000000 0.000000
# 3 -0.010993 -0.006209 0.014822 0.000000 0.000000 0.000000
# 4 0.000000 0.000000 0.000000 0.049781 0.000000 0.000000
# 5 0.000000 0.000000 0.000000 0.000000 0.064246 0.000000
# 6 0.000000 0.000000 0.000000 0.000000 0.000000 0.047637
#
#
# Mechanical properties :
#
#
# Convention : Reuss Voigt Hill
#
# Bulk Modulus (GPa) = 62.13316 78.42990 70.28153
# Shear Modulus (GPa) = 19.07778 20.61031 19.84404
#
# Velocity S-wave (km/s) = 3.22330 3.35027 3.28740
# Velocity P-wave (km/s) = 6.90583 7.59463 7.25840
#
# Compressibility (1/GPa) = 0.01609447
#
# Stress axis : x y z
#
# Youngs Moduli (GPa) = 43.27488 56.67134 67.46913
#
# Poissons Ratio (x) = 0.14386 0.74170
# Poissons Ratio (y) = 0.10985 0.41890
# Poissons Ratio (z) = 0.47573 0.35186
#
# Static dielectric constant tensor:
#      x y z
#    x 1.616770 0.000000 0.000000 
#    y 0.000000 1.637880 0.000000 
#    z 0.000000 0.000000 1.390540 
# 
# From -- ./inp_files/75082.got.cif
#   From: 2010.05.17/outbox.cif.g08.bks.cpg/sg65_38_cif.got.tgz:75082.got - 2010.06.03 17:01:31.
