data_PCOD9490499
_publ_section_title
;
Structure prediction by ZEFSAII (Michael W. Deem and Ramdas Pophale) SiO2 
 PCOD9490499
Probable space group: C M M M
;
_chemical_formula_sum "Si O2"
_cell_formula_units_Z 72
_cell_length_a 8.684265
_cell_length_b 27.700162
_cell_length_c 16.385014
_cell_angle_alpha 90.000000
_cell_angle_beta 90.000000
_cell_angle_gamma 90.000000
_cell_volume 3941.506011
_symmetry_space_group_name_H-M "C M M M"
_symmetry_group_IT_number 65
_symmetry_cell_setting 'orthorhombic'
loop_
_space_group_symop_operation_xyz
x,y,z
-x,-y,z
x,-y,-z
-x,y,-z
-x,-y,-z
x,y,-z
-x,y,z
x,-y,z
1/2+x,1/2+y,z
1/2-x,1/2-y,z
1/2+x,1/2-y,-z
1/2-x,1/2+y,-z
1/2-x,1/2-y,-z
1/2+x,1/2+y,-z
1/2-x,1/2+y,z
1/2+x,1/2-y,z
loop_
_atom_site_type_symbol
_atom_site_label
_atom_site_fract_x
_atom_site_fract_y
_atom_site_fract_z
Si Si1 0.685453 0.150155 0.089877
Si Si2 0.315435 0.056217 0.500000
Si Si3 0.815721 0.102962 0.336472
Si Si4 0.815102 0.697813 0.257960
Si Si5 0.314627 0.445348 0.164744
O O1 0.500000 0.150431 0.090355
O O2 0.736668 0.183083 0.165835
O O3 0.741433 0.095960 0.109003
O O4 0.739200 0.165552 0.000000
O O5 0.500000 0.058888 0.500000
O O6 0.251361 0.081433 0.580954
O O7 0.269084 0.000000 0.500000
O O8 0.747462 0.155385 0.315530
O O9 0.777276 0.069174 0.258340
O O10 0.000000 0.105907 0.341766
O O11 0.750000 0.750000 0.279239
O O12 0.000000 0.698239 0.260366
O O13 0.500000 0.443139 0.156373
O O14 0.264609 0.500000 0.147062
#
# Coordination Sequence:
#
# PCOD9490499 Si02
#       5
#    16   8  16  16  16
#     4   9  19  34  50  72 103 137 175 219 264 313
#     4  11  23  37  56  85 118 147 175 211 257 307
#     4  10  20  36  57  80 107 140 179 220 262 311
#     4  10  20  36  57  79 105 138 176 219 268 319
#     4   9  18  32  50  73 102 137 176 217 261 310
#
# _framework density 18.267130000000002
#
# number of rings (size 3 to 8) (size 9 to 14) (size 15 to 20)
#    0.000    2.333    0.000    2.333    0.000    5.333 
#    0.000    2.778    0.000    0.000    0.000    0.000 
#    0.000    0.000    0.000    0.000    0.000    0.000 
#
# Total GULP energy -200955.041838 kJ/mol
# GULP energy per Si atom -5582.084496 kJ/mol
# Density = 1.822555 g / cm^3
# Si number density = 18.267130 Si / 1000 Ang^3
#
#
#
# Elastic Constant Matrix: (Units=GPa)
#
#
# Indices 1 2 3 4 5 6 
#
# 1 32.4589 25.9491 27.4580 0.0000 0.0000 0.0000
# 2 25.9491 110.6681 32.7832 0.0000 0.0000 0.0000
# 3 27.4580 32.7832 103.0203 0.0000 0.0000 0.0000
# 4 0.0000 0.0000 0.0000 6.3791 0.0000 0.0000
# 5 0.0000 0.0000 0.0000 0.0000 25.2183 0.0000
# 6 0.0000 0.0000 0.0000 0.0000 0.0000 30.3707
#
#
#
# Elastic Compliance Matrix: (Units=1/GPa)
#
#
# Indices 1 2 3 4 5 6 
#
# 1 0.045075 -0.007740 -0.009551 0.000000 0.000000 0.000000
# 2 -0.007740 0.011305 -0.001535 0.000000 0.000000 0.000000
# 3 -0.009551 -0.001535 0.012741 0.000000 0.000000 0.000000
# 4 0.000000 0.000000 0.000000 0.156762 0.000000 0.000000
# 5 0.000000 0.000000 0.000000 0.000000 0.039654 0.000000
# 6 0.000000 0.000000 0.000000 0.000000 0.000000 0.032926
#
#
# Mechanical properties :
#
#
# Convention : Reuss Voigt Hill
#
# Bulk Modulus (GPa) = 31.77582 46.50310 39.13946
# Shear Modulus (GPa) = 14.42565 23.05743 18.74154
#
# Velocity S-wave (km/s) = 2.81322 3.55665 3.20655
# Velocity P-wave (km/s) = 5.29009 6.50991 5.93144
#
# Compressibility (1/GPa) = 0.03147048
#
# Stress axis : x y z
#
# Youngs Moduli (GPa) = 22.18522 88.45286 78.48790
#
# Poissons Ratio (x) = 0.68461 0.74963
# Poissons Ratio (y) = 0.17171 0.12046
# Poissons Ratio (z) = 0.21189 0.13575
#
# Static dielectric constant tensor:
#      x y z
#    x 1.613210 0.000000 0.000000 
#    y 0.000000 1.597020 0.000000 
#    z 0.000000 0.000000 1.625960 
# 
# From -- ./inp_files/36527.got.cif
#   From: 2010.05.17/outbox.cif.g08.bks.cpg/sg65_19_cif.got.tgz:36527.got - 2010.06.03 17:01:31.
