data_PCOD9490484
_publ_section_title
;
Structure prediction by ZEFSAII (Michael W. Deem and Ramdas Pophale) SiO2 
 PCOD9490484
Probable space group: C M M M
;
_chemical_formula_sum "Si O2"
_cell_formula_units_Z 104
_cell_length_a 21.217642
_cell_length_b 26.740359
_cell_length_c 9.859312
_cell_angle_alpha 90.000000
_cell_angle_beta 90.000000
_cell_angle_gamma 90.000000
_cell_volume 5593.851862
_symmetry_space_group_name_H-M "C M M M"
_symmetry_group_IT_number 65
_symmetry_cell_setting 'orthorhombic'
loop_
_space_group_symop_operation_xyz
x,y,z
-x,-y,z
x,-y,-z
-x,y,-z
-x,-y,-z
x,y,-z
-x,y,z
x,-y,z
1/2+x,1/2+y,z
1/2-x,1/2-y,z
1/2+x,1/2-y,-z
1/2-x,1/2+y,-z
1/2-x,1/2-y,-z
1/2+x,1/2+y,-z
1/2-x,1/2+y,z
1/2+x,1/2-y,z
loop_
_atom_site_type_symbol
_atom_site_label
_atom_site_fract_x
_atom_site_fract_y
_atom_site_fract_z
Si Si1 0.500000 0.060589 0.835081
Si Si2 0.427534 0.438571 0.000000
Si Si3 0.195337 0.208221 0.846162
Si Si4 0.653794 0.440447 0.249608
Si Si5 0.928719 0.061072 0.500000
Si Si6 0.929101 0.727785 0.841095
Si Si7 0.093603 0.629182 0.664323
Si Si8 0.243730 0.624750 0.339301
O O1 0.558305 0.086335 0.752736
O O2 0.500000 0.000000 0.822348
O O3 0.500000 0.071890 0.000000
O O4 0.385785 0.421237 0.124259
O O5 0.429862 0.500000 0.000000
O O6 0.500000 0.422027 0.000000
O O7 0.250000 0.250000 0.847688
O O8 0.128160 0.233983 0.815312
O O9 0.219021 0.168900 0.736089
O O10 0.192381 0.187200 0.000000
O O11 0.652428 0.500000 0.244387
O O12 0.611571 0.422755 0.373571
O O13 0.724560 0.423484 0.271831
O O14 0.000000 0.078821 0.500000
O O15 0.930969 0.000000 0.500000
O O16 0.924873 0.681477 0.736825
O O17 0.000000 0.749225 0.830336
O O18 0.921455 0.710945 0.000000
O O19 0.079590 0.627463 0.500000
O O20 0.169010 0.625902 0.680175
O O21 0.255242 0.625623 0.500000
#
# Coordination Sequence:
#
# PCOD9490484 Si02
#       8
#     8   8  16  16   8  16  16  16
#     4  11  25  45  65  93 131 167 209 261 316 375
#     4   9  18  34  56  82 109 145 197 251 298 340
#     4  10  21  38  62  90 118 157 205 251 302 364
#     4  10  20  36  56  83 117 154 198 245 296 357
#     4   9  16  30  56  80 103 147 199 239 278 340
#     4  10  20  38  64  91 119 155 204 255 305 368
#     4  11  23  38  63  94 121 160 207 251 306 371
#     4  11  24  39  59  90 126 164 203 248 304 363
#
# _framework density 18.591840000000001
#
# number of rings (size 3 to 8) (size 9 to 14) (size 15 to 20)
#    0.000    1.769    3.077    1.154    1.077    4.615 
#    0.000    3.077    0.000    0.000    0.000    0.000 
#    0.000    0.000    0.000    0.000    0.000    0.000 
#
# Total GULP energy -289727.762094 kJ/mol
# GULP energy per Si atom -5571.687733 kJ/mol
# Density = 1.854952 g / cm^3
# Si number density = 18.591840 Si / 1000 Ang^3
#
#
#
# Elastic Constant Matrix: (Units=GPa)
#
#
# Indices 1 2 3 4 5 6 
#
# 1 168.1953 40.4382 68.7164 0.0000 0.0000 0.0000
# 2 40.4382 45.7117 43.6169 0.0000 0.0000 0.0000
# 3 68.7164 43.6169 147.1843 0.0000 0.0000 0.0000
# 4 0.0000 0.0000 0.0000 28.0573 0.0000 0.0000
# 5 0.0000 0.0000 0.0000 0.0000 29.9034 0.0000
# 6 0.0000 0.0000 0.0000 0.0000 0.0000 30.2207
#
#
#
# Elastic Compliance Matrix: (Units=1/GPa)
#
#
# Indices 1 2 3 4 5 6 
#
# 1 0.008076 -0.004945 -0.002305 0.000000 0.000000 0.000000
# 2 -0.004945 0.033528 -0.007627 0.000000 0.000000 0.000000
# 3 -0.002305 -0.007627 0.010131 0.000000 0.000000 0.000000
# 4 0.000000 0.000000 0.000000 0.035641 0.000000 0.000000
# 5 0.000000 0.000000 0.000000 0.000000 0.033441 0.000000
# 6 0.000000 0.000000 0.000000 0.000000 0.000000 0.033090
#
#
# Mechanical properties :
#
#
# Convention : Reuss Voigt Hill
#
# Bulk Modulus (GPa) = 45.49458 74.07047 59.78253
# Shear Modulus (GPa) = 26.17954 31.52427 28.85190
#
# Velocity S-wave (km/s) = 3.75656 4.12223 3.94364
# Velocity P-wave (km/s) = 6.58324 7.91100 7.27746
#
# Compressibility (1/GPa) = 0.02198064
#
# Stress axis : x y z
#
# Youngs Moduli (GPa) = 123.82199 29.82548 98.71015
#
# Poissons Ratio (x) = 0.14748 0.22754
# Poissons Ratio (y) = 0.61229 0.75288
# Poissons Ratio (z) = 0.28543 0.22749
#
# Static dielectric constant tensor:
#      x y z
#    x 1.834990 0.000000 0.000000 
#    y 0.000000 1.675820 0.000000 
#    z 0.000000 0.000000 1.630790 
# 
# From -- ./inp_files/12464.got.cif
#   From: 2010.05.17/outbox.cif.g08.bks.cpg/sg65_7_cif.got.tgz:12464.got - 2010.06.03 17:01:31.
