data_PCOD9490488
_publ_section_title
;
Structure prediction by ZEFSAII (Michael W. Deem and Ramdas Pophale) SiO2 
 PCOD9490488
Probable space group: C M M M
;
_chemical_formula_sum "Si O2"
_cell_formula_units_Z 104
_cell_length_a 23.596597
_cell_length_b 18.939660
_cell_length_c 13.791851
_cell_angle_alpha 90.000000
_cell_angle_beta 90.000000
_cell_angle_gamma 90.000000
_cell_volume 6163.737154
_symmetry_space_group_name_H-M "C M M M"
_symmetry_group_IT_number 65
_symmetry_cell_setting 'orthorhombic'
loop_
_space_group_symop_operation_xyz
x,y,z
-x,-y,z
x,-y,-z
-x,y,-z
-x,-y,-z
x,y,-z
-x,y,z
x,-y,z
1/2+x,1/2+y,z
1/2-x,1/2-y,z
1/2+x,1/2-y,-z
1/2-x,1/2+y,-z
1/2-x,1/2-y,-z
1/2+x,1/2+y,-z
1/2-x,1/2+y,z
1/2+x,1/2-y,z
loop_
_atom_site_type_symbol
_atom_site_label
_atom_site_fract_x
_atom_site_fract_y
_atom_site_fract_z
Si Si1 0.160792 0.580422 0.116051
Si Si2 0.733558 0.579259 0.609719
Si Si3 0.393654 0.342852 0.193831
Si Si4 0.759020 0.832747 0.211896
Si Si5 0.595973 0.581883 0.609009
Si Si6 0.066518 0.306771 0.883586
Si Si7 0.564350 0.415870 0.000000
O O1 0.159375 0.500000 0.153653
O O2 0.218092 0.621251 0.144564
O O3 0.107275 0.628635 0.146079
O O4 0.158426 0.576639 0.000000
O O5 0.753889 0.587288 0.500000
O O6 0.748194 0.500000 0.644710
O O7 0.755099 0.639626 0.680297
O O8 0.664908 0.582087 0.606989
O O9 0.325542 0.345996 0.198148
O O10 0.418559 0.373356 0.295081
O O11 0.414502 0.263634 0.172412
O O12 0.409670 0.388082 0.099647
O O13 0.750000 0.750000 0.198400
O O14 0.577497 0.604974 0.500000
O O15 0.578248 0.500000 0.621343
O O16 0.000000 0.321061 0.868022
O O17 0.074378 0.294496 0.000000
O O18 0.565864 0.500000 0.000000
O O19 0.500000 0.389585 0.000000
#
# Coordination Sequence:
#
# PCOD9490488 Si02
#       7
#    16  16  16  16  16  16   8
#     4  10  22  37  53  76 107 140 175 219 265 317
#     4   8  15  29  48  70 101 140 175 207 248 304
#     4  11  20  33  54  78 110 143 181 214 267 325
#     4  11  21  32  50  79 112 141 168 208 261 323
#     4   8  15  29  49  74 104 140 181 219 258 309
#     4  10  20  36  57  76  98 136 182 227 273 313
#     4  11  24  38  53  78 109 143 185 226 256 304
#
# _framework density 16.872879999999999
#
# number of rings (size 3 to 8) (size 9 to 14) (size 15 to 20)
#    0.000    2.231    2.308    2.308    1.077    2.769 
#    0.000    1.538    0.000    1.846    0.000    5.385 
#    0.000    0.000    0.000    4.615    0.000    0.462 
#
# Total GULP energy -289772.497411 kJ/mol
# GULP energy per Si atom -5572.548027 kJ/mol
# Density = 1.683448 g / cm^3
# Si number density = 16.872880 Si / 1000 Ang^3
#
#
#
# Elastic Constant Matrix: (Units=GPa)
#
#
# Indices 1 2 3 4 5 6 
#
# 1 67.4587 35.2175 27.0898 0.0000 0.0000 0.0000
# 2 35.2175 112.9868 54.0578 0.0000 0.0000 0.0000
# 3 27.0898 54.0578 94.1778 0.0000 0.0000 0.0000
# 4 0.0000 0.0000 0.0000 27.9698 0.0000 0.0000
# 5 0.0000 0.0000 0.0000 0.0000 -4.7111 0.0000
# 6 0.0000 0.0000 0.0000 0.0000 0.0000 8.2185
#
#
#
# Elastic Compliance Matrix: (Units=1/GPa)
#
#
# Indices 1 2 3 4 5 6 
#
# 1 0.018200 -0.004367 -0.002728 0.000000 0.000000 0.000000
# 2 -0.004367 0.013249 -0.006349 0.000000 0.000000 0.000000
# 3 -0.002728 -0.006349 0.015047 0.000000 0.000000 0.000000
# 4 0.000000 0.000000 0.000000 0.035753 0.000000 0.000000
# 5 0.000000 0.000000 0.000000 0.000000 -0.212265 0.000000
# 6 0.000000 0.000000 0.000000 0.000000 0.000000 0.121677
#
#
# Mechanical properties :
#
#
# Convention : Reuss Voigt Hill
#
# Bulk Modulus (GPa) = 51.00146 56.37262 53.68704
# Shear Modulus (GPa) = 199.31841 16.84599 108.08220
#
# Velocity S-wave (km/s) = 10.88053 3.16318 8.01223
# Velocity P-wave (km/s) = 13.71643 6.84279 10.83891
#
# Compressibility (1/GPa) = 0.01960728
#
# Stress axis : x y z
#
# Youngs Moduli (GPa) = 54.94652 75.47457 66.45768
#
# Poissons Ratio (x) = 0.32963 0.18130
# Poissons Ratio (y) = 0.23998 0.42193
# Poissons Ratio (z) = 0.14990 0.47918
#
# Static dielectric constant tensor:
#      x y z
#    x 1.558500 0.000000 0.000000 
#    y 0.000000 1.569380 0.000000 
#    z 0.000000 0.000000 1.607720 
# 
# From -- ./inp_files/45927.got.cif
#   From: 2010.05.17/outbox.cif.g08.bks.cpg/sg65_23_cif.got.tgz:45927.got - 2010.06.03 17:01:31.
