data_PCOD9490553
_publ_section_title
;
Structure prediction by ZEFSAII (Michael W. Deem and Ramdas Pophale) SiO2 
 PCOD9490553
Probable space group: C M M M
;
_chemical_formula_sum "Si O2"
_cell_formula_units_Z 104
_cell_length_a 7.972598
_cell_length_b 26.484238
_cell_length_c 28.651507
_cell_angle_alpha 90.000000
_cell_angle_beta 90.000000
_cell_angle_gamma 90.000000
_cell_volume 6049.713641
_symmetry_space_group_name_H-M "C M M M"
_symmetry_group_IT_number 65
_symmetry_cell_setting 'orthorhombic'
loop_
_space_group_symop_operation_xyz
x,y,z
-x,-y,z
x,-y,-z
-x,y,-z
-x,-y,-z
x,y,-z
-x,y,z
x,-y,z
1/2+x,1/2+y,z
1/2-x,1/2-y,z
1/2+x,1/2-y,-z
1/2-x,1/2+y,-z
1/2-x,1/2-y,-z
1/2+x,1/2+y,-z
1/2-x,1/2+y,z
1/2+x,1/2-y,z
loop_
_atom_site_type_symbol
_atom_site_label
_atom_site_fract_x
_atom_site_fract_y
_atom_site_fract_z
Si Si1 0.205874 0.000000 0.283690
Si Si2 0.797712 0.193523 0.720591
Si Si3 0.198584 0.000000 0.389764
Si Si4 0.196562 0.060983 0.879241
Si Si5 0.795756 0.903479 0.776536
Si Si6 0.800096 0.193618 0.386041
Si Si7 0.199117 0.401447 0.447361
Si Si8 0.500000 0.061279 0.053339
O O1 0.267102 0.000000 0.336944
O O2 0.259195 0.049890 0.255826
O O3 0.000000 0.000000 0.283800
O O4 0.750000 0.250000 0.735291
O O5 0.737123 0.149133 0.754393
O O6 0.735914 0.186065 0.667186
O O7 0.000000 0.190742 0.719326
O O8 0.245492 0.050033 0.417989
O O9 0.000000 0.000000 0.384867
O O10 0.247811 0.086016 0.830134
O O11 0.331044 0.075549 0.918660
O O12 0.000000 0.072961 0.889556
O O13 0.204150 0.000000 0.873092
O O14 0.000000 0.903540 0.775405
O O15 0.750000 0.250000 0.401084
O O16 0.741834 0.149742 0.420169
O O17 0.000000 0.191326 0.384095
O O18 0.270336 0.401984 0.500000
O O19 0.000000 0.404364 0.450877
O O20 0.500000 0.000000 0.052094
O O21 0.500000 0.079413 0.000000
#
# Coordination Sequence:
#
# PCOD9490553 Si02
#       8
#     8  16   8  16  16  16  16   8
#     4   9  16  28  50  77  98 125 164 198 245 303
#     4   9  18  32  49  71 100 133 164 199 247 302
#     4  11  22  36  57  80 102 130 167 210 250 308
#     4   9  16  28  47  68  97 138 175 212 260 306
#     4   9  15  27  48  71  98 132 166 202 244 299
#     4  10  20  36  58  80 102 129 163 206 254 310
#     4  11  24  40  56  73  99 133 165 207 259 306
#     4   9  18  30  44  66 102 140 176 222 256 299
#
# _framework density 17.190897
#
# number of rings (size 3 to 8) (size 9 to 14) (size 15 to 20)
#    0.000    2.385    0.769    2.308    0.000    5.846 
#    1.385    1.538    3.385    0.000    0.000    0.000 
#    0.000    0.615    0.308    0.000    0.000    0.000 
#
# Total GULP energy -290069.258337 kJ/mol
# GULP energy per Si atom -5578.254968 kJ/mol
# Density = 1.715177 g / cm^3
# Si number density = 17.190897 Si / 1000 Ang^3
#
#
#
# Elastic Constant Matrix: (Units=GPa)
#
#
# Indices 1 2 3 4 5 6 
#
# 1 46.9652 22.8250 45.3470 0.0000 0.0000 0.0000
# 2 22.8250 111.3587 90.5959 0.0000 0.0000 0.0000
# 3 45.3470 90.5959 162.0357 0.0000 0.0000 0.0000
# 4 0.0000 0.0000 0.0000 -33.7311 0.0000 0.0000
# 5 0.0000 0.0000 0.0000 0.0000 11.4563 0.0000
# 6 0.0000 0.0000 0.0000 0.0000 0.0000 24.0218
#
#
#
# Elastic Compliance Matrix: (Units=1/GPa)
#
#
# Indices 1 2 3 4 5 6 
#
# 1 0.029266 0.001219 -0.008872 0.000000 0.000000 0.000000
# 2 0.001219 0.016524 -0.009580 0.000000 0.000000 0.000000
# 3 -0.008872 -0.009580 0.014011 0.000000 0.000000 0.000000
# 4 0.000000 0.000000 0.000000 -0.029646 0.000000 0.000000
# 5 0.000000 0.000000 0.000000 0.000000 0.087288 0.000000
# 6 0.000000 0.000000 0.000000 0.000000 0.000000 0.041629
#
#
# Mechanical properties :
#
#
# Convention : Reuss Voigt Hill
#
# Bulk Modulus (GPa) = 39.47080 70.87726 55.17403
# Shear Modulus (GPa) = 24.75476 11.12218 17.93847
#
# Velocity S-wave (km/s) = 3.79884 2.54634 3.23381
# Velocity P-wave (km/s) = 6.50013 7.06853 6.79028
#
# Compressibility (1/GPa) = 0.02533518
#
# Stress axis : x y z
#
# Youngs Moduli (GPa) = 34.16918 60.51899 71.37479
#
# Poissons Ratio (x) = -0.07378 0.63324
# Poissons Ratio (y) = -0.04166 0.68376
# Poissons Ratio (z) = 0.30315 0.57976
#
# Static dielectric constant tensor:
#      x y z
#    x 1.612490 0.000000 0.000000 
#    y 0.000000 1.546630 0.000000 
#    z 0.000000 0.000000 1.587830 
# 
# From -- ./inp_files/73857.got.cif
#   From: 2010.05.17/outbox.cif.g08.bks.cpg/sg65_37_cif.got.tgz:73857.got - 2010.06.03 17:01:31.
