data_PCOD9490677
_publ_section_title
;
Structure prediction by ZEFSAII (Michael W. Deem and Ramdas Pophale) SiO2 
 PCOD9490677
Probable space group: C M M M
;
_chemical_formula_sum "Si O2"
_cell_formula_units_Z 64
_cell_length_a 16.676455
_cell_length_b 13.638916
_cell_length_c 13.951961
_cell_angle_alpha 90.000000
_cell_angle_beta 90.000000
_cell_angle_gamma 90.000000
_cell_volume 3173.356354
_symmetry_space_group_name_H-M "C M M M"
_symmetry_group_IT_number 65
_symmetry_cell_setting 'orthorhombic'
loop_
_space_group_symop_operation_xyz
x,y,z
-x,-y,z
x,-y,-z
-x,y,-z
-x,-y,-z
x,y,-z
-x,y,z
x,-y,z
1/2+x,1/2+y,z
1/2-x,1/2-y,z
1/2+x,1/2-y,-z
1/2-x,1/2+y,-z
1/2-x,1/2-y,-z
1/2+x,1/2+y,-z
1/2-x,1/2+y,z
1/2+x,1/2-y,z
loop_
_atom_site_type_symbol
_atom_site_label
_atom_site_fract_x
_atom_site_fract_y
_atom_site_fract_z
Si Si1 0.841695 0.211560 0.113227
Si Si2 0.134959 0.000000 0.604297
Si Si3 0.407859 0.500000 0.818319
Si Si4 0.780648 0.646867 0.390124
Si Si5 0.091829 0.607343 0.770748
O O1 0.750000 0.250000 0.125193
O O2 0.892141 0.297061 0.165110
O O3 0.861989 0.101230 0.151509
O O4 0.858864 0.209754 0.000000
O O5 0.087706 0.000000 0.702625
O O6 0.198408 0.912244 0.607407
O O7 0.093856 0.000000 0.500000
O O8 0.500000 0.500000 0.856006
O O9 0.810696 0.652590 0.500000
O O10 0.750000 0.750000 0.354076
O O11 0.847630 0.609634 0.318525
O O12 0.103715 0.500000 0.819714
O O13 0.000000 0.611327 0.737658
#
# Coordination Sequence:
#
# PCOD9490677 Si02
#       5
#    16   8   8  16  16
#     4  11  26  45  68  94 124 166 219 273 325 386
#     4  10  20  36  60  90 125 165 207 254 310 372
#     4  12  25  43  70 100 133 171 214 273 334 389
#     4  10  20  36  59  87 121 165 214 259 306 369
#     4  11  23  38  61  93 130 171 208 256 324 389
#
# _framework density 20.167921
#
# number of rings (size 3 to 8) (size 9 to 14) (size 15 to 20)
#    0.000    1.250    1.250    4.875    1.750    3.750 
#    0.000    2.500    0.000    7.500    0.000    0.000 
#    0.000    0.000    0.000    0.000    0.000    0.000 
#
# Total GULP energy -178431.645360 kJ/mol
# GULP energy per Si atom -5575.988917 kJ/mol
# Density = 2.012202 g / cm^3
# Si number density = 20.167921 Si / 1000 Ang^3
#
#
#
# Elastic Constant Matrix: (Units=GPa)
#
#
# Indices 1 2 3 4 5 6 
#
# 1 103.4321 54.0771 35.8386 0.0000 0.0000 0.0000
# 2 54.0771 178.4627 44.8170 0.0000 0.0000 0.0000
# 3 35.8386 44.8170 131.7968 0.0000 0.0000 0.0000
# 4 0.0000 0.0000 0.0000 26.8128 0.0000 0.0000
# 5 0.0000 0.0000 0.0000 0.0000 -6.8737 0.0000
# 6 0.0000 0.0000 0.0000 0.0000 0.0000 74.7454
#
#
#
# Elastic Compliance Matrix: (Units=1/GPa)
#
#
# Indices 1 2 3 4 5 6 
#
# 1 0.012058 -0.003094 -0.002226 0.000000 0.000000 0.000000
# 2 -0.003094 0.006921 -0.001512 0.000000 0.000000 0.000000
# 3 -0.002226 -0.001512 0.008707 0.000000 0.000000 0.000000
# 4 0.000000 0.000000 0.000000 0.037296 0.000000 0.000000
# 5 0.000000 0.000000 0.000000 0.000000 -0.145483 0.000000
# 6 0.000000 0.000000 0.000000 0.000000 0.000000 0.013379
#
#
# Mechanical properties :
#
#
# Convention : Reuss Voigt Hill
#
# Bulk Modulus (GPa) = 71.32896 75.90632 73.61764
# Shear Modulus (GPa) = -102.49254 37.53417 -32.47919
#
# Velocity S-wave (km/s) = -7.13652 4.31871 -4.01738
# Velocity P-wave (km/s) = 5.69756 7.91121 3.88104
#
# Compressibility (1/GPa) = 0.01401955
#
# Stress axis : x y z
#
# Youngs Moduli (GPa) = 82.93583 144.49234 114.85029
#
# Poissons Ratio (x) = 0.44713 0.25571
# Poissons Ratio (y) = 0.25664 0.17364
# Poissons Ratio (z) = 0.18465 0.21846
#
# Static dielectric constant tensor:
#      x y z
#    x 1.688680 0.000000 0.000000 
#    y 0.000000 1.743330 0.000000 
#    z 0.000000 0.000000 1.725240 
# 
# From -- ./inp_files/41910.got.cif
#   From: 2010.05.17/outbox.cif.g08.bks.cpg/sg65_21_cif.got.tgz:41910.got - 2010.06.03 17:01:31.
