data_PCOD9490338
_publ_section_title
;
Structure prediction by ZEFSAII (Michael W. Deem and Ramdas Pophale) SiO2 
 PCOD9490338
Probable space group: C M M M
;
_chemical_formula_sum "Si O2"
_cell_formula_units_Z 80
_cell_length_a 15.667188
_cell_length_b 8.089391
_cell_length_c 28.816962
_cell_angle_alpha 90.000000
_cell_angle_beta 90.000000
_cell_angle_gamma 90.000000
_cell_volume 3652.204407
_symmetry_space_group_name_H-M "C M M M"
_symmetry_group_IT_number 65
_symmetry_cell_setting 'orthorhombic'
loop_
_space_group_symop_operation_xyz
x,y,z
-x,-y,z
x,-y,-z
-x,y,-z
-x,-y,-z
x,y,-z
-x,y,z
x,-y,z
1/2+x,1/2+y,z
1/2-x,1/2-y,z
1/2+x,1/2-y,-z
1/2-x,1/2+y,-z
1/2-x,1/2-y,-z
1/2+x,1/2+y,-z
1/2-x,1/2+y,z
1/2+x,1/2-y,z
loop_
_atom_site_type_symbol
_atom_site_label
_atom_site_fract_x
_atom_site_fract_y
_atom_site_fract_z
Si Si1 0.154928 0.198215 0.701225
Si Si2 0.395798 0.196625 0.000000
Si Si3 0.104759 0.000000 0.554023
Si Si4 0.901641 0.801365 0.802192
Si Si5 0.401354 0.820516 0.393305
Si Si6 0.099889 0.699012 0.900631
O O1 0.250000 0.250000 0.688699
O O2 0.138736 0.255919 0.753976
O O3 0.099024 0.280543 0.661441
O O4 0.143027 0.000000 0.699699
O O5 0.364956 0.263093 0.049878
O O6 0.500000 0.211535 0.000000
O O7 0.377981 0.000000 0.000000
O O8 0.136698 0.835752 0.579965
O O9 0.126170 0.000000 0.500000
O O10 0.000000 0.000000 0.557741
O O11 0.861532 0.749718 0.851339
O O12 0.000000 0.742624 0.801691
O O13 0.901821 0.000000 0.801501
O O14 0.500000 0.830270 0.408310
O O15 0.361096 0.000000 0.401566
O O16 0.100292 0.500000 0.902454
O O17 0.000000 0.753287 0.899289
#
# Coordination Sequence:
#
# PCOD9490338 Si02
#       6
#    16   8   8  16  16  16
#     4  11  22  36  53  75 104 141 178 222 271 321
#     4   7  10  18  33  55  84 117 152 191 243 297
#     4   9  18  34  58  88 120 150 181 222 268 308
#     4   9  18  31  47  68  98 132 164 204 259 315
#     4  10  20  35  58  87 115 147 186 223 264 317
#     4   8  13  22  38  60  87 120 157 199 243 297
#
# _framework density 21.904578999999998
#
# number of rings (size 3 to 8) (size 9 to 14) (size 15 to 20)
#    0.000    2.800    1.000    2.400    0.000    2.800 
#    0.000    4.500    0.000    3.600    0.000    0.700 
#    0.000    0.000    0.000    0.000    0.000    0.000 
#
# Total GULP energy -222960.501248 kJ/mol
# GULP energy per Si atom -5574.012531 kJ/mol
# Density = 2.185472 g / cm^3
# Si number density = 21.904579 Si / 1000 Ang^3
#
#
#
# Elastic Constant Matrix: (Units=GPa)
#
#
# Indices 1 2 3 4 5 6 
#
# 1 25.7524 4.8746 -3.5736 0.0000 0.0000 0.0000
# 2 4.8746 99.0583 68.5593 0.0000 0.0000 0.0000
# 3 -3.5736 68.5593 162.0071 0.0000 0.0000 0.0000
# 4 0.0000 0.0000 0.0000 105.6377 0.0000 0.0000
# 5 0.0000 0.0000 0.0000 0.0000 -25.4327 0.0000
# 6 0.0000 0.0000 0.0000 0.0000 0.0000 8.2701
#
#
#
# Elastic Compliance Matrix: (Units=1/GPa)
#
#
# Indices 1 2 3 4 5 6 
#
# 1 0.039855 -0.003634 0.002417 0.000000 0.000000 0.000000
# 2 -0.003634 0.014608 -0.006262 0.000000 0.000000 0.000000
# 3 0.002417 -0.006262 0.008876 0.000000 0.000000 0.000000
# 4 0.000000 0.000000 0.000000 0.009466 0.000000 0.000000
# 5 0.000000 0.000000 0.000000 0.000000 -0.039320 0.000000
# 6 0.000000 0.000000 0.000000 0.000000 0.000000 0.120917
#
#
# Mechanical properties :
#
#
# Convention : Reuss Voigt Hill
#
# Bulk Modulus (GPa) = 20.66957 47.39317 34.03137
# Shear Modulus (GPa) = 26.95597 32.15885 29.55741
#
# Velocity S-wave (km/s) = 3.51181 3.83578 3.67736
# Velocity P-wave (km/s) = 5.08924 6.42657 5.79660
#
# Compressibility (1/GPa) = 0.04838029
#
# Stress axis : x y z
#
# Youngs Moduli (GPa) = 25.09115 68.45597 112.66456
#
# Poissons Ratio (x) = 0.24878 -0.27231
# Poissons Ratio (y) = 0.09118 0.70551
# Poissons Ratio (z) = -0.06065 0.42867
#
# Static dielectric constant tensor:
#      x y z
#    x 1.741890 0.000000 0.000000 
#    y 0.000000 1.801910 0.000000 
#    z 0.000000 0.000000 1.834820 
# 
# From -- ./inp_files/75124.got.cif
#   From: 2010.05.17/outbox.cif.g08.bks.cpg/sg65_38_cif.got.tgz:75124.got - 2010.06.03 17:01:31.
