data_PCOD9490508
_publ_section_title
;
Structure prediction by ZEFSAII (Michael W. Deem and Ramdas Pophale) SiO2 
 PCOD9490508
Probable space group: C M M M
;
_chemical_formula_sum "Si O2"
_cell_formula_units_Z 56
_cell_length_a 14.766115
_cell_length_b 8.513474
_cell_length_c 23.049717
_cell_angle_alpha 90.000000
_cell_angle_beta 90.000000
_cell_angle_gamma 90.000000
_cell_volume 2897.601502
_symmetry_space_group_name_H-M "C M M M"
_symmetry_group_IT_number 65
_symmetry_cell_setting 'orthorhombic'
loop_
_space_group_symop_operation_xyz
x,y,z
-x,-y,z
x,-y,-z
-x,y,-z
-x,-y,-z
x,y,-z
-x,y,z
x,-y,z
1/2+x,1/2+y,z
1/2-x,1/2-y,z
1/2+x,1/2-y,-z
1/2-x,1/2+y,-z
1/2-x,1/2-y,-z
1/2+x,1/2+y,-z
1/2-x,1/2+y,z
1/2+x,1/2-y,z
loop_
_atom_site_type_symbol
_atom_site_label
_atom_site_fract_x
_atom_site_fract_y
_atom_site_fract_z
Si Si1 0.500000 0.310273 0.406917
Si Si2 0.646421 0.690013 0.062367
Si Si3 0.852542 0.188842 0.189482
Si Si4 0.148005 0.810570 0.500000
Si Si5 0.500000 0.813777 0.723335
O O1 0.500000 0.500000 0.405256
O O2 0.588444 0.261316 0.444059
O O3 0.500000 0.247405 0.342187
O O4 0.645211 0.500000 0.062202
O O5 0.750000 0.750000 0.062224
O O6 0.610430 0.738638 0.125479
O O7 0.606659 0.741464 0.000000
O O8 0.750000 0.250000 0.194270
O O9 0.913702 0.252882 0.240818
O O10 0.852758 0.000000 0.191361
O O11 0.250000 0.750000 0.500000
O O12 0.150249 0.000000 0.500000
O O13 0.500000 0.000000 0.722952
#
# Coordination Sequence:
#
# PCOD9490508 Si02
#       5
#     8  16  16   8   8
#     4   9  20  40  60  83 117 153 184 220 271 324
#     4   8  14  26  47  74 101 132 174 225 283 342
#     4  10  20  36  57  80 109 146 187 235 288 342
#     4   9  19  37  64  92 118 147 179 219 267 320
#     4  12  25  39  56  81 114 154 196 235 276 326
#
# _framework density 19.326328
#
# number of rings (size 3 to 8) (size 9 to 14) (size 15 to 20)
#    0.000    2.571    0.000    3.000    0.000    3.429 
#    0.000    5.000    0.000    4.286    0.000    0.000 
#    0.000    0.000    0.000    0.000    0.000    0.000 
#
# Total GULP energy -156117.546559 kJ/mol
# GULP energy per Si atom -5575.626663 kJ/mol
# Density = 1.928234 g / cm^3
# Si number density = 19.326328 Si / 1000 Ang^3
#
#
#
# Elastic Constant Matrix: (Units=GPa)
#
#
# Indices 1 2 3 4 5 6 
#
# 1 136.7512 30.5698 97.9026 0.0000 0.0000 0.0000
# 2 30.5698 44.5605 52.8804 0.0000 0.0000 0.0000
# 3 97.9026 52.8804 243.5164 0.0000 0.0000 0.0000
# 4 0.0000 0.0000 0.0000 22.1012 0.0000 0.0000
# 5 0.0000 0.0000 0.0000 0.0000 20.1356 0.0000
# 6 0.0000 0.0000 0.0000 0.0000 0.0000 25.2590
#
#
#
# Elastic Compliance Matrix: (Units=1/GPa)
#
#
# Indices 1 2 3 4 5 6 
#
# 1 0.010552 -0.002970 -0.003597 0.000000 0.000000 0.000000
# 2 -0.002970 0.031068 -0.005553 0.000000 0.000000 0.000000
# 3 -0.003597 -0.005553 0.006758 0.000000 0.000000 0.000000
# 4 0.000000 0.000000 0.000000 0.045246 0.000000 0.000000
# 5 0.000000 0.000000 0.000000 0.000000 0.049663 0.000000
# 6 0.000000 0.000000 0.000000 0.000000 0.000000 0.039590
#
#
# Mechanical properties :
#
#
# Convention : Reuss Voigt Hill
#
# Bulk Modulus (GPa) = 41.42682 87.50375 64.46528
# Shear Modulus (GPa) = 23.23814 29.73086 26.48450
#
# Velocity S-wave (km/s) = 3.47134 3.92645 3.70589
# Velocity P-wave (km/s) = 6.12771 8.11981 7.19306
#
# Compressibility (1/GPa) = 0.02413895
#
# Stress axis : x y z
#
# Youngs Moduli (GPa) = 94.77036 32.18736 147.96191
#
# Poissons Ratio (x) = 0.09559 0.53226
# Poissons Ratio (y) = 0.28146 0.82156
# Poissons Ratio (z) = 0.34092 0.17872
#
# Static dielectric constant tensor:
#      x y z
#    x 1.953130 0.000000 0.000000 
#    y 0.000000 1.649340 0.000000 
#    z 0.000000 0.000000 1.699100 
# 
# From -- ./inp_files/58637.got.cif
#   From: 2010.05.17/outbox.cif.g08.bks.cpg/sg65_30_cif.got.tgz:58637.got - 2010.06.03 17:01:31.
