data_PCOD9490305
_publ_section_title
;
Structure prediction by ZEFSAII (Michael W. Deem and Ramdas Pophale) SiO2 
 PCOD9490305
Probable space group: C M M M
;
_chemical_formula_sum "Si O2"
_cell_formula_units_Z 58
_cell_length_a 9.704860
_cell_length_b 15.752911
_cell_length_c 21.575378
_cell_angle_alpha 90.000000
_cell_angle_beta 90.000000
_cell_angle_gamma 90.000000
_cell_volume 3298.439384
_symmetry_space_group_name_H-M "C M M M"
_symmetry_group_IT_number 65
_symmetry_cell_setting 'orthorhombic'
loop_
_space_group_symop_operation_xyz
x,y,z
-x,-y,z
x,-y,-z
-x,y,-z
-x,-y,-z
x,y,-z
-x,y,z
x,-y,z
1/2+x,1/2+y,z
1/2-x,1/2-y,z
1/2+x,1/2-y,-z
1/2-x,1/2+y,-z
1/2-x,1/2-y,-z
1/2+x,1/2+y,-z
1/2-x,1/2+y,z
1/2+x,1/2-y,z
loop_
_atom_site_type_symbol
_atom_site_label
_atom_site_fract_x
_atom_site_fract_y
_atom_site_fract_z
Si Si1 0.284643 0.094783 0.000000
Si Si2 0.000000 0.000000 0.000000
Si Si3 0.832434 0.500000 0.350715
Si Si4 0.336453 0.166157 0.426580
Si Si5 0.167501 0.500000 0.791817
Si Si6 0.660840 0.832449 0.865841
O O1 0.325041 0.143958 0.938172
O O2 0.122298 0.073117 0.000000
O O3 0.349213 0.000000 0.000000
O O4 0.790803 0.584932 0.386982
O O5 0.787215 0.500000 0.279430
O O6 0.000000 0.500000 0.351080
O O7 0.318917 0.148432 0.500000
O O8 0.500000 0.180350 0.416081
O O9 0.250000 0.250000 0.411253
O O10 0.210667 0.415239 0.827943
O O11 0.000000 0.500000 0.792857
O O12 0.500000 0.817960 0.851428
O O13 0.750000 0.750000 0.851436
#
# Coordination Sequence:
#
# PCOD9490305 Si02
#       6
#     8   2   8  16   8  16
#     4  10  20  35  58  81 109 135 167 214 267 316
#     4   8  20  32  58  84 108 134 166 212 262 316
#     4   9  17  31  54  74 101 140 179 213 253 310
#     4   9  17  30  50  78 106 135 171 214 259 306
#     4   9  19  37  53  76 104 138 177 219 261 306
#     4  11  23  37  58  80 107 139 177 218 266 320
#
# _framework density 17.584074999999999
#
# number of rings (size 3 to 8) (size 9 to 14) (size 15 to 20)
#    0.414    1.931    1.379    1.241    1.931    3.310 
#    0.000    0.690    0.000    4.966    0.000    0.000 
#    0.000    0.000    0.000    0.000    0.000    0.000 
#
# Total GULP energy -161453.494955 kJ/mol
# GULP energy per Si atom -5567.361895 kJ/mol
# Density = 1.754405 g / cm^3
# Si number density = 17.584075 Si / 1000 Ang^3
#
#
#
# Elastic Constant Matrix: (Units=GPa)
#
#
# Indices 1 2 3 4 5 6 
#
# 1 59.9973 52.9655 23.0431 0.0000 0.0000 0.0000
# 2 52.9655 191.4362 96.7911 0.0000 0.0000 0.0000
# 3 23.0431 96.7911 111.3467 0.0000 0.0000 0.0000
# 4 0.0000 0.0000 0.0000 -4.1809 0.0000 0.0000
# 5 0.0000 0.0000 0.0000 0.0000 2.4882 0.0000
# 6 0.0000 0.0000 0.0000 0.0000 0.0000 285.1506
#
#
#
# Elastic Compliance Matrix: (Units=1/GPa)
#
#
# Indices 1 2 3 4 5 6 
#
# 1 0.022163 -0.006803 0.001327 0.000000 0.000000 0.000000
# 2 -0.006803 0.011408 -0.008509 0.000000 0.000000 0.000000
# 3 0.001327 -0.008509 0.016103 0.000000 0.000000 0.000000
# 4 0.000000 0.000000 0.000000 -0.239182 0.000000 0.000000
# 5 0.000000 0.000000 0.000000 0.000000 0.401892 0.000000
# 6 0.000000 0.000000 0.000000 0.000000 0.000000 0.003507
#
#
# Mechanical properties :
#
#
# Convention : Reuss Voigt Hill
#
# Bulk Modulus (GPa) = 46.07318 78.70883 62.39100
# Shear Modulus (GPa) = 19.91275 69.35694 44.63484
#
# Velocity S-wave (km/s) = 3.36881 6.28718 5.04369
# Velocity P-wave (km/s) = 6.43354 9.87742 8.33528
#
# Compressibility (1/GPa) = 0.02170460
#
# Stress axis : x y z
#
# Youngs Moduli (GPa) = 45.11941 87.65787 62.10071
#
# Poissons Ratio (x) = 0.59633 -0.08241
# Poissons Ratio (y) = 0.30695 0.52840
# Poissons Ratio (z) = -0.05987 0.74587
#
# Static dielectric constant tensor:
#      x y z
#    x 1.587040 0.000000 0.000000 
#    y 0.000000 1.589150 0.000000 
#    z 0.000000 0.000000 1.591920 
# 
# From -- ./inp_files/61185.got.cif
#   From: 2010.05.17/outbox.cif.g08.bks.cpg/sg65_31_cif.got.tgz:61185.got - 2010.06.03 17:01:31.
