data_PCOD9490487
_publ_section_title
;
Structure prediction by ZEFSAII (Michael W. Deem and Ramdas Pophale) SiO2 
 PCOD9490487
Probable space group: C M M M
;
_chemical_formula_sum "Si O2"
_cell_formula_units_Z 72
_cell_length_a 10.372560
_cell_length_b 25.337215
_cell_length_c 15.468171
_cell_angle_alpha 90.000000
_cell_angle_beta 90.000000
_cell_angle_gamma 90.000000
_cell_volume 4065.217597
_symmetry_space_group_name_H-M "C M M M"
_symmetry_group_IT_number 65
_symmetry_cell_setting 'orthorhombic'
loop_
_space_group_symop_operation_xyz
x,y,z
-x,-y,z
x,-y,-z
-x,y,-z
-x,-y,-z
x,y,-z
-x,y,z
x,-y,z
1/2+x,1/2+y,z
1/2-x,1/2-y,z
1/2+x,1/2-y,-z
1/2-x,1/2+y,-z
1/2-x,1/2-y,-z
1/2+x,1/2+y,-z
1/2-x,1/2+y,z
1/2+x,1/2-y,z
loop_
_atom_site_type_symbol
_atom_site_label
_atom_site_fract_x
_atom_site_fract_y
_atom_site_fract_z
Si Si1 0.000000 0.632531 0.397402
Si Si2 0.133664 0.209207 0.500000
Si Si3 0.000000 0.060447 0.103484
Si Si4 0.343388 0.801781 0.000000
Si Si5 0.245793 0.624161 0.159048
Si Si6 0.000000 0.562631 0.234156
Si Si7 0.257657 0.687473 0.668895
O O1 0.000000 0.581617 0.334361
O O2 0.876766 0.666148 0.368224
O O3 0.000000 0.622069 0.500000
O O4 0.250000 0.250000 0.500000
O O5 0.145992 0.177922 0.411006
O O6 0.000000 0.239545 0.500000
O O7 0.130081 0.090647 0.130940
O O8 0.000000 0.000000 0.136185
O O9 0.000000 0.058983 0.000000
O O10 0.250000 0.750000 0.000000
O O11 0.305500 0.837046 0.916373
O O12 0.500000 0.790719 0.000000
O O13 0.286048 0.658300 0.242515
O O14 0.126422 0.587453 0.188732
O O15 0.000000 0.500000 0.227155
O O16 0.250000 0.750000 0.685341
#
# Coordination Sequence:
#
# PCOD9490487 Si02
#       7
#     8   8   8   8  16   8  16
#     4  10  20  36  56  88 119 154 198 252 293 355
#     4  10  22  34  52  82 113 156 198 236 281 340
#     4  11  24  41  65  91 117 154 205 262 313 350
#     4  12  26  44  63  92 130 166 197 240 295 366
#     4  11  23  43  61  91 123 158 203 247 306 364
#     4  10  22  42  66  87 116 158 206 258 306 356
#     4  10  22  34  57  84 122 158 198 235 293 359
#
# _framework density 17.711227999999998
#
# number of rings (size 3 to 8) (size 9 to 14) (size 15 to 20)
#    0.000    1.444    3.333    1.333    9.333    0.222 
#    0.000    0.556    0.000    0.000    0.000    0.778 
#    0.000    0.000    0.000    0.000    0.000    0.000 
#
# Total GULP energy -200829.166501 kJ/mol
# GULP energy per Si atom -5578.587958 kJ/mol
# Density = 1.767092 g / cm^3
# Si number density = 17.711228 Si / 1000 Ang^3
#
#
#
# Elastic Constant Matrix: (Units=GPa)
#
#
# Indices 1 2 3 4 5 6 
#
# 1 145.3249 61.3420 54.4312 0.0000 0.0000 0.0000
# 2 61.3420 142.1436 75.8903 0.0000 0.0000 0.0000
# 3 54.4312 75.8903 156.3279 0.0000 0.0000 0.0000
# 4 0.0000 0.0000 0.0000 18.3327 0.0000 0.0000
# 5 0.0000 0.0000 0.0000 0.0000 137.9054 0.0000
# 6 0.0000 0.0000 0.0000 0.0000 0.0000 22.9436
#
#
#
# Elastic Compliance Matrix: (Units=1/GPa)
#
#
# Indices 1 2 3 4 5 6 
#
# 1 0.008711 -0.002889 -0.001631 0.000000 0.000000 0.000000
# 2 -0.002889 0.010454 -0.004069 0.000000 0.000000 0.000000
# 3 -0.001631 -0.004069 0.008940 0.000000 0.000000 0.000000
# 4 0.000000 0.000000 0.000000 0.054547 0.000000 0.000000
# 5 0.000000 0.000000 0.000000 0.000000 0.007251 0.000000
# 6 0.000000 0.000000 0.000000 0.000000 0.000000 0.043585
#
#
# Mechanical properties :
#
#
# Convention : Reuss Voigt Hill
#
# Bulk Modulus (GPa) = 91.50712 91.90259 91.70485
# Shear Modulus (GPa) = 32.40234 52.64520 42.52377
#
# Velocity S-wave (km/s) = 4.28188 5.45790 4.90526
# Velocity P-wave (km/s) = 8.73066 9.57708 9.16364
#
# Compressibility (1/GPa) = 0.01092811
#
# Stress axis : x y z
#
# Youngs Moduli (GPa) = 114.79397 95.65393 111.85515
#
# Poissons Ratio (x) = 0.27631 0.18242
# Poissons Ratio (y) = 0.33160 0.45518
# Poissons Ratio (z) = 0.18721 0.38925
#
# Static dielectric constant tensor:
#      x y z
#    x 1.583590 0.000000 0.000000 
#    y 0.000000 1.589720 0.000000 
#    z 0.000000 0.000000 1.632910 
# 
# From -- ./inp_files/36745.got.cif
#   From: 2010.05.17/outbox.cif.g08.bks.cpg/sg65_19_cif.got.tgz:36745.got - 2010.06.03 17:01:31.
