data_PCOD9490398
_publ_section_title
;
Structure prediction by ZEFSAII (Michael W. Deem and Ramdas Pophale) SiO2 
 PCOD9490398
Probable space group: C M M M
;
_chemical_formula_sum "Si O2"
_cell_formula_units_Z 104
_cell_length_a 21.471382
_cell_length_b 18.728357
_cell_length_c 14.051789
_cell_angle_alpha 90.000000
_cell_angle_beta 90.000000
_cell_angle_gamma 90.000000
_cell_volume 5650.557488
_symmetry_space_group_name_H-M "C M M M"
_symmetry_group_IT_number 65
_symmetry_cell_setting 'orthorhombic'
loop_
_space_group_symop_operation_xyz
x,y,z
-x,-y,z
x,-y,-z
-x,y,-z
-x,-y,-z
x,y,-z
-x,y,z
x,-y,z
1/2+x,1/2+y,z
1/2-x,1/2-y,z
1/2+x,1/2-y,-z
1/2-x,1/2+y,-z
1/2-x,1/2-y,-z
1/2+x,1/2+y,-z
1/2-x,1/2+y,z
1/2+x,1/2-y,z
loop_
_atom_site_type_symbol
_atom_site_label
_atom_site_fract_x
_atom_site_fract_y
_atom_site_fract_z
Si Si1 0.704984 0.817848 0.388780
Si Si2 0.072196 0.794622 0.894132
Si Si3 0.177681 0.085325 0.603975
Si Si4 0.620380 0.838418 0.789165
Si Si5 0.500000 0.913722 0.884402
Si Si6 0.864851 0.084836 0.195928
Si Si7 0.245772 0.665529 0.887145
O O1 0.686854 0.809575 0.500000
O O2 0.750000 0.750000 0.363884
O O3 0.753599 0.883124 0.380817
O O4 0.646786 0.832113 0.318829
O O5 0.105721 0.742069 0.822253
O O6 0.081578 0.875323 0.861405
O O7 0.000000 0.776031 0.896153
O O8 0.098907 0.784130 0.000000
O O9 0.156108 0.110934 0.500000
O O10 0.133987 0.103934 0.692221
O O11 0.181656 0.000000 0.602735
O O12 0.560570 0.883078 0.827057
O O13 0.680650 0.863240 0.847985
O O14 0.500000 0.000000 0.881222
O O15 0.500000 0.893804 0.000000
O O16 0.801707 0.120345 0.156755
O O17 0.864878 0.000000 0.184462
O O18 0.250000 0.750000 0.862315
O O19 0.248171 0.660007 0.000000
#
# Coordination Sequence:
#
# PCOD9490398 Si02
#       7
#    16  16  16  16   8  16  16
#     4  10  20  35  60  93 122 148 186 242 303 356
#     4  11  23  39  60  81 108 157 206 235 277 351
#     4   9  18  34  55  80 113 151 185 219 276 354
#     4  12  21  38  63  84 113 156 202 245 292 360
#     4  11  26  44  61  85 118 160 213 266 305 349
#     4  11  22  36  56  87 121 146 183 244 302 343
#     4  11  21  33  55  85 116 149 187 232 290 359
#
# _framework density 18.405263999999999
#
# number of rings (size 3 to 8) (size 9 to 14) (size 15 to 20)
#    0.000    1.308    3.846    3.231    0.000    2.769 
#    0.000    1.154    0.000    1.846    0.000    2.154 
#    0.000    0.000    0.000    0.000    0.000    0.000 
#
# Total GULP energy -289963.761041 kJ/mol
# GULP energy per Si atom -5576.226174 kJ/mol
# Density = 1.836337 g / cm^3
# Si number density = 18.405264 Si / 1000 Ang^3
#
#
#
# Elastic Constant Matrix: (Units=GPa)
#
#
# Indices 1 2 3 4 5 6 
#
# 1 62.8380 3.1846 17.1672 0.0000 0.0000 0.0000
# 2 3.1846 51.5149 19.8705 0.0000 0.0000 0.0000
# 3 17.1672 19.8705 113.0349 0.0000 0.0000 0.0000
# 4 0.0000 0.0000 0.0000 23.6012 0.0000 0.0000
# 5 0.0000 0.0000 0.0000 0.0000 29.3703 0.0000
# 6 0.0000 0.0000 0.0000 0.0000 0.0000 23.6577
#
#
#
# Elastic Compliance Matrix: (Units=1/GPa)
#
#
# Indices 1 2 3 4 5 6 
#
# 1 0.016603 -0.000058 -0.002511 0.000000 0.000000 0.000000
# 2 -0.000058 0.020824 -0.003652 0.000000 0.000000 0.000000
# 3 -0.002511 -0.003652 0.009870 0.000000 0.000000 0.000000
# 4 0.000000 0.000000 0.000000 0.042371 0.000000 0.000000
# 5 0.000000 0.000000 0.000000 0.000000 0.034048 0.000000
# 6 0.000000 0.000000 0.000000 0.000000 0.000000 0.042269
#
#
# Mechanical properties :
#
#
# Convention : Reuss Voigt Hill
#
# Bulk Modulus (GPa) = 28.69010 34.20359 31.44684
# Shear Modulus (GPa) = 26.30945 27.80356 27.05650
#
# Velocity S-wave (km/s) = 3.78491 3.89090 3.83827
# Velocity P-wave (km/s) = 5.89259 6.22972 6.06350
#
# Compressibility (1/GPa) = 0.03485523
#
# Stress axis : x y z
#
# Youngs Moduli (GPa) = 60.23010 48.02143 101.31481
#
# Poissons Ratio (x) = 0.00277 0.25445
# Poissons Ratio (y) = 0.00347 0.36999
# Poissons Ratio (z) = 0.15126 0.17537
#
# Static dielectric constant tensor:
#      x y z
#    x 1.628120 0.000000 0.000000 
#    y 0.000000 1.654920 0.000000 
#    z 0.000000 0.000000 1.681870 
# 
# From -- ./inp_files/44384.got.cif
#   From: 2010.05.17/outbox.cif.g08.bks.cpg/sg65_23_cif.got.tgz:44384.got - 2010.06.03 17:01:31.
