data_PCOD9490584
_publ_section_title
;
Structure prediction by ZEFSAII (Michael W. Deem and Ramdas Pophale) SiO2 
 PCOD9490584
Probable space group: C M M M
;
_chemical_formula_sum "Si O2"
_cell_formula_units_Z 104
_cell_length_a 8.580198
_cell_length_b 18.810373
_cell_length_c 34.405529
_cell_angle_alpha 90.000000
_cell_angle_beta 90.000000
_cell_angle_gamma 90.000000
_cell_volume 5552.939695
_symmetry_space_group_name_H-M "C M M M"
_symmetry_group_IT_number 65
_symmetry_cell_setting 'orthorhombic'
loop_
_space_group_symop_operation_xyz
x,y,z
-x,-y,z
x,-y,-z
-x,y,-z
-x,-y,-z
x,y,-z
-x,y,z
x,-y,z
1/2+x,1/2+y,z
1/2-x,1/2-y,z
1/2+x,1/2-y,-z
1/2-x,1/2+y,-z
1/2-x,1/2-y,-z
1/2+x,1/2+y,-z
1/2-x,1/2+y,z
1/2+x,1/2-y,z
loop_
_atom_site_type_symbol
_atom_site_label
_atom_site_fract_x
_atom_site_fract_y
_atom_site_fract_z
Si Si1 0.189918 0.582127 0.000000
Si Si2 0.811424 0.082296 0.618494
Si Si3 0.811534 0.082276 0.149493
Si Si4 0.814449 0.329565 0.690736
Si Si5 0.188223 0.170374 0.543493
Si Si6 0.312890 0.169775 0.076254
Si Si7 0.812897 0.829697 0.774628
O O1 0.238932 0.625002 0.038385
O O2 0.242680 0.500000 0.000000
O O3 0.000000 0.580749 0.000000
O O4 0.743024 0.121463 0.655848
O O5 0.760041 0.120717 0.578753
O O6 0.000000 0.086732 0.620344
O O7 0.767061 0.000000 0.618072
O O8 0.744430 0.128576 0.114392
O O9 0.766688 0.118446 0.190356
O O10 0.000000 0.083985 0.147253
O O11 0.761636 0.000000 0.147110
O O12 0.750000 0.250000 0.684382
O O13 0.751042 0.353391 0.732784
O O14 0.000000 0.326951 0.691938
O O15 0.236608 0.146992 0.500000
O O16 0.250000 0.250000 0.549450
O O17 0.000000 0.172143 0.543993
O O18 0.500000 0.172338 0.076311
O O19 0.250000 0.250000 0.075156
O O20 0.750000 0.750000 0.781944
O O21 0.000000 0.826617 0.772710
#
# Coordination Sequence:
#
# PCOD9490584 Si02
#       7
#     8  16  16  16  16  16  16
#     4   9  19  36  57  83 114 147 186 231 278 328
#     4  10  21  36  54  78 110 146 181 221 272 325
#     4  10  22  39  58  83 115 148 183 226 276 329
#     4  11  22  37  58  82 109 142 183 228 271 321
#     4   9  18  33  54  79 105 137 179 223 266 316
#     4  11  22  37  59  84 113 150 190 232 276 325
#     4  10  20  36  58  82 109 143 182 225 274 325
#
# _framework density 18.728818
#
# number of rings (size 3 to 8) (size 9 to 14) (size 15 to 20)
#    0.000    1.923    0.000    4.846    0.000    6.462 
#    0.000    4.231    0.000    2.769    0.000    3.231 
#    0.000    0.000    0.000    0.000    0.000    0.000 
#
# Total GULP energy -290500.927616 kJ/mol
# GULP energy per Si atom -5586.556300 kJ/mol
# Density = 1.868619 g / cm^3
# Si number density = 18.728818 Si / 1000 Ang^3
#
#
#
# Elastic Constant Matrix: (Units=GPa)
#
#
# Indices 1 2 3 4 5 6 
#
# 1 37.1563 40.8096 49.8107 0.0000 0.0000 0.0000
# 2 40.8096 160.3360 140.8536 0.0000 0.0000 0.0000
# 3 49.8107 140.8536 214.1637 0.0000 0.0000 0.0000
# 4 0.0000 0.0000 0.0000 32.3704 0.0000 0.0000
# 5 0.0000 0.0000 0.0000 0.0000 37.3512 0.0000
# 6 0.0000 0.0000 0.0000 0.0000 0.0000 20.7543
#
#
#
# Elastic Compliance Matrix: (Units=1/GPa)
#
#
# Indices 1 2 3 4 5 6 
#
# 1 0.040627 -0.004831 -0.006272 0.000000 0.000000 0.000000
# 2 -0.004831 0.015346 -0.008969 0.000000 0.000000 0.000000
# 3 -0.006272 -0.008969 0.012027 0.000000 0.000000 0.000000
# 4 0.000000 0.000000 0.000000 0.030892 0.000000 0.000000
# 5 0.000000 0.000000 0.000000 0.000000 0.026773 0.000000
# 6 0.000000 0.000000 0.000000 0.000000 0.000000 0.048183
#
#
# Mechanical properties :
#
#
# Convention : Reuss Voigt Hill
#
# Bulk Modulus (GPa) = 35.89893 97.17821 66.53857
# Shear Modulus (GPa) = 22.39365 30.10734 26.25049
#
# Velocity S-wave (km/s) = 3.46161 4.01376 3.74787
# Velocity P-wave (km/s) = 5.93181 8.57205 7.37111
#
# Compressibility (1/GPa) = 0.02785598
#
# Stress axis : x y z
#
# Youngs Moduli (GPa) = 24.61412 65.16402 83.14541
#
# Poissons Ratio (x) = 0.31479 0.52149
# Poissons Ratio (y) = 0.11890 0.74576
# Poissons Ratio (z) = 0.15438 0.58448
#
# Static dielectric constant tensor:
#      x y z
#    x 1.636520 0.000000 0.000000 
#    y 0.000000 1.612170 0.000000 
#    z 0.000000 0.000000 1.637270 
# 
# From -- ./inp_files/76853.got.cif
#   From: 2010.05.17/outbox.cif.g08.bks.cpg/sg65_39_cif.got.tgz:76853.got - 2010.06.03 17:01:31.
