data_PCOD9490256
_publ_section_title
;
Structure prediction by ZEFSAII (Michael W. Deem and Ramdas Pophale) SiO2 
 PCOD9490256
Probable space group: C M M M
;
_chemical_formula_sum "Si O2"
_cell_formula_units_Z 104
_cell_length_a 8.072337
_cell_length_b 22.174508
_cell_length_c 28.942003
_cell_angle_alpha 90.000000
_cell_angle_beta 90.000000
_cell_angle_gamma 90.000000
_cell_volume 5180.621471
_symmetry_space_group_name_H-M "C M M M"
_symmetry_group_IT_number 65
_symmetry_cell_setting 'orthorhombic'
loop_
_space_group_symop_operation_xyz
x,y,z
-x,-y,z
x,-y,-z
-x,y,-z
-x,-y,-z
x,y,-z
-x,y,z
x,-y,z
1/2+x,1/2+y,z
1/2-x,1/2-y,z
1/2+x,1/2-y,-z
1/2-x,1/2+y,-z
1/2-x,1/2-y,-z
1/2+x,1/2+y,-z
1/2-x,1/2+y,z
1/2+x,1/2-y,z
loop_
_atom_site_type_symbol
_atom_site_label
_atom_site_fract_x
_atom_site_fract_y
_atom_site_fract_z
Si Si1 0.197087 0.815763 0.610965
Si Si2 0.202584 0.500000 0.051663
Si Si3 0.194211 0.401648 0.124022
Si Si4 0.300368 0.932844 0.553410
Si Si5 0.801902 0.818774 0.949968
Si Si6 0.299545 0.316382 0.282942
Si Si7 0.804014 0.068047 0.225724
O O1 0.250000 0.750000 0.591950
O O2 0.248356 0.874824 0.582626
O O3 0.260567 0.819849 0.663874
O O4 0.000000 0.815317 0.612915
O O5 0.256043 0.444328 0.082736
O O6 0.000000 0.500000 0.049719
O O7 0.266372 0.500000 0.000000
O O8 0.222593 0.339248 0.098359
O O9 0.281196 0.415363 0.171976
O O10 0.000000 0.412904 0.131837
O O11 0.245713 0.926302 0.500000
O O12 0.500000 0.933929 0.553438
O O13 0.244443 0.000000 0.569741
O O14 0.750000 0.750000 0.953920
O O15 0.000000 0.825480 0.947336
O O16 0.746285 0.847385 0.000000
O O17 0.500000 0.318101 0.282682
O O18 0.250000 0.250000 0.264605
O O19 0.237529 0.375127 0.255127
O O20 0.000000 0.064870 0.235565
O O21 0.735814 0.000000 0.234042
#
# Coordination Sequence:
#
# PCOD9490256 Si02
#       7
#    16   8  16  16  16  16  16
#     4  10  20  35  57  84 114 148 192 242 291 345
#     4   9  18  32  51  75 103 135 169 207 254 305
#     4  11  21  35  55  79 108 139 174 215 262 316
#     4   9  19  36  56  80 115 157 197 239 290 345
#     4  10  21  37  56  79 106 137 174 214 258 312
#     4   9  20  38  59  83 110 145 186 233 289 343
#     4  10  21  38  58  79 110 147 184 229 280 333
#
# _framework density 20.074809999999999
#
# number of rings (size 3 to 8) (size 9 to 14) (size 15 to 20)
#    0.000    2.231    0.769    2.308    0.000    4.923 
#    0.000    3.846    0.000    1.846    0.000    0.000 
#    0.000    0.000    0.000    0.000    0.000    0.000 
#
# Total GULP energy -289763.321106 kJ/mol
# GULP energy per Si atom -5572.371560 kJ/mol
# Density = 2.002912 g / cm^3
# Si number density = 20.074810 Si / 1000 Ang^3
#
#
#
# Elastic Constant Matrix: (Units=GPa)
#
#
# Indices 1 2 3 4 5 6 
#
# 1 20.8586 8.3884 5.3177 0.0000 0.0000 0.0000
# 2 8.3884 184.3626 85.8975 0.0000 0.0000 0.0000
# 3 5.3177 85.8975 83.9646 0.0000 0.0000 0.0000
# 4 0.0000 0.0000 0.0000 55.9913 0.0000 0.0000
# 5 0.0000 0.0000 0.0000 0.0000 19.1713 0.0000
# 6 0.0000 0.0000 0.0000 0.0000 0.0000 24.6811
#
#
#
# Elastic Compliance Matrix: (Units=1/GPa)
#
#
# Indices 1 2 3 4 5 6 
#
# 1 0.048943 -0.001496 -0.001570 0.000000 0.000000 0.000000
# 2 -0.001496 0.010410 -0.010555 0.000000 0.000000 0.000000
# 3 -0.001570 -0.010555 0.022807 0.000000 0.000000 0.000000
# 4 0.000000 0.000000 0.000000 0.017860 0.000000 0.000000
# 5 0.000000 0.000000 0.000000 0.000000 0.052161 0.000000
# 6 0.000000 0.000000 0.000000 0.000000 0.000000 0.040517
#
#
# Mechanical properties :
#
#
# Convention : Reuss Voigt Hill
#
# Bulk Modulus (GPa) = 18.20826 54.26589 36.23707
# Shear Modulus (GPa) = 20.98686 32.60757 26.79722
#
# Velocity S-wave (km/s) = 3.23682 4.03464 3.65755
# Velocity P-wave (km/s) = 4.80201 6.98533 5.99392
#
# Compressibility (1/GPa) = 0.05492013
#
# Stress axis : x y z
#
# Youngs Moduli (GPa) = 20.43175 96.06421 43.84662
#
# Poissons Ratio (x) = 0.14367 0.06883
# Poissons Ratio (y) = 0.03056 0.46278
# Poissons Ratio (z) = 0.03207 1.01392
#
# Static dielectric constant tensor:
#      x y z
#    x 1.730050 0.000000 0.000000 
#    y 0.000000 2.050450 0.000000 
#    z 0.000000 0.000000 1.696560 
# 
# From -- ./inp_files/73328.got.cif
#   From: 2010.05.17/outbox.cif.g08.bks.cpg/sg65_37_cif.got.tgz:73328.got - 2010.06.03 17:01:31.
