data_PCOD9490875
_publ_section_title
;
Structure prediction by ZEFSAII (Michael W. Deem and Ramdas Pophale) SiO2 
 PCOD9490875
Probable space group: C M M M
;
_chemical_formula_sum "Si O2"
_cell_formula_units_Z 104
_cell_length_a 28.066670
_cell_length_b 22.305739
_cell_length_c 8.575129
_cell_angle_alpha 90.000000
_cell_angle_beta 90.000000
_cell_angle_gamma 90.000000
_cell_volume 5368.440779
_symmetry_space_group_name_H-M "C M M M"
_symmetry_group_IT_number 65
_symmetry_cell_setting 'orthorhombic'
loop_
_space_group_symop_operation_xyz
x,y,z
-x,-y,z
x,-y,-z
-x,y,-z
-x,-y,-z
x,y,-z
-x,y,z
x,-y,z
1/2+x,1/2+y,z
1/2-x,1/2-y,z
1/2+x,1/2-y,-z
1/2-x,1/2+y,-z
1/2-x,1/2-y,-z
1/2+x,1/2+y,-z
1/2-x,1/2+y,z
1/2+x,1/2-y,z
loop_
_atom_site_type_symbol
_atom_site_label
_atom_site_fract_x
_atom_site_fract_y
_atom_site_fract_z
Si Si1 0.789644 0.000000 0.811319
Si Si2 0.681220 0.000000 0.686405
Si Si3 0.327372 0.625708 0.818121
Si Si4 0.945759 0.696391 0.688320
Si Si5 0.263610 0.180871 0.675696
Si Si6 0.000000 0.930003 0.309309
Si Si7 0.856320 0.373827 0.185854
Si Si8 0.923616 0.831656 0.685498
O O1 0.736803 0.000000 0.739060
O O2 0.820433 0.942544 0.767413
O O3 0.783262 0.000000 0.000000
O O4 0.655967 0.940232 0.751703
O O5 0.679093 0.000000 0.500000
O O6 0.275326 0.652246 0.787941
O O7 0.368548 0.658252 0.723948
O O8 0.339489 0.628863 0.000000
O O9 0.939415 0.695576 0.500000
O O10 0.906996 0.652577 0.762523
O O11 0.938808 0.765620 0.742576
O O12 0.000000 0.678506 0.722742
O O13 0.259899 0.155125 0.500000
O O14 0.250000 0.250000 0.667563
O O15 0.315935 0.168955 0.739923
O O16 0.954885 0.888698 0.258671
O O17 0.000000 0.932322 0.500000
O O18 0.000000 0.000000 0.257112
O O19 0.852185 0.373600 0.000000
O O20 0.930823 0.830124 0.500000
#
# Coordination Sequence:
#
# PCOD9490875 Si02
#       8
#     8   8  16  16  16   8  16  16
#     4  10  22  40  58  82 122 166 203 248 307 366
#     4  12  24  42  69  95 123 165 214 253 310 383
#     4  11  23  37  56  84 121 159 197 245 303 364
#     4  10  21  41  66  91 122 162 212 266 320 376
#     4  11  23  39  59  87 121 158 204 253 300 361
#     4   9  18  34  57  87 119 158 209 264 315 365
#     4  12  25  41  64  94 129 164 204 258 323 386
#     4  10  20  37  61  89 121 161 211 265 316 368
#
# _framework density 19.372478999999998
#
# number of rings (size 3 to 8) (size 9 to 14) (size 15 to 20)
#    0.000    1.308    2.308    3.923    1.077    6.462 
#    0.000    0.769    0.000    2.769    0.000    0.000 
#    0.000    0.000    0.000    0.000    0.000    0.000 
#
# Total GULP energy -290457.253442 kJ/mol
# GULP energy per Si atom -5585.716412 kJ/mol
# Density = 1.932839 g / cm^3
# Si number density = 19.372479 Si / 1000 Ang^3
#
#
#
# Elastic Constant Matrix: (Units=GPa)
#
#
# Indices 1 2 3 4 5 6 
#
# 1 106.7348 33.9072 19.5947 0.0000 0.0000 0.0000
# 2 33.9072 73.9784 36.9066 0.0000 0.0000 0.0000
# 3 19.5947 36.9066 36.8323 0.0000 0.0000 0.0000
# 4 0.0000 0.0000 0.0000 28.5119 0.0000 0.0000
# 5 0.0000 0.0000 0.0000 0.0000 -37.5892 0.0000
# 6 0.0000 0.0000 0.0000 0.0000 0.0000 28.6718
#
#
#
# Elastic Compliance Matrix: (Units=1/GPa)
#
#
# Indices 1 2 3 4 5 6 
#
# 1 0.011013 -0.004249 -0.001602 0.000000 0.000000 0.000000
# 2 -0.004249 0.028668 -0.026465 0.000000 0.000000 0.000000
# 3 -0.001602 -0.026465 0.054521 0.000000 0.000000 0.000000
# 4 0.000000 0.000000 0.000000 0.035073 0.000000 0.000000
# 5 0.000000 0.000000 0.000000 0.000000 -0.026603 0.000000
# 6 0.000000 0.000000 0.000000 0.000000 0.000000 0.034878
#
#
# Mechanical properties :
#
#
# Convention : Reuss Voigt Hill
#
# Bulk Modulus (GPa) = 33.81777 44.26249 39.04013
# Shear Modulus (GPa) = 23.58083 12.39471 17.98777
#
# Velocity S-wave (km/s) = 3.49267 2.53219 3.05047
# Velocity P-wave (km/s) = 5.81029 5.60777 5.70993
#
# Compressibility (1/GPa) = 0.02957025
#
# Stress axis : x y z
#
# Youngs Moduli (GPa) = 90.80418 34.88227 18.34159
#
# Poissons Ratio (x) = 0.14820 0.02938
# Poissons Ratio (y) = 0.38578 0.48542
# Poissons Ratio (z) = 0.14544 0.92317
#
# Static dielectric constant tensor:
#      x y z
#    x 1.643480 0.000000 0.000000 
#    y 0.000000 1.672130 0.000000 
#    z 0.000000 0.000000 1.667740 
# 
# From -- ./inp_files/16571.got.cif
#   From: 2010.05.17/outbox.cif.g08.bks.cpg/sg65_9_cif.got.tgz:16571.got - 2010.06.03 17:01:31.
