data_PCOD9490688
_publ_section_title
;
Structure prediction by ZEFSAII (Michael W. Deem and Ramdas Pophale) SiO2 
 PCOD9490688
Probable space group: C M M M
;
_chemical_formula_sum "Si O2"
_cell_formula_units_Z 104
_cell_length_a 22.632610
_cell_length_b 28.737415
_cell_length_c 7.630419
_cell_angle_alpha 90.000000
_cell_angle_beta 90.000000
_cell_angle_gamma 90.000000
_cell_volume 4962.845166
_symmetry_space_group_name_H-M "C M M M"
_symmetry_group_IT_number 65
_symmetry_cell_setting 'orthorhombic'
loop_
_space_group_symop_operation_xyz
x,y,z
-x,-y,z
x,-y,-z
-x,y,-z
-x,-y,-z
x,y,-z
-x,y,z
x,-y,z
1/2+x,1/2+y,z
1/2-x,1/2-y,z
1/2+x,1/2-y,-z
1/2-x,1/2+y,-z
1/2-x,1/2-y,-z
1/2+x,1/2+y,-z
1/2-x,1/2+y,z
1/2+x,1/2-y,z
loop_
_atom_site_type_symbol
_atom_site_label
_atom_site_fract_x
_atom_site_fract_y
_atom_site_fract_z
Si Si1 0.140441 0.698687 0.708627
Si Si2 0.619214 0.379534 0.798171
Si Si3 0.751313 0.359116 0.789458
Si Si4 0.323123 0.051361 0.208645
Si Si5 0.933820 0.784137 0.288298
Si Si6 0.432803 0.891025 0.711839
Si Si7 0.570921 0.554600 0.500000
O O1 0.131683 0.700018 0.500000
O O2 0.208191 0.684641 0.739113
O O3 0.114997 0.747318 0.775792
O O4 0.100533 0.655651 0.776200
O O5 0.683373 0.360829 0.736052
O O6 0.576702 0.335065 0.787164
O O7 0.596860 0.419490 0.669862
O O8 0.623985 0.395344 0.000000
O O9 0.783767 0.405953 0.721188
O O10 0.752303 0.360297 0.000000
O O11 0.390842 0.066257 0.237776
O O12 0.310561 0.000000 0.280055
O O13 0.312807 0.049892 0.000000
O O14 0.929717 0.788540 0.500000
O O15 0.000000 0.766899 0.248207
O O16 0.434020 0.888976 0.500000
O O17 0.500000 0.893980 0.774063
O O18 0.585220 0.500000 0.500000
O O19 0.500000 0.559846 0.500000
#
# Coordination Sequence:
#
# PCOD9490688 Si02
#       7
#    16  16  16  16  16  16   8
#     4   9  18  32  55  83 114 158 205 246 295 355
#     4  11  24  42  67  97 129 164 203 251 308 369
#     4   9  20  37  56  81 117 156 197 250 304 359
#     4   9  18  33  51  70  97 138 187 239 297 355
#     4  10  20  36  59  88 124 164 207 255 307 364
#     4   9  17  30  47  70 104 143 187 239 291 346
#     4  11  26  48  72  99 130 162 201 252 308 372
#
# _framework density 20.955722000000002
#
# number of rings (size 3 to 8) (size 9 to 14) (size 15 to 20)
#    0.000    2.385    0.769    0.923    1.077    6.154 
#    0.000    6.923    0.000    2.769    0.000    0.000 
#    0.000    0.000    0.000    0.000    0.000    0.000 
#
# Total GULP energy -290328.291014 kJ/mol
# GULP energy per Si atom -5583.236366 kJ/mol
# Density = 2.090803 g / cm^3
# Si number density = 20.955722 Si / 1000 Ang^3
#
#
#
# Elastic Constant Matrix: (Units=GPa)
#
#
# Indices 1 2 3 4 5 6 
#
# 1 90.7223 31.6969 18.6256 0.0000 0.0000 0.0000
# 2 31.6969 105.4912 28.9878 0.0000 0.0000 0.0000
# 3 18.6256 28.9878 66.6132 0.0000 0.0000 0.0000
# 4 0.0000 0.0000 0.0000 6.3171 0.0000 0.0000
# 5 0.0000 0.0000 0.0000 0.0000 23.9752 0.0000
# 6 0.0000 0.0000 0.0000 0.0000 0.0000 23.4052
#
#
#
# Elastic Compliance Matrix: (Units=1/GPa)
#
#
# Indices 1 2 3 4 5 6 
#
# 1 0.012575 -0.003194 -0.002126 0.000000 0.000000 0.000000
# 2 -0.003194 0.011578 -0.004145 0.000000 0.000000 0.000000
# 3 -0.002126 -0.004145 0.017410 0.000000 0.000000 0.000000
# 4 0.000000 0.000000 0.000000 0.158299 0.000000 0.000000
# 5 0.000000 0.000000 0.000000 0.000000 0.041710 0.000000
# 6 0.000000 0.000000 0.000000 0.000000 0.000000 0.042725
#
#
# Mechanical properties :
#
#
# Convention : Reuss Voigt Hill
#
# Bulk Modulus (GPa) = 44.18417 46.82748 45.50582
# Shear Modulus (GPa) = 16.08885 22.97393 19.53139
#
# Velocity S-wave (km/s) = 2.77384 3.31465 3.05623
# Velocity P-wave (km/s) = 5.60261 6.08635 5.84948
#
# Compressibility (1/GPa) = 0.02263254
#
# Stress axis : x y z
#
# Youngs Moduli (GPa) = 79.52194 86.36818 57.43677
#
# Poissons Ratio (x) = 0.27588 0.12212
# Poissons Ratio (y) = 0.25401 0.23810
# Poissons Ratio (z) = 0.16907 0.35803
#
# Static dielectric constant tensor:
#      x y z
#    x 1.753090 0.000000 0.000000 
#    y 0.000000 1.737680 0.000000 
#    z 0.000000 0.000000 1.768940 
# 
# From -- ./inp_files/12446.got.cif
#   From: 2010.05.17/outbox.cif.g08.bks.cpg/sg65_7_cif.got.tgz:12446.got - 2010.06.03 17:01:31.
