data_PCOD9490234
_publ_section_title
;
Structure prediction by ZEFSAII (Michael W. Deem and Ramdas Pophale) SiO2 
 PCOD9490234
Probable space group: C M M M
;
_chemical_formula_sum "Si O2"
_cell_formula_units_Z 88
_cell_length_a 28.295108
_cell_length_b 19.232977
_cell_length_c 8.966547
_cell_angle_alpha 90.000000
_cell_angle_beta 90.000000
_cell_angle_gamma 90.000000
_cell_volume 4879.587358
_symmetry_space_group_name_H-M "C M M M"
_symmetry_group_IT_number 65
_symmetry_cell_setting 'orthorhombic'
loop_
_space_group_symop_operation_xyz
x,y,z
-x,-y,z
x,-y,-z
-x,y,-z
-x,-y,-z
x,y,-z
-x,y,z
x,-y,z
1/2+x,1/2+y,z
1/2-x,1/2-y,z
1/2+x,1/2-y,-z
1/2-x,1/2+y,-z
1/2-x,1/2-y,-z
1/2+x,1/2+y,-z
1/2-x,1/2+y,z
1/2+x,1/2-y,z
loop_
_atom_site_type_symbol
_atom_site_label
_atom_site_fract_x
_atom_site_fract_y
_atom_site_fract_z
Si Si1 0.410408 0.156421 0.821923
Si Si2 0.179168 0.583127 0.677173
Si Si3 0.222863 0.084480 0.828744
Si Si4 0.944517 0.203005 0.679077
Si Si5 0.625029 0.419591 0.678790
Si Si6 0.000000 0.583164 0.326567
O O1 0.362010 0.124272 0.760104
O O2 0.418940 0.234215 0.762880
O O3 0.453745 0.112281 0.754011
O O4 0.411377 0.154000 0.000000
O O5 0.175912 0.593876 0.500000
O O6 0.173711 0.500000 0.705103
O O7 0.230670 0.604952 0.737110
O O8 0.173379 0.105686 0.755348
O O9 0.222366 0.000000 0.827112
O O10 0.226222 0.107354 0.000000
O O11 0.941001 0.213945 0.500000
O O12 0.918231 0.130991 0.714714
O O13 0.000000 0.201967 0.717599
O O14 0.631947 0.418402 0.500000
O O15 0.616283 0.500000 0.722043
O O16 0.000000 0.500000 0.323119
O O17 0.000000 0.606052 0.500000
#
# Coordination Sequence:
#
# PCOD9490234 Si02
#       6
#    16  16  16  16  16   8
#     4  12  24  37  55  81 113 149 188 232 279 330
#     4  10  20  35  57  83 112 148 188 231 278 330
#     4   9  17  31  53  82 115 148 181 224 280 335
#     4  10  21  38  59  80 110 152 190 230 282 337
#     4   9  18  34  58  87 114 143 185 232 278 334
#     4  11  23  39  59  81 108 145 190 235 277 326
#
# _framework density 18.034310000000001
#
# number of rings (size 3 to 8) (size 9 to 14) (size 15 to 20)
#    0.000    1.909    0.909    3.545    0.000    7.273 
#    0.000    2.727    0.000    5.455    0.000    3.818 
#    0.000    0.000    0.000    0.000    0.000    0.000 
#
# Total GULP energy -245702.228204 kJ/mol
# GULP energy per Si atom -5584.141550 kJ/mol
# Density = 1.799326 g / cm^3
# Si number density = 18.034310 Si / 1000 Ang^3
#
#
#
# Elastic Constant Matrix: (Units=GPa)
#
#
# Indices 1 2 3 4 5 6 
#
# 1 106.7212 55.0406 61.8993 0.0000 0.0000 0.0000
# 2 55.0406 78.1508 54.4387 0.0000 0.0000 0.0000
# 3 61.8993 54.4387 93.1138 0.0000 0.0000 0.0000
# 4 0.0000 0.0000 0.0000 12.5233 0.0000 0.0000
# 5 0.0000 0.0000 0.0000 0.0000 -7.4333 0.0000
# 6 0.0000 0.0000 0.0000 0.0000 0.0000 155.9928
#
#
#
# Elastic Compliance Matrix: (Units=1/GPa)
#
#
# Indices 1 2 3 4 5 6 
#
# 1 0.017271 -0.007028 -0.007372 0.000000 0.000000 0.000000
# 2 -0.007028 0.024448 -0.009621 0.000000 0.000000 0.000000
# 3 -0.007372 -0.009621 0.021265 0.000000 0.000000 0.000000
# 4 0.000000 0.000000 0.000000 0.079851 0.000000 0.000000
# 5 0.000000 0.000000 0.000000 0.000000 -0.134530 0.000000
# 6 0.000000 0.000000 0.000000 0.000000 0.000000 0.006411
#
#
# Mechanical properties :
#
#
# Convention : Reuss Voigt Hill
#
# Bulk Modulus (GPa) = 66.93069 68.97146 67.95108
# Shear Modulus (GPa) = 73.81337 39.32371 56.56854
#
# Velocity S-wave (km/s) = 6.40455 4.67464 5.60672
# Velocity P-wave (km/s) = 9.58564 8.21365 8.92604
#
# Compressibility (1/GPa) = 0.01494083
#
# Stress axis : x y z
#
# Youngs Moduli (GPa) = 57.90085 40.90383 47.02536
#
# Poissons Ratio (x) = 0.28749 0.34667
# Poissons Ratio (y) = 0.40695 0.45243
# Poissons Ratio (z) = 0.42685 0.39353
#
# Static dielectric constant tensor:
#      x y z
#    x 1.590250 0.000000 0.000000 
#    y 0.000000 1.613700 0.000000 
#    z 0.000000 0.000000 1.601800 
# 
# From -- ./inp_files/11762.got.cif
#   From: 2010.05.17/outbox.cif.g08.bks.cpg/sg65_6_cif.got.tgz:11762.got - 2010.06.03 17:01:31.
