data_PCOD9490346
_publ_section_title
;
Structure prediction by ZEFSAII (Michael W. Deem and Ramdas Pophale) SiO2 
 PCOD9490346
Probable space group: C M M M
;
_chemical_formula_sum "Si O2"
_cell_formula_units_Z 64
_cell_length_a 11.160735
_cell_length_b 17.538437
_cell_length_c 16.941009
_cell_angle_alpha 90.000000
_cell_angle_beta 90.000000
_cell_angle_gamma 90.000000
_cell_volume 3316.064403
_symmetry_space_group_name_H-M "C M M M"
_symmetry_group_IT_number 65
_symmetry_cell_setting 'orthorhombic'
loop_
_space_group_symop_operation_xyz
x,y,z
-x,-y,z
x,-y,-z
-x,y,-z
-x,-y,-z
x,y,-z
-x,y,z
x,-y,z
1/2+x,1/2+y,z
1/2-x,1/2-y,z
1/2+x,1/2-y,-z
1/2-x,1/2+y,-z
1/2-x,1/2-y,-z
1/2+x,1/2+y,-z
1/2-x,1/2+y,z
1/2+x,1/2-y,z
loop_
_atom_site_type_symbol
_atom_site_label
_atom_site_fract_x
_atom_site_fract_y
_atom_site_fract_z
Si Si1 0.859038 0.085333 0.500000
Si Si2 0.500000 0.092853 0.907222
Si Si3 0.747033 0.407687 0.824772
Si Si4 0.000000 0.411910 0.594708
Si Si5 0.755991 0.659504 0.651688
Si Si6 0.500000 0.592808 0.909735
O O1 0.823787 0.128900 0.420486
O O2 0.000000 0.077441 0.500000
O O3 0.802127 0.000000 0.500000
O O4 0.624845 0.116595 0.863842
O O5 0.500000 0.000000 0.906013
O O6 0.500000 0.115570 0.000000
O O7 0.749488 0.500000 0.823691
O O8 0.731009 0.377202 0.736369
O O9 0.626166 0.383401 0.870811
O O10 0.886338 0.368851 0.627348
O O11 0.000000 0.500000 0.620626
O O12 0.000000 0.410165 0.500000
O O13 0.750000 0.750000 0.656594
O O14 0.500000 0.500000 0.907392
O O15 0.500000 0.617495 0.000000
#
# Coordination Sequence:
#
# PCOD9490346 Si02
#       6
#     8   8  16   8  16   8
#     4  11  25  43  65  89 121 161 207 259 315 375
#     4   9  17  33  60  91 119 152 205 268 315 358
#     4  10  20  35  58  87 121 160 205 257 312 373
#     4  11  23  42  67  89 117 162 215 263 310 371
#     4  12  26  40  63  91 129 165 209 259 311 373
#     4   9  18  33  57  88 117 151 199 255 311 367
#
# _framework density 19.299986000000001
#
# number of rings (size 3 to 8) (size 9 to 14) (size 15 to 20)
#    0.000    1.500    1.250    4.125    3.500    4.000 
#    0.000    0.000    0.000    4.500    0.000    0.000 
#    0.000    0.000    0.000    0.000    0.000    0.000 
#
# Total GULP energy -178663.653019 kJ/mol
# GULP energy per Si atom -5583.239157 kJ/mol
# Density = 1.925606 g / cm^3
# Si number density = 19.299986 Si / 1000 Ang^3
#
#
#
# Elastic Constant Matrix: (Units=GPa)
#
#
# Indices 1 2 3 4 5 6 
#
# 1 176.5494 43.0557 98.0823 0.0000 0.0000 0.0000
# 2 43.0557 54.1898 32.0409 0.0000 0.0000 0.0000
# 3 98.0823 32.0409 185.5347 0.0000 0.0000 0.0000
# 4 0.0000 0.0000 0.0000 -6.0956 0.0000 0.0000
# 5 0.0000 0.0000 0.0000 0.0000 25.3411 0.0000
# 6 0.0000 0.0000 0.0000 0.0000 0.0000 26.9865
#
#
#
# Elastic Compliance Matrix: (Units=1/GPa)
#
#
# Indices 1 2 3 4 5 6 
#
# 1 0.009035 -0.004850 -0.003939 0.000000 0.000000 0.000000
# 2 -0.004850 0.023155 -0.001435 0.000000 0.000000 0.000000
# 3 -0.003939 -0.001435 0.007720 0.000000 0.000000 0.000000
# 4 0.000000 0.000000 0.000000 -0.164053 0.000000 0.000000
# 5 0.000000 0.000000 0.000000 0.000000 0.039462 0.000000
# 6 0.000000 0.000000 0.000000 0.000000 0.000000 0.037056
#
#
# Mechanical properties :
#
#
# Convention : Reuss Voigt Hill
#
# Bulk Modulus (GPa) = 51.37900 84.73686 68.05793
# Shear Modulus (GPa) = -241.66033 25.45273 -108.10380
#
# Velocity S-wave (km/s) = -11.20199 3.63546 -7.49226
# Velocity P-wave (km/s) = 11.85891 7.85000 6.28534
#
# Compressibility (1/GPa) = 0.01946320
#
# Stress axis : x y z
#
# Youngs Moduli (GPa) = 110.67942 43.18633 129.53530
#
# Poissons Ratio (x) = 0.20944 0.51022
# Poissons Ratio (y) = 0.53677 0.18588
# Poissons Ratio (z) = 0.43595 0.06197
#
# Static dielectric constant tensor:
#      x y z
#    x 1.667000 0.000000 0.000000 
#    y 0.000000 1.648600 0.000000 
#    z 0.000000 0.000000 1.540720 
# 
# From -- ./inp_files/37845.got.cif
#   From: 2010.05.17/outbox.cif.g08.bks.cpg/sg65_19_cif.got.tgz:37845.got - 2010.06.03 17:01:31.
