data_PCOD9490772
_publ_section_title
;
Structure prediction by ZEFSAII (Michael W. Deem and Ramdas Pophale) SiO2 
 PCOD9490772
Probable space group: C M M M
;
_chemical_formula_sum "Si O2"
_cell_formula_units_Z 92
_cell_length_a 7.453953
_cell_length_b 23.771793
_cell_length_c 25.847464
_cell_angle_alpha 90.000000
_cell_angle_beta 90.000000
_cell_angle_gamma 90.000000
_cell_volume 4580.011084
_symmetry_space_group_name_H-M "C M M M"
_symmetry_group_IT_number 65
_symmetry_cell_setting 'orthorhombic'
loop_
_space_group_symop_operation_xyz
x,y,z
-x,-y,z
x,-y,-z
-x,y,-z
-x,-y,-z
x,y,-z
-x,y,z
x,-y,z
1/2+x,1/2+y,z
1/2-x,1/2-y,z
1/2+x,1/2-y,-z
1/2-x,1/2+y,-z
1/2-x,1/2-y,-z
1/2+x,1/2+y,-z
1/2-x,1/2+y,z
1/2+x,1/2-y,z
loop_
_atom_site_type_symbol
_atom_site_label
_atom_site_fract_x
_atom_site_fract_y
_atom_site_fract_z
Si Si1 0.784298 0.685633 0.905475
Si Si2 0.786508 0.315987 0.701703
Si Si3 0.720717 0.500000 0.644577
Si Si4 0.790012 0.622538 0.196355
Si Si5 0.785823 0.000000 0.235549
Si Si6 0.784207 0.183443 0.500000
Si Si7 0.000000 0.174591 0.000000
Si Si8 0.707026 0.382996 0.599390
O O1 0.750000 0.750000 0.888242
O O2 0.725757 0.644641 0.858844
O O3 0.658669 0.676202 0.954873
O O4 0.000000 0.679417 0.916480
O O5 0.750000 0.250000 0.703041
O O6 0.713512 0.345672 0.753464
O O7 0.711156 0.344450 0.650297
O O8 0.000000 0.325141 0.699388
O O9 0.500000 0.500000 0.645702
O O10 0.778693 0.500000 0.704766
O O11 0.782937 0.443498 0.615906
O O12 0.771214 0.556482 0.206475
O O13 0.000000 0.637063 0.195585
O O14 0.000000 0.000000 0.237483
O O15 0.750000 0.250000 0.500000
O O16 0.715272 0.151530 0.551208
O O17 0.000000 0.179530 0.500000
O O18 0.500000 0.394425 0.585841
#
# Coordination Sequence:
#
# PCOD9490772 Si02
#       8
#    16  16   8  16   8   8   4  16
#     4  11  23  39  63  95 131 168 212 258 313 369
#     4  11  22  36  56  83 117 156 193 242 309 363
#     4   9  18  34  57  88 113 146 198 249 301 363
#     4  10  23  40  58  88 124 159 198 252 308 365
#     4  11  21  35  64  89 118 159 202 247 304 368
#     4  10  22  37  57  79 113 156 201 248 301 362
#     4  12  24  40  66  95 134 171 214 258 308 370
#     4  10  20  37  57  83 114 152 198 247 299 361
#
# _framework density 20.087287
#
# number of rings (size 3 to 8) (size 9 to 14) (size 15 to 20)
#    0.000    1.565    2.609    2.348    1.217    3.130 
#    0.000    2.174    0.000    1.043    0.000    4.261 
#    0.000    0.000    0.000    0.000    0.000    0.000 
#
# Total GULP energy -256370.113121 kJ/mol
# GULP energy per Si atom -5573.263329 kJ/mol
# Density = 2.004157 g / cm^3
# Si number density = 20.087287 Si / 1000 Ang^3
#
#
#
# Elastic Constant Matrix: (Units=GPa)
#
#
# Indices 1 2 3 4 5 6 
#
# 1 90.7321 -2.2937 16.7714 0.0000 0.0000 0.0000
# 2 -2.2937 167.1449 118.0282 0.0000 0.0000 0.0000
# 3 16.7714 118.0282 161.6870 0.0000 0.0000 0.0000
# 4 0.0000 0.0000 0.0000 -4.0350 0.0000 0.0000
# 5 0.0000 0.0000 0.0000 0.0000 16.7061 0.0000
# 6 0.0000 0.0000 0.0000 0.0000 0.0000 1586.7516
#
#
#
# Elastic Compliance Matrix: (Units=1/GPa)
#
#
# Indices 1 2 3 4 5 6 
#
# 1 0.011576 0.002078 -0.002718 0.000000 0.000000 0.000000
# 2 0.002078 0.012721 -0.009501 0.000000 0.000000 0.000000
# 3 -0.002718 -0.009501 0.013402 0.000000 0.000000 0.000000
# 4 0.000000 0.000000 0.000000 -0.247834 0.000000 0.000000
# 5 0.000000 0.000000 0.000000 0.000000 0.059858 0.000000
# 6 0.000000 0.000000 0.000000 0.000000 0.000000 0.000630
#
#
# Mechanical properties :
#
#
# Convention : Reuss Voigt Hill
#
# Bulk Modulus (GPa) = 57.41414 76.06396 66.73905
# Shear Modulus (GPa) = -40.46675 339.02177 149.27751
#
# Velocity S-wave (km/s) = -4.49324 13.00541 8.62993
# Velocity P-wave (km/s) = 1.31357 16.23175 11.51511
#
# Compressibility (1/GPa) = 0.01741731
#
# Stress axis : x y z
#
# Youngs Moduli (GPa) = 86.38320 78.61226 74.61313
#
# Poissons Ratio (x) = -0.16335 0.20277
# Poissons Ratio (y) = -0.17949 0.70893
# Poissons Ratio (z) = 0.23475 0.74692
#
# Static dielectric constant tensor:
#      x y z
#    x 1.648980 0.000000 0.000000 
#    y 0.000000 1.687660 0.000000 
#    z 0.000000 0.000000 1.700690 
# 
# From -- ./inp_files/73281.got.cif
#   From: 2010.05.17/outbox.cif.g08.bks.cpg/sg65_37_cif.got.tgz:73281.got - 2010.06.03 17:01:31.
