data_PCOD9490140
_publ_section_title
;
Structure prediction by ZEFSAII (Michael W. Deem and Ramdas Pophale) SiO2 
 PCOD9490140
Probable space group: C M M M
;
_chemical_formula_sum "Si O2"
_cell_formula_units_Z 88
_cell_length_a 14.791675
_cell_length_b 27.910993
_cell_length_c 10.781666
_cell_angle_alpha 90.000000
_cell_angle_beta 90.000000
_cell_angle_gamma 90.000000
_cell_volume 4451.214446
_symmetry_space_group_name_H-M "C M M M"
_symmetry_group_IT_number 65
_symmetry_cell_setting 'orthorhombic'
loop_
_space_group_symop_operation_xyz
x,y,z
-x,-y,z
x,-y,-z
-x,y,-z
-x,-y,-z
x,y,-z
-x,y,z
x,-y,z
1/2+x,1/2+y,z
1/2-x,1/2-y,z
1/2+x,1/2-y,-z
1/2-x,1/2+y,-z
1/2-x,1/2-y,-z
1/2+x,1/2+y,-z
1/2-x,1/2+y,z
1/2+x,1/2-y,z
loop_
_atom_site_type_symbol
_atom_site_label
_atom_site_fract_x
_atom_site_fract_y
_atom_site_fract_z
Si Si1 0.660888 0.217124 0.366389
Si Si2 0.391385 0.619790 0.235573
Si Si3 0.214908 0.605905 0.363469
Si Si4 0.108839 0.053609 0.000000
Si Si5 0.606232 0.724209 0.137480
Si Si6 0.893298 0.557632 0.859813
O O1 0.612957 0.225826 0.500000
O O2 0.750000 0.250000 0.371058
O O3 0.684438 0.161396 0.360855
O O4 0.617100 0.234631 0.239084
O O5 0.500000 0.618912 0.261490
O O6 0.323223 0.605342 0.343960
O O7 0.370875 0.583986 0.122112
O O8 0.362629 0.673147 0.191840
O O9 0.191554 0.586309 0.500000
O O10 0.165419 0.579948 0.249908
O O11 0.000000 0.049401 0.000000
O O12 0.148189 0.000000 0.000000
O O13 0.500000 0.716962 0.123036
O O14 0.644405 0.733876 0.000000
O O15 0.886388 0.500000 0.855131
O O16 0.000000 0.569798 0.844787
O O17 0.865675 0.572808 0.000000
#
# Coordination Sequence:
#
# PCOD9490140 Si02
#       6
#    16  16  16   8  16  16
#     4  10  21  38  54  76 115 158 200 244 294 353
#     4  10  20  36  57  84 121 160 201 247 297 357
#     4  11  24  39  60  91 124 162 207 251 301 362
#     4   9  18  34  56  81 111 149 193 242 293 346
#     4  10  20  35  56  82 112 149 198 252 302 355
#     4   9  21  44  71  96 122 155 198 250 310 374
#
# _framework density 19.769886
#
# number of rings (size 3 to 8) (size 9 to 14) (size 15 to 20)
#    0.000    2.091    2.727    0.545    1.273    4.000 
#    0.000    6.364    0.000    0.000    0.000    3.818 
#    0.000    0.000    0.000    0.000    0.000    0.000 
#
# Total GULP energy -245258.629776 kJ/mol
# GULP energy per Si atom -5574.059768 kJ/mol
# Density = 1.972489 g / cm^3
# Si number density = 19.769886 Si / 1000 Ang^3
#
#
#
# Elastic Constant Matrix: (Units=GPa)
#
#
# Indices 1 2 3 4 5 6 
#
# 1 59.4764 17.4126 58.2234 0.0000 0.0000 0.0000
# 2 17.4126 55.2471 39.3154 0.0000 0.0000 0.0000
# 3 58.2234 39.3154 166.0627 0.0000 0.0000 0.0000
# 4 0.0000 0.0000 0.0000 65.9134 0.0000 0.0000
# 5 0.0000 0.0000 0.0000 0.0000 14.3440 0.0000
# 6 0.0000 0.0000 0.0000 0.0000 0.0000 25.9110
#
#
#
# Elastic Compliance Matrix: (Units=1/GPa)
#
#
# Indices 1 2 3 4 5 6 
#
# 1 0.025789 -0.002037 -0.008560 0.000000 0.000000 0.000000
# 2 -0.002037 0.021929 -0.004478 0.000000 0.000000 0.000000
# 3 -0.008560 -0.004478 0.010083 0.000000 0.000000 0.000000
# 4 0.000000 0.000000 0.000000 0.015171 0.000000 0.000000
# 5 0.000000 0.000000 0.000000 0.000000 0.069716 0.000000
# 6 0.000000 0.000000 0.000000 0.000000 0.000000 0.038594
#
#
# Mechanical properties :
#
#
# Convention : Reuss Voigt Hill
#
# Bulk Modulus (GPa) = 36.16270 56.74322 46.45296
# Shear Modulus (GPa) = 22.66061 32.28933 27.47497
#
# Velocity S-wave (km/s) = 3.38926 4.04574 3.73196
# Velocity P-wave (km/s) = 5.80066 7.11254 6.48983
#
# Compressibility (1/GPa) = 0.02765280
#
# Stress axis : x y z
#
# Youngs Moduli (GPa) = 38.77608 45.60222 99.17681
#
# Poissons Ratio (x) = 0.09288 0.84893
# Poissons Ratio (y) = 0.07898 0.44407
# Poissons Ratio (z) = 0.33191 0.20418
#
# Static dielectric constant tensor:
#      x y z
#    x 1.735000 0.000000 0.000000 
#    y 0.000000 1.676630 0.000000 
#    z 0.000000 0.000000 1.736650 
# 
# From -- ./inp_files/25095.got.cif
#   From: 2010.05.17/outbox.cif.g08.bks.cpg/sg65_13_cif.got.tgz:25095.got - 2010.06.03 17:01:31.
