data_PCOD9490010
_publ_section_title
;
Structure prediction by ZEFSAII (Michael W. Deem and Ramdas Pophale) SiO2 
 PCOD9490010
Probable space group: C M M M
;
_chemical_formula_sum "Si O2"
_cell_formula_units_Z 100
_cell_length_a 31.729809
_cell_length_b 7.581442
_cell_length_c 21.086248
_cell_angle_alpha 90.000000
_cell_angle_beta 90.000000
_cell_angle_gamma 90.000000
_cell_volume 5072.459460
_symmetry_space_group_name_H-M "C M M M"
_symmetry_group_IT_number 65
_symmetry_cell_setting 'orthorhombic'
loop_
_space_group_symop_operation_xyz
x,y,z
-x,-y,z
x,-y,-z
-x,y,-z
-x,-y,-z
x,y,-z
-x,y,z
x,-y,z
1/2+x,1/2+y,z
1/2-x,1/2-y,z
1/2+x,1/2-y,-z
1/2-x,1/2+y,-z
1/2-x,1/2-y,-z
1/2+x,1/2+y,-z
1/2-x,1/2+y,z
1/2+x,1/2-y,z
loop_
_atom_site_type_symbol
_atom_site_label
_atom_site_fract_x
_atom_site_fract_y
_atom_site_fract_z
Si Si1 0.564386 0.213966 0.229063
Si Si2 0.797930 0.790752 0.325385
Si Si3 0.659071 0.207662 0.197005
Si Si4 0.862935 0.791666 0.570082
Si Si5 0.700528 0.212284 0.070068
Si Si6 0.453792 0.211310 0.623059
Si Si7 0.000000 0.000000 0.817838
O O1 0.613113 0.266098 0.219786
O O2 0.551403 0.249703 0.302114
O O3 0.536263 0.342420 0.186917
O O4 0.559062 0.000000 0.218765
O O5 0.750000 0.750000 0.343689
O O6 0.808332 0.729398 0.254419
O O7 0.832475 0.717639 0.375068
O O8 0.802748 0.000000 0.323723
O O9 0.675401 0.283908 0.130608
O O10 0.654347 0.000000 0.186522
O O11 0.855409 0.716303 0.500000
O O12 0.912045 0.774705 0.587946
O O13 0.853812 0.000000 0.566990
O O14 0.750000 0.250000 0.078442
O O15 0.695973 0.000000 0.068977
O O16 0.687882 0.278362 0.000000
O O17 0.500000 0.277414 0.602069
O O18 0.453989 0.000000 0.616326
#
# Coordination Sequence:
#
# PCOD9490010 Si02
#       7
#    16  16  16  16  16  16   4
#     4  10  21  35  54  86 119 150 193 243 288 349
#     4  11  23  37  57  80 107 142 187 234 286 347
#     4  10  20  35  56  83 117 148 185 239 285 333
#     4  10  23  40  56  76 104 139 185 237 286 346
#     4   9  18  33  53  80 115 155 191 228 281 342
#     4  10  20  35  55  79 110 141 177 228 283 346
#     4  12  22  32  60  86 118 160 194 230 308 350
#
# _framework density 19.714303000000001
#
# number of rings (size 3 to 8) (size 9 to 14) (size 15 to 20)
#    0.000    1.920    2.400    1.200    2.240    3.840 
#    0.000    1.600    0.000    0.000    0.000    1.120 
#    0.000    3.840    0.000    0.000    0.000    0.000 
#
# Total GULP energy -278441.452046 kJ/mol
# GULP energy per Si atom -5568.829041 kJ/mol
# Density = 1.966943 g / cm^3
# Si number density = 19.714303 Si / 1000 Ang^3
#
#
#
# Elastic Constant Matrix: (Units=GPa)
#
#
# Indices 1 2 3 4 5 6 
#
# 1 102.9419 -8.1435 43.1843 0.0000 0.0000 0.0000
# 2 -8.1435 47.4742 -1.5058 0.0000 0.0000 0.0000
# 3 43.1843 -1.5058 101.5712 0.0000 0.0000 0.0000
# 4 0.0000 0.0000 0.0000 8.8575 0.0000 0.0000
# 5 0.0000 0.0000 0.0000 0.0000 3.7662 0.0000
# 6 0.0000 0.0000 0.0000 0.0000 0.0000 31.4812
#
#
#
# Elastic Compliance Matrix: (Units=1/GPa)
#
#
# Indices 1 2 3 4 5 6 
#
# 1 0.011991 0.001896 -0.005070 0.000000 0.000000 0.000000
# 2 0.001896 0.021374 -0.000489 0.000000 0.000000 0.000000
# 3 -0.005070 -0.000489 0.011994 0.000000 0.000000 0.000000
# 4 0.000000 0.000000 0.000000 0.112899 0.000000 0.000000
# 5 0.000000 0.000000 0.000000 0.000000 0.265522 0.000000
# 6 0.000000 0.000000 0.000000 0.000000 0.000000 0.031765
#
#
# Mechanical properties :
#
#
# Convention : Reuss Voigt Hill
#
# Bulk Modulus (GPa) = 26.29362 35.45080 30.87221
# Shear Modulus (GPa) = 10.51418 23.38445 16.94932
#
# Velocity S-wave (km/s) = 2.31189 3.44781 2.93533
# Velocity P-wave (km/s) = 4.52689 5.81990 5.21363
#
# Compressibility (1/GPa) = 0.03803204
#
# Stress axis : x y z
#
# Youngs Moduli (GPa) = 83.39512 46.78630 83.37739
#
# Poissons Ratio (x) = -0.08871 0.42273
# Poissons Ratio (y) = -0.15812 0.04080
# Poissons Ratio (z) = 0.42282 0.02289
#
# Static dielectric constant tensor:
#      x y z
#    x 1.702810 0.000000 0.000000 
#    y 0.000000 1.743440 0.000000 
#    z 0.000000 0.000000 1.711330 
# 
# From -- ./inp_files/60813.got.cif
#   From: 2010.05.17/outbox.cif.g08.bks.cpg/sg65_31_cif.got.tgz:60813.got - 2010.06.03 17:01:31.
