data_PCOD9490610
_publ_section_title
;
Structure prediction by ZEFSAII (Michael W. Deem and Ramdas Pophale) SiO2 
 PCOD9490610
Probable space group: C M M M
;
_chemical_formula_sum "Si O2"
_cell_formula_units_Z 60
_cell_length_a 9.864317
_cell_length_b 16.913202
_cell_length_c 20.015393
_cell_angle_alpha 90.000000
_cell_angle_beta 90.000000
_cell_angle_gamma 90.000000
_cell_volume 3339.311845
_symmetry_space_group_name_H-M "C M M M"
_symmetry_group_IT_number 65
_symmetry_cell_setting 'orthorhombic'
loop_
_space_group_symop_operation_xyz
x,y,z
-x,-y,z
x,-y,-z
-x,y,-z
-x,-y,-z
x,y,-z
-x,y,z
x,-y,z
1/2+x,1/2+y,z
1/2-x,1/2-y,z
1/2+x,1/2-y,-z
1/2-x,1/2+y,-z
1/2-x,1/2-y,-z
1/2+x,1/2+y,-z
1/2-x,1/2+y,z
1/2+x,1/2-y,z
loop_
_atom_site_type_symbol
_atom_site_label
_atom_site_fract_x
_atom_site_fract_y
_atom_site_fract_z
Si Si1 0.232974 0.500000 0.423706
Si Si2 0.000000 0.595713 0.075436
Si Si3 0.500000 0.184870 0.279622
Si Si4 0.000000 0.861771 0.774239
Si Si5 0.000000 0.000000 0.333831
Si Si6 0.292419 0.905154 0.811226
Si Si7 0.000000 0.630712 0.576482
O O1 0.282275 0.500000 0.500000
O O2 0.361603 0.500000 0.376033
O O3 0.132273 0.425240 0.415987
O O4 0.128552 0.617310 0.121108
O O5 0.000000 0.500000 0.071683
O O6 0.000000 0.626508 0.000000
O O7 0.500000 0.272317 0.250488
O O8 0.370848 0.137502 0.249659
O O9 0.500000 0.187270 0.359772
O O10 0.137448 0.879778 0.813556
O O11 0.000000 0.922814 0.712633
O O12 0.302804 0.000000 0.802019
O O13 0.000000 0.662248 0.500000
#
# Coordination Sequence:
#
# PCOD9490610 Si02
#       7
#     8   8   8   8   4  16   8
#     4   9  19  33  53  77 101 138 182 228 280 335
#     4   8  16  33  60  88 113 148 191 225 263 324
#     4  11  22  35  58  82 109 148 191 233 281 331
#     4  12  23  35  52  85 116 144 181 235 286 325
#     4  12  21  34  54  70 113 146 176 222 284 356
#     4  10  20  36  58  84 115 148 184 230 275 331
#     4   9  19  35  55  78 104 139 191 238 272 325
#
# _framework density 17.967773000000001
#
# number of rings (size 3 to 8) (size 9 to 14) (size 15 to 20)
#    0.000    2.000    1.333    4.600    3.733    0.000 
#    0.000    2.000    0.000   22.400    0.000    0.000 
#    0.000    0.000    0.000    0.000    0.000    0.000 
#
# Total GULP energy -167406.742772 kJ/mol
# GULP energy per Si atom -5580.224759 kJ/mol
# Density = 1.792688 g / cm^3
# Si number density = 17.967773 Si / 1000 Ang^3
#
#
#
# Elastic Constant Matrix: (Units=GPa)
#
#
# Indices 1 2 3 4 5 6 
#
# 1 169.3534 30.3095 75.9858 0.0000 0.0000 0.0000
# 2 30.3095 86.1763 35.4411 0.0000 0.0000 0.0000
# 3 75.9858 35.4411 140.9695 0.0000 0.0000 0.0000
# 4 0.0000 0.0000 0.0000 14.5537 0.0000 0.0000
# 5 0.0000 0.0000 0.0000 0.0000 11.4243 0.0000
# 6 0.0000 0.0000 0.0000 0.0000 0.0000 -7.0554
#
#
#
# Elastic Compliance Matrix: (Units=1/GPa)
#
#
# Indices 1 2 3 4 5 6 
#
# 1 0.007888 -0.001144 -0.003964 0.000000 0.000000 0.000000
# 2 -0.001144 0.013108 -0.002679 0.000000 0.000000 0.000000
# 3 -0.003964 -0.002679 0.009904 0.000000 0.000000 0.000000
# 4 0.000000 0.000000 0.000000 0.068711 0.000000 0.000000
# 5 0.000000 0.000000 0.000000 0.000000 0.087533 0.000000
# 6 0.000000 0.000000 0.000000 0.000000 0.000000 -0.141736
#
#
# Mechanical properties :
#
#
# Convention : Reuss Voigt Hill
#
# Bulk Modulus (GPa) = 65.24820 75.55244 70.40032
# Shear Modulus (GPa) = 75.65262 20.76872 48.21067
#
# Velocity S-wave (km/s) = 6.49585 3.40352 5.18556
# Velocity P-wave (km/s) = 9.62571 7.58851 8.66717
#
# Compressibility (1/GPa) = 0.01532609
#
# Stress axis : x y z
#
# Youngs Moduli (GPa) = 126.77015 76.28808 100.96830
#
# Poissons Ratio (x) = 0.08728 0.40027
# Poissons Ratio (y) = 0.14503 0.27048
# Poissons Ratio (z) = 0.50256 0.20437
#
# Static dielectric constant tensor:
#      x y z
#    x 1.613990 0.000000 0.000000 
#    y 0.000000 1.596190 0.000000 
#    z 0.000000 0.000000 1.616930 
# 
# From -- ./inp_files/58933.got.cif
#   From: 2010.05.17/outbox.cif.g08.bks.cpg/sg65_30_cif.got.tgz:58933.got - 2010.06.03 17:01:31.
