data_PCOD9490306
_publ_section_title
;
Structure prediction by ZEFSAII (Michael W. Deem and Ramdas Pophale) SiO2 
 PCOD9490306
Probable space group: C M M M
;
_chemical_formula_sum "Si O2"
_cell_formula_units_Z 56
_cell_length_a 17.246772
_cell_length_b 16.042655
_cell_length_c 10.276949
_cell_angle_alpha 90.000000
_cell_angle_beta 90.000000
_cell_angle_gamma 90.000000
_cell_volume 2843.467491
_symmetry_space_group_name_H-M "C M M M"
_symmetry_group_IT_number 65
_symmetry_cell_setting 'orthorhombic'
loop_
_space_group_symop_operation_xyz
x,y,z
-x,-y,z
x,-y,-z
-x,y,-z
-x,-y,-z
x,y,-z
-x,y,z
x,-y,z
1/2+x,1/2+y,z
1/2-x,1/2-y,z
1/2+x,1/2-y,-z
1/2-x,1/2+y,-z
1/2-x,1/2-y,-z
1/2+x,1/2+y,-z
1/2-x,1/2+y,z
1/2+x,1/2-y,z
loop_
_atom_site_type_symbol
_atom_site_label
_atom_site_fract_x
_atom_site_fract_y
_atom_site_fract_z
Si Si1 0.910944 0.399956 0.500000
Si Si2 0.703691 0.168781 0.289112
Si Si3 0.086388 0.768073 0.145382
Si Si4 0.860262 0.905513 0.656121
O O1 0.907329 0.500000 0.500000
O O2 0.864459 0.363707 0.379093
O O3 0.000000 0.373761 0.500000
O O4 0.750000 0.250000 0.341933
O O5 0.657330 0.203761 0.165074
O O6 0.771976 0.101514 0.289539
O O7 0.095035 0.837430 0.257979
O O8 0.000000 0.730245 0.156276
O O9 0.092600 0.804661 0.000000
O O10 0.860486 0.887930 0.500000
O O11 0.888877 0.000000 0.672862
#
# Coordination Sequence:
#
# PCOD9490306 Si02
#       4
#     8  16  16  16
#     4  11  21  32  52  84 115 143 178 224 280 335
#     4  10  20  35  58  81 110 147 185 230 275 331
#     4  10  23  40  57  81 115 153 192 235 282 335
#     4  10  21  37  59  86 117 148 184 236 287 335
#
# _framework density 19.694264
#
# number of rings (size 3 to 8) (size 9 to 14) (size 15 to 20)
#    0.000    1.857    1.429    2.143    6.000    6.857 
#    0.000    2.857    0.000    2.571    0.000   10.000 
#    0.000    0.000    0.000    0.000    0.000    0.000 
#
# Total GULP energy -155954.423137 kJ/mol
# GULP energy per Si atom -5569.800826 kJ/mol
# Density = 1.964944 g / cm^3
# Si number density = 19.694264 Si / 1000 Ang^3
#
#
#
# Elastic Constant Matrix: (Units=GPa)
#
#
# Indices 1 2 3 4 5 6 
#
# 1 110.0359 2.2394 26.8630 0.0000 0.0000 0.0000
# 2 2.2394 40.2684 22.1153 0.0000 0.0000 0.0000
# 3 26.8630 22.1153 93.0016 0.0000 0.0000 0.0000
# 4 0.0000 0.0000 0.0000 -12.9436 0.0000 0.0000
# 5 0.0000 0.0000 0.0000 0.0000 8.8275 0.0000
# 6 0.0000 0.0000 0.0000 0.0000 0.0000 22.0523
#
#
#
# Elastic Compliance Matrix: (Units=1/GPa)
#
#
# Indices 1 2 3 4 5 6 
#
# 1 0.009825 0.001164 -0.003115 0.000000 0.000000 0.000000
# 2 0.001164 0.028702 -0.007161 0.000000 0.000000 0.000000
# 3 -0.003115 -0.007161 0.013355 0.000000 0.000000 0.000000
# 4 0.000000 0.000000 0.000000 -0.077259 0.000000 0.000000
# 5 0.000000 0.000000 0.000000 0.000000 0.113282 0.000000
# 6 0.000000 0.000000 0.000000 0.000000 0.000000 0.045347
#
#
# Mechanical properties :
#
#
# Convention : Reuss Voigt Hill
#
# Bulk Modulus (GPa) = 29.71090 38.41571 34.06330
# Shear Modulus (GPa) = 30.73249 16.39314 23.56281
#
# Velocity S-wave (km/s) = 3.95458 2.88823 3.46270
# Velocity P-wave (km/s) = 5.99753 5.53813 5.77240
#
# Compressibility (1/GPa) = 0.03365769
#
# Stress axis : x y z
#
# Youngs Moduli (GPa) = 101.78513 34.84126 74.87785
#
# Poissons Ratio (x) = -0.04056 0.23322
# Poissons Ratio (y) = -0.11850 0.53623
# Poissons Ratio (z) = 0.31702 0.24951
#
# Static dielectric constant tensor:
#      x y z
#    x 1.713570 0.000000 0.000000 
#    y 0.000000 1.704350 0.000000 
#    z 0.000000 0.000000 1.692700 
# 
# From -- ./inp_files/8514.got.cif
#   From: 2010.05.17/outbox.cif.g08.bks.cpg/sg65_5_cif.got.tgz:8514.got - 2010.06.03 17:01:31.
