data_PCOD9490968
_publ_section_title
;
Structure prediction by ZEFSAII (Michael W. Deem and Ramdas Pophale) SiO2 
 PCOD9490968
Probable space group: C M M M
;
_chemical_formula_sum "Si O2"
_cell_formula_units_Z 82
_cell_length_a 8.760842
_cell_length_b 24.157174
_cell_length_c 20.250073
_cell_angle_alpha 90.000000
_cell_angle_beta 90.000000
_cell_angle_gamma 90.000000
_cell_volume 4285.668437
_symmetry_space_group_name_H-M "C M M M"
_symmetry_group_IT_number 65
_symmetry_cell_setting 'orthorhombic'
loop_
_space_group_symop_operation_xyz
x,y,z
-x,-y,z
x,-y,-z
-x,y,-z
-x,-y,-z
x,y,-z
-x,y,z
x,-y,z
1/2+x,1/2+y,z
1/2-x,1/2-y,z
1/2+x,1/2-y,-z
1/2-x,1/2+y,-z
1/2-x,1/2-y,-z
1/2+x,1/2+y,-z
1/2-x,1/2+y,z
1/2+x,1/2-y,z
loop_
_atom_site_type_symbol
_atom_site_label
_atom_site_fract_x
_atom_site_fract_y
_atom_site_fract_z
Si Si1 0.817971 0.188900 0.612536
Si Si2 0.668948 0.116883 0.500000
Si Si3 0.173416 0.500000 0.887427
Si Si4 0.173850 0.500000 0.273015
Si Si5 0.317621 0.616862 0.263021
Si Si6 0.314947 0.119306 0.117388
Si Si7 0.000000 0.500000 0.500000
Si Si8 0.681998 0.689640 0.000000
O O1 0.750000 0.250000 0.600953
O O2 0.754819 0.142291 0.562858
O O3 0.781780 0.165477 0.685534
O O4 0.000000 0.192189 0.605462
O O5 0.500000 0.143195 0.500000
O O6 0.632047 0.050895 0.500000
O O7 0.166849 0.500000 0.807218
O O8 0.242846 0.558405 0.905272
O O9 0.000000 0.500000 0.912758
O O10 0.256353 0.557494 0.289856
O O11 0.000000 0.500000 0.298938
O O12 0.500000 0.612838 0.255007
O O13 0.240639 0.627644 0.192208
O O14 0.000000 0.380525 0.116636
O O15 0.246822 0.161077 0.065547
O O16 0.750000 0.750000 0.000000
O O17 0.500000 0.688941 0.000000
#
# Coordination Sequence:
#
# PCOD9490968 Si02
#       8
#    16   8   8   8  16  16   2   8
#     4  11  24  41  64  94 129 174 219 265 317 380
#     4  10  22  44  68  94 129 162 212 255 316 373
#     4   7  14  30  55  84 113 145 188 232 293 362
#     4   9  17  32  55  84 118 162 202 250 312 373
#     4  10  21  37  58  90 127 163 210 259 317 376
#     4  10  20  38  62  88 121 159 204 258 312 378
#     4   8  24  44  70 100 128 172 210 264 324 384
#     4  12  26  43  60  81 111 156 208 258 322 384
#
# _framework density 19.133538999999999
#
# number of rings (size 3 to 8) (size 9 to 14) (size 15 to 20)
#    0.293    1.756    0.000    4.683    0.000    5.073 
#    1.756    7.317    0.000    0.000    0.000    0.000 
#    0.000    0.000    0.000    0.000    0.000    0.000 
#
# Total GULP energy -228405.315534 kJ/mol
# GULP energy per Si atom -5570.861354 kJ/mol
# Density = 1.908999 g / cm^3
# Si number density = 19.133539 Si / 1000 Ang^3
#
#
#
# Elastic Constant Matrix: (Units=GPa)
#
#
# Indices 1 2 3 4 5 6 
#
# 1 91.3870 55.9095 51.7481 0.0000 0.0000 0.0000
# 2 55.9095 175.0378 71.7179 0.0000 0.0000 0.0000
# 3 51.7481 71.7179 91.9223 0.0000 0.0000 0.0000
# 4 0.0000 0.0000 0.0000 -0.7577 0.0000 0.0000
# 5 0.0000 0.0000 0.0000 0.0000 18.0827 0.0000
# 6 0.0000 0.0000 0.0000 0.0000 0.0000 30.6364
#
#
#
# Elastic Compliance Matrix: (Units=1/GPa)
#
#
# Indices 1 2 3 4 5 6 
#
# 1 0.016603 -0.002166 -0.007657 0.000000 0.000000 0.000000
# 2 -0.002166 0.008680 -0.005553 0.000000 0.000000 0.000000
# 3 -0.007657 -0.005553 0.019522 0.000000 0.000000 0.000000
# 4 0.000000 0.000000 0.000000 -1.319771 0.000000 0.000000
# 5 0.000000 0.000000 0.000000 0.000000 0.055301 0.000000
# 6 0.000000 0.000000 0.000000 0.000000 0.000000 0.032641
#
#
# Mechanical properties :
#
#
# Convention : Reuss Voigt Hill
#
# Bulk Modulus (GPa) = 71.15741 79.67755 75.41748
# Shear Modulus (GPa) = -4.34183 21.52373 8.59095
#
# Velocity S-wave (km/s) = -1.50803 3.35762 2.12126
# Velocity P-wave (km/s) = 5.85136 7.53424 6.74549
#
# Compressibility (1/GPa) = 0.01405335
#
# Stress axis : x y z
#
# Youngs Moduli (GPa) = 60.22839 115.20661 51.22536
#
# Poissons Ratio (x) = 0.24955 0.39223
# Poissons Ratio (y) = 0.13046 0.28444
# Poissons Ratio (z) = 0.46117 0.63972
#
# Static dielectric constant tensor:
#      x y z
#    x 1.649170 0.000000 0.000000 
#    y 0.000000 1.661860 0.000000 
#    z 0.000000 0.000000 1.682430 
# 
# From -- ./inp_files/59775.got.cif
#   From: 2010.05.17/outbox.cif.g08.bks.cpg/sg65_30_cif.got.tgz:59775.got - 2010.06.03 17:01:31.
