data_PCOD9490781
_publ_section_title
;
Structure prediction by ZEFSAII (Michael W. Deem and Ramdas Pophale) SiO2 
 PCOD9490781
Probable space group: C M M M
;
_chemical_formula_sum "Si O2"
_cell_formula_units_Z 64
_cell_length_a 24.831714
_cell_length_b 16.089118
_cell_length_c 7.643756
_cell_angle_alpha 90.000000
_cell_angle_beta 90.000000
_cell_angle_gamma 90.000000
_cell_volume 3053.836276
_symmetry_space_group_name_H-M "C M M M"
_symmetry_group_IT_number 65
_symmetry_cell_setting 'orthorhombic'
loop_
_space_group_symop_operation_xyz
x,y,z
-x,-y,z
x,-y,-z
-x,y,-z
-x,-y,-z
x,y,-z
-x,y,z
x,-y,z
1/2+x,1/2+y,z
1/2-x,1/2-y,z
1/2+x,1/2-y,-z
1/2-x,1/2+y,-z
1/2-x,1/2-y,-z
1/2+x,1/2+y,-z
1/2-x,1/2+y,z
1/2+x,1/2-y,z
loop_
_atom_site_type_symbol
_atom_site_label
_atom_site_fract_x
_atom_site_fract_y
_atom_site_fract_z
Si Si1 0.776018 0.663798 0.285821
Si Si2 0.000000 0.865852 0.288108
Si Si3 0.710066 0.500000 0.286503
Si Si4 0.887272 0.406309 0.293370
Si Si5 0.086842 0.000000 0.713416
Si Si6 0.500000 0.173451 0.798763
O O1 0.775327 0.666564 0.500000
O O2 0.750000 0.750000 0.225359
O O3 0.741416 0.583196 0.233140
O O4 0.837375 0.648306 0.226009
O O5 0.000000 0.772491 0.222821
O O6 0.000000 0.862830 0.500000
O O7 0.947787 0.919352 0.233692
O O8 0.709712 0.500000 0.500000
O O9 0.648194 0.500000 0.227150
O O10 0.877039 0.414192 0.500000
O O11 0.887076 0.500000 0.219571
O O12 0.945210 0.364423 0.276021
O O13 0.087318 0.000000 0.500000
O O14 0.500000 0.150574 0.000000
#
# Coordination Sequence:
#
# PCOD9490781 Si02
#       6
#    16   8   8  16   8   8
#     4   9  17  28  48  82 117 142 168 213 273 326
#     4   9  18  35  55  83 112 142 181 224 269 318
#     4   9  15  26  45  79 117 142 168 211 268 330
#     4  10  20  37  58  81 108 140 180 226 272 322
#     4   8  16  29  52  84 117 143 173 219 272 319
#     4  12  26  38  53  78 106 143 188 229 276 327
#
# _framework density 20.957248
#
# number of rings (size 3 to 8) (size 9 to 14) (size 15 to 20)
#    0.000    2.500    1.250    2.250    3.500    2.000 
#    0.000    1.250    0.000    0.750    0.000    0.000 
#    0.000    0.000    0.000    0.000    0.000    0.000 
#
# Total GULP energy -178664.941364 kJ/mol
# GULP energy per Si atom -5583.279418 kJ/mol
# Density = 2.090955 g / cm^3
# Si number density = 20.957248 Si / 1000 Ang^3
#
#
#
# Elastic Constant Matrix: (Units=GPa)
#
#
# Indices 1 2 3 4 5 6 
#
# 1 222.5629 114.7802 -2.6446 0.0000 0.0000 0.0000
# 2 114.7802 190.3988 -2.8073 0.0000 0.0000 0.0000
# 3 -2.6446 -2.8073 35.3422 0.0000 0.0000 0.0000
# 4 0.0000 0.0000 0.0000 -64.0788 0.0000 0.0000
# 5 0.0000 0.0000 0.0000 0.0000 -28.8811 0.0000
# 6 0.0000 0.0000 0.0000 0.0000 0.0000 12.2063
#
#
#
# Elastic Compliance Matrix: (Units=1/GPa)
#
#
# Indices 1 2 3 4 5 6 
#
# 1 0.006521 -0.003929 0.000176 0.000000 0.000000 0.000000
# 2 -0.003929 0.007625 0.000312 0.000000 0.000000 0.000000
# 3 0.000176 0.000312 0.028333 0.000000 0.000000 0.000000
# 4 0.000000 0.000000 0.000000 -0.015606 0.000000 0.000000
# 5 0.000000 0.000000 0.000000 0.000000 -0.034625 0.000000
# 6 0.000000 0.000000 0.000000 0.000000 0.000000 0.081925
#
#
# Mechanical properties :
#
#
# Convention : Reuss Voigt Hill
#
# Bulk Modulus (GPa) = 28.09234 74.10672 51.09953
# Shear Modulus (GPa) = 53.80887 6.44765 30.12826
#
# Velocity S-wave (km/s) = 5.07260 1.75592 3.79569
# Velocity P-wave (km/s) = 6.90956 6.28877 6.60646
#
# Compressibility (1/GPa) = 0.03559689
#
# Stress axis : x y z
#
# Youngs Moduli (GPa) = 153.34302 131.14531 35.29494
#
# Poissons Ratio (x) = 0.51523 -0.00621
# Poissons Ratio (y) = 0.60244 -0.01100
# Poissons Ratio (z) = -0.02698 -0.04088
#
# Static dielectric constant tensor:
#      x y z
#    x 1.809160 0.000000 0.000000 
#    y 0.000000 1.712310 0.000000 
#    z 0.000000 0.000000 1.769830 
# 
# From -- ./inp_files/13427.got.cif
#   From: 2010.05.17/outbox.cif.g08.bks.cpg/sg65_7_cif.got.tgz:13427.got - 2010.06.03 17:01:31.
