data_PCOD9490171
_publ_section_title
;
Structure prediction by ZEFSAII (Michael W. Deem and Ramdas Pophale) SiO2 
 PCOD9490171
Probable space group: C M M M
;
_chemical_formula_sum "Si O2"
_cell_formula_units_Z 112
_cell_length_a 17.774043
_cell_length_b 22.780426
_cell_length_c 14.435236
_cell_angle_alpha 90.000000
_cell_angle_beta 90.000000
_cell_angle_gamma 90.000000
_cell_volume 5844.830972
_symmetry_space_group_name_H-M "C M M M"
_symmetry_group_IT_number 65
_symmetry_cell_setting 'orthorhombic'
loop_
_space_group_symop_operation_xyz
x,y,z
-x,-y,z
x,-y,-z
-x,y,-z
-x,-y,-z
x,y,-z
-x,y,z
x,-y,z
1/2+x,1/2+y,z
1/2-x,1/2-y,z
1/2+x,1/2-y,-z
1/2-x,1/2+y,-z
1/2-x,1/2-y,-z
1/2+x,1/2+y,-z
1/2-x,1/2+y,z
1/2+x,1/2-y,z
loop_
_atom_site_type_symbol
_atom_site_label
_atom_site_fract_x
_atom_site_fract_y
_atom_site_fract_z
Si Si1 0.800649 0.068906 0.605141
Si Si2 0.367179 0.883140 0.393760
Si Si3 0.086265 0.857709 0.284230
Si Si4 0.147692 0.195947 0.890244
Si Si5 0.337757 0.250163 0.389412
Si Si6 0.586462 0.067122 0.792594
Si Si7 0.176247 0.670972 0.110216
O O1 0.828801 0.080216 0.500000
O O2 0.721667 0.102352 0.614192
O O3 0.859963 0.090942 0.679589
O O4 0.785587 0.000000 0.613983
O O5 0.389605 0.894731 0.500000
O O6 0.373436 0.813828 0.374165
O O7 0.408855 0.921054 0.317298
O O8 0.097103 0.842932 0.176319
O O9 0.116867 0.800358 0.337922
O O10 0.000000 0.869196 0.306346
O O11 0.141467 0.265239 0.865886
O O12 0.234529 0.177435 0.872447
O O13 0.133442 0.189898 0.000000
O O14 0.337629 0.261182 0.500000
O O15 0.250000 0.250000 0.359251
O O16 0.500000 0.074408 0.823435
O O17 0.638825 0.116626 0.838007
O O18 0.609935 0.000000 0.812430
O O19 0.166614 0.663273 0.000000
#
# Coordination Sequence:
#
# PCOD9490171 Si02
#       7
#    16  16  16  16  16  16  16
#     4  10  21  38  60  84 110 147 196 243 284 331
#     4  10  20  36  59  81 108 149 196 239 281 334
#     4  12  24  35  56  88 119 152 187 229 285 348
#     4   9  20  38  61  88 113 142 183 234 291 347
#     4  10  20  35  56  83 115 151 187 230 287 343
#     4  11  24  38  53  80 119 158 194 235 282 331
#     4   9  19  38  63  85 107 142 188 236 286 340
#
# _framework density 19.162230000000001
#
# number of rings (size 3 to 8) (size 9 to 14) (size 15 to 20)
#    0.000    1.857    1.429    3.429    2.000    5.714 
#    0.000    5.000    0.000    1.286    0.000    1.000 
#    0.000    0.000    0.000    0.000    0.000    0.000 
#
# Total GULP energy -312909.728822 kJ/mol
# GULP energy per Si atom -5587.673729 kJ/mol
# Density = 1.911862 g / cm^3
# Si number density = 19.162230 Si / 1000 Ang^3
#
#
#
# Elastic Constant Matrix: (Units=GPa)
#
#
# Indices 1 2 3 4 5 6 
#
# 1 24.9225 8.3614 8.4451 0.0000 0.0000 0.0000
# 2 8.3614 81.6415 21.7728 0.0000 0.0000 0.0000
# 3 8.4451 21.7728 42.4679 0.0000 0.0000 0.0000
# 4 0.0000 0.0000 0.0000 24.4603 0.0000 0.0000
# 5 0.0000 0.0000 0.0000 0.0000 -38.1978 0.0000
# 6 0.0000 0.0000 0.0000 0.0000 0.0000 14.8300
#
#
#
# Elastic Compliance Matrix: (Units=1/GPa)
#
#
# Indices 1 2 3 4 5 6 
#
# 1 0.043455 -0.002486 -0.007367 0.000000 0.000000 0.000000
# 2 -0.002486 0.014331 -0.006853 0.000000 0.000000 0.000000
# 3 -0.007367 -0.006853 0.028526 0.000000 0.000000 0.000000
# 4 0.000000 0.000000 0.000000 0.040883 0.000000 0.000000
# 5 0.000000 0.000000 0.000000 0.000000 -0.026180 0.000000
# 6 0.000000 0.000000 0.000000 0.000000 0.000000 0.067431
#
#
# Mechanical properties :
#
#
# Convention : Reuss Voigt Hill
#
# Bulk Modulus (GPa) = 18.90367 25.13229 22.01798
# Shear Modulus (GPa) = 22.78009 7.58199 15.18104
#
# Velocity S-wave (km/s) = 3.45164 1.99131 2.81773
# Velocity P-wave (km/s) = 5.07657 4.29315 4.70121
#
# Compressibility (1/GPa) = 0.05289978
#
# Stress axis : x y z
#
# Youngs Moduli (GPa) = 23.01250 69.77951 35.05623
#
# Poissons Ratio (x) = 0.17346 0.25826
# Poissons Ratio (y) = 0.05720 0.24024
# Poissons Ratio (z) = 0.16953 0.47819
#
# Static dielectric constant tensor:
#      x y z
#    x 1.649540 0.000000 0.000000 
#    y 0.000000 1.660660 0.000000 
#    z 0.000000 0.000000 1.693430 
# 
# From -- ./inp_files/40762.got.cif
#   From: 2010.05.17/outbox.cif.g08.bks.cpg/sg65_21_cif.got.tgz:40762.got - 2010.06.03 17:01:31.
