data_PCOD9490862
_publ_section_title
;
Structure prediction by ZEFSAII (Michael W. Deem and Ramdas Pophale) SiO2 
 PCOD9490862
Probable space group: C M M M
;
_chemical_formula_sum "Si O2"
_cell_formula_units_Z 112
_cell_length_a 26.943342
_cell_length_b 15.149354
_cell_length_c 13.203362
_cell_angle_alpha 90.000000
_cell_angle_beta 90.000000
_cell_angle_gamma 90.000000
_cell_volume 5389.272064
_symmetry_space_group_name_H-M "C M M M"
_symmetry_group_IT_number 65
_symmetry_cell_setting 'orthorhombic'
loop_
_space_group_symop_operation_xyz
x,y,z
-x,-y,z
x,-y,-z
-x,y,-z
-x,-y,-z
x,y,-z
-x,y,z
x,-y,z
1/2+x,1/2+y,z
1/2-x,1/2-y,z
1/2+x,1/2-y,-z
1/2-x,1/2+y,-z
1/2-x,1/2-y,-z
1/2+x,1/2+y,-z
1/2-x,1/2+y,z
1/2+x,1/2-y,z
loop_
_atom_site_type_symbol
_atom_site_label
_atom_site_fract_x
_atom_site_fract_y
_atom_site_fract_z
Si Si1 0.649549 0.101123 0.744752
Si Si2 0.841928 0.765219 0.386218
Si Si3 0.446900 0.343614 0.608440
Si Si4 0.945980 0.899685 0.833817
Si Si5 0.239939 0.351045 0.883455
Si Si6 0.340279 0.398118 0.203941
Si Si7 0.443219 0.107470 0.116782
O O1 0.665128 0.167564 0.656012
O O2 0.695736 0.106000 0.821265
O O3 0.600109 0.133906 0.805176
O O4 0.641460 0.000000 0.712585
O O5 0.822069 0.779266 0.500000
O O6 0.901220 0.778519 0.390060
O O7 0.827472 0.838291 0.302081
O O8 0.443645 0.392488 0.500000
O O9 0.500000 0.296924 0.610222
O O10 0.445717 0.399445 0.710664
O O11 0.890544 0.862877 0.852025
O O12 0.000000 0.859813 0.864000
O O13 0.946327 0.000000 0.872086
O O14 0.250000 0.250000 0.851224
O O15 0.292691 0.396505 0.866936
O O16 0.225435 0.350841 0.000000
O O17 0.349756 0.500000 0.233920
O O18 0.500000 0.133919 0.143723
O O19 0.442356 0.000000 0.115853
O O20 0.433609 0.135879 0.000000
#
# Coordination Sequence:
#
# PCOD9490862 Si02
#       7
#    16  16  16  16  16  16  16
#     4  11  22  37  59  86 116 154 197 236 284 342
#     4  10  21  37  55  80 117 155 195 244 288 332
#     4   8  14  25  43  68 100 142 186 227 274 320
#     4   8  14  25  45  75 108 141 177 220 269 323
#     4  11  23  41  65  89 116 146 181 233 293 350
#     4  10  20  37  61  87 114 148 192 236 287 343
#     4   8  15  30  54  85 119 152 188 236 293 350
#
# _framework density 20.782025999999998
#
# number of rings (size 3 to 8) (size 9 to 14) (size 15 to 20)
#    0.000    2.571    1.429    1.286    0.000    3.143 
#    0.000    5.714    0.000    2.143    0.000    6.000 
#    0.000    0.000    0.000    0.000    0.000    0.000 
#
# Total GULP energy -311774.379209 kJ/mol
# GULP energy per Si atom -5567.399629 kJ/mol
# Density = 2.073473 g / cm^3
# Si number density = 20.782026 Si / 1000 Ang^3
#
#
#
# Elastic Constant Matrix: (Units=GPa)
#
#
# Indices 1 2 3 4 5 6 
#
# 1 82.7017 -6.3877 3.4804 0.0000 0.0000 0.0000
# 2 -6.3877 76.3213 11.8745 0.0000 0.0000 0.0000
# 3 3.4804 11.8745 24.2706 0.0000 0.0000 0.0000
# 4 0.0000 0.0000 0.0000 23.2071 0.0000 0.0000
# 5 0.0000 0.0000 0.0000 0.0000 23.4477 0.0000
# 6 0.0000 0.0000 0.0000 0.0000 0.0000 -5.5611
#
#
#
# Elastic Compliance Matrix: (Units=1/GPa)
#
#
# Indices 1 2 3 4 5 6 
#
# 1 0.012304 0.001412 -0.002455 0.000000 0.000000 0.000000
# 2 0.001412 0.014344 -0.007220 0.000000 0.000000 0.000000
# 3 -0.002455 -0.007220 0.045087 0.000000 0.000000 0.000000
# 4 0.000000 0.000000 0.000000 0.043090 0.000000 0.000000
# 5 0.000000 0.000000 0.000000 0.000000 0.042648 0.000000
# 6 0.000000 0.000000 0.000000 0.000000 0.000000 -0.179820
#
#
# Mechanical properties :
#
#
# Convention : Reuss Voigt Hill
#
# Bulk Modulus (GPa) = 18.11351 22.35865 20.23608
# Shear Modulus (GPa) = 397.38004 19.84051 208.61027
#
# Velocity S-wave (km/s) = 13.84299 3.09317 10.02986
# Velocity P-wave (km/s) = 16.25544 4.85169 11.99538
#
# Compressibility (1/GPa) = 0.05520742
#
# Stress axis : x y z
#
# Youngs Moduli (GPa) = 81.27428 69.71537 22.17951
#
# Poissons Ratio (x) = -0.09842 0.05445
# Poissons Ratio (y) = -0.11474 0.16014
# Poissons Ratio (z) = 0.19954 0.50337
#
# Static dielectric constant tensor:
#      x y z
#    x 1.794930 0.000000 0.000000 
#    y 0.000000 1.765370 0.000000 
#    z 0.000000 0.000000 1.768560 
# 
# From -- ./inp_files/47078.got.cif
#   From: 2010.05.17/outbox.cif.g08.bks.cpg/sg65_24_cif.got.tgz:47078.got - 2010.06.03 17:01:31.
