data_PCOD9490952
_publ_section_title
;
Structure prediction by ZEFSAII (Michael W. Deem and Ramdas Pophale) SiO2 
 PCOD9490952
Probable space group: C M M M
;
_chemical_formula_sum "Si O2"
_cell_formula_units_Z 88
_cell_length_a 29.089263
_cell_length_b 14.339849
_cell_length_c 10.939008
_cell_angle_alpha 90.000000
_cell_angle_beta 90.000000
_cell_angle_gamma 90.000000
_cell_volume 4563.050091
_symmetry_space_group_name_H-M "C M M M"
_symmetry_group_IT_number 65
_symmetry_cell_setting 'orthorhombic'
loop_
_space_group_symop_operation_xyz
x,y,z
-x,-y,z
x,-y,-z
-x,y,-z
-x,-y,-z
x,y,-z
-x,y,z
x,-y,z
1/2+x,1/2+y,z
1/2-x,1/2-y,z
1/2+x,1/2-y,-z
1/2-x,1/2+y,-z
1/2-x,1/2-y,-z
1/2+x,1/2+y,-z
1/2-x,1/2+y,z
1/2+x,1/2-y,z
loop_
_atom_site_type_symbol
_atom_site_label
_atom_site_fract_x
_atom_site_fract_y
_atom_site_fract_z
Si Si1 0.261390 0.359412 0.865153
Si Si2 0.944955 0.388784 0.500000
Si Si3 0.888477 0.284014 0.709195
Si Si4 0.870969 0.108880 0.141197
Si Si5 0.698516 0.103147 0.361521
Si Si6 0.549865 0.104171 0.144519
O O1 0.250000 0.250000 0.865304
O O2 0.315676 0.377904 0.856153
O O3 0.235819 0.396274 0.745492
O O4 0.246241 0.394612 0.000000
O O5 0.931788 0.500000 0.500000
O O6 0.923805 0.329827 0.612743
O O7 0.000000 0.386018 0.500000
O O8 0.890120 0.177326 0.753430
O O9 0.838527 0.316704 0.665419
O O10 0.904509 0.339675 0.828242
O O11 0.881592 0.000000 0.161865
O O12 0.885319 0.132044 0.000000
O O13 0.716843 0.115320 0.500000
O O14 0.675805 0.000000 0.358348
O O15 0.500000 0.144504 0.184844
O O16 0.552876 0.000000 0.198081
O O17 0.547049 0.096233 0.000000
#
# Coordination Sequence:
#
# PCOD9490952 Si02
#       6
#    16   8  16  16  16  16
#     4  10  20  38  61  85 116 160 213 261 311 369
#     4  11  24  42  65  92 125 165 201 239 301 381
#     4  12  21  36  59  85 116 157 200 248 296 365
#     4  10  22  41  63  87 119 161 208 259 310 362
#     4  11  23  37  55  85 125 160 196 250 311 369
#     4   9  18  32  52  82 116 144 177 231 300 371
#
# _framework density 19.285346000000001
#
# number of rings (size 3 to 8) (size 9 to 14) (size 15 to 20)
#    0.000    1.545    2.727    3.818    0.000    3.636 
#    1.636    0.455    0.000    2.727    0.000    6.364 
#    0.000    0.000    0.000    0.000    0.000    0.000 
#
# Total GULP energy -245081.612386 kJ/mol
# GULP energy per Si atom -5570.036645 kJ/mol
# Density = 1.924145 g / cm^3
# Si number density = 19.285346 Si / 1000 Ang^3
#
#
#
# Elastic Constant Matrix: (Units=GPa)
#
#
# Indices 1 2 3 4 5 6 
#
# 1 38.9462 11.8551 36.9820 0.0000 0.0000 0.0000
# 2 11.8551 125.9846 55.5245 0.0000 0.0000 0.0000
# 3 36.9820 55.5245 129.3808 0.0000 0.0000 0.0000
# 4 0.0000 0.0000 0.0000 21.7759 0.0000 0.0000
# 5 0.0000 0.0000 0.0000 0.0000 35.3772 0.0000
# 6 0.0000 0.0000 0.0000 0.0000 0.0000 -66.4183
#
#
#
# Elastic Compliance Matrix: (Units=1/GPa)
#
#
# Indices 1 2 3 4 5 6 
#
# 1 0.035439 0.001393 -0.010728 0.000000 0.000000 0.000000
# 2 0.001393 0.009844 -0.004623 0.000000 0.000000 0.000000
# 3 -0.010728 -0.004623 0.012779 0.000000 0.000000 0.000000
# 4 0.000000 0.000000 0.000000 0.045922 0.000000 0.000000
# 5 0.000000 0.000000 0.000000 0.000000 0.028267 0.000000
# 6 0.000000 0.000000 0.000000 0.000000 0.000000 -0.015056
#
#
# Mechanical properties :
#
#
# Convention : Reuss Voigt Hill
#
# Bulk Modulus (GPa) = 33.17015 55.89278 44.53147
# Shear Modulus (GPa) = 32.22505 10.81030 21.51767
#
# Velocity S-wave (km/s) = 4.09217 2.37015 3.34391
# Velocity P-wave (km/s) = 6.29006 6.04442 6.16846
#
# Compressibility (1/GPa) = 0.03014758
#
# Stress axis : x y z
#
# Youngs Moduli (GPa) = 28.21749 101.58761 78.25110
#
# Poissons Ratio (x) = -0.14153 0.83946
# Poissons Ratio (y) = -0.03931 0.36173
# Poissons Ratio (z) = 0.30271 0.46961
#
# Static dielectric constant tensor:
#      x y z
#    x 1.680520 0.000000 0.000000 
#    y 0.000000 1.699700 0.000000 
#    z 0.000000 0.000000 1.798680 
# 
# From -- ./inp_files/30538.got.cif
#   From: 2010.05.17/outbox.cif.g08.bks.cpg/sg65_16_cif.got.tgz:30538.got - 2010.06.03 17:01:31.
