data_PCOD9490519
_publ_section_title
;
Structure prediction by ZEFSAII (Michael W. Deem and Ramdas Pophale) SiO2 
 PCOD9490519
Probable space group: C M M M
;
_chemical_formula_sum "Si O2"
_cell_formula_units_Z 104
_cell_length_a 29.485562
_cell_length_b 8.802338
_cell_length_c 20.467371
_cell_angle_alpha 90.000000
_cell_angle_beta 90.000000
_cell_angle_gamma 90.000000
_cell_volume 5312.140006
_symmetry_space_group_name_H-M "C M M M"
_symmetry_group_IT_number 65
_symmetry_cell_setting 'orthorhombic'
loop_
_space_group_symop_operation_xyz
x,y,z
-x,-y,z
x,-y,-z
-x,y,-z
-x,-y,-z
x,y,-z
-x,y,z
x,-y,z
1/2+x,1/2+y,z
1/2-x,1/2-y,z
1/2+x,1/2-y,-z
1/2-x,1/2+y,-z
1/2-x,1/2-y,-z
1/2+x,1/2+y,-z
1/2-x,1/2+y,z
1/2+x,1/2-y,z
loop_
_atom_site_type_symbol
_atom_site_label
_atom_site_fract_x
_atom_site_fract_y
_atom_site_fract_z
Si Si1 0.446053 0.824588 0.692248
Si Si2 0.392028 0.318477 0.427941
Si Si3 0.199305 0.818009 0.000000
Si Si4 0.798460 0.317418 0.611225
Si Si5 0.297702 0.818542 0.763410
Si Si6 0.052267 0.181384 0.834312
Si Si7 0.859545 0.317792 0.117381
O O1 0.500000 0.821014 0.679383
O O2 0.419842 0.753871 0.631370
O O3 0.438752 0.736828 0.760101
O O4 0.431654 0.000000 0.701215
O O5 0.411305 0.282352 0.500000
O O6 0.391087 0.500000 0.420599
O O7 0.341155 0.253691 0.424749
O O8 0.250000 0.750000 0.000000
O O9 0.171289 0.758421 0.937642
O O10 0.201832 0.000000 0.000000
O O11 0.798147 0.500000 0.605319
O O12 0.750000 0.250000 0.590469
O O13 0.804876 0.274705 0.688054
O O14 0.250000 0.750000 0.785884
O O15 0.337246 0.775147 0.812764
O O16 0.293857 0.000000 0.764621
O O17 0.089127 0.258928 0.880733
O O18 0.000000 0.222767 0.849466
O O19 0.056576 0.000000 0.837570
O O20 0.858311 0.500000 0.110206
#
# Coordination Sequence:
#
# PCOD9490519 Si02
#       7
#    16  16   8  16  16  16  16
#     4  10  21  38  61  88 117 150 190 238 291 347
#     4  11  24  39  55  78 109 147 192 240 292 352
#     4  12  26  44  63  88 125 166 208 249 291 343
#     4  10  20  36  57  81 110 144 185 235 290 347
#     4   9  19  33  53  82 111 140 179 229 283 340
#     4  10  21  38  62  92 123 155 193 239 292 346
#     4  11  22  38  61  89 121 158 200 244 292 344
#
# _framework density 19.577798000000001
#
# number of rings (size 3 to 8) (size 9 to 14) (size 15 to 20)
#    0.000    1.692    0.000    4.385    0.000    8.000 
#    0.000    1.923    0.000    2.308    0.000    0.000 
#    0.000    0.000    0.000    0.000    0.000    0.000 
#
# Total GULP energy -290669.942055 kJ/mol
# GULP energy per Si atom -5589.806578 kJ/mol
# Density = 1.953324 g / cm^3
# Si number density = 19.577798 Si / 1000 Ang^3
#
#
#
# Elastic Constant Matrix: (Units=GPa)
#
#
# Indices 1 2 3 4 5 6 
#
# 1 118.7441 50.7844 60.1000 0.0000 0.0000 0.0000
# 2 50.7844 77.0700 34.7809 0.0000 0.0000 0.0000
# 3 60.1000 34.7809 60.5045 0.0000 0.0000 0.0000
# 4 0.0000 0.0000 0.0000 19.8610 0.0000 0.0000
# 5 0.0000 0.0000 0.0000 0.0000 8.3704 0.0000
# 6 0.0000 0.0000 0.0000 0.0000 0.0000 37.6026
#
#
#
# Elastic Compliance Matrix: (Units=1/GPa)
#
#
# Indices 1 2 3 4 5 6 
#
# 1 0.018373 -0.005226 -0.015246 0.000000 0.000000 0.000000
# 2 -0.005226 0.019007 -0.005735 0.000000 0.000000 0.000000
# 3 -0.015246 -0.005735 0.034968 0.000000 0.000000 0.000000
# 4 0.000000 0.000000 0.000000 0.050350 0.000000 0.000000
# 5 0.000000 0.000000 0.000000 0.000000 0.119469 0.000000
# 6 0.000000 0.000000 0.000000 0.000000 0.000000 0.026594
#
#
# Mechanical properties :
#
#
# Convention : Reuss Voigt Hill
#
# Bulk Modulus (GPa) = 50.16445 60.84992 55.50719
# Shear Modulus (GPa) = 15.25225 20.54367 17.89796
#
# Velocity S-wave (km/s) = 2.79419 3.24286 3.02685
# Velocity P-wave (km/s) = 6.00739 6.72087 6.37412
#
# Compressibility (1/GPa) = 0.01993443
#
# Stress axis : x y z
#
# Youngs Moduli (GPa) = 54.42731 52.61179 28.59733
#
# Poissons Ratio (x) = 0.27497 0.43599
# Poissons Ratio (y) = 0.28446 0.16400
# Poissons Ratio (z) = 0.82979 0.30171
#
# Static dielectric constant tensor:
#      x y z
#    x 1.681220 0.000000 0.000000 
#    y 0.000000 1.651470 0.000000 
#    z 0.000000 0.000000 1.694310 
# 
# From -- ./inp_files/60389.got.cif
#   From: 2010.05.17/outbox.cif.g08.bks.cpg/sg65_31_cif.got.tgz:60389.got - 2010.06.03 17:01:31.
