data_PCOD9490122
_publ_section_title
;
Structure prediction by ZEFSAII (Michael W. Deem and Ramdas Pophale) SiO2 
 PCOD9490122
Probable space group: C M M M
;
_chemical_formula_sum "Si O2"
_cell_formula_units_Z 104
_cell_length_a 8.812846
_cell_length_b 32.030812
_cell_length_c 19.675192
_cell_angle_alpha 90.000000
_cell_angle_beta 90.000000
_cell_angle_gamma 90.000000
_cell_volume 5553.964617
_symmetry_space_group_name_H-M "C M M M"
_symmetry_group_IT_number 65
_symmetry_cell_setting 'orthorhombic'
loop_
_space_group_symop_operation_xyz
x,y,z
-x,-y,z
x,-y,-z
-x,y,-z
-x,-y,-z
x,y,-z
-x,y,z
x,-y,z
1/2+x,1/2+y,z
1/2-x,1/2-y,z
1/2+x,1/2-y,-z
1/2-x,1/2+y,-z
1/2-x,1/2-y,-z
1/2+x,1/2+y,-z
1/2-x,1/2+y,z
1/2+x,1/2-y,z
loop_
_atom_site_type_symbol
_atom_site_label
_atom_site_fract_x
_atom_site_fract_y
_atom_site_fract_z
Si Si1 0.181849 0.206677 0.291058
Si Si2 0.318512 0.046036 0.286083
Si Si3 0.681233 0.375527 0.793975
Si Si4 0.181302 0.924718 0.577501
Si Si5 0.181113 0.411783 0.920998
Si Si6 0.172994 0.000000 0.917381
Si Si7 0.319188 0.831804 0.577275
O O1 0.250000 0.250000 0.265128
O O2 0.223871 0.167008 0.244499
O O3 0.249850 0.197507 0.365453
O O4 0.000000 0.209051 0.294829
O O5 0.500000 0.049550 0.281572
O O6 0.244681 0.084693 0.246996
O O7 0.265499 0.049926 0.364177
O O8 0.273390 0.000000 0.260083
O O9 0.500000 0.378204 0.795695
O O10 0.747145 0.378928 0.869571
O O11 0.212194 0.938589 0.500000
O O12 0.239327 0.876991 0.583336
O O13 0.000000 0.926002 0.588436
O O14 0.241392 0.457518 0.899328
O O15 0.000000 0.411502 0.915868
O O16 0.223177 0.405168 0.000000
O O17 0.000000 0.000000 0.892223
O O18 0.168278 0.000000 0.000000
O O19 0.294022 0.816843 0.500000
O O20 0.500000 0.836720 0.587397
#
# Coordination Sequence:
#
# PCOD9490122 Si02
#       7
#    16  16  16  16  16   8  16
#     4  11  24  41  63  90 118 152 194 241 297 356
#     4  11  24  39  57  83 116 157 203 247 295 350
#     4  11  24  41  62  88 119 155 195 241 294 351
#     4  10  20  35  56  81 112 152 198 248 299 350
#     4  10  21  37  59  87 120 158 197 239 289 346
#     4   9  17  31  53  83 119 157 196 237 280 331
#     4  10  20  35  58  86 116 152 192 239 296 353
#
# _framework density 18.725360999999999
#
# number of rings (size 3 to 8) (size 9 to 14) (size 15 to 20)
#    0.000    1.615    1.538    3.000    1.077    7.385 
#    0.000    1.538    0.000    0.462    0.000    0.000 
#    0.000    0.000    0.000    0.000    0.000    0.000 
#
# Total GULP energy -290656.319857 kJ/mol
# GULP energy per Si atom -5589.544613 kJ/mol
# Density = 1.868274 g / cm^3
# Si number density = 18.725361 Si / 1000 Ang^3
#
#
#
# Elastic Constant Matrix: (Units=GPa)
#
#
# Indices 1 2 3 4 5 6 
#
# 1 59.6742 47.2897 41.8762 0.0000 0.0000 0.0000
# 2 47.2897 122.4644 64.1446 0.0000 0.0000 0.0000
# 3 41.8762 64.1446 101.2830 0.0000 0.0000 0.0000
# 4 0.0000 0.0000 0.0000 16.4429 0.0000 0.0000
# 5 0.0000 0.0000 0.0000 0.0000 30.2273 0.0000
# 6 0.0000 0.0000 0.0000 0.0000 0.0000 28.2130
#
#
#
# Elastic Compliance Matrix: (Units=1/GPa)
#
#
# Indices 1 2 3 4 5 6 
#
# 1 0.026962 -0.006842 -0.006814 0.000000 0.000000 0.000000
# 2 -0.006842 0.013955 -0.006009 0.000000 0.000000 0.000000
# 3 -0.006814 -0.006009 0.016497 0.000000 0.000000 0.000000
# 4 0.000000 0.000000 0.000000 0.060816 0.000000 0.000000
# 5 0.000000 0.000000 0.000000 0.000000 0.033083 0.000000
# 6 0.000000 0.000000 0.000000 0.000000 0.000000 0.035445
#
#
# Mechanical properties :
#
#
# Convention : Reuss Voigt Hill
#
# Bulk Modulus (GPa) = 55.30285 65.56030 60.43157
# Shear Modulus (GPa) = 21.54097 23.65070 22.59583
#
# Velocity S-wave (km/s) = 3.39538 3.55777 3.47752
# Velocity P-wave (km/s) = 6.70591 7.20864 6.96181
#
# Compressibility (1/GPa) = 0.01808225
#
# Stress axis : x y z
#
# Youngs Moduli (GPa) = 37.08969 71.65771 60.61885
#
# Poissons Ratio (x) = 0.49029 0.41307
# Poissons Ratio (y) = 0.25377 0.36427
# Poissons Ratio (z) = 0.25274 0.43061
#
# Static dielectric constant tensor:
#      x y z
#    x 1.622540 0.000000 0.000000 
#    y 0.000000 1.642850 0.000000 
#    z 0.000000 0.000000 1.673970 
# 
# From -- ./inp_files/60381.got.cif
#   From: 2010.05.17/outbox.cif.g08.bks.cpg/sg65_31_cif.got.tgz:60381.got - 2010.06.03 17:01:31.
