data_PCOD9490894
_publ_section_title
;
Structure prediction by ZEFSAII (Michael W. Deem and Ramdas Pophale) SiO2 
 PCOD9490894
Probable space group: C M M M
;
_chemical_formula_sum "Si O2"
_cell_formula_units_Z 96
_cell_length_a 24.431889
_cell_length_b 8.084447
_cell_length_c 24.140011
_cell_angle_alpha 90.000000
_cell_angle_beta 90.000000
_cell_angle_gamma 90.000000
_cell_volume 4768.094218
_symmetry_space_group_name_H-M "C M M M"
_symmetry_group_IT_number 65
_symmetry_cell_setting 'orthorhombic'
loop_
_space_group_symop_operation_xyz
x,y,z
-x,-y,z
x,-y,-z
-x,y,-z
-x,-y,-z
x,y,-z
-x,y,z
x,-y,z
1/2+x,1/2+y,z
1/2-x,1/2-y,z
1/2+x,1/2-y,-z
1/2-x,1/2+y,-z
1/2-x,1/2-y,-z
1/2+x,1/2+y,-z
1/2-x,1/2+y,z
1/2+x,1/2-y,z
loop_
_atom_site_type_symbol
_atom_site_label
_atom_site_fract_x
_atom_site_fract_y
_atom_site_fract_z
Si Si1 0.500000 0.301462 0.733002
Si Si2 0.382284 0.699643 0.438604
Si Si3 0.000000 0.801629 0.064237
Si Si4 0.500000 0.701722 0.604241
Si Si5 0.187196 0.302685 0.332695
Si Si6 0.313009 0.200116 0.000000
Si Si7 0.381466 0.198724 0.772272
Si Si8 0.881692 0.301035 0.105561
O O1 0.500000 0.500000 0.734519
O O2 0.500000 0.248176 0.668569
O O3 0.444827 0.238616 0.761178
O O4 0.365951 0.757652 0.500000
O O5 0.383615 0.500000 0.439593
O O6 0.443990 0.757096 0.424481
O O7 0.342486 0.749244 0.389095
O O8 0.055256 0.740615 0.093031
O O9 0.000000 0.000000 0.064992
O O10 0.000000 0.745316 0.000000
O O11 0.500000 0.500000 0.602821
O O12 0.184782 0.500000 0.330498
O O13 0.250000 0.250000 0.331594
O O14 0.154247 0.235749 0.279106
O O15 0.250000 0.250000 0.000000
O O16 0.344516 0.261253 0.054942
O O17 0.316184 0.000000 0.000000
O O18 0.365852 0.261624 0.833366
O O19 0.375559 0.000000 0.772847
O O20 0.876806 0.500000 0.106251
#
# Coordination Sequence:
#
# PCOD9490894 Si02
#       8
#     8  16   8   8  16   8  16  16
#     4  11  20  33  59  89 119 152 187 227 280 342
#     4  10  20  37  62  89 117 151 190 232 281 339
#     4  11  22  35  56  89 123 150 185 237 289 332
#     4   9  17  32  57  88 118 147 180 224 276 336
#     4  11  24  41  60  82 113 151 194 241 288 336
#     4  10  22  39  60  83 109 146 192 238 285 336
#     4  10  22  39  59  85 117 151 190 236 282 337
#     4  10  21  39  61  84 113 154 195 228 279 349
#
# _framework density 20.13383
#
# number of rings (size 3 to 8) (size 9 to 14) (size 15 to 20)
#    0.000    1.750    2.500    1.750    0.000    6.667 
#    0.000    0.417    0.000    1.000    0.000    0.000 
#    0.000    0.000    0.000    0.000    0.000    0.000 
#
# Total GULP energy -268189.992781 kJ/mol
# GULP energy per Si atom -5587.291516 kJ/mol
# Density = 2.008800 g / cm^3
# Si number density = 20.133830 Si / 1000 Ang^3
#
#
#
# Elastic Constant Matrix: (Units=GPa)
#
#
# Indices 1 2 3 4 5 6 
#
# 1 159.0616 1.1781 103.0472 0.0000 0.0000 0.0000
# 2 1.1781 13.5485 20.5951 0.0000 0.0000 0.0000
# 3 103.0472 20.5951 227.7469 0.0000 0.0000 0.0000
# 4 0.0000 0.0000 0.0000 18.2462 0.0000 0.0000
# 5 0.0000 0.0000 0.0000 0.0000 -10.5609 0.0000
# 6 0.0000 0.0000 0.0000 0.0000 0.0000 1.3375
#
#
#
# Elastic Compliance Matrix: (Units=1/GPa)
#
#
# Indices 1 2 3 4 5 6 
#
# 1 0.009366 0.006524 -0.004828 0.000000 0.000000 0.000000
# 2 0.006524 0.090117 -0.011101 0.000000 0.000000 0.000000
# 3 -0.004828 -0.011101 0.007579 0.000000 0.000000 0.000000
# 4 0.000000 0.000000 0.000000 0.054806 0.000000 0.000000
# 5 0.000000 0.000000 0.000000 0.000000 -0.094689 0.000000
# 6 0.000000 0.000000 0.000000 0.000000 0.000000 0.747651
#
#
# Mechanical properties :
#
#
# Convention : Reuss Voigt Hill
#
# Bulk Modulus (GPa) = 11.33112 72.22199 41.77655
# Shear Modulus (GPa) = 5.79336 20.17367 12.98351
#
# Velocity S-wave (km/s) = 1.69814 3.16884 2.54217
# Velocity P-wave (km/s) = 3.07977 7.02407 5.42322
#
# Compressibility (1/GPa) = 0.08825256
#
# Stress axis : x y z
#
# Youngs Moduli (GPa) = 106.76598 11.09673 131.94035
#
# Poissons Ratio (x) = -0.07240 0.63700
# Poissons Ratio (y) = -0.69659 1.46471
# Poissons Ratio (z) = 0.51546 0.12319
#
# Static dielectric constant tensor:
#      x y z
#    x 1.618350 0.000000 0.000000 
#    y 0.000000 1.714260 0.000000 
#    z 0.000000 0.000000 1.740870 
# 
# From -- ./inp_files/71494.got.cif
#   From: 2010.05.17/outbox.cif.g08.bks.cpg/sg65_36_cif.got.tgz:71494.got - 2010.06.03 17:01:31.
