data_PCOD9490297
_publ_section_title
;
Structure prediction by ZEFSAII (Michael W. Deem and Ramdas Pophale) SiO2 
 PCOD9490297
Probable space group: C M M M
;
_chemical_formula_sum "Si O2"
_cell_formula_units_Z 120
_cell_length_a 25.364365
_cell_length_b 24.938699
_cell_length_c 10.351622
_cell_angle_alpha 90.000000
_cell_angle_beta 90.000000
_cell_angle_gamma 90.000000
_cell_volume 6547.962636
_symmetry_space_group_name_H-M "C M M M"
_symmetry_group_IT_number 65
_symmetry_cell_setting 'orthorhombic'
loop_
_space_group_symop_operation_xyz
x,y,z
-x,-y,z
x,-y,-z
-x,y,-z
-x,-y,-z
x,y,-z
-x,y,z
x,-y,z
1/2+x,1/2+y,z
1/2-x,1/2-y,z
1/2+x,1/2-y,-z
1/2-x,1/2+y,-z
1/2-x,1/2-y,-z
1/2+x,1/2+y,-z
1/2-x,1/2+y,z
1/2+x,1/2-y,z
loop_
_atom_site_type_symbol
_atom_site_label
_atom_site_fract_x
_atom_site_fract_y
_atom_site_fract_z
Si Si1 0.062919 0.134422 0.742858
Si Si2 0.236008 0.593017 0.153140
Si Si3 0.647419 0.439456 0.150439
Si Si4 0.936957 0.059623 0.500000
Si Si5 0.391861 0.251539 0.345315
Si Si6 0.850531 0.439805 0.650800
Si Si7 0.197178 0.715351 0.854249
Si Si8 0.057276 0.361847 0.654386
O O1 0.100612 0.103988 0.842206
O O2 0.075043 0.095826 0.621817
O O3 0.081933 0.193941 0.706897
O O4 0.000000 0.133720 0.770121
O O5 0.296557 0.584160 0.197561
O O6 0.198530 0.562294 0.252664
O O7 0.216546 0.654415 0.163041
O O8 0.230566 0.577936 0.000000
O O9 0.635971 0.500000 0.203375
O O10 0.656544 0.446733 0.000000
O O11 0.000000 0.053833 0.500000
O O12 0.913830 0.000000 0.500000
O O13 0.380486 0.256421 0.500000
O O14 0.341702 0.235912 0.257453
O O15 0.430681 0.200854 0.328736
O O16 0.836421 0.426982 0.500000
O O17 0.872699 0.500000 0.650591
O O18 0.894186 0.397811 0.699848
O O19 0.250000 0.750000 0.851302
O O20 0.173605 0.720481 0.000000
O O21 0.055666 0.371251 0.500000
O O22 0.000000 0.375773 0.709047
#
# Coordination Sequence:
#
# PCOD9490297 Si02
#       8
#    16  16  16   8  16  16  16  16
#     4  11  22  37  58  85 116 153 196 244 296 350
#     4  10  20  38  62  85 114 155 198 240 295 360
#     4  10  22  40  61  86 116 153 200 248 296 356
#     4   9  18  34  54  76 107 146 187 233 285 342
#     4  11  21  36  59  87 118 153 196 242 289 348
#     4  10  20  35  57  87 120 151 191 242 290 342
#     4  10  21  37  58  84 116 154 192 236 294 354
#     4   9  18  33  55  83 116 153 189 232 285 339
#
# _framework density 18.326311
#
# number of rings (size 3 to 8) (size 9 to 14) (size 15 to 20)
#    0.000    1.933    2.000    2.000    0.000    4.533 
#    1.200    2.000    0.000    2.400    0.000    0.933 
#    0.000    0.000    0.000    0.000    0.000    0.000 
#
# Total GULP energy -334083.337833 kJ/mol
# GULP energy per Si atom -5568.055631 kJ/mol
# Density = 1.828460 g / cm^3
# Si number density = 18.326311 Si / 1000 Ang^3
#
#
#
# Elastic Constant Matrix: (Units=GPa)
#
#
# Indices 1 2 3 4 5 6 
#
# 1 112.0382 54.2835 44.6834 0.0000 0.0000 0.0000
# 2 54.2835 120.6252 33.3889 0.0000 0.0000 0.0000
# 3 44.6834 33.3889 53.9280 0.0000 0.0000 0.0000
# 4 0.0000 0.0000 0.0000 20.3663 0.0000 0.0000
# 5 0.0000 0.0000 0.0000 0.0000 30.3382 0.0000
# 6 0.0000 0.0000 0.0000 0.0000 0.0000 21.0837
#
#
#
# Elastic Compliance Matrix: (Units=1/GPa)
#
#
# Indices 1 2 3 4 5 6 
#
# 1 0.014722 -0.003921 -0.009771 0.000000 0.000000 0.000000
# 2 -0.003921 0.011049 -0.003592 0.000000 0.000000 0.000000
# 3 -0.009771 -0.003592 0.028863 0.000000 0.000000 0.000000
# 4 0.000000 0.000000 0.000000 0.049101 0.000000 0.000000
# 5 0.000000 0.000000 0.000000 0.000000 0.032962 0.000000
# 6 0.000000 0.000000 0.000000 0.000000 0.000000 0.047430
#
#
# Mechanical properties :
#
#
# Convention : Reuss Voigt Hill
#
# Bulk Modulus (GPa) = 49.83398 61.25587 55.54492
# Shear Modulus (GPa) = 22.18449 24.64001 23.41225
#
# Velocity S-wave (km/s) = 3.48304 3.67074 3.57812
# Velocity P-wave (km/s) = 6.58992 7.17380 6.88805
#
# Compressibility (1/GPa) = 0.02006663
#
# Stress axis : x y z
#
# Youngs Moduli (GPa) = 67.92605 90.50760 34.64617
#
# Poissons Ratio (x) = 0.35484 0.33852
# Poissons Ratio (y) = 0.26631 0.12446
# Poissons Ratio (z) = 0.66369 0.32513
#
# Static dielectric constant tensor:
#      x y z
#    x 1.625640 0.000000 0.000000 
#    y 0.000000 1.658660 0.000000 
#    z 0.000000 0.000000 1.695150 
# 
# From -- ./inp_files/29442.got.cif
#   From: 2010.05.17/outbox.cif.g08.bks.cpg/sg65_15_cif.got.tgz:29442.got - 2010.06.03 17:01:31.
