data_PCOD9490909
_publ_section_title
;
Structure prediction by ZEFSAII (Michael W. Deem and Ramdas Pophale) SiO2 
 PCOD9490909
Probable space group: C M M M
;
_chemical_formula_sum "Si O2"
_cell_formula_units_Z 64
_cell_length_a 29.684249
_cell_length_b 10.756445
_cell_length_c 11.243620
_cell_angle_alpha 90.000000
_cell_angle_beta 90.000000
_cell_angle_gamma 90.000000
_cell_volume 3590.054042
_symmetry_space_group_name_H-M "C M M M"
_symmetry_group_IT_number 65
_symmetry_cell_setting 'orthorhombic'
loop_
_space_group_symop_operation_xyz
x,y,z
-x,-y,z
x,-y,-z
-x,y,-z
-x,-y,-z
x,y,-z
-x,y,z
x,-y,z
1/2+x,1/2+y,z
1/2-x,1/2-y,z
1/2+x,1/2-y,-z
1/2-x,1/2+y,-z
1/2-x,1/2-y,-z
1/2+x,1/2+y,-z
1/2-x,1/2+y,z
1/2+x,1/2-y,z
loop_
_atom_site_type_symbol
_atom_site_label
_atom_site_fract_x
_atom_site_fract_y
_atom_site_fract_z
Si Si1 0.182994 0.354927 0.500000
Si Si2 0.108782 0.730576 0.000000
Si Si3 0.262435 0.500000 0.823951
Si Si4 0.321187 0.000000 0.000000
Si Si5 0.655133 0.500000 0.000000
Si Si6 0.924318 0.645019 0.500000
Si Si7 0.446814 0.147303 0.768041
Si Si8 0.750000 0.750000 0.314982
O O1 0.196223 0.500000 0.500000
O O2 0.129631 0.348720 0.500000
O O3 0.206431 0.288178 0.390330
O O4 0.080442 0.708068 0.122305
O O5 0.147859 0.623735 0.000000
O O6 0.127407 0.871393 0.000000
O O7 0.214532 0.500000 0.892533
O O8 0.309165 0.500000 0.893539
O O9 0.262313 0.628183 0.755440
O O10 0.939474 0.500000 0.500000
O O11 0.939038 0.694047 0.631114
O O12 0.500000 0.157239 0.792576
O O13 0.434298 0.000000 0.767950
#
# Coordination Sequence:
#
# PCOD9490909 Si02
#       8
#     8   8   8   4   4   8  16   8
#     4  10  21  35  54  92 119 159 205 247 298 360
#     4  12  23  40  66  93 121 163 207 256 303 372
#     4  11  24  41  60  84 122 163 200 259 302 359
#     4  11  24  38  65  90 114 152 213 256 308 347
#     4  11  28  42  55  90 126 162 207 248 312 367
#     4   9  20  33  59  91 126 160 195 249 311 372
#     4  10  20  37  62  96 126 156 199 259 314 362
#     4  11  22  37  62  82 122 161 206 253 302 355
#
# _framework density 17.827031000000002
#
# number of rings (size 3 to 8) (size 9 to 14) (size 15 to 20)
#    0.000    1.500    2.500    2.250    7.000    4.500 
#    0.000    1.250    0.000    0.750    0.000    1.750 
#    0.000    0.000    0.000    0.000    0.000    0.000 
#
# Total GULP energy -178286.768941 kJ/mol
# GULP energy per Si atom -5571.461529 kJ/mol
# Density = 1.778646 g / cm^3
# Si number density = 17.827031 Si / 1000 Ang^3
#
#
#
# Elastic Constant Matrix: (Units=GPa)
#
#
# Indices 1 2 3 4 5 6 
#
# 1 94.4667 58.1046 66.8044 0.0000 0.0000 0.0000
# 2 58.1046 143.3870 78.9041 0.0000 0.0000 0.0000
# 3 66.8044 78.9041 151.6870 0.0000 0.0000 0.0000
# 4 0.0000 0.0000 0.0000 53.8316 0.0000 0.0000
# 5 0.0000 0.0000 0.0000 0.0000 83.5667 0.0000
# 6 0.0000 0.0000 0.0000 0.0000 0.0000 -27.0289
#
#
#
# Elastic Compliance Matrix: (Units=1/GPa)
#
#
# Indices 1 2 3 4 5 6 
#
# 1 0.016746 -0.003821 -0.005387 0.000000 0.000000 0.000000
# 2 -0.003821 0.010643 -0.003853 0.000000 0.000000 0.000000
# 3 -0.005387 -0.003853 0.010970 0.000000 0.000000 0.000000
# 4 0.000000 0.000000 0.000000 0.018576 0.000000 0.000000
# 5 0.000000 0.000000 0.000000 0.000000 0.011966 0.000000
# 6 0.000000 0.000000 0.000000 0.000000 0.000000 -0.036997
#
#
# Mechanical properties :
#
#
# Convention : Reuss Voigt Hill
#
# Bulk Modulus (GPa) = 81.73533 88.57411 85.15472
# Shear Modulus (GPa) = 80.50706 34.45570 57.48138
#
# Velocity S-wave (km/s) = 6.72742 4.40111 5.68454
# Velocity P-wave (km/s) = 10.30984 8.69595 9.53709
#
# Compressibility (1/GPa) = 0.01223461
#
# Stress axis : x y z
#
# Youngs Moduli (GPa) = 59.71592 93.95750 91.16157
#
# Poissons Ratio (x) = 0.35905 0.49111
# Poissons Ratio (y) = 0.22820 0.35127
# Poissons Ratio (z) = 0.32171 0.36205
#
# Static dielectric constant tensor:
#      x y z
#    x 1.583590 0.000000 0.000000 
#    y 0.000000 1.557320 0.000000 
#    z 0.000000 0.000000 1.679240 
# 
# From -- ./inp_files/33338.got.cif
#   From: 2010.05.17/outbox.cif.g08.bks.cpg/sg65_17_cif.got.tgz:33338.got - 2010.06.03 17:01:31.
