data_PCOD9490503
_publ_section_title
;
Structure prediction by ZEFSAII (Michael W. Deem and Ramdas Pophale) SiO2 
 PCOD9490503
Probable space group: C M M M
;
_chemical_formula_sum "Si O2"
_cell_formula_units_Z 88
_cell_length_a 18.208095
_cell_length_b 35.666112
_cell_length_c 7.887871
_cell_angle_alpha 90.000000
_cell_angle_beta 90.000000
_cell_angle_gamma 90.000000
_cell_volume 5122.477731
_symmetry_space_group_name_H-M "C M M M"
_symmetry_group_IT_number 65
_symmetry_cell_setting 'orthorhombic'
loop_
_space_group_symop_operation_xyz
x,y,z
-x,-y,z
x,-y,-z
-x,y,-z
-x,-y,-z
x,y,-z
-x,y,z
x,-y,z
1/2+x,1/2+y,z
1/2-x,1/2-y,z
1/2+x,1/2-y,-z
1/2-x,1/2+y,-z
1/2-x,1/2-y,-z
1/2+x,1/2+y,-z
1/2-x,1/2+y,z
1/2+x,1/2-y,z
loop_
_atom_site_type_symbol
_atom_site_label
_atom_site_fract_x
_atom_site_fract_y
_atom_site_fract_z
Si Si1 0.761728 0.705823 0.500000
Si Si2 0.000000 0.043011 0.707384
Si Si3 0.375834 0.883186 0.812298
Si Si4 0.350018 0.582186 0.705437
Si Si5 0.079634 0.666174 0.500000
Si Si6 0.716747 0.342638 0.812771
Si Si7 0.802579 0.542875 0.294570
O O1 0.750000 0.750000 0.500000
O O2 0.847827 0.692618 0.500000
O O3 0.723830 0.687469 0.335170
O O4 0.074348 0.063502 0.761360
O O5 0.000000 0.043085 0.500000
O O6 0.000000 0.000000 0.762317
O O7 0.415642 0.861049 0.663122
O O8 0.294900 0.864276 0.812973
O O9 0.360735 0.926800 0.772471
O O10 0.407711 0.878690 0.000000
O O11 0.348906 0.583789 0.500000
O O12 0.340197 0.624240 0.772383
O O13 0.278822 0.557505 0.755822
O O14 0.000000 0.685664 0.500000
O O15 0.704227 0.326724 0.000000
O O16 0.805196 0.544066 0.500000
O O17 0.814020 0.500000 0.240504
#
# Coordination Sequence:
#
# PCOD9490503 Si02
#       7
#     8   8  16  16   8  16  16
#     4  10  20  36  60  85 108 129 158 199 245 304
#     4   9  16  24  39  67 101 140 189 235 274 309
#     4   9  17  30  49  74 100 131 169 207 245 292
#     4   9  15  26  43  65  98 136 180 223 264 307
#     4  10  20  36  57  80 106 130 159 198 244 293
#     4   9  17  31  52  76 101 130 167 208 250 298
#     4   9  15  24  42  67  96 131 172 222 268 300
#
# _framework density 17.179186000000001
#
# number of rings (size 3 to 8) (size 9 to 14) (size 15 to 20)
#    0.000    2.818    1.818    0.545    0.000    3.273 
#    0.000    0.455    2.000    3.273    0.000    1.273 
#    0.000    0.000    0.000    0.000    0.000    0.000 
#
# Total GULP energy -245186.801710 kJ/mol
# GULP energy per Si atom -5572.427312 kJ/mol
# Density = 1.714009 g / cm^3
# Si number density = 17.179186 Si / 1000 Ang^3
#
#
#
# Elastic Constant Matrix: (Units=GPa)
#
#
# Indices 1 2 3 4 5 6 
#
# 1 70.6965 33.9890 22.8474 0.0000 0.0000 0.0000
# 2 33.9890 134.0777 56.7156 0.0000 0.0000 0.0000
# 3 22.8474 56.7156 95.2090 0.0000 0.0000 0.0000
# 4 0.0000 0.0000 0.0000 -1.0728 0.0000 0.0000
# 5 0.0000 0.0000 0.0000 0.0000 -6.4041 0.0000
# 6 0.0000 0.0000 0.0000 0.0000 0.0000 13.9905
#
#
#
# Elastic Compliance Matrix: (Units=1/GPa)
#
#
# Indices 1 2 3 4 5 6 
#
# 1 0.016374 -0.003327 -0.001947 0.000000 0.000000 0.000000
# 2 -0.003327 0.010647 -0.005544 0.000000 0.000000 0.000000
# 3 -0.001947 -0.005544 0.014273 0.000000 0.000000 0.000000
# 4 0.000000 0.000000 0.000000 -0.932140 0.000000 0.000000
# 5 0.000000 0.000000 0.000000 0.000000 -0.156149 0.000000
# 6 0.000000 0.000000 0.000000 0.000000 0.000000 0.071477
#
#
# Mechanical properties :
#
#
# Convention : Reuss Voigt Hill
#
# Bulk Modulus (GPa) = 50.87213 58.56526 54.71869
# Shear Modulus (GPa) = -5.27800 13.73146 4.22673
#
# Velocity S-wave (km/s) = -1.75471 2.83027 1.57026
# Velocity P-wave (km/s) = 5.05684 6.69667 5.93368
#
# Compressibility (1/GPa) = 0.01965713
#
# Stress axis : x y z
#
# Youngs Moduli (GPa) = 61.07288 93.92409 70.06241
#
# Poissons Ratio (x) = 0.31249 0.13643
# Poissons Ratio (y) = 0.20320 0.38842
# Poissons Ratio (z) = 0.11893 0.52071
#
# Static dielectric constant tensor:
#      x y z
#    x 1.579850 0.000000 0.000000 
#    y 0.000000 1.546320 0.000000 
#    z 0.000000 0.000000 1.624000 
# 
# From -- ./inp_files/10173.got.cif
#   From: 2010.05.17/outbox.cif.g08.bks.cpg/sg65_6_cif.got.tgz:10173.got - 2010.06.03 17:01:31.
