data_PCOD9490859
_publ_section_title
;
Structure prediction by ZEFSAII (Michael W. Deem and Ramdas Pophale) SiO2 
 PCOD9490859
Probable space group: C M M M
;
_chemical_formula_sum "Si O2"
_cell_formula_units_Z 72
_cell_length_a 8.688883
_cell_length_b 16.096705
_cell_length_c 26.677380
_cell_angle_alpha 90.000000
_cell_angle_beta 90.000000
_cell_angle_gamma 90.000000
_cell_volume 3731.162031
_symmetry_space_group_name_H-M "C M M M"
_symmetry_group_IT_number 65
_symmetry_cell_setting 'orthorhombic'
loop_
_space_group_symop_operation_xyz
x,y,z
-x,-y,z
x,-y,-z
-x,y,-z
-x,-y,-z
x,y,-z
-x,y,z
x,-y,z
1/2+x,1/2+y,z
1/2-x,1/2-y,z
1/2+x,1/2-y,-z
1/2-x,1/2+y,-z
1/2-x,1/2-y,-z
1/2+x,1/2+y,-z
1/2-x,1/2+y,z
1/2+x,1/2-y,z
loop_
_atom_site_type_symbol
_atom_site_label
_atom_site_fract_x
_atom_site_fract_y
_atom_site_fract_z
Si Si1 0.684909 0.500000 0.763198
Si Si2 0.812479 0.000000 0.120411
Si Si3 0.685602 0.342372 0.500000
Si Si4 0.685685 0.339249 0.941638
Si Si5 0.316917 0.597214 0.390973
Si Si6 0.817965 0.662082 0.708368
O O1 0.500000 0.500000 0.759434
O O2 0.731349 0.500000 0.821525
O O3 0.747007 0.583087 0.736893
O O4 0.761372 0.083238 0.091715
O O5 0.000000 0.000000 0.118563
O O6 0.500000 0.341642 0.500000
O O7 0.750000 0.250000 0.500000
O O8 0.732328 0.385601 0.448065
O O9 0.500000 0.336206 0.939703
O O10 0.750000 0.250000 0.925280
O O11 0.729931 0.351978 0.000000
O O12 0.500000 0.615408 0.386615
O O13 0.295581 0.500000 0.379842
O O14 0.226690 0.649692 0.349984
O O15 0.750000 0.750000 0.725913
O O16 0.000000 0.662112 0.714240
#
# Coordination Sequence:
#
# PCOD9490859 Si02
#       6
#     8   8   8  16  16  16
#     4  11  23  42  63  87 119 154 198 253 305 354
#     4   9  19  35  58  84 113 153 196 237 288 348
#     4  10  21  35  53  83 117 154 192 232 284 349
#     4   9  17  32  55  84 118 155 194 235 281 338
#     4  10  20  37  61  86 117 153 192 238 292 351
#     4  12  25  42  64  89 117 154 200 247 300 359
#
# _framework density 19.296938000000001
#
# number of rings (size 3 to 8) (size 9 to 14) (size 15 to 20)
#    0.000    1.778    1.111    3.667    0.000    6.222 
#    0.000    5.000    0.000    4.667    0.000    0.000 
#    0.000    0.000    0.000    0.000    0.000    0.000 
#
# Total GULP energy -201132.242072 kJ/mol
# GULP energy per Si atom -5587.006724 kJ/mol
# Density = 1.925302 g / cm^3
# Si number density = 19.296938 Si / 1000 Ang^3
#
#
#
# Elastic Constant Matrix: (Units=GPa)
#
#
# Indices 1 2 3 4 5 6 
#
# 1 57.2609 54.7791 35.0234 0.0000 0.0000 0.0000
# 2 54.7791 171.5021 87.7792 0.0000 0.0000 0.0000
# 3 35.0234 87.7792 117.4055 0.0000 0.0000 0.0000
# 4 0.0000 0.0000 0.0000 6.6026 0.0000 0.0000
# 5 0.0000 0.0000 0.0000 0.0000 15.4908 0.0000
# 6 0.0000 0.0000 0.0000 0.0000 0.0000 33.9564
#
#
#
# Elastic Compliance Matrix: (Units=1/GPa)
#
#
# Indices 1 2 3 4 5 6 
#
# 1 0.025582 -0.006909 -0.002466 0.000000 0.000000 0.000000
# 2 -0.006909 0.011311 -0.006396 0.000000 0.000000 0.000000
# 3 -0.002466 -0.006396 0.014035 0.000000 0.000000 0.000000
# 4 0.000000 0.000000 0.000000 0.151455 0.000000 0.000000
# 5 0.000000 0.000000 0.000000 0.000000 0.064554 0.000000
# 6 0.000000 0.000000 0.000000 0.000000 0.000000 0.029450
#
#
# Mechanical properties :
#
#
# Convention : Reuss Voigt Hill
#
# Bulk Modulus (GPa) = 51.58202 77.92580 64.75391
# Shear Modulus (GPa) = 14.95259 22.44908 18.70083
#
# Velocity S-wave (km/s) = 2.78667 3.41449 3.11643
# Velocity P-wave (km/s) = 6.09448 7.48433 6.82488
#
# Compressibility (1/GPa) = 0.01938660
#
# Stress axis : x y z
#
# Youngs Moduli (GPa) = 39.09062 88.40818 71.25044
#
# Poissons Ratio (x) = 0.61080 0.17569
# Poissons Ratio (y) = 0.27007 0.45571
# Poissons Ratio (z) = 0.09639 0.56545
#
# Static dielectric constant tensor:
#      x y z
#    x 1.654240 0.000000 0.000000 
#    y 0.000000 1.652360 0.000000 
#    z 0.000000 0.000000 1.678300 
# 
# From -- ./inp_files/72612.got.cif
#   From: 2010.05.17/outbox.cif.g08.bks.cpg/sg65_37_cif.got.tgz:72612.got - 2010.06.03 17:01:31.
