data_PCOD9490204
_publ_section_title
;
Structure prediction by ZEFSAII (Michael W. Deem and Ramdas Pophale) SiO2 
 PCOD9490204
Probable space group: C M M M
;
_chemical_formula_sum "Si O2"
_cell_formula_units_Z 88
_cell_length_a 8.004317
_cell_length_b 30.710709
_cell_length_c 17.897463
_cell_angle_alpha 90.000000
_cell_angle_beta 90.000000
_cell_angle_gamma 90.000000
_cell_volume 4399.523036
_symmetry_space_group_name_H-M "C M M M"
_symmetry_group_IT_number 65
_symmetry_cell_setting 'orthorhombic'
loop_
_space_group_symop_operation_xyz
x,y,z
-x,-y,z
x,-y,-z
-x,y,-z
-x,-y,-z
x,y,-z
-x,y,z
x,-y,z
1/2+x,1/2+y,z
1/2-x,1/2-y,z
1/2+x,1/2-y,-z
1/2-x,1/2+y,-z
1/2-x,1/2-y,-z
1/2+x,1/2+y,-z
1/2-x,1/2+y,z
1/2+x,1/2-y,z
loop_
_atom_site_type_symbol
_atom_site_label
_atom_site_fract_x
_atom_site_fract_y
_atom_site_fract_z
Si Si1 0.794604 0.449342 0.000000
Si Si2 0.699845 0.798074 0.187652
Si Si3 0.803813 0.664149 0.342563
Si Si4 0.802059 0.393910 0.858339
Si Si5 0.795193 0.000000 0.586679
Si Si6 0.690180 0.572787 0.298404
Si Si7 0.800797 0.200269 0.500000
O O1 0.737320 0.422227 0.927396
O O2 0.742187 0.500000 0.000000
O O3 0.000000 0.449937 0.000000
O O4 0.500000 0.799347 0.181790
O O5 0.750000 0.750000 0.159970
O O6 0.744772 0.803170 0.275606
O O7 0.763607 0.843890 0.151301
O O8 0.698550 0.620788 0.332193
O O9 0.774590 0.681060 0.424711
O O10 0.000000 0.653651 0.331073
O O11 0.776486 0.420890 0.781725
O O12 0.000000 0.389170 0.869757
O O13 0.741268 0.959172 0.637790
O O14 0.738308 0.000000 0.500000
O O15 0.000000 0.000000 0.583014
O O16 0.500000 0.559207 0.283562
O O17 0.750000 0.250000 0.500000
O O18 0.000000 0.194632 0.500000
#
# Coordination Sequence:
#
# PCOD9490204 Si02
#       7
#     8  16  16  16   8  16   8
#     4   9  18  34  60  87 109 145 191 231 280 343
#     4   9  18  32  52  76 106 142 177 221 271 324
#     4  10  21  37  54  76 107 141 184 238 286 329
#     4   9  19  36  56  83 115 143 182 235 283 330
#     4   9  20  36  53  76 109 146 187 230 274 336
#     4  10  20  35  57  81 108 147 187 226 281 344
#     4  12  24  36  52  77 108 145 186 232 285 340
#
# _framework density 20.002168000000001
#
# number of rings (size 3 to 8) (size 9 to 14) (size 15 to 20)
#    0.000    2.364    0.000    3.545    2.545    5.091 
#    0.000    2.273    0.000    2.727    0.000    0.000 
#    0.000    0.000    0.000    0.000    0.000    0.000 
#
# Total GULP energy -245195.585093 kJ/mol
# GULP energy per Si atom -5572.626934 kJ/mol
# Density = 1.995664 g / cm^3
# Si number density = 20.002168 Si / 1000 Ang^3
#
#
#
# Elastic Constant Matrix: (Units=GPa)
#
#
# Indices 1 2 3 4 5 6 
#
# 1 24.4262 8.6149 -3.1750 0.0000 0.0000 0.0000
# 2 8.6149 146.7563 92.7933 0.0000 0.0000 0.0000
# 3 -3.1750 92.7933 151.2526 0.0000 0.0000 0.0000
# 4 0.0000 0.0000 0.0000 19.4486 0.0000 0.0000
# 5 0.0000 0.0000 0.0000 0.0000 11.9277 0.0000
# 6 0.0000 0.0000 0.0000 0.0000 0.0000 14.6451
#
#
#
# Elastic Compliance Matrix: (Units=1/GPa)
#
#
# Indices 1 2 3 4 5 6 
#
# 1 0.043257 -0.005087 0.004029 0.000000 0.000000 0.000000
# 2 -0.005087 0.011731 -0.007303 0.000000 0.000000 0.000000
# 3 0.004029 -0.007303 0.011177 0.000000 0.000000 0.000000
# 4 0.000000 0.000000 0.000000 0.051418 0.000000 0.000000
# 5 0.000000 0.000000 0.000000 0.000000 0.083838 0.000000
# 6 0.000000 0.000000 0.000000 0.000000 0.000000 0.068282
#
#
# Mechanical properties :
#
#
# Convention : Reuss Voigt Hill
#
# Bulk Modulus (GPa) = 20.22584 57.65571 38.94077
# Shear Modulus (GPa) = 16.50676 24.15106 20.32891
#
# Velocity S-wave (km/s) = 2.87583 3.47857 3.19146
# Velocity P-wave (km/s) = 4.60011 6.70979 5.75249
#
# Compressibility (1/GPa) = 0.04944170
#
# Stress axis : x y z
#
# Youngs Moduli (GPa) = 23.11752 85.24751 89.47195
#
# Poissons Ratio (x) = 0.43362 -0.36045
# Poissons Ratio (y) = 0.11759 0.65345
# Poissons Ratio (z) = -0.09313 0.62260
#
# Static dielectric constant tensor:
#      x y z
#    x 1.737590 0.000000 0.000000 
#    y 0.000000 1.714020 0.000000 
#    z 0.000000 0.000000 1.676990 
# 
# From -- ./inp_files/50551.got.cif
#   From: 2010.05.17/outbox.cif.g08.bks.cpg/sg65_26_cif.got.tgz:50551.got - 2010.06.03 17:01:31.
