data_PCOD9490409
_publ_section_title
;
Structure prediction by ZEFSAII (Michael W. Deem and Ramdas Pophale) SiO2 
 PCOD9490409
Probable space group: C M M M
;
_chemical_formula_sum "Si O2"
_cell_formula_units_Z 104
_cell_length_a 8.692406
_cell_length_b 22.187065
_cell_length_c 28.212408
_cell_angle_alpha 90.000000
_cell_angle_beta 90.000000
_cell_angle_gamma 90.000000
_cell_volume 5441.016144
_symmetry_space_group_name_H-M "C M M M"
_symmetry_group_IT_number 65
_symmetry_cell_setting 'orthorhombic'
loop_
_space_group_symop_operation_xyz
x,y,z
-x,-y,z
x,-y,-z
-x,y,-z
-x,-y,-z
x,y,-z
-x,y,z
x,-y,z
1/2+x,1/2+y,z
1/2-x,1/2-y,z
1/2+x,1/2-y,-z
1/2-x,1/2+y,-z
1/2-x,1/2-y,-z
1/2+x,1/2+y,-z
1/2-x,1/2+y,z
1/2+x,1/2-y,z
loop_
_atom_site_type_symbol
_atom_site_label
_atom_site_fract_x
_atom_site_fract_y
_atom_site_fract_z
Si Si1 0.184696 0.929098 0.170567
Si Si2 0.816579 0.628117 0.448620
Si Si3 0.682586 0.684393 0.647225
Si Si4 0.834201 0.500000 0.659195
Si Si5 0.178187 0.000000 0.433992
Si Si6 0.815617 0.683147 0.000000
Si Si7 0.675640 0.888534 0.269963
Si Si8 0.813848 0.319564 0.105884
O O1 0.236953 0.911567 0.223666
O O2 0.253222 0.874076 0.138931
O O3 0.000000 0.927591 0.166650
O O4 0.232436 0.000000 0.160795
O O5 0.770325 0.656165 0.500000
O O6 0.742498 0.650574 0.399775
O O7 0.764554 0.559162 0.450632
O O8 0.000000 0.633882 0.444518
O O9 0.500000 0.682447 0.647059
O O10 0.750000 0.750000 0.641366
O O11 0.742002 0.661257 0.698153
O O12 0.696132 0.500000 0.622895
O O13 0.830990 0.443223 0.693065
O O14 0.000000 0.500000 0.632955
O O15 0.000000 0.000000 0.447006
O O16 0.750000 0.750000 0.000000
O O17 0.769879 0.659930 0.051966
O O18 0.000000 0.683947 0.000000
O O19 0.500000 0.871145 0.257415
O O20 0.750000 0.250000 0.113882
O O21 0.000000 0.315833 0.109674
#
# Coordination Sequence:
#
# PCOD9490409 Si02
#       8
#    16  16  16   8   8   8  16  16
#     4  11  24  40  60  90 129 168 211 260 312 370
#     4  11  24  42  63  87 118 155 193 237 291 350
#     4  12  26  44  65  89 118 152 194 242 293 353
#     4  10  20  35  61  88 116 148 187 232 285 350
#     4  12  23  35  60  93 124 152 189 239 291 346
#     4   8  16  32  57  88 119 159 209 263 313 370
#     4  11  22  40  65  90 117 153 195 239 293 355
#     4  10  20  37  62  91 125 164 212 263 318 375
#
# _framework density 19.114076000000001
#
# number of rings (size 3 to 8) (size 9 to 14) (size 15 to 20)
#    0.000    1.231    2.308    4.154    0.000    5.231 
#    0.000    3.462    0.000    2.308    0.000    0.000 
#    0.000    0.000    0.000    0.000    0.000    0.000 
#
# Total GULP energy -289854.924245 kJ/mol
# GULP energy per Si atom -5574.133159 kJ/mol
# Density = 1.907057 g / cm^3
# Si number density = 19.114076 Si / 1000 Ang^3
#
#
#
# Elastic Constant Matrix: (Units=GPa)
#
#
# Indices 1 2 3 4 5 6 
#
# 1 88.3703 37.6104 37.2171 0.0000 0.0000 0.0000
# 2 37.6104 116.5985 59.5975 0.0000 0.0000 0.0000
# 3 37.2171 59.5975 126.8953 0.0000 0.0000 0.0000
# 4 0.0000 0.0000 0.0000 -259.9843 0.0000 0.0000
# 5 0.0000 0.0000 0.0000 0.0000 11.6180 0.0000
# 6 0.0000 0.0000 0.0000 0.0000 0.0000 27.3090
#
#
#
# Elastic Compliance Matrix: (Units=1/GPa)
#
#
# Indices 1 2 3 4 5 6 
#
# 1 0.013721 -0.003117 -0.002560 0.000000 0.000000 0.000000
# 2 -0.003117 0.011994 -0.004719 0.000000 0.000000 0.000000
# 3 -0.002560 -0.004719 0.010848 0.000000 0.000000 0.000000
# 4 0.000000 0.000000 0.000000 -0.003846 0.000000 0.000000
# 5 0.000000 0.000000 0.000000 0.000000 0.086073 0.000000
# 6 0.000000 0.000000 0.000000 0.000000 0.000000 0.036618
#
#
# Mechanical properties :
#
#
# Convention : Reuss Voigt Hill
#
# Bulk Modulus (GPa) = 63.41151 66.74601 65.07876
# Shear Modulus (GPa) = 27.55486 -31.04887 -1.74700
#
# Velocity S-wave (km/s) = 3.80096 -4.03475 -0.95706
# Velocity P-wave (km/s) = 7.24641 3.64554 5.73587
#
# Compressibility (1/GPa) = 0.01577001
#
# Stress axis : x y z
#
# Youngs Moduli (GPa) = 72.88126 83.37576 92.18629
#
# Poissons Ratio (x) = 0.25991 0.23601
# Poissons Ratio (y) = 0.22719 0.43501
# Poissons Ratio (z) = 0.18659 0.39343
#
# Static dielectric constant tensor:
#      x y z
#    x 1.671720 0.000000 0.000000 
#    y 0.000000 -65.885440 0.000000 
#    z 0.000000 0.000000 1.696340 
# 
# From -- ./inp_files/73379.got.cif
#   From: 2010.05.17/outbox.cif.g08.bks.cpg/sg65_37_cif.got.tgz:73379.got - 2010.06.03 17:01:31.
