data_PCOD9490197
_publ_section_title
;
Structure prediction by ZEFSAII (Michael W. Deem and Ramdas Pophale) SiO2 
 PCOD9490197
Probable space group: C M M M
;
_chemical_formula_sum "Si O2"
_cell_formula_units_Z 88
_cell_length_a 19.255920
_cell_length_b 8.223463
_cell_length_c 30.004395
_cell_angle_alpha 90.000000
_cell_angle_beta 90.000000
_cell_angle_gamma 90.000000
_cell_volume 4751.206319
_symmetry_space_group_name_H-M "C M M M"
_symmetry_group_IT_number 65
_symmetry_cell_setting 'orthorhombic'
loop_
_space_group_symop_operation_xyz
x,y,z
-x,-y,z
x,-y,-z
-x,y,-z
-x,-y,-z
x,y,-z
-x,y,z
x,-y,z
1/2+x,1/2+y,z
1/2-x,1/2-y,z
1/2+x,1/2-y,-z
1/2-x,1/2+y,-z
1/2-x,1/2-y,-z
1/2+x,1/2+y,-z
1/2-x,1/2+y,z
1/2+x,1/2-y,z
loop_
_atom_site_type_symbol
_atom_site_label
_atom_site_fract_x
_atom_site_fract_y
_atom_site_fract_z
Si Si1 0.672676 0.809355 0.786674
Si Si2 0.420111 0.693581 0.867498
Si Si3 0.083432 0.683967 0.608515
Si Si4 0.171681 0.304994 0.051082
Si Si5 0.670518 0.309072 0.689297
Si Si6 0.415591 0.500000 0.448892
O O1 0.823509 0.500000 0.776970
O O2 0.750000 0.750000 0.799078
O O3 0.621087 0.774933 0.826971
O O4 0.651576 0.721421 0.740873
O O5 0.500000 0.747312 0.868874
O O6 0.418135 0.500000 0.860626
O O7 0.381540 0.734163 0.913475
O O8 0.098966 0.500000 0.592197
O O9 0.121494 0.713488 0.655354
O O10 0.000000 0.694733 0.614067
O O11 0.105033 0.833683 0.576458
O O12 0.168873 0.500000 0.052953
O O13 0.250000 0.250000 0.062103
O O14 0.157443 0.253248 0.000000
O O15 0.665978 0.500000 0.679478
O O16 0.750000 0.250000 0.684246
O O17 0.500000 0.500000 0.449338
O O18 0.391637 0.500000 0.500000
#
# Coordination Sequence:
#
# PCOD9490197 Si02
#       6
#    16  16  16  16  16   8
#     4  11  22  38  59  82 111 145 188 232 276 336
#     4  11  24  40  57  80 112 149 185 226 282 336
#     4  10  20  35  56  85 117 151 194 240 290 344
#     4  10  21  38  61  86 111 142 183 229 276 330
#     4  11  21  36  58  85 115 150 192 235 286 342
#     4   9  18  34  56  84 116 152 195 241 290 342
#
# _framework density 18.521612999999999
#
# number of rings (size 3 to 8) (size 9 to 14) (size 15 to 20)
#    0.000    1.545    0.909    6.000    0.000    4.000 
#    0.000    3.636    0.000    0.545    0.000    0.000 
#    0.000    0.000    0.000    0.000    0.000    0.000 
#
# Total GULP energy -245796.569702 kJ/mol
# GULP energy per Si atom -5586.285675 kJ/mol
# Density = 1.847946 g / cm^3
# Si number density = 18.521613 Si / 1000 Ang^3
#
#
#
# Elastic Constant Matrix: (Units=GPa)
#
#
# Indices 1 2 3 4 5 6 
#
# 1 60.9624 22.9804 58.2780 0.0000 0.0000 0.0000
# 2 22.9804 105.3063 27.0049 0.0000 0.0000 0.0000
# 3 58.2780 27.0049 100.1898 0.0000 0.0000 0.0000
# 4 0.0000 0.0000 0.0000 22.6254 0.0000 0.0000
# 5 0.0000 0.0000 0.0000 0.0000 24.2279 0.0000
# 6 0.0000 0.0000 0.0000 0.0000 0.0000 23.9302
#
#
#
# Elastic Compliance Matrix: (Units=1/GPa)
#
#
# Indices 1 2 3 4 5 6 
#
# 1 0.037702 -0.002797 -0.021176 0.000000 0.000000 0.000000
# 2 -0.002797 0.010409 -0.001179 0.000000 0.000000 0.000000
# 3 -0.021176 -0.001179 0.022616 0.000000 0.000000 0.000000
# 4 0.000000 0.000000 0.000000 0.044198 0.000000 0.000000
# 5 0.000000 0.000000 0.000000 0.000000 0.041275 0.000000
# 6 0.000000 0.000000 0.000000 0.000000 0.000000 0.041788
#
#
# Mechanical properties :
#
#
# Convention : Reuss Voigt Hill
#
# Bulk Modulus (GPa) = 48.96395 53.66500 51.31448
# Shear Modulus (GPa) = 19.60020 24.70304 22.15162
#
# Velocity S-wave (km/s) = 3.25658 3.65600 3.46206
# Velocity P-wave (km/s) = 6.37447 6.84536 6.61411
#
# Compressibility (1/GPa) = 0.02042319
#
# Stress axis : x y z
#
# Youngs Moduli (GPa) = 26.52400 96.07328 44.21553
#
# Poissons Ratio (x) = 0.26871 0.93632
# Poissons Ratio (y) = 0.07419 0.05211
# Poissons Ratio (z) = 0.56168 0.11324
#
# Static dielectric constant tensor:
#      x y z
#    x 1.611270 0.000000 0.000000 
#    y 0.000000 1.654670 0.000000 
#    z 0.000000 0.000000 1.615250 
# 
# From -- ./inp_files/77786.got.cif
#   From: 2010.05.17/outbox.cif.g08.bks.cpg/sg65_39_cif.got.tgz:77786.got - 2010.06.03 17:01:31.
