data_PCOD9490124
_publ_section_title
;
Structure prediction by ZEFSAII (Michael W. Deem and Ramdas Pophale) SiO2 
 PCOD9490124
Probable space group: C M M M
;
_chemical_formula_sum "Si O2"
_cell_formula_units_Z 72
_cell_length_a 32.591323
_cell_length_b 14.905171
_cell_length_c 7.387610
_cell_angle_alpha 90.000000
_cell_angle_beta 90.000000
_cell_angle_gamma 90.000000
_cell_volume 3588.747589
_symmetry_space_group_name_H-M "C M M M"
_symmetry_group_IT_number 65
_symmetry_cell_setting 'orthorhombic'
loop_
_space_group_symop_operation_xyz
x,y,z
-x,-y,z
x,-y,-z
-x,y,-z
-x,-y,-z
x,y,-z
-x,y,z
x,-y,z
1/2+x,1/2+y,z
1/2-x,1/2-y,z
1/2+x,1/2-y,-z
1/2-x,1/2+y,-z
1/2-x,1/2-y,-z
1/2+x,1/2+y,-z
1/2-x,1/2+y,z
1/2+x,1/2-y,z
loop_
_atom_site_type_symbol
_atom_site_label
_atom_site_fract_x
_atom_site_fract_y
_atom_site_fract_z
Si Si1 0.621888 0.396131 0.216781
Si Si2 0.921590 0.278927 0.780513
Si Si3 0.652611 0.099153 0.209097
Si Si4 0.000000 0.394911 0.221498
Si Si5 0.190837 0.155839 0.500000
Si Si6 0.716789 0.135119 0.500000
O O1 0.611872 0.500000 0.255314
O O2 0.586079 0.325012 0.267497
O O3 0.662559 0.369312 0.328427
O O4 0.628878 0.387571 0.000000
O O5 0.880354 0.329990 0.722184
O O6 0.960483 0.336740 0.719606
O O7 0.922979 0.282574 0.000000
O O8 0.693488 0.099727 0.324295
O O9 0.633431 0.000000 0.219127
O O10 0.661594 0.118789 0.000000
O O11 0.000000 0.500000 0.277998
O O12 0.000000 0.396893 0.000000
O O13 0.235593 0.110994 0.500000
O O14 0.204788 0.259433 0.500000
#
# Coordination Sequence:
#
# PCOD9490124 Si02
#       6
#    16  16  16   8   8   8
#     4  10  21  38  60  83 110 150 196 239 285 336
#     4   9  17  32  53  82 116 149 187 230 276 334
#     4  10  20  35  56  81 113 151 186 227 283 341
#     4   9  16  28  53  88 121 152 186 226 277 340
#     4  11  23  39  59  82 111 149 190 239 291 337
#     4  11  23  37  57  84 112 146 190 238 288 340
#
# _framework density 20.062709000000002
#
# number of rings (size 3 to 8) (size 9 to 14) (size 15 to 20)
#    0.000    2.111    2.222    1.333    0.000    5.333 
#    0.000    5.000    0.000    6.000    0.000    6.222 
#    0.000    0.000    0.000    0.000    0.000    0.000 
#
# Total GULP energy -200793.279653 kJ/mol
# GULP energy per Si atom -5577.591101 kJ/mol
# Density = 2.001705 g / cm^3
# Si number density = 20.062709 Si / 1000 Ang^3
#
#
#
# Elastic Constant Matrix: (Units=GPa)
#
#
# Indices 1 2 3 4 5 6 
#
# 1 137.4439 79.8093 29.6551 0.0000 0.0000 0.0000
# 2 79.8093 169.1193 34.4726 0.0000 0.0000 0.0000
# 3 29.6551 34.4726 76.0915 0.0000 0.0000 0.0000
# 4 0.0000 0.0000 0.0000 15.2912 0.0000 0.0000
# 5 0.0000 0.0000 0.0000 0.0000 15.3016 0.0000
# 6 0.0000 0.0000 0.0000 0.0000 0.0000 21.2858
#
#
#
# Elastic Compliance Matrix: (Units=1/GPa)
#
#
# Indices 1 2 3 4 5 6 
#
# 1 0.010290 -0.004449 -0.001994 0.000000 0.000000 0.000000
# 2 -0.004449 0.008438 -0.002089 0.000000 0.000000 0.000000
# 3 -0.001994 -0.002089 0.014866 0.000000 0.000000 0.000000
# 4 0.000000 0.000000 0.000000 0.065397 0.000000 0.000000
# 5 0.000000 0.000000 0.000000 0.000000 0.065353 0.000000
# 6 0.000000 0.000000 0.000000 0.000000 0.000000 0.046980
#
#
# Mechanical properties :
#
#
# Convention : Reuss Voigt Hill
#
# Bulk Modulus (GPa) = 60.50170 74.50316 67.50243
# Shear Modulus (GPa) = 21.37684 26.29023 23.83353
#
# Velocity S-wave (km/s) = 3.26774 3.62388 3.45041
# Velocity P-wave (km/s) = 6.66778 7.39768 7.04219
#
# Compressibility (1/GPa) = 0.01652846
#
# Stress axis : x y z
#
# Youngs Moduli (GPa) = 97.18615 118.50553 67.26863
#
# Poissons Ratio (x) = 0.52726 0.13416
# Poissons Ratio (y) = 0.43240 0.14052
# Poissons Ratio (z) = 0.19383 0.24756
#
# Static dielectric constant tensor:
#      x y z
#    x 1.671230 0.000000 0.000000 
#    y 0.000000 1.763580 0.000000 
#    z 0.000000 0.000000 1.742550 
# 
# From -- ./inp_files/15833.got.cif
#   From: 2010.05.17/outbox.cif.g08.bks.cpg/sg65_8_cif.got.tgz:15833.got - 2010.06.03 17:01:31.
