data_PCOD9490094
_publ_section_title
;
Structure prediction by ZEFSAII (Michael W. Deem and Ramdas Pophale) SiO2 
 PCOD9490094
Probable space group: C M M M
;
_chemical_formula_sum "Si O2"
_cell_formula_units_Z 80
_cell_length_a 15.059366
_cell_length_b 14.359673
_cell_length_c 16.392018
_cell_angle_alpha 90.000000
_cell_angle_beta 90.000000
_cell_angle_gamma 90.000000
_cell_volume 3544.734082
_symmetry_space_group_name_H-M "C M M M"
_symmetry_group_IT_number 65
_symmetry_cell_setting 'orthorhombic'
loop_
_space_group_symop_operation_xyz
x,y,z
-x,-y,z
x,-y,-z
-x,y,-z
-x,-y,-z
x,y,-z
-x,y,z
x,-y,z
1/2+x,1/2+y,z
1/2-x,1/2-y,z
1/2+x,1/2-y,-z
1/2-x,1/2+y,-z
1/2-x,1/2-y,-z
1/2+x,1/2+y,-z
1/2-x,1/2+y,z
1/2+x,1/2-y,z
loop_
_atom_site_type_symbol
_atom_site_label
_atom_site_fract_x
_atom_site_fract_y
_atom_site_fract_z
Si Si1 0.104889 0.106137 0.697324
Si Si2 0.371317 0.190790 0.088379
Si Si3 0.823881 0.109931 0.123037
Si Si4 0.608493 0.221693 0.591282
Si Si5 0.102393 0.398535 0.260707
O O1 0.162485 0.117609 0.779321
O O2 0.129172 0.176514 0.626112
O O3 0.000000 0.123088 0.719428
O O4 0.111895 0.000000 0.670479
O O5 0.271932 0.146576 0.093913
O O6 0.381177 0.303120 0.089725
O O7 0.403105 0.156150 0.176061
O O8 0.405224 0.158167 0.000000
O O9 0.839445 0.000000 0.101935
O O10 0.640832 0.203626 0.500000
O O11 0.500000 0.216422 0.588386
O O12 0.643549 0.153903 0.662430
O O13 0.143318 0.500000 0.246024
O O14 0.000000 0.410115 0.284571
#
# Coordination Sequence:
#
# PCOD9490094 Si02
#       5
#    16  16  16  16  16
#     4   9  17  31  54  82 111 144 179 216 263 319
#     4  11  23  37  56  81 108 142 184 225 267 320
#     4  10  20  35  56  80 109 143 179 220 266 318
#     4   9  17  31  53  81 111 141 176 220 268 318
#     4  10  21  37  56  79 109 143 181 226 273 320
#
# _framework density 22.568688000000002
#
# number of rings (size 3 to 8) (size 9 to 14) (size 15 to 20)
#    0.000    2.200    2.000    1.800    0.000    4.000 
#    0.000    5.000    0.000    4.200    0.000   15.400 
#    0.000    0.000    0.000    0.000    0.000    0.000 
#
# Total GULP energy -222799.324965 kJ/mol
# GULP energy per Si atom -5569.983124 kJ/mol
# Density = 2.251732 g / cm^3
# Si number density = 22.568688 Si / 1000 Ang^3
#
#
#
# Elastic Constant Matrix: (Units=GPa)
#
#
# Indices 1 2 3 4 5 6 
#
# 1 40.2374 10.9394 20.0276 0.0000 0.0000 0.0000
# 2 10.9394 165.0341 100.4037 0.0000 0.0000 0.0000
# 3 20.0276 100.4037 211.0250 0.0000 0.0000 0.0000
# 4 0.0000 0.0000 0.0000 -3.3599 0.0000 0.0000
# 5 0.0000 0.0000 0.0000 0.0000 15.6905 0.0000
# 6 0.0000 0.0000 0.0000 0.0000 0.0000 11.7172
#
#
#
# Elastic Compliance Matrix: (Units=1/GPa)
#
#
# Indices 1 2 3 4 5 6 
#
# 1 0.026096 -0.000314 -0.002327 0.000000 0.000000 0.000000
# 2 -0.000314 0.008532 -0.004029 0.000000 0.000000 0.000000
# 3 -0.002327 -0.004029 0.006877 0.000000 0.000000 0.000000
# 4 0.000000 0.000000 0.000000 -0.297626 0.000000 0.000000
# 5 0.000000 0.000000 0.000000 0.000000 0.063733 0.000000
# 6 0.000000 0.000000 0.000000 0.000000 0.000000 0.085345
#
#
# Mechanical properties :
#
#
# Convention : Reuss Voigt Hill
#
# Bulk Modulus (GPa) = 35.50726 75.44866 55.47796
# Shear Modulus (GPa) = -59.30189 23.80462 -17.74864
#
# Velocity S-wave (km/s) = -5.13159 3.25124 -2.80737
# Velocity P-wave (km/s) = 4.39816 6.89908 3.75855
#
# Compressibility (1/GPa) = 0.02816325
#
# Stress axis : x y z
#
# Youngs Moduli (GPa) = 38.31972 117.21116 145.41578
#
# Poissons Ratio (x) = 0.03679 0.33843
# Poissons Ratio (y) = 0.01203 0.58595
# Poissons Ratio (z) = 0.08918 0.47230
#
# Static dielectric constant tensor:
#      x y z
#    x 1.953070 0.000000 0.000000 
#    y 0.000000 1.860270 0.000000 
#    z 0.000000 0.000000 1.793130 
# 
# From -- ./inp_files/43894.got.cif
#   From: 2010.05.17/outbox.cif.g08.bks.cpg/sg65_22_cif.got.tgz:43894.got - 2010.06.03 17:01:31.
