data_PCOD9490406
_publ_section_title
;
Structure prediction by ZEFSAII (Michael W. Deem and Ramdas Pophale) SiO2 
 PCOD9490406
Probable space group: C M M M
;
_chemical_formula_sum "Si O2"
_cell_formula_units_Z 56
_cell_length_a 14.406282
_cell_length_b 10.083075
_cell_length_c 20.929082
_cell_angle_alpha 90.000000
_cell_angle_beta 90.000000
_cell_angle_gamma 90.000000
_cell_volume 3040.150538
_symmetry_space_group_name_H-M "C M M M"
_symmetry_group_IT_number 65
_symmetry_cell_setting 'orthorhombic'
loop_
_space_group_symop_operation_xyz
x,y,z
-x,-y,z
x,-y,-z
-x,y,-z
-x,-y,-z
x,y,-z
-x,y,z
x,-y,z
1/2+x,1/2+y,z
1/2-x,1/2-y,z
1/2+x,1/2-y,-z
1/2-x,1/2+y,-z
1/2-x,1/2-y,-z
1/2+x,1/2+y,-z
1/2-x,1/2+y,z
1/2+x,1/2-y,z
loop_
_atom_site_type_symbol
_atom_site_label
_atom_site_fract_x
_atom_site_fract_y
_atom_site_fract_z
Si Si1 0.854801 0.726396 0.326178
Si Si2 0.600804 0.500000 0.390625
Si Si3 0.500000 0.656249 0.896096
Si Si4 0.000000 0.352789 0.221742
Si Si5 0.686320 0.000000 0.573093
Si Si6 0.840714 0.157537 0.000000
O O1 0.750000 0.750000 0.304445
O O2 0.894893 0.866945 0.348483
O O3 0.848335 0.627269 0.386891
O O4 0.913508 0.665387 0.269351
O O5 0.500000 0.500000 0.424372
O O6 0.700421 0.500000 0.426476
O O7 0.500000 0.500000 0.880402
O O8 0.500000 0.744642 0.833407
O O9 0.591414 0.681799 0.939359
O O10 0.000000 0.500000 0.193789
O O11 0.654462 0.000000 0.500000
O O12 0.750000 0.250000 0.000000
O O13 0.816561 0.000000 0.000000
#
# Coordination Sequence:
#
# PCOD9490406 Si02
#       6
#    16   8   8   8   8   8
#     4  10  22  39  59  84 117 153 193 252 309 362
#     4  10  20  35  61  85 112 142 193 250 311 358
#     4   9  22  40  62  94 128 168 201 245 294 345
#     4  12  23  39  61  88 121 160 209 244 293 359
#     4  10  22  42  60  78 115 157 192 248 320 377
#     4   9  19  41  66  94 136 165 201 245 290 342
#
# _framework density 18.42014
#
# number of rings (size 3 to 8) (size 9 to 14) (size 15 to 20)
#    0.000    2.000    2.857    0.857    2.000    7.714 
#    0.000    5.714    0.000    0.000    0.000    0.000 
#    0.000    0.000    0.000    0.000    0.000    0.000 
#
# Total GULP energy -156202.367756 kJ/mol
# GULP energy per Si atom -5578.655991 kJ/mol
# Density = 1.837822 g / cm^3
# Si number density = 18.420140 Si / 1000 Ang^3
#
#
#
# Elastic Constant Matrix: (Units=GPa)
#
#
# Indices 1 2 3 4 5 6 
#
# 1 130.4375 67.3346 62.0604 0.0000 0.0000 0.0000
# 2 67.3346 130.6840 61.7167 0.0000 0.0000 0.0000
# 3 62.0604 61.7167 124.7234 0.0000 0.0000 0.0000
# 4 0.0000 0.0000 0.0000 22.2217 0.0000 0.0000
# 5 0.0000 0.0000 0.0000 0.0000 6.2612 0.0000
# 6 0.0000 0.0000 0.0000 0.0000 0.0000 311.3649
#
#
#
# Elastic Compliance Matrix: (Units=1/GPa)
#
#
# Indices 1 2 3 4 5 6 
#
# 1 0.011606 -0.004245 -0.003675 0.000000 0.000000 0.000000
# 2 -0.004245 0.011538 -0.003597 0.000000 0.000000 0.000000
# 3 -0.003675 -0.003597 0.011626 0.000000 0.000000 0.000000
# 4 0.000000 0.000000 0.000000 0.045001 0.000000 0.000000
# 5 0.000000 0.000000 0.000000 0.000000 0.159714 0.000000
# 6 0.000000 0.000000 0.000000 0.000000 0.000000 0.003212
#
#
# Mechanical properties :
#
#
# Convention : Reuss Voigt Hill
#
# Bulk Modulus (GPa) = 85.19929 85.34092 85.27010
# Shear Modulus (GPa) = 18.54308 80.95177 49.74743
#
# Velocity S-wave (km/s) = 3.17626 6.63648 5.20247
# Velocity P-wave (km/s) = 7.73338 10.25449 9.08184
#
# Compressibility (1/GPa) = 0.01173719
#
# Stress axis : x y z
#
# Youngs Moduli (GPa) = 86.16247 86.67100 86.01267
#
# Poissons Ratio (x) = 0.36788 0.31606
# Poissons Ratio (y) = 0.36572 0.30941
# Poissons Ratio (z) = 0.31661 0.31178
#
# Static dielectric constant tensor:
#      x y z
#    x 1.660200 0.000000 0.000000 
#    y 0.000000 1.630890 0.000000 
#    z 0.000000 0.000000 1.587140 
# 
# From -- ./inp_files/62254.got.cif
#   From: 2010.05.17/outbox.cif.g08.bks.cpg/sg65_32_cif.got.tgz:62254.got - 2010.06.03 17:01:31.
