data_PCOD9490344
_publ_section_title
;
Structure prediction by ZEFSAII (Michael W. Deem and Ramdas Pophale) SiO2 
 PCOD9490344
Probable space group: C M M M
;
_chemical_formula_sum "Si O2"
_cell_formula_units_Z 88
_cell_length_a 8.970876
_cell_length_b 29.411557
_cell_length_c 17.969997
_cell_angle_alpha 90.000000
_cell_angle_beta 90.000000
_cell_angle_gamma 90.000000
_cell_volume 4741.337540
_symmetry_space_group_name_H-M "C M M M"
_symmetry_group_IT_number 65
_symmetry_cell_setting 'orthorhombic'
loop_
_space_group_symop_operation_xyz
x,y,z
-x,-y,z
x,-y,-z
-x,y,-z
-x,-y,-z
x,y,-z
-x,y,z
x,-y,z
1/2+x,1/2+y,z
1/2-x,1/2-y,z
1/2+x,1/2-y,-z
1/2-x,1/2+y,-z
1/2-x,1/2-y,-z
1/2+x,1/2+y,-z
1/2-x,1/2+y,z
1/2+x,1/2-y,z
loop_
_atom_site_type_symbol
_atom_site_label
_atom_site_fract_x
_atom_site_fract_y
_atom_site_fract_z
Si Si1 0.822422 0.201642 0.411314
Si Si2 0.819147 0.551992 0.500000
Si Si3 0.329099 0.203898 0.909292
Si Si4 0.679633 0.552410 0.774836
Si Si5 0.679231 0.110530 0.644412
Si Si6 0.678863 0.390373 0.914969
O O1 0.794194 0.194490 0.500000
O O2 0.750000 0.250000 0.391330
O O3 0.748947 0.160114 0.367423
O O4 0.000000 0.202798 0.400146
O O5 0.764602 0.500000 0.500000
O O6 0.775131 0.579658 0.426652
O O7 0.000000 0.550375 0.500000
O O8 0.500000 0.203016 0.885208
O O9 0.250000 0.250000 0.883287
O O10 0.246889 0.157474 0.888381
O O11 0.326494 0.205042 0.000000
O O12 0.500000 0.555648 0.765828
O O13 0.723040 0.500000 0.763683
O O14 0.759247 0.585191 0.716592
O O15 0.716506 0.569936 0.857633
O O16 0.500000 0.113537 0.646096
O O17 0.500000 0.385579 0.916045
O O18 0.728399 0.398954 0.000000
#
# Coordination Sequence:
#
# PCOD9490344 Si02
#       6
#    16   8  16  16  16  16
#     4  10  20  35  58  87 120 154 191 231 277 330
#     4   9  18  32  52  79 108 141 184 229 268 317
#     4   9  16  27  47  76 108 139 172 214 266 325
#     4  10  22  39  57  80 112 147 186 237 293 344
#     4  11  21  36  58  83 115 151 190 232 279 334
#     4   9  18  34  56  80 107 143 187 233 283 342
#
# _framework density 18.560162999999999
#
# number of rings (size 3 to 8) (size 9 to 14) (size 15 to 20)
#    0.000    2.273    0.909    2.182    0.000    5.091 
#    0.000    2.727    0.000    6.545    0.000    3.818 
#    0.000    0.000    0.000    0.000    0.000    0.000 
#
# Total GULP energy -245590.167541 kJ/mol
# GULP energy per Si atom -5581.594717 kJ/mol
# Density = 1.851792 g / cm^3
# Si number density = 18.560163 Si / 1000 Ang^3
#
#
#
# Elastic Constant Matrix: (Units=GPa)
#
#
# Indices 1 2 3 4 5 6 
#
# 1 48.6350 59.8374 39.3393 0.0000 0.0000 0.0000
# 2 59.8374 176.6306 66.7454 0.0000 0.0000 0.0000
# 3 39.3393 66.7454 78.1444 0.0000 0.0000 0.0000
# 4 0.0000 0.0000 0.0000 32.6790 0.0000 0.0000
# 5 0.0000 0.0000 0.0000 0.0000 18.9479 0.0000
# 6 0.0000 0.0000 0.0000 0.0000 0.0000 27.0816
#
#
#
# Elastic Compliance Matrix: (Units=1/GPa)
#
#
# Indices 1 2 3 4 5 6 
#
# 1 0.043334 -0.009505 -0.013697 0.000000 0.000000 0.000000
# 2 -0.009505 0.010444 -0.004136 0.000000 0.000000 0.000000
# 3 -0.013697 -0.004136 0.023225 0.000000 0.000000 0.000000
# 4 0.000000 0.000000 0.000000 0.030601 0.000000 0.000000
# 5 0.000000 0.000000 0.000000 0.000000 0.052776 0.000000
# 6 0.000000 0.000000 0.000000 0.000000 0.000000 0.036925
#
#
# Mechanical properties :
#
#
# Convention : Reuss Voigt Hill
#
# Bulk Modulus (GPa) = 44.78666 70.58378 57.68522
# Shear Modulus (GPa) = 19.27344 24.90755 22.09050
#
# Velocity S-wave (km/s) = 3.22597 3.66729 3.45369
# Velocity P-wave (km/s) = 6.16917 7.48628 6.85941
#
# Compressibility (1/GPa) = 0.02232808
#
# Stress axis : x y z
#
# Youngs Moduli (GPa) = 23.07640 95.74572 43.05713
#
# Poissons Ratio (x) = 0.91002 0.58976
# Poissons Ratio (y) = 0.21933 0.17809
# Poissons Ratio (z) = 0.31608 0.39601
#
# Static dielectric constant tensor:
#      x y z
#    x 1.615680 0.000000 0.000000 
#    y 0.000000 1.615100 0.000000 
#    z 0.000000 0.000000 1.647490 
# 
# From -- ./inp_files/50458.got.cif
#   From: 2010.05.17/outbox.cif.g08.bks.cpg/sg65_26_cif.got.tgz:50458.got - 2010.06.03 17:01:31.
