data_PCOD9490819
_publ_section_title
;
Structure prediction by ZEFSAII (Michael W. Deem and Ramdas Pophale) SiO2 
 PCOD9490819
Probable space group: C M M M
;
_chemical_formula_sum "Si O2"
_cell_formula_units_Z 64
_cell_length_a 28.166566
_cell_length_b 8.809909
_cell_length_c 13.314224
_cell_angle_alpha 90.000000
_cell_angle_beta 90.000000
_cell_angle_gamma 90.000000
_cell_volume 3303.856561
_symmetry_space_group_name_H-M "C M M M"
_symmetry_group_IT_number 65
_symmetry_cell_setting 'orthorhombic'
loop_
_space_group_symop_operation_xyz
x,y,z
-x,-y,z
x,-y,-z
-x,y,-z
-x,-y,-z
x,y,-z
-x,y,z
x,-y,z
1/2+x,1/2+y,z
1/2-x,1/2-y,z
1/2+x,1/2-y,-z
1/2-x,1/2+y,-z
1/2-x,1/2-y,-z
1/2+x,1/2+y,-z
1/2-x,1/2+y,z
1/2+x,1/2-y,z
loop_
_atom_site_type_symbol
_atom_site_label
_atom_site_fract_x
_atom_site_fract_y
_atom_site_fract_z
Si Si1 0.444072 0.318492 0.000000
Si Si2 0.106632 0.680202 0.193826
Si Si3 0.697143 0.682396 0.721879
Si Si4 0.057353 0.178161 0.386352
Si Si5 0.697303 0.681938 0.500000
O O1 0.420327 0.249937 0.099036
O O2 0.438349 0.500000 0.000000
O O3 0.500000 0.283961 0.000000
O O4 0.108606 0.500000 0.186162
O O5 0.159471 0.748805 0.201892
O O6 0.079314 0.729060 0.295408
O O7 0.699106 0.500000 0.729035
O O8 0.750000 0.750000 0.732534
O O9 0.677981 0.724834 0.609294
O O10 0.071330 0.224760 0.500000
O O11 0.000000 0.185932 0.381414
O O12 0.070838 0.000000 0.374964
O O13 0.699620 0.500000 0.500000
O O14 0.750000 0.750000 0.500000
#
# Coordination Sequence:
#
# PCOD9490819 Si02
#       5
#     8  16  16  16   8
#     4  11  25  47  72  93 116 155 207 259 311 369
#     4  12  25  39  60  92 126 161 202 251 310 370
#     4  10  20  37  59  87 123 165 210 255 303 359
#     4   9  19  37  60  86 119 160 204 250 303 365
#     4   8  16  30  52  80 113 156 201 246 292 343
#
# _framework density 19.371300000000002
#
# number of rings (size 3 to 8) (size 9 to 14) (size 15 to 20)
#    0.000    1.875    0.000    4.875    1.750    6.000 
#    0.000    1.875    0.000    0.000    0.000    0.000 
#    0.000    0.000    0.000    0.000    0.000    0.000 
#
# Total GULP energy -178769.469986 kJ/mol
# GULP energy per Si atom -5586.545937 kJ/mol
# Density = 1.932721 g / cm^3
# Si number density = 19.371300 Si / 1000 Ang^3
#
#
#
# Elastic Constant Matrix: (Units=GPa)
#
#
# Indices 1 2 3 4 5 6 
#
# 1 124.0737 77.2384 89.4658 0.0000 0.0000 0.0000
# 2 77.2384 97.5151 76.4290 0.0000 0.0000 0.0000
# 3 89.4658 76.4290 144.0532 0.0000 0.0000 0.0000
# 4 0.0000 0.0000 0.0000 -140.1577 0.0000 0.0000
# 5 0.0000 0.0000 0.0000 0.0000 40.9997 0.0000
# 6 0.0000 0.0000 0.0000 0.0000 0.0000 30.3608
#
#
#
# Elastic Compliance Matrix: (Units=1/GPa)
#
#
# Indices 1 2 3 4 5 6 
#
# 1 0.018885 -0.009870 -0.006492 0.000000 0.000000 0.000000
# 2 -0.009870 0.022713 -0.005921 0.000000 0.000000 0.000000
# 3 -0.006492 -0.005921 0.014115 0.000000 0.000000 0.000000
# 4 0.000000 0.000000 0.000000 -0.007135 0.000000 0.000000
# 5 0.000000 0.000000 0.000000 0.000000 0.024390 0.000000
# 6 0.000000 0.000000 0.000000 0.000000 0.000000 0.032937
#
#
# Mechanical properties :
#
#
# Convention : Reuss Voigt Hill
#
# Bulk Modulus (GPa) = 89.70593 94.65649 92.18121
# Shear Modulus (GPa) = 32.42775 -5.59220 13.41778
#
# Velocity S-wave (km/s) = 4.09591 -1.70092 2.63470
# Velocity P-wave (km/s) = 8.29324 6.71661 7.54621
#
# Compressibility (1/GPa) = 0.01114754
#
# Stress axis : x y z
#
# Youngs Moduli (GPa) = 52.95076 44.02755 70.84477
#
# Poissons Ratio (x) = 0.43455 0.45995
# Poissons Ratio (y) = 0.52263 0.41946
# Poissons Ratio (z) = 0.34378 0.26068
#
# Static dielectric constant tensor:
#      x y z
#    x 1.685310 0.000000 0.000000 
#    y 0.000000 1.638230 0.000000 
#    z 0.000000 0.000000 1.674520 
# 
# From -- ./inp_files/33233.got.cif
#   From: 2010.05.17/outbox.cif.g08.bks.cpg/sg65_17_cif.got.tgz:33233.got - 2010.06.03 17:01:31.
