data_PCOD9490747
_publ_section_title
;
Structure prediction by ZEFSAII (Michael W. Deem and Ramdas Pophale) SiO2 
 PCOD9490747
Probable space group: C M M M
;
_chemical_formula_sum "Si O2"
_cell_formula_units_Z 56
_cell_length_a 14.670218
_cell_length_b 12.827641
_cell_length_c 14.002808
_cell_angle_alpha 90.000000
_cell_angle_beta 90.000000
_cell_angle_gamma 90.000000
_cell_volume 2635.108480
_symmetry_space_group_name_H-M "C M M M"
_symmetry_group_IT_number 65
_symmetry_cell_setting 'orthorhombic'
loop_
_space_group_symop_operation_xyz
x,y,z
-x,-y,z
x,-y,-z
-x,y,-z
-x,-y,-z
x,y,-z
-x,y,z
x,-y,z
1/2+x,1/2+y,z
1/2-x,1/2-y,z
1/2+x,1/2-y,-z
1/2-x,1/2+y,-z
1/2-x,1/2-y,-z
1/2+x,1/2+y,-z
1/2-x,1/2+y,z
1/2+x,1/2-y,z
loop_
_atom_site_type_symbol
_atom_site_label
_atom_site_fract_x
_atom_site_fract_y
_atom_site_fract_z
Si Si1 0.854229 0.777004 0.804848
Si Si2 0.895310 0.000000 0.775262
Si Si3 0.894362 0.692911 0.606838
Si Si4 0.500000 0.880741 0.885988
Si Si5 0.744027 0.000000 0.609316
O O1 0.750000 0.750000 0.821315
O O2 0.879304 0.893862 0.834572
O O3 0.875928 0.772600 0.691436
O O4 0.914447 0.686028 0.850182
O O5 0.820936 0.000000 0.689989
O O6 0.000000 0.000000 0.740973
O O7 0.881713 0.736307 0.500000
O O8 0.823133 0.599289 0.619667
O O9 0.000000 0.657030 0.613874
O O10 0.500000 0.000000 0.849540
O O11 0.500000 0.884199 0.000000
O O12 0.779296 0.000000 0.500000
#
# Coordination Sequence:
#
# PCOD9490747 Si02
#       5
#    16   8  16   8   8
#     4  12  25  43  73 102 141 187 228 280 344 410
#     4  12  24  42  61 100 138 187 235 271 337 417
#     4  10  20  36  61  98 139 187 240 287 336 396
#     4  11  28  53  80 108 133 165 225 293 350 416
#     4  10  21  35  58  95 141 186 241 295 335 386
#
# _framework density 21.251497000000001
#
# number of rings (size 3 to 8) (size 9 to 14) (size 15 to 20)
#    0.000    1.000    5.714    0.429    4.000    4.286 
#    0.000    1.429    0.000    0.000    0.000    0.000 
#    0.000    0.000    0.000    0.000    0.000    0.000 
#
# Total GULP energy -156598.210887 kJ/mol
# GULP energy per Si atom -5592.793246 kJ/mol
# Density = 2.120313 g / cm^3
# Si number density = 21.251497 Si / 1000 Ang^3
#
#
#
# Elastic Constant Matrix: (Units=GPa)
#
#
# Indices 1 2 3 4 5 6 
#
# 1 186.0081 58.9278 22.8056 0.0000 0.0000 0.0000
# 2 58.9278 170.8682 38.0378 0.0000 0.0000 0.0000
# 3 22.8056 38.0378 37.7126 0.0000 0.0000 0.0000
# 4 0.0000 0.0000 0.0000 -8.9855 0.0000 0.0000
# 5 0.0000 0.0000 0.0000 0.0000 -5.1049 0.0000
# 6 0.0000 0.0000 0.0000 0.0000 0.0000 13.7668
#
#
#
# Elastic Compliance Matrix: (Units=1/GPa)
#
#
# Indices 1 2 3 4 5 6 
#
# 1 0.006155 -0.001669 -0.002039 0.000000 0.000000 0.000000
# 2 -0.001669 0.007999 -0.007059 0.000000 0.000000 0.000000
# 3 -0.002039 -0.007059 0.034869 0.000000 0.000000 0.000000
# 4 0.000000 0.000000 0.000000 -0.111291 0.000000 0.000000
# 5 0.000000 0.000000 0.000000 0.000000 -0.195889 0.000000
# 6 0.000000 0.000000 0.000000 0.000000 0.000000 0.072639
#
#
# Mechanical properties :
#
#
# Convention : Reuss Voigt Hill
#
# Bulk Modulus (GPa) = 36.37690 70.45902 53.41796
# Shear Modulus (GPa) = -32.29546 18.25646 -7.01950
#
# Velocity S-wave (km/s) = -3.90254 2.93416 -1.81940
# Velocity P-wave (km/s) = 1.77535 6.68625 4.55818
#
# Compressibility (1/GPa) = 0.02748997
#
# Stress axis : x y z
#
# Youngs Moduli (GPa) = 162.47659 125.00809 28.67840
#
# Poissons Ratio (x) = 0.20861 0.05847
# Poissons Ratio (y) = 0.27113 0.20245
# Poissons Ratio (z) = 0.33125 0.88248
#
# Static dielectric constant tensor:
#      x y z
#    x 1.754170 0.000000 0.000000 
#    y 0.000000 1.805740 0.000000 
#    z 0.000000 0.000000 1.763900 
# 
# From -- ./inp_files/39300.got.cif
#   From: 2010.05.17/outbox.cif.g08.bks.cpg/sg65_20_cif.got.tgz:39300.got - 2010.06.03 17:01:31.
