data_PCOD9490780
_publ_section_title
;
Structure prediction by ZEFSAII (Michael W. Deem and Ramdas Pophale) SiO2 
 PCOD9490780
Probable space group: C M M M
;
_chemical_formula_sum "Si O2"
_cell_formula_units_Z 58
_cell_length_a 24.824379
_cell_length_b 7.488036
_cell_length_c 15.326953
_cell_angle_alpha 90.000000
_cell_angle_beta 90.000000
_cell_angle_gamma 90.000000
_cell_volume 2849.063589
_symmetry_space_group_name_H-M "C M M M"
_symmetry_group_IT_number 65
_symmetry_cell_setting 'orthorhombic'
loop_
_space_group_symop_operation_xyz
x,y,z
-x,-y,z
x,-y,-z
-x,y,-z
-x,-y,-z
x,y,-z
-x,y,z
x,-y,z
1/2+x,1/2+y,z
1/2-x,1/2-y,z
1/2+x,1/2-y,-z
1/2-x,1/2+y,-z
1/2-x,1/2-y,-z
1/2+x,1/2+y,-z
1/2-x,1/2+y,z
1/2+x,1/2-y,z
loop_
_atom_site_type_symbol
_atom_site_label
_atom_site_fract_x
_atom_site_fract_y
_atom_site_fract_z
Si Si1 0.000000 0.702317 0.840990
Si Si2 0.888812 0.783023 0.750212
Si Si3 0.500000 0.500000 0.000000
Si Si4 0.687782 0.286363 0.096610
Si Si5 0.189120 0.785937 0.400755
O O1 0.948199 0.727748 0.778342
O O2 0.000000 0.500000 0.875192
O O3 0.000000 0.843703 0.921170
O O4 0.850621 0.718939 0.828740
O O5 0.858771 0.721943 0.662032
O O6 0.888531 0.000000 0.748221
O O7 0.680832 0.500000 0.093489
O O8 0.750000 0.250000 0.115470
O O9 0.675363 0.215914 0.000000
O O10 0.185960 0.716200 0.500000
O O11 0.250000 0.750000 0.367065
O O12 0.184501 0.000000 0.404621
#
# Coordination Sequence:
#
# PCOD9490780 Si02
#       5
#     8  16   2  16  16
#     4  12  27  43  68  95 118 166 220 258 320 378
#     4  10  20  37  58  80 120 164 203 265 319 366
#     4  12  26  52  68  86 134 160 210 284 304 368
#     4   9  18  30  48  73 105 145 187 236 306 369
#     4   9  18  33  57  90 125 167 213 257 319 384
#
# _framework density 20.357565000000001
#
# number of rings (size 3 to 8) (size 9 to 14) (size 15 to 20)
#    0.000    2.207    1.379    1.034    1.931    2.207 
#    0.000    0.690    0.000    4.138    0.000    0.000 
#    0.000    0.000    0.000    0.000    0.000    0.000 
#
# Total GULP energy -161562.863535 kJ/mol
# GULP energy per Si atom -5571.133225 kJ/mol
# Density = 2.031123 g / cm^3
# Si number density = 20.357565 Si / 1000 Ang^3
#
#
#
# Elastic Constant Matrix: (Units=GPa)
#
#
# Indices 1 2 3 4 5 6 
#
# 1 88.8714 16.9220 122.7957 0.0000 0.0000 0.0000
# 2 16.9220 99.3789 24.3799 0.0000 0.0000 0.0000
# 3 122.7957 24.3799 122.2003 0.0000 0.0000 0.0000
# 4 0.0000 0.0000 0.0000 2.7015 0.0000 0.0000
# 5 0.0000 0.0000 0.0000 0.0000 5.3378 0.0000
# 6 0.0000 0.0000 0.0000 0.0000 0.0000 51.1521
#
#
#
# Elastic Compliance Matrix: (Units=1/GPa)
#
#
# Indices 1 2 3 4 5 6 
#
# 1 -0.028466 -0.002282 0.029060 0.000000 0.000000 0.000000
# 2 -0.002282 0.010397 0.000219 0.000000 0.000000 0.000000
# 3 0.029060 0.000219 -0.021061 0.000000 0.000000 0.000000
# 4 0.000000 0.000000 0.000000 0.370165 0.000000 0.000000
# 5 0.000000 0.000000 0.000000 0.000000 0.187342 0.000000
# 6 0.000000 0.000000 0.000000 0.000000 0.000000 0.019550
#
#
# Mechanical properties :
#
#
# Convention : Reuss Voigt Hill
#
# Bulk Modulus (GPa) = 67.28137 70.96065 69.12101
# Shear Modulus (GPa) = 10.22727 21.59513 15.91120
#
# Velocity S-wave (km/s) = 2.24382 3.26051 2.79872
# Velocity P-wave (km/s) = 6.31146 7.00767 6.66866
#
# Compressibility (1/GPa) = 0.01486296
#
# Stress axis : x y z
#
# Youngs Moduli (GPa) = -35.13014 96.17778 -47.48001
#
# Poissons Ratio (x) = 0.21947 1.37975
# Poissons Ratio (y) = -0.08016 0.01038
# Poissons Ratio (z) = 1.02087 -0.02103
#
# Static dielectric constant tensor:
#      x y z
#    x 1.662520 0.000000 0.000000 
#    y 0.000000 1.765760 0.000000 
#    z 0.000000 0.000000 1.737080 
# 
# From -- ./inp_files/45004.got.cif
#   From: 2010.05.17/outbox.cif.g08.bks.cpg/sg65_23_cif.got.tgz:45004.got - 2010.06.03 17:01:31.
