data_PCOD9490211
_publ_section_title
;
Structure prediction by ZEFSAII (Michael W. Deem and Ramdas Pophale) SiO2 
 PCOD9490211
Probable space group: C M M M
;
_chemical_formula_sum "Si O2"
_cell_formula_units_Z 116
_cell_length_a 29.169618
_cell_length_b 26.767397
_cell_length_c 8.041856
_cell_angle_alpha 90.000000
_cell_angle_beta 90.000000
_cell_angle_gamma 90.000000
_cell_volume 6279.038908
_symmetry_space_group_name_H-M "C M M M"
_symmetry_group_IT_number 65
_symmetry_cell_setting 'orthorhombic'
loop_
_space_group_symop_operation_xyz
x,y,z
-x,-y,z
x,-y,-z
-x,y,-z
-x,-y,-z
x,y,-z
-x,y,z
x,-y,z
1/2+x,1/2+y,z
1/2-x,1/2-y,z
1/2+x,1/2-y,-z
1/2-x,1/2+y,-z
1/2-x,1/2-y,-z
1/2+x,1/2+y,-z
1/2-x,1/2+y,z
1/2+x,1/2-y,z
loop_
_atom_site_type_symbol
_atom_site_label
_atom_site_fract_x
_atom_site_fract_y
_atom_site_fract_z
Si Si1 0.207045 0.552809 0.814551
Si Si2 0.150090 0.054586 0.798403
Si Si3 0.861049 0.248071 0.806680
Si Si4 0.299316 0.655878 0.698201
Si Si5 0.051025 0.194747 0.692898
Si Si6 0.693009 0.154307 0.697529
Si Si7 0.949294 0.083569 0.194029
Si Si8 0.255664 0.000000 0.500000
O O1 0.180199 0.500000 0.816634
O O2 0.178567 0.602518 0.783270
O O3 0.238451 0.543169 0.650744
O O4 0.229422 0.556345 0.000000
O O5 0.178047 0.102881 0.742751
O O6 0.097333 0.060019 0.737721
O O7 0.167559 0.000000 0.741105
O O8 0.149834 0.054760 0.000000
O O9 0.828309 0.200460 0.777585
O O10 0.909119 0.233926 0.723360
O O11 0.836219 0.297429 0.741576
O O12 0.869583 0.254186 0.000000
O O13 0.301486 0.662425 0.500000
O O14 0.246322 0.659883 0.750663
O O15 0.052525 0.179390 0.500000
O O16 0.057471 0.143432 0.793883
O O17 0.000000 0.214105 0.730014
O O18 0.691923 0.148182 0.500000
O O19 0.000000 0.072201 0.266313
O O20 0.951084 0.069260 0.000000
#
# Coordination Sequence:
#
# PCOD9490211 Si02
#       8
#    16  16  16  16  16  16  16   4
#     4   9  17  31  53  78 106 143 183 226 273 321
#     4  10  21  36  53  76 107 142 184 234 287 338
#     4  12  24  37  56  82 110 140 179 226 277 340
#     4  11  24  39  55  73 102 144 186 228 283 339
#     4  10  20  35  57  82 108 141 178 220 276 339
#     4  11  22  38  56  78 109 145 188 236 282 334
#     4   9  17  31  53  77 102 135 176 225 282 340
#     4   8  14  32  52  74 110 144 175 230 271 318
#
# _framework density 18.474163999999998
#
# number of rings (size 3 to 8) (size 9 to 14) (size 15 to 20)
#    0.414    1.379    2.069    2.897    0.000    5.793 
#    0.000    4.138    0.000    0.000    0.000    2.897 
#    0.000    0.552    0.000    6.828    0.000    6.069 
#
# Total GULP energy -323058.828296 kJ/mol
# GULP energy per Si atom -5569.979798 kJ/mol
# Density = 1.843212 g / cm^3
# Si number density = 18.474164 Si / 1000 Ang^3
#
#
#
# Elastic Constant Matrix: (Units=GPa)
#
#
# Indices 1 2 3 4 5 6 
#
# 1 53.2756 39.2229 -0.4185 0.0000 0.0000 0.0000
# 2 39.2229 116.9042 5.3489 0.0000 0.0000 0.0000
# 3 -0.4185 5.3489 63.8134 0.0000 0.0000 0.0000
# 4 0.0000 0.0000 0.0000 15.1710 0.0000 0.0000
# 5 0.0000 0.0000 0.0000 0.0000 24.6431 0.0000
# 6 0.0000 0.0000 0.0000 0.0000 0.0000 24.4667
#
#
#
# Elastic Compliance Matrix: (Units=1/GPa)
#
#
# Indices 1 2 3 4 5 6 
#
# 1 0.024976 -0.008420 0.000870 0.000000 0.000000 0.000000
# 2 -0.008420 0.011425 -0.001013 0.000000 0.000000 0.000000
# 3 0.000870 -0.001013 0.015761 0.000000 0.000000 0.000000
# 4 0.000000 0.000000 0.000000 0.065915 0.000000 0.000000
# 5 0.000000 0.000000 0.000000 0.000000 0.040579 0.000000
# 6 0.000000 0.000000 0.000000 0.000000 0.000000 0.040872
#
#
# Mechanical properties :
#
#
# Convention : Reuss Voigt Hill
#
# Bulk Modulus (GPa) = 28.54160 35.81111 32.17636
# Shear Modulus (GPa) = 21.89780 25.51215 23.70497
#
# Velocity S-wave (km/s) = 3.44658 3.72016 3.58598
# Velocity P-wave (km/s) = 5.59657 6.15462 5.88222
#
# Compressibility (1/GPa) = 0.03503657
#
# Stress axis : x y z
#
# Youngs Moduli (GPa) = 40.03871 87.52569 63.44657
#
# Poissons Ratio (x) = 0.73692 -0.05517
# Poissons Ratio (y) = 0.33711 0.06426
# Poissons Ratio (z) = -0.03481 0.08865
#
# Static dielectric constant tensor:
#      x y z
#    x 1.665710 0.000000 0.000000 
#    y 0.000000 1.663360 0.000000 
#    z 0.000000 0.000000 1.689440 
# 
# From -- ./inp_files/18955.got.cif
#   From: 2010.05.17/outbox.cif.g08.bks.cpg/sg65_10_cif.got.tgz:18955.got - 2010.06.03 17:01:31.
