data_PCOD9490184
_publ_section_title
;
Structure prediction by ZEFSAII (Michael W. Deem and Ramdas Pophale) SiO2 
 PCOD9490184
Probable space group: C M M M
;
_chemical_formula_sum "Si O2"
_cell_formula_units_Z 88
_cell_length_a 9.340961
_cell_length_b 16.410197
_cell_length_c 30.882003
_cell_angle_alpha 90.000000
_cell_angle_beta 90.000000
_cell_angle_gamma 90.000000
_cell_volume 4733.809908
_symmetry_space_group_name_H-M "C M M M"
_symmetry_group_IT_number 65
_symmetry_cell_setting 'orthorhombic'
loop_
_space_group_symop_operation_xyz
x,y,z
-x,-y,z
x,-y,-z
-x,y,-z
-x,-y,-z
x,y,-z
-x,y,z
x,-y,z
1/2+x,1/2+y,z
1/2-x,1/2-y,z
1/2+x,1/2-y,-z
1/2-x,1/2+y,-z
1/2-x,1/2-y,-z
1/2+x,1/2+y,-z
1/2-x,1/2+y,z
1/2+x,1/2-y,z
loop_
_atom_site_type_symbol
_atom_site_label
_atom_site_fract_x
_atom_site_fract_y
_atom_site_fract_z
Si Si1 0.663271 0.597756 0.451593
Si Si2 0.326119 0.500000 0.049970
Si Si3 0.828421 0.664408 0.629312
Si Si4 0.170838 0.903848 0.807272
Si Si5 0.673278 0.333909 0.900141
Si Si6 0.836909 0.402168 0.722703
O O1 0.703946 0.626856 0.500000
O O2 0.500000 0.626540 0.442648
O O3 0.658337 0.500000 0.453193
O O4 0.769354 0.621383 0.413548
O O5 0.500000 0.500000 0.051488
O O6 0.283431 0.415471 0.073320
O O7 0.280943 0.500000 0.000000
O O8 0.750000 0.750000 0.630273
O O9 0.788535 0.621358 0.674617
O O10 0.000000 0.670321 0.627544
O O11 0.210080 0.854012 0.850095
O O12 0.243371 0.873638 0.763177
O O13 0.000000 0.900367 0.802515
O O14 0.207932 0.000000 0.814054
O O15 0.500000 0.325535 0.903587
O O16 0.750000 0.250000 0.913583
O O17 0.837049 0.500000 0.724512
O O18 0.000000 0.372891 0.728130
#
# Coordination Sequence:
#
# PCOD9490184 Si02
#       6
#    16   8  16  16  16  16
#     4   9  19  37  60  83 105 131 168 215 265 321
#     4   9  18  36  61  83 111 155 197 235 284 343
#     4  11  23  37  53  75 107 143 178 219 267 319
#     4   9  17  32  54  77 104 141 184 226 269 327
#     4  10  20  35  56  84 115 148 191 238 285 340
#     4   9  19  35  54  77 105 138 178 224 272 321
#
# _framework density 18.589679
#
# number of rings (size 3 to 8) (size 9 to 14) (size 15 to 20)
#    0.000    2.455    0.909    1.636    0.000    5.091 
#    0.000    6.818    0.000    0.545    0.000    0.000 
#    0.000    0.000    0.000    0.000    0.000    0.000 
#
# Total GULP energy -245310.908107 kJ/mol
# GULP energy per Si atom -5575.247912 kJ/mol
# Density = 1.854737 g / cm^3
# Si number density = 18.589679 Si / 1000 Ang^3
#
#
#
# Elastic Constant Matrix: (Units=GPa)
#
#
# Indices 1 2 3 4 5 6 
#
# 1 38.0689 36.7892 55.9105 0.0000 0.0000 0.0000
# 2 36.7892 81.7923 60.4879 0.0000 0.0000 0.0000
# 3 55.9105 60.4879 156.3160 0.0000 0.0000 0.0000
# 4 0.0000 0.0000 0.0000 -4.8436 0.0000 0.0000
# 5 0.0000 0.0000 0.0000 0.0000 15.6580 0.0000
# 6 0.0000 0.0000 0.0000 0.0000 0.0000 41.3821
#
#
#
# Elastic Compliance Matrix: (Units=1/GPa)
#
#
# Indices 1 2 3 4 5 6 
#
# 1 0.070733 -0.018359 -0.018195 0.000000 0.000000 0.000000
# 2 -0.018359 0.021892 -0.001905 0.000000 0.000000 0.000000
# 3 -0.018195 -0.001905 0.013643 0.000000 0.000000 0.000000
# 4 0.000000 0.000000 0.000000 -0.206460 0.000000 0.000000
# 5 0.000000 0.000000 0.000000 0.000000 0.063865 0.000000
# 6 0.000000 0.000000 0.000000 0.000000 0.000000 0.024165
#
#
# Mechanical properties :
#
#
# Convention : Reuss Voigt Hill
#
# Bulk Modulus (GPa) = 34.07211 64.72803 49.40007
# Shear Modulus (GPa) = 67.07872 18.63862 42.85867
#
# Velocity S-wave (km/s) = 6.01350 3.16987 4.80678
# Velocity P-wave (km/s) = 8.15994 6.94927 7.57882
#
# Compressibility (1/GPa) = 0.02934951
#
# Stress axis : x y z
#
# Youngs Moduli (GPa) = 14.13771 45.67784 73.30034
#
# Poissons Ratio (x) = 0.83859 1.33373
# Poissons Ratio (y) = 0.25955 0.13964
# Poissons Ratio (z) = 0.25724 0.08702
#
# Static dielectric constant tensor:
#      x y z
#    x 1.630870 0.000000 0.000000 
#    y 0.000000 1.659230 0.000000 
#    z 0.000000 0.000000 1.677490 
# 
# From -- ./inp_files/76662.got.cif
#   From: 2010.05.17/outbox.cif.g08.bks.cpg/sg65_39_cif.got.tgz:76662.got - 2010.06.03 17:01:31.
