data_PCOD9490362
_publ_section_title
;
Structure prediction by ZEFSAII (Michael W. Deem and Ramdas Pophale) SiO2 
 PCOD9490362
Probable space group: C M M M
;
_chemical_formula_sum "Si O2"
_cell_formula_units_Z 104
_cell_length_a 14.313012
_cell_length_b 22.232941
_cell_length_c 17.979446
_cell_angle_alpha 90.000000
_cell_angle_beta 90.000000
_cell_angle_gamma 90.000000
_cell_volume 5721.425623
_symmetry_space_group_name_H-M "C M M M"
_symmetry_group_IT_number 65
_symmetry_cell_setting 'orthorhombic'
loop_
_space_group_symop_operation_xyz
x,y,z
-x,-y,z
x,-y,-z
-x,y,-z
-x,-y,-z
x,y,-z
-x,y,z
x,-y,z
1/2+x,1/2+y,z
1/2-x,1/2-y,z
1/2+x,1/2-y,-z
1/2-x,1/2+y,-z
1/2-x,1/2-y,-z
1/2+x,1/2+y,-z
1/2-x,1/2+y,z
1/2+x,1/2-y,z
loop_
_atom_site_type_symbol
_atom_site_label
_atom_site_fract_x
_atom_site_fract_y
_atom_site_fract_z
Si Si1 0.391095 0.928910 0.698621
Si Si2 0.211764 0.345312 0.586594
Si Si3 0.893121 0.000000 0.090348
Si Si4 0.392715 0.278054 0.814512
Si Si5 0.297876 0.376424 0.085072
Si Si6 0.388958 0.723070 0.637448
Si Si7 0.894556 0.361962 0.855993
O O1 0.500000 0.919457 0.676243
O O2 0.323235 0.898699 0.639010
O O3 0.379530 0.895510 0.777436
O O4 0.375655 0.000000 0.706595
O O5 0.199926 0.358934 0.500000
O O6 0.318781 0.325616 0.602245
O O7 0.147940 0.287304 0.607785
O O8 0.842624 0.061330 0.112851
O O9 0.000000 0.000000 0.115394
O O10 0.892007 0.000000 0.000000
O O11 0.500000 0.297862 0.825418
O O12 0.328679 0.322313 0.861650
O O13 0.373318 0.278849 0.726515
O O14 0.386178 0.209421 0.841523
O O15 0.186615 0.381563 0.089249
O O16 0.328374 0.365153 0.000000
O O17 0.500000 0.715773 0.623217
O O18 0.000000 0.374751 0.881209
#
# Coordination Sequence:
#
# PCOD9490362 Si02
#       7
#    16  16   8  16  16  16  16
#     4  10  21  38  60  84 112 152 196 238 285 338
#     4  11  22  34  56  89 119 150 187 234 287 340
#     4   9  20  40  59  77 109 147 185 232 284 338
#     4  10  20  35  59  84 111 150 192 239 288 337
#     4  11  23  37  57  86 117 152 191 237 292 339
#     4  10  20  36  56  82 116 153 191 230 282 343
#     4  10  21  37  57  83 114 151 193 235 286 345
#
# _framework density 18.177288000000001
#
# number of rings (size 3 to 8) (size 9 to 14) (size 15 to 20)
#    0.000    1.769    1.538    3.231    3.231    4.923 
#    0.000    2.308    0.000    1.846    0.000    1.077 
#    0.000    0.000    0.000    0.000    0.000    0.000 
#
# Total GULP energy -290389.714300 kJ/mol
# GULP energy per Si atom -5584.417583 kJ/mol
# Density = 1.813592 g / cm^3
# Si number density = 18.177288 Si / 1000 Ang^3
#
#
#
# Elastic Constant Matrix: (Units=GPa)
#
#
# Indices 1 2 3 4 5 6 
#
# 1 101.4250 43.7230 30.0224 0.0000 0.0000 0.0000
# 2 43.7230 82.4648 11.3903 0.0000 0.0000 0.0000
# 3 30.0224 11.3903 30.5325 0.0000 0.0000 0.0000
# 4 0.0000 0.0000 0.0000 -266.2358 0.0000 0.0000
# 5 0.0000 0.0000 0.0000 0.0000 19.9736 0.0000
# 6 0.0000 0.0000 0.0000 0.0000 0.0000 28.2964
#
#
#
# Elastic Compliance Matrix: (Units=1/GPa)
#
#
# Indices 1 2 3 4 5 6 
#
# 1 0.017129 -0.007122 -0.014186 0.000000 0.000000 0.000000
# 2 -0.007122 0.015747 0.001129 0.000000 0.000000 0.000000
# 3 -0.014186 0.001129 0.046279 0.000000 0.000000 0.000000
# 4 0.000000 0.000000 0.000000 -0.003756 0.000000 0.000000
# 5 0.000000 0.000000 0.000000 0.000000 0.050066 0.000000
# 6 0.000000 0.000000 0.000000 0.000000 0.000000 0.035340
#
#
# Mechanical properties :
#
#
# Convention : Reuss Voigt Hill
#
# Bulk Modulus (GPa) = 25.77520 42.74373 34.25946
# Shear Modulus (GPa) = 23.35403 -34.97406 -5.81001
#
# Velocity S-wave (km/s) = 3.58829 -4.39116 -1.78976
# Velocity P-wave (km/s) = 5.60164 1.46416 3.82326
#
# Compressibility (1/GPa) = 0.03879699
#
# Stress axis : x y z
#
# Youngs Moduli (GPa) = 58.38078 63.50514 21.60786
#
# Poissons Ratio (x) = 0.45231 0.30652
# Poissons Ratio (y) = 0.41581 -0.02440
# Poissons Ratio (z) = 0.82817 -0.07170
#
# Static dielectric constant tensor:
#      x y z
#    x 1.648200 0.000000 0.000000 
#    y 0.000000 1.594560 0.000000 
#    z 0.000000 0.000000 1.604920 
# 
# From -- ./inp_files/53309.got.cif
#   From: 2010.05.17/outbox.cif.g08.bks.cpg/sg65_27_cif.got.tgz:53309.got - 2010.06.03 17:01:31.
