data_PCOD9490790
_publ_section_title
;
Structure prediction by ZEFSAII (Michael W. Deem and Ramdas Pophale) SiO2 
 PCOD9490790
Probable space group: C M M M
;
_chemical_formula_sum "Si O2"
_cell_formula_units_Z 92
_cell_length_a 14.891062
_cell_length_b 19.356025
_cell_length_c 16.821912
_cell_angle_alpha 90.000000
_cell_angle_beta 90.000000
_cell_angle_gamma 90.000000
_cell_volume 4848.609443
_symmetry_space_group_name_H-M "C M M M"
_symmetry_group_IT_number 65
_symmetry_cell_setting 'orthorhombic'
loop_
_space_group_symop_operation_xyz
x,y,z
-x,-y,z
x,-y,-z
-x,y,-z
-x,-y,-z
x,y,-z
-x,y,z
x,-y,z
1/2+x,1/2+y,z
1/2-x,1/2-y,z
1/2+x,1/2-y,-z
1/2-x,1/2+y,-z
1/2-x,1/2-y,-z
1/2+x,1/2+y,-z
1/2-x,1/2+y,z
1/2+x,1/2-y,z
loop_
_atom_site_type_symbol
_atom_site_label
_atom_site_fract_x
_atom_site_fract_y
_atom_site_fract_z
Si Si1 0.000000 0.923624 0.905421
Si Si2 0.155073 0.824677 0.852799
Si Si3 0.896620 0.651152 0.681028
Si Si4 0.607340 0.689440 0.329449
Si Si5 0.734498 0.420585 0.406155
Si Si6 0.862515 0.667989 0.130794
Si Si7 0.000000 0.378787 0.000000
O O1 0.912920 0.882637 0.878770
O O2 0.000000 0.000000 0.870899
O O3 0.000000 0.926851 0.000000
O O4 0.151398 0.818988 0.757497
O O5 0.121870 0.750058 0.883893
O O6 0.255879 0.840246 0.879238
O O7 0.879803 0.729704 0.649928
O O8 0.823015 0.601892 0.642296
O O9 0.886040 0.653505 0.776975
O O10 0.000000 0.632846 0.662857
O O11 0.500000 0.677791 0.323934
O O12 0.656538 0.634089 0.384519
O O13 0.752872 0.416900 0.500000
O O14 0.709601 0.500000 0.386522
O O15 0.921979 0.625723 0.069887
#
# Coordination Sequence:
#
# PCOD9490790 Si02
#       7
#     8  16  16  16  16  16   4
#     4  11  25  39  54  82 123 167 204 250 300 361
#     4  10  20  37  58  84 124 161 205 251 293 372
#     4  10  20  40  64  90 125 161 207 262 309 365
#     4  10  20  38  65  93 122 163 204 255 312 367
#     4  11  25  42  62  92 128 165 206 256 313 379
#     4  10  21  34  59  94 121 159 199 255 320 362
#     4  12  22  32  56  98 126 150 196 258 330 360
#
# _framework density 18.974513000000002
#
# number of rings (size 3 to 8) (size 9 to 14) (size 15 to 20)
#    0.000    1.652    3.478    1.043    3.652    4.174 
#    0.000    3.478    0.000    0.000    0.000    2.435 
#    0.000    0.000    0.000    0.000    0.000    0.000 
#
# Total GULP energy -256380.568055 kJ/mol
# GULP energy per Si atom -5573.490610 kJ/mol
# Density = 1.893133 g / cm^3
# Si number density = 18.974513 Si / 1000 Ang^3
#
#
#
# Elastic Constant Matrix: (Units=GPa)
#
#
# Indices 1 2 3 4 5 6 
#
# 1 81.3164 20.5190 7.4046 0.0000 0.0000 0.0000
# 2 20.5190 56.7296 17.7230 0.0000 0.0000 0.0000
# 3 7.4046 17.7230 48.2865 0.0000 0.0000 0.0000
# 4 0.0000 0.0000 0.0000 17.9159 0.0000 0.0000
# 5 0.0000 0.0000 0.0000 0.0000 10.8293 0.0000
# 6 0.0000 0.0000 0.0000 0.0000 0.0000 490.1210
#
#
#
# Elastic Compliance Matrix: (Units=1/GPa)
#
#
# Indices 1 2 3 4 5 6 
#
# 1 0.013537 -0.004798 -0.000315 0.000000 0.000000 0.000000
# 2 -0.004798 0.021611 -0.007196 0.000000 0.000000 0.000000
# 3 -0.000315 -0.007196 0.023399 0.000000 0.000000 0.000000
# 4 0.000000 0.000000 0.000000 0.055816 0.000000 0.000000
# 5 0.000000 0.000000 0.000000 0.000000 0.092342 0.000000
# 6 0.000000 0.000000 0.000000 0.000000 0.000000 0.002040
#
#
# Mechanical properties :
#
#
# Convention : Reuss Voigt Hill
#
# Bulk Modulus (GPa) = 29.47315 30.84731 30.16023
# Shear Modulus (GPa) = 20.43533 113.15230 66.79381
#
# Velocity S-wave (km/s) = 3.28531 7.73067 5.93955
# Velocity P-wave (km/s) = 5.47337 9.79678 7.93520
#
# Compressibility (1/GPa) = 0.03392918
#
# Stress axis : x y z
#
# Youngs Moduli (GPa) = 73.87156 46.27243 42.73621
#
# Poissons Ratio (x) = 0.22201 0.01345
# Poissons Ratio (y) = 0.35443 0.30755
# Poissons Ratio (z) = 0.02326 0.33299
#
# Static dielectric constant tensor:
#      x y z
#    x 1.643190 0.000000 0.000000 
#    y 0.000000 1.669120 0.000000 
#    z 0.000000 0.000000 1.646820 
# 
# From -- ./inp_files/40444.got.cif
#   From: 2010.05.17/outbox.cif.g08.bks.cpg/sg65_21_cif.got.tgz:40444.got - 2010.06.03 17:01:31.
