data_PCOD9490388
_publ_section_title
;
Structure prediction by ZEFSAII (Michael W. Deem and Ramdas Pophale) SiO2 
 PCOD9490388
Probable space group: C M M M
;
_chemical_formula_sum "Si O2"
_cell_formula_units_Z 88
_cell_length_a 29.781823
_cell_length_b 8.257591
_cell_length_c 18.845352
_cell_angle_alpha 90.000000
_cell_angle_beta 90.000000
_cell_angle_gamma 90.000000
_cell_volume 4634.564176
_symmetry_space_group_name_H-M "C M M M"
_symmetry_group_IT_number 65
_symmetry_cell_setting 'orthorhombic'
loop_
_space_group_symop_operation_xyz
x,y,z
-x,-y,z
x,-y,-z
-x,y,-z
-x,-y,-z
x,y,-z
-x,y,z
x,-y,z
1/2+x,1/2+y,z
1/2-x,1/2-y,z
1/2+x,1/2-y,-z
1/2-x,1/2+y,-z
1/2-x,1/2-y,-z
1/2+x,1/2+y,-z
1/2-x,1/2+y,z
1/2+x,1/2-y,z
loop_
_atom_site_type_symbol
_atom_site_label
_atom_site_fract_x
_atom_site_fract_y
_atom_site_fract_z
Si Si1 0.000000 0.695637 0.084031
Si Si2 0.824910 0.681279 0.848132
Si Si3 0.300544 0.309190 0.000000
Si Si4 0.581785 0.313360 0.179863
Si Si5 0.701344 0.312135 0.700798
Si Si6 0.052724 0.500000 0.585024
Si Si7 0.900566 0.807148 0.658760
O O1 0.957873 0.766378 0.127285
O O2 0.000000 0.500000 0.088438
O O3 0.000000 0.738751 0.000000
O O4 0.807122 0.500000 0.843178
O O5 0.877470 0.692487 0.832907
O O6 0.801883 0.781486 0.785426
O O7 0.820269 0.744050 0.927232
O O8 0.250000 0.250000 0.000000
O O9 0.303618 0.500000 0.000000
O O10 0.596074 0.500000 0.165608
O O11 0.574394 0.305029 0.264485
O O12 0.701649 0.500000 0.686810
O O13 0.750000 0.250000 0.675388
O O14 0.652402 0.258008 0.670469
O O15 0.054938 0.500000 0.500000
O O16 0.076402 0.334407 0.612957
O O17 0.000000 0.500000 0.606447
O O18 0.902031 0.000000 0.635587
#
# Coordination Sequence:
#
# PCOD9490388 Si02
#       7
#     8  16   8  16  16   8  16
#     4  11  25  39  55  83 117 158 209 264 323 385
#     4  11  22  36  54  77 110 148 196 252 309 368
#     4  12  24  38  52  69 100 145 190 244 304 364
#     4  10  22  39  59  84 114 155 205 256 313 367
#     4  10  20  35  59  93 124 162 209 258 311 371
#     4  11  26  44  70 104 134 174 214 254 323 389
#     4   9  22  41  65  99 134 169 215 267 318 380
#
# _framework density 18.987760999999999
#
# number of rings (size 3 to 8) (size 9 to 14) (size 15 to 20)
#    0.000    1.636    0.000    5.455   10.182    1.455 
#    0.000    0.909    0.000    0.545    0.000    0.000 
#    0.000    0.000    0.000    0.000    0.000    0.000 
#
# Total GULP energy -245231.470178 kJ/mol
# GULP energy per Si atom -5573.442504 kJ/mol
# Density = 1.894454 g / cm^3
# Si number density = 18.987761 Si / 1000 Ang^3
#
#
#
# Elastic Constant Matrix: (Units=GPa)
#
#
# Indices 1 2 3 4 5 6 
#
# 1 108.9696 43.1137 42.3097 0.0000 0.0000 0.0000
# 2 43.1137 79.7208 42.5243 0.0000 0.0000 0.0000
# 3 42.3097 42.5243 64.8997 0.0000 0.0000 0.0000
# 4 0.0000 0.0000 0.0000 26.0910 0.0000 0.0000
# 5 0.0000 0.0000 0.0000 0.0000 18.5659 0.0000
# 6 0.0000 0.0000 0.0000 0.0000 0.0000 35.4870
#
#
#
# Elastic Compliance Matrix: (Units=1/GPa)
#
#
# Indices 1 2 3 4 5 6 
#
# 1 0.013018 -0.003864 -0.005955 0.000000 0.000000 0.000000
# 2 -0.003864 0.020430 -0.010868 0.000000 0.000000 0.000000
# 3 -0.005955 -0.010868 0.026412 0.000000 0.000000 0.000000
# 4 0.000000 0.000000 0.000000 0.038327 0.000000 0.000000
# 5 0.000000 0.000000 0.000000 0.000000 0.053862 0.000000
# 6 0.000000 0.000000 0.000000 0.000000 0.000000 0.028179
#
#
# Mechanical properties :
#
#
# Convention : Reuss Voigt Hill
#
# Bulk Modulus (GPa) = 54.09289 56.60951 55.35120
# Shear Modulus (GPa) = 21.95260 24.40493 23.17876
#
# Velocity S-wave (km/s) = 3.40390 3.58899 3.49767
# Velocity P-wave (km/s) = 6.63316 6.85951 6.74729
#
# Compressibility (1/GPa) = 0.01848672
#
# Stress axis : x y z
#
# Youngs Moduli (GPa) = 76.81882 48.94689 37.86224
#
# Poissons Ratio (x) = 0.18911 0.22547
# Poissons Ratio (y) = 0.29680 0.41148
# Poissons Ratio (z) = 0.45746 0.53195
#
# Static dielectric constant tensor:
#      x y z
#    x 1.714200 0.000000 0.000000 
#    y 0.000000 1.668480 0.000000 
#    z 0.000000 0.000000 1.568850 
# 
# From -- ./inp_files/58063.got.cif
#   From: 2010.05.17/outbox.cif.g08.bks.cpg/sg65_30_cif.got.tgz:58063.got - 2010.06.03 17:01:31.
