data_PCOD9490709
_publ_section_title
;
Structure prediction by ZEFSAII (Michael W. Deem and Ramdas Pophale) SiO2 
 PCOD9490709
Probable space group: C M M M
;
_chemical_formula_sum "Si O2"
_cell_formula_units_Z 68
_cell_length_a 11.739081
_cell_length_b 20.133189
_cell_length_c 13.187002
_cell_angle_alpha 90.000000
_cell_angle_beta 90.000000
_cell_angle_gamma 90.000000
_cell_volume 3116.683787
_symmetry_space_group_name_H-M "C M M M"
_symmetry_group_IT_number 65
_symmetry_cell_setting 'orthorhombic'
loop_
_space_group_symop_operation_xyz
x,y,z
-x,-y,z
x,-y,-z
-x,y,-z
-x,-y,-z
x,y,-z
-x,y,z
x,-y,z
1/2+x,1/2+y,z
1/2-x,1/2-y,z
1/2+x,1/2-y,-z
1/2-x,1/2+y,-z
1/2-x,1/2-y,-z
1/2+x,1/2+y,-z
1/2-x,1/2+y,z
1/2+x,1/2-y,z
loop_
_atom_site_type_symbol
_atom_site_label
_atom_site_fract_x
_atom_site_fract_y
_atom_site_fract_z
Si Si1 0.251070 0.104093 0.388021
Si Si2 0.500000 0.767529 0.220608
Si Si3 0.000000 0.614379 0.616404
Si Si4 0.375372 0.422073 0.816385
Si Si5 0.281477 0.080916 0.000000
Si Si6 0.750000 0.250000 0.691481
Si Si7 0.500000 0.172635 0.000000
O O1 0.208395 0.087562 0.500000
O O2 0.379736 0.077277 0.375591
O O3 0.171962 0.082499 0.296577
O O4 0.262869 0.183770 0.375217
O O5 0.500000 0.833202 0.292302
O O6 0.628443 0.739663 0.248631
O O7 0.500000 0.784542 0.102342
O O8 0.000000 0.642736 0.500000
O O9 0.500000 0.390691 0.825170
O O10 0.385961 0.500000 0.840521
O O11 0.287985 0.397534 0.900154
O O12 0.394648 0.122637 0.000000
O O13 0.298751 0.000000 0.000000
#
# Coordination Sequence:
#
# PCOD9490709 Si02
#       7
#    16   8   8  16   8   8   4
#     4  10  20  36  60  87 118 156 199 251 303 354
#     4  10  22  37  58  82 120 154 195 247 308 351
#     4   8  16  34  56  80 111 147 187 239 298 345
#     4  10  22  39  59  87 122 158 199 245 298 357
#     4  10  20  38  65  89 112 152 202 242 289 359
#     4  10  21  39  58  86 118 163 209 252 292 370
#     4  12  23  40  60  88 122 150 183 252 314 358
#
# _framework density 21.818064
#
# number of rings (size 3 to 8) (size 9 to 14) (size 15 to 20)
#    0.000    2.118    0.000    3.706    1.647    3.765 
#    0.000    4.118    0.000    2.118    0.000    0.000 
#    0.000    0.000    0.000    0.000    0.000    0.000 
#
# Total GULP energy -189619.196399 kJ/mol
# GULP energy per Si atom -5577.035188 kJ/mol
# Density = 2.176841 g / cm^3
# Si number density = 21.818064 Si / 1000 Ang^3
#
#
#
# Elastic Constant Matrix: (Units=GPa)
#
#
# Indices 1 2 3 4 5 6 
#
# 1 177.8117 16.6472 74.3082 0.0000 0.0000 0.0000
# 2 16.6472 44.5606 3.1384 0.0000 0.0000 0.0000
# 3 74.3082 3.1384 152.8064 0.0000 0.0000 0.0000
# 4 0.0000 0.0000 0.0000 13.4764 0.0000 0.0000
# 5 0.0000 0.0000 0.0000 0.0000 30.7538 0.0000
# 6 0.0000 0.0000 0.0000 0.0000 0.0000 20.3620
#
#
#
# Elastic Compliance Matrix: (Units=1/GPa)
#
#
# Indices 1 2 3 4 5 6 
#
# 1 0.007324 -0.002489 -0.003510 0.000000 0.000000 0.000000
# 2 -0.002489 0.023320 0.000731 0.000000 0.000000 0.000000
# 3 -0.003510 0.000731 0.008236 0.000000 0.000000 0.000000
# 4 0.000000 0.000000 0.000000 0.074204 0.000000 0.000000
# 5 0.000000 0.000000 0.000000 0.000000 0.032516 0.000000
# 6 0.000000 0.000000 0.000000 0.000000 0.000000 0.049111
#
#
# Mechanical properties :
#
#
# Convention : Reuss Voigt Hill
#
# Bulk Modulus (GPa) = 35.28085 62.59626 48.93855
# Shear Modulus (GPa) = 23.28883 31.65741 27.47312
#
# Velocity S-wave (km/s) = 3.27067 3.81330 3.55236
# Velocity P-wave (km/s) = 5.51984 6.93835 6.26934
#
# Compressibility (1/GPa) = 0.02834399
#
# Stress axis : x y z
#
# Youngs Moduli (GPa) = 136.53778 42.88226 121.41360
#
# Poissons Ratio (x) = 0.10673 0.42622
# Poissons Ratio (y) = 0.33983 -0.08880
# Poissons Ratio (z) = 0.47931 -0.03136
#
# Static dielectric constant tensor:
#      x y z
#    x 1.856580 0.000000 0.000000 
#    y 0.000000 1.841860 0.000000 
#    z 0.000000 0.000000 1.733410 
# 
# From -- ./inp_files/22592.got.cif
#   From: 2010.05.17/outbox.cif.g08.bks.cpg/sg65_12_cif.got.tgz:22592.got - 2010.06.03 17:01:31.
