data_PCOD9490331
_publ_section_title
;
Structure prediction by ZEFSAII (Michael W. Deem and Ramdas Pophale) SiO2 
 PCOD9490331
Probable space group: C M M M
;
_chemical_formula_sum "Si O2"
_cell_formula_units_Z 64
_cell_length_a 34.351289
_cell_length_b 11.025211
_cell_length_c 7.654859
_cell_angle_alpha 90.000000
_cell_angle_beta 90.000000
_cell_angle_gamma 90.000000
_cell_volume 2899.126352
_symmetry_space_group_name_H-M "C M M M"
_symmetry_group_IT_number 65
_symmetry_cell_setting 'orthorhombic'
loop_
_space_group_symop_operation_xyz
x,y,z
-x,-y,z
x,-y,-z
-x,y,-z
-x,-y,-z
x,y,-z
-x,y,z
x,-y,z
1/2+x,1/2+y,z
1/2-x,1/2-y,z
1/2+x,1/2-y,-z
1/2-x,1/2+y,-z
1/2-x,1/2-y,-z
1/2+x,1/2+y,-z
1/2-x,1/2+y,z
1/2+x,1/2-y,z
loop_
_atom_site_type_symbol
_atom_site_label
_atom_site_fract_x
_atom_site_fract_y
_atom_site_fract_z
Si Si1 0.292357 0.000000 0.200283
Si Si2 0.500000 0.857491 0.200758
Si Si3 0.166077 0.257083 0.212309
Si Si4 0.453894 0.500000 0.288798
Si Si5 0.205003 0.000000 0.700883
Si Si6 0.578756 0.243184 0.797612
O O1 0.308310 0.872189 0.273946
O O2 0.245834 0.000000 0.199139
O O3 0.306540 0.000000 0.000000
O O4 0.540536 0.817575 0.284875
O O5 0.500000 0.000000 0.189117
O O6 0.500000 0.806135 0.000000
O O7 0.181622 0.124294 0.264442
O O8 0.121728 0.276191 0.275011
O O9 0.166210 0.254772 0.000000
O O10 0.500000 0.500000 0.243036
O O11 0.451450 0.500000 0.500000
O O12 0.432114 0.383813 0.214214
O O13 0.216423 0.000000 0.500000
O O14 0.580643 0.201504 0.000000
#
# Coordination Sequence:
#
# PCOD9490331 Si02
#       6
#     8   8  16   8   8  16
#     4  10  22  41  65  91 121 153 190 240 299 358
#     4   9  18  31  53  84 116 147 182 231 282 329
#     4  10  22  39  62  91 121 154 194 242 295 352
#     4  11  22  35  52  76 110 151 195 238 281 328
#     4  12  25  41  62  88 119 156 199 241 292 354
#     4  10  20  35  58  86 115 148 189 234 283 338
#
# _framework density 22.075616
#
# number of rings (size 3 to 8) (size 9 to 14) (size 15 to 20)
#    0.000    1.750    1.250    3.000    1.750    8.500 
#    0.000    0.000    0.000    1.500    0.000    0.000 
#    0.000    0.000    0.000    0.000    0.000    0.000 
#
# Total GULP energy -178635.273501 kJ/mol
# GULP energy per Si atom -5582.352297 kJ/mol
# Density = 2.202537 g / cm^3
# Si number density = 22.075616 Si / 1000 Ang^3
#
#
#
# Elastic Constant Matrix: (Units=GPa)
#
#
# Indices 1 2 3 4 5 6 
#
# 1 169.2817 68.0018 -9.5742 0.0000 0.0000 0.0000
# 2 68.0018 134.6332 -1.7875 0.0000 0.0000 0.0000
# 3 -9.5742 -1.7875 54.6765 0.0000 0.0000 0.0000
# 4 0.0000 0.0000 0.0000 13.7996 0.0000 0.0000
# 5 0.0000 0.0000 0.0000 0.0000 -16.9907 0.0000
# 6 0.0000 0.0000 0.0000 0.0000 0.0000 -61.9078
#
#
#
# Elastic Compliance Matrix: (Units=1/GPa)
#
#
# Indices 1 2 3 4 5 6 
#
# 1 0.007487 -0.003766 0.001188 0.000000 0.000000 0.000000
# 2 -0.003766 0.009325 -0.000355 0.000000 0.000000 0.000000
# 3 0.001188 -0.000355 0.018486 0.000000 0.000000 0.000000
# 4 0.000000 0.000000 0.000000 0.072466 0.000000 0.000000
# 5 0.000000 0.000000 0.000000 0.000000 -0.058856 0.000000
# 6 0.000000 0.000000 0.000000 0.000000 0.000000 -0.016153
#
#
# Mechanical properties :
#
#
# Convention : Reuss Voigt Hill
#
# Bulk Modulus (GPa) = 33.97554 52.43018 43.20286
# Shear Modulus (GPa) = 103.23861 7.11031 55.17446
#
# Velocity S-wave (km/s) = 6.84598 1.79663 5.00476
# Velocity P-wave (km/s) = 8.82688 5.30148 7.28078
#
# Compressibility (1/GPa) = 0.02943294
#
# Stress axis : x y z
#
# Youngs Moduli (GPa) = 133.55890 107.23811 54.09551
#
# Poissons Ratio (x) = 0.40386 -0.06426
# Poissons Ratio (y) = 0.50298 0.01918
# Poissons Ratio (z) = -0.15866 0.03803
#
# Static dielectric constant tensor:
#      x y z
#    x 1.822390 0.000000 0.000000 
#    y 0.000000 1.712850 0.000000 
#    z 0.000000 0.000000 1.821390 
# 
# From -- ./inp_files/5004.got.cif
#   From: 2010.05.17/outbox.cif.g08.bks.cpg/sg65_3_cif.got.tgz:5004.got - 2010.06.03 17:01:31.
