data_PCOD9490998
_publ_section_title
;
Structure prediction by ZEFSAII (Michael W. Deem and Ramdas Pophale) SiO2 
 PCOD9490998
Probable space group: C M M M
;
_chemical_formula_sum "Si O2"
_cell_formula_units_Z 96
_cell_length_a 19.498046
_cell_length_b 22.554345
_cell_length_c 11.424684
_cell_angle_alpha 90.000000
_cell_angle_beta 90.000000
_cell_angle_gamma 90.000000
_cell_volume 5024.183657
_symmetry_space_group_name_H-M "C M M M"
_symmetry_group_IT_number 65
_symmetry_cell_setting 'orthorhombic'
loop_
_space_group_symop_operation_xyz
x,y,z
-x,-y,z
x,-y,-z
-x,y,-z
-x,-y,-z
x,y,-z
-x,y,z
x,-y,z
1/2+x,1/2+y,z
1/2-x,1/2-y,z
1/2+x,1/2-y,-z
1/2-x,1/2+y,-z
1/2-x,1/2-y,-z
1/2+x,1/2+y,-z
1/2-x,1/2+y,z
1/2+x,1/2-y,z
loop_
_atom_site_type_symbol
_atom_site_label
_atom_site_fract_x
_atom_site_fract_y
_atom_site_fract_z
Si Si1 0.803776 0.197207 0.000000
Si Si2 0.581736 0.792904 0.000000
Si Si3 0.577865 0.265407 0.361286
Si Si4 0.079845 0.640545 0.758494
Si Si5 0.695408 0.069148 0.361197
Si Si6 0.577148 0.570701 0.131386
Si Si7 0.816083 0.143914 0.251319
O O1 0.750000 0.250000 0.000000
O O2 0.792508 0.162685 0.878749
O O3 0.877335 0.231082 0.000000
O O4 0.598216 0.831418 0.884812
O O5 0.500000 0.781308 0.000000
O O6 0.579416 0.273973 0.500000
O O7 0.500000 0.281945 0.319253
O O8 0.586181 0.196499 0.329095
O O9 0.640340 0.302139 0.305748
O O10 0.129657 0.589427 0.713773
O O11 0.000000 0.622274 0.762122
O O12 0.681720 0.073979 0.500000
O O13 0.755360 0.115272 0.325711
O O14 0.713394 0.000000 0.336802
O O15 0.500000 0.592386 0.150168
O O16 0.575949 0.500000 0.130760
O O17 0.627583 0.593578 0.228476
O O18 0.598282 0.589874 0.000000
#
# Coordination Sequence:
#
# PCOD9490998 Si02
#       7
#     8   8  16  16  16  16  16
#     4  12  24  36  54  86 124 160 192 234 294 373
#     4  10  20  38  64  96 130 160 188 236 308 378
#     4  10  21  36  58  90 123 157 197 241 294 357
#     4  10  21  41  67  94 124 154 195 252 313 374
#     4  11  26  45  63  85 117 164 217 262 305 354
#     4   9  18  33  53  80 113 149 192 239 288 346
#     4  12  22  37  59  85 121 159 199 244 302 359
#
# _framework density 19.107583000000002
#
# number of rings (size 3 to 8) (size 9 to 14) (size 15 to 20)
#    0.000    1.500    2.500    3.500    0.000    2.000 
#    0.000    3.750    0.000    1.500    0.000    7.000 
#    0.000    0.000    0.000    0.000    0.000    0.000 
#
# Total GULP energy -267936.977385 kJ/mol
# GULP energy per Si atom -5582.020362 kJ/mol
# Density = 1.906409 g / cm^3
# Si number density = 19.107583 Si / 1000 Ang^3
#
#
#
# Elastic Constant Matrix: (Units=GPa)
#
#
# Indices 1 2 3 4 5 6 
#
# 1 51.5084 16.1174 6.6433 0.0000 0.0000 0.0000
# 2 16.1174 55.0076 15.7036 0.0000 0.0000 0.0000
# 3 6.6433 15.7036 58.9457 0.0000 0.0000 0.0000
# 4 0.0000 0.0000 0.0000 29.4430 0.0000 0.0000
# 5 0.0000 0.0000 0.0000 0.0000 26.2197 0.0000
# 6 0.0000 0.0000 0.0000 0.0000 0.0000 44.8438
#
#
#
# Elastic Compliance Matrix: (Units=1/GPa)
#
#
# Indices 1 2 3 4 5 6 
#
# 1 0.021409 -0.006044 -0.000803 0.000000 0.000000 0.000000
# 2 -0.006044 0.021382 -0.005015 0.000000 0.000000 0.000000
# 3 -0.000803 -0.005015 0.018391 0.000000 0.000000 0.000000
# 4 0.000000 0.000000 0.000000 0.033964 0.000000 0.000000
# 5 0.000000 0.000000 0.000000 0.000000 0.038139 0.000000
# 6 0.000000 0.000000 0.000000 0.000000 0.000000 0.022300
#
#
# Mechanical properties :
#
#
# Convention : Reuss Voigt Hill
#
# Bulk Modulus (GPa) = 26.69591 26.93224 26.81407
# Shear Modulus (GPa) = 26.06958 28.56781 27.31869
#
# Velocity S-wave (km/s) = 3.69773 3.87085 3.78528
# Velocity P-wave (km/s) = 5.67738 5.83983 5.75918
#
# Compressibility (1/GPa) = 0.03745893
#
# Stress axis : x y z
#
# Youngs Moduli (GPa) = 46.70934 46.76856 54.37350
#
# Poissons Ratio (x) = 0.28266 0.04365
# Poissons Ratio (y) = 0.28230 0.27269
# Poissons Ratio (z) = 0.03750 0.23455
#
# Static dielectric constant tensor:
#      x y z
#    x 1.691770 0.000000 0.000000 
#    y 0.000000 1.657780 0.000000 
#    z 0.000000 0.000000 1.661140 
# 
# From -- ./inp_files/29049.got.cif
#   From: 2010.05.17/outbox.cif.g08.bks.cpg/sg65_15_cif.got.tgz:29049.got - 2010.06.03 17:01:31.
