data_PCOD9490282
_publ_section_title
;
Structure prediction by ZEFSAII (Michael W. Deem and Ramdas Pophale) SiO2 
 PCOD9490282
Probable space group: C M M M
;
_chemical_formula_sum "Si O2"
_cell_formula_units_Z 72
_cell_length_a 8.386157
_cell_length_b 24.245067
_cell_length_c 18.385709
_cell_angle_alpha 90.000000
_cell_angle_beta 90.000000
_cell_angle_gamma 90.000000
_cell_volume 3738.236377
_symmetry_space_group_name_H-M "C M M M"
_symmetry_group_IT_number 65
_symmetry_cell_setting 'orthorhombic'
loop_
_space_group_symop_operation_xyz
x,y,z
-x,-y,z
x,-y,-z
-x,y,-z
-x,-y,-z
x,y,-z
-x,y,z
x,-y,z
1/2+x,1/2+y,z
1/2-x,1/2-y,z
1/2+x,1/2-y,-z
1/2-x,1/2+y,-z
1/2-x,1/2-y,-z
1/2+x,1/2+y,-z
1/2-x,1/2+y,z
1/2+x,1/2-y,z
loop_
_atom_site_type_symbol
_atom_site_label
_atom_site_fract_x
_atom_site_fract_y
_atom_site_fract_z
Si Si1 0.190797 0.312272 0.214247
Si Si2 0.694414 0.000000 0.317348
Si Si3 0.694822 0.120763 0.642855
Si Si4 0.693028 0.812874 0.500000
Si Si5 0.308521 0.000000 0.852413
Si Si6 0.309030 0.385027 0.917571
O O1 0.250000 0.250000 0.220526
O O2 0.246151 0.348377 0.283449
O O3 0.247705 0.340748 0.140272
O O4 0.000000 0.312661 0.215068
O O5 0.746884 0.057045 0.354116
O O6 0.500000 0.000000 0.318415
O O7 0.741617 0.000000 0.232372
O O8 0.500000 0.120556 0.642564
O O9 0.746769 0.154479 0.572062
O O10 0.500000 0.812604 0.500000
O O11 0.750000 0.750000 0.500000
O O12 0.247477 0.945146 0.891436
O O13 0.500000 0.000000 0.853703
O O14 0.500000 0.384095 0.917261
O O15 0.252954 0.374550 0.000000
#
# Coordination Sequence:
#
# PCOD9490282 Si02
#       6
#    16   8  16   8   8  16
#     4  11  22  38  59  83 113 152 197 243 291 348
#     4   9  16  31  56  86 115 142 181 235 282 332
#     4   9  18  33  56  86 117 148 189 235 284 340
#     4  10  20  35  57  85 117 154 191 232 280 333
#     4  11  20  36  62  88 117 151 190 237 289 345
#     4  11  24  40  58  84 117 151 192 242 292 346
#
# _framework density 19.26042
#
# number of rings (size 3 to 8) (size 9 to 14) (size 15 to 20)
#    0.000    1.778    2.222    2.667    0.000    4.000 
#    0.000    3.333    0.000    0.000    0.000    0.778 
#    0.000    0.000    0.000    0.000    0.000    0.000 
#
# Total GULP energy -201133.755482 kJ/mol
# GULP energy per Si atom -5587.048763 kJ/mol
# Density = 1.921658 g / cm^3
# Si number density = 19.260420 Si / 1000 Ang^3
#
#
#
# Elastic Constant Matrix: (Units=GPa)
#
#
# Indices 1 2 3 4 5 6 
#
# 1 25.7529 19.6591 21.4635 0.0000 0.0000 0.0000
# 2 19.6591 203.8491 109.1210 0.0000 0.0000 0.0000
# 3 21.4635 109.1210 174.4260 0.0000 0.0000 0.0000
# 4 0.0000 0.0000 0.0000 -26.6225 0.0000 0.0000
# 5 0.0000 0.0000 0.0000 0.0000 2.6557 0.0000
# 6 0.0000 0.0000 0.0000 0.0000 0.0000 -3.2703
#
#
#
# Elastic Compliance Matrix: (Units=1/GPa)
#
#
# Indices 1 2 3 4 5 6 
#
# 1 0.043811 -0.002014 -0.004131 0.000000 0.000000 0.000000
# 2 -0.002014 0.007468 -0.004424 0.000000 0.000000 0.000000
# 3 -0.004131 -0.004424 0.009009 0.000000 0.000000 0.000000
# 4 0.000000 0.000000 0.000000 -0.037562 0.000000 0.000000
# 5 0.000000 0.000000 0.000000 0.000000 0.376550 0.000000
# 6 0.000000 0.000000 0.000000 0.000000 0.000000 -0.305783
#
#
# Mechanical properties :
#
#
# Convention : Reuss Voigt Hill
#
# Bulk Modulus (GPa) = 25.54286 78.27947 51.91116
# Shear Modulus (GPa) = 39.15990 11.47154 25.31572
#
# Velocity S-wave (km/s) = 4.51397 2.44314 3.62939
# Velocity P-wave (km/s) = 6.36070 6.97779 6.67638
#
# Compressibility (1/GPa) = 0.03914989
#
# Stress axis : x y z
#
# Youngs Moduli (GPa) = 22.82539 133.90278 110.99660
#
# Poissons Ratio (x) = 0.26963 0.45856
# Poissons Ratio (y) = 0.04596 0.49108
# Poissons Ratio (z) = 0.09430 0.59242
#
# Static dielectric constant tensor:
#      x y z
#    x 1.670120 0.000000 0.000000 
#    y 0.000000 1.634990 0.000000 
#    z 0.000000 0.000000 1.661210 
# 
# From -- ./inp_files/49535.got.cif
#   From: 2010.05.17/outbox.cif.g08.bks.cpg/sg65_25_cif.got.tgz:49535.got - 2010.06.03 17:01:31.
