data_PCOD9490714
_publ_section_title
;
Structure prediction by ZEFSAII (Michael W. Deem and Ramdas Pophale) SiO2 
 PCOD9490714
Probable space group: C M M M
;
_chemical_formula_sum "Si O2"
_cell_formula_units_Z 72
_cell_length_a 9.316594
_cell_length_b 28.963018
_cell_length_c 14.103056
_cell_angle_alpha 90.000000
_cell_angle_beta 90.000000
_cell_angle_gamma 90.000000
_cell_volume 3805.521805
_symmetry_space_group_name_H-M "C M M M"
_symmetry_group_IT_number 65
_symmetry_cell_setting 'orthorhombic'
loop_
_space_group_symop_operation_xyz
x,y,z
-x,-y,z
x,-y,-z
-x,y,-z
-x,-y,-z
x,y,-z
-x,y,z
x,-y,z
1/2+x,1/2+y,z
1/2-x,1/2-y,z
1/2+x,1/2-y,-z
1/2-x,1/2+y,-z
1/2-x,1/2-y,-z
1/2+x,1/2+y,-z
1/2-x,1/2+y,z
1/2+x,1/2-y,z
loop_
_atom_site_type_symbol
_atom_site_label
_atom_site_fract_x
_atom_site_fract_y
_atom_site_fract_z
Si Si1 0.175234 0.198870 0.000000
Si Si2 0.837783 0.789056 0.685074
Si Si3 0.834669 0.574169 0.500000
Si Si4 0.329675 0.946185 0.286755
Si Si5 0.335486 0.184747 0.500000
Si Si6 0.162898 0.129450 0.829067
O O1 0.250000 0.250000 0.000000
O O2 0.212365 0.164950 0.088563
O O3 0.000000 0.205786 0.000000
O O4 0.750000 0.750000 0.741190
O O5 0.748782 0.798036 0.590912
O O6 0.843003 0.836809 0.739273
O O7 0.000000 0.773567 0.668311
O O8 0.774272 0.559998 0.603663
O O9 0.835016 0.629413 0.500000
O O10 0.000000 0.556758 0.500000
O O11 0.500000 0.934647 0.289368
O O12 0.255438 0.913514 0.208603
O O13 0.313404 0.000000 0.262481
O O14 0.500000 0.200019 0.500000
O O15 0.000000 0.114505 0.853667
#
# Coordination Sequence:
#
# PCOD9490714 Si02
#       6
#     8  16   8  16   8  16
#     4  10  22  42  65  90 115 147 188 235 289 346
#     4  11  22  35  52  77 109 146 185 230 278 334
#     4   9  17  32  55  82 113 151 191 233 279 327
#     4  10  20  36  60  88 117 151 193 237 281 332
#     4  11  20  33  53  76 107 150 188 225 275 333
#     4  10  22  39  59  83 114 146 185 235 287 342
#
# _framework density 18.919877
#
# number of rings (size 3 to 8) (size 9 to 14) (size 15 to 20)
#    0.000    1.778    2.222    2.333    0.000    3.556 
#    0.000    1.111    0.000    4.667    0.000    0.000 
#    0.000    0.000    0.000    0.000    0.000    0.000 
#
# Total GULP energy -200555.148310 kJ/mol
# GULP energy per Si atom -5570.976342 kJ/mol
# Density = 1.887681 g / cm^3
# Si number density = 18.919877 Si / 1000 Ang^3
#
#
#
# Elastic Constant Matrix: (Units=GPa)
#
#
# Indices 1 2 3 4 5 6 
#
# 1 94.3668 50.3145 38.4586 0.0000 0.0000 0.0000
# 2 50.3145 122.1295 47.8705 0.0000 0.0000 0.0000
# 3 38.4586 47.8705 104.3583 0.0000 0.0000 0.0000
# 4 0.0000 0.0000 0.0000 30.2311 0.0000 0.0000
# 5 0.0000 0.0000 0.0000 0.0000 20.6541 0.0000
# 6 0.0000 0.0000 0.0000 0.0000 0.0000 32.9249
#
#
#
# Elastic Compliance Matrix: (Units=1/GPa)
#
#
# Indices 1 2 3 4 5 6 
#
# 1 0.014381 -0.004691 -0.003148 0.000000 0.000000 0.000000
# 2 -0.004691 0.011513 -0.003553 0.000000 0.000000 0.000000
# 3 -0.003148 -0.003553 0.012372 0.000000 0.000000 0.000000
# 4 0.000000 0.000000 0.000000 0.033079 0.000000 0.000000
# 5 0.000000 0.000000 0.000000 0.000000 0.048417 0.000000
# 6 0.000000 0.000000 0.000000 0.000000 0.000000 0.030372
#
#
# Mechanical properties :
#
#
# Convention : Reuss Voigt Hill
#
# Bulk Modulus (GPa) = 64.58500 66.01577 65.30038
# Shear Modulus (GPa) = 28.07780 29.04276 28.56028
#
# Velocity S-wave (km/s) = 3.85650 3.92221 3.88949
# Velocity P-wave (km/s) = 7.35121 7.44847 7.40000
#
# Compressibility (1/GPa) = 0.01548347
#
# Stress axis : x y z
#
# Youngs Moduli (GPa) = 69.53680 86.85880 80.82715
#
# Poissons Ratio (x) = 0.40743 0.25445
# Poissons Ratio (y) = 0.32617 0.28714
# Poissons Ratio (z) = 0.21890 0.30857
#
# Static dielectric constant tensor:
#      x y z
#    x 1.691480 0.000000 0.000000 
#    y 0.000000 1.665550 0.000000 
#    z 0.000000 0.000000 1.707580 
# 
# From -- ./inp_files/36649.got.cif
#   From: 2010.05.17/outbox.cif.g08.bks.cpg/sg65_19_cif.got.tgz:36649.got - 2010.06.03 17:01:31.
