data_PCOD9490001
_publ_section_title
;
Structure prediction by ZEFSAII (Michael W. Deem and Ramdas Pophale) SiO2 
 PCOD9490001
Probable space group: C M M M
;
_chemical_formula_sum "Si O2"
_cell_formula_units_Z 80
_cell_length_a 27.025655
_cell_length_b 8.901521
_cell_length_c 17.879522
_cell_angle_alpha 90.000000
_cell_angle_beta 90.000000
_cell_angle_gamma 90.000000
_cell_volume 4301.266515
_symmetry_space_group_name_H-M "C M M M"
_symmetry_group_IT_number 65
_symmetry_cell_setting 'orthorhombic'
loop_
_space_group_symop_operation_xyz
x,y,z
-x,-y,z
x,-y,-z
-x,y,-z
-x,-y,-z
x,y,-z
-x,y,z
x,-y,z
1/2+x,1/2+y,z
1/2-x,1/2-y,z
1/2+x,1/2-y,-z
1/2-x,1/2+y,-z
1/2-x,1/2-y,-z
1/2+x,1/2+y,-z
1/2-x,1/2+y,z
1/2+x,1/2-y,z
loop_
_atom_site_type_symbol
_atom_site_label
_atom_site_fract_x
_atom_site_fract_y
_atom_site_fract_z
Si Si1 0.904872 0.680101 0.835320
Si Si2 0.092770 0.182014 0.330480
Si Si3 0.000000 0.674612 0.589199
Si Si4 0.301327 0.325314 0.158383
Si Si5 0.000000 0.826268 0.910732
Si Si6 0.200225 0.827509 0.659175
O O1 0.904905 0.500000 0.833348
O O2 0.911368 0.747440 0.752016
O O3 0.851527 0.739883 0.863941
O O4 0.950884 0.743231 0.881990
O O5 0.146234 0.231321 0.363017
O O6 0.047941 0.241755 0.379119
O O7 0.092629 0.000000 0.324672
O O8 0.000000 0.500000 0.613746
O O9 0.000000 0.678775 0.500000
O O10 0.303661 0.500000 0.136637
O O11 0.250000 0.250000 0.132619
O O12 0.300162 0.320515 0.249648
O O13 0.000000 0.000000 0.883878
O O14 0.000000 0.826918 0.000000
O O15 0.250000 0.750000 0.632449
O O16 0.202894 0.000000 0.637036
#
# Coordination Sequence:
#
# PCOD9490001 Si02
#       6
#    16  16   8  16   8  16
#     4  11  21  34  55  82 111 141 175 218 266 315
#     4  10  20  35  55  79 107 139 177 216 257 311
#     4  11  24  39  54  75 103 135 174 221 272 321
#     4   9  16  28  47  75 109 141 175 214 259 309
#     4  11  24  41  58  75 101 139 180 223 270 319
#     4   8  15  26  44  72 103 133 164 204 250 297
#
# _framework density 18.599171999999999
#
# number of rings (size 3 to 8) (size 9 to 14) (size 15 to 20)
#    0.000    2.200    0.000    5.400    0.000    7.200 
#    0.000    0.000    0.000    1.200    0.000    0.000 
#    0.000    0.000    0.000    0.000    0.000    0.000 
#
# Total GULP energy -223156.687177 kJ/mol
# GULP energy per Si atom -5578.917179 kJ/mol
# Density = 1.855684 g / cm^3
# Si number density = 18.599172 Si / 1000 Ang^3
#
#
#
# Elastic Constant Matrix: (Units=GPa)
#
#
# Indices 1 2 3 4 5 6 
#
# 1 218.9217 93.9633 43.3963 0.0000 0.0000 0.0000
# 2 93.9633 146.6795 27.9150 0.0000 0.0000 0.0000
# 3 43.3963 27.9150 22.8739 0.0000 0.0000 0.0000
# 4 0.0000 0.0000 0.0000 15.2039 0.0000 0.0000
# 5 0.0000 0.0000 0.0000 0.0000 -11.8685 0.0000
# 6 0.0000 0.0000 0.0000 0.0000 0.0000 36.5450
#
#
#
# Elastic Compliance Matrix: (Units=1/GPa)
#
#
# Indices 1 2 3 4 5 6 
#
# 1 0.008220 -0.002993 -0.011942 0.000000 0.000000 0.000000
# 2 -0.002993 0.009970 -0.006489 0.000000 0.000000 0.000000
# 3 -0.011942 -0.006489 0.074293 0.000000 0.000000 0.000000
# 4 0.000000 0.000000 0.000000 0.065773 0.000000 0.000000
# 5 0.000000 0.000000 0.000000 0.000000 -0.084257 0.000000
# 6 0.000000 0.000000 0.000000 0.000000 0.000000 0.027364
#
#
# Mechanical properties :
#
#
# Convention : Reuss Voigt Hill
#
# Bulk Modulus (GPa) = 20.14701 79.89158 50.01929
# Shear Modulus (GPa) = 31.10348 22.85613 26.97980
#
# Velocity S-wave (km/s) = 4.09382 3.50934 3.81280
# Velocity P-wave (km/s) = 5.76208 7.71157 6.80697
#
# Compressibility (1/GPa) = 0.04963517
#
# Stress axis : x y z
#
# Youngs Moduli (GPa) = 121.66094 100.30371 13.46022
#
# Poissons Ratio (x) = 0.30019 0.16074
# Poissons Ratio (y) = 0.36411 0.08734
# Poissons Ratio (z) = 1.45285 0.65087
#
# Static dielectric constant tensor:
#      x y z
#    x 1.658150 0.000000 0.000000 
#    y 0.000000 1.630950 0.000000 
#    z 0.000000 0.000000 1.613110 
# 
# From -- ./inp_files/57326.got.cif
#   From: 2010.05.17/outbox.cif.g08.bks.cpg/sg65_29_cif.got.tgz:57326.got - 2010.06.03 17:01:31.
