data_PCOD9490422
_publ_section_title
;
Structure prediction by ZEFSAII (Michael W. Deem and Ramdas Pophale) SiO2 
 PCOD9490422
Probable space group: C M M M
;
_chemical_formula_sum "Si O2"
_cell_formula_units_Z 88
_cell_length_a 14.723615
_cell_length_b 11.130842
_cell_length_c 28.804867
_cell_angle_alpha 90.000000
_cell_angle_beta 90.000000
_cell_angle_gamma 90.000000
_cell_volume 4720.721123
_symmetry_space_group_name_H-M "C M M M"
_symmetry_group_IT_number 65
_symmetry_cell_setting 'orthorhombic'
loop_
_space_group_symop_operation_xyz
x,y,z
-x,-y,z
x,-y,-z
-x,y,-z
-x,-y,-z
x,y,-z
-x,y,z
x,-y,z
1/2+x,1/2+y,z
1/2-x,1/2-y,z
1/2+x,1/2-y,-z
1/2-x,1/2+y,-z
1/2-x,1/2-y,-z
1/2+x,1/2+y,-z
1/2-x,1/2+y,z
1/2+x,1/2-y,z
loop_
_atom_site_type_symbol
_atom_site_label
_atom_site_fract_x
_atom_site_fract_y
_atom_site_fract_z
Si Si1 0.098271 0.858555 0.687787
Si Si2 0.250000 0.250000 0.378109
Si Si3 0.602616 0.143976 0.447125
Si Si4 0.110756 0.366472 0.054024
Si Si5 0.891369 0.867931 0.109047
Si Si6 0.318505 0.361857 0.212623
O O1 0.181272 0.817150 0.656330
O O2 0.119243 0.841994 0.742265
O O3 0.000000 0.802588 0.676368
O O4 0.091811 0.000000 0.680314
O O5 0.318542 0.179628 0.411954
O O6 0.621132 0.186279 0.500000
O O7 0.500000 0.186123 0.434537
O O8 0.599366 0.000000 0.448319
O O9 0.138436 0.500000 0.071115
O O10 0.142781 0.250841 0.082702
O O11 0.000000 0.365693 0.055293
O O12 0.136973 0.355601 0.000000
O O13 0.869669 0.858804 0.163529
O O14 0.000000 0.868763 0.103083
O O15 0.857950 0.000000 0.092598
O O16 0.280657 0.500000 0.217034
O O17 0.250000 0.250000 0.212389
#
# Coordination Sequence:
#
# PCOD9490422 Si02
#       6
#    16   8  16  16  16  16
#     4  10  21  36  54  77 108 144 180 223 279 339
#     4  12  19  32  56  84 106 138 185 232 272 322
#     4   9  19  35  53  76 109 147 184 224 273 326
#     4   8  14  25  42  67 100 133 164 206 264 323
#     4   9  17  29  48  72  97 129 170 213 258 317
#     4  10  20  36  54  74 101 137 178 219 268 328
#
# _framework density 18.641220000000001
#
# number of rings (size 3 to 8) (size 9 to 14) (size 15 to 20)
#    0.000    2.545    0.909    3.000    0.000    3.273 
#    0.000    1.818    0.000    3.273    0.000    7.636 
#    0.000    0.000    0.000    0.000    0.000    0.000 
#
# Total GULP energy -245017.200341 kJ/mol
# GULP energy per Si atom -5568.572735 kJ/mol
# Density = 1.859879 g / cm^3
# Si number density = 18.641220 Si / 1000 Ang^3
#
#
#
# Elastic Constant Matrix: (Units=GPa)
#
#
# Indices 1 2 3 4 5 6 
#
# 1 93.5459 50.3076 40.8378 0.0000 0.0000 0.0000
# 2 50.3076 120.9146 69.8378 0.0000 0.0000 0.0000
# 3 40.8378 69.8378 102.2351 0.0000 0.0000 0.0000
# 4 0.0000 0.0000 0.0000 27.9674 0.0000 0.0000
# 5 0.0000 0.0000 0.0000 0.0000 62.2344 0.0000
# 6 0.0000 0.0000 0.0000 0.0000 0.0000 21.3533
#
#
#
# Elastic Compliance Matrix: (Units=1/GPa)
#
#
# Indices 1 2 3 4 5 6 
#
# 1 0.014210 -0.004350 -0.002705 0.000000 0.000000 0.000000
# 2 -0.004350 0.014991 -0.008503 0.000000 0.000000 0.000000
# 3 -0.002705 -0.008503 0.016670 0.000000 0.000000 0.000000
# 4 0.000000 0.000000 0.000000 0.035756 0.000000 0.000000
# 5 0.000000 0.000000 0.000000 0.000000 0.016068 0.000000
# 6 0.000000 0.000000 0.000000 0.000000 0.000000 0.046831
#
#
# Mechanical properties :
#
#
# Convention : Reuss Voigt Hill
#
# Bulk Modulus (GPa) = 67.76858 70.96243 69.36551
# Shear Modulus (GPa) = 27.69137 32.69185 30.19161
#
# Velocity S-wave (km/s) = 3.85839 4.19231 4.02881
# Velocity P-wave (km/s) = 7.50217 7.84755 7.67681
#
# Compressibility (1/GPa) = 0.01475610
#
# Stress axis : x y z
#
# Youngs Moduli (GPa) = 70.37267 66.70476 59.98684
#
# Poissons Ratio (x) = 0.29017 0.16224
# Poissons Ratio (y) = 0.30613 0.51008
# Poissons Ratio (z) = 0.19033 0.56720
#
# Static dielectric constant tensor:
#      x y z
#    x 1.670550 0.000000 0.000000 
#    y 0.000000 1.656720 0.000000 
#    z 0.000000 0.000000 1.637900 
# 
# From -- ./inp_files/68917.got.cif
#   From: 2010.05.17/outbox.cif.g08.bks.cpg/sg65_35_cif.got.tgz:68917.got - 2010.06.03 17:01:31.
