data_PCOD9490518
_publ_section_title
;
Structure prediction by ZEFSAII (Michael W. Deem and Ramdas Pophale) SiO2 
 PCOD9490518
Probable space group: C M M M
;
_chemical_formula_sum "Si O2"
_cell_formula_units_Z 88
_cell_length_a 30.469480
_cell_length_b 16.888910
_cell_length_c 9.506724
_cell_angle_alpha 90.000000
_cell_angle_beta 90.000000
_cell_angle_gamma 90.000000
_cell_volume 4892.125047
_symmetry_space_group_name_H-M "C M M M"
_symmetry_group_IT_number 65
_symmetry_cell_setting 'orthorhombic'
loop_
_space_group_symop_operation_xyz
x,y,z
-x,-y,z
x,-y,-z
-x,y,-z
-x,-y,-z
x,y,-z
-x,y,z
x,-y,z
1/2+x,1/2+y,z
1/2-x,1/2-y,z
1/2+x,1/2-y,-z
1/2-x,1/2+y,-z
1/2-x,1/2-y,-z
1/2+x,1/2+y,-z
1/2-x,1/2+y,z
1/2+x,1/2-y,z
loop_
_atom_site_type_symbol
_atom_site_label
_atom_site_fract_x
_atom_site_fract_y
_atom_site_fract_z
Si Si1 0.616327 0.309429 0.167530
Si Si2 0.613103 0.852947 0.330519
Si Si3 0.287945 0.095355 0.340279
Si Si4 0.449062 0.000000 0.670858
Si Si5 0.297154 0.407247 0.168524
Si Si6 0.550827 0.594906 0.656568
O O1 0.606766 0.228209 0.248187
O O2 0.662852 0.349761 0.207708
O O3 0.579497 0.369753 0.220342
O O4 0.615865 0.298515 0.000000
O O5 0.609406 0.842684 0.500000
O O6 0.663249 0.878613 0.299850
O O7 0.578793 0.921905 0.288568
O O8 0.279384 0.122637 0.500000
O O9 0.248163 0.119259 0.239970
O O10 0.288448 0.000000 0.340852
O O11 0.500000 0.000000 0.718251
O O12 0.449759 0.000000 0.500000
O O13 0.306030 0.500000 0.208091
O O14 0.292680 0.405617 0.000000
O O15 0.566554 0.620117 0.500000
O O16 0.500000 0.618678 0.668926
O O17 0.552549 0.500000 0.660208
#
# Coordination Sequence:
#
# PCOD9490518 Si02
#       6
#    16  16  16   8  16  16
#     4  11  23  36  52  80 117 151 183 223 273 329
#     4  10  20  36  57  81 109 140 180 232 283 334
#     4   9  17  32  55  79 104 138 183 234 282 328
#     4   9  18  36  63  87 105 135 181 231 286 343
#     4   9  19  35  53  75 107 148 188 224 264 321
#     4   9  19  37  60  83 107 140 183 227 270 320
#
# _framework density 17.988092999999999
#
# number of rings (size 3 to 8) (size 9 to 14) (size 15 to 20)
#    0.000    2.455    0.909    1.636    0.000    5.091 
#    0.000    8.636    0.000    0.545    0.000    0.000 
#    0.000    0.000    0.000    0.000    0.000    0.000 
#
# Total GULP energy -245336.330594 kJ/mol
# GULP energy per Si atom -5575.825695 kJ/mol
# Density = 1.794715 g / cm^3
# Si number density = 17.988093 Si / 1000 Ang^3
#
#
#
# Elastic Constant Matrix: (Units=GPa)
#
#
# Indices 1 2 3 4 5 6 
#
# 1 111.8251 55.0129 41.0795 0.0000 0.0000 0.0000
# 2 55.0129 64.8814 30.5958 0.0000 0.0000 0.0000
# 3 41.0795 30.5958 27.4001 0.0000 0.0000 0.0000
# 4 0.0000 0.0000 0.0000 21.1415 0.0000 0.0000
# 5 0.0000 0.0000 0.0000 0.0000 84.0299 0.0000
# 6 0.0000 0.0000 0.0000 0.0000 0.0000 6.6000
#
#
#
# Elastic Compliance Matrix: (Units=1/GPa)
#
#
# Indices 1 2 3 4 5 6 
#
# 1 0.021046 -0.006264 -0.024558 0.000000 0.000000 0.000000
# 2 -0.006264 0.034419 -0.029043 0.000000 0.000000 0.000000
# 3 -0.024558 -0.029043 0.105745 0.000000 0.000000 0.000000
# 4 0.000000 0.000000 0.000000 0.047300 0.000000 0.000000
# 5 0.000000 0.000000 0.000000 0.000000 0.011901 0.000000
# 6 0.000000 0.000000 0.000000 0.000000 0.000000 0.151514
#
#
# Mechanical properties :
#
#
# Convention : Reuss Voigt Hill
#
# Bulk Modulus (GPa) = 24.10774 50.83147 37.46961
# Shear Modulus (GPa) = 9.89155 27.51550 18.70353
#
# Velocity S-wave (km/s) = 2.34753 3.91532 3.22805
# Velocity P-wave (km/s) = 4.55840 6.98279 5.89654
#
# Compressibility (1/GPa) = 0.04148045
#
# Stress axis : x y z
#
# Youngs Moduli (GPa) = 47.51581 29.05340 9.45670
#
# Poissons Ratio (x) = 0.18198 0.23224
# Poissons Ratio (y) = 0.29763 0.27465
# Poissons Ratio (z) = 1.16691 0.84379
#
# Static dielectric constant tensor:
#      x y z
#    x 1.610010 0.000000 0.000000 
#    y 0.000000 1.618990 0.000000 
#    z 0.000000 0.000000 1.606450 
# 
# From -- ./inp_files/18299.got.cif
#   From: 2010.05.17/outbox.cif.g08.bks.cpg/sg65_10_cif.got.tgz:18299.got - 2010.06.03 17:01:31.
