data_PCOD9490125
_publ_section_title
;
Structure prediction by ZEFSAII (Michael W. Deem and Ramdas Pophale) SiO2 
 PCOD9490125
Probable space group: C M M M
;
_chemical_formula_sum "Si O2"
_cell_formula_units_Z 72
_cell_length_a 15.351160
_cell_length_b 30.410436
_cell_length_c 7.887182
_cell_angle_alpha 90.000000
_cell_angle_beta 90.000000
_cell_angle_gamma 90.000000
_cell_volume 3682.016306
_symmetry_space_group_name_H-M "C M M M"
_symmetry_group_IT_number 65
_symmetry_cell_setting 'orthorhombic'
loop_
_space_group_symop_operation_xyz
x,y,z
-x,-y,z
x,-y,-z
-x,y,-z
-x,-y,-z
x,y,-z
-x,y,z
x,-y,z
1/2+x,1/2+y,z
1/2-x,1/2-y,z
1/2+x,1/2-y,-z
1/2-x,1/2+y,-z
1/2-x,1/2-y,-z
1/2+x,1/2+y,-z
1/2-x,1/2+y,z
1/2+x,1/2-y,z
loop_
_atom_site_type_symbol
_atom_site_label
_atom_site_fract_x
_atom_site_fract_y
_atom_site_fract_z
Si Si1 0.719464 0.551408 0.189612
Si Si2 0.323635 0.129225 0.299006
Si Si3 0.500000 0.822584 0.705995
Si Si4 0.500000 0.278291 0.801712
Si Si5 0.402391 0.446600 0.500000
Si Si6 0.694574 0.293145 0.205774
O O1 0.741026 0.500000 0.216881
O O2 0.800798 0.583543 0.210331
O O3 0.650738 0.565508 0.332411
O O4 0.683153 0.555716 0.000000
O O5 0.328761 0.121506 0.500000
O O6 0.413536 0.151381 0.243260
O O7 0.247168 0.164023 0.261629
O O8 0.500000 0.817820 0.500000
O O9 0.500000 0.774415 0.784943
O O10 0.405654 0.292945 0.731347
O O11 0.500000 0.290890 0.000000
O O12 0.406917 0.500000 0.500000
O O13 0.500000 0.429100 0.500000
O O14 0.750000 0.250000 0.261387
O O15 0.692382 0.291879 0.000000
#
# Coordination Sequence:
#
# PCOD9490125 Si02
#       6
#    16  16   8   8   8  16
#     4  10  21  39  63  89 122 163 203 250 306 360
#     4  11  22  38  59  85 117 156 201 253 308 364
#     4  10  22  36  57  85 114 150 200 251 306 366
#     4  10  20  36  56  81 114 153 194 245 301 355
#     4   9  18  36  62  89 118 153 199 249 299 357
#     4  10  20  35  56  81 113 151 194 242 298 359
#
# _framework density 19.554504000000001
#
# number of rings (size 3 to 8) (size 9 to 14) (size 15 to 20)
#    0.000    1.889    3.333    0.667    0.000    2.667 
#    2.000    2.778    0.000    3.333    0.000    0.000 
#    0.000    0.000    0.000    0.000    0.000    0.000 
#
# Total GULP energy -200984.123623 kJ/mol
# GULP energy per Si atom -5582.892323 kJ/mol
# Density = 1.951000 g / cm^3
# Si number density = 19.554504 Si / 1000 Ang^3
#
#
#
# Elastic Constant Matrix: (Units=GPa)
#
#
# Indices 1 2 3 4 5 6 
#
# 1 158.9995 46.8684 26.7180 0.0000 0.0000 0.0000
# 2 46.8684 72.7114 20.7226 0.0000 0.0000 0.0000
# 3 26.7180 20.7226 52.5518 0.0000 0.0000 0.0000
# 4 0.0000 0.0000 0.0000 29.5142 0.0000 0.0000
# 5 0.0000 0.0000 0.0000 0.0000 -2.4712 0.0000
# 6 0.0000 0.0000 0.0000 0.0000 0.0000 11.4053
#
#
#
# Elastic Compliance Matrix: (Units=1/GPa)
#
#
# Indices 1 2 3 4 5 6 
#
# 1 0.008002 -0.004505 -0.002292 0.000000 0.000000 0.000000
# 2 -0.004505 0.018030 -0.004819 0.000000 0.000000 0.000000
# 3 -0.002292 -0.004819 0.022095 0.000000 0.000000 0.000000
# 4 0.000000 0.000000 0.000000 0.033882 0.000000 0.000000
# 5 0.000000 0.000000 0.000000 0.000000 -0.404668 0.000000
# 6 0.000000 0.000000 0.000000 0.000000 0.000000 0.087679
#
#
# Mechanical properties :
#
#
# Convention : Reuss Voigt Hill
#
# Bulk Modulus (GPa) = 40.16981 52.54230 46.35606
# Shear Modulus (GPa) = -24.57614 20.35325 -2.11144
#
# Velocity S-wave (km/s) = -3.54899 3.22972 -1.04025
# Velocity P-wave (km/s) = 1.94765 6.39031 4.72385
#
# Compressibility (1/GPa) = 0.02489432
#
# Stress axis : x y z
#
# Youngs Moduli (GPa) = 124.96216 55.46204 45.25993
#
# Poissons Ratio (x) = 0.24985 0.10374
# Poissons Ratio (y) = 0.56295 0.21813
# Poissons Ratio (z) = 0.28643 0.26730
#
# Static dielectric constant tensor:
#      x y z
#    x 1.698850 0.000000 0.000000 
#    y 0.000000 1.662980 0.000000 
#    z 0.000000 0.000000 1.713090 
# 
# From -- ./inp_files/7437.got.cif
#   From: 2010.05.17/outbox.cif.g08.bks.cpg/sg65_4_cif.got.tgz:7437.got - 2010.06.03 17:01:31.
