data_PCOD9490433
_publ_section_title
;
Structure prediction by ZEFSAII (Michael W. Deem and Ramdas Pophale) SiO2 
 PCOD9490433
Probable space group: C M M M
;
_chemical_formula_sum "Si O2"
_cell_formula_units_Z 72
_cell_length_a 8.966719
_cell_length_b 28.512546
_cell_length_c 15.901424
_cell_angle_alpha 90.000000
_cell_angle_beta 90.000000
_cell_angle_gamma 90.000000
_cell_volume 4065.421474
_symmetry_space_group_name_H-M "C M M M"
_symmetry_group_IT_number 65
_symmetry_cell_setting 'orthorhombic'
loop_
_space_group_symop_operation_xyz
x,y,z
-x,-y,z
x,-y,-z
-x,y,-z
-x,-y,-z
x,y,-z
-x,y,z
x,-y,z
1/2+x,1/2+y,z
1/2-x,1/2-y,z
1/2+x,1/2-y,-z
1/2-x,1/2+y,-z
1/2-x,1/2-y,-z
1/2+x,1/2+y,-z
1/2-x,1/2+y,z
1/2+x,1/2-y,z
loop_
_atom_site_type_symbol
_atom_site_label
_atom_site_fract_x
_atom_site_fract_y
_atom_site_fract_z
Si Si1 0.821750 0.198698 0.000000
Si Si2 0.323763 0.555924 0.403133
Si Si3 0.178928 0.801667 0.814712
Si Si4 0.675831 0.556599 0.904295
Si Si5 0.676612 0.109619 0.748644
O O1 0.750000 0.250000 0.000000
O O2 0.781812 0.178780 0.091064
O O3 0.000000 0.202821 0.000000
O O4 0.289375 0.568282 0.500000
O O5 0.500000 0.565117 0.388716
O O6 0.302298 0.500000 0.394063
O O7 0.227954 0.582884 0.334918
O O8 0.250000 0.750000 0.806360
O O9 0.246325 0.839479 0.752128
O O10 0.000000 0.798576 0.808050
O O11 0.500000 0.568799 0.895339
O O12 0.687349 0.500000 0.898290
O O13 0.765385 0.580296 0.829300
O O14 0.720694 0.569814 0.000000
O O15 0.500000 0.114425 0.752605
#
# Coordination Sequence:
#
# PCOD9490433 Si02
#       5
#     8  16  16  16  16
#     4   8  16  30  50  72  95 130 175 224 272 313
#     4   9  19  38  63  87 110 140 181 228 277 329
#     4  10  20  36  55  77 106 143 187 234 279 324
#     4   9  19  36  55  74 102 144 190 231 271 319
#     4  12  24  34  51  82 115 148 182 221 273 333
#
# _framework density 17.710341
#
# number of rings (size 3 to 8) (size 9 to 14) (size 15 to 20)
#    0.000    2.222    0.000    4.667    1.556    5.333 
#    0.000    2.222    0.000    0.667    0.000    0.000 
#    0.000    0.000    0.000    0.000    0.000    0.000 
#
# Total GULP energy -200923.760321 kJ/mol
# GULP energy per Si atom -5581.215564 kJ/mol
# Density = 1.767003 g / cm^3
# Si number density = 17.710341 Si / 1000 Ang^3
#
#
#
# Elastic Constant Matrix: (Units=GPa)
#
#
# Indices 1 2 3 4 5 6 
#
# 1 87.6890 51.5750 62.1549 0.0000 0.0000 0.0000
# 2 51.5750 65.9017 49.4929 0.0000 0.0000 0.0000
# 3 62.1549 49.4929 84.6439 0.0000 0.0000 0.0000
# 4 0.0000 0.0000 0.0000 25.5287 0.0000 0.0000
# 5 0.0000 0.0000 0.0000 0.0000 13.4288 0.0000
# 6 0.0000 0.0000 0.0000 0.0000 0.0000 26.5391
#
#
#
# Elastic Compliance Matrix: (Units=1/GPa)
#
#
# Indices 1 2 3 4 5 6 
#
# 1 0.027956 -0.011520 -0.013792 0.000000 0.000000 0.000000
# 2 -0.011520 0.031802 -0.010136 0.000000 0.000000 0.000000
# 3 -0.013792 -0.010136 0.027868 0.000000 0.000000 0.000000
# 4 0.000000 0.000000 0.000000 0.039172 0.000000 0.000000
# 5 0.000000 0.000000 0.000000 0.000000 0.074467 0.000000
# 6 0.000000 0.000000 0.000000 0.000000 0.000000 0.037680
#
#
# Mechanical properties :
#
#
# Convention : Reuss Voigt Hill
#
# Bulk Modulus (GPa) = 59.77306 62.74223 61.25765
# Shear Modulus (GPa) = 15.85201 18.10010 16.97605
#
# Velocity S-wave (km/s) = 2.99502 3.20035 3.09939
# Velocity P-wave (km/s) = 6.76637 7.01143 6.88999
#
# Compressibility (1/GPa) = 0.01672994
#
# Stress axis : x y z
#
# Youngs Moduli (GPa) = 35.77112 31.44451 35.88301
#
# Poissons Ratio (x) = 0.36225 0.49490
# Poissons Ratio (y) = 0.41209 0.36370
# Poissons Ratio (z) = 0.49335 0.31872
#
# Static dielectric constant tensor:
#      x y z
#    x 1.581380 0.000000 0.000000 
#    y 0.000000 1.606560 0.000000 
#    z 0.000000 0.000000 1.608430 
# 
# From -- ./inp_files/36557.got.cif
#   From: 2010.05.17/outbox.cif.g08.bks.cpg/sg65_19_cif.got.tgz:36557.got - 2010.06.03 17:01:31.
