data_PCOD9490081
_publ_section_title
;
Structure prediction by ZEFSAII (Michael W. Deem and Ramdas Pophale) SiO2 
 PCOD9490081
Probable space group: C M M M
;
_chemical_formula_sum "Si O2"
_cell_formula_units_Z 120
_cell_length_a 8.445315
_cell_length_b 28.320097
_cell_length_c 27.192375
_cell_angle_alpha 90.000000
_cell_angle_beta 90.000000
_cell_angle_gamma 90.000000
_cell_volume 6503.658520
_symmetry_space_group_name_H-M "C M M M"
_symmetry_group_IT_number 65
_symmetry_cell_setting 'orthorhombic'
loop_
_space_group_symop_operation_xyz
x,y,z
-x,-y,z
x,-y,-z
-x,y,-z
-x,-y,-z
x,y,-z
-x,y,z
x,-y,z
1/2+x,1/2+y,z
1/2-x,1/2-y,z
1/2+x,1/2-y,-z
1/2-x,1/2+y,-z
1/2-x,1/2-y,-z
1/2+x,1/2+y,-z
1/2-x,1/2+y,z
1/2+x,1/2-y,z
loop_
_atom_site_type_symbol
_atom_site_label
_atom_site_fract_x
_atom_site_fract_y
_atom_site_fract_z
Si Si1 0.691322 0.053726 0.897857
Si Si2 0.808731 0.554367 0.302509
Si Si3 0.809199 0.147251 0.054282
Si Si4 0.806978 0.054297 0.500000
Si Si5 0.308925 0.105002 0.202959
Si Si6 0.810514 0.802355 0.153480
Si Si7 0.810698 0.895010 0.400175
Si Si8 0.689574 0.197736 0.556634
O O1 0.500000 0.054524 0.900912
O O2 0.758061 0.093673 0.933842
O O3 0.735779 0.071247 0.842920
O O4 0.743951 0.000000 0.906912
O O5 0.753493 0.500000 0.301719
O O6 0.753887 0.582639 0.254162
O O7 0.756167 0.580119 0.352048
O O8 0.000000 0.553604 0.301049
O O9 0.752570 0.179831 0.099470
O O10 0.000000 0.149038 0.054541
O O11 0.752674 0.161406 0.000000
O O12 0.752841 0.079183 0.549966
O O13 0.000000 0.056050 0.500000
O O14 0.758700 0.000000 0.500000
O O15 0.500000 0.107161 0.203677
O O16 0.245614 0.157102 0.190981
O O17 0.750000 0.750000 0.164179
O O18 0.000000 0.801800 0.152983
O O19 0.758550 0.841108 0.407003
O O20 0.000000 0.898008 0.398821
O O21 0.741131 0.187192 0.500000
O O22 0.500000 0.196647 0.557907
O O23 0.750000 0.250000 0.568104
#
# Coordination Sequence:
#
# PCOD9490081 Si02
#       8
#    16  16  16   8  16  16  16  16
#     4   9  17  30  50  75 101 133 176 221 264 312
#     4  10  21  37  57  82 112 144 179 221 270 321
#     4   9  19  34  49  70 104 142 177 214 259 313
#     4   9  18  32  50  73 104 143 182 217 256 307
#     4   9  18  35  57  78 103 137 175 218 268 321
#     4  10  20  35  56  80 105 135 174 219 266 317
#     4  11  21  35  55  80 113 148 184 223 267 319
#     4  10  20  35  57  82 109 140 179 222 267 315
#
# _framework density 18.451153999999999
#
# number of rings (size 3 to 8) (size 9 to 14) (size 15 to 20)
#    0.000    2.333    0.667    2.000    0.000    5.067 
#    0.000    2.000    0.000    7.200    0.000    0.000 
#    0.000    0.000    0.000    0.000    0.000    0.000 
#
# Total GULP energy -334848.463569 kJ/mol
# GULP energy per Si atom -5580.807726 kJ/mol
# Density = 1.840916 g / cm^3
# Si number density = 18.451154 Si / 1000 Ang^3
#
#
#
# Elastic Constant Matrix: (Units=GPa)
#
#
# Indices 1 2 3 4 5 6 
#
# 1 12.3258 13.8996 17.4055 0.0000 0.0000 0.0000
# 2 13.8996 134.8875 58.2033 0.0000 0.0000 0.0000
# 3 17.4055 58.2033 120.9506 0.0000 0.0000 0.0000
# 4 0.0000 0.0000 0.0000 14.4283 0.0000 0.0000
# 5 0.0000 0.0000 0.0000 0.0000 23.7006 0.0000
# 6 0.0000 0.0000 0.0000 0.0000 0.0000 25.1023
#
#
#
# Elastic Compliance Matrix: (Units=1/GPa)
#
#
# Indices 1 2 3 4 5 6 
#
# 1 0.104871 -0.005420 -0.012483 0.000000 0.000000 0.000000
# 2 -0.005420 0.009636 -0.003857 0.000000 0.000000 0.000000
# 3 -0.012483 -0.003857 0.011920 0.000000 0.000000 0.000000
# 4 0.000000 0.000000 0.000000 0.069308 0.000000 0.000000
# 5 0.000000 0.000000 0.000000 0.000000 0.042193 0.000000
# 6 0.000000 0.000000 0.000000 0.000000 0.000000 0.039837
#
#
# Mechanical properties :
#
#
# Convention : Reuss Voigt Hill
#
# Bulk Modulus (GPa) = 12.06179 49.68676 30.87427
# Shear Modulus (GPa) = 14.32981 24.55658 19.44320
#
# Velocity S-wave (km/s) = 2.78984 3.65210 3.24970
# Velocity P-wave (km/s) = 4.11448 6.69112 5.55428
#
# Compressibility (1/GPa) = 0.08290646
#
# Stress axis : x y z
#
# Youngs Moduli (GPa) = 9.53554 103.77225 83.88946
#
# Poissons Ratio (x) = 0.56245 1.04722
# Poissons Ratio (y) = 0.05168 0.32358
# Poissons Ratio (z) = 0.11904 0.40028
#
# Static dielectric constant tensor:
#      x y z
#    x 1.632100 0.000000 0.000000 
#    y 0.000000 1.619160 0.000000 
#    z 0.000000 0.000000 1.632730 
# 
# From -- ./inp_files/73966.got.cif
#   From: 2010.05.17/outbox.cif.g08.bks.cpg/sg65_37_cif.got.tgz:73966.got - 2010.06.03 17:01:31.
