data_PCOD9490109
_publ_section_title
;
Structure prediction by ZEFSAII (Michael W. Deem and Ramdas Pophale) SiO2 
 PCOD9490109
Probable space group: C M M M
;
_chemical_formula_sum "Si O2"
_cell_formula_units_Z 112
_cell_length_a 15.911002
_cell_length_b 14.849881
_cell_length_c 24.375074
_cell_angle_alpha 90.000000
_cell_angle_beta 90.000000
_cell_angle_gamma 90.000000
_cell_volume 5759.256838
_symmetry_space_group_name_H-M "C M M M"
_symmetry_group_IT_number 65
_symmetry_cell_setting 'orthorhombic'
loop_
_space_group_symop_operation_xyz
x,y,z
-x,-y,z
x,-y,-z
-x,y,-z
-x,-y,-z
x,y,-z
-x,y,z
x,-y,z
1/2+x,1/2+y,z
1/2-x,1/2-y,z
1/2+x,1/2-y,-z
1/2-x,1/2+y,-z
1/2-x,1/2-y,-z
1/2+x,1/2+y,-z
1/2-x,1/2+y,z
1/2+x,1/2-y,z
loop_
_atom_site_type_symbol
_atom_site_label
_atom_site_fract_x
_atom_site_fract_y
_atom_site_fract_z
Si Si1 0.757417 0.109077 0.768928
Si Si2 0.598346 0.108384 0.839527
Si Si3 0.860254 0.597415 0.438261
Si Si4 0.601466 0.763048 0.061512
Si Si5 0.900794 0.106809 0.856638
Si Si6 0.906264 0.201997 0.439129
Si Si7 0.791602 0.896412 0.353927
O O1 0.667932 0.137248 0.794812
O O2 0.835870 0.131621 0.808352
O O3 0.773381 0.139001 0.706878
O O4 0.753870 0.000000 0.766909
O O5 0.500000 0.131254 0.826874
O O6 0.623268 0.157484 0.896143
O O7 0.602281 0.000000 0.845321
O O8 0.822273 0.598280 0.500000
O O9 0.903891 0.500000 0.433505
O O10 0.909808 0.689961 0.434842
O O11 0.792030 0.601182 0.390550
O O12 0.500000 0.765896 0.057523
O O13 0.621407 0.668865 0.091398
O O14 0.635777 0.771303 0.000000
O O15 0.000000 0.122886 0.842937
O O16 0.892014 0.000000 0.867662
O O17 0.870235 0.181474 0.500000
O O18 0.854151 0.163124 0.389339
O O19 0.000000 0.164942 0.437390
O O20 0.822655 0.000000 0.349658
#
# Coordination Sequence:
#
# PCOD9490109 Si02
#       7
#    16  16  16  16  16  16  16
#     4   9  19  36  56  78 106 143 188 230 270 325
#     4   9  18  35  57  79 108 144 179 224 281 332
#     4   9  18  35  58  79 103 141 186 231 277 322
#     4   9  18  33  54  82 111 140 181 226 273 336
#     4   9  18  34  54  75 105 145 183 225 275 322
#     4  10  21  36  54  81 117 149 180 226 283 340
#     4  10  20  35  56  81 108 142 186 231 277 333
#
# _framework density 19.446954000000002
#
# number of rings (size 3 to 8) (size 9 to 14) (size 15 to 20)
#    0.000    2.714    0.000    0.857    0.000    4.286 
#    5.143    8.571    0.000    5.143    0.000    0.000 
#    0.000    0.000    0.000    0.000    0.000    0.000 
#
# Total GULP energy -312035.228219 kJ/mol
# GULP energy per Si atom -5572.057647 kJ/mol
# Density = 1.940269 g / cm^3
# Si number density = 19.446954 Si / 1000 Ang^3
#
#
#
# Elastic Constant Matrix: (Units=GPa)
#
#
# Indices 1 2 3 4 5 6 
#
# 1 87.8275 35.0780 73.9846 0.0000 0.0000 0.0000
# 2 35.0780 73.7589 53.4012 0.0000 0.0000 0.0000
# 3 73.9846 53.4012 184.9095 0.0000 0.0000 0.0000
# 4 0.0000 0.0000 0.0000 1146.8431 0.0000 0.0000
# 5 0.0000 0.0000 0.0000 0.0000 20.6038 0.0000
# 6 0.0000 0.0000 0.0000 0.0000 0.0000 42.7666
#
#
#
# Elastic Compliance Matrix: (Units=1/GPa)
#
#
# Indices 1 2 3 4 5 6 
#
# 1 0.018181 -0.004273 -0.006040 0.000000 0.000000 0.000000
# 2 -0.004273 0.018146 -0.003531 0.000000 0.000000 0.000000
# 3 -0.006040 -0.003531 0.008845 0.000000 0.000000 0.000000
# 4 0.000000 0.000000 0.000000 0.000872 0.000000 0.000000
# 5 0.000000 0.000000 0.000000 0.000000 0.048535 0.000000
# 6 0.000000 0.000000 0.000000 0.000000 0.000000 0.023383
#
#
# Mechanical properties :
#
#
# Convention : Reuss Voigt Hill
#
# Bulk Modulus (GPa) = 57.19848 74.60260 65.90054
# Shear Modulus (GPa) = 33.00822 254.31152 143.65987
#
# Velocity S-wave (km/s) = 4.12436 11.44796 8.60425
# Velocity P-wave (km/s) = 7.22197 14.60091 11.51832
#
# Compressibility (1/GPa) = 0.01748298
#
# Stress axis : x y z
#
# Youngs Moduli (GPa) = 55.00258 55.10795 113.06417
#
# Poissons Ratio (x) = 0.23549 0.68294
# Poissons Ratio (y) = 0.23504 0.39920
# Poissons Ratio (z) = 0.33223 0.19457
#
# Static dielectric constant tensor:
#      x y z
#    x 1.674880 0.000000 0.000000 
#    y 0.000000 1.706740 0.000000 
#    z 0.000000 0.000000 1.656140 
# 
# From -- ./inp_files/69975.got.cif
#   From: 2010.05.17/outbox.cif.g08.bks.cpg/sg65_35_cif.got.tgz:69975.got - 2010.06.03 17:01:31.
