data_PCOD9490236
_publ_section_title
;
Structure prediction by ZEFSAII (Michael W. Deem and Ramdas Pophale) SiO2 
 PCOD9490236
Probable space group: C M M M
;
_chemical_formula_sum "Si O2"
_cell_formula_units_Z 104
_cell_length_a 8.253582
_cell_length_b 28.396173
_cell_length_c 21.259505
_cell_angle_alpha 90.000000
_cell_angle_beta 90.000000
_cell_angle_gamma 90.000000
_cell_volume 4982.593213
_symmetry_space_group_name_H-M "C M M M"
_symmetry_group_IT_number 65
_symmetry_cell_setting 'orthorhombic'
loop_
_space_group_symop_operation_xyz
x,y,z
-x,-y,z
x,-y,-z
-x,y,-z
-x,-y,-z
x,y,-z
-x,y,z
x,-y,z
1/2+x,1/2+y,z
1/2-x,1/2-y,z
1/2+x,1/2-y,-z
1/2-x,1/2+y,-z
1/2-x,1/2-y,-z
1/2+x,1/2+y,-z
1/2-x,1/2+y,z
1/2+x,1/2-y,z
loop_
_atom_site_type_symbol
_atom_site_label
_atom_site_fract_x
_atom_site_fract_y
_atom_site_fract_z
Si Si1 0.303902 0.400142 0.364151
Si Si2 0.305788 0.801544 0.573162
Si Si3 0.815415 0.125405 0.227343
Si Si4 0.324938 0.946655 0.856324
Si Si5 0.695943 0.696968 0.127872
Si Si6 0.238492 0.948453 0.000000
Si Si7 0.697783 0.500000 0.426370
Si Si8 0.691920 0.850650 0.000000
O O1 0.500000 0.402981 0.365425
O O2 0.256271 0.350540 0.396822
O O3 0.244711 0.394261 0.292025
O O4 0.248155 0.450169 0.394570
O O5 0.253102 0.802401 0.500000
O O6 0.500000 0.802193 0.576158
O O7 0.250000 0.750000 0.599130
O O8 0.810150 0.084825 0.174665
O O9 0.742830 0.168989 0.189409
O O10 0.000000 0.138409 0.242549
O O11 0.500000 0.927484 0.836561
O O12 0.308781 0.000000 0.834305
O O13 0.322478 0.948176 0.931777
O O14 0.500000 0.692573 0.123882
O O15 0.750000 0.750000 0.133542
O O16 0.772690 0.676961 0.063838
O O17 0.183308 0.894670 0.000000
O O18 0.158046 0.000000 0.000000
O O19 0.500000 0.500000 0.423547
O O20 0.743881 0.500000 0.500000
O O21 0.500000 0.864583 0.000000
#
# Coordination Sequence:
#
# PCOD9490236 Si02
#       8
#    16  16  16  16  16   8   8   8
#     4  10  21  38  60  89 124 165 209 249 295 352
#     4  10  21  38  62  92 123 156 195 245 303 358
#     4  10  23  39  57  83 117 155 193 241 295 350
#     4  10  20  35  57  83 112 149 194 241 286 342
#     4  11  24  42  60  82 112 148 195 249 306 364
#     4  10  20  35  58  88 118 150 194 244 294 350
#     4   9  18  34  61  93 123 162 209 250 288 343
#     4  12  22  37  63  88 112 148 194 246 304 358
#
# _framework density 20.872665999999999
#
# number of rings (size 3 to 8) (size 9 to 14) (size 15 to 20)
#    0.000    1.769    1.538    2.538    1.077    5.385 
#    0.000    2.308    0.000    3.692    0.000    0.000 
#    0.000    0.000    0.000    0.000    0.000    0.000 
#
# Total GULP energy -289533.278680 kJ/mol
# GULP energy per Si atom -5567.947667 kJ/mol
# Density = 2.082516 g / cm^3
# Si number density = 20.872666 Si / 1000 Ang^3
#
#
#
# Elastic Constant Matrix: (Units=GPa)
#
#
# Indices 1 2 3 4 5 6 
#
# 1 39.2652 24.2436 15.3744 0.0000 0.0000 0.0000
# 2 24.2436 198.2343 91.8224 0.0000 0.0000 0.0000
# 3 15.3744 91.8224 137.4001 0.0000 0.0000 0.0000
# 4 0.0000 0.0000 0.0000 -104.7514 0.0000 0.0000
# 5 0.0000 0.0000 0.0000 0.0000 22.6093 0.0000
# 6 0.0000 0.0000 0.0000 0.0000 0.0000 0.9363
#
#
#
# Elastic Compliance Matrix: (Units=1/GPa)
#
#
# Indices 1 2 3 4 5 6 
#
# 1 0.027686 -0.002826 -0.001210 0.000000 0.000000 0.000000
# 2 -0.002826 0.007595 -0.004759 0.000000 0.000000 0.000000
# 3 -0.001210 -0.004759 0.010594 0.000000 0.000000 0.000000
# 4 0.000000 0.000000 0.000000 -0.009546 0.000000 0.000000
# 5 0.000000 0.000000 0.000000 0.000000 0.044230 0.000000
# 6 0.000000 0.000000 0.000000 0.000000 0.000000 1.068017
#
#
# Mechanical properties :
#
#
# Convention : Reuss Voigt Hill
#
# Bulk Modulus (GPa) = 35.35357 70.86449 53.10903
# Shear Modulus (GPa) = 4.25318 -0.01054 2.12132
#
# Velocity S-wave (km/s) = 1.42902 -0.07114 1.00922
# Velocity P-wave (km/s) = 4.43816 5.83248 5.18243
#
# Compressibility (1/GPa) = 0.02828569
#
# Stress axis : x y z
#
# Youngs Moduli (GPa) = 36.11921 131.67331 94.39457
#
# Poissons Ratio (x) = 0.37206 0.11418
# Poissons Ratio (y) = 0.10206 0.44924
# Poissons Ratio (z) = 0.04369 0.62665
#
# Static dielectric constant tensor:
#      x y z
#    x 1.767510 0.000000 0.000000 
#    y 0.000000 1.752380 0.000000 
#    z 0.000000 0.000000 1.747890 
# 
# From -- ./inp_files/60476.got.cif
#   From: 2010.05.17/outbox.cif.g08.bks.cpg/sg65_31_cif.got.tgz:60476.got - 2010.06.03 17:01:31.
