data_PCOD9490281
_publ_section_title
;
Structure prediction by ZEFSAII (Michael W. Deem and Ramdas Pophale) SiO2 
 PCOD9490281
Probable space group: C M M M
;
_chemical_formula_sum "Si O2"
_cell_formula_units_Z 88
_cell_length_a 24.312062
_cell_length_b 20.901084
_cell_length_c 7.857653
_cell_angle_alpha 90.000000
_cell_angle_beta 90.000000
_cell_angle_gamma 90.000000
_cell_volume 3992.854193
_symmetry_space_group_name_H-M "C M M M"
_symmetry_group_IT_number 65
_symmetry_cell_setting 'orthorhombic'
loop_
_space_group_symop_operation_xyz
x,y,z
-x,-y,z
x,-y,-z
-x,y,-z
-x,-y,-z
x,y,-z
-x,y,z
x,-y,z
1/2+x,1/2+y,z
1/2-x,1/2-y,z
1/2+x,1/2-y,-z
1/2-x,1/2+y,-z
1/2-x,1/2-y,-z
1/2+x,1/2+y,-z
1/2-x,1/2+y,z
1/2+x,1/2-y,z
loop_
_atom_site_type_symbol
_atom_site_label
_atom_site_fract_x
_atom_site_fract_y
_atom_site_fract_z
Si Si1 0.749943 0.821706 0.199316
Si Si2 0.561436 0.888367 0.699996
Si Si3 0.435284 0.257869 0.801696
Si Si4 0.634932 0.623331 0.303199
Si Si5 0.564466 0.500000 0.708184
Si Si6 0.823596 0.568025 0.800067
O O1 0.750000 0.750000 0.273941
O O2 0.808294 0.857642 0.212932
O O3 0.705290 0.869827 0.277057
O O4 0.735604 0.813337 0.000000
O O5 0.562216 0.903001 0.500000
O O6 0.500000 0.901995 0.766563
O O7 0.571613 0.812612 0.725682
O O8 0.611197 0.924681 0.785897
O O9 0.500000 0.272962 0.793401
O O10 0.402100 0.313287 0.710631
O O11 0.418340 0.255710 0.000000
O O12 0.648177 0.609905 0.500000
O O13 0.598879 0.563136 0.238139
O O14 0.500000 0.500000 0.763499
O O15 0.562868 0.500000 0.500000
O O16 0.806018 0.500000 0.724409
O O17 0.809054 0.566763 0.000000
#
# Coordination Sequence:
#
# PCOD9490281 Si02
#       6
#    16  16  16  16   8  16
#     4  10  22  40  61  85 116 155 200 250 303 358
#     4  10  21  37  59  88 119 151 190 240 297 352
#     4  10  20  35  57  85 117 153 194 242 296 353
#     4  11  22  36  59  87 117 156 202 249 301 360
#     4   9  20  38  57  83 123 165 200 241 300 367
#     4  10  22  39  59  84 117 158 199 241 295 353
#
# _framework density 22.039373000000001
#
# number of rings (size 3 to 8) (size 9 to 14) (size 15 to 20)
#    0.000    1.909    0.000    3.273    1.273    6.182 
#    0.000    3.182    0.000    3.273    0.000    0.000 
#    0.000    0.000    0.000    0.000    0.000    0.000 
#
# Total GULP energy -245773.239508 kJ/mol
# GULP energy per Si atom -5585.755443 kJ/mol
# Density = 2.198921 g / cm^3
# Si number density = 22.039373 Si / 1000 Ang^3
#
#
#
# Elastic Constant Matrix: (Units=GPa)
#
#
# Indices 1 2 3 4 5 6 
#
# 1 90.2811 73.2782 -9.7098 0.0000 0.0000 0.0000
# 2 73.2782 134.5841 -3.7765 0.0000 0.0000 0.0000
# 3 -9.7098 -3.7765 24.4453 0.0000 0.0000 0.0000
# 4 0.0000 0.0000 0.0000 -13.4172 0.0000 0.0000
# 5 0.0000 0.0000 0.0000 0.0000 -34.7736 0.0000
# 6 0.0000 0.0000 0.0000 0.0000 0.0000 13.9571
#
#
#
# Elastic Compliance Matrix: (Units=1/GPa)
#
#
# Indices 1 2 3 4 5 6 
#
# 1 0.020844 -0.011165 0.006554 0.000000 0.000000 0.000000
# 2 -0.011165 0.013443 -0.002358 0.000000 0.000000 0.000000
# 3 0.006554 -0.002358 0.043147 0.000000 0.000000 0.000000
# 4 0.000000 0.000000 0.000000 -0.074531 0.000000 0.000000
# 5 0.000000 0.000000 0.000000 0.000000 -0.028757 0.000000
# 6 0.000000 0.000000 0.000000 0.000000 0.000000 0.071648
#
#
# Mechanical properties :
#
#
# Convention : Reuss Voigt Hill
#
# Bulk Modulus (GPa) = 15.74891 40.98825 28.36858
# Shear Modulus (GPa) = 61.80764 5.78784 33.79774
#
# Velocity S-wave (km/s) = 5.30142 1.62229 3.92026
# Velocity P-wave (km/s) = 6.68092 4.70608 5.77849
#
# Compressibility (1/GPa) = 0.06349647
#
# Stress axis : x y z
#
# Youngs Moduli (GPa) = 47.97596 74.38656 23.17670
#
# Poissons Ratio (x) = 0.83053 -0.15191
# Poissons Ratio (y) = 0.53566 0.05465
# Poissons Ratio (z) = -0.31445 0.17540
#
# Static dielectric constant tensor:
#      x y z
#    x 1.805030 0.000000 0.000000 
#    y 0.000000 1.837220 0.000000 
#    z 0.000000 0.000000 1.807260 
# 
# From -- ./inp_files/11848.got.cif
#   From: 2010.05.17/outbox.cif.g08.bks.cpg/sg65_6_cif.got.tgz:11848.got - 2010.06.03 17:01:31.
