data_PCOD9490552
_publ_section_title
;
Structure prediction by ZEFSAII (Michael W. Deem and Ramdas Pophale) SiO2 
 PCOD9490552
Probable space group: C M M M
;
_chemical_formula_sum "Si O2"
_cell_formula_units_Z 88
_cell_length_a 22.804723
_cell_length_b 24.901180
_cell_length_c 8.975460
_cell_angle_alpha 90.000000
_cell_angle_beta 90.000000
_cell_angle_gamma 90.000000
_cell_volume 5096.845215
_symmetry_space_group_name_H-M "C M M M"
_symmetry_group_IT_number 65
_symmetry_cell_setting 'orthorhombic'
loop_
_space_group_symop_operation_xyz
x,y,z
-x,-y,z
x,-y,-z
-x,y,-z
-x,-y,-z
x,y,-z
-x,y,z
x,-y,z
1/2+x,1/2+y,z
1/2-x,1/2-y,z
1/2+x,1/2-y,-z
1/2-x,1/2+y,-z
1/2-x,1/2-y,-z
1/2+x,1/2+y,-z
1/2-x,1/2+y,z
1/2+x,1/2-y,z
loop_
_atom_site_type_symbol
_atom_site_label
_atom_site_fract_x
_atom_site_fract_y
_atom_site_fract_z
Si Si1 0.713595 0.436902 0.323105
Si Si2 0.000000 0.064175 0.323128
Si Si3 0.851149 0.437922 0.321505
Si Si4 0.890630 0.125552 0.822695
Si Si5 0.929769 0.766177 0.323926
Si Si6 0.068939 0.347730 0.822697
O O1 0.704163 0.427583 0.500000
O O2 0.701262 0.500000 0.295344
O O3 0.782269 0.427784 0.290967
O O4 0.670304 0.400375 0.229236
O O5 0.942769 0.090424 0.249858
O O6 0.000000 0.075785 0.500000
O O7 0.000000 0.000000 0.303130
O O8 0.859197 0.432896 0.500000
O O9 0.863715 0.500000 0.281315
O O10 0.892083 0.396140 0.238042
O O11 0.897868 0.185533 0.759674
O O12 0.896320 0.125289 0.000000
O O13 0.917721 0.767936 0.500000
O O14 0.914721 0.708103 0.257179
O O15 0.000000 0.773791 0.303110
O O16 0.000000 0.357712 0.790772
O O17 0.075549 0.341945 0.000000
#
# Coordination Sequence:
#
# PCOD9490552 Si02
#       6
#    16   8  16  16  16  16
#     4   9  19  37  58  78 106 146 188 228 272 327
#     4  11  23  37  53  75 107 147 190 233 274 321
#     4   9  19  37  60  84 110 144 186 227 268 322
#     4  12  23  34  53  81 112 143 181 231 282 329
#     4  10  20  36  58  79 105 145 189 227 271 329
#     4  10  21  36  56  84 117 146 176 221 278 332
#
# _framework density 17.265581999999998
#
# number of rings (size 3 to 8) (size 9 to 14) (size 15 to 20)
#    0.000    1.909    0.909    4.636    0.000    6.545 
#    0.000    4.545    0.000    5.455    0.000    0.000 
#    0.000    0.000    0.000    0.000    0.000    0.000 
#
# Total GULP energy -245780.651394 kJ/mol
# GULP energy per Si atom -5585.923895 kJ/mol
# Density = 1.722628 g / cm^3
# Si number density = 17.265582 Si / 1000 Ang^3
#
#
#
# Elastic Constant Matrix: (Units=GPa)
#
#
# Indices 1 2 3 4 5 6 
#
# 1 71.2845 83.7907 69.1205 0.0000 0.0000 0.0000
# 2 83.7907 144.1826 96.3125 0.0000 0.0000 0.0000
# 3 69.1205 96.3125 111.2900 0.0000 0.0000 0.0000
# 4 0.0000 0.0000 0.0000 360.9443 0.0000 0.0000
# 5 0.0000 0.0000 0.0000 0.0000 25.0484 0.0000
# 6 0.0000 0.0000 0.0000 0.0000 0.0000 4.2603
#
#
#
# Elastic Compliance Matrix: (Units=1/GPa)
#
#
# Indices 1 2 3 4 5 6 
#
# 1 0.052888 -0.020842 -0.014811 0.000000 0.000000 0.000000
# 2 -0.020842 0.024652 -0.008390 0.000000 0.000000 0.000000
# 3 -0.014811 -0.008390 0.025445 0.000000 0.000000 0.000000
# 4 0.000000 0.000000 0.000000 0.002771 0.000000 0.000000
# 5 0.000000 0.000000 0.000000 0.000000 0.039923 0.000000
# 6 0.000000 0.000000 0.000000 0.000000 0.000000 0.234726
#
#
# Mechanical properties :
#
#
# Convention : Reuss Voigt Hill
#
# Bulk Modulus (GPa) = 67.11461 91.68939 79.40200
# Shear Modulus (GPa) = 10.56063 83.21950 46.89007
#
# Velocity S-wave (km/s) = 2.47586 6.95013 5.21700
# Velocity P-wave (km/s) = 6.86509 10.84557 9.07623
#
# Compressibility (1/GPa) = 0.01489989
#
# Stress axis : x y z
#
# Youngs Moduli (GPa) = 18.90780 40.56440 39.30051
#
# Poissons Ratio (x) = 0.84545 0.58208
# Poissons Ratio (y) = 0.39408 0.32972
# Poissons Ratio (z) = 0.28004 0.34032
#
# Static dielectric constant tensor:
#      x y z
#    x 1.564710 0.000000 0.000000 
#    y 0.000000 1.563420 0.000000 
#    z 0.000000 0.000000 1.570260 
# 
# From -- ./inp_files/11698.got.cif
#   From: 2010.05.17/outbox.cif.g08.bks.cpg/sg65_6_cif.got.tgz:11698.got - 2010.06.03 17:01:31.
