data_PCOD9490117
_publ_section_title
;
Structure prediction by ZEFSAII (Michael W. Deem and Ramdas Pophale) SiO2 
 PCOD9490117
Probable space group: C M M M
;
_chemical_formula_sum "Si O2"
_cell_formula_units_Z 104
_cell_length_a 19.963092
_cell_length_b 20.195626
_cell_length_c 14.318896
_cell_angle_alpha 90.000000
_cell_angle_beta 90.000000
_cell_angle_gamma 90.000000
_cell_volume 5772.908346
_symmetry_space_group_name_H-M "C M M M"
_symmetry_group_IT_number 65
_symmetry_cell_setting 'orthorhombic'
loop_
_space_group_symop_operation_xyz
x,y,z
-x,-y,z
x,-y,-z
-x,y,-z
-x,-y,-z
x,y,-z
-x,y,z
x,-y,z
1/2+x,1/2+y,z
1/2-x,1/2-y,z
1/2+x,1/2-y,-z
1/2-x,1/2+y,-z
1/2-x,1/2-y,-z
1/2+x,1/2+y,-z
1/2-x,1/2+y,z
1/2+x,1/2-y,z
loop_
_atom_site_type_symbol
_atom_site_label
_atom_site_fract_x
_atom_site_fract_y
_atom_site_fract_z
Si Si1 0.571813 0.103349 0.796596
Si Si2 0.076782 0.000000 0.113077
Si Si3 0.923044 0.242851 0.764314
Si Si4 0.631916 0.925826 0.392985
Si Si5 0.680078 0.218017 0.610056
Si Si6 0.711969 0.074574 0.110402
Si Si7 0.347336 0.364427 0.113216
O O1 0.500000 0.080174 0.834347
O O2 0.574115 0.182664 0.804366
O O3 0.577235 0.083556 0.687537
O O4 0.640054 0.078697 0.842154
O O5 0.114607 0.932592 0.139043
O O6 0.000000 0.000000 0.146198
O O7 0.075678 0.000000 0.000000
O O8 0.880279 0.251443 0.669781
O O9 0.884003 0.194874 0.834441
O O10 0.000000 0.221152 0.749403
O O11 0.606803 0.921166 0.500000
O O12 0.679535 0.862056 0.378480
O O13 0.661358 0.000000 0.382283
O O14 0.671004 0.231250 0.500000
O O15 0.750000 0.250000 0.640231
O O16 0.769397 0.125703 0.140903
O O17 0.738748 0.000000 0.124138
O O18 0.702579 0.084002 0.000000
O O19 0.350250 0.356934 0.000000
#
# Coordination Sequence:
#
# PCOD9490117 Si02
#       7
#    16   8  16  16  16  16  16
#     4  10  22  37  52  76 112 148 181 224 275 326
#     4   9  16  30  54  80 106 136 172 225 288 334
#     4  10  22  36  55  83 111 145 185 225 273 333
#     4   9  18  33  55  82 109 138 178 228 278 325
#     4   9  19  36  58  82 112 150 187 226 274 330
#     4  10  21  37  55  76 103 141 187 226 270 329
#     4  10  20  35  56  81 110 143 181 231 284 333
#
# _framework density 18.015183
#
# number of rings (size 3 to 8) (size 9 to 14) (size 15 to 20)
#    0.000    2.385    0.769    0.923    4.308    3.692 
#    0.000    7.692    0.000    0.000    0.000    0.000 
#    0.000    1.846    0.000    0.000    0.000    0.000 
#
# Total GULP energy -289751.363606 kJ/mol
# GULP energy per Si atom -5572.141608 kJ/mol
# Density = 1.797418 g / cm^3
# Si number density = 18.015183 Si / 1000 Ang^3
#
#
#
# Elastic Constant Matrix: (Units=GPa)
#
#
# Indices 1 2 3 4 5 6 
#
# 1 146.2512 49.7382 51.5918 0.0000 0.0000 0.0000
# 2 49.7382 96.8330 46.4128 0.0000 0.0000 0.0000
# 3 51.5918 46.4128 44.7811 0.0000 0.0000 0.0000
# 4 0.0000 0.0000 0.0000 22.8083 0.0000 0.0000
# 5 0.0000 0.0000 0.0000 0.0000 11.9180 0.0000
# 6 0.0000 0.0000 0.0000 0.0000 0.0000 17.1332
#
#
#
# Elastic Compliance Matrix: (Units=1/GPa)
#
#
# Indices 1 2 3 4 5 6 
#
# 1 0.011557 0.000885 -0.014233 0.000000 0.000000 0.000000
# 2 0.000885 0.020589 -0.022360 0.000000 0.000000 0.000000
# 3 -0.014233 -0.022360 0.061903 0.000000 0.000000 0.000000
# 4 0.000000 0.000000 0.000000 0.043844 0.000000 0.000000
# 5 0.000000 0.000000 0.000000 0.000000 0.083907 0.000000
# 6 0.000000 0.000000 0.000000 0.000000 0.000000 0.058366
#
#
# Mechanical properties :
#
#
# Convention : Reuss Voigt Hill
#
# Bulk Modulus (GPa) = 44.17872 64.81676 54.49774
# Shear Modulus (GPa) = 13.92273 19.71339 16.81806
#
# Velocity S-wave (km/s) = 2.78300 3.31156 3.05872
# Velocity P-wave (km/s) = 5.90788 7.11891 6.54148
#
# Compressibility (1/GPa) = 0.02263533
#
# Stress axis : x y z
#
# Youngs Moduli (GPa) = 86.52687 48.56846 16.15441
#
# Poissons Ratio (x) = -0.04301 0.22992
# Poissons Ratio (y) = -0.07662 0.36121
# Poissons Ratio (z) = 1.23150 1.08598
#
# Static dielectric constant tensor:
#      x y z
#    x 1.630300 0.000000 0.000000 
#    y 0.000000 1.630580 0.000000 
#    z 0.000000 0.000000 1.614510 
# 
# From -- ./inp_files/44402.got.cif
#   From: 2010.05.17/outbox.cif.g08.bks.cpg/sg65_23_cif.got.tgz:44402.got - 2010.06.03 17:01:31.
