data_PCOD9490354
_publ_section_title
;
Structure prediction by ZEFSAII (Michael W. Deem and Ramdas Pophale) SiO2 
 PCOD9490354
Probable space group: C M M M
;
_chemical_formula_sum "Si O2"
_cell_formula_units_Z 88
_cell_length_a 8.423756
_cell_length_b 22.195077
_cell_length_c 25.269732
_cell_angle_alpha 90.000000
_cell_angle_beta 90.000000
_cell_angle_gamma 90.000000
_cell_volume 4724.578516
_symmetry_space_group_name_H-M "C M M M"
_symmetry_group_IT_number 65
_symmetry_cell_setting 'orthorhombic'
loop_
_space_group_symop_operation_xyz
x,y,z
-x,-y,z
x,-y,-z
-x,y,-z
-x,-y,-z
x,y,-z
-x,y,z
x,-y,z
1/2+x,1/2+y,z
1/2-x,1/2-y,z
1/2+x,1/2-y,-z
1/2-x,1/2+y,-z
1/2-x,1/2-y,-z
1/2+x,1/2+y,-z
1/2-x,1/2+y,z
1/2+x,1/2-y,z
loop_
_atom_site_type_symbol
_atom_site_label
_atom_site_fract_x
_atom_site_fract_y
_atom_site_fract_z
Si Si1 0.691644 0.318826 0.943396
Si Si2 0.690735 0.000000 0.439877
Si Si3 0.688494 0.068839 0.244566
Si Si4 0.190361 0.682473 0.558111
Si Si5 0.309420 0.680551 0.174396
Si Si6 0.186480 0.098159 0.359976
O O1 0.500000 0.320275 0.943189
O O2 0.750000 0.250000 0.944982
O O3 0.744022 0.339389 0.885150
O O4 0.744079 0.346885 0.000000
O O5 0.755834 0.055403 0.406978
O O6 0.500000 0.000000 0.438958
O O7 0.744471 0.000000 0.500000
O O8 0.500000 0.068738 0.236416
O O9 0.757341 0.126451 0.213024
O O10 0.725879 0.080968 0.306205
O O11 0.746794 0.000000 0.231521
O O12 0.231634 0.653369 0.500000
O O13 0.250000 0.750000 0.553180
O O14 0.268806 0.660510 0.612608
O O15 0.000000 0.677563 0.562750
O O16 0.500000 0.684133 0.175564
O O17 0.250000 0.750000 0.184534
O O18 0.000000 0.092492 0.350493
#
# Coordination Sequence:
#
# PCOD9490354 Si02
#       6
#    16   8  16  16  16  16
#     4   8  14  26  47  78 115 152 188 232 286 340
#     4  11  23  39  59  83 111 141 174 217 270 325
#     4  11  24  42  62  81 111 153 197 244 297 354
#     4  10  21  38  59  83 113 146 179 219 272 335
#     4  10  20  35  58  88 121 154 196 244 290 346
#     4  12  24  38  59  84 109 139 181 228 275 333
#
# _framework density 18.625999
#
# number of rings (size 3 to 8) (size 9 to 14) (size 15 to 20)
#    0.000    1.727    0.909    4.091    0.000    6.545 
#    0.000    3.636    0.000    0.545    0.000    3.818 
#    0.000    0.000    0.000    0.000    0.000    0.000 
#
# Total GULP energy -244969.593275 kJ/mol
# GULP energy per Si atom -5567.490756 kJ/mol
# Density = 1.858361 g / cm^3
# Si number density = 18.625999 Si / 1000 Ang^3
#
#
#
# Elastic Constant Matrix: (Units=GPa)
#
#
# Indices 1 2 3 4 5 6 
#
# 1 40.6969 16.3468 11.5793 0.0000 0.0000 0.0000
# 2 16.3468 96.7377 62.4159 0.0000 0.0000 0.0000
# 3 11.5793 62.4159 127.3101 0.0000 0.0000 0.0000
# 4 0.0000 0.0000 0.0000 36.6772 0.0000 0.0000
# 5 0.0000 0.0000 0.0000 0.0000 19.3960 0.0000
# 6 0.0000 0.0000 0.0000 0.0000 0.0000 21.8076
#
#
#
# Elastic Compliance Matrix: (Units=1/GPa)
#
#
# Indices 1 2 3 4 5 6 
#
# 1 0.026370 -0.004254 -0.000313 0.000000 0.000000 0.000000
# 2 -0.004254 0.015806 -0.007362 0.000000 0.000000 0.000000
# 3 -0.000313 -0.007362 0.011493 0.000000 0.000000 0.000000
# 4 0.000000 0.000000 0.000000 0.027265 0.000000 0.000000
# 5 0.000000 0.000000 0.000000 0.000000 0.051557 0.000000
# 6 0.000000 0.000000 0.000000 0.000000 0.000000 0.045856
#
#
# Mechanical properties :
#
#
# Convention : Reuss Voigt Hill
#
# Bulk Modulus (GPa) = 33.54554 49.49209 41.51881
# Shear Modulus (GPa) = 23.56916 27.20302 25.38609
#
# Velocity S-wave (km/s) = 3.56109 3.82578 3.69580
# Velocity P-wave (km/s) = 5.91250 6.79298 6.36798
#
# Compressibility (1/GPa) = 0.02981022
#
# Stress axis : x y z
#
# Youngs Moduli (GPa) = 37.92235 63.26562 87.01086
#
# Poissons Ratio (x) = 0.26914 0.02721
# Poissons Ratio (y) = 0.16133 0.64061
# Poissons Ratio (z) = 0.01186 0.46579
#
# Static dielectric constant tensor:
#      x y z
#    x 1.643850 0.000000 0.000000 
#    y 0.000000 2.072110 0.000000 
#    z 0.000000 0.000000 1.679120 
# 
# From -- ./inp_files/67600.got.cif
#   From: 2010.05.17/outbox.cif.g08.bks.cpg/sg65_34_cif.got.tgz:67600.got - 2010.06.03 17:01:31.
