data_PCOD9490525
_publ_section_title
;
Structure prediction by ZEFSAII (Michael W. Deem and Ramdas Pophale) SiO2 
 PCOD9490525
Probable space group: C M M M
;
_chemical_formula_sum "Si O2"
_cell_formula_units_Z 96
_cell_length_a 15.330831
_cell_length_b 13.853525
_cell_length_c 22.421410
_cell_angle_alpha 90.000000
_cell_angle_beta 90.000000
_cell_angle_gamma 90.000000
_cell_volume 4761.994717
_symmetry_space_group_name_H-M "C M M M"
_symmetry_group_IT_number 65
_symmetry_cell_setting 'orthorhombic'
loop_
_space_group_symop_operation_xyz
x,y,z
-x,-y,z
x,-y,-z
-x,y,-z
-x,-y,-z
x,y,-z
-x,y,z
x,-y,z
1/2+x,1/2+y,z
1/2-x,1/2-y,z
1/2+x,1/2-y,-z
1/2-x,1/2+y,-z
1/2-x,1/2-y,-z
1/2+x,1/2+y,-z
1/2-x,1/2+y,z
1/2+x,1/2-y,z
loop_
_atom_site_type_symbol
_atom_site_label
_atom_site_fract_x
_atom_site_fract_y
_atom_site_fract_z
Si Si1 0.867160 0.500000 0.565044
Si Si2 0.346498 0.790627 0.752187
Si Si3 0.785099 0.151024 0.432480
Si Si4 0.398336 0.226916 0.114802
Si Si5 0.397691 0.603467 0.322728
Si Si6 0.599935 0.000000 0.296821
Si Si7 0.268665 0.388506 0.071261
O O1 0.912363 0.500000 0.500000
O O2 0.801445 0.588907 0.564031
O O3 0.907066 0.500000 0.630896
O O4 0.250000 0.750000 0.766330
O O5 0.397306 0.791391 0.814486
O O6 0.380544 0.704005 0.710570
O O7 0.353851 0.898786 0.723672
O O8 0.819350 0.163974 0.500000
O O9 0.750000 0.250000 0.406529
O O10 0.852693 0.108051 0.386919
O O11 0.500000 0.224612 0.093979
O O12 0.346702 0.326758 0.100859
O O13 0.327988 0.151170 0.087547
O O14 0.500000 0.598748 0.330207
O O15 0.368754 0.500000 0.293914
O O16 0.500000 0.000000 0.273332
O O17 0.274878 0.500000 0.088631
O O18 0.278604 0.379100 0.000000
#
# Coordination Sequence:
#
# PCOD9490525 Si02
#       7
#     8  16  16  16  16   8  16
#     4  10  20  37  59  84 116 158 210 263 324 395
#     4  12  26  43  67  93 130 173 222 271 333 398
#     4  10  20  36  57  81 112 155 205 254 313 388
#     4  11  23  42  67  98 135 176 223 276 329 389
#     4  11  23  38  59  89 125 162 204 262 328 394
#     4  12  26  43  66  97 130 170 221 283 342 399
#     4  10  23  44  68 100 139 179 224 272 327 392
#
# _framework density 20.159618999999999
#
# number of rings (size 3 to 8) (size 9 to 14) (size 15 to 20)
#    0.000    1.167    2.500    5.000    2.333    3.167 
#    0.000    2.500    0.000    5.000    0.000    0.000 
#    0.000    0.000    0.000    0.000    0.000    0.000 
#
# Total GULP energy -267485.815702 kJ/mol
# GULP energy per Si atom -5572.621160 kJ/mol
# Density = 2.011374 g / cm^3
# Si number density = 20.159619 Si / 1000 Ang^3
#
#
#
# Elastic Constant Matrix: (Units=GPa)
#
#
# Indices 1 2 3 4 5 6 
#
# 1 97.3734 30.2072 12.6599 0.0000 0.0000 0.0000
# 2 30.2072 166.6636 30.9759 0.0000 0.0000 0.0000
# 3 12.6599 30.9759 77.8182 0.0000 0.0000 0.0000
# 4 0.0000 0.0000 0.0000 36.9231 0.0000 0.0000
# 5 0.0000 0.0000 0.0000 0.0000 2420.4438 0.0000
# 6 0.0000 0.0000 0.0000 0.0000 0.0000 14.1623
#
#
#
# Elastic Compliance Matrix: (Units=1/GPa)
#
#
# Indices 1 2 3 4 5 6 
#
# 1 0.010964 -0.001788 -0.001072 0.000000 0.000000 0.000000
# 2 -0.001788 0.006771 -0.002404 0.000000 0.000000 0.000000
# 3 -0.001072 -0.002404 0.013982 0.000000 0.000000 0.000000
# 4 0.000000 0.000000 0.000000 0.027083 0.000000 0.000000
# 5 0.000000 0.000000 0.000000 0.000000 0.000413 0.000000
# 6 0.000000 0.000000 0.000000 0.000000 0.000000 0.070610
#
#
# Mechanical properties :
#
#
# Convention : Reuss Voigt Hill
#
# Bulk Modulus (GPa) = 47.19599 54.39346 50.79473
# Shear Modulus (GPa) = 33.91802 512.17334 273.04568
#
# Velocity S-wave (km/s) = 4.10625 15.95652 11.65058
# Velocity P-wave (km/s) = 6.77817 19.14473 14.36079
#
# Compressibility (1/GPa) = 0.02118824
#
# Stress axis : x y z
#
# Youngs Moduli (GPa) = 91.20955 147.68787 71.52085
#
# Poissons Ratio (x) = 0.26405 0.07667
# Poissons Ratio (y) = 0.16307 0.17196
# Poissons Ratio (z) = 0.09777 0.35510
#
# Static dielectric constant tensor:
#      x y z
#    x 1.710950 0.000000 0.000000 
#    y 0.000000 1.744410 0.000000 
#    z 0.000000 0.000000 1.723710 
# 
# From -- ./inp_files/69916.got.cif
#   From: 2010.05.17/outbox.cif.g08.bks.cpg/sg65_35_cif.got.tgz:69916.got - 2010.06.03 17:01:31.
