data_PCOD9490453
_publ_section_title
;
Structure prediction by ZEFSAII (Michael W. Deem and Ramdas Pophale) SiO2 
 PCOD9490453
Probable space group: C M M M
;
_chemical_formula_sum "Si O2"
_cell_formula_units_Z 72
_cell_length_a 8.456913
_cell_length_b 14.756350
_cell_length_c 31.967579
_cell_angle_alpha 90.000000
_cell_angle_beta 90.000000
_cell_angle_gamma 90.000000
_cell_volume 3989.335461
_symmetry_space_group_name_H-M "C M M M"
_symmetry_group_IT_number 65
_symmetry_cell_setting 'orthorhombic'
loop_
_space_group_symop_operation_xyz
x,y,z
-x,-y,z
x,-y,-z
-x,y,-z
-x,-y,-z
x,y,-z
-x,y,z
x,-y,z
1/2+x,1/2+y,z
1/2-x,1/2-y,z
1/2+x,1/2-y,-z
1/2-x,1/2+y,-z
1/2-x,1/2-y,-z
1/2+x,1/2+y,-z
1/2-x,1/2+y,z
1/2+x,1/2-y,z
loop_
_atom_site_type_symbol
_atom_site_label
_atom_site_fract_x
_atom_site_fract_y
_atom_site_fract_z
Si Si1 0.307341 0.500000 0.792444
Si Si2 0.309545 0.647661 0.500000
Si Si3 0.810497 0.852503 0.274628
Si Si4 0.190776 0.148194 0.953479
Si Si5 0.687833 0.000000 0.338318
Si Si6 0.308600 0.500000 0.432500
Si Si7 0.806410 0.000000 0.887944
O O1 0.500000 0.500000 0.793021
O O2 0.258603 0.588629 0.765952
O O3 0.251636 0.500000 0.840168
O O4 0.500000 0.649219 0.500000
O O5 0.250000 0.750000 0.500000
O O6 0.260443 0.588269 0.459590
O O7 0.750000 0.750000 0.274504
O O8 0.000000 0.851206 0.275088
O O9 0.753108 0.911688 0.314083
O O10 0.250000 0.250000 0.948722
O O11 0.244885 0.085923 0.915423
O O12 0.000000 0.147362 0.953176
O O13 0.240189 0.115749 0.000000
O O14 0.740304 0.000000 0.386301
O O15 0.500000 0.000000 0.335238
O O16 0.500000 0.500000 0.430179
O O17 0.000000 0.000000 0.886955
#
# Coordination Sequence:
#
# PCOD9490453 Si02
#       7
#     8   8  16  16   8   8   8
#     4   8  17  32  50  73  99 127 162 207 255 301
#     4   9  19  35  56  78 106 145 183 217 259 306
#     4  10  20  36  56  77 103 135 170 212 262 314
#     4   9  17  29  46  68  94 125 161 200 242 290
#     4  11  22  36  56  83 109 138 177 219 264 313
#     4   9  19  37  55  76 110 147 177 215 264 309
#     4   9  16  29  49  70  94 127 165 200 240 296
#
# _framework density 18.048120000000001
#
# number of rings (size 3 to 8) (size 9 to 14) (size 15 to 20)
#    0.000    2.667    0.000    3.333    0.000    4.000 
#    0.000    3.889    0.000    9.333    0.000    0.000 
#    0.000    0.000    0.000    0.000    0.000    0.000 
#
# Total GULP energy -200754.942471 kJ/mol
# GULP energy per Si atom -5576.526180 kJ/mol
# Density = 1.800704 g / cm^3
# Si number density = 18.048120 Si / 1000 Ang^3
#
#
#
# Elastic Constant Matrix: (Units=GPa)
#
#
# Indices 1 2 3 4 5 6 
#
# 1 33.8849 34.1294 35.0551 0.0000 0.0000 0.0000
# 2 34.1294 181.0107 113.1398 0.0000 0.0000 0.0000
# 3 35.0551 113.1398 204.1654 0.0000 0.0000 0.0000
# 4 0.0000 0.0000 0.0000 7.4803 0.0000 0.0000
# 5 0.0000 0.0000 0.0000 0.0000 13.8439 0.0000
# 6 0.0000 0.0000 0.0000 0.0000 0.0000 27.3377
#
#
#
# Elastic Compliance Matrix: (Units=1/GPa)
#
#
# Indices 1 2 3 4 5 6 
#
# 1 0.038404 -0.004773 -0.003949 0.000000 0.000000 0.000000
# 2 -0.004773 0.009045 -0.004193 0.000000 0.000000 0.000000
# 3 -0.003949 -0.004193 0.007900 0.000000 0.000000 0.000000
# 4 0.000000 0.000000 0.000000 0.133685 0.000000 0.000000
# 5 0.000000 0.000000 0.000000 0.000000 0.072234 0.000000
# 6 0.000000 0.000000 0.000000 0.000000 0.000000 0.036580
#
#
# Mechanical properties :
#
#
# Convention : Reuss Voigt Hill
#
# Bulk Modulus (GPa) = 33.87594 87.07885 60.47739
# Shear Modulus (GPa) = 14.99170 25.51482 20.25326
#
# Velocity S-wave (km/s) = 2.88523 3.76401 3.35353
# Velocity P-wave (km/s) = 5.46900 8.20020 6.96969
#
# Compressibility (1/GPa) = 0.02951948
#
# Stress axis : x y z
#
# Youngs Moduli (GPa) = 26.03869 110.55528 126.58780
#
# Poissons Ratio (x) = 0.52765 0.49992
# Poissons Ratio (y) = 0.12427 0.53079
# Poissons Ratio (z) = 0.10283 0.46356
#
# Static dielectric constant tensor:
#      x y z
#    x 1.614020 0.000000 0.000000 
#    y 0.000000 1.639080 0.000000 
#    z 0.000000 0.000000 1.613530 
# 
# From -- ./inp_files/76395.got.cif
#   From: 2010.05.17/outbox.cif.g08.bks.cpg/sg65_39_cif.got.tgz:76395.got - 2010.06.03 17:01:31.
