data_PCOD9490476
_publ_section_title
;
Structure prediction by ZEFSAII (Michael W. Deem and Ramdas Pophale) SiO2 
 PCOD9490476
Probable space group: C M M M
;
_chemical_formula_sum "Si O2"
_cell_formula_units_Z 88
_cell_length_a 23.900969
_cell_length_b 8.585440
_cell_length_c 23.361915
_cell_angle_alpha 90.000000
_cell_angle_beta 90.000000
_cell_angle_gamma 90.000000
_cell_volume 4793.872791
_symmetry_space_group_name_H-M "C M M M"
_symmetry_group_IT_number 65
_symmetry_cell_setting 'orthorhombic'
loop_
_space_group_symop_operation_xyz
x,y,z
-x,-y,z
x,-y,-z
-x,y,-z
-x,-y,-z
x,y,-z
-x,y,z
x,-y,z
1/2+x,1/2+y,z
1/2-x,1/2-y,z
1/2+x,1/2-y,-z
1/2-x,1/2+y,-z
1/2-x,1/2-y,-z
1/2+x,1/2+y,-z
1/2-x,1/2+y,z
1/2+x,1/2-y,z
loop_
_atom_site_type_symbol
_atom_site_label
_atom_site_fract_x
_atom_site_fract_y
_atom_site_fract_z
Si Si1 0.618432 0.187486 0.608574
Si Si2 0.313464 0.686189 0.500000
Si Si3 0.500000 0.313717 0.220860
Si Si4 0.688583 0.188147 0.934400
Si Si5 0.000000 0.187220 0.354942
Si Si6 0.614974 0.188503 0.171072
Si Si7 0.187822 0.687199 0.720679
O O1 0.652726 0.254107 0.555267
O O2 0.555549 0.249901 0.614424
O O3 0.650625 0.235433 0.666576
O O4 0.617586 0.000000 0.605149
O O5 0.311376 0.500000 0.500000
O O6 0.250000 0.750000 0.500000
O O7 0.500000 0.500000 0.221458
O O8 0.500000 0.260958 0.287774
O O9 0.554937 0.253653 0.188461
O O10 0.750000 0.250000 0.917784
O O11 0.641325 0.238212 0.889459
O O12 0.690699 0.000000 0.933311
O O13 0.677714 0.237632 0.000000
O O14 0.000000 0.000000 0.355960
O O15 0.657995 0.237556 0.220898
O O16 0.611518 0.000000 0.171280
O O17 0.189826 0.500000 0.720845
O O18 0.250000 0.750000 0.715957
#
# Coordination Sequence:
#
# PCOD9490476 Si02
#       7
#    16   8   8  16   8  16  16
#     4  11  23  41  64  89 118 156 198 240 290 350
#     4  12  26  45  66  91 124 160 198 240 290 346
#     4  11  23  37  57  85 115 150 193 241 294 345
#     4   9  18  33  55  83 115 152 193 237 287 343
#     4  11  23  40  62  90 120 153 192 245 298 349
#     4  10  20  36  56  80 112 152 193 236 288 346
#     4  10  21  34  54  83 113 146 186 234 287 342
#
# _framework density 18.356767000000001
#
# number of rings (size 3 to 8) (size 9 to 14) (size 15 to 20)
#    0.000    1.636    1.818    3.000    0.000    5.455 
#    0.000    2.273    0.000    2.727    0.000    0.000 
#    0.000    0.000    0.000    0.000    0.000    0.000 
#
# Total GULP energy -245830.098185 kJ/mol
# GULP energy per Si atom -5587.047686 kJ/mol
# Density = 1.831499 g / cm^3
# Si number density = 18.356767 Si / 1000 Ang^3
#
#
#
# Elastic Constant Matrix: (Units=GPa)
#
#
# Indices 1 2 3 4 5 6 
#
# 1 189.5647 41.4623 86.3081 0.0000 0.0000 0.0000
# 2 41.4623 41.2027 37.1423 0.0000 0.0000 0.0000
# 3 86.3081 37.1423 125.6190 0.0000 0.0000 0.0000
# 4 0.0000 0.0000 0.0000 9.8758 0.0000 0.0000
# 5 0.0000 0.0000 0.0000 0.0000 33.2560 0.0000
# 6 0.0000 0.0000 0.0000 0.0000 0.0000 37.2663
#
#
#
# Elastic Compliance Matrix: (Units=1/GPa)
#
#
# Indices 1 2 3 4 5 6 
#
# 1 0.008207 -0.004329 -0.004358 0.000000 0.000000 0.000000
# 2 -0.004329 0.035374 -0.007485 0.000000 0.000000 0.000000
# 3 -0.004358 -0.007485 0.013168 0.000000 0.000000 0.000000
# 4 0.000000 0.000000 0.000000 0.101258 0.000000 0.000000
# 5 0.000000 0.000000 0.000000 0.000000 0.030070 0.000000
# 6 0.000000 0.000000 0.000000 0.000000 0.000000 0.026834
#
#
# Mechanical properties :
#
#
# Convention : Reuss Voigt Hill
#
# Bulk Modulus (GPa) = 40.97711 76.24577 58.61144
# Shear Modulus (GPa) = 19.57796 28.84452 24.21124
#
# Velocity S-wave (km/s) = 3.26931 3.96830 3.63564
# Velocity P-wave (km/s) = 6.05164 7.91342 7.04431
#
# Compressibility (1/GPa) = 0.02440387
#
# Stress axis : x y z
#
# Youngs Moduli (GPa) = 121.85459 28.26940 75.94178
#
# Poissons Ratio (x) = 0.12239 0.33098
# Poissons Ratio (y) = 0.52756 0.56839
# Poissons Ratio (z) = 0.53108 0.21158
#
# Static dielectric constant tensor:
#      x y z
#    x 1.591800 0.000000 0.000000 
#    y 0.000000 1.622740 0.000000 
#    z 0.000000 0.000000 1.635350 
# 
# From -- ./inp_files/71093.got.cif
#   From: 2010.05.17/outbox.cif.g08.bks.cpg/sg65_36_cif.got.tgz:71093.got - 2010.06.03 17:01:31.
