data_PCOD9490752
_publ_section_title
;
Structure prediction by ZEFSAII (Michael W. Deem and Ramdas Pophale) SiO2 
 PCOD9490752
Probable space group: C M M M
;
_chemical_formula_sum "Si O2"
_cell_formula_units_Z 96
_cell_length_a 21.420529
_cell_length_b 21.843447
_cell_length_c 11.270673
_cell_angle_alpha 90.000000
_cell_angle_beta 90.000000
_cell_angle_gamma 90.000000
_cell_volume 5273.527496
_symmetry_space_group_name_H-M "C M M M"
_symmetry_group_IT_number 65
_symmetry_cell_setting 'orthorhombic'
loop_
_space_group_symop_operation_xyz
x,y,z
-x,-y,z
x,-y,-z
-x,y,-z
-x,-y,-z
x,y,-z
-x,y,z
x,-y,z
1/2+x,1/2+y,z
1/2-x,1/2-y,z
1/2+x,1/2-y,-z
1/2-x,1/2+y,-z
1/2-x,1/2-y,-z
1/2+x,1/2+y,-z
1/2-x,1/2+y,z
1/2+x,1/2-y,z
loop_
_atom_site_type_symbol
_atom_site_label
_atom_site_fract_x
_atom_site_fract_y
_atom_site_fract_z
Si Si1 0.849706 0.130529 0.703670
Si Si2 0.925071 0.224359 0.142641
Si Si3 0.775658 0.572572 0.355274
Si Si4 0.105378 0.645835 0.259386
Si Si5 0.935169 0.308901 0.500000
Si Si6 0.682922 0.277992 0.500000
Si Si7 0.000000 0.431793 0.859373
Si Si8 0.569160 0.427251 0.500000
O O1 0.887286 0.165171 0.807726
O O2 0.788874 0.087428 0.714571
O O3 0.823791 0.183573 0.618752
O O4 0.897015 0.094695 0.618451
O O5 0.895851 0.286007 0.201638
O O6 0.000000 0.221951 0.172404
O O7 0.920221 0.227871 0.000000
O O8 0.769435 0.584993 0.500000
O O9 0.790064 0.500000 0.345451
O O10 0.828836 0.615172 0.295882
O O11 0.069055 0.651474 0.383128
O O12 0.062432 0.603550 0.178146
O O13 0.874276 0.268013 0.500000
O O14 0.000000 0.272305 0.500000
O O15 0.750000 0.250000 0.500000
O O16 0.000000 0.500000 0.807523
O O17 0.000000 0.435147 0.000000
O O18 0.568262 0.500000 0.500000
O O19 0.500000 0.401442 0.500000
#
# Coordination Sequence:
#
# PCOD9490752 Si02
#       8
#    16  16  16  16   8   8   8   8
#     4  11  22  36  61  90 127 159 205 250 311 379
#     4  11  24  42  64  90 126 168 211 263 322 380
#     4  11  23  40  62  91 129 171 207 254 322 391
#     4  12  22  39  61  91 124 164 213 257 317 384
#     4  12  21  33  55  91 128 158 190 256 325 378
#     4  11  21  33  53  86 122 158 189 235 307 382
#     4  11  24  43  63  83 117 170 225 272 308 353
#     4  10  20  36  62  96 127 160 203 256 314 377
#
# _framework density 18.204134
#
# number of rings (size 3 to 8) (size 9 to 14) (size 15 to 20)
#    0.000    0.833    5.833    3.000    0.000    1.333 
#    0.000    2.917    0.000    4.000    0.000    5.833 
#    0.000    0.000    0.000    0.000    0.000    0.000 
#
# Total GULP energy -267647.290710 kJ/mol
# GULP energy per Si atom -5575.985223 kJ/mol
# Density = 1.816270 g / cm^3
# Si number density = 18.204134 Si / 1000 Ang^3
#
#
#
# Elastic Constant Matrix: (Units=GPa)
#
#
# Indices 1 2 3 4 5 6 
#
# 1 133.4459 44.7367 24.5122 0.0000 0.0000 0.0000
# 2 44.7367 77.9254 31.8375 0.0000 0.0000 0.0000
# 3 24.5122 31.8375 84.9743 0.0000 0.0000 0.0000
# 4 0.0000 0.0000 0.0000 17.9505 0.0000 0.0000
# 5 0.0000 0.0000 0.0000 0.0000 42.9564 0.0000
# 6 0.0000 0.0000 0.0000 0.0000 0.0000 35.9191
#
#
#
# Elastic Compliance Matrix: (Units=1/GPa)
#
#
# Indices 1 2 3 4 5 6 
#
# 1 0.009326 -0.005024 -0.000808 0.000000 0.000000 0.000000
# 2 -0.005024 0.017859 -0.005242 0.000000 0.000000 0.000000
# 3 -0.000808 -0.005242 0.013965 0.000000 0.000000 0.000000
# 4 0.000000 0.000000 0.000000 0.055709 0.000000 0.000000
# 5 0.000000 0.000000 0.000000 0.000000 0.023279 0.000000
# 6 0.000000 0.000000 0.000000 0.000000 0.000000 0.027840
#
#
# Mechanical properties :
#
#
# Convention : Reuss Voigt Hill
#
# Bulk Modulus (GPa) = 52.62458 55.39094 54.00776
# Shear Modulus (GPa) = 28.33482 32.38247 30.35864
#
# Velocity S-wave (km/s) = 3.94954 4.22222 4.08815
# Velocity P-wave (km/s) = 7.05473 7.36636 7.21223
#
# Compressibility (1/GPa) = 0.01900253
#
# Stress axis : x y z
#
# Youngs Moduli (GPa) = 107.22260 55.99479 71.60595
#
# Poissons Ratio (x) = 0.28133 0.05785
# Poissons Ratio (y) = 0.53870 0.37535
# Poissons Ratio (z) = 0.08663 0.29352
#
# Static dielectric constant tensor:
#      x y z
#    x 1.636980 0.000000 0.000000 
#    y 0.000000 1.607080 0.000000 
#    z 0.000000 0.000000 1.611210 
# 
# From -- ./inp_files/29125.got.cif
#   From: 2010.05.17/outbox.cif.g08.bks.cpg/sg65_15_cif.got.tgz:29125.got - 2010.06.03 17:01:31.
