data_PCOD9490686
_publ_section_title
;
Structure prediction by ZEFSAII (Michael W. Deem and Ramdas Pophale) SiO2 
 PCOD9490686
Probable space group: C M M M
;
_chemical_formula_sum "Si O2"
_cell_formula_units_Z 72
_cell_length_a 18.601632
_cell_length_b 7.986616
_cell_length_c 25.418698
_cell_angle_alpha 90.000000
_cell_angle_beta 90.000000
_cell_angle_gamma 90.000000
_cell_volume 3776.305782
_symmetry_space_group_name_H-M "C M M M"
_symmetry_group_IT_number 65
_symmetry_cell_setting 'orthorhombic'
loop_
_space_group_symop_operation_xyz
x,y,z
-x,-y,z
x,-y,-z
-x,y,-z
-x,-y,-z
x,y,-z
-x,y,z
x,-y,z
1/2+x,1/2+y,z
1/2-x,1/2-y,z
1/2+x,1/2-y,-z
1/2-x,1/2+y,-z
1/2-x,1/2-y,-z
1/2+x,1/2+y,-z
1/2-x,1/2+y,z
1/2+x,1/2-y,z
loop_
_atom_site_type_symbol
_atom_site_label
_atom_site_fract_x
_atom_site_fract_y
_atom_site_fract_z
Si Si1 0.412544 0.500000 0.060137
Si Si2 0.417319 0.203268 0.338643
Si Si3 0.085878 0.687785 0.132021
Si Si4 0.667170 0.303119 0.234309
Si Si5 0.167190 0.298031 0.558781
O O1 0.500000 0.500000 0.058767
O O2 0.391163 0.666251 0.092067
O O3 0.387120 0.500000 0.000000
O O4 0.500000 0.256644 0.334122
O O5 0.371376 0.264517 0.289348
O O6 0.382307 0.261404 0.393531
O O7 0.415773 0.000000 0.338231
O O8 0.098259 0.500000 0.111340
O O9 0.126649 0.710226 0.186972
O O10 0.000000 0.706300 0.141184
O O11 0.662440 0.500000 0.223550
O O12 0.750000 0.250000 0.236974
O O13 0.147510 0.237461 0.500000
O O14 0.162913 0.500000 0.558015
O O15 0.250000 0.250000 0.568429
#
# Coordination Sequence:
#
# PCOD9490686 Si02
#       5
#     8  16  16  16  16
#     4   9  18  34  58  90 124 158 198 240 284 337
#     4  10  21  36  54  79 111 144 184 234 288 348
#     4  10  20  36  59  88 121 156 195 241 290 342
#     4  12  24  38  57  82 111 148 190 238 290 350
#     4   9  18  33  53  76 104 142 186 233 283 339
#
# _framework density 19.066251999999999
#
# number of rings (size 3 to 8) (size 9 to 14) (size 15 to 20)
#    0.000    1.889    1.111    3.333    0.000    6.667 
#    0.000    4.444    0.000    0.667    0.000    4.667 
#    0.000    0.000    0.000    0.000    0.000    0.000 
#
# Total GULP energy -201071.256322 kJ/mol
# GULP energy per Si atom -5585.312676 kJ/mol
# Density = 1.902286 g / cm^3
# Si number density = 19.066252 Si / 1000 Ang^3
#
#
#
# Elastic Constant Matrix: (Units=GPa)
#
#
# Indices 1 2 3 4 5 6 
#
# 1 79.3844 37.1407 67.2597 0.0000 0.0000 0.0000
# 2 37.1407 90.7468 49.1206 0.0000 0.0000 0.0000
# 3 67.2597 49.1206 149.9981 0.0000 0.0000 0.0000
# 4 0.0000 0.0000 0.0000 15.8118 0.0000 0.0000
# 5 0.0000 0.0000 0.0000 0.0000 73.5881 0.0000
# 6 0.0000 0.0000 0.0000 0.0000 0.0000 20.3641
#
#
#
# Elastic Compliance Matrix: (Units=1/GPa)
#
#
# Indices 1 2 3 4 5 6 
#
# 1 0.021661 -0.004385 -0.008277 0.000000 0.000000 0.000000
# 2 -0.004385 0.014282 -0.002711 0.000000 0.000000 0.000000
# 3 -0.008277 -0.002711 0.011266 0.000000 0.000000 0.000000
# 4 0.000000 0.000000 0.000000 0.063244 0.000000 0.000000
# 5 0.000000 0.000000 0.000000 0.000000 0.013589 0.000000
# 6 0.000000 0.000000 0.000000 0.000000 0.000000 0.049106
#
#
# Mechanical properties :
#
#
# Convention : Reuss Voigt Hill
#
# Bulk Modulus (GPa) = 60.74103 69.68569 65.21336
# Shear Modulus (GPa) = 23.87989 33.06004 28.46996
#
# Velocity S-wave (km/s) = 3.54286 4.16860 3.86840
# Velocity P-wave (km/s) = 6.97588 7.73293 7.36414
#
# Compressibility (1/GPa) = 0.01646334
#
# Stress axis : x y z
#
# Youngs Moduli (GPa) = 46.16501 70.01997 88.76413
#
# Poissons Ratio (x) = 0.30706 0.73470
# Poissons Ratio (y) = 0.20245 0.24060
# Poissons Ratio (z) = 0.38211 0.18979
#
# Static dielectric constant tensor:
#      x y z
#    x 1.628880 0.000000 0.000000 
#    y 0.000000 1.682480 0.000000 
#    z 0.000000 0.000000 1.636800 
# 
# From -- ./inp_files/67112.got.cif
#   From: 2010.05.17/outbox.cif.g08.bks.cpg/sg65_34_cif.got.tgz:67112.got - 2010.06.03 17:01:31.
