data_PCOD9490220
_publ_section_title
;
Structure prediction by ZEFSAII (Michael W. Deem and Ramdas Pophale) SiO2 
 PCOD9490220
Probable space group: C M M M
;
_chemical_formula_sum "Si O2"
_cell_formula_units_Z 104
_cell_length_a 9.035097
_cell_length_b 27.172797
_cell_length_c 21.095898
_cell_angle_alpha 90.000000
_cell_angle_beta 90.000000
_cell_angle_gamma 90.000000
_cell_volume 5179.229798
_symmetry_space_group_name_H-M "C M M M"
_symmetry_group_IT_number 65
_symmetry_cell_setting 'orthorhombic'
loop_
_space_group_symop_operation_xyz
x,y,z
-x,-y,z
x,-y,-z
-x,y,-z
-x,-y,-z
x,y,-z
-x,y,z
x,-y,z
1/2+x,1/2+y,z
1/2-x,1/2-y,z
1/2+x,1/2-y,-z
1/2-x,1/2+y,-z
1/2-x,1/2-y,-z
1/2+x,1/2+y,-z
1/2-x,1/2+y,z
1/2+x,1/2-y,z
loop_
_atom_site_type_symbol
_atom_site_label
_atom_site_fract_x
_atom_site_fract_y
_atom_site_fract_z
Si Si1 0.166681 0.441861 0.500000
Si Si2 0.175940 0.700218 0.193859
Si Si3 0.823525 0.555709 0.111938
Si Si4 0.825229 0.697638 0.575573
Si Si5 0.323912 0.655718 0.928320
Si Si6 0.173704 0.406346 0.748031
Si Si7 0.824496 0.898566 0.378095
O O1 0.154110 0.500000 0.500000
O O2 0.253463 0.426238 0.437496
O O3 0.000000 0.419993 0.500000
O O4 0.250000 0.750000 0.218802
O O5 0.241962 0.687874 0.124588
O O6 0.204708 0.650736 0.234020
O O7 0.000000 0.706511 0.189828
O O8 0.783852 0.500000 0.093375
O O9 0.734671 0.599692 0.079304
O O10 0.801171 0.563283 0.187541
O O11 0.000000 0.562608 0.100366
O O12 0.806865 0.686885 0.500000
O O13 0.750000 0.750000 0.587262
O O14 0.743840 0.655962 0.615324
O O15 0.000000 0.698823 0.589306
O O16 0.500000 0.657009 0.917157
O O17 0.293891 0.672353 0.000000
O O18 0.271263 0.420850 0.688356
O O19 0.000000 0.410586 0.731550
O O20 0.000000 0.897375 0.382718
#
# Coordination Sequence:
#
# PCOD9490220 Si02
#       7
#     8  16  16  16  16  16  16
#     4  11  25  45  66  85 110 149 193 237 287 343
#     4  10  21  38  61  86 115 154 196 240 285 333
#     4   9  19  37  60  84 111 147 191 239 289 341
#     4  10  20  35  57  82 112 147 183 222 271 329
#     4  10  21  36  55  83 119 156 194 237 285 338
#     4   9  20  38  58  82 114 151 193 235 280 339
#     4  12  24  38  60  88 119 150 185 233 289 344
#
# _framework density 20.080206
#
# number of rings (size 3 to 8) (size 9 to 14) (size 15 to 20)
#    0.000    1.923    0.769    3.923    0.000    7.692 
#    0.000    4.615    0.000    0.000    0.000    0.000 
#    0.000    0.000    0.000    0.000    0.000    0.000 
#
# Total GULP energy -290653.832042 kJ/mol
# GULP energy per Si atom -5589.496770 kJ/mol
# Density = 2.003450 g / cm^3
# Si number density = 20.080206 Si / 1000 Ang^3
#
#
#
# Elastic Constant Matrix: (Units=GPa)
#
#
# Indices 1 2 3 4 5 6 
#
# 1 83.0601 1.9207 42.9381 0.0000 0.0000 0.0000
# 2 1.9207 44.5346 -12.0840 0.0000 0.0000 0.0000
# 3 42.9381 -12.0840 67.3640 0.0000 0.0000 0.0000
# 4 0.0000 0.0000 0.0000 -0.4925 0.0000 0.0000
# 5 0.0000 0.0000 0.0000 0.0000 22.6855 0.0000
# 6 0.0000 0.0000 0.0000 0.0000 0.0000 28.8560
#
#
#
# Elastic Compliance Matrix: (Units=1/GPa)
#
#
# Indices 1 2 3 4 5 6 
#
# 1 0.018690 -0.004245 -0.012674 0.000000 0.000000 0.000000
# 2 -0.004245 0.024568 0.007113 0.000000 0.000000 0.000000
# 3 -0.012674 0.007113 0.024199 0.000000 0.000000 0.000000
# 4 0.000000 0.000000 0.000000 -2.030502 0.000000 0.000000
# 5 0.000000 0.000000 0.000000 0.000000 0.044081 0.000000
# 6 0.000000 0.000000 0.000000 0.000000 0.000000 0.034655
#
#
# Mechanical properties :
#
#
# Convention : Reuss Voigt Hill
#
# Bulk Modulus (GPa) = 20.90153 28.94534 24.92344
# Shear Modulus (GPa) = -2.70453 21.02207 9.15877
#
# Velocity S-wave (km/s) = -1.16180 3.23910 2.13799
# Velocity P-wave (km/s) = 2.93801 5.33247 4.30506
#
# Compressibility (1/GPa) = 0.04784339
#
# Stress axis : x y z
#
# Youngs Moduli (GPa) = 53.50549 40.70406 41.32345
#
# Poissons Ratio (x) = 0.17279 0.52375
# Poissons Ratio (y) = 0.22714 -0.29393
# Poissons Ratio (z) = 0.67815 -0.28952
#
# Static dielectric constant tensor:
#      x y z
#    x 1.667640 0.000000 0.000000 
#    y 0.000000 1.713240 0.000000 
#    z 0.000000 0.000000 1.720000 
# 
# From -- ./inp_files/60444.got.cif
#   From: 2010.05.17/outbox.cif.g08.bks.cpg/sg65_31_cif.got.tgz:60444.got - 2010.06.03 17:01:31.
