data_PCOD9490452
_publ_section_title
;
Structure prediction by ZEFSAII (Michael W. Deem and Ramdas Pophale) SiO2 
 PCOD9490452
Probable space group: C M M M
;
_chemical_formula_sum "Si O2"
_cell_formula_units_Z 88
_cell_length_a 16.976611
_cell_length_b 14.470762
_cell_length_c 18.229275
_cell_angle_alpha 90.000000
_cell_angle_beta 90.000000
_cell_angle_gamma 90.000000
_cell_volume 4478.285680
_symmetry_space_group_name_H-M "C M M M"
_symmetry_group_IT_number 65
_symmetry_cell_setting 'orthorhombic'
loop_
_space_group_symop_operation_xyz
x,y,z
-x,-y,z
x,-y,-z
-x,y,-z
-x,-y,-z
x,y,-z
-x,y,z
x,-y,z
1/2+x,1/2+y,z
1/2-x,1/2-y,z
1/2+x,1/2-y,-z
1/2-x,1/2+y,-z
1/2-x,1/2-y,-z
1/2+x,1/2+y,-z
1/2-x,1/2+y,z
1/2+x,1/2-y,z
loop_
_atom_site_type_symbol
_atom_site_label
_atom_site_fract_x
_atom_site_fract_y
_atom_site_fract_z
Si Si1 0.586505 0.888085 0.500000
Si Si2 0.805995 0.608189 0.634809
Si Si3 0.096566 0.102922 0.000000
Si Si4 0.094541 0.754703 0.118277
Si Si5 0.625455 0.609661 0.586212
Si Si6 0.403508 0.894056 0.000000
Si Si7 0.589933 0.244743 0.712050
O O1 0.500000 0.848431 0.500000
O O2 0.634731 0.862861 0.570578
O O3 0.582153 0.000000 0.500000
O O4 0.816165 0.500000 0.652428
O O5 0.718965 0.619015 0.602566
O O6 0.838690 0.673666 0.697283
O O7 0.123023 0.159095 0.070883
O O8 0.000000 0.101160 0.000000
O O9 0.125738 0.000000 0.000000
O O10 0.121558 0.663419 0.073104
O O11 0.106513 0.772205 0.204031
O O12 0.000000 0.751001 0.110656
O O13 0.609459 0.634047 0.500000
O O14 0.605284 0.500000 0.594275
O O15 0.590610 0.674383 0.650321
O O16 0.500000 0.895907 0.000000
O O17 0.376707 0.000000 0.000000
O O18 0.500000 0.204280 0.709539
#
# Coordination Sequence:
#
# PCOD9490452 Si02
#       7
#     8  16   8  16  16   8  16
#     4   9  16  28  49  76 102 126 163 219 272 312
#     4  10  20  36  56  77 102 138 181 224 270 322
#     4   8  13  25  48  69  91 132 176 212 254 308
#     4   8  16  29  42  70 110 137 168 211 259 320
#     4  10  22  41  59  73  97 142 197 239 270 317
#     4   8  13  25  48  71  99 144 180 202 246 320
#     4  11  23  34  51  82 117 146 172 220 283 331
#
# _framework density 19.650376999999999
#
# number of rings (size 3 to 8) (size 9 to 14) (size 15 to 20)
#    0.000    2.636    0.909    2.182    1.273    4.000 
#    0.000    4.545    0.000    0.000    0.000   10.182 
#    0.000   17.455    0.000    0.000    0.000    0.000 
#
# Total GULP energy -244976.549504 kJ/mol
# GULP energy per Si atom -5567.648852 kJ/mol
# Density = 1.960565 g / cm^3
# Si number density = 19.650377 Si / 1000 Ang^3
#
#
#
# Elastic Constant Matrix: (Units=GPa)
#
#
# Indices 1 2 3 4 5 6 
#
# 1 41.1490 11.9667 13.5015 0.0000 0.0000 0.0000
# 2 11.9667 116.9284 77.8768 0.0000 0.0000 0.0000
# 3 13.5015 77.8768 155.4908 0.0000 0.0000 0.0000
# 4 0.0000 0.0000 0.0000 6.7592 0.0000 0.0000
# 5 0.0000 0.0000 0.0000 0.0000 -12.1489 0.0000
# 6 0.0000 0.0000 0.0000 0.0000 0.0000 15.0553
#
#
#
# Elastic Compliance Matrix: (Units=1/GPa)
#
#
# Indices 1 2 3 4 5 6 
#
# 1 0.025234 -0.001685 -0.001347 0.000000 0.000000 0.000000
# 2 -0.001685 0.012946 -0.006337 0.000000 0.000000 0.000000
# 3 -0.001347 -0.006337 0.009722 0.000000 0.000000 0.000000
# 4 0.000000 0.000000 0.000000 0.147946 0.000000 0.000000
# 5 0.000000 0.000000 0.000000 0.000000 -0.082312 0.000000
# 6 0.000000 0.000000 0.000000 0.000000 0.000000 0.066422
#
#
# Mechanical properties :
#
#
# Convention : Reuss Voigt Hill
#
# Bulk Modulus (GPa) = 34.29081 57.80648 46.04864
# Shear Modulus (GPa) = 23.99028 15.94800 19.96914
#
# Velocity S-wave (km/s) = 3.49787 2.85193 3.19128
# Velocity P-wave (km/s) = 5.81393 6.35028 6.08801
#
# Compressibility (1/GPa) = 0.02916233
#
# Stress axis : x y z
#
# Youngs Moduli (GPa) = 39.62903 77.24663 102.85681
#
# Poissons Ratio (x) = 0.13019 0.13855
# Poissons Ratio (y) = 0.06679 0.65184
# Poissons Ratio (z) = 0.05338 0.48954
#
# Static dielectric constant tensor:
#      x y z
#    x 1.714530 0.000000 0.000000 
#    y 0.000000 1.715030 0.000000 
#    z 0.000000 0.000000 1.707990 
# 
# From -- ./inp_files/54383.got.cif
#   From: 2010.05.17/outbox.cif.g08.bks.cpg/sg65_28_cif.got.tgz:54383.got - 2010.06.03 17:01:31.
