data_PCOD9490164
_publ_section_title
;
Structure prediction by ZEFSAII (Michael W. Deem and Ramdas Pophale) SiO2 
 PCOD9490164
Probable space group: C M M M
;
_chemical_formula_sum "Si O2"
_cell_formula_units_Z 104
_cell_length_a 29.703167
_cell_length_b 27.239128
_cell_length_c 7.669956
_cell_angle_alpha 90.000000
_cell_angle_beta 90.000000
_cell_angle_gamma 90.000000
_cell_volume 6205.672182
_symmetry_space_group_name_H-M "C M M M"
_symmetry_group_IT_number 65
_symmetry_cell_setting 'orthorhombic'
loop_
_space_group_symop_operation_xyz
x,y,z
-x,-y,z
x,-y,-z
-x,y,-z
-x,-y,-z
x,y,-z
-x,y,z
x,-y,z
1/2+x,1/2+y,z
1/2-x,1/2-y,z
1/2+x,1/2-y,-z
1/2-x,1/2+y,-z
1/2-x,1/2-y,-z
1/2+x,1/2+y,-z
1/2-x,1/2+y,z
1/2+x,1/2-y,z
loop_
_atom_site_type_symbol
_atom_site_label
_atom_site_fract_x
_atom_site_fract_y
_atom_site_fract_z
Si Si1 0.798398 0.943532 0.293228
Si Si2 0.799954 0.556788 0.209725
Si Si3 0.051635 0.500000 0.213217
Si Si4 0.396181 0.441619 0.801854
Si Si5 0.946246 0.694950 0.206691
Si Si6 0.054051 0.115609 0.500000
Si Si7 0.105756 0.596538 0.787371
Si Si8 0.445642 0.271701 0.500000
O O1 0.805589 0.943978 0.500000
O O2 0.749056 0.922294 0.257417
O O3 0.844232 0.923714 0.211592
O O4 0.794678 0.000000 0.229061
O O5 0.803799 0.500000 0.273775
O O6 0.842861 0.587922 0.270078
O O7 0.802076 0.554562 0.000000
O O8 0.077307 0.450939 0.269140
O O9 0.000000 0.500000 0.269129
O O10 0.052076 0.500000 0.000000
O O11 0.395931 0.500000 0.757429
O O12 0.426416 0.412275 0.667507
O O13 0.411844 0.436509 0.000000
O O14 0.918370 0.646926 0.262772
O O15 0.933162 0.740595 0.328436
O O16 0.000000 0.685674 0.228851
O O17 0.938885 0.703948 0.000000
O O18 0.069902 0.172236 0.500000
O O19 0.000000 0.114056 0.500000
O O20 0.105469 0.596328 0.000000
O O21 0.500000 0.273887 0.500000
#
# Coordination Sequence:
#
# PCOD9490164 Si02
#       8
#    16  16   8  16  16   8  16   8
#     4   9  16  28  46  68  99 138 175 206 239 281
#     4   9  15  24  39  63  97 132 169 214 260 304
#     4   9  14  20  34  59  93 133 174 211 257 323
#     4  10  20  35  56  83 114 145 172 194 226 282
#     4   9  17  31  51  71  93 127 174 223 267 311
#     4  11  23  38  57  81 111 141 168 201 239 284
#     4   9  15  24  39  64  96 131 170 217 268 316
#     4   9  20  37  54  73  96 126 167 217 262 292
#
# _framework density 16.758862000000001
#
# number of rings (size 3 to 8) (size 9 to 14) (size 15 to 20)
#    0.000    2.692    1.538    1.154    0.000    5.231 
#    1.385    2.308    0.000    0.462    0.000    4.308 
#    0.000    4.923    0.000    0.000    0.000    0.000 
#
# Total GULP energy -289796.113489 kJ/mol
# GULP energy per Si atom -5573.002182 kJ/mol
# Density = 1.672072 g / cm^3
# Si number density = 16.758862 Si / 1000 Ang^3
#
#
#
# Elastic Constant Matrix: (Units=GPa)
#
#
# Indices 1 2 3 4 5 6 
#
# 1 104.1320 53.0517 37.0244 0.0000 0.0000 0.0000
# 2 53.0517 102.9109 49.4574 0.0000 0.0000 0.0000
# 3 37.0244 49.4574 68.0077 0.0000 0.0000 0.0000
# 4 0.0000 0.0000 0.0000 10.2146 0.0000 0.0000
# 5 0.0000 0.0000 0.0000 0.0000 13.0448 0.0000
# 6 0.0000 0.0000 0.0000 0.0000 0.0000 5.0263
#
#
#
# Elastic Compliance Matrix: (Units=1/GPa)
#
#
# Indices 1 2 3 4 5 6 
#
# 1 0.013554 -0.005290 -0.003532 0.000000 0.000000 0.000000
# 2 -0.005290 0.017002 -0.009485 0.000000 0.000000 0.000000
# 3 -0.003532 -0.009485 0.023525 0.000000 0.000000 0.000000
# 4 0.000000 0.000000 0.000000 0.097899 0.000000 0.000000
# 5 0.000000 0.000000 0.000000 0.000000 0.076659 0.000000
# 6 0.000000 0.000000 0.000000 0.000000 0.000000 0.198954
#
#
# Mechanical properties :
#
#
# Convention : Reuss Voigt Hill
#
# Bulk Modulus (GPa) = 57.24830 61.56862 59.40846
# Shear Modulus (GPa) = 10.63763 14.69161 12.66462
#
# Velocity S-wave (km/s) = 2.52215 2.96403 2.75198
# Velocity P-wave (km/s) = 6.53574 6.96647 6.75454
#
# Compressibility (1/GPa) = 0.01746777
#
# Stress axis : x y z
#
# Youngs Moduli (GPa) = 73.77900 58.81547 42.50824
#
# Poissons Ratio (x) = 0.31112 0.15014
# Poissons Ratio (y) = 0.39027 0.40318
# Poissons Ratio (z) = 0.26060 0.55785
#
# Static dielectric constant tensor:
#      x y z
#    x 1.582640 0.000000 0.000000 
#    y 0.000000 1.538650 0.000000 
#    z 0.000000 0.000000 1.608070 
# 
# From -- ./inp_files/16849.got.cif
#   From: 2010.05.17/outbox.cif.g08.bks.cpg/sg65_9_cif.got.tgz:16849.got - 2010.06.03 17:01:31.
