data_PCOD9490489
_publ_section_title
;
Structure prediction by ZEFSAII (Michael W. Deem and Ramdas Pophale) SiO2 
 PCOD9490489
Probable space group: C M M M
;
_chemical_formula_sum "Si O2"
_cell_formula_units_Z 80
_cell_length_a 19.703982
_cell_length_b 8.115550
_cell_length_c 28.062534
_cell_angle_alpha 90.000000
_cell_angle_beta 90.000000
_cell_angle_gamma 90.000000
_cell_volume 4487.441959
_symmetry_space_group_name_H-M "C M M M"
_symmetry_group_IT_number 65
_symmetry_cell_setting 'orthorhombic'
loop_
_space_group_symop_operation_xyz
x,y,z
-x,-y,z
x,-y,-z
-x,y,-z
-x,-y,-z
x,y,-z
-x,y,z
x,-y,z
1/2+x,1/2+y,z
1/2-x,1/2-y,z
1/2+x,1/2-y,-z
1/2-x,1/2+y,-z
1/2-x,1/2-y,-z
1/2+x,1/2+y,-z
1/2-x,1/2+y,z
1/2+x,1/2-y,z
loop_
_atom_site_type_symbol
_atom_site_label
_atom_site_fract_x
_atom_site_fract_y
_atom_site_fract_z
Si Si1 0.826765 0.301216 0.307292
Si Si2 0.826732 0.696769 0.414865
Si Si3 0.079451 0.300669 0.220713
Si Si4 0.917358 0.815684 0.883783
Si Si5 0.582860 0.000000 0.055068
Si Si6 0.076783 0.803885 0.500000
O O1 0.830477 0.500000 0.308217
O O2 0.750000 0.250000 0.296193
O O3 0.841848 0.241400 0.361105
O O4 0.877315 0.244569 0.266044
O O5 0.827374 0.500000 0.413779
O O6 0.750000 0.750000 0.427426
O O7 0.880752 0.752890 0.453595
O O8 0.084998 0.500000 0.215996
O O9 0.102129 0.221909 0.170835
O O10 0.000000 0.262675 0.227762
O O11 0.894939 0.665456 0.917388
O O12 0.000000 0.813490 0.884611
O O13 0.895668 0.000000 0.897972
O O14 0.500000 0.000000 0.056086
O O15 0.603633 0.000000 0.000000
O O16 0.000000 0.735848 0.500000
O O17 0.072696 0.000000 0.500000
#
# Coordination Sequence:
#
# PCOD9490489 Si02
#       6
#    16  16  16  16   8   8
#     4   9  19  33  51  75 102 132 163 206 254 298
#     4  10  20  36  57  78 101 133 172 208 254 310
#     4   9  16  29  48  68  95 133 169 203 249 303
#     4   9  16  26  41  63  91 127 169 208 252 306
#     4   9  16  26  40  60  92 132 168 209 258 302
#     4  11  24  39  54  75 103 133 166 213 264 305
#
# _framework density 17.827528999999998
#
# number of rings (size 3 to 8) (size 9 to 14) (size 15 to 20)
#    0.000    2.600    1.000    1.200    0.000    3.600 
#    0.000    4.000    0.000    2.400    0.000    0.000 
#    0.000    0.800    0.400    0.000    0.000    0.000 
#
# Total GULP energy -223019.520812 kJ/mol
# GULP energy per Si atom -5575.488020 kJ/mol
# Density = 1.778695 g / cm^3
# Si number density = 17.827529 Si / 1000 Ang^3
#
#
#
# Elastic Constant Matrix: (Units=GPa)
#
#
# Indices 1 2 3 4 5 6 
#
# 1 59.5558 32.8779 76.9801 0.0000 0.0000 0.0000
# 2 32.8779 79.4436 61.1949 0.0000 0.0000 0.0000
# 3 76.9801 61.1949 153.7368 0.0000 0.0000 0.0000
# 4 0.0000 0.0000 0.0000 -1.9340 0.0000 0.0000
# 5 0.0000 0.0000 0.0000 0.0000 -36.6244 0.0000
# 6 0.0000 0.0000 0.0000 0.0000 0.0000 15.6350
#
#
#
# Elastic Compliance Matrix: (Units=1/GPa)
#
#
# Indices 1 2 3 4 5 6 
#
# 1 0.047803 -0.001940 -0.023164 0.000000 0.000000 0.000000
# 2 -0.001940 0.018233 -0.006286 0.000000 0.000000 0.000000
# 3 -0.023164 -0.006286 0.020605 0.000000 0.000000 0.000000
# 4 0.000000 0.000000 0.000000 -0.517073 0.000000 0.000000
# 5 0.000000 0.000000 0.000000 0.000000 -0.027304 0.000000
# 6 0.000000 0.000000 0.000000 0.000000 0.000000 0.063959
#
#
# Mechanical properties :
#
#
# Convention : Reuss Voigt Hill
#
# Bulk Modulus (GPa) = 41.90972 70.53799 56.22386
# Shear Modulus (GPa) = -15.47782 3.52756 -5.97513
#
# Velocity S-wave (km/s) = -2.94972 1.40819 -1.83273
# Velocity P-wave (km/s) = 3.45809 6.50360 5.20841
#
# Compressibility (1/GPa) = 0.02386081
#
# Stress axis : x y z
#
# Youngs Moduli (GPa) = 20.91914 54.84708 48.53083
#
# Poissons Ratio (x) = 0.10643 1.12416
# Poissons Ratio (y) = 0.04059 0.30506
# Poissons Ratio (z) = 0.48457 0.34476
#
# Static dielectric constant tensor:
#      x y z
#    x 1.578850 0.000000 0.000000 
#    y 0.000000 1.630780 0.000000 
#    z 0.000000 0.000000 1.615510 
# 
# From -- ./inp_files/75089.got.cif
#   From: 2010.05.17/outbox.cif.g08.bks.cpg/sg65_38_cif.got.tgz:75089.got - 2010.06.03 17:01:31.
