data_PCOD9490571
_publ_section_title
;
Structure prediction by ZEFSAII (Michael W. Deem and Ramdas Pophale) SiO2 
 PCOD9490571
Probable space group: C M M M
;
_chemical_formula_sum "Si O2"
_cell_formula_units_Z 88
_cell_length_a 8.670180
_cell_length_b 18.811069
_cell_length_c 29.564438
_cell_angle_alpha 90.000000
_cell_angle_beta 90.000000
_cell_angle_gamma 90.000000
_cell_volume 4821.822488
_symmetry_space_group_name_H-M "C M M M"
_symmetry_group_IT_number 65
_symmetry_cell_setting 'orthorhombic'
loop_
_space_group_symop_operation_xyz
x,y,z
-x,-y,z
x,-y,-z
-x,y,-z
-x,-y,-z
x,y,-z
-x,y,z
x,-y,z
1/2+x,1/2+y,z
1/2-x,1/2-y,z
1/2+x,1/2-y,-z
1/2-x,1/2+y,-z
1/2-x,1/2-y,-z
1/2+x,1/2+y,-z
1/2-x,1/2+y,z
1/2+x,1/2-y,z
loop_
_atom_site_type_symbol
_atom_site_label
_atom_site_fract_x
_atom_site_fract_y
_atom_site_fract_z
Si Si1 0.314081 0.828851 0.270659
Si Si2 0.184228 0.329859 0.000000
Si Si3 0.814848 0.083254 0.915047
Si Si4 0.314159 0.082118 0.356766
Si Si5 0.684300 0.585212 0.450811
Si Si6 0.685640 0.829968 0.168439
O O1 0.500000 0.826820 0.272104
O O2 0.250000 0.750000 0.276460
O O3 0.259780 0.876928 0.312210
O O4 0.272159 0.852602 0.219775
O O5 0.250000 0.250000 0.000000
O O6 0.243041 0.372249 0.956133
O O7 0.000000 0.326721 0.000000
O O8 0.755313 0.117834 0.868665
O O9 0.000000 0.088645 0.917307
O O10 0.772713 0.000000 0.918183
O O11 0.500000 0.082836 0.357146
O O12 0.257374 0.113252 0.404612
O O13 0.263133 0.000000 0.353997
O O14 0.738283 0.612896 0.500000
O O15 0.500000 0.594066 0.448715
O O16 0.715119 0.500000 0.451187
O O17 0.500000 0.828285 0.164539
O O18 0.750000 0.750000 0.161624
#
# Coordination Sequence:
#
# PCOD9490571 Si02
#       6
#    16   8  16  16  16  16
#     4   9  19  34  52  74 101 135 171 210 254 302
#     4  12  25  42  65  89 115 149 189 226 263 314
#     4  11  24  41  60  85 118 149 179 222 272 315
#     4   9  17  29  46  70  98 126 160 204 253 302
#     4   8  14  25  41  63  92 124 158 198 246 300
#     4  10  20  36  58  81 107 141 182 222 262 314
#
# _framework density 18.250361000000002
#
# number of rings (size 3 to 8) (size 9 to 14) (size 15 to 20)
#    0.000    2.364    0.000    3.273    0.000    5.091 
#    0.000    3.636    0.000    2.727    0.000    0.000 
#    0.000    0.000    0.000    0.000    0.000    0.000 
#
# Total GULP energy -245418.140023 kJ/mol
# GULP energy per Si atom -5577.685001 kJ/mol
# Density = 1.820882 g / cm^3
# Si number density = 18.250361 Si / 1000 Ang^3
#
#
#
# Elastic Constant Matrix: (Units=GPa)
#
#
# Indices 1 2 3 4 5 6 
#
# 1 43.9841 38.8273 52.1382 0.0000 0.0000 0.0000
# 2 38.8273 92.4101 101.0370 0.0000 0.0000 0.0000
# 3 52.1382 101.0370 212.2704 0.0000 0.0000 0.0000
# 4 0.0000 0.0000 0.0000 46.3352 0.0000 0.0000
# 5 0.0000 0.0000 0.0000 0.0000 21.5943 0.0000
# 6 0.0000 0.0000 0.0000 0.0000 0.0000 22.3196
#
#
#
# Elastic Compliance Matrix: (Units=1/GPa)
#
#
# Indices 1 2 3 4 5 6 
#
# 1 0.037385 -0.011819 -0.003557 0.000000 0.000000 0.000000
# 2 -0.011819 0.026300 -0.009616 0.000000 0.000000 0.000000
# 3 -0.003557 -0.009616 0.010162 0.000000 0.000000 0.000000
# 4 0.000000 0.000000 0.000000 0.021582 0.000000 0.000000
# 5 0.000000 0.000000 0.000000 0.000000 0.046308 0.000000
# 6 0.000000 0.000000 0.000000 0.000000 0.000000 0.044804
#
#
# Mechanical properties :
#
#
# Convention : Reuss Voigt Hill
#
# Bulk Modulus (GPa) = 41.90373 81.40773 61.65573
# Shear Modulus (GPa) = 20.45174 28.49398 24.47286
#
# Velocity S-wave (km/s) = 3.35120 3.95559 3.66587
# Velocity P-wave (km/s) = 6.16315 8.09724 7.19547
#
# Compressibility (1/GPa) = 0.02386422
#
# Stress axis : x y z
#
# Youngs Moduli (GPa) = 26.74874 38.02237 98.41041
#
# Poissons Ratio (x) = 0.44937 0.35006
# Poissons Ratio (y) = 0.31613 0.94627
# Poissons Ratio (z) = 0.09515 0.36561
#
# Static dielectric constant tensor:
#      x y z
#    x 1.617080 0.000000 0.000000 
#    y 0.000000 1.601480 0.000000 
#    z 0.000000 0.000000 1.654600 
# 
# From -- ./inp_files/76643.got.cif
#   From: 2010.05.17/outbox.cif.g08.bks.cpg/sg65_39_cif.got.tgz:76643.got - 2010.06.03 17:01:31.
