data_PCOD9490199
_publ_section_title
;
Structure prediction by ZEFSAII (Michael W. Deem and Ramdas Pophale) SiO2 
 PCOD9490199
Probable space group: C M M M
;
_chemical_formula_sum "Si O2"
_cell_formula_units_Z 58
_cell_length_a 14.654408
_cell_length_b 12.778970
_cell_length_c 16.366563
_cell_angle_alpha 90.000000
_cell_angle_beta 90.000000
_cell_angle_gamma 90.000000
_cell_volume 3064.937451
_symmetry_space_group_name_H-M "C M M M"
_symmetry_group_IT_number 65
_symmetry_cell_setting 'orthorhombic'
loop_
_space_group_symop_operation_xyz
x,y,z
-x,-y,z
x,-y,-z
-x,y,-z
-x,-y,-z
x,y,-z
-x,y,z
x,-y,z
1/2+x,1/2+y,z
1/2-x,1/2-y,z
1/2+x,1/2-y,-z
1/2-x,1/2+y,-z
1/2-x,1/2-y,-z
1/2+x,1/2+y,-z
1/2-x,1/2+y,z
1/2+x,1/2-y,z
loop_
_atom_site_type_symbol
_atom_site_label
_atom_site_fract_x
_atom_site_fract_y
_atom_site_fract_z
Si Si1 0.755082 0.000000 0.907049
Si Si2 0.605315 0.307490 0.909037
Si Si3 0.604583 0.000000 0.764727
Si Si4 0.000000 0.000000 0.500000
Si Si5 0.644940 0.224185 0.737894
Si Si6 0.000000 0.883895 0.668850
O O1 0.822235 0.099654 0.898724
O O2 0.678714 0.000000 0.837687
O O3 0.718556 0.000000 0.000000
O O4 0.500000 0.345056 0.904514
O O5 0.621443 0.229915 0.834587
O O6 0.618331 0.261964 0.000000
O O7 0.620678 0.106186 0.713646
O O8 0.500000 0.000000 0.794296
O O9 0.000000 0.089285 0.573263
O O10 0.750000 0.250000 0.725924
O O11 0.585595 0.314356 0.695947
O O12 0.000000 0.000000 0.709846
#
# Coordination Sequence:
#
# PCOD9490199 Si02
#       6
#     8  16   8   2  16   8
#     4  10  21  34  53  80 124 176 234 296 341 373
#     4  10  20  35  56  87 127 178 240 294 331 371
#     4  12  24  39  54  87 133 175 223 268 329 397
#     4   8  24  48  88 106 130 154 212 264 350 404
#     4  12  24  39  66  98 135 183 226 274 328 390
#     4  10  24  47  76 105 128 162 215 270 323 414
#
# _framework density 18.923714
#
# number of rings (size 3 to 8) (size 9 to 14) (size 15 to 20)
#    0.414    0.828    5.517    0.414    3.862    3.586 
#    0.000    0.690    0.000    1.655    0.000    0.000 
#    0.000    0.000    0.000    0.000    0.000    0.000 
#
# Total GULP energy -161670.371383 kJ/mol
# GULP energy per Si atom -5574.840393 kJ/mol
# Density = 1.888064 g / cm^3
# Si number density = 18.923714 Si / 1000 Ang^3
#
#
#
# Elastic Constant Matrix: (Units=GPa)
#
#
# Indices 1 2 3 4 5 6 
#
# 1 163.8134 51.4815 31.3199 0.0000 0.0000 0.0000
# 2 51.4815 148.9615 44.5274 0.0000 0.0000 0.0000
# 3 31.3199 44.5274 71.3750 0.0000 0.0000 0.0000
# 4 0.0000 0.0000 0.0000 -0.6992 0.0000 0.0000
# 5 0.0000 0.0000 0.0000 0.0000 0.6707 0.0000
# 6 0.0000 0.0000 0.0000 0.0000 0.0000 13.1216
#
#
#
# Elastic Compliance Matrix: (Units=1/GPa)
#
#
# Indices 1 2 3 4 5 6 
#
# 1 0.007060 -0.001861 -0.001937 0.000000 0.000000 0.000000
# 2 -0.001861 0.008742 -0.004637 0.000000 0.000000 0.000000
# 3 -0.001937 -0.004637 0.017754 0.000000 0.000000 0.000000
# 4 0.000000 0.000000 0.000000 -1.430274 0.000000 0.000000
# 5 0.000000 0.000000 0.000000 0.000000 1.490991 0.000000
# 6 0.000000 0.000000 0.000000 0.000000 0.000000 0.076210
#
#
# Mechanical properties :
#
#
# Convention : Reuss Voigt Hill
#
# Bulk Modulus (GPa) = 59.93341 70.97861 65.45601
# Shear Modulus (GPa) = 25.91808 19.74004 22.82906
#
# Velocity S-wave (km/s) = 3.70484 3.23327 3.47706
# Velocity P-wave (km/s) = 7.07396 7.17829 7.12632
#
# Compressibility (1/GPa) = 0.01668518
#
# Stress axis : x y z
#
# Youngs Moduli (GPa) = 141.65026 114.38399 56.32680
#
# Poissons Ratio (x) = 0.21285 0.10910
# Poissons Ratio (y) = 0.26359 0.26121
# Poissons Ratio (z) = 0.27437 0.53045
#
# Static dielectric constant tensor:
#      x y z
#    x 1.666580 0.000000 0.000000 
#    y 0.000000 1.727890 0.000000 
#    z 0.000000 0.000000 1.632870 
# 
# From -- ./inp_files/52479.got.cif
#   From: 2010.05.17/outbox.cif.g08.bks.cpg/sg65_27_cif.got.tgz:52479.got - 2010.06.03 17:01:31.
