data_PCOD9490128
_publ_section_title
;
Structure prediction by ZEFSAII (Michael W. Deem and Ramdas Pophale) SiO2 
 PCOD9490128
Probable space group: C M M M
;
_chemical_formula_sum "Si O2"
_cell_formula_units_Z 80
_cell_length_a 9.121470
_cell_length_b 17.862790
_cell_length_c 26.995597
_cell_angle_alpha 90.000000
_cell_angle_beta 90.000000
_cell_angle_gamma 90.000000
_cell_volume 4398.524981
_symmetry_space_group_name_H-M "C M M M"
_symmetry_group_IT_number 65
_symmetry_cell_setting 'orthorhombic'
loop_
_space_group_symop_operation_xyz
x,y,z
-x,-y,z
x,-y,-z
-x,y,-z
-x,-y,-z
x,y,-z
-x,y,z
x,-y,z
1/2+x,1/2+y,z
1/2-x,1/2-y,z
1/2+x,1/2-y,-z
1/2-x,1/2+y,-z
1/2-x,1/2-y,-z
1/2+x,1/2+y,-z
1/2-x,1/2+y,z
1/2+x,1/2-y,z
loop_
_atom_site_type_symbol
_atom_site_label
_atom_site_fract_x
_atom_site_fract_y
_atom_site_fract_z
Si Si1 0.678368 0.586253 0.792410
Si Si2 0.330256 0.591366 0.099265
Si Si3 0.830316 0.409667 0.399259
Si Si4 0.168386 0.591398 0.000000
Si Si5 0.676685 0.669443 0.308219
Si Si6 0.169606 0.908686 0.500000
O O1 0.500000 0.585256 0.794725
O O2 0.725994 0.500000 0.785839
O O3 0.727928 0.614573 0.846552
O O4 0.719711 0.634106 0.744857
O O5 0.500000 0.613350 0.094522
O O6 0.326891 0.500000 0.100291
O O7 0.244671 0.616626 0.050710
O O8 0.829308 0.500000 0.398912
O O9 0.739143 0.380525 0.352684
O O10 0.754117 0.384735 0.450428
O O11 0.000000 0.385021 0.396886
O O12 0.176243 0.500000 0.000000
O O13 0.000000 0.613205 0.000000
O O14 0.500000 0.673176 0.310695
O O15 0.750000 0.750000 0.312823
O O16 0.000000 0.884675 0.500000
O O17 0.169849 0.000000 0.500000
#
# Coordination Sequence:
#
# PCOD9490128 Si02
#       6
#    16  16  16   8  16   8
#     4   8  15  29  50  73  94 122 165 211 249 291
#     4   8  13  23  40  61  85 116 155 195 235 284
#     4  10  20  35  56  82 110 138 170 209 251 296
#     4   9  15  21  31  55  92 125 148 179 233 293
#     4  11  22  36  53  74 103 137 173 212 256 304
#     4   9  17  31  54  83 110 137 170 205 245 295
#
# _framework density 18.187916000000001
#
# number of rings (size 3 to 8) (size 9 to 14) (size 15 to 20)
#    0.000    2.800    0.000    3.600    0.000    4.400 
#    0.000    2.500    0.000    4.800    0.000    0.700 
#    0.000    0.000    0.000    0.000    0.000    0.000 
#
# Total GULP energy -222959.884529 kJ/mol
# GULP energy per Si atom -5573.997113 kJ/mol
# Density = 1.814652 g / cm^3
# Si number density = 18.187916 Si / 1000 Ang^3
#
#
#
# Elastic Constant Matrix: (Units=GPa)
#
#
# Indices 1 2 3 4 5 6 
#
# 1 96.8788 17.7185 75.1213 0.0000 0.0000 0.0000
# 2 17.7185 14.4792 23.7494 0.0000 0.0000 0.0000
# 3 75.1213 23.7494 189.7899 0.0000 0.0000 0.0000
# 4 0.0000 0.0000 0.0000 -8.7342 0.0000 0.0000
# 5 0.0000 0.0000 0.0000 0.0000 6.8271 0.0000
# 6 0.0000 0.0000 0.0000 0.0000 0.0000 13.7994
#
#
#
# Elastic Compliance Matrix: (Units=1/GPa)
#
#
# Indices 1 2 3 4 5 6 
#
# 1 0.016358 -0.011825 -0.004995 0.000000 0.000000 0.000000
# 2 -0.011825 0.095449 -0.007264 0.000000 0.000000 0.000000
# 3 -0.004995 -0.007264 0.008155 0.000000 0.000000 0.000000
# 4 0.000000 0.000000 0.000000 -0.114492 0.000000 0.000000
# 5 0.000000 0.000000 0.000000 0.000000 0.146474 0.000000
# 6 0.000000 0.000000 0.000000 0.000000 0.000000 0.072467
#
#
# Mechanical properties :
#
#
# Convention : Reuss Voigt Hill
#
# Bulk Modulus (GPa) = 13.92845 59.36957 36.64901
# Shear Modulus (GPa) = 16.86281 14.68236 15.77259
#
# Velocity S-wave (km/s) = 3.04821 2.84431 2.94802
# Velocity P-wave (km/s) = 4.47922 6.59545 5.63753
#
# Compressibility (1/GPa) = 0.07179550
#
# Stress axis : x y z
#
# Youngs Moduli (GPa) = 61.13191 10.47677 122.62365
#
# Poissons Ratio (x) = 0.12388 0.61251
# Poissons Ratio (y) = 0.72287 0.89070
# Poissons Ratio (z) = 0.30536 0.07610
#
# Static dielectric constant tensor:
#      x y z
#    x 1.609580 0.000000 0.000000 
#    y 0.000000 1.609720 0.000000 
#    z 0.000000 0.000000 1.631360 
# 
# From -- ./inp_files/67371.got.cif
#   From: 2010.05.17/outbox.cif.g08.bks.cpg/sg65_34_cif.got.tgz:67371.got - 2010.06.03 17:01:31.
