data_PCOD9490835
_publ_section_title
;
Structure prediction by ZEFSAII (Michael W. Deem and Ramdas Pophale) SiO2 
 PCOD9490835
Probable space group: C M M M
;
_chemical_formula_sum "Si O2"
_cell_formula_units_Z 64
_cell_length_a 8.603364
_cell_length_b 15.072527
_cell_length_c 25.446313
_cell_angle_alpha 90.000000
_cell_angle_beta 90.000000
_cell_angle_gamma 90.000000
_cell_volume 3299.736291
_symmetry_space_group_name_H-M "C M M M"
_symmetry_group_IT_number 65
_symmetry_cell_setting 'orthorhombic'
loop_
_space_group_symop_operation_xyz
x,y,z
-x,-y,z
x,-y,-z
-x,y,-z
-x,-y,-z
x,y,-z
-x,y,z
x,-y,z
1/2+x,1/2+y,z
1/2-x,1/2-y,z
1/2+x,1/2-y,-z
1/2-x,1/2+y,-z
1/2-x,1/2-y,-z
1/2+x,1/2+y,-z
1/2-x,1/2+y,z
1/2+x,1/2-y,z
loop_
_atom_site_type_symbol
_atom_site_label
_atom_site_fract_x
_atom_site_fract_y
_atom_site_fract_z
Si Si1 0.315379 0.500000 0.864982
Si Si2 0.187212 0.149587 0.327959
Si Si3 0.812153 0.149112 0.443600
Si Si4 0.184917 0.500000 0.747552
Si Si5 0.686288 0.849088 0.939841
O O1 0.500000 0.500000 0.860681
O O2 0.243076 0.500000 0.807177
O O3 0.259154 0.415234 0.898078
O O4 0.250000 0.250000 0.322893
O O5 0.234286 0.113793 0.386322
O O6 0.000000 0.150998 0.325477
O O7 0.252162 0.085742 0.283447
O O8 0.762405 0.108978 0.500000
O O9 0.750000 0.250000 0.443884
O O10 0.000000 0.149672 0.443738
O O11 0.000000 0.500000 0.746454
O O12 0.500000 0.849642 0.934925
O O13 0.750000 0.750000 0.932469
O O14 0.724826 0.876274 0.000000
#
# Coordination Sequence:
#
# PCOD9490835 Si02
#       5
#     8  16  16   8  16
#     4  12  25  41  62  88 119 156 199 245 293 342
#     4  10  20  37  60  85 114 149 190 237 291 348
#     4   8  14  26  48  78 109 141 178 223 279 343
#     4  12  26  43  60  81 112 152 201 248 291 342
#     4  10  21  39  64  95 129 162 196 235 282 337
#
# _framework density 19.395489999999999
#
# number of rings (size 3 to 8) (size 9 to 14) (size 15 to 20)
#    0.000    2.000    0.000    4.125    0.000    5.000 
#    0.000    5.625    0.000    3.750    0.000    0.000 
#    0.000    0.000    0.000    0.000    0.000    0.000 
#
# Total GULP energy -178634.197130 kJ/mol
# GULP energy per Si atom -5582.318660 kJ/mol
# Density = 1.935134 g / cm^3
# Si number density = 19.395490 Si / 1000 Ang^3
#
#
#
# Elastic Constant Matrix: (Units=GPa)
#
#
# Indices 1 2 3 4 5 6 
#
# 1 94.3896 42.6456 73.4635 0.0000 0.0000 0.0000
# 2 42.6456 101.0291 95.0359 0.0000 0.0000 0.0000
# 3 73.4635 95.0359 211.0646 0.0000 0.0000 0.0000
# 4 0.0000 0.0000 0.0000 171.4418 0.0000 0.0000
# 5 0.0000 0.0000 0.0000 0.0000 28.1128 0.0000
# 6 0.0000 0.0000 0.0000 0.0000 0.0000 30.6355
#
#
#
# Elastic Compliance Matrix: (Units=1/GPa)
#
#
# Indices 1 2 3 4 5 6 
#
# 1 0.014870 -0.002443 -0.004076 0.000000 0.000000 0.000000
# 2 -0.002443 0.017572 -0.007062 0.000000 0.000000 0.000000
# 3 -0.004076 -0.007062 0.009336 0.000000 0.000000 0.000000
# 4 0.000000 0.000000 0.000000 0.005833 0.000000 0.000000
# 5 0.000000 0.000000 0.000000 0.000000 0.035571 0.000000
# 6 0.000000 0.000000 0.000000 0.000000 0.000000 0.032642
#
#
# Mechanical properties :
#
#
# Convention : Reuss Voigt Hill
#
# Bulk Modulus (GPa) = 68.41087 92.08590 80.24839
# Shear Modulus (GPa) = 33.81603 59.06058 46.43830
#
# Velocity S-wave (km/s) = 4.18005 5.52420 4.89845
# Velocity P-wave (km/s) = 7.65802 9.39522 8.57075
#
# Compressibility (1/GPa) = 0.01461756
#
# Stress axis : x y z
#
# Youngs Moduli (GPa) = 67.24808 56.90729 107.10825
#
# Poissons Ratio (x) = 0.13902 0.43655
# Poissons Ratio (y) = 0.16428 0.75640
# Poissons Ratio (z) = 0.27409 0.40188
#
# Static dielectric constant tensor:
#      x y z
#    x 1.650880 0.000000 0.000000 
#    y 0.000000 1.647080 0.000000 
#    z 0.000000 0.000000 1.694950 
# 
# From -- ./inp_files/66810.got.cif
#   From: 2010.05.17/outbox.cif.g08.bks.cpg/sg65_34_cif.got.tgz:66810.got - 2010.06.03 17:01:31.
