data_PCOD9490715
_publ_section_title
;
Structure prediction by ZEFSAII (Michael W. Deem and Ramdas Pophale) SiO2 
 PCOD9490715
Probable space group: C M M M
;
_chemical_formula_sum "Si O2"
_cell_formula_units_Z 88
_cell_length_a 22.115606
_cell_length_b 23.020807
_cell_length_c 9.379686
_cell_angle_alpha 90.000000
_cell_angle_beta 90.000000
_cell_angle_gamma 90.000000
_cell_volume 4775.377270
_symmetry_space_group_name_H-M "C M M M"
_symmetry_group_IT_number 65
_symmetry_cell_setting 'orthorhombic'
loop_
_space_group_symop_operation_xyz
x,y,z
-x,-y,z
x,-y,-z
-x,y,-z
-x,-y,-z
x,y,-z
-x,y,z
x,-y,z
1/2+x,1/2+y,z
1/2-x,1/2-y,z
1/2+x,1/2-y,-z
1/2-x,1/2+y,-z
1/2-x,1/2-y,-z
1/2+x,1/2+y,-z
1/2-x,1/2+y,z
1/2+x,1/2-y,z
loop_
_atom_site_type_symbol
_atom_site_label
_atom_site_fract_x
_atom_site_fract_y
_atom_site_fract_z
Si Si1 0.071891 0.431571 0.658339
Si Si2 0.000000 0.930370 0.828526
Si Si3 0.243884 0.933615 0.331720
Si Si4 0.159884 0.357842 0.832112
Si Si5 0.382953 0.618844 0.669088
Si Si6 0.677310 0.744550 0.667705
O O1 0.092885 0.412012 0.500000
O O2 0.084897 0.500000 0.668319
O O3 0.104471 0.397376 0.781853
O O4 0.000000 0.424454 0.663821
O O5 0.940734 0.899959 0.760328
O O6 0.000000 0.000000 0.796003
O O7 0.000000 0.924127 0.000000
O O8 0.253886 0.921673 0.500000
O O9 0.282244 0.888556 0.240505
O O10 0.172746 0.925115 0.306178
O O11 0.261925 0.000000 0.302258
O O12 0.150451 0.294611 0.765519
O O13 0.167112 0.355364 0.000000
O O14 0.398273 0.617655 0.500000
O O15 0.353016 0.682184 0.699250
O O16 0.666690 0.756155 0.500000
O O17 0.750000 0.750000 0.688707
#
# Coordination Sequence:
#
# PCOD9490715 Si02
#       6
#    16   8  16  16  16  16
#     4   9  19  38  62  84 109 148 198 246 289 337
#     4  11  25  43  63  91 131 171 200 243 312 379
#     4  10  20  36  60  88 117 151 196 249 297 345
#     4  12  24  35  54  86 124 158 190 233 294 364
#     4  10  21  40  67  92 114 152 208 260 300 347
#     4  10  20  40  66  87 113 150 197 248 295 346
#
# _framework density 18.427862999999999
#
# number of rings (size 3 to 8) (size 9 to 14) (size 15 to 20)
#    0.000    1.727    1.818    3.545    0.000    6.545 
#    1.636    0.909    0.000    0.000    0.000    0.000 
#    0.000    0.000    0.000    0.000    0.000    0.000 
#
# Total GULP energy -245677.380378 kJ/mol
# GULP energy per Si atom -5583.576827 kJ/mol
# Density = 1.838592 g / cm^3
# Si number density = 18.427863 Si / 1000 Ang^3
#
#
#
# Elastic Constant Matrix: (Units=GPa)
#
#
# Indices 1 2 3 4 5 6 
#
# 1 97.6630 53.8901 47.1488 0.0000 0.0000 0.0000
# 2 53.8901 92.5269 66.6836 0.0000 0.0000 0.0000
# 3 47.1488 66.6836 65.6880 0.0000 0.0000 0.0000
# 4 0.0000 0.0000 0.0000 -6.9583 0.0000 0.0000
# 5 0.0000 0.0000 0.0000 0.0000-2425.7357 0.0000
# 6 0.0000 0.0000 0.0000 0.0000 0.0000 33.6422
#
#
#
# Elastic Compliance Matrix: (Units=1/GPa)
#
#
# Indices 1 2 3 4 5 6 
#
# 1 0.016036 -0.003892 -0.007559 0.000000 0.000000 0.000000
# 2 -0.003892 0.041214 -0.039045 0.000000 0.000000 0.000000
# 3 -0.007559 -0.039045 0.060287 0.000000 0.000000 0.000000
# 4 0.000000 0.000000 0.000000 -0.143713 0.000000 0.000000
# 5 0.000000 0.000000 0.000000 0.000000 -0.000412 0.000000
# 6 0.000000 0.000000 0.000000 0.000000 0.000000 0.029725
#
#
# Mechanical properties :
#
#
# Convention : Reuss Voigt Hill
#
# Bulk Modulus (GPa) = 60.44626 65.70254 63.07440
# Shear Modulus (GPa) = 45.60181 -473.93335 -214.16577
#
# Velocity S-wave (km/s) = 4.97994 -16.05432 -10.79216
# Velocity P-wave (km/s) = 8.12030 17.54776 10.99965
#
# Compressibility (1/GPa) = 0.01654362
#
# Stress axis : x y z
#
# Youngs Moduli (GPa) = 62.35848 24.26345 16.58742
#
# Poissons Ratio (x) = 0.09443 0.12539
# Poissons Ratio (y) = 0.24270 0.64766
# Poissons Ratio (z) = 0.47139 0.94738
#
# Static dielectric constant tensor:
#      x y z
#    x 1.641260 0.000000 0.000000 
#    y 0.000000 1.642600 0.000000 
#    z 0.000000 0.000000 1.611410 
# 
# From -- ./inp_files/11807.got.cif
#   From: 2010.05.17/outbox.cif.g08.bks.cpg/sg65_6_cif.got.tgz:11807.got - 2010.06.03 17:01:31.
