data_PCOD9490703
_publ_section_title
;
Structure prediction by ZEFSAII (Michael W. Deem and Ramdas Pophale) SiO2 
 PCOD9490703
Probable space group: C M M M
;
_chemical_formula_sum "Si O2"
_cell_formula_units_Z 88
_cell_length_a 15.075158
_cell_length_b 20.923656
_cell_length_c 15.375102
_cell_angle_alpha 90.000000
_cell_angle_beta 90.000000
_cell_angle_gamma 90.000000
_cell_volume 4849.728758
_symmetry_space_group_name_H-M "C M M M"
_symmetry_group_IT_number 65
_symmetry_cell_setting 'orthorhombic'
loop_
_space_group_symop_operation_xyz
x,y,z
-x,-y,z
x,-y,-z
-x,y,-z
-x,-y,-z
x,y,-z
-x,y,z
x,-y,z
1/2+x,1/2+y,z
1/2-x,1/2-y,z
1/2+x,1/2-y,-z
1/2-x,1/2+y,-z
1/2-x,1/2-y,-z
1/2+x,1/2+y,-z
1/2-x,1/2+y,z
1/2+x,1/2-y,z
loop_
_atom_site_type_symbol
_atom_site_label
_atom_site_fract_x
_atom_site_fract_y
_atom_site_fract_z
Si Si1 0.148049 0.230082 0.100113
Si Si2 0.657800 0.880878 0.596140
Si Si3 0.353784 0.572916 0.402839
Si Si4 0.597199 0.674318 0.265849
Si Si5 0.250000 0.750000 0.640949
Si Si6 0.000000 0.338058 0.896939
Si Si7 0.000000 0.421977 0.275925
O O1 0.250000 0.250000 0.114153
O O2 0.117238 0.173615 0.163785
O O3 0.085116 0.291595 0.115819
O O4 0.137125 0.211684 0.000000
O O5 0.619783 0.893691 0.500000
O O6 0.747179 0.922555 0.607217
O O7 0.698864 0.808881 0.595856
O O8 0.586061 0.896080 0.670303
O O9 0.374241 0.600192 0.500000
O O10 0.382091 0.500000 0.402056
O O11 0.395674 0.611236 0.323621
O O12 0.500000 0.702628 0.279006
O O13 0.673477 0.718729 0.302668
O O14 0.000000 0.391923 0.821752
O O15 0.000000 0.358694 0.000000
O O16 0.000000 0.500000 0.274754
#
# Coordination Sequence:
#
# PCOD9490703 Si02
#       7
#    16  16  16  16   8   8   8
#     4  10  20  36  60  86 112 144 183 233 292 352
#     4  10  21  37  57  82 115 156 196 241 292 343
#     4   9  20  39  58  77 109 154 199 238 278 331
#     4  11  21  33  56  86 115 145 184 233 288 339
#     4  10  21  36  57  82 116 152 191 244 289 342
#     4  10  22  40  61  86 117 152 190 234 289 350
#     4  12  25  37  56  87 121 159 203 241 285 352
#
# _framework density 18.145344999999999
#
# number of rings (size 3 to 8) (size 9 to 14) (size 15 to 20)
#    0.000    1.818    1.818    2.182    3.818    3.091 
#    0.000    0.909    0.000    0.545    0.000    1.273 
#    0.000    0.000    0.000    0.000    0.000    0.000 
#
# Total GULP energy -245168.381483 kJ/mol
# GULP energy per Si atom -5572.008670 kJ/mol
# Density = 1.810405 g / cm^3
# Si number density = 18.145345 Si / 1000 Ang^3
#
#
#
# Elastic Constant Matrix: (Units=GPa)
#
#
# Indices 1 2 3 4 5 6 
#
# 1 111.7895 28.3860 50.3733 0.0000 0.0000 0.0000
# 2 28.3860 83.3662 61.8875 0.0000 0.0000 0.0000
# 3 50.3733 61.8875 155.8938 0.0000 0.0000 0.0000
# 4 0.0000 0.0000 0.0000 31.4475 0.0000 0.0000
# 5 0.0000 0.0000 0.0000 0.0000 20.7083 0.0000
# 6 0.0000 0.0000 0.0000 0.0000 0.0000 1.6299
#
#
#
# Elastic Compliance Matrix: (Units=1/GPa)
#
#
# Indices 1 2 3 4 5 6 
#
# 1 0.010603 -0.001513 -0.002825 0.000000 0.000000 0.000000
# 2 -0.001513 0.017223 -0.006349 0.000000 0.000000 0.000000
# 3 -0.002825 -0.006349 0.009848 0.000000 0.000000 0.000000
# 4 0.000000 0.000000 0.000000 0.031799 0.000000 0.000000
# 5 0.000000 0.000000 0.000000 0.000000 0.048290 0.000000
# 6 0.000000 0.000000 0.000000 0.000000 0.000000 0.613548
#
#
# Mechanical properties :
#
#
# Convention : Reuss Voigt Hill
#
# Bulk Modulus (GPa) = 61.34842 70.26034 65.80438
# Shear Modulus (GPa) = 6.59529 24.78399 15.68964
#
# Velocity S-wave (km/s) = 1.90856 3.69976 2.94371
# Velocity P-wave (km/s) = 6.22412 7.55354 6.92082
#
# Compressibility (1/GPa) = 0.01630034
#
# Stress axis : x y z
#
# Youngs Moduli (GPa) = 94.31580 58.06109 101.54446
#
# Poissons Ratio (x) = 0.08783 0.28691
# Poissons Ratio (y) = 0.14267 0.64466
# Poissons Ratio (z) = 0.26649 0.36861
#
# Static dielectric constant tensor:
#      x y z
#    x 1.634450 0.000000 0.000000 
#    y 0.000000 1.621860 0.000000 
#    z 0.000000 0.000000 1.670000 
# 
# From -- ./inp_files/40270.got.cif
#   From: 2010.05.17/outbox.cif.g08.bks.cpg/sg65_21_cif.got.tgz:40270.got - 2010.06.03 17:01:31.
