data_PCOD9490865
_publ_section_title
;
Structure prediction by ZEFSAII (Michael W. Deem and Ramdas Pophale) SiO2 
 PCOD9490865
Probable space group: C M M M
;
_chemical_formula_sum "Si O2"
_cell_formula_units_Z 88
_cell_length_a 12.549857
_cell_length_b 16.833621
_cell_length_c 21.118944
_cell_angle_alpha 90.000000
_cell_angle_beta 90.000000
_cell_angle_gamma 90.000000
_cell_volume 4461.578317
_symmetry_space_group_name_H-M "C M M M"
_symmetry_group_IT_number 65
_symmetry_cell_setting 'orthorhombic'
loop_
_space_group_symop_operation_xyz
x,y,z
-x,-y,z
x,-y,-z
-x,y,-z
-x,-y,-z
x,y,-z
-x,y,z
x,-y,z
1/2+x,1/2+y,z
1/2-x,1/2-y,z
1/2+x,1/2-y,-z
1/2-x,1/2+y,-z
1/2-x,1/2-y,-z
1/2+x,1/2+y,-z
1/2-x,1/2+y,z
1/2+x,1/2-y,z
loop_
_atom_site_type_symbol
_atom_site_label
_atom_site_fract_x
_atom_site_fract_y
_atom_site_fract_z
Si Si1 0.000000 0.910852 0.075794
Si Si2 0.782621 0.404512 0.796265
Si Si3 0.262502 0.844772 0.430017
Si Si4 0.727874 0.656693 0.927871
Si Si5 0.877301 0.095982 0.688709
Si Si6 0.500000 0.907164 0.258680
Si Si7 0.000000 0.592196 0.590907
O O1 0.893989 0.863023 0.089576
O O2 0.000000 0.000000 0.104241
O O3 0.000000 0.919963 0.000000
O O4 0.779981 0.500000 0.791108
O O5 0.787794 0.383361 0.869976
O O6 0.682896 0.376611 0.753201
O O7 0.890476 0.371389 0.765661
O O8 0.222657 0.870554 0.500000
O O9 0.250000 0.750000 0.425936
O O10 0.195342 0.880715 0.371733
O O11 0.387844 0.867883 0.427596
O O12 0.750000 0.750000 0.927805
O O13 0.748424 0.627260 0.000000
O O14 0.000000 0.124810 0.684425
O O15 0.880984 0.000000 0.690213
O O16 0.500000 0.906737 0.333488
O O17 0.500000 0.000000 0.238059
O O18 0.000000 0.500000 0.570591
#
# Coordination Sequence:
#
# PCOD9490865 Si02
#       7
#     8  16  16  16  16   8   8
#     4   9  18  35  60  86 112 154 208 252 298 361
#     4  10  20  37  61  87 117 156 205 257 311 370
#     4  11  25  41  61  92 130 164 201 256 314 363
#     4  10  22  38  56  85 123 158 199 256 314 366
#     4  10  22  40  63  91 122 160 205 253 309 374
#     4   9  18  36  60  86 116 149 196 260 309 350
#     4  11  21  42  70  92 119 164 224 267 295 360
#
# _framework density 19.723963000000001
#
# number of rings (size 3 to 8) (size 9 to 14) (size 15 to 20)
#    0.000    1.909    1.818    1.364    2.545    4.727 
#    0.000    2.273    0.000    1.636    0.000    0.000 
#    0.000    0.000    0.000    0.000    0.000    0.000 
#
# Total GULP energy -245286.137169 kJ/mol
# GULP energy per Si atom -5574.684936 kJ/mol
# Density = 1.967907 g / cm^3
# Si number density = 19.723963 Si / 1000 Ang^3
#
#
#
# Elastic Constant Matrix: (Units=GPa)
#
#
# Indices 1 2 3 4 5 6 
#
# 1 130.4702 44.0664 62.5483 0.0000 0.0000 0.0000
# 2 44.0664 50.7895 8.7754 0.0000 0.0000 0.0000
# 3 62.5483 8.7754 139.3049 0.0000 0.0000 0.0000
# 4 0.0000 0.0000 0.0000 21.1549 0.0000 0.0000
# 5 0.0000 0.0000 0.0000 0.0000 -17.6641 0.0000
# 6 0.0000 0.0000 0.0000 0.0000 0.0000 82.3086
#
#
#
# Elastic Compliance Matrix: (Units=1/GPa)
#
#
# Indices 1 2 3 4 5 6 
#
# 1 0.014218 -0.011356 -0.005668 0.000000 0.000000 0.000000
# 2 -0.011356 0.028977 0.003274 0.000000 0.000000 0.000000
# 3 -0.005668 0.003274 0.009517 0.000000 0.000000 0.000000
# 4 0.000000 0.000000 0.000000 0.047270 0.000000 0.000000
# 5 0.000000 0.000000 0.000000 0.000000 -0.056612 0.000000
# 6 0.000000 0.000000 0.000000 0.000000 0.000000 0.012149
#
#
# Mechanical properties :
#
#
# Convention : Reuss Voigt Hill
#
# Bulk Modulus (GPa) = 39.66749 61.26053 50.46401
# Shear Modulus (GPa) = 54.69000 30.83818 42.76409
#
# Velocity S-wave (km/s) = 5.27142 3.95839 4.66137
# Velocity P-wave (km/s) = 7.56343 7.21236 7.38998
#
# Compressibility (1/GPa) = 0.02520956
#
# Stress axis : x y z
#
# Youngs Moduli (GPa) = 70.33522 34.51071 105.07078
#
# Poissons Ratio (x) = 0.39191 0.59558
# Poissons Ratio (y) = 0.79874 -0.34396
# Poissons Ratio (z) = 0.39869 -0.11298
#
# Static dielectric constant tensor:
#      x y z
#    x 1.704080 0.000000 0.000000 
#    y 0.000000 1.678590 0.000000 
#    z 0.000000 0.000000 1.694520 
# 
# From -- ./inp_files/61521.got.cif
#   From: 2010.05.17/outbox.cif.g08.bks.cpg/sg65_31_cif.got.tgz:61521.got - 2010.06.03 17:01:31.
