data_PCOD9490437
_publ_section_title
;
Structure prediction by ZEFSAII (Michael W. Deem and Ramdas Pophale) SiO2 
 PCOD9490437
Probable space group: C M M M
;
_chemical_formula_sum "Si O2"
_cell_formula_units_Z 72
_cell_length_a 18.478419
_cell_length_b 27.603559
_cell_length_c 7.408952
_cell_angle_alpha 90.000000
_cell_angle_beta 90.000000
_cell_angle_gamma 90.000000
_cell_volume 3779.085103
_symmetry_space_group_name_H-M "C M M M"
_symmetry_group_IT_number 65
_symmetry_cell_setting 'orthorhombic'
loop_
_space_group_symop_operation_xyz
x,y,z
-x,-y,z
x,-y,-z
-x,y,-z
-x,-y,-z
x,y,-z
-x,y,z
x,-y,z
1/2+x,1/2+y,z
1/2-x,1/2-y,z
1/2+x,1/2-y,-z
1/2-x,1/2+y,-z
1/2-x,1/2-y,-z
1/2+x,1/2+y,-z
1/2-x,1/2+y,z
1/2+x,1/2-y,z
loop_
_atom_site_type_symbol
_atom_site_label
_atom_site_fract_x
_atom_site_fract_y
_atom_site_fract_z
Si Si1 0.087958 0.709097 0.204589
Si Si2 0.793570 0.558225 0.500000
Si Si3 0.086839 0.368397 0.500000
Si Si4 0.581294 0.500000 0.781667
Si Si5 0.083410 0.816828 0.219789
Si Si6 0.320894 0.591619 0.782390
O O1 0.109085 0.664731 0.329663
O O2 0.106936 0.762766 0.274837
O O3 0.000000 0.709721 0.200010
O O4 0.114514 0.703440 0.000000
O O5 0.791596 0.500000 0.500000
O O6 0.873184 0.580756 0.500000
O O7 0.751099 0.579565 0.326969
O O8 0.000000 0.373327 0.500000
O O9 0.500000 0.500000 0.712537
O O10 0.624617 0.451992 0.732700
O O11 0.577819 0.500000 0.000000
O O12 0.139237 0.858596 0.270644
O O13 0.000000 0.826080 0.278163
O O14 0.081164 0.816124 0.000000
O O15 0.310241 0.591473 0.000000
#
# Coordination Sequence:
#
# PCOD9490437 Si02
#       6
#    16   8   8   8  16  16
#     4   8  15  31  56  86 115 139 170 217 271 325
#     4  12  26  42  57  77 105 139 184 232 287 343
#     4  10  22  40  63  83  99 130 177 231 289 345
#     4   9  16  29  53  79 106 148 196 228 248 285
#     4   8  14  28  54  85 117 153 187 217 252 303
#     4  10  20  36  55  79 114 153 186 220 266 313
#
# _framework density 19.052230000000002
#
# number of rings (size 3 to 8) (size 9 to 14) (size 15 to 20)
#    0.000    2.778    1.111    2.000    0.000    4.667 
#    0.000    6.111    0.000    4.000    0.000    4.667 
#    0.000    0.000    0.000    0.000    0.000    0.000 
#
# Total GULP energy -200823.702172 kJ/mol
# GULP energy per Si atom -5578.436171 kJ/mol
# Density = 1.900887 g / cm^3
# Si number density = 19.052230 Si / 1000 Ang^3
#
#
#
# Elastic Constant Matrix: (Units=GPa)
#
#
# Indices 1 2 3 4 5 6 
#
# 1 57.7762 53.5962 25.8893 0.0000 0.0000 0.0000
# 2 53.5962 103.6016 34.4104 0.0000 0.0000 0.0000
# 3 25.8893 34.4104 83.5097 0.0000 0.0000 0.0000
# 4 0.0000 0.0000 0.0000 120.7720 0.0000 0.0000
# 5 0.0000 0.0000 0.0000 0.0000 15.7328 0.0000
# 6 0.0000 0.0000 0.0000 0.0000 0.0000 71.6192
#
#
#
# Elastic Compliance Matrix: (Units=1/GPa)
#
#
# Indices 1 2 3 4 5 6 
#
# 1 0.034315 -0.016473 -0.003850 0.000000 0.000000 0.000000
# 2 -0.016473 0.019091 -0.002760 0.000000 0.000000 0.000000
# 3 -0.003850 -0.002760 0.014305 0.000000 0.000000 0.000000
# 4 0.000000 0.000000 0.000000 0.008280 0.000000 0.000000
# 5 0.000000 0.000000 0.000000 0.000000 0.063561 0.000000
# 6 0.000000 0.000000 0.000000 0.000000 0.000000 0.013963
#
#
# Mechanical properties :
#
#
# Convention : Reuss Voigt Hill
#
# Bulk Modulus (GPa) = 46.41422 52.51992 49.46707
# Shear Modulus (GPa) = 24.17053 50.35758 37.26405
#
# Velocity S-wave (km/s) = 3.56567 5.14672 4.42734
# Velocity P-wave (km/s) = 6.43168 7.93375 7.22187
#
# Compressibility (1/GPa) = 0.02154512
#
# Stress axis : x y z
#
# Youngs Moduli (GPa) = 29.14183 52.38061 69.90374
#
# Poissons Ratio (x) = 0.86288 0.26915
# Poissons Ratio (y) = 0.48006 0.19290
# Poissons Ratio (z) = 0.11220 0.14455
#
# Static dielectric constant tensor:
#      x y z
#    x 1.639170 0.000000 0.000000 
#    y 0.000000 1.642930 0.000000 
#    z 0.000000 0.000000 1.695270 
# 
# From -- ./inp_files/7386.got.cif
#   From: 2010.05.17/outbox.cif.g08.bks.cpg/sg65_4_cif.got.tgz:7386.got - 2010.06.03 17:01:31.
