data_PCOD9490153
_publ_section_title
;
Structure prediction by ZEFSAII (Michael W. Deem and Ramdas Pophale) SiO2 
 PCOD9490153
Probable space group: C M M M
;
_chemical_formula_sum "Si O2"
_cell_formula_units_Z 88
_cell_length_a 19.026812
_cell_length_b 20.021672
_cell_length_c 13.145743
_cell_angle_alpha 90.000000
_cell_angle_beta 90.000000
_cell_angle_gamma 90.000000
_cell_volume 5007.852248
_symmetry_space_group_name_H-M "C M M M"
_symmetry_group_IT_number 65
_symmetry_cell_setting 'orthorhombic'
loop_
_space_group_symop_operation_xyz
x,y,z
-x,-y,z
x,-y,-z
-x,y,-z
-x,-y,-z
x,y,-z
-x,y,z
x,-y,z
1/2+x,1/2+y,z
1/2-x,1/2-y,z
1/2+x,1/2-y,-z
1/2-x,1/2+y,-z
1/2-x,1/2-y,-z
1/2+x,1/2+y,-z
1/2-x,1/2+y,z
1/2+x,1/2-y,z
loop_
_atom_site_type_symbol
_atom_site_label
_atom_site_fract_x
_atom_site_fract_y
_atom_site_fract_z
Si Si1 0.680118 0.294625 0.881688
Si Si2 0.081273 0.102273 0.385388
Si Si3 0.921807 0.500000 0.622779
Si Si4 0.828484 0.627194 0.620821
Si Si5 0.204663 0.923732 0.761630
Si Si6 0.417775 0.251075 0.699248
O O1 0.750000 0.250000 0.862013
O O2 0.696059 0.371919 0.854021
O O3 0.618368 0.270277 0.806547
O O4 0.661876 0.287448 0.000000
O O5 0.103606 0.084907 0.500000
O O6 0.131877 0.073381 0.300321
O O7 0.084445 0.182310 0.369359
O O8 0.000000 0.082576 0.372631
O O9 0.926309 0.500000 0.500000
O O10 0.879670 0.566102 0.649230
O O11 0.000000 0.500000 0.665281
O O12 0.814036 0.625671 0.500000
O O13 0.758747 0.612922 0.684925
O O14 0.869553 0.694219 0.649774
O O15 0.226270 0.000000 0.785901
O O16 0.500000 0.231452 0.709006
#
# Coordination Sequence:
#
# PCOD9490153 Si02
#       6
#    16  16   8  16  16  16
#     4  10  21  40  62  81 103 136 182 235 288 337
#     4   9  19  34  52  77 110 148 187 227 272 323
#     4   9  18  30  44  68 106 152 192 221 254 306
#     4  11  20  31  50  79 115 154 190 222 263 322
#     4  11  22  36  55  82 113 147 187 230 277 330
#     4  10  20  35  56  83 110 141 183 231 283 333
#
# _framework density 17.572403999999999
#
# number of rings (size 3 to 8) (size 9 to 14) (size 15 to 20)
#    0.000    1.909    2.727    1.636    0.000    4.000 
#    0.000    3.636    0.000    0.000    0.000    5.091 
#    0.000    5.818    0.000    0.000    0.000    0.000 
#
# Total GULP energy -245466.075817 kJ/mol
# GULP energy per Si atom -5578.774450 kJ/mol
# Density = 1.753241 g / cm^3
# Si number density = 17.572404 Si / 1000 Ang^3
#
#
#
# Elastic Constant Matrix: (Units=GPa)
#
#
# Indices 1 2 3 4 5 6 
#
# 1 45.5690 3.6968 5.9085 0.0000 0.0000 0.0000
# 2 3.6968 91.4009 1.9867 0.0000 0.0000 0.0000
# 3 5.9085 1.9867 53.8438 0.0000 0.0000 0.0000
# 4 0.0000 0.0000 0.0000 8.5766 0.0000 0.0000
# 5 0.0000 0.0000 0.0000 0.0000 19.3079 0.0000
# 6 0.0000 0.0000 0.0000 0.0000 0.0000 -9.8940
#
#
#
# Elastic Compliance Matrix: (Units=1/GPa)
#
#
# Indices 1 2 3 4 5 6 
#
# 1 0.022327 -0.000850 -0.002419 0.000000 0.000000 0.000000
# 2 -0.000850 0.010982 -0.000312 0.000000 0.000000 0.000000
# 3 -0.002419 -0.000312 0.018849 0.000000 0.000000 0.000000
# 4 0.000000 0.000000 0.000000 0.116596 0.000000 0.000000
# 5 0.000000 0.000000 0.000000 0.000000 0.051792 0.000000
# 6 0.000000 0.000000 0.000000 0.000000 0.000000 -0.101071
#
#
# Mechanical properties :
#
#
# Convention : Reuss Voigt Hill
#
# Bulk Modulus (GPa) = 22.22400 23.77753 23.00076
# Shear Modulus (GPa) = 35.30173 15.54622 25.42398
#
# Velocity S-wave (km/s) = 4.48697 2.97761 3.80783
# Velocity P-wave (km/s) = 6.28637 5.03806 5.69651
#
# Compressibility (1/GPa) = 0.04499640
#
# Stress axis : x y z
#
# Youngs Moduli (GPa) = 44.78813 91.05822 53.05278
#
# Poissons Ratio (x) = 0.07744 0.12832
# Poissons Ratio (y) = 0.03809 0.01655
# Poissons Ratio (z) = 0.10833 0.02840
#
# Static dielectric constant tensor:
#      x y z
#    x 1.612140 0.000000 0.000000 
#    y 0.000000 1.627690 0.000000 
#    z 0.000000 0.000000 1.555890 
# 
# From -- ./inp_files/26792.got.cif
#   From: 2010.05.17/outbox.cif.g08.bks.cpg/sg65_14_cif.got.tgz:26792.got - 2010.06.03 17:01:31.
