data_PCOD9490473
_publ_section_title
;
Structure prediction by ZEFSAII (Michael W. Deem and Ramdas Pophale) SiO2 
 PCOD9490473
Probable space group: C M M M
;
_chemical_formula_sum "Si O2"
_cell_formula_units_Z 104
_cell_length_a 30.117497
_cell_length_b 7.680590
_cell_length_c 22.256633
_cell_angle_alpha 90.000000
_cell_angle_beta 90.000000
_cell_angle_gamma 90.000000
_cell_volume 5148.407601
_symmetry_space_group_name_H-M "C M M M"
_symmetry_group_IT_number 65
_symmetry_cell_setting 'orthorhombic'
loop_
_space_group_symop_operation_xyz
x,y,z
-x,-y,z
x,-y,-z
-x,y,-z
-x,-y,-z
x,y,-z
-x,y,z
x,-y,z
1/2+x,1/2+y,z
1/2-x,1/2-y,z
1/2+x,1/2-y,-z
1/2-x,1/2+y,-z
1/2-x,1/2-y,-z
1/2+x,1/2+y,-z
1/2-x,1/2+y,z
1/2+x,1/2-y,z
loop_
_atom_site_type_symbol
_atom_site_label
_atom_site_fract_x
_atom_site_fract_y
_atom_site_fract_z
Si Si1 0.699722 0.705357 0.321129
Si Si2 0.199368 0.208962 0.814251
Si Si3 0.605573 0.289415 0.857517
Si Si4 0.552183 0.000000 0.928080
Si Si5 0.548792 0.202877 0.602843
Si Si6 0.858417 0.291055 0.564114
Si Si7 0.050202 0.791820 0.260345
O O1 0.695312 0.500000 0.314595
O O2 0.750000 0.750000 0.337999
O O3 0.692481 0.779671 0.253940
O O4 0.668207 0.755138 0.375473
O O5 0.250000 0.250000 0.832722
O O6 0.157608 0.261869 0.855004
O O7 0.196423 0.000000 0.811782
O O8 0.601233 0.500000 0.867855
O O9 0.577266 0.170356 0.902249
O O10 0.585196 0.251635 0.791311
O O11 0.500000 0.000000 0.910360
O O12 0.554323 0.000000 0.000000
O O13 0.500000 0.280850 0.592049
O O14 0.591667 0.280180 0.571287
O O15 0.557562 0.210363 0.674510
O O16 0.546300 0.000000 0.585361
O O17 0.839093 0.230521 0.500000
O O18 0.861171 0.500000 0.561563
O O19 0.000000 0.744904 0.240625
O O20 0.051573 0.000000 0.269327
#
# Coordination Sequence:
#
# PCOD9490473 Si02
#       7
#    16  16  16   8  16  16  16
#     4  10  20  36  56  80 110 137 174 225 284 348
#     4   9  19  34  57  91 122 152 189 238 302 362
#     4  10  21  38  61  91 124 164 203 249 299 354
#     4  11  26  44  64  94 128 168 215 253 290 340
#     4   9  18  31  48  72 100 133 174 227 284 337
#     4  10  21  35  49  67  95 137 186 230 275 336
#     4   9  17  30  50  77 109 140 175 225 290 352
#
# _framework density 20.200422
#
# number of rings (size 3 to 8) (size 9 to 14) (size 15 to 20)
#    0.000    2.385    0.000    1.846    2.154    4.615 
#    0.000    2.308    0.000    0.462    0.000    3.231 
#    0.000    0.000    0.000    0.000    0.000    0.000 
#
# Total GULP energy -290033.724755 kJ/mol
# GULP energy per Si atom -5577.571630 kJ/mol
# Density = 2.015444 g / cm^3
# Si number density = 20.200422 Si / 1000 Ang^3
#
#
#
# Elastic Constant Matrix: (Units=GPa)
#
#
# Indices 1 2 3 4 5 6 
#
# 1 146.0781 33.2865 61.5264 0.0000 0.0000 0.0000
# 2 33.2865 55.8049 22.1656 0.0000 0.0000 0.0000
# 3 61.5264 22.1656 49.0792 0.0000 0.0000 0.0000
# 4 0.0000 0.0000 0.0000 52.3901 0.0000 0.0000
# 5 0.0000 0.0000 0.0000 0.0000 15.0522 0.0000
# 6 0.0000 0.0000 0.0000 0.0000 0.0000 16.5726
#
#
#
# Elastic Compliance Matrix: (Units=1/GPa)
#
#
# Indices 1 2 3 4 5 6 
#
# 1 0.014644 -0.001759 -0.017564 0.000000 0.000000 0.000000
# 2 -0.001759 0.022048 -0.007753 0.000000 0.000000 0.000000
# 3 -0.017564 -0.007753 0.045895 0.000000 0.000000 0.000000
# 4 0.000000 0.000000 0.000000 0.019088 0.000000 0.000000
# 5 0.000000 0.000000 0.000000 0.000000 0.066435 0.000000
# 6 0.000000 0.000000 0.000000 0.000000 0.000000 0.060341
#
#
# Mechanical properties :
#
#
# Convention : Reuss Voigt Hill
#
# Bulk Modulus (GPa) = 35.16623 53.87991 44.52307
# Shear Modulus (GPa) = 17.11862 25.73523 21.42693
#
# Velocity S-wave (km/s) = 2.91424 3.57318 3.26040
# Velocity P-wave (km/s) = 5.36378 6.61468 6.02180
#
# Compressibility (1/GPa) = 0.02843637
#
# Stress axis : x y z
#
# Youngs Moduli (GPa) = 68.28720 45.35563 21.78892
#
# Poissons Ratio (x) = 0.07976 0.38270
# Poissons Ratio (y) = 0.12009 0.16893
# Poissons Ratio (z) = 1.19938 0.35164
#
# Static dielectric constant tensor:
#      x y z
#    x 1.746580 0.000000 0.000000 
#    y 0.000000 1.762220 0.000000 
#    z 0.000000 0.000000 1.700500 
# 
# From -- ./inp_files/66312.got.cif
#   From: 2010.05.17/outbox.cif.g08.bks.cpg/sg65_34_cif.got.tgz:66312.got - 2010.06.03 17:01:31.
