data_PCOD9490500
_publ_section_title
;
Structure prediction by ZEFSAII (Michael W. Deem and Ramdas Pophale) SiO2 
 PCOD9490500
Probable space group: C M M M
;
_chemical_formula_sum "Si O2"
_cell_formula_units_Z 80
_cell_length_a 7.806348
_cell_length_b 24.244250
_cell_length_c 21.355988
_cell_angle_alpha 90.000000
_cell_angle_beta 90.000000
_cell_angle_gamma 90.000000
_cell_volume 4041.814054
_symmetry_space_group_name_H-M "C M M M"
_symmetry_group_IT_number 65
_symmetry_cell_setting 'orthorhombic'
loop_
_space_group_symop_operation_xyz
x,y,z
-x,-y,z
x,-y,-z
-x,y,-z
-x,-y,-z
x,y,-z
-x,y,z
x,-y,z
1/2+x,1/2+y,z
1/2-x,1/2-y,z
1/2+x,1/2-y,-z
1/2-x,1/2+y,-z
1/2-x,1/2-y,-z
1/2+x,1/2+y,-z
1/2-x,1/2+y,z
1/2+x,1/2-y,z
loop_
_atom_site_type_symbol
_atom_site_label
_atom_site_fract_x
_atom_site_fract_y
_atom_site_fract_z
Si Si1 0.704124 0.500000 0.766901
Si Si2 0.206595 0.314122 0.311187
Si Si3 0.294690 0.119954 0.810604
Si Si4 0.205611 0.000000 0.623102
Si Si5 0.206518 0.313452 0.070464
Si Si6 0.295235 0.881364 0.569539
O O1 0.500000 0.500000 0.763191
O O2 0.758929 0.555692 0.801255
O O3 0.770467 0.500000 0.695050
O O4 0.250000 0.250000 0.308012
O O5 0.271450 0.346971 0.250213
O O6 0.272600 0.342735 0.374732
O O7 0.000000 0.319324 0.311414
O O8 0.500000 0.127013 0.811260
O O9 0.228406 0.146587 0.874929
O O10 0.264338 0.055366 0.588786
O O11 0.000000 0.000000 0.624036
O O12 0.250000 0.250000 0.085551
O O13 0.000000 0.317811 0.068562
O O14 0.270941 0.325166 0.000000
O O15 0.225518 0.870380 0.500000
O O16 0.500000 0.873074 0.567061
#
# Coordination Sequence:
#
# PCOD9490500 Si02
#       6
#     8  16  16   8  16  16
#     4  11  23  36  55  82 108 136 175 224 272 315
#     4  10  21  35  53  77 104 137 177 216 259 312
#     4  10  20  36  57  79 106 143 180 216 261 315
#     4  11  22  36  55  81 107 133 171 224 275 315
#     4   9  18  33  55  84 114 144 179 217 260 310
#     4  10  21  37  56  77 104 140 178 215 260 319
#
# _framework density 19.793094
#
# number of rings (size 3 to 8) (size 9 to 14) (size 15 to 20)
#    0.000    2.000    2.000    1.500    0.000    5.200 
#    0.000    0.500    0.000    3.000    0.000    0.000 
#    0.000    0.000    0.000    0.000    0.000    0.000 
#
# Total GULP energy -223401.659461 kJ/mol
# GULP energy per Si atom -5585.041487 kJ/mol
# Density = 1.974804 g / cm^3
# Si number density = 19.793094 Si / 1000 Ang^3
#
#
#
# Elastic Constant Matrix: (Units=GPa)
#
#
# Indices 1 2 3 4 5 6 
#
# 1 22.1131 -10.2117 13.0517 0.0000 0.0000 0.0000
# 2 -10.2117 161.1086 114.7594 0.0000 0.0000 0.0000
# 3 13.0517 114.7594 196.2839 0.0000 0.0000 0.0000
# 4 0.0000 0.0000 0.0000 -3.4588 0.0000 0.0000
# 5 0.0000 0.0000 0.0000 0.0000 6.6504 0.0000
# 6 0.0000 0.0000 0.0000 0.0000 0.0000 28.7039
#
#
#
# Elastic Compliance Matrix: (Units=1/GPa)
#
#
# Indices 1 2 3 4 5 6 
#
# 1 0.055994 0.010627 -0.009936 0.000000 0.000000 0.000000
# 2 0.010627 0.012654 -0.008105 0.000000 0.000000 0.000000
# 3 -0.009936 -0.008105 0.010494 0.000000 0.000000 0.000000
# 4 0.000000 0.000000 0.000000 -0.289115 0.000000 0.000000
# 5 0.000000 0.000000 0.000000 0.000000 0.150367 0.000000
# 6 0.000000 0.000000 0.000000 0.000000 0.000000 0.034839
#
#
# Mechanical properties :
#
#
# Convention : Reuss Voigt Hill
#
# Bulk Modulus (GPa) = 15.54885 68.30049 41.92467
# Shear Modulus (GPa) = 434.86140 23.83950 229.35045
#
# Velocity S-wave (km/s) = 14.83848 3.47426 10.77616
# Velocity P-wave (km/s) = 17.36222 7.11872 13.26882
#
# Compressibility (1/GPa) = 0.06431344
#
# Stress axis : x y z
#
# Youngs Moduli (GPa) = 17.85897 79.02858 95.29363
#
# Poissons Ratio (x) = -0.83984 0.94688
# Poissons Ratio (y) = -0.18979 0.77233
# Poissons Ratio (z) = 0.17745 0.64050
#
# Static dielectric constant tensor:
#      x y z
#    x 1.714200 0.000000 0.000000 
#    y 0.000000 1.650420 0.000000 
#    z 0.000000 0.000000 1.727010 
# 
# From -- ./inp_files/59637.got.cif
#   From: 2010.05.17/outbox.cif.g08.bks.cpg/sg65_30_cif.got.tgz:59637.got - 2010.06.03 17:01:31.
