data_PCOD9490150
_publ_section_title
;
Structure prediction by ZEFSAII (Michael W. Deem and Ramdas Pophale) SiO2 
 PCOD9490150
Probable space group: C M M M
;
_chemical_formula_sum "Si O2"
_cell_formula_units_Z 104
_cell_length_a 28.190941
_cell_length_b 20.611246
_cell_length_c 7.671604
_cell_angle_alpha 90.000000
_cell_angle_beta 90.000000
_cell_angle_gamma 90.000000
_cell_volume 4457.588726
_symmetry_space_group_name_H-M "C M M M"
_symmetry_group_IT_number 65
_symmetry_cell_setting 'orthorhombic'
loop_
_space_group_symop_operation_xyz
x,y,z
-x,-y,z
x,-y,-z
-x,y,-z
-x,-y,-z
x,y,-z
-x,y,z
x,-y,z
1/2+x,1/2+y,z
1/2-x,1/2-y,z
1/2+x,1/2-y,-z
1/2-x,1/2+y,-z
1/2-x,1/2-y,-z
1/2+x,1/2+y,-z
1/2-x,1/2+y,z
1/2+x,1/2-y,z
loop_
_atom_site_type_symbol
_atom_site_label
_atom_site_fract_x
_atom_site_fract_y
_atom_site_fract_z
Si Si1 0.598364 0.371291 0.795923
Si Si2 0.269360 0.178955 0.286656
Si Si3 0.000000 0.076810 0.207031
Si Si4 0.052978 0.745834 0.291013
Si Si5 0.052510 0.596341 0.797973
Si Si6 0.696841 0.571413 0.702584
Si Si7 0.658679 0.070982 0.296014
O O1 0.549142 0.397464 0.718292
O O2 0.593389 0.294173 0.773507
O O3 0.643262 0.403919 0.711089
O O4 0.600699 0.387586 0.000000
O O5 0.271736 0.184379 0.500000
O O6 0.250000 0.250000 0.228523
O O7 0.229800 0.127594 0.225750
O O8 0.317275 0.138756 0.231659
O O9 0.000000 0.000000 0.219817
O O10 0.000000 0.094045 0.000000
O O11 0.055496 0.741602 0.500000
O O12 0.055684 0.674150 0.216332
O O13 0.000000 0.770754 0.242143
O O14 0.101644 0.572758 0.717806
O O15 0.000000 0.578466 0.725390
O O16 0.052803 0.577280 0.000000
O O17 0.710335 0.566494 0.500000
O O18 0.701311 0.500000 0.781538
O O19 0.671082 0.069135 0.500000
O O20 0.674415 0.000000 0.221941
#
# Coordination Sequence:
#
# PCOD9490150 Si02
#       7
#    16  16   8  16  16  16  16
#     4  11  21  34  54  80 114 155 199 246 301 361
#     4   9  19  37  62  90 118 155 202 252 307 365
#     4   9  18  32  49  71 105 151 198 239 286 349
#     4  10  20  35  56  82 115 155 199 247 299 353
#     4  10  22  39  60  89 127 166 204 246 302 367
#     4  10  21  37  57  83 116 153 196 249 305 359
#     4  10  21  38  63  94 126 163 207 255 308 365
#
# _framework density 23.330998000000001
#
# number of rings (size 3 to 8) (size 9 to 14) (size 15 to 20)
#    0.000    2.077    0.769    2.308    2.154    4.923 
#    0.000    2.308    0.000    4.615    0.000    0.000 
#    0.000    0.000    0.000    0.000    0.000    0.000 
#
# Total GULP energy -290155.909043 kJ/mol
# GULP energy per Si atom -5579.921328 kJ/mol
# Density = 2.327790 g / cm^3
# Si number density = 23.330998 Si / 1000 Ang^3
#
#
#
# Elastic Constant Matrix: (Units=GPa)
#
#
# Indices 1 2 3 4 5 6 
#
# 1 143.2328 77.2208 1.3224 0.0000 0.0000 0.0000
# 2 77.2208 171.3457 5.3948 0.0000 0.0000 0.0000
# 3 1.3224 5.3948 48.0224 0.0000 0.0000 0.0000
# 4 0.0000 0.0000 0.0000 -8.9853 0.0000 0.0000
# 5 0.0000 0.0000 0.0000 0.0000 79.5509 0.0000
# 6 0.0000 0.0000 0.0000 0.0000 0.0000 -61.0665
#
#
#
# Elastic Compliance Matrix: (Units=1/GPa)
#
#
# Indices 1 2 3 4 5 6 
#
# 1 0.009225 -0.004164 0.000214 0.000000 0.000000 0.000000
# 2 -0.004164 0.007737 -0.000754 0.000000 0.000000 0.000000
# 3 0.000214 -0.000754 0.020902 0.000000 0.000000 0.000000
# 4 0.000000 0.000000 0.000000 -0.111293 0.000000 0.000000
# 5 0.000000 0.000000 0.000000 0.000000 0.012571 0.000000
# 6 0.000000 0.000000 0.000000 0.000000 0.000000 -0.016376
#
#
# Mechanical properties :
#
#
# Convention : Reuss Voigt Hill
#
# Bulk Modulus (GPa) = 35.14419 58.94189 47.04304
# Shear Modulus (GPa) = -85.70394 20.47735 -32.61329
#
# Velocity S-wave (km/s) = -6.06743 2.96579 -3.74284
# Velocity P-wave (km/s) = 5.83000 6.08655 1.23636
#
# Compressibility (1/GPa) = 0.02845421
#
# Stress axis : x y z
#
# Youngs Moduli (GPa) = 108.40580 129.25726 47.84123
#
# Poissons Ratio (x) = 0.53823 -0.01023
# Poissons Ratio (y) = 0.45140 0.03609
# Poissons Ratio (z) = -0.02317 0.09752
#
# Static dielectric constant tensor:
#      x y z
#    x 1.899770 0.000000 0.000000 
#    y 0.000000 1.917350 0.000000 
#    z 0.000000 0.000000 1.864270 
# 
# From -- ./inp_files/16506.got.cif
#   From: 2010.05.17/outbox.cif.g08.bks.cpg/sg65_9_cif.got.tgz:16506.got - 2010.06.03 17:01:31.
