data_PCOD9490005
_publ_section_title
;
Structure prediction by ZEFSAII (Michael W. Deem and Ramdas Pophale) SiO2 
 PCOD9490005
Probable space group: C M M M
;
_chemical_formula_sum "Si O2"
_cell_formula_units_Z 104
_cell_length_a 19.204264
_cell_length_b 8.006229
_cell_length_c 36.024819
_cell_angle_alpha 90.000000
_cell_angle_beta 90.000000
_cell_angle_gamma 90.000000
_cell_volume 5538.950487
_symmetry_space_group_name_H-M "C M M M"
_symmetry_group_IT_number 65
_symmetry_cell_setting 'orthorhombic'
loop_
_space_group_symop_operation_xyz
x,y,z
-x,-y,z
x,-y,-z
-x,y,-z
-x,-y,-z
x,y,-z
-x,y,z
x,-y,z
1/2+x,1/2+y,z
1/2-x,1/2-y,z
1/2+x,1/2-y,-z
1/2-x,1/2+y,-z
1/2-x,1/2-y,-z
1/2+x,1/2+y,-z
1/2-x,1/2+y,z
1/2+x,1/2-y,z
loop_
_atom_site_type_symbol
_atom_site_label
_atom_site_fract_x
_atom_site_fract_y
_atom_site_fract_z
Si Si1 0.670784 0.200404 0.332901
Si Si2 0.169963 0.801818 0.888510
Si Si3 0.578955 0.299446 0.180107
Si Si4 0.329558 0.800075 0.249471
Si Si5 0.079062 0.298638 0.042038
Si Si6 0.416253 0.195980 0.404510
Si Si7 0.915345 0.000000 0.542478
O O1 0.750000 0.250000 0.341707
O O2 0.654779 0.263759 0.291282
O O3 0.619233 0.249564 0.365813
O O4 0.667587 0.000000 0.331052
O O5 0.250000 0.750000 0.886944
O O6 0.124865 0.731824 0.854123
O O7 0.133234 0.755295 0.927036
O O8 0.168548 0.000000 0.885368
O O9 0.500000 0.234098 0.179525
O O10 0.575218 0.500000 0.176195
O O11 0.617933 0.263338 0.218484
O O12 0.250000 0.750000 0.240610
O O13 0.333050 0.000000 0.249768
O O14 0.078072 0.500000 0.041482
O O15 0.000000 0.241955 0.051060
O O16 0.095574 0.242056 0.000000
O O17 0.500000 0.202024 0.400994
O O18 0.394971 0.331146 0.435577
O O19 0.397993 0.000000 0.412347
O O20 0.890812 0.000000 0.500000
O O21 0.000000 0.000000 0.541782
#
# Coordination Sequence:
#
# PCOD9490005 Si02
#       7
#    16  16  16  16  16  16   8
#     4   9  19  33  52  78 105 140 178 217 266 319
#     4  11  23  38  57  80 108 143 182 223 267 318
#     4  10  22  39  56  78 108 140 177 222 271 319
#     4  10  20  35  55  79 108 140 180 222 264 319
#     4   9  19  37  60  85 112 140 173 218 269 321
#     4   9  18  33  52  77 108 140 178 227 277 324
#     4   9  18  32  52  80 108 138 181 227 275 333
#
# _framework density 18.776119999999999
#
# number of rings (size 3 to 8) (size 9 to 14) (size 15 to 20)
#    0.000    2.385    0.000    2.308    1.077    5.846 
#    0.000    3.846    0.000    0.462    0.000    0.000 
#    0.000    0.000    0.000    0.000    0.000    0.000 
#
# Total GULP energy -290092.537573 kJ/mol
# GULP energy per Si atom -5578.702646 kJ/mol
# Density = 1.873338 g / cm^3
# Si number density = 18.776120 Si / 1000 Ang^3
#
#
#
# Elastic Constant Matrix: (Units=GPa)
#
#
# Indices 1 2 3 4 5 6 
#
# 1 116.3099 32.7871 104.9750 0.0000 0.0000 0.0000
# 2 32.7871 45.2091 41.1481 0.0000 0.0000 0.0000
# 3 104.9750 41.1481 157.1064 0.0000 0.0000 0.0000
# 4 0.0000 0.0000 0.0000 67.2367 0.0000 0.0000
# 5 0.0000 0.0000 0.0000 0.0000 57.8769 0.0000
# 6 0.0000 0.0000 0.0000 0.0000 0.0000 2.3249
#
#
#
# Elastic Compliance Matrix: (Units=1/GPa)
#
#
# Indices 1 2 3 4 5 6 
#
# 1 0.022049 -0.003389 -0.013845 0.000000 0.000000 0.000000
# 2 -0.003389 0.029564 -0.005478 0.000000 0.000000 0.000000
# 3 -0.013845 -0.005478 0.017051 0.000000 0.000000 0.000000
# 4 0.000000 0.000000 0.000000 0.014873 0.000000 0.000000
# 5 0.000000 0.000000 0.000000 0.000000 0.017278 0.000000
# 6 0.000000 0.000000 0.000000 0.000000 0.000000 0.430131
#
#
# Mechanical properties :
#
#
# Convention : Reuss Voigt Hill
#
# Bulk Modulus (GPa) = 43.03260 75.16064 59.09662
# Shear Modulus (GPa) = 8.55995 34.80205 21.68100
#
# Velocity S-wave (km/s) = 2.13749 4.30993 3.40179
# Velocity P-wave (km/s) = 5.39076 8.05507 6.85363
#
# Compressibility (1/GPa) = 0.02323820
#
# Stress axis : x y z
#
# Youngs Moduli (GPa) = 45.35433 33.82517 58.64863
#
# Poissons Ratio (x) = 0.11464 0.81197
# Poissons Ratio (y) = 0.15372 0.32130
# Poissons Ratio (z) = 0.62792 0.18531
#
# Static dielectric constant tensor:
#      x y z
#    x 1.640520 0.000000 0.000000 
#    y 0.000000 1.664620 0.000000 
#    z 0.000000 0.000000 1.656150 
# 
# From -- ./inp_files/78212.got.cif
#   From: 2010.05.17/outbox.cif.g08.bks.cpg/sg65_40_cif.got.tgz:78212.got - 2010.06.03 17:01:31.
