data_PCOD9490386
_publ_section_title
;
Structure prediction by ZEFSAII (Michael W. Deem and Ramdas Pophale) SiO2 
 PCOD9490386
Probable space group: C M M M
;
_chemical_formula_sum "Si O2"
_cell_formula_units_Z 50
_cell_length_a 7.936218
_cell_length_b 30.175863
_cell_length_c 10.320967
_cell_angle_alpha 90.000000
_cell_angle_beta 90.000000
_cell_angle_gamma 90.000000
_cell_volume 2471.688163
_symmetry_space_group_name_H-M "C M M M"
_symmetry_group_IT_number 65
_symmetry_cell_setting 'orthorhombic'
loop_
_space_group_symop_operation_xyz
x,y,z
-x,-y,z
x,-y,-z
-x,y,-z
-x,-y,-z
x,y,-z
-x,y,z
x,-y,z
1/2+x,1/2+y,z
1/2-x,1/2-y,z
1/2+x,1/2-y,-z
1/2-x,1/2+y,-z
1/2-x,1/2-y,-z
1/2+x,1/2+y,-z
1/2-x,1/2+y,z
1/2+x,1/2-y,z
loop_
_atom_site_type_symbol
_atom_site_label
_atom_site_fract_x
_atom_site_fract_y
_atom_site_fract_z
Si Si1 0.185044 0.067419 0.000000
Si Si2 0.800677 0.611557 0.745257
Si Si3 0.205371 0.448118 0.500000
Si Si4 0.201413 0.800514 0.850722
Si Si5 0.000000 0.500000 0.000000
O O1 0.201275 0.096085 0.871181
O O2 0.349656 0.037189 0.000000
O O3 0.000000 0.046596 0.000000
O O4 0.744728 0.580987 0.624959
O O5 0.773454 0.664309 0.747856
O O6 0.000000 0.603146 0.760824
O O7 0.261766 0.500000 0.500000
O O8 0.000000 0.449894 0.500000
O O9 0.250000 0.750000 0.821262
O O10 0.000000 0.804276 0.851141
O O11 0.262275 0.809394 0.000000
#
# Coordination Sequence:
#
# PCOD9490386 Si02
#       5
#     8  16   8  16   2
#     4  12  25  41  66  97 128 166 220 272 327 392
#     4  11  21  39  65  94 130 172 213 268 326 385
#     4   9  22  40  64  89 126 175 225 264 319 390
#     4  10  20  35  59  92 127 164 208 264 324 389
#     4  12  26  44  60  96 128 176 210 278 340 370
#
# _framework density 20.229088999999998
#
# number of rings (size 3 to 8) (size 9 to 14) (size 15 to 20)
#    0.000    1.440    3.200    2.160    2.240    1.280 
#    0.000    4.000    0.000    3.840    0.000    0.000 
#    0.000    0.000    0.000    0.000    0.000    0.000 
#
# Total GULP energy -139203.146438 kJ/mol
# GULP energy per Si atom -5568.125858 kJ/mol
# Density = 2.018305 g / cm^3
# Si number density = 20.229089 Si / 1000 Ang^3
#
#
#
# Elastic Constant Matrix: (Units=GPa)
#
#
# Indices 1 2 3 4 5 6 
#
# 1 99.6740 23.3140 16.2995 0.0000 0.0000 0.0000
# 2 23.3140 182.4742 85.0798 0.0000 0.0000 0.0000
# 3 16.2995 85.0798 129.4102 0.0000 0.0000 0.0000
# 4 0.0000 0.0000 0.0000 38.0294 0.0000 0.0000
# 5 0.0000 0.0000 0.0000 0.0000 -5.4191 0.0000
# 6 0.0000 0.0000 0.0000 0.0000 0.0000 86.0883
#
#
#
# Elastic Compliance Matrix: (Units=1/GPa)
#
#
# Indices 1 2 3 4 5 6 
#
# 1 0.010377 -0.001033 -0.000628 0.000000 0.000000 0.000000
# 2 -0.001033 0.008006 -0.005133 0.000000 0.000000 0.000000
# 3 -0.000628 -0.005133 0.011181 0.000000 0.000000 0.000000
# 4 0.000000 0.000000 0.000000 0.026295 0.000000 0.000000
# 5 0.000000 0.000000 0.000000 0.000000 -0.184532 0.000000
# 6 0.000000 0.000000 0.000000 0.000000 0.000000 0.011616
#
#
# Mechanical properties :
#
#
# Convention : Reuss Voigt Hill
#
# Bulk Modulus (GPa) = 62.59488 73.43834 68.01661
# Shear Modulus (GPa) = -50.94571 42.86405 -4.04083
#
# Velocity S-wave (km/s) = -5.02385 4.60818 -1.41487
# Velocity P-wave (km/s) = 1.62539 8.04338 5.57019
#
# Compressibility (1/GPa) = 0.01597575
#
# Stress axis : x y z
#
# Youngs Moduli (GPa) = 96.36684 124.91334 89.43636
#
# Poissons Ratio (x) = 0.12905 0.05615
# Poissons Ratio (y) = 0.09956 0.45908
# Poissons Ratio (z) = 0.06050 0.64119
#
# Static dielectric constant tensor:
#      x y z
#    x 1.716550 0.000000 0.000000 
#    y 0.000000 1.767100 0.000000 
#    z 0.000000 0.000000 1.710350 
# 
# From -- ./inp_files/3145.got.cif
#   From: 2010.05.17/outbox.cif.g08.bks.cpg/sg65_2_cif.got.tgz:3145.got - 2010.06.03 17:01:31.
