data_PCOD9490988
_publ_section_title
;
Structure prediction by ZEFSAII (Michael W. Deem and Ramdas Pophale) SiO2 
 PCOD9490988
Probable space group: C M M M
;
_chemical_formula_sum "Si O2"
_cell_formula_units_Z 68
_cell_length_a 20.521648
_cell_length_b 18.323526
_cell_length_c 9.462089
_cell_angle_alpha 90.000000
_cell_angle_beta 90.000000
_cell_angle_gamma 90.000000
_cell_volume 3558.019398
_symmetry_space_group_name_H-M "C M M M"
_symmetry_group_IT_number 65
_symmetry_cell_setting 'orthorhombic'
loop_
_space_group_symop_operation_xyz
x,y,z
-x,-y,z
x,-y,-z
-x,y,-z
-x,-y,-z
x,y,-z
-x,y,z
x,-y,z
1/2+x,1/2+y,z
1/2-x,1/2-y,z
1/2+x,1/2-y,-z
1/2-x,1/2+y,-z
1/2-x,1/2-y,-z
1/2+x,1/2+y,-z
1/2-x,1/2+y,z
1/2+x,1/2-y,z
loop_
_atom_site_type_symbol
_atom_site_label
_atom_site_fract_x
_atom_site_fract_y
_atom_site_fract_z
Si Si1 0.762393 0.914738 0.832769
Si Si2 0.000000 0.000000 0.000000
Si Si3 0.365132 0.685269 0.331612
Si Si4 0.000000 0.118999 0.251392
Si Si5 0.000000 0.416148 0.671302
Si Si6 0.500000 0.500000 0.500000
Si Si7 0.140723 0.642888 0.667675
O O1 0.813439 0.864863 0.749090
O O2 0.692645 0.900013 0.761335
O O3 0.780209 0.000000 0.817635
O O4 0.761623 0.897665 0.000000
O O5 0.000000 0.934878 0.119743
O O6 0.365585 0.668658 0.500000
O O7 0.435563 0.668067 0.266089
O O8 0.348652 0.770576 0.316744
O O9 0.000000 0.063681 0.380616
O O10 0.067079 0.376998 0.711510
O O11 0.000000 0.500000 0.719739
O O12 0.000000 0.416536 0.500000
O O13 0.148636 0.624939 0.500000
#
# Coordination Sequence:
#
# PCOD9490988 Si02
#       7
#    16   2  16   8   8   2  16
#     4  11  26  42  60  85 122 162 204 249 302 364
#     4  10  28  38  60  86 136 162 206 252 300 358
#     4  11  23  39  64  91 121 159 202 253 307 359
#     4  11  23  40  61  92 125 162 206 251 302 362
#     4   9  17  32  63  93 118 149 190 242 294 346
#     4  10  20  38  64  86 128 162 198 252 304 350
#     4  10  21  40  63  93 123 153 198 252 306 363
#
# _framework density 19.111756
#
# number of rings (size 3 to 8) (size 9 to 14) (size 15 to 20)
#    0.000    1.529    1.176    2.824    4.941    8.471 
#    0.000    0.588    0.000    2.118    0.000    0.000 
#    0.000    0.000    0.000    0.000    0.000    0.000 
#
# Total GULP energy -189408.810921 kJ/mol
# GULP energy per Si atom -5570.847380 kJ/mol
# Density = 1.906826 g / cm^3
# Si number density = 19.111756 Si / 1000 Ang^3
#
#
#
# Elastic Constant Matrix: (Units=GPa)
#
#
# Indices 1 2 3 4 5 6 
#
# 1 120.4646 33.7507 35.0967 0.0000 0.0000 0.0000
# 2 33.7507 84.6611 49.8513 0.0000 0.0000 0.0000
# 3 35.0967 49.8513 120.2654 0.0000 0.0000 0.0000
# 4 0.0000 0.0000 0.0000 28.8894 0.0000 0.0000
# 5 0.0000 0.0000 0.0000 0.0000 1044.4390 0.0000
# 6 0.0000 0.0000 0.0000 0.0000 0.0000 -32.0786
#
#
#
# Elastic Compliance Matrix: (Units=1/GPa)
#
#
# Indices 1 2 3 4 5 6 
#
# 1 0.009573 -0.002872 -0.001603 0.000000 0.000000 0.000000
# 2 -0.002872 0.016488 -0.005996 0.000000 0.000000 0.000000
# 3 -0.001603 -0.005996 0.011268 0.000000 0.000000 0.000000
# 4 0.000000 0.000000 0.000000 0.034615 0.000000 0.000000
# 5 0.000000 0.000000 0.000000 0.000000 0.000957 0.000000
# 6 0.000000 0.000000 0.000000 0.000000 0.000000 -0.031173
#
#
# Mechanical properties :
#
#
# Convention : Reuss Voigt Hill
#
# Bulk Modulus (GPa) = 61.02840 62.53203 61.78022
# Shear Modulus (GPa) = 73.38658 222.02946 147.70802
#
# Velocity S-wave (km/s) = 6.20339 10.79011 8.80081
# Velocity P-wave (km/s) = 9.12749 13.71224 11.64767
#
# Compressibility (1/GPa) = 0.01638581
#
# Stress axis : x y z
#
# Youngs Moduli (GPa) = 104.46057 60.65173 88.74564
#
# Poissons Ratio (x) = 0.17422 0.14226
# Poissons Ratio (y) = 0.30006 0.53212
# Poissons Ratio (z) = 0.16745 0.36367
#
# Static dielectric constant tensor:
#      x y z
#    x 1.917560 0.000000 0.000000 
#    y 0.000000 1.641740 0.000000 
#    z 0.000000 0.000000 1.630340 
# 
# From -- ./inp_files/11023.got.cif
#   From: 2010.05.17/outbox.cif.g08.bks.cpg/sg65_6_cif.got.tgz:11023.got - 2010.06.03 17:01:31.
