data_PCOD9490538
_publ_section_title
;
Structure prediction by ZEFSAII (Michael W. Deem and Ramdas Pophale) SiO2 
 PCOD9490538
Probable space group: C M M M
;
_chemical_formula_sum "Si O2"
_cell_formula_units_Z 88
_cell_length_a 8.618392
_cell_length_b 26.316927
_cell_length_c 21.334312
_cell_angle_alpha 90.000000
_cell_angle_beta 90.000000
_cell_angle_gamma 90.000000
_cell_volume 4838.826624
_symmetry_space_group_name_H-M "C M M M"
_symmetry_group_IT_number 65
_symmetry_cell_setting 'orthorhombic'
loop_
_space_group_symop_operation_xyz
x,y,z
-x,-y,z
x,-y,-z
-x,y,-z
-x,-y,-z
x,y,-z
-x,y,z
x,-y,z
1/2+x,1/2+y,z
1/2-x,1/2-y,z
1/2+x,1/2-y,-z
1/2-x,1/2+y,-z
1/2-x,1/2-y,-z
1/2+x,1/2+y,-z
1/2-x,1/2+y,z
1/2+x,1/2-y,z
loop_
_atom_site_type_symbol
_atom_site_label
_atom_site_fract_x
_atom_site_fract_y
_atom_site_fract_z
Si Si1 0.184301 0.000000 0.351891
Si Si2 0.313438 0.195209 0.350023
Si Si3 0.813347 0.903600 0.864199
Si Si4 0.313741 0.805364 0.795434
Si Si5 0.812188 0.403763 0.426705
Si Si6 0.314841 0.000000 0.788232
Si Si7 0.811220 0.941172 0.000000
O O1 0.237995 0.950653 0.390290
O O2 0.263375 0.000000 0.283901
O O3 0.000000 0.000000 0.344046
O O4 0.500000 0.197313 0.351336
O O5 0.250000 0.250000 0.369682
O O6 0.266524 0.186182 0.277517
O O7 0.263772 0.148846 0.393812
O O8 0.751609 0.850748 0.837169
O O9 0.751148 0.950119 0.822455
O O10 0.763022 0.913993 0.935888
O O11 0.000000 0.903981 0.861968
O O12 0.500000 0.805185 0.798212
O O13 0.250000 0.750000 0.813876
O O14 0.771746 0.404496 0.500000
O O15 0.000000 0.407763 0.421806
O O16 0.500000 0.000000 0.792249
O O17 0.000000 0.942054 0.000000
O O18 0.759540 0.000000 0.000000
#
# Coordination Sequence:
#
# PCOD9490538 Si02
#       7
#     8  16  16  16  16   8   8
#     4  12  25  39  57  82 110 145 191 241 288 333
#     4   9  19  35  56  81 110 144 184 231 281 333
#     4  11  21  37  61  88 117 152 192 233 283 340
#     4  10  20  36  57  83 115 152 195 243 291 338
#     4  10  21  38  58  80 112 153 188 224 282 350
#     4  12  24  38  58  86 117 148 186 235 288 344
#     4   9  18  36  59  84 119 156 187 227 282 340
#
# _framework density 18.186226999999999
#
# number of rings (size 3 to 8) (size 9 to 14) (size 15 to 20)
#    0.000    1.727    0.909    4.091    0.000    4.727 
#    0.000    2.727    0.000    0.000    0.000    0.000 
#    0.000    0.000    0.000    0.000    0.000    0.000 
#
# Total GULP energy -245862.462855 kJ/mol
# GULP energy per Si atom -5587.783247 kJ/mol
# Density = 1.814483 g / cm^3
# Si number density = 18.186227 Si / 1000 Ang^3
#
#
#
# Elastic Constant Matrix: (Units=GPa)
#
#
# Indices 1 2 3 4 5 6 
#
# 1 56.5549 49.0510 44.3058 0.0000 0.0000 0.0000
# 2 49.0510 175.6634 105.8725 0.0000 0.0000 0.0000
# 3 44.3058 105.8725 138.0874 0.0000 0.0000 0.0000
# 4 0.0000 0.0000 0.0000 219.9554 0.0000 0.0000
# 5 0.0000 0.0000 0.0000 0.0000 19.9268 0.0000
# 6 0.0000 0.0000 0.0000 0.0000 0.0000 38.2910
#
#
#
# Elastic Compliance Matrix: (Units=1/GPa)
#
#
# Indices 1 2 3 4 5 6 
#
# 1 0.025043 -0.003997 -0.004970 0.000000 0.000000 0.000000
# 2 -0.003997 0.011221 -0.007321 0.000000 0.000000 0.000000
# 3 -0.004970 -0.007321 0.014449 0.000000 0.000000 0.000000
# 4 0.000000 0.000000 0.000000 0.004546 0.000000 0.000000
# 5 0.000000 0.000000 0.000000 0.000000 0.050184 0.000000
# 6 0.000000 0.000000 0.000000 0.000000 0.000000 0.026116
#
#
# Mechanical properties :
#
#
# Convention : Reuss Voigt Hill
#
# Bulk Modulus (GPa) = 55.13731 85.41825 70.27778
# Shear Modulus (GPa) = 29.38050 67.03972 48.21011
#
# Velocity S-wave (km/s) = 4.02373 6.07807 5.15429
# Velocity P-wave (km/s) = 7.20911 9.81468 8.61101
#
# Compressibility (1/GPa) = 0.01813654
#
# Stress axis : x y z
#
# Youngs Moduli (GPa) = 39.93211 89.11817 69.20665
#
# Poissons Ratio (x) = 0.35621 0.34399
# Poissons Ratio (y) = 0.15961 0.50665
# Poissons Ratio (z) = 0.19848 0.65242
#
# Static dielectric constant tensor:
#      x y z
#    x 1.617520 0.000000 0.000000 
#    y 0.000000 1.587810 0.000000 
#    z 0.000000 0.000000 1.610120 
# 
# From -- ./inp_files/59892.got.cif
#   From: 2010.05.17/outbox.cif.g08.bks.cpg/sg65_30_cif.got.tgz:59892.got - 2010.06.03 17:01:31.
