data_PCOD9490382
_publ_section_title
;
Structure prediction by ZEFSAII (Michael W. Deem and Ramdas Pophale) SiO2 
 PCOD9490382
Probable space group: C M M M
;
_chemical_formula_sum "Si O2"
_cell_formula_units_Z 64
_cell_length_a 26.991525
_cell_length_b 14.204893
_cell_length_c 8.093830
_cell_angle_alpha 90.000000
_cell_angle_beta 90.000000
_cell_angle_gamma 90.000000
_cell_volume 3103.269318
_symmetry_space_group_name_H-M "C M M M"
_symmetry_group_IT_number 65
_symmetry_cell_setting 'orthorhombic'
loop_
_space_group_symop_operation_xyz
x,y,z
-x,-y,z
x,-y,-z
-x,y,-z
-x,-y,-z
x,y,-z
-x,y,z
x,-y,z
1/2+x,1/2+y,z
1/2-x,1/2-y,z
1/2+x,1/2-y,-z
1/2-x,1/2+y,-z
1/2-x,1/2-y,-z
1/2+x,1/2+y,-z
1/2-x,1/2+y,z
1/2+x,1/2-y,z
loop_
_atom_site_type_symbol
_atom_site_label
_atom_site_fract_x
_atom_site_fract_y
_atom_site_fract_z
Si Si1 0.781332 0.151996 0.500000
Si Si2 0.940695 0.214518 0.811208
Si Si3 0.378542 0.108747 0.300606
Si Si4 0.766810 0.641262 0.180846
Si Si5 0.106485 0.112385 0.500000
O O1 0.750000 0.250000 0.500000
O O2 0.764572 0.102294 0.667278
O O3 0.839882 0.162701 0.500000
O O4 0.916689 0.316147 0.772541
O O5 0.921134 0.146289 0.666301
O O6 0.000000 0.219443 0.801690
O O7 0.927013 0.186599 0.000000
O O8 0.377291 0.117168 0.500000
O O9 0.324220 0.131974 0.229279
O O10 0.390382 0.000000 0.260527
O O11 0.750000 0.750000 0.169908
O O12 0.758438 0.600939 0.000000
O O13 0.112759 0.000000 0.500000
#
# Coordination Sequence:
#
# PCOD9490382 Si02
#       5
#     8  16  16  16   8
#     4  10  20  37  61  91 129 170 214 263 318 387
#     4  11  25  46  72 100 132 174 224 277 340 411
#     4  11  23  40  67 101 138 179 224 275 332 401
#     4  10  20  35  59  90 128 174 220 265 316 377
#     4  12  27  46  71 101 136 174 223 286 342 393
#
# _framework density 20.623411000000001
#
# number of rings (size 3 to 8) (size 9 to 14) (size 15 to 20)
#    0.000    1.250    2.500    4.125    0.000    8.000 
#    0.000    3.750    0.000    0.000    0.000    0.000 
#    0.000    0.000    0.000    0.000    0.000    0.000 
#
# Total GULP energy -178788.071842 kJ/mol
# GULP energy per Si atom -5587.127245 kJ/mol
# Density = 2.057647 g / cm^3
# Si number density = 20.623411 Si / 1000 Ang^3
#
#
#
# Elastic Constant Matrix: (Units=GPa)
#
#
# Indices 1 2 3 4 5 6 
#
# 1 93.7816 21.2048 55.6350 0.0000 0.0000 0.0000
# 2 21.2048 132.7014 30.0488 0.0000 0.0000 0.0000
# 3 55.6350 30.0488 209.2515 0.0000 0.0000 0.0000
# 4 0.0000 0.0000 0.0000 -15.5725 0.0000 0.0000
# 5 0.0000 0.0000 0.0000 0.0000 39.1299 0.0000
# 6 0.0000 0.0000 0.0000 0.0000 0.0000 -42.2934
#
#
#
# Elastic Compliance Matrix: (Units=1/GPa)
#
#
# Indices 1 2 3 4 5 6 
#
# 1 0.012882 -0.001326 -0.003235 0.000000 0.000000 0.000000
# 2 -0.001326 0.007925 -0.000786 0.000000 0.000000 0.000000
# 3 -0.003235 -0.000786 0.005752 0.000000 0.000000 0.000000
# 4 0.000000 0.000000 0.000000 -0.064216 0.000000 0.000000
# 5 0.000000 0.000000 0.000000 0.000000 0.025556 0.000000
# 6 0.000000 0.000000 0.000000 0.000000 0.000000 -0.023644
#
#
# Mechanical properties :
#
#
# Convention : Reuss Voigt Hill
#
# Bulk Modulus (GPa) = 63.02474 72.16795 67.59634
# Shear Modulus (GPa) = -252.98429 18.17586 -117.40421
#
# Velocity S-wave (km/s) = -11.08760 2.97193 -7.55323
# Velocity P-wave (km/s) = 11.54500 6.84439 6.57424
#
# Compressibility (1/GPa) = 0.01586679
#
# Stress axis : x y z
#
# Youngs Moduli (GPa) = 77.62928 126.17528 173.86068
#
# Poissons Ratio (x) = 0.16731 0.56236
# Poissons Ratio (y) = 0.10294 0.13658
# Poissons Ratio (z) = 0.25109 0.09912
#
# Static dielectric constant tensor:
#      x y z
#    x 1.680620 0.000000 0.000000 
#    y 0.000000 1.723630 0.000000 
#    z 0.000000 0.000000 1.794420 
# 
# From -- ./inp_files/13369.got.cif
#   From: 2010.05.17/outbox.cif.g08.bks.cpg/sg65_7_cif.got.tgz:13369.got - 2010.06.03 17:01:31.
