data_PCOD9490022
_publ_section_title
;
Structure prediction by ZEFSAII (Michael W. Deem and Ramdas Pophale) SiO2 
 PCOD9490022
Probable space group: C M M M
;
_chemical_formula_sum "Si O2"
_cell_formula_units_Z 72
_cell_length_a 18.220826
_cell_length_b 7.624992
_cell_length_c 26.056551
_cell_angle_alpha 90.000000
_cell_angle_beta 90.000000
_cell_angle_gamma 90.000000
_cell_volume 3620.131802
_symmetry_space_group_name_H-M "C M M M"
_symmetry_group_IT_number 65
_symmetry_cell_setting 'orthorhombic'
loop_
_space_group_symop_operation_xyz
x,y,z
-x,-y,z
x,-y,-z
-x,y,-z
-x,-y,-z
x,y,-z
-x,y,z
x,-y,z
1/2+x,1/2+y,z
1/2-x,1/2-y,z
1/2+x,1/2-y,-z
1/2-x,1/2+y,-z
1/2-x,1/2-y,-z
1/2+x,1/2+y,-z
1/2-x,1/2+y,z
1/2+x,1/2-y,z
loop_
_atom_site_type_symbol
_atom_site_label
_atom_site_fract_x
_atom_site_fract_y
_atom_site_fract_z
Si Si1 0.414875 0.213242 0.229826
Si Si2 0.835298 0.199395 0.875123
Si Si3 0.163389 0.710830 0.666737
Si Si4 0.662734 0.210799 0.555148
Si Si5 0.587056 0.000000 0.060781
O O1 0.500000 0.262990 0.225970
O O2 0.369652 0.281720 0.181495
O O3 0.380241 0.274193 0.283643
O O4 0.410952 0.000000 0.228265
O O5 0.750000 0.250000 0.872848
O O6 0.877223 0.331816 0.912352
O O7 0.842740 0.000000 0.892758
O O8 0.155789 0.500000 0.665812
O O9 0.250000 0.750000 0.672006
O O10 0.136635 0.776824 0.610754
O O11 0.633595 0.277014 0.500000
O O12 0.750000 0.250000 0.555115
O O13 0.653499 0.000000 0.554983
O O14 0.500000 0.000000 0.070228
O O15 0.600219 0.000000 0.000000
#
# Coordination Sequence:
#
# PCOD9490022 Si02
#       5
#    16  16  16  16   8
#     4  10  20  35  55  79 115 156 197 249 308 372
#     4  12  24  43  69 100 130 170 216 264 315 369
#     4   9  17  28  45  70  98 136 180 232 295 357
#     4   8  13  22  37  59  89 124 169 225 285 348
#     4  11  26  48  72 102 141 177 212 260 313 366
#
# _framework density 19.888779
#
# number of rings (size 3 to 8) (size 9 to 14) (size 15 to 20)
#    0.000    2.111    2.222    1.333    0.000    5.333 
#    0.000    1.111    0.000    0.667    0.000    4.667 
#    0.000    0.000    0.000   38.000    0.000   19.111 
#
# Total GULP energy -200929.950982 kJ/mol
# GULP energy per Si atom -5581.387527 kJ/mol
# Density = 1.984351 g / cm^3
# Si number density = 19.888779 Si / 1000 Ang^3
#
#
#
# Elastic Constant Matrix: (Units=GPa)
#
#
# Indices 1 2 3 4 5 6 
#
# 1 96.0486 36.8550 102.0468 0.0000 0.0000 0.0000
# 2 36.8550 103.2757 59.7375 0.0000 0.0000 0.0000
# 3 102.0468 59.7375 182.4917 0.0000 0.0000 0.0000
# 4 0.0000 0.0000 0.0000 -8.9931 0.0000 0.0000
# 5 0.0000 0.0000 0.0000 0.0000 84.7606 0.0000
# 6 0.0000 0.0000 0.0000 0.0000 0.0000 18.8012
#
#
#
# Elastic Compliance Matrix: (Units=1/GPa)
#
#
# Indices 1 2 3 4 5 6 
#
# 1 0.025745 -0.001061 -0.014049 0.000000 0.000000 0.000000
# 2 -0.001061 0.011988 -0.003331 0.000000 0.000000 0.000000
# 3 -0.014049 -0.003331 0.014426 0.000000 0.000000 0.000000
# 4 0.000000 0.000000 0.000000 -0.111197 0.000000 0.000000
# 5 0.000000 0.000000 0.000000 0.000000 0.011798 0.000000
# 6 0.000000 0.000000 0.000000 0.000000 0.000000 0.053188
#
#
# Mechanical properties :
#
#
# Convention : Reuss Voigt Hill
#
# Bulk Modulus (GPa) = 65.45666 86.56605 76.01135
# Shear Modulus (GPa) = 104.33775 31.12553 67.73164
#
# Velocity S-wave (km/s) = 7.25083 3.96027 5.84201
# Velocity P-wave (km/s) = 10.15294 8.03313 9.15460
#
# Compressibility (1/GPa) = 0.01527729
#
# Stress axis : x y z
#
# Youngs Moduli (GPa) = 38.84325 83.41563 69.32007
#
# Poissons Ratio (x) = 0.08851 0.97385
# Poissons Ratio (y) = 0.04122 0.23090
# Poissons Ratio (z) = 0.54569 0.27785
#
# Static dielectric constant tensor:
#      x y z
#    x 1.623660 0.000000 0.000000 
#    y 0.000000 1.734090 0.000000 
#    z 0.000000 0.000000 1.725130 
# 
# From -- ./inp_files/74619.got.cif
#   From: 2010.05.17/outbox.cif.g08.bks.cpg/sg65_38_cif.got.tgz:74619.got - 2010.06.03 17:01:31.
