data_PCOD9490981
_publ_section_title
;
Structure prediction by ZEFSAII (Michael W. Deem and Ramdas Pophale) SiO2 
 PCOD9490981
Probable space group: C M M M
;
_chemical_formula_sum "Si O2"
_cell_formula_units_Z 104
_cell_length_a 30.530710
_cell_length_b 21.476650
_cell_length_c 8.042307
_cell_angle_alpha 90.000000
_cell_angle_beta 90.000000
_cell_angle_gamma 90.000000
_cell_volume 5273.319572
_symmetry_space_group_name_H-M "C M M M"
_symmetry_group_IT_number 65
_symmetry_cell_setting 'orthorhombic'
loop_
_space_group_symop_operation_xyz
x,y,z
-x,-y,z
x,-y,-z
-x,y,-z
-x,-y,-z
x,y,-z
-x,y,z
x,-y,z
1/2+x,1/2+y,z
1/2-x,1/2-y,z
1/2+x,1/2-y,-z
1/2-x,1/2+y,-z
1/2-x,1/2-y,-z
1/2+x,1/2+y,-z
1/2-x,1/2+y,z
1/2+x,1/2-y,z
loop_
_atom_site_type_symbol
_atom_site_label
_atom_site_fract_x
_atom_site_fract_y
_atom_site_fract_z
Si Si1 0.049162 0.926820 0.799879
Si Si2 0.946889 0.500000 0.809493
Si Si3 0.130865 0.279221 0.698693
Si Si4 0.280842 0.569418 0.196943
Si Si5 0.050171 0.363573 0.799153
Si Si6 0.864815 0.861611 0.306182
Si Si7 0.273978 0.186510 0.200686
O O1 0.086706 0.887928 0.714401
O O2 0.000000 0.907658 0.752511
O O3 0.054110 0.000000 0.761153
O O4 0.053037 0.920537 0.000000
O O5 0.935842 0.567419 0.734640
O O6 0.000000 0.500000 0.816830
O O7 0.930128 0.500000 0.000000
O O8 0.129449 0.276239 0.500000
O O9 0.086587 0.313053 0.755412
O O10 0.135779 0.208447 0.763370
O O11 0.175152 0.313527 0.752893
O O12 0.274914 0.500000 0.267568
O O13 0.330428 0.593040 0.218878
O O14 0.250587 0.624974 0.265098
O O15 0.271923 0.565703 0.000000
O O16 0.000000 0.350099 0.743251
O O17 0.048370 0.368200 0.000000
O O18 0.852638 0.859767 0.500000
O O19 0.250000 0.250000 0.260984
O O20 0.270516 0.187051 0.000000
#
# Coordination Sequence:
#
# PCOD9490981 Si02
#       7
#    16   8  16  16  16  16  16
#     4   9  19  36  56  78 106 141 182 229 277 322
#     4   7  12  28  55  83 107 135 177 229 279 321
#     4  11  24  38  54  80 116 153 184 222 273 328
#     4  10  21  38  61  87 111 137 178 233 283 326
#     4   9  18  35  60  86 111 143 186 233 277 326
#     4  11  23  36  53  79 111 148 186 223 270 329
#     4  10  20  38  63  85 107 143 188 230 273 329
#
# _framework density 19.721921999999999
#
# number of rings (size 3 to 8) (size 9 to 14) (size 15 to 20)
#    0.000    2.231    1.538    2.769    0.000    6.462 
#    1.385    4.231    0.000    1.385    0.000    0.000 
#    0.000    0.000    0.000    0.000    0.000    0.000 
#
# Total GULP energy -290117.726781 kJ/mol
# GULP energy per Si atom -5579.187053 kJ/mol
# Density = 1.967703 g / cm^3
# Si number density = 19.721922 Si / 1000 Ang^3
#
#
#
# Elastic Constant Matrix: (Units=GPa)
#
#
# Indices 1 2 3 4 5 6 
#
# 1 111.3950 65.5489 1.7816 0.0000 0.0000 0.0000
# 2 65.5489 141.0508 14.6346 0.0000 0.0000 0.0000
# 3 1.7816 14.6346 12.4127 0.0000 0.0000 0.0000
# 4 0.0000 0.0000 0.0000 7.5559 0.0000 0.0000
# 5 0.0000 0.0000 0.0000 0.0000 212.8146 0.0000
# 6 0.0000 0.0000 0.0000 0.0000 0.0000 32.8986
#
#
#
# Elastic Compliance Matrix: (Units=1/GPa)
#
#
# Indices 1 2 3 4 5 6 
#
# 1 0.012719 -0.006519 0.005860 0.000000 0.000000 0.000000
# 2 -0.006519 0.011419 -0.012527 0.000000 0.000000 0.000000
# 3 0.005860 -0.012527 0.094491 0.000000 0.000000 0.000000
# 4 0.000000 0.000000 0.000000 0.132347 0.000000 0.000000
# 5 0.000000 0.000000 0.000000 0.000000 0.004699 0.000000
# 6 0.000000 0.000000 0.000000 0.000000 0.000000 0.030396
#
#
# Mechanical properties :
#
#
# Convention : Reuss Voigt Hill
#
# Bulk Modulus (GPa) = 10.83924 47.64321 29.24122
# Shear Modulus (GPa) = 14.56892 62.84670 38.70781
#
# Velocity S-wave (km/s) = 2.72088 5.65116 4.43502
# Velocity P-wave (km/s) = 3.92160 8.17256 6.40974
#
# Compressibility (1/GPa) = 0.09225737
#
# Stress axis : x y z
#
# Youngs Moduli (GPa) = 78.62066 87.57440 10.58301
#
# Poissons Ratio (x) = 0.57089 -0.06202
# Poissons Ratio (y) = 0.51252 0.13258
# Poissons Ratio (z) = -0.46073 1.09706
#
# Static dielectric constant tensor:
#      x y z
#    x 1.660290 0.000000 0.000000 
#    y 0.000000 1.724880 0.000000 
#    z 0.000000 0.000000 1.707080 
# 
# From -- ./inp_files/18646.got.cif
#   From: 2010.05.17/outbox.cif.g08.bks.cpg/sg65_10_cif.got.tgz:18646.got - 2010.06.03 17:01:31.
