data_PCOD9490871
_publ_section_title
;
Structure prediction by ZEFSAII (Michael W. Deem and Ramdas Pophale) SiO2 
 PCOD9490871
Probable space group: C M M M
;
_chemical_formula_sum "Si O2"
_cell_formula_units_Z 64
_cell_length_a 16.932513
_cell_length_b 8.548288
_cell_length_c 22.758432
_cell_angle_alpha 90.000000
_cell_angle_beta 90.000000
_cell_angle_gamma 90.000000
_cell_volume 3294.146429
_symmetry_space_group_name_H-M "C M M M"
_symmetry_group_IT_number 65
_symmetry_cell_setting 'orthorhombic'
loop_
_space_group_symop_operation_xyz
x,y,z
-x,-y,z
x,-y,-z
-x,y,-z
-x,-y,-z
x,y,-z
-x,y,z
x,-y,z
1/2+x,1/2+y,z
1/2-x,1/2-y,z
1/2+x,1/2-y,-z
1/2-x,1/2+y,-z
1/2-x,1/2-y,-z
1/2+x,1/2+y,-z
1/2-x,1/2+y,z
1/2+x,1/2-y,z
loop_
_atom_site_type_symbol
_atom_site_label
_atom_site_fract_x
_atom_site_fract_y
_atom_site_fract_z
Si Si1 0.339391 0.313083 0.364962
Si Si2 0.162113 0.810408 0.000000
Si Si3 0.500000 0.690550 0.431703
Si Si4 0.407176 0.677579 0.877049
Si Si5 0.335744 0.815866 0.236302
O O1 0.334615 0.500000 0.370419
O O2 0.250000 0.250000 0.378890
O O3 0.416485 0.258498 0.402096
O O4 0.357338 0.267005 0.297475
O O5 0.250000 0.750000 0.000000
O O6 0.125034 0.756928 0.938415
O O7 0.155893 0.000000 0.000000
O O8 0.500000 0.500000 0.427979
O O9 0.500000 0.735077 0.500000
O O10 0.500000 0.665908 0.884097
O O11 0.374931 0.500000 0.868209
O O12 0.389015 0.775808 0.819223
O O13 0.250000 0.750000 0.220157
O O14 0.332156 0.000000 0.247126
#
# Coordination Sequence:
#
# PCOD9490871 Si02
#       5
#    16   8   8  16  16
#     4  10  20  37  61  88 119 158 199 244 295 349
#     4  10  21  37  57  79 105 144 187 232 280 338
#     4   9  20  38  61  89 121 158 199 238 287 355
#     4  10  21  37  57  81 111 146 186 231 285 343
#     4  11  22  37  57  83 114 148 190 237 287 341
#
# _framework density 19.4284
#
# number of rings (size 3 to 8) (size 9 to 14) (size 15 to 20)
#    0.000    1.875    0.000    5.625    1.750    5.500 
#    0.000    1.875    0.000    7.500    0.000    0.000 
#    0.000    0.000    0.000    0.000    0.000    0.000 
#
# Total GULP energy -178471.128539 kJ/mol
# GULP energy per Si atom -5577.222767 kJ/mol
# Density = 1.938418 g / cm^3
# Si number density = 19.428400 Si / 1000 Ang^3
#
#
#
# Elastic Constant Matrix: (Units=GPa)
#
#
# Indices 1 2 3 4 5 6 
#
# 1 132.7100 21.0865 101.2348 0.0000 0.0000 0.0000
# 2 21.0865 40.7398 13.9860 0.0000 0.0000 0.0000
# 3 101.2348 13.9860 113.9041 0.0000 0.0000 0.0000
# 4 0.0000 0.0000 0.0000 -408.3016 0.0000 0.0000
# 5 0.0000 0.0000 0.0000 0.0000 17.2827 0.0000
# 6 0.0000 0.0000 0.0000 0.0000 0.0000 28.5265
#
#
#
# Elastic Compliance Matrix: (Units=1/GPa)
#
#
# Indices 1 2 3 4 5 6 
#
# 1 0.024501 -0.005435 -0.021108 0.000000 0.000000 0.000000
# 2 -0.005435 0.026832 0.001536 0.000000 0.000000 0.000000
# 3 -0.021108 0.001536 0.027351 0.000000 0.000000 0.000000
# 4 0.000000 0.000000 0.000000 -0.002449 0.000000 0.000000
# 5 0.000000 0.000000 0.000000 0.000000 0.057861 0.000000
# 6 0.000000 0.000000 0.000000 0.000000 0.000000 0.035055
#
#
# Mechanical properties :
#
#
# Convention : Reuss Voigt Hill
#
# Bulk Modulus (GPa) = 34.88089 62.21875 48.54982
# Shear Modulus (GPa) = 21.86059 -62.42871 -20.28406
#
# Velocity S-wave (km/s) = 3.35802 -5.67472 -3.23467
# Velocity P-wave (km/s) = 5.74696 3.29279 3.33055
#
# Compressibility (1/GPa) = 0.02866900
#
# Stress axis : x y z
#
# Youngs Moduli (GPa) = 40.81512 37.26916 36.56153
#
# Poissons Ratio (x) = 0.20255 0.77175
# Poissons Ratio (y) = 0.22182 -0.05615
# Poissons Ratio (z) = 0.86153 -0.05724
#
# Static dielectric constant tensor:
#      x y z
#    x 1.655390 0.000000 0.000000 
#    y 0.000000 1.685740 0.000000 
#    z 0.000000 0.000000 1.720410 
# 
# From -- ./inp_files/69559.got.cif
#   From: 2010.05.17/outbox.cif.g08.bks.cpg/sg65_35_cif.got.tgz:69559.got - 2010.06.03 17:01:31.
