data_PCOD9490196
_publ_section_title
;
Structure prediction by ZEFSAII (Michael W. Deem and Ramdas Pophale) SiO2 
 PCOD9490196
Probable space group: C M M M
;
_chemical_formula_sum "Si O2"
_cell_formula_units_Z 120
_cell_length_a 19.663289
_cell_length_b 21.977652
_cell_length_c 15.715173
_cell_angle_alpha 90.000000
_cell_angle_beta 90.000000
_cell_angle_gamma 90.000000
_cell_volume 6791.357945
_symmetry_space_group_name_H-M "C M M M"
_symmetry_group_IT_number 65
_symmetry_cell_setting 'orthorhombic'
loop_
_space_group_symop_operation_xyz
x,y,z
-x,-y,z
x,-y,-z
-x,y,-z
-x,-y,-z
x,y,-z
-x,y,z
x,-y,z
1/2+x,1/2+y,z
1/2-x,1/2-y,z
1/2+x,1/2-y,-z
1/2-x,1/2+y,-z
1/2-x,1/2-y,-z
1/2+x,1/2+y,-z
1/2-x,1/2+y,z
1/2+x,1/2-y,z
loop_
_atom_site_type_symbol
_atom_site_label
_atom_site_fract_x
_atom_site_fract_y
_atom_site_fract_z
Si Si1 0.670245 0.271119 0.776234
Si Si2 0.672609 0.385614 0.896584
Si Si3 0.573396 0.069911 0.350447
Si Si4 0.300002 0.691607 0.597921
Si Si5 0.077851 0.000000 0.103017
Si Si6 0.422588 0.844131 0.186973
Si Si7 0.678450 0.067543 0.898843
Si Si8 0.274494 0.067142 0.598111
O O1 0.750000 0.250000 0.779412
O O2 0.659181 0.324785 0.843965
O O3 0.653996 0.292297 0.679354
O O4 0.621971 0.215501 0.799828
O O5 0.620092 0.439531 0.874133
O O6 0.748449 0.407178 0.870907
O O7 0.670793 0.376678 0.000000
O O8 0.500000 0.077880 0.395390
O O9 0.575744 0.117657 0.274395
O O10 0.644130 0.076381 0.399255
O O11 0.573516 0.000000 0.318682
O O12 0.326425 0.683808 0.500000
O O13 0.250000 0.750000 0.592421
O O14 0.261325 0.629435 0.626957
O O15 0.000000 0.000000 0.134154
O O16 0.075683 0.000000 0.000000
O O17 0.500000 0.831403 0.161007
O O18 0.382160 0.887882 0.123725
O O19 0.667523 0.000000 0.862956
O O20 0.683202 0.062957 0.000000
O O21 0.254125 0.062609 0.500000
O O22 0.259889 0.000000 0.638130
#
# Coordination Sequence:
#
# PCOD9490196 Si02
#       8
#    16  16  16  16   8  16  16  16
#     4  11  21  35  56  81 106 148 190 226 285 342
#     4  10  20  35  56  85 114 143 185 229 273 334
#     4   9  17  29  45  66  95 135 177 215 260 321
#     4   9  18  33  52  74 104 138 181 234 283 336
#     4   9  18  36  60  84 114 146 180 232 285 324
#     4  11  23  37  51  75 111 144 182 235 280 325
#     4  10  20  36  58  81 110 149 191 233 274 328
#     4   9  17  29  46  72 103 131 165 221 282 334
#
# _framework density 17.669513999999999
#
# number of rings (size 3 to 8) (size 9 to 14) (size 15 to 20)
#    0.000    2.200    2.000    2.000    0.000    2.667 
#    1.200    2.000    0.000    1.200    0.000    0.000 
#    0.000    0.533    0.000    0.000    0.000    0.000 
#
# Total GULP energy -334032.938436 kJ/mol
# GULP energy per Si atom -5567.215641 kJ/mol
# Density = 1.762930 g / cm^3
# Si number density = 17.669514 Si / 1000 Ang^3
#
#
#
# Elastic Constant Matrix: (Units=GPa)
#
#
# Indices 1 2 3 4 5 6 
#
# 1 92.8367 51.4056 11.3723 0.0000 0.0000 0.0000
# 2 51.4056 134.5423 31.5238 0.0000 0.0000 0.0000
# 3 11.3723 31.5238 41.1323 0.0000 0.0000 0.0000
# 4 0.0000 0.0000 0.0000 7.5001 0.0000 0.0000
# 5 0.0000 0.0000 0.0000 0.0000 14.4989 0.0000
# 6 0.0000 0.0000 0.0000 0.0000 0.0000 24.9462
#
#
#
# Elastic Compliance Matrix: (Units=1/GPa)
#
#
# Indices 1 2 3 4 5 6 
#
# 1 0.013664 -0.005285 0.000272 0.000000 0.000000 0.000000
# 2 -0.005285 0.011103 -0.007048 0.000000 0.000000 0.000000
# 3 0.000272 -0.007048 0.029638 0.000000 0.000000 0.000000
# 4 0.000000 0.000000 0.000000 0.133331 0.000000 0.000000
# 5 0.000000 0.000000 0.000000 0.000000 0.068971 0.000000
# 6 0.000000 0.000000 0.000000 0.000000 0.000000 0.040086
#
#
# Mechanical properties :
#
#
# Convention : Reuss Voigt Hill
#
# Bulk Modulus (GPa) = 33.02033 50.79054 41.90543
# Shear Modulus (GPa) = 15.10525 21.00300 18.05412
#
# Velocity S-wave (km/s) = 2.92700 3.45143 3.19998
# Velocity P-wave (km/s) = 5.49103 6.68508 6.11726
#
# Compressibility (1/GPa) = 0.03028437
#
# Stress axis : x y z
#
# Youngs Moduli (GPa) = 73.18237 90.06389 33.74001
#
# Poissons Ratio (x) = 0.47596 -0.00918
# Poissons Ratio (y) = 0.38674 0.23781
# Poissons Ratio (z) = -0.01992 0.63481
#
# Static dielectric constant tensor:
#      x y z
#    x 1.603480 0.000000 0.000000 
#    y 0.000000 1.621520 0.000000 
#    z 0.000000 0.000000 1.633070 
# 
# From -- ./inp_files/44679.got.cif
#   From: 2010.05.17/outbox.cif.g08.bks.cpg/sg65_23_cif.got.tgz:44679.got - 2010.06.03 17:01:31.
