data_PCOD9490943
_publ_section_title
;
Structure prediction by ZEFSAII (Michael W. Deem and Ramdas Pophale) SiO2 
 PCOD9490943
Probable space group: C M M M
;
_chemical_formula_sum "Si O2"
_cell_formula_units_Z 100
_cell_length_a 19.883602
_cell_length_b 8.789235
_cell_length_c 30.220692
_cell_angle_alpha 90.000000
_cell_angle_beta 90.000000
_cell_angle_gamma 90.000000
_cell_volume 5281.418017
_symmetry_space_group_name_H-M "C M M M"
_symmetry_group_IT_number 65
_symmetry_cell_setting 'orthorhombic'
loop_
_space_group_symop_operation_xyz
x,y,z
-x,-y,z
x,-y,-z
-x,y,-z
-x,-y,-z
x,y,-z
-x,y,z
x,-y,z
1/2+x,1/2+y,z
1/2-x,1/2-y,z
1/2+x,1/2-y,-z
1/2-x,1/2+y,-z
1/2-x,1/2-y,-z
1/2+x,1/2+y,-z
1/2-x,1/2+y,z
1/2+x,1/2-y,z
loop_
_atom_site_type_symbol
_atom_site_label
_atom_site_fract_x
_atom_site_fract_y
_atom_site_fract_z
Si Si1 0.677186 0.683513 0.949006
Si Si2 0.576635 0.314523 0.872200
Si Si3 0.177305 0.318492 0.552299
Si Si4 0.000000 0.500000 0.737250
Si Si5 0.180969 0.818688 0.201744
Si Si6 0.578776 0.317570 0.623394
Si Si7 0.631864 0.832503 0.288120
O O1 0.681269 0.500000 0.947064
O O2 0.750000 0.750000 0.936934
O O3 0.619256 0.732774 0.915205
O O4 0.662924 0.726806 0.000000
O O5 0.500000 0.259247 0.871869
O O6 0.574531 0.500000 0.872506
O O7 0.618916 0.268524 0.829073
O O8 0.167858 0.287571 0.500000
O O9 0.178189 0.500000 0.558805
O O10 0.250000 0.250000 0.565122
O O11 0.118024 0.245441 0.580907
O O12 0.059348 0.629231 0.733026
O O13 0.250000 0.750000 0.183545
O O14 0.171354 0.761043 0.251571
O O15 0.184582 0.000000 0.200657
O O16 0.500000 0.269004 0.624266
O O17 0.580536 0.500000 0.623830
O O18 0.617010 0.251866 0.666202
O O19 0.663525 0.000000 0.296415
#
# Coordination Sequence:
#
# PCOD9490943 Si02
#       7
#    16  16  16   4  16  16  16
#     4   9  17  31  53  78 106 141 180 222 271 326
#     4   9  19  33  52  79 109 140 179 228 278 327
#     4  10  22  40  61  84 114 152 192 235 283 334
#     4   8  20  36  62  84 109 150 169 236 272 332
#     4  11  23  38  56  80 110 146 185 230 277 330
#     4  11  22  37  60  89 119 150 187 230 277 331
#     4  10  20  38  59  83 112 144 182 223 276 329
#
# _framework density 18.934308000000001
#
# number of rings (size 3 to 8) (size 9 to 14) (size 15 to 20)
#    0.480    1.600    0.800    2.400    1.120    3.200 
#    0.000    7.200    0.000    2.400    0.000    2.240 
#    0.000    0.000    0.000    0.000    0.000    0.000 
#
# Total GULP energy -278412.082157 kJ/mol
# GULP energy per Si atom -5568.241643 kJ/mol
# Density = 1.889121 g / cm^3
# Si number density = 18.934308 Si / 1000 Ang^3
#
#
#
# Elastic Constant Matrix: (Units=GPa)
#
#
# Indices 1 2 3 4 5 6 
#
# 1 123.2913 35.9737 75.9847 0.0000 0.0000 0.0000
# 2 35.9737 51.4563 41.7989 0.0000 0.0000 0.0000
# 3 75.9847 41.7989 111.2685 0.0000 0.0000 0.0000
# 4 0.0000 0.0000 0.0000 11.9280 0.0000 0.0000
# 5 0.0000 0.0000 0.0000 0.0000 25.1965 0.0000
# 6 0.0000 0.0000 0.0000 0.0000 0.0000 32.4673
#
#
#
# Elastic Compliance Matrix: (Units=1/GPa)
#
#
# Indices 1 2 3 4 5 6 
#
# 1 0.014315 -0.002975 -0.008658 0.000000 0.000000 0.000000
# 2 -0.002975 0.028587 -0.008708 0.000000 0.000000 0.000000
# 3 -0.008658 -0.008708 0.018171 0.000000 0.000000 0.000000
# 4 0.000000 0.000000 0.000000 0.083837 0.000000 0.000000
# 5 0.000000 0.000000 0.000000 0.000000 0.039688 0.000000
# 6 0.000000 0.000000 0.000000 0.000000 0.000000 0.030800
#
#
# Mechanical properties :
#
#
# Convention : Reuss Voigt Hill
#
# Bulk Modulus (GPa) = 49.03851 65.94787 57.49319
# Shear Modulus (GPa) = 19.02045 22.73561 20.87803
#
# Velocity S-wave (km/s) = 3.17290 3.46896 3.32423
# Velocity P-wave (km/s) = 6.27524 7.13795 6.72045
#
# Compressibility (1/GPa) = 0.02039214
#
# Stress axis : x y z
#
# Youngs Moduli (GPa) = 69.85790 34.98115 55.03303
#
# Poissons Ratio (x) = 0.10405 0.47648
# Poissons Ratio (y) = 0.20779 0.47920
# Poissons Ratio (z) = 0.60484 0.30460
#
# Static dielectric constant tensor:
#      x y z
#    x 1.647360 0.000000 0.000000 
#    y 0.000000 1.670100 0.000000 
#    z 0.000000 0.000000 1.654090 
# 
# From -- ./inp_files/75514.got.cif
#   From: 2010.05.17/outbox.cif.g08.bks.cpg/sg65_38_cif.got.tgz:75514.got - 2010.06.03 17:01:31.
