data_PCOD9490816
_publ_section_title
;
Structure prediction by ZEFSAII (Michael W. Deem and Ramdas Pophale) SiO2 
 PCOD9490816
Probable space group: C M M M
;
_chemical_formula_sum "Si O2"
_cell_formula_units_Z 88
_cell_length_a 11.380731
_cell_length_b 16.952932
_cell_length_c 23.831840
_cell_angle_alpha 90.000000
_cell_angle_beta 90.000000
_cell_angle_gamma 90.000000
_cell_volume 4598.037965
_symmetry_space_group_name_H-M "C M M M"
_symmetry_group_IT_number 65
_symmetry_cell_setting 'orthorhombic'
loop_
_space_group_symop_operation_xyz
x,y,z
-x,-y,z
x,-y,-z
-x,y,-z
-x,-y,-z
x,y,-z
-x,y,z
x,-y,z
1/2+x,1/2+y,z
1/2-x,1/2-y,z
1/2+x,1/2-y,-z
1/2-x,1/2+y,-z
1/2-x,1/2-y,-z
1/2+x,1/2+y,-z
1/2-x,1/2+y,z
1/2+x,1/2-y,z
loop_
_atom_site_type_symbol
_atom_site_label
_atom_site_fract_x
_atom_site_fract_y
_atom_site_fract_z
Si Si1 0.364672 0.192041 0.876086
Si Si2 0.253846 0.904925 0.219587
Si Si3 0.500000 0.404090 0.243326
Si Si4 0.869574 0.594703 0.333600
Si Si5 0.866892 0.304208 0.000000
Si Si6 0.000000 0.095710 0.375213
Si Si7 0.234474 0.156025 0.435857
O O1 0.500000 0.223350 0.869890
O O2 0.250000 0.250000 0.873818
O O3 0.339045 0.131489 0.826225
O O4 0.361143 0.154882 0.939108
O O5 0.118786 0.879182 0.212644
O O6 0.287217 0.879248 0.282698
O O7 0.260217 0.000000 0.217344
O O8 0.500000 0.500000 0.244105
O O9 0.500000 0.381429 0.309280
O O10 0.865765 0.500000 0.334013
O O11 0.832686 0.622877 0.394509
O O12 0.000000 0.621633 0.319950
O O13 0.750000 0.250000 0.000000
O O14 0.000000 0.266035 0.000000
O O15 0.113335 0.129111 0.407061
O O16 0.000000 0.000000 0.377611
O O17 0.240577 0.127463 0.500000
O O18 0.250000 0.250000 0.436466
#
# Coordination Sequence:
#
# PCOD9490816 Si02
#       7
#    16  16   8  16   8   8  16
#     4  10  21  36  58  87 118 155 196 241 286 342
#     4  10  20  37  59  84 116 150 189 238 296 349
#     4   9  18  35  60  84 112 150 189 241 295 343
#     4  10  21  38  59  80 107 148 192 230 277 350
#     4   8  16  34  55  79 114 154 196 235 282 335
#     4  11  21  42  69  88 106 148 208 247 283 354
#     4  11  25  40  57  84 118 148 180 237 304 352
#
# _framework density 19.138597000000001
#
# number of rings (size 3 to 8) (size 9 to 14) (size 15 to 20)
#    0.000    2.000    1.818    1.364    2.545    4.000 
#    0.000    1.364    0.000    1.636    0.000    1.909 
#    0.000    0.000    0.000    0.000    0.000    0.000 
#
# Total GULP energy -245073.530534 kJ/mol
# GULP energy per Si atom -5569.852967 kJ/mol
# Density = 1.909504 g / cm^3
# Si number density = 19.138597 Si / 1000 Ang^3
#
#
#
# Elastic Constant Matrix: (Units=GPa)
#
#
# Indices 1 2 3 4 5 6 
#
# 1 115.1706 23.7893 31.4078 0.0000 0.0000 0.0000
# 2 23.7893 14.9652 18.8171 0.0000 0.0000 0.0000
# 3 31.4078 18.8171 110.0921 0.0000 0.0000 0.0000
# 4 0.0000 0.0000 0.0000 28.2348 0.0000 0.0000
# 5 0.0000 0.0000 0.0000 0.0000 33.8819 0.0000
# 6 0.0000 0.0000 0.0000 0.0000 0.0000 25.3666
#
#
#
# Elastic Compliance Matrix: (Units=1/GPa)
#
#
# Indices 1 2 3 4 5 6 
#
# 1 0.012932 -0.020276 -0.000224 0.000000 0.000000 0.000000
# 2 -0.020276 0.116904 -0.014197 0.000000 0.000000 0.000000
# 3 -0.000224 -0.014197 0.011574 0.000000 0.000000 0.000000
# 4 0.000000 0.000000 0.000000 0.035417 0.000000 0.000000
# 5 0.000000 0.000000 0.000000 0.000000 0.029514 0.000000
# 6 0.000000 0.000000 0.000000 0.000000 0.000000 0.039422
#
#
# Mechanical properties :
#
#
# Convention : Reuss Voigt Hill
#
# Bulk Modulus (GPa) = 13.88565 43.13959 28.51262
# Shear Modulus (GPa) = 14.74223 28.57759 21.65991
#
# Velocity S-wave (km/s) = 2.77842 3.86838 3.36778
# Velocity P-wave (km/s) = 4.19093 6.52242 5.48206
#
# Compressibility (1/GPa) = 0.07201678
#
# Stress axis : x y z
#
# Youngs Moduli (GPa) = 77.32818 8.55401 86.40285
#
# Poissons Ratio (x) = 0.17344 0.01933
# Poissons Ratio (y) = 1.56789 1.22666
# Poissons Ratio (z) = 0.01730 0.12144
#
# Static dielectric constant tensor:
#      x y z
#    x 1.701400 0.000000 0.000000 
#    y 0.000000 1.643680 0.000000 
#    z 0.000000 0.000000 1.652370 
# 
# From -- ./inp_files/61498.got.cif
#   From: 2010.05.17/outbox.cif.g08.bks.cpg/sg65_31_cif.got.tgz:61498.got - 2010.06.03 17:01:31.
