data_PCOD9490207
_publ_section_title
;
Structure prediction by ZEFSAII (Michael W. Deem and Ramdas Pophale) SiO2 
 PCOD9490207
Probable space group: C M M M
;
_chemical_formula_sum "Si O2"
_cell_formula_units_Z 96
_cell_length_a 22.726973
_cell_length_b 26.952635
_cell_length_c 8.815842
_cell_angle_alpha 90.000000
_cell_angle_beta 90.000000
_cell_angle_gamma 90.000000
_cell_volume 5400.159955
_symmetry_space_group_name_H-M "C M M M"
_symmetry_group_IT_number 65
_symmetry_cell_setting 'orthorhombic'
loop_
_space_group_symop_operation_xyz
x,y,z
-x,-y,z
x,-y,-z
-x,y,-z
-x,-y,-z
x,y,-z
-x,y,z
x,-y,z
1/2+x,1/2+y,z
1/2-x,1/2-y,z
1/2+x,1/2-y,-z
1/2-x,1/2+y,-z
1/2-x,1/2-y,-z
1/2+x,1/2+y,-z
1/2-x,1/2+y,z
1/2+x,1/2-y,z
loop_
_atom_site_type_symbol
_atom_site_label
_atom_site_fract_x
_atom_site_fract_y
_atom_site_fract_z
Si Si1 0.199998 0.862472 0.319265
Si Si2 0.768666 0.440988 0.826003
Si Si3 0.603028 0.941811 0.318212
Si Si4 0.000000 0.626126 0.817980
Si Si5 0.114934 0.219498 0.822463
Si Si6 0.801667 0.709268 0.331233
Si Si7 0.500000 0.762742 0.320526
O O1 0.190833 0.861866 0.500000
O O2 0.211768 0.916301 0.252149
O O3 0.151480 0.827466 0.241816
O O4 0.264471 0.838376 0.288682
O O5 0.761085 0.500000 0.826684
O O6 0.830788 0.432484 0.740451
O O7 0.773407 0.423380 0.000000
O O8 0.600926 0.935946 0.500000
O O9 0.556764 0.904305 0.242744
O O10 0.588600 0.000000 0.283499
O O11 0.000000 0.682752 0.757124
O O12 0.000000 0.626881 0.000000
O O13 0.154018 0.268597 0.789085
O O14 0.056003 0.230971 0.732162
O O15 0.104401 0.213514 0.000000
O O16 0.828854 0.703789 0.500000
O O17 0.750000 0.750000 0.345019
O O18 0.500000 0.769937 0.500000
#
# Coordination Sequence:
#
# PCOD9490207 Si02
#       7
#    16  16  16   8  16  16   8
#     4  10  20  35  57  81 109 146 185 221 271 335
#     4  10  21  36  55  83 116 146 182 233 284 326
#     4  10  21  38  58  79 107 146 190 233 281 337
#     4  12  25  39  56  79 106 143 191 240 285 326
#     4  11  22  37  56  81 110 140 181 228 277 327
#     4   8  16  31  50  74 104 138 177 217 261 318
#     4  12  26  43  59  76 109 148 188 232 277 330
#
# _framework density 17.777251
#
# number of rings (size 3 to 8) (size 9 to 14) (size 15 to 20)
#    0.000    1.833    0.000    5.750    2.333    6.667 
#    0.000    0.000    0.000    0.000    0.000    0.583 
#    0.000    4.667    0.000    0.000    0.000    0.000 
#
# Total GULP energy -267820.359235 kJ/mol
# GULP energy per Si atom -5579.590817 kJ/mol
# Density = 1.773679 g / cm^3
# Si number density = 17.777251 Si / 1000 Ang^3
#
#
#
# Elastic Constant Matrix: (Units=GPa)
#
#
# Indices 1 2 3 4 5 6 
#
# 1 74.3916 48.6652 54.4212 0.0000 0.0000 0.0000
# 2 48.6652 74.6123 43.8385 0.0000 0.0000 0.0000
# 3 54.4212 43.8385 120.6819 0.0000 0.0000 0.0000
# 4 0.0000 0.0000 0.0000 26.7791 0.0000 0.0000
# 5 0.0000 0.0000 0.0000 0.0000 25.1454 0.0000
# 6 0.0000 0.0000 0.0000 0.0000 0.0000 27.5388
#
#
#
# Elastic Compliance Matrix: (Units=1/GPa)
#
#
# Indices 1 2 3 4 5 6 
#
# 1 0.028072 -0.013822 -0.007638 0.000000 0.000000 0.000000
# 2 -0.013822 0.023845 -0.002429 0.000000 0.000000 0.000000
# 3 -0.007638 -0.002429 0.012613 0.000000 0.000000 0.000000
# 4 0.000000 0.000000 0.000000 0.037343 0.000000 0.000000
# 5 0.000000 0.000000 0.000000 0.000000 0.039769 0.000000
# 6 0.000000 0.000000 0.000000 0.000000 0.000000 0.036312
#
#
# Mechanical properties :
#
#
# Convention : Reuss Voigt Hill
#
# Bulk Modulus (GPa) = 59.69410 62.61508 61.15459
# Shear Modulus (GPa) = 21.61550 24.07672 22.84611
#
# Velocity S-wave (km/s) = 3.49077 3.68415 3.58876
# Velocity P-wave (km/s) = 7.06393 7.30724 7.18662
#
# Compressibility (1/GPa) = 0.01675207
#
# Stress axis : x y z
#
# Youngs Moduli (GPa) = 35.62262 41.93756 79.28376
#
# Poissons Ratio (x) = 0.57966 0.60558
# Poissons Ratio (y) = 0.49238 0.19257
# Poissons Ratio (z) = 0.27209 0.10186
#
# Static dielectric constant tensor:
#      x y z
#    x 1.616060 0.000000 0.000000 
#    y 0.000000 1.679310 0.000000 
#    z 0.000000 0.000000 1.608140 
# 
# From -- ./inp_files/14664.got.cif
#   From: 2010.05.17/outbox.cif.g08.bks.cpg/sg65_8_cif.got.tgz:14664.got - 2010.06.03 17:01:31.
