data_PCOD9490393
_publ_section_title
;
Structure prediction by ZEFSAII (Michael W. Deem and Ramdas Pophale) SiO2 
 PCOD9490393
Probable space group: C M M M
;
_chemical_formula_sum "Si O2"
_cell_formula_units_Z 88
_cell_length_a 15.211077
_cell_length_b 14.581711
_cell_length_c 20.341816
_cell_angle_alpha 90.000000
_cell_angle_beta 90.000000
_cell_angle_gamma 90.000000
_cell_volume 4511.886571
_symmetry_space_group_name_H-M "C M M M"
_symmetry_group_IT_number 65
_symmetry_cell_setting 'orthorhombic'
loop_
_space_group_symop_operation_xyz
x,y,z
-x,-y,z
x,-y,-z
-x,y,-z
-x,-y,-z
x,y,-z
-x,y,z
x,-y,z
1/2+x,1/2+y,z
1/2-x,1/2-y,z
1/2+x,1/2-y,-z
1/2-x,1/2+y,-z
1/2-x,1/2-y,-z
1/2+x,1/2+y,-z
1/2-x,1/2+y,z
1/2+x,1/2-y,z
loop_
_atom_site_type_symbol
_atom_site_label
_atom_site_fract_x
_atom_site_fract_y
_atom_site_fract_z
Si Si1 0.607362 0.797202 0.425933
Si Si2 0.669098 0.102380 0.206586
Si Si3 0.500000 0.100388 0.887195
Si Si4 0.396027 0.266705 0.709136
Si Si5 0.099381 0.500000 0.579746
Si Si6 0.862655 0.893271 0.171246
Si Si7 0.500000 0.303514 0.074313
O O1 0.637381 0.775486 0.500000
O O2 0.500000 0.802308 0.429140
O O3 0.629559 0.727759 0.367351
O O4 0.638214 0.899995 0.405450
O O5 0.585194 0.104455 0.159458
O O6 0.656873 0.183156 0.258307
O O7 0.757866 0.116344 0.165267
O O8 0.674114 0.000000 0.236804
O O9 0.500000 0.193487 0.927617
O O10 0.500000 0.000000 0.920134
O O11 0.500000 0.243199 0.711729
O O12 0.383403 0.353245 0.756414
O O13 0.092851 0.500000 0.500000
O O14 0.000000 0.500000 0.607896
O O15 0.916883 0.837677 0.117061
O O16 0.886207 0.000000 0.166778
O O17 0.500000 0.339980 0.000000
#
# Coordination Sequence:
#
# PCOD9490393 Si02
#       7
#    16  16   8  16   8  16   8
#     4   8  15  25  41  73 112 149 193 238 286 346
#     4  10  20  35  60  88 120 154 191 239 289 346
#     4  10  20  40  63  92 126 153 182 221 279 357
#     4  11  19  31  57  85 116 157 195 242 301 346
#     4   7  10  20  34  58 104 148 178 225 284 335
#     4  11  23  40  60  85 117 153 199 249 289 334
#     4  12  25  43  68  93 117 152 193 240 290 338
#
# _framework density 19.504035999999999
#
# number of rings (size 3 to 8) (size 9 to 14) (size 15 to 20)
#    0.000    2.091    3.636    1.909    1.273    0.909 
#    0.000    1.818    0.000    6.000    0.000    5.091 
#    0.000    0.000    0.000    0.000    0.000    0.000 
#
# Total GULP energy -245316.144556 kJ/mol
# GULP energy per Si atom -5575.366922 kJ/mol
# Density = 1.945964 g / cm^3
# Si number density = 19.504036 Si / 1000 Ang^3
#
#
#
# Elastic Constant Matrix: (Units=GPa)
#
#
# Indices 1 2 3 4 5 6 
#
# 1 89.5774 22.1817 30.0519 0.0000 0.0000 0.0000
# 2 22.1817 97.7726 50.2412 0.0000 0.0000 0.0000
# 3 30.0519 50.2412 116.1670 0.0000 0.0000 0.0000
# 4 0.0000 0.0000 0.0000 7.6810 0.0000 0.0000
# 5 0.0000 0.0000 0.0000 0.0000 -3.2188 0.0000
# 6 0.0000 0.0000 0.0000 0.0000 0.0000 17.6752
#
#
#
# Elastic Compliance Matrix: (Units=1/GPa)
#
#
# Indices 1 2 3 4 5 6 
#
# 1 0.012393 -0.001497 -0.002559 0.000000 0.000000 0.000000
# 2 -0.001497 0.013331 -0.005378 0.000000 0.000000 0.000000
# 3 -0.002559 -0.005378 0.011596 0.000000 0.000000 0.000000
# 4 0.000000 0.000000 0.000000 0.130192 0.000000 0.000000
# 5 0.000000 0.000000 0.000000 0.000000 -0.310672 0.000000
# 6 0.000000 0.000000 0.000000 0.000000 0.000000 0.056577
#
#
# Mechanical properties :
#
#
# Convention : Reuss Voigt Hill
#
# Bulk Modulus (GPa) = 54.19313 56.49627 55.34470
# Shear Modulus (GPa) = -81.21491 17.83028 -31.69232
#
# Velocity S-wave (km/s) = -6.45991 3.02683 -4.03539
# Velocity P-wave (km/s) = 5.27207 6.42222 2.59328
#
# Compressibility (1/GPa) = 0.01845252
#
# Stress axis : x y z
#
# Youngs Moduli (GPa) = 80.69387 75.01256 86.23449
#
# Poissons Ratio (x) = 0.11228 0.22064
# Poissons Ratio (y) = 0.12078 0.46380
# Poissons Ratio (z) = 0.20646 0.40345
#
# Static dielectric constant tensor:
#      x y z
#    x 1.713280 0.000000 0.000000 
#    y 0.000000 1.711560 0.000000 
#    z 0.000000 0.000000 1.681390 
# 
# From -- ./inp_files/62515.got.cif
#   From: 2010.05.17/outbox.cif.g08.bks.cpg/sg65_32_cif.got.tgz:62515.got - 2010.06.03 17:01:31.
