data_PCOD9490724
_publ_section_title
;
Structure prediction by ZEFSAII (Michael W. Deem and Ramdas Pophale) SiO2 
 PCOD9490724
Probable space group: C M M M
;
_chemical_formula_sum "Si O2"
_cell_formula_units_Z 64
_cell_length_a 17.036887
_cell_length_b 12.419620
_cell_length_c 15.814646
_cell_angle_alpha 90.000000
_cell_angle_beta 90.000000
_cell_angle_gamma 90.000000
_cell_volume 3346.247239
_symmetry_space_group_name_H-M "C M M M"
_symmetry_group_IT_number 65
_symmetry_cell_setting 'orthorhombic'
loop_
_space_group_symop_operation_xyz
x,y,z
-x,-y,z
x,-y,-z
-x,y,-z
-x,-y,-z
x,y,-z
-x,y,z
x,-y,z
1/2+x,1/2+y,z
1/2-x,1/2-y,z
1/2+x,1/2-y,-z
1/2-x,1/2+y,-z
1/2-x,1/2-y,-z
1/2+x,1/2+y,-z
1/2-x,1/2+y,z
1/2+x,1/2-y,z
loop_
_atom_site_type_symbol
_atom_site_label
_atom_site_fract_x
_atom_site_fract_y
_atom_site_fract_z
Si Si1 0.157827 0.771507 0.651677
Si Si2 0.904195 0.124590 0.000000
Si Si3 0.093953 0.624327 0.500000
Si Si4 0.904433 0.500000 0.903049
Si Si5 0.089639 0.000000 0.600684
Si Si6 0.095090 0.268092 0.161195
O O1 0.250000 0.750000 0.649830
O O2 0.120743 0.689387 0.583275
O O3 0.126224 0.757868 0.746442
O O4 0.134610 0.892337 0.626225
O O5 0.879892 0.188574 0.915066
O O6 0.000000 0.125280 0.000000
O O7 0.878861 0.000000 0.000000
O O8 0.122548 0.500000 0.500000
O O9 0.000000 0.622256 0.500000
O O10 0.879238 0.389502 0.860500
O O11 0.000000 0.500000 0.902562
O O12 0.879216 0.500000 0.000000
O O13 0.083785 0.000000 0.500000
O O14 0.000000 0.000000 0.635488
O O15 0.000000 0.265190 0.162831
#
# Coordination Sequence:
#
# PCOD9490724 Si02
#       6
#    16   8   8   8   8  16
#     4  12  27  42  65  95 135 171 213 264 329 391
#     4   9  18  33  56  87 121 160 211 274 324 370
#     4  11  25  45  69  95 127 163 211 269 325 383
#     4   9  16  31  58  87 115 154 205 262 313 364
#     4  11  24  45  72  95 125 174 230 269 310 387
#     4  10  20  36  60  89 122 162 215 267 318 379
#
# _framework density 19.125902
#
# number of rings (size 3 to 8) (size 9 to 14) (size 15 to 20)
#    0.000    1.500    2.500    2.625    5.250    0.000 
#    0.000    0.625    0.000    0.000    0.000    0.000 
#    0.000    0.000    0.000    0.000    0.000    0.000 
#
# Total GULP energy -178737.550479 kJ/mol
# GULP energy per Si atom -5585.548452 kJ/mol
# Density = 1.908237 g / cm^3
# Si number density = 19.125902 Si / 1000 Ang^3
#
#
#
# Elastic Constant Matrix: (Units=GPa)
#
#
# Indices 1 2 3 4 5 6 
#
# 1 63.6907 55.0566 39.3014 0.0000 0.0000 0.0000
# 2 55.0566 226.4621 113.2195 0.0000 0.0000 0.0000
# 3 39.3014 113.2195 187.6457 0.0000 0.0000 0.0000
# 4 0.0000 0.0000 0.0000 9.5528 0.0000 0.0000
# 5 0.0000 0.0000 0.0000 0.0000 -163.2663 0.0000
# 6 0.0000 0.0000 0.0000 0.0000 0.0000 31.2248
#
#
#
# Elastic Compliance Matrix: (Units=1/GPa)
#
#
# Indices 1 2 3 4 5 6 
#
# 1 0.020306 -0.004024 -0.001825 0.000000 0.000000 0.000000
# 2 -0.004024 0.007121 -0.003454 0.000000 0.000000 0.000000
# 3 -0.001825 -0.003454 0.007795 0.000000 0.000000 0.000000
# 4 0.000000 0.000000 0.000000 0.104682 0.000000 0.000000
# 5 0.000000 0.000000 0.000000 0.000000 -0.006125 0.000000
# 6 0.000000 0.000000 0.000000 0.000000 0.000000 0.032026
#
#
# Mechanical properties :
#
#
# Convention : Reuss Voigt Hill
#
# Bulk Modulus (GPa) = 60.18206 99.21708 79.69957
# Shear Modulus (GPa) = 26.32295 -6.48301 9.91997
#
# Velocity S-wave (km/s) = 3.71387 -1.84310 2.27990
# Velocity P-wave (km/s) = 7.06577 6.88905 6.97797
#
# Compressibility (1/GPa) = 0.01661625
#
# Stress axis : x y z
#
# Youngs Moduli (GPa) = 49.24727 140.43498 128.28517
#
# Poissons Ratio (x) = 0.56516 0.23409
# Poissons Ratio (y) = 0.19819 0.44304
# Poissons Ratio (z) = 0.08986 0.48500
#
# Static dielectric constant tensor:
#      x y z
#    x 1.653210 0.000000 0.000000 
#    y 0.000000 1.731420 0.000000 
#    z 0.000000 0.000000 1.686060 
# 
# From -- ./inp_files/37844.got.cif
#   From: 2010.05.17/outbox.cif.g08.bks.cpg/sg65_19_cif.got.tgz:37844.got - 2010.06.03 17:01:31.
