data_PCOD9490192
_publ_section_title
;
Structure prediction by ZEFSAII (Michael W. Deem and Ramdas Pophale) SiO2 
 PCOD9490192
Probable space group: C M M M
;
_chemical_formula_sum "Si O2"
_cell_formula_units_Z 88
_cell_length_a 13.637135
_cell_length_b 21.949827
_cell_length_c 13.527585
_cell_angle_alpha 90.000000
_cell_angle_beta 90.000000
_cell_angle_gamma 90.000000
_cell_volume 4049.249273
_symmetry_space_group_name_H-M "C M M M"
_symmetry_group_IT_number 65
_symmetry_cell_setting 'orthorhombic'
loop_
_space_group_symop_operation_xyz
x,y,z
-x,-y,z
x,-y,-z
-x,y,-z
-x,-y,-z
x,y,-z
-x,y,z
x,-y,z
1/2+x,1/2+y,z
1/2-x,1/2-y,z
1/2+x,1/2-y,-z
1/2-x,1/2+y,-z
1/2-x,1/2-y,-z
1/2+x,1/2+y,-z
1/2-x,1/2+y,z
1/2+x,1/2-y,z
loop_
_atom_site_type_symbol
_atom_site_label
_atom_site_fract_x
_atom_site_fract_y
_atom_site_fract_z
Si Si1 0.384743 0.187207 0.391962
Si Si2 0.110056 0.097697 0.382430
Si Si3 0.232532 0.878333 0.883392
Si Si4 0.886343 0.213412 0.243255
Si Si5 0.318431 0.931400 0.701655
Si Si6 0.393782 0.500000 0.117155
O O1 0.341998 0.202401 0.500000
O O2 0.500000 0.201090 0.396043
O O3 0.349354 0.225606 0.297376
O O4 0.369917 0.116049 0.370955
O O5 0.120799 0.100996 0.500000
O O6 0.112950 0.163959 0.331894
O O7 0.205673 0.065940 0.337572
O O8 0.000000 0.073098 0.362893
O O9 0.178015 0.818148 0.842338
O O10 0.319027 0.898908 0.809483
O O11 0.160642 0.936443 0.865736
O O12 0.255001 0.873984 0.000000
O O13 0.000000 0.220990 0.209509
O O14 0.356800 0.000000 0.705530
O O15 0.500000 0.500000 0.164699
O O16 0.404297 0.500000 0.000000
#
# Coordination Sequence:
#
# PCOD9490192 Si02
#       6
#    16  16  16  16  16   8
#     4  10  22  41  64  86 110 146 196 256 315 361
#     4   9  18  32  51  78 114 153 186 222 279 356
#     4  10  20  35  56  84 118 158 193 229 283 342
#     4   9  18  34  56  84 115 147 190 242 292 346
#     4  11  23  38  56  84 116 153 198 247 297 349
#     4   9  16  28  50  80 112 151 194 226 262 323
#
# _framework density 21.732423000000001
#
# number of rings (size 3 to 8) (size 9 to 14) (size 15 to 20)
#    0.000    2.273    0.909    1.636    0.000    9.091 
#    0.000    8.182    0.000    1.636    0.000    1.273 
#    0.000    0.000    0.000    0.000    0.000    0.000 
#
# Total GULP energy -245399.141884 kJ/mol
# GULP energy per Si atom -5577.253225 kJ/mol
# Density = 2.168296 g / cm^3
# Si number density = 21.732423 Si / 1000 Ang^3
#
#
#
# Elastic Constant Matrix: (Units=GPa)
#
#
# Indices 1 2 3 4 5 6 
#
# 1 22.4857 4.8041 5.1963 0.0000 0.0000 0.0000
# 2 4.8041 110.4607 16.3605 0.0000 0.0000 0.0000
# 3 5.1963 16.3605 117.2256 0.0000 0.0000 0.0000
# 4 0.0000 0.0000 0.0000 136.2915 0.0000 0.0000
# 5 0.0000 0.0000 0.0000 0.0000 18.7208 0.0000
# 6 0.0000 0.0000 0.0000 0.0000 0.0000 -664.5798
#
#
#
# Elastic Compliance Matrix: (Units=1/GPa)
#
#
# Indices 1 2 3 4 5 6 
#
# 1 0.045246 -0.001706 -0.001768 0.000000 0.000000 0.000000
# 2 -0.001706 0.009308 -0.001223 0.000000 0.000000 0.000000
# 3 -0.001768 -0.001223 0.008780 0.000000 0.000000 0.000000
# 4 0.000000 0.000000 0.000000 0.007337 0.000000 0.000000
# 5 0.000000 0.000000 0.000000 0.000000 0.053417 0.000000
# 6 0.000000 0.000000 0.000000 0.000000 0.000000 -0.001505
#
#
# Mechanical properties :
#
#
# Convention : Reuss Voigt Hill
#
# Bulk Modulus (GPa) = 18.53924 33.65488 26.09706
# Shear Modulus (GPa) = 33.34293 -86.99276 -26.82492
#
# Velocity S-wave (km/s) = 3.92120 -6.33371 -3.51711
# Velocity P-wave (km/s) = 5.38983 6.16184 2.11163
#
# Compressibility (1/GPa) = 0.05393963
#
# Stress axis : x y z
#
# Youngs Moduli (GPa) = 22.10155 107.42975 113.89958
#
# Poissons Ratio (x) = 0.18328 0.20132
# Poissons Ratio (y) = 0.03771 0.13936
# Poissons Ratio (z) = 0.03907 0.13144
#
# Static dielectric constant tensor:
#      x y z
#    x 1.901560 0.000000 0.000000 
#    y 0.000000 1.859640 0.000000 
#    z 0.000000 0.000000 1.787730 
# 
# From -- ./inp_files/40157.got.cif
#   From: 2010.05.17/outbox.cif.g08.bks.cpg/sg65_21_cif.got.tgz:40157.got - 2010.06.03 17:01:31.
