data_PCOD9490372
_publ_section_title
;
Structure prediction by ZEFSAII (Michael W. Deem and Ramdas Pophale) SiO2 
 PCOD9490372
Probable space group: C M M M
;
_chemical_formula_sum "Si O2"
_cell_formula_units_Z 90
_cell_length_a 8.841033
_cell_length_b 23.783765
_cell_length_c 22.858253
_cell_angle_alpha 90.000000
_cell_angle_beta 90.000000
_cell_angle_gamma 90.000000
_cell_volume 4806.474604
_symmetry_space_group_name_H-M "C M M M"
_symmetry_group_IT_number 65
_symmetry_cell_setting 'orthorhombic'
loop_
_space_group_symop_operation_xyz
x,y,z
-x,-y,z
x,-y,-z
-x,y,-z
-x,-y,-z
x,y,-z
-x,y,z
x,-y,z
1/2+x,1/2+y,z
1/2-x,1/2-y,z
1/2+x,1/2-y,-z
1/2-x,1/2+y,-z
1/2-x,1/2-y,-z
1/2+x,1/2+y,-z
1/2-x,1/2+y,z
1/2+x,1/2-y,z
loop_
_atom_site_type_symbol
_atom_site_label
_atom_site_fract_x
_atom_site_fract_y
_atom_site_fract_z
Si Si1 0.170272 0.627201 0.892981
Si Si2 0.320799 0.688408 0.214231
Si Si3 0.316597 0.434149 0.564311
Si Si4 0.317990 0.000000 0.235118
Si Si5 0.677973 0.688747 0.000000
Si Si6 0.318739 0.601002 0.309630
Si Si7 0.000000 0.000000 0.000000
Si Si8 0.747650 0.000000 0.104342
O O1 0.243815 0.646622 0.832343
O O2 0.268198 0.654650 0.943770
O O3 0.167725 0.560286 0.901392
O O4 0.000000 0.649375 0.896243
O O5 0.500000 0.691051 0.202520
O O6 0.250000 0.750000 0.209102
O O7 0.297044 0.660317 0.277577
O O8 0.262550 0.415237 0.500000
O O9 0.500000 0.432212 0.562803
O O10 0.275466 0.500000 0.571420
O O11 0.270426 0.401584 0.622670
O O12 0.271240 0.946010 0.273243
O O13 0.500000 0.000000 0.222201
O O14 0.221097 0.000000 0.174761
O O15 0.750000 0.750000 0.000000
O O16 0.500000 0.693868 0.000000
O O17 0.500000 0.587801 0.306575
O O18 0.870944 0.000000 0.947185
#
# Coordination Sequence:
#
# PCOD9490372 Si02
#       8
#    16  16  16   8   8  16   2   8
#     4  12  25  44  68  92 123 155 193 242 301 366
#     4  11  24  40  61  88 118 156 202 254 309 362
#     4   8  13  24  48  84 122 156 198 252 302 351
#     4  12  23  37  60  93 126 159 192 243 308 367
#     4  12  27  47  68  90 116 153 200 246 297 353
#     4  10  20  35  59  88 119 161 206 250 300 362
#     4  12  32  44  66  92 128 164 204 244 284 350
#     4  12  28  44  68  94 128 160 199 237 307 362
#
# _framework density 18.724743
#
# number of rings (size 3 to 8) (size 9 to 14) (size 15 to 20)
#    0.000    1.244    2.667    4.533    4.978    0.711 
#    0.000    2.444    0.000    1.600    0.000    0.000 
#    0.000    0.000    0.000    0.000    0.000    0.178 
#
# Total GULP energy -250874.656636 kJ/mol
# GULP energy per Si atom -5574.992370 kJ/mol
# Density = 1.868212 g / cm^3
# Si number density = 18.724743 Si / 1000 Ang^3
#
#
#
# Elastic Constant Matrix: (Units=GPa)
#
#
# Indices 1 2 3 4 5 6 
#
# 1 93.7527 40.0723 48.5158 0.0000 0.0000 0.0000
# 2 40.0723 104.9554 38.0494 0.0000 0.0000 0.0000
# 3 48.5158 38.0494 167.0982 0.0000 0.0000 0.0000
# 4 0.0000 0.0000 0.0000 3.0970 0.0000 0.0000
# 5 0.0000 0.0000 0.0000 0.0000 6.0626 0.0000
# 6 0.0000 0.0000 0.0000 0.0000 0.0000 -6.4819
#
#
#
# Elastic Compliance Matrix: (Units=1/GPa)
#
#
# Indices 1 2 3 4 5 6 
#
# 1 0.014101 -0.004250 -0.003126 0.000000 0.000000 0.000000
# 2 -0.004250 0.011666 -0.001422 0.000000 0.000000 0.000000
# 3 -0.003126 -0.001422 0.007216 0.000000 0.000000 0.000000
# 4 0.000000 0.000000 0.000000 0.322889 0.000000 0.000000
# 5 0.000000 0.000000 0.000000 0.000000 0.164946 0.000000
# 6 0.000000 0.000000 0.000000 0.000000 0.000000 -0.154275
#
#
# Mechanical properties :
#
#
# Convention : Reuss Voigt Hill
#
# Bulk Modulus (GPa) = 64.99773 68.78681 66.89227
# Shear Modulus (GPa) = 12.84457 16.48013 14.66235
#
# Velocity S-wave (km/s) = 2.62194 2.96991 2.80133
# Velocity P-wave (km/s) = 6.62976 6.96965 6.80183
#
# Compressibility (1/GPa) = 0.01538515
#
# Stress axis : x y z
#
# Youngs Moduli (GPa) = 70.91754 85.71664 138.57929
#
# Poissons Ratio (x) = 0.36433 0.43323
# Poissons Ratio (y) = 0.30143 0.19712
# Poissons Ratio (z) = 0.22171 0.12193
#
# Static dielectric constant tensor:
#      x y z
#    x 1.566360 0.000000 0.000000 
#    y 0.000000 1.632980 0.000000 
#    z 0.000000 0.000000 1.668640 
# 
# From -- ./inp_files/59952.got.cif
#   From: 2010.05.17/outbox.cif.g08.bks.cpg/sg65_30_cif.got.tgz:59952.got - 2010.06.03 17:01:31.
