data_PCOD9490539
_publ_section_title
;
Structure prediction by ZEFSAII (Michael W. Deem and Ramdas Pophale) SiO2 
 PCOD9490539
Probable space group: C M M M
;
_chemical_formula_sum "Si O2"
_cell_formula_units_Z 72
_cell_length_a 21.852944
_cell_length_b 19.977950
_cell_length_c 7.604638
_cell_angle_alpha 90.000000
_cell_angle_beta 90.000000
_cell_angle_gamma 90.000000
_cell_volume 3320.010216
_symmetry_space_group_name_H-M "C M M M"
_symmetry_group_IT_number 65
_symmetry_cell_setting 'orthorhombic'
loop_
_space_group_symop_operation_xyz
x,y,z
-x,-y,z
x,-y,-z
-x,y,-z
-x,-y,-z
x,y,-z
-x,y,z
x,-y,z
1/2+x,1/2+y,z
1/2-x,1/2-y,z
1/2+x,1/2-y,-z
1/2-x,1/2+y,-z
1/2-x,1/2-y,-z
1/2+x,1/2+y,-z
1/2-x,1/2+y,z
1/2+x,1/2-y,z
loop_
_atom_site_type_symbol
_atom_site_label
_atom_site_fract_x
_atom_site_fract_y
_atom_site_fract_z
Si Si1 0.358880 0.157376 0.796672
Si Si2 0.745435 0.424951 0.288580
Si Si3 0.397371 0.573060 0.793113
Si Si4 0.567412 0.716902 0.213581
Si Si5 0.429180 0.079382 0.500000
O O1 0.288887 0.133858 0.779396
O O2 0.378575 0.232036 0.738042
O O3 0.396048 0.108526 0.670397
O O4 0.377098 0.150403 0.000000
O O5 0.745241 0.422222 0.500000
O O6 0.768047 0.500000 0.237318
O O7 0.675984 0.420149 0.223511
O O8 0.414343 0.500000 0.718027
O O9 0.424610 0.641432 0.718717
O O10 0.413351 0.571044 0.000000
O O11 0.500000 0.742884 0.264126
O O12 0.568767 0.712869 0.000000
O O13 0.500000 0.098241 0.500000
O O14 0.423762 0.000000 0.500000
#
# Coordination Sequence:
#
# PCOD9490539 Si02
#       5
#    16  16  16  16   8
#     4  11  22  38  61  87 119 158 198 242 296 354
#     4  10  20  36  57  83 119 155 192 245 300 351
#     4   9  18  34  58  87 116 150 195 244 296 355
#     4   9  19  36  57  83 117 156 197 243 296 352
#     4  11  24  40  58  85 119 155 202 251 293 347
#
# _framework density 21.686682000000001
#
# number of rings (size 3 to 8) (size 9 to 14) (size 15 to 20)
#    0.000    2.111    1.111    2.000    0.000    5.333 
#    2.000    7.778    0.000    0.000    0.000    3.111 
#    0.000    0.000    0.000    0.000    0.000    0.000 
#
# Total GULP energy -201013.123061 kJ/mol
# GULP energy per Si atom -5583.697863 kJ/mol
# Density = 2.163732 g / cm^3
# Si number density = 21.686682 Si / 1000 Ang^3
#
#
#
# Elastic Constant Matrix: (Units=GPa)
#
#
# Indices 1 2 3 4 5 6 
#
# 1 39.4421 27.6408 -10.0836 0.0000 0.0000 0.0000
# 2 27.6408 91.7423 -0.8258 0.0000 0.0000 0.0000
# 3 -10.0836 -0.8258 73.5441 0.0000 0.0000 0.0000
# 4 0.0000 0.0000 0.0000 19.3648 0.0000 0.0000
# 5 0.0000 0.0000 0.0000 0.0000 -248.9498 0.0000
# 6 0.0000 0.0000 0.0000 0.0000 0.0000 20.4095
#
#
#
# Elastic Compliance Matrix: (Units=1/GPa)
#
#
# Indices 1 2 3 4 5 6 
#
# 1 0.033558 -0.010070 0.004488 0.000000 0.000000 0.000000
# 2 -0.010070 0.013923 -0.001224 0.000000 0.000000 0.000000
# 3 0.004488 -0.001224 0.014199 0.000000 0.000000 0.000000
# 4 0.000000 0.000000 0.000000 0.051640 0.000000 0.000000
# 5 0.000000 0.000000 0.000000 0.000000 -0.004017 0.000000
# 6 0.000000 0.000000 0.000000 0.000000 0.000000 0.048997
#
#
# Mechanical properties :
#
#
# Convention : Reuss Voigt Hill
#
# Bulk Modulus (GPa) = 20.80425 26.46570 23.63498
# Shear Modulus (GPa) = 26.60482 -29.30197 -1.34857
#
# Velocity S-wave (km/s) = 3.50634 -3.67979 -0.78943
# Velocity P-wave (km/s) = 5.09966 2.41336 3.17665
#
# Compressibility (1/GPa) = 0.04806709
#
# Stress axis : x y z
#
# Youngs Moduli (GPa) = 29.79892 71.82293 70.42799
#
# Poissons Ratio (x) = 0.72328 -0.31609
# Poissons Ratio (y) = 0.30008 0.08623
# Poissons Ratio (z) = -0.13374 0.08794
#
# Static dielectric constant tensor:
#      x y z
#    x 1.772630 0.000000 0.000000 
#    y 0.000000 1.811840 0.000000 
#    z 0.000000 0.000000 1.787640 
# 
# From -- ./inp_files/11280.got.cif
#   From: 2010.05.17/outbox.cif.g08.bks.cpg/sg65_6_cif.got.tgz:11280.got - 2010.06.03 17:01:31.
