data_PCOD9490212
_publ_section_title
;
Structure prediction by ZEFSAII (Michael W. Deem and Ramdas Pophale) SiO2 
 PCOD9490212
Probable space group: C M M M
;
_chemical_formula_sum "Si O2"
_cell_formula_units_Z 80
_cell_length_a 8.499013
_cell_length_b 18.816310
_cell_length_c 26.436345
_cell_angle_alpha 90.000000
_cell_angle_beta 90.000000
_cell_angle_gamma 90.000000
_cell_volume 4227.701966
_symmetry_space_group_name_H-M "C M M M"
_symmetry_group_IT_number 65
_symmetry_cell_setting 'orthorhombic'
loop_
_space_group_symop_operation_xyz
x,y,z
-x,-y,z
x,-y,-z
-x,y,-z
-x,-y,-z
x,y,-z
-x,y,z
x,-y,z
1/2+x,1/2+y,z
1/2-x,1/2-y,z
1/2+x,1/2-y,-z
1/2-x,1/2+y,-z
1/2-x,1/2-y,-z
1/2+x,1/2+y,-z
1/2-x,1/2+y,z
1/2+x,1/2-y,z
loop_
_atom_site_type_symbol
_atom_site_label
_atom_site_fract_x
_atom_site_fract_y
_atom_site_fract_z
Si Si1 0.311394 0.829754 0.093863
Si Si2 0.690043 0.170198 0.208013
Si Si3 0.688271 0.581091 0.000000
Si Si4 0.688997 0.417295 0.500000
Si Si5 0.689085 0.169431 0.403452
Si Si6 0.807964 0.581524 0.304607
O O1 0.500000 0.829378 0.092052
O O2 0.250000 0.750000 0.085317
O O3 0.261584 0.850708 0.150986
O O4 0.247676 0.879594 0.050068
O O5 0.500000 0.171805 0.208883
O O6 0.750000 0.250000 0.217638
O O7 0.743545 0.117306 0.252037
O O8 0.743761 0.500000 0.000000
O O9 0.500000 0.582476 0.000000
O O10 0.739920 0.500000 0.500000
O O11 0.500000 0.415589 0.500000
O O12 0.750765 0.376127 0.450810
O O13 0.500000 0.170795 0.404519
O O14 0.750000 0.250000 0.405547
O O15 0.740814 0.130024 0.351903
O O16 0.755492 0.500000 0.309720
O O17 0.000000 0.580757 0.304480
#
# Coordination Sequence:
#
# PCOD9490212 Si02
#       6
#    16  16   8   8  16  16
#     4  10  20  35  57  82 108 141 181 223 267 320
#     4   9  18  33  55  81 108 139 175 218 265 316
#     4  11  24  39  54  75 107 143 178 223 276 325
#     4  11  24  41  60  83 113 145 180 227 278 327
#     4  11  22  37  59  84 112 147 187 228 270 321
#     4   9  18  33  54  81 111 143 180 222 269 320
#
# _framework density 18.922809999999998
#
# number of rings (size 3 to 8) (size 9 to 14) (size 15 to 20)
#    0.000    2.000    0.000    3.600    0.000    4.000 
#    0.000    3.000    0.000    3.000    0.000    0.000 
#    0.000    0.000    0.000    0.000    0.000    0.000 
#
# Total GULP energy -223433.519666 kJ/mol
# GULP energy per Si atom -5585.837992 kJ/mol
# Density = 1.887974 g / cm^3
# Si number density = 18.922810 Si / 1000 Ang^3
#
#
#
# Elastic Constant Matrix: (Units=GPa)
#
#
# Indices 1 2 3 4 5 6 
#
# 1 32.6131 34.9275 36.1950 0.0000 0.0000 0.0000
# 2 34.9275 184.5206 139.6354 0.0000 0.0000 0.0000
# 3 36.1950 139.6354 192.8685 0.0000 0.0000 0.0000
# 4 0.0000 0.0000 0.0000 29.3176 0.0000 0.0000
# 5 0.0000 0.0000 0.0000 0.0000 69.4594 0.0000
# 6 0.0000 0.0000 0.0000 0.0000 0.0000 19.7962
#
#
#
# Elastic Compliance Matrix: (Units=1/GPa)
#
#
# Indices 1 2 3 4 5 6 
#
# 1 0.040147 -0.004198 -0.004495 0.000000 0.000000 0.000000
# 2 -0.004198 0.012426 -0.008208 0.000000 0.000000 0.000000
# 3 -0.004495 -0.008208 0.011971 0.000000 0.000000 0.000000
# 4 0.000000 0.000000 0.000000 0.034109 0.000000 0.000000
# 5 0.000000 0.000000 0.000000 0.000000 0.014397 0.000000
# 6 0.000000 0.000000 0.000000 0.000000 0.000000 0.050515
#
#
# Mechanical properties :
#
#
# Convention : Reuss Voigt Hill
#
# Bulk Modulus (GPa) = 32.52928 92.39089 62.46008
# Shear Modulus (GPa) = 24.08317 36.99761 30.54039
#
# Velocity S-wave (km/s) = 3.57137 4.42655 4.02175
# Velocity P-wave (km/s) = 5.85099 8.66354 7.39226
#
# Compressibility (1/GPa) = 0.03074153
#
# Stress axis : x y z
#
# Youngs Moduli (GPa) = 24.90853 80.47895 83.53342
#
# Poissons Ratio (x) = 0.33781 0.37550
# Poissons Ratio (y) = 0.10455 0.68567
# Poissons Ratio (z) = 0.11197 0.66060
#
# Static dielectric constant tensor:
#      x y z
#    x 1.641430 0.000000 0.000000 
#    y 0.000000 1.618010 0.000000 
#    z 0.000000 0.000000 1.650090 
# 
# From -- ./inp_files/72922.got.cif
#   From: 2010.05.17/outbox.cif.g08.bks.cpg/sg65_37_cif.got.tgz:72922.got - 2010.06.03 17:01:31.
