data_PCOD9490166
_publ_section_title
;
Structure prediction by ZEFSAII (Michael W. Deem and Ramdas Pophale) SiO2 
 PCOD9490166
Probable space group: C M M M
;
_chemical_formula_sum "Si O2"
_cell_formula_units_Z 88
_cell_length_a 8.772090
_cell_length_b 18.635107
_cell_length_c 29.090015
_cell_angle_alpha 90.000000
_cell_angle_beta 90.000000
_cell_angle_gamma 90.000000
_cell_volume 4755.310884
_symmetry_space_group_name_H-M "C M M M"
_symmetry_group_IT_number 65
_symmetry_cell_setting 'orthorhombic'
loop_
_space_group_symop_operation_xyz
x,y,z
-x,-y,z
x,-y,-z
-x,y,-z
-x,-y,-z
x,y,-z
-x,y,z
x,-y,z
1/2+x,1/2+y,z
1/2-x,1/2-y,z
1/2+x,1/2-y,-z
1/2-x,1/2+y,-z
1/2-x,1/2-y,-z
1/2+x,1/2+y,-z
1/2-x,1/2+y,z
1/2+x,1/2-y,z
loop_
_atom_site_type_symbol
_atom_site_label
_atom_site_fract_x
_atom_site_fract_y
_atom_site_fract_z
Si Si1 0.183204 0.170317 0.682652
Si Si2 0.314396 0.417710 0.773133
Si Si3 0.182754 0.829323 0.863067
Si Si4 0.316637 0.915986 0.052629
Si Si5 0.824270 0.912817 0.500000
Si Si6 0.818033 0.415069 0.403032
O O1 0.250000 0.250000 0.684503
O O2 0.232364 0.125631 0.727769
O O3 0.241190 0.129472 0.637481
O O4 0.000000 0.173566 0.682125
O O5 0.500000 0.419077 0.773227
O O6 0.261377 0.500000 0.772237
O O7 0.266466 0.376842 0.819336
O O8 0.250000 0.750000 0.859447
O O9 0.238014 0.867150 0.909605
O O10 0.000000 0.825630 0.862652
O O11 0.500000 0.909218 0.056269
O O12 0.278769 0.000000 0.060173
O O13 0.274204 0.897757 0.000000
O O14 0.741798 0.890891 0.546979
O O15 0.000000 0.889734 0.500000
O O16 0.821479 0.000000 0.500000
O O17 0.781085 0.500000 0.397717
O O18 0.000000 0.407562 0.401135
#
# Coordination Sequence:
#
# PCOD9490166 Si02
#       6
#    16  16  16  16   8  16
#     4  11  22  37  57  80 111 148 184 224 273 328
#     4   9  19  36  58  83 109 140 181 228 275 325
#     4  11  22  36  56  82 114 149 185 227 275 328
#     4   9  19  37  59  82 110 144 183 229 279 330
#     4   9  17  31  54  83 112 145 186 227 271 325
#     4  10  20  35  56  83 114 146 184 230 276 323
#
# _framework density 18.505624000000001
#
# number of rings (size 3 to 8) (size 9 to 14) (size 15 to 20)
#    0.000    2.091    0.000    4.091    0.000    4.727 
#    0.000    4.091    0.000    6.545    0.000    0.000 
#    0.000    0.000    0.000    0.000    0.000    0.000 
#
# Total GULP energy -245759.724484 kJ/mol
# GULP energy per Si atom -5585.448284 kJ/mol
# Density = 1.846350 g / cm^3
# Si number density = 18.505624 Si / 1000 Ang^3
#
#
#
# Elastic Constant Matrix: (Units=GPa)
#
#
# Indices 1 2 3 4 5 6 
#
# 1 52.5244 56.4017 56.4325 0.0000 0.0000 0.0000
# 2 56.4017 149.6320 119.6646 0.0000 0.0000 0.0000
# 3 56.4325 119.6646 190.7034 0.0000 0.0000 0.0000
# 4 0.0000 0.0000 0.0000 -20.1976 0.0000 0.0000
# 5 0.0000 0.0000 0.0000 0.0000 18.1391 0.0000
# 6 0.0000 0.0000 0.0000 0.0000 0.0000 7.8870
#
#
#
# Elastic Compliance Matrix: (Units=1/GPa)
#
#
# Indices 1 2 3 4 5 6 
#
# 1 0.033429 -0.009413 -0.003985 0.000000 0.000000 0.000000
# 2 -0.009413 0.016066 -0.007295 0.000000 0.000000 0.000000
# 3 -0.003985 -0.007295 0.011001 0.000000 0.000000 0.000000
# 4 0.000000 0.000000 0.000000 -0.049511 0.000000 0.000000
# 5 0.000000 0.000000 0.000000 0.000000 0.055129 0.000000
# 6 0.000000 0.000000 0.000000 0.000000 0.000000 0.126791
#
#
# Mechanical properties :
#
#
# Convention : Reuss Voigt Hill
#
# Bulk Modulus (GPa) = 52.33663 95.31750 73.82707
# Shear Modulus (GPa) = 20.77592 11.85642 16.31617
#
# Velocity S-wave (km/s) = 3.35428 2.53394 2.97254
# Velocity P-wave (km/s) = 6.58365 7.75759 7.19461
#
# Compressibility (1/GPa) = 0.01910707
#
# Stress axis : x y z
#
# Youngs Moduli (GPa) = 29.91418 62.24451 90.90106
#
# Poissons Ratio (x) = 0.58593 0.36228
# Poissons Ratio (y) = 0.28159 0.66317
# Poissons Ratio (z) = 0.11922 0.45410
#
# Static dielectric constant tensor:
#      x y z
#    x 1.621280 0.000000 0.000000 
#    y 0.000000 1.611330 0.000000 
#    z 0.000000 0.000000 1.614960 
# 
# From -- ./inp_files/67578.got.cif
#   From: 2010.05.17/outbox.cif.g08.bks.cpg/sg65_34_cif.got.tgz:67578.got - 2010.06.03 17:01:31.
