data_PCOD9490160
_publ_section_title
;
Structure prediction by ZEFSAII (Michael W. Deem and Ramdas Pophale) SiO2 
 PCOD9490160
Probable space group: C M M M
;
_chemical_formula_sum "Si O2"
_cell_formula_units_Z 88
_cell_length_a 8.869585
_cell_length_b 18.897074
_cell_length_c 29.211402
_cell_angle_alpha 90.000000
_cell_angle_beta 90.000000
_cell_angle_gamma 90.000000
_cell_volume 4896.099840
_symmetry_space_group_name_H-M "C M M M"
_symmetry_group_IT_number 65
_symmetry_cell_setting 'orthorhombic'
loop_
_space_group_symop_operation_xyz
x,y,z
-x,-y,z
x,-y,-z
-x,y,-z
-x,-y,-z
x,y,-z
-x,y,z
x,-y,z
1/2+x,1/2+y,z
1/2-x,1/2-y,z
1/2+x,1/2-y,-z
1/2-x,1/2+y,-z
1/2-x,1/2-y,-z
1/2+x,1/2+y,-z
1/2-x,1/2+y,z
1/2+x,1/2-y,z
loop_
_atom_site_type_symbol
_atom_site_label
_atom_site_fract_x
_atom_site_fract_y
_atom_site_fract_z
Si Si1 0.816248 0.918456 0.221992
Si Si2 0.173914 0.914033 0.677302
Si Si3 0.321148 0.916065 0.582222
Si Si4 0.319143 0.672299 0.865746
Si Si5 0.820617 0.827980 0.500000
Si Si6 0.180770 0.583280 0.947473
O O1 0.769192 0.891887 0.272440
O O2 0.769296 0.870299 0.179730
O O3 0.000000 0.919518 0.223175
O O4 0.767040 0.000000 0.215480
O O5 0.270700 0.894134 0.633267
O O6 0.000000 0.891284 0.671054
O O7 0.172724 0.000000 0.679296
O O8 0.500000 0.907523 0.576623
O O9 0.235705 0.871016 0.544299
O O10 0.286137 0.000000 0.576895
O O11 0.500000 0.676117 0.865525
O O12 0.250000 0.750000 0.865782
O O13 0.264374 0.629855 0.910217
O O14 0.750000 0.750000 0.500000
O O15 0.000000 0.823087 0.500000
O O16 0.214252 0.500000 0.940656
O O17 0.000000 0.591994 0.942880
O O18 0.220920 0.601441 0.000000
#
# Coordination Sequence:
#
# PCOD9490160 Si02
#       6
#    16  16  16  16   8  16
#     4   8  15  30  53  78 102 132 174 222 266 309
#     4   8  14  28  52  79 104 133 173 218 263 311
#     4  10  20  35  56  83 113 141 174 218 263 308
#     4  11  22  35  52  76 108 144 181 219 261 310
#     4  12  25  40  57  77 105 141 181 220 265 320
#     4   9  19  37  59  81 105 133 168 214 267 320
#
# _framework density 17.973490000000002
#
# number of rings (size 3 to 8) (size 9 to 14) (size 15 to 20)
#    0.000    2.545    0.000    4.364    0.000    4.000 
#    0.000    3.636    0.000    6.545    0.000    0.000 
#    0.000    0.000    0.000    0.000    0.000    0.000 
#
# Total GULP energy -245467.568354 kJ/mol
# GULP energy per Si atom -5578.808372 kJ/mol
# Density = 1.793258 g / cm^3
# Si number density = 17.973490 Si / 1000 Ang^3
#
#
#
# Elastic Constant Matrix: (Units=GPa)
#
#
# Indices 1 2 3 4 5 6 
#
# 1 65.2681 54.7612 68.3033 0.0000 0.0000 0.0000
# 2 54.7612 86.4654 95.0912 0.0000 0.0000 0.0000
# 3 68.3033 95.0912 186.0561 0.0000 0.0000 0.0000
# 4 0.0000 0.0000 0.0000 -8.8788 0.0000 0.0000
# 5 0.0000 0.0000 0.0000 0.0000 18.5045 0.0000
# 6 0.0000 0.0000 0.0000 0.0000 0.0000 13.3207
#
#
#
# Elastic Compliance Matrix: (Units=1/GPa)
#
#
# Indices 1 2 3 4 5 6 
#
# 1 0.033574 -0.017602 -0.003329 0.000000 0.000000 0.000000
# 2 -0.017602 0.035638 -0.011752 0.000000 0.000000 0.000000
# 3 -0.003329 -0.011752 0.012603 0.000000 0.000000 0.000000
# 4 0.000000 0.000000 0.000000 -0.112628 0.000000 0.000000
# 5 0.000000 0.000000 0.000000 0.000000 0.054041 0.000000
# 6 0.000000 0.000000 0.000000 0.000000 0.000000 0.075071
#
#
# Mechanical properties :
#
#
# Convention : Reuss Voigt Hill
#
# Bulk Modulus (GPa) = 60.79696 86.01122 73.40409
# Shear Modulus (GPa) = 29.55974 12.56487 21.06231
#
# Velocity S-wave (km/s) = 4.05980 2.64688 3.42695
# Velocity P-wave (km/s) = 7.47498 7.56965 7.52247
#
# Compressibility (1/GPa) = 0.01644819
#
# Stress axis : x y z
#
# Youngs Moduli (GPa) = 29.78508 28.06004 79.34452
#
# Poissons Ratio (x) = 0.49392 0.26414
# Poissons Ratio (y) = 0.52428 0.93247
# Poissons Ratio (z) = 0.09916 0.32977
#
# Static dielectric constant tensor:
#      x y z
#    x 1.603160 0.000000 0.000000 
#    y 0.000000 1.588050 0.000000 
#    z 0.000000 0.000000 1.621850 
# 
# From -- ./inp_files/73064.got.cif
#   From: 2010.05.17/outbox.cif.g08.bks.cpg/sg65_37_cif.got.tgz:73064.got - 2010.06.03 17:01:31.
