data_PCOD9490085
_publ_section_title
;
Structure prediction by ZEFSAII (Michael W. Deem and Ramdas Pophale) SiO2 
 PCOD9490085
Probable space group: C M M M
;
_chemical_formula_sum "Si O2"
_cell_formula_units_Z 120
_cell_length_a 14.086233
_cell_length_b 22.597615
_cell_length_c 21.439439
_cell_angle_alpha 90.000000
_cell_angle_beta 90.000000
_cell_angle_gamma 90.000000
_cell_volume 6824.500817
_symmetry_space_group_name_H-M "C M M M"
_symmetry_group_IT_number 65
_symmetry_cell_setting 'orthorhombic'
loop_
_space_group_symop_operation_xyz
x,y,z
-x,-y,z
x,-y,-z
-x,y,-z
-x,-y,-z
x,y,-z
-x,y,z
x,-y,z
1/2+x,1/2+y,z
1/2-x,1/2-y,z
1/2+x,1/2-y,-z
1/2-x,1/2+y,-z
1/2-x,1/2-y,-z
1/2+x,1/2+y,-z
1/2-x,1/2+y,z
1/2+x,1/2-y,z
loop_
_atom_site_type_symbol
_atom_site_label
_atom_site_fract_x
_atom_site_fract_y
_atom_site_fract_z
Si Si1 0.799123 0.125137 0.071574
Si Si2 0.112235 0.650725 0.870482
Si Si3 0.385045 0.066697 0.754465
Si Si4 0.611837 0.849825 0.357996
Si Si5 0.722300 0.680824 0.432363
Si Si6 0.112549 0.214229 0.687003
Si Si7 0.886285 0.786019 0.827955
Si Si8 0.390728 0.500000 0.075331
O O1 0.685757 0.133360 0.075977
O O2 0.841816 0.171905 0.120165
O O3 0.834976 0.060005 0.091492
O O4 0.830499 0.135509 0.000000
O O5 0.137104 0.606516 0.814031
O O6 0.129298 0.717668 0.846921
O O7 0.000000 0.645192 0.885405
O O8 0.500000 0.063992 0.752920
O O9 0.357963 0.101440 0.692173
O O10 0.348016 0.000000 0.758251
O O11 0.500000 0.855589 0.371880
O O12 0.679832 0.852414 0.417323
O O13 0.625482 0.784419 0.327480
O O14 0.681198 0.663942 0.500000
O O15 0.750000 0.750000 0.436470
O O16 0.658819 0.678254 0.369994
O O17 0.148706 0.202485 0.757135
O O18 0.000000 0.203687 0.686520
O O19 0.000000 0.794785 0.827531
O O20 0.500000 0.500000 0.098531
O O21 0.395430 0.500000 0.000000
#
# Coordination Sequence:
#
# PCOD9490085 Si02
#       8
#    16  16  16  16  16  16  16   8
#     4  11  24  38  56  81 106 141 184 223 272 328
#     4  10  21  35  53  79 112 143 176 220 272 330
#     4   9  17  30  49  73 101 135 175 213 254 307
#     4   9  16  28  47  69  99 135 169 206 249 301
#     4   9  18  28  42  68  99 132 167 203 251 308
#     4   9  17  30  48  71 100 132 168 210 259 311
#     4  10  20  35  56  80 106 139 179 226 279 327
#     4   9  20  42  63  77 101 137 179 225 271 324
#
# _framework density 17.583704000000001
#
# number of rings (size 3 to 8) (size 9 to 14) (size 15 to 20)
#    0.000    2.467    1.333    0.800    2.800    3.733 
#    0.000    4.000    0.000    1.600    0.000    1.867 
#    0.000    0.000    0.000    1.200    0.000    1.333 
#
# Total GULP energy -334342.756909 kJ/mol
# GULP energy per Si atom -5572.379282 kJ/mol
# Density = 1.754368 g / cm^3
# Si number density = 17.583704 Si / 1000 Ang^3
#
#
#
# Elastic Constant Matrix: (Units=GPa)
#
#
# Indices 1 2 3 4 5 6 
#
# 1 65.0348 37.1121 46.5018 0.0000 0.0000 0.0000
# 2 37.1121 90.7263 50.3702 0.0000 0.0000 0.0000
# 3 46.5018 50.3702 110.8157 0.0000 0.0000 0.0000
# 4 0.0000 0.0000 0.0000 3.8225 0.0000 0.0000
# 5 0.0000 0.0000 0.0000 0.0000 22.2604 0.0000
# 6 0.0000 0.0000 0.0000 0.0000 0.0000 13.1740
#
#
#
# Elastic Compliance Matrix: (Units=1/GPa)
#
#
# Indices 1 2 3 4 5 6 
#
# 1 0.023947 -0.005640 -0.007485 0.000000 0.000000 0.000000
# 2 -0.005640 0.016071 -0.004938 0.000000 0.000000 0.000000
# 3 -0.007485 -0.004938 0.014410 0.000000 0.000000 0.000000
# 4 0.000000 0.000000 0.000000 0.261610 0.000000 0.000000
# 5 0.000000 0.000000 0.000000 0.000000 0.044923 0.000000
# 6 0.000000 0.000000 0.000000 0.000000 0.000000 0.075907
#
#
# Mechanical properties :
#
#
# Convention : Reuss Voigt Hill
#
# Bulk Modulus (GPa) = 54.64273 59.39389 57.01831
# Shear Modulus (GPa) = 10.43635 16.69090 13.56363
#
# Velocity S-wave (km/s) = 2.43888 3.08429 2.78038
# Velocity P-wave (km/s) = 6.25093 6.82165 6.54252
#
# Compressibility (1/GPa) = 0.01830070
#
# Stress axis : x y z
#
# Youngs Moduli (GPa) = 41.75883 62.22476 69.39767
#
# Poissons Ratio (x) = 0.35094 0.51947
# Poissons Ratio (y) = 0.23551 0.34270
# Poissons Ratio (z) = 0.31258 0.30728
#
# Static dielectric constant tensor:
#      x y z
#    x 1.643600 0.000000 0.000000 
#    y 0.000000 1.581130 0.000000 
#    z 0.000000 0.000000 1.619320 
# 
# From -- ./inp_files/63014.got.cif
#   From: 2010.05.17/outbox.cif.g08.bks.cpg/sg65_32_cif.got.tgz:63014.got - 2010.06.03 17:01:31.
