data_PCOD9490187
_publ_section_title
;
Structure prediction by ZEFSAII (Michael W. Deem and Ramdas Pophale) SiO2 
 PCOD9490187
Probable space group: C M M M
;
_chemical_formula_sum "Si O2"
_cell_formula_units_Z 104
_cell_length_a 25.650598
_cell_length_b 21.930999
_cell_length_c 9.804784
_cell_angle_alpha 90.000000
_cell_angle_beta 90.000000
_cell_angle_gamma 90.000000
_cell_volume 5515.614950
_symmetry_space_group_name_H-M "C M M M"
_symmetry_group_IT_number 65
_symmetry_cell_setting 'orthorhombic'
loop_
_space_group_symop_operation_xyz
x,y,z
-x,-y,z
x,-y,-z
-x,y,-z
-x,-y,-z
x,y,-z
-x,y,z
x,-y,z
1/2+x,1/2+y,z
1/2-x,1/2-y,z
1/2+x,1/2-y,-z
1/2-x,1/2+y,-z
1/2-x,1/2-y,-z
1/2+x,1/2+y,-z
1/2-x,1/2+y,z
1/2+x,1/2-y,z
loop_
_atom_site_type_symbol
_atom_site_label
_atom_site_fract_x
_atom_site_fract_y
_atom_site_fract_z
Si Si1 0.763932 0.819645 0.660165
Si Si2 0.612372 0.337419 0.342695
Si Si3 0.285578 0.070372 0.837256
Si Si4 0.940245 0.072784 0.845292
Si Si5 0.000000 0.571966 0.651463
Si Si6 0.939093 0.738305 0.153967
Si Si7 0.595136 0.104371 0.154941
O O1 0.747791 0.826187 0.500000
O O2 0.750000 0.750000 0.703239
O O3 0.826325 0.824990 0.666586
O O4 0.740118 0.874855 0.750062
O O5 0.597209 0.340223 0.500000
O O6 0.597584 0.398778 0.264343
O O7 0.580555 0.285490 0.264123
O O8 0.348093 0.077028 0.818785
O O9 0.270443 0.000000 0.801372
O O10 0.275139 0.078551 0.000000
O O11 0.000000 0.094222 0.823162
O O12 0.940603 0.000000 0.837327
O O13 0.925267 0.089359 0.000000
O O14 0.948522 0.587128 0.736909
O O15 0.000000 0.500000 0.636437
O O16 0.000000 0.600619 0.500000
O O17 0.904224 0.677769 0.158964
O O18 0.000000 0.721641 0.174686
O O19 0.935164 0.763634 0.000000
O O20 0.579169 0.086928 0.000000
#
# Coordination Sequence:
#
# PCOD9490187 Si02
#       7
#    16  16  16  16   8  16  16
#     4  10  23  43  62  82 114 156 201 246 297 356
#     4  11  23  36  55  84 113 146 189 236 290 347
#     4  10  22  39  62  92 120 150 196 250 301 354
#     4   9  19  37  59  82 111 149 188 226 277 343
#     4  11  23  35  51  81 117 151 190 231 272 327
#     4  10  20  35  56  84 116 151 192 233 281 343
#     4  10  20  38  60  83 114 153 193 235 284 335
#
# _framework density 18.855557999999998
#
# number of rings (size 3 to 8) (size 9 to 14) (size 15 to 20)
#    0.000    1.923    0.769    3.000    0.000    7.692 
#    0.000    3.846    0.000    0.000    0.000    0.000 
#    0.000    0.000    0.000    0.000    0.000    0.000 
#
# Total GULP energy -290184.635158 kJ/mol
# GULP energy per Si atom -5580.473753 kJ/mol
# Density = 1.881264 g / cm^3
# Si number density = 18.855558 Si / 1000 Ang^3
#
#
#
# Elastic Constant Matrix: (Units=GPa)
#
#
# Indices 1 2 3 4 5 6 
#
# 1 39.2921 31.9475 46.6501 0.0000 0.0000 0.0000
# 2 31.9475 118.9822 61.8535 0.0000 0.0000 0.0000
# 3 46.6501 61.8535 117.7390 0.0000 0.0000 0.0000
# 4 0.0000 0.0000 0.0000 38.4958 0.0000 0.0000
# 5 0.0000 0.0000 0.0000 0.0000 27.4370 0.0000
# 6 0.0000 0.0000 0.0000 0.0000 0.0000 26.8244
#
#
#
# Elastic Compliance Matrix: (Units=1/GPa)
#
#
# Indices 1 2 3 4 5 6 
#
# 1 0.049582 -0.004265 -0.017405 0.000000 0.000000 0.000000
# 2 -0.004265 0.011929 -0.004577 0.000000 0.000000 0.000000
# 3 -0.017405 -0.004577 0.017794 0.000000 0.000000 0.000000
# 4 0.000000 0.000000 0.000000 0.025977 0.000000 0.000000
# 5 0.000000 0.000000 0.000000 0.000000 0.036447 0.000000
# 6 0.000000 0.000000 0.000000 0.000000 0.000000 0.037280
#
#
# Mechanical properties :
#
#
# Convention : Reuss Voigt Hill
#
# Bulk Modulus (GPa) = 37.29719 61.87952 49.58836
# Shear Modulus (GPa) = 20.79522 27.58892 24.19207
#
# Velocity S-wave (km/s) = 3.32455 3.82929 3.58581
# Velocity P-wave (km/s) = 5.87880 7.24156 6.59547
#
# Compressibility (1/GPa) = 0.02681167
#
# Stress axis : x y z
#
# Youngs Moduli (GPa) = 20.16846 83.82761 56.19927
#
# Poissons Ratio (x) = 0.35755 0.97812
# Poissons Ratio (y) = 0.08603 0.25722
# Poissons Ratio (z) = 0.35102 0.38368
#
# Static dielectric constant tensor:
#      x y z
#    x 1.759790 0.000000 0.000000 
#    y 0.000000 1.680650 0.000000 
#    z 0.000000 0.000000 1.662450 
# 
# From -- ./inp_files/16492.got.cif
#   From: 2010.05.17/outbox.cif.g08.bks.cpg/sg65_9_cif.got.tgz:16492.got - 2010.06.03 17:01:31.
