data_PCOD9490689
_publ_section_title
;
Structure prediction by ZEFSAII (Michael W. Deem and Ramdas Pophale) SiO2 
 PCOD9490689
Probable space group: C M M M
;
_chemical_formula_sum "Si O2"
_cell_formula_units_Z 50
_cell_length_a 7.858395
_cell_length_b 16.215270
_cell_length_c 18.796590
_cell_angle_alpha 90.000000
_cell_angle_beta 90.000000
_cell_angle_gamma 90.000000
_cell_volume 2395.174215
_symmetry_space_group_name_H-M "C M M M"
_symmetry_group_IT_number 65
_symmetry_cell_setting 'orthorhombic'
loop_
_space_group_symop_operation_xyz
x,y,z
-x,-y,z
x,-y,-z
-x,y,-z
-x,-y,-z
x,y,-z
-x,y,z
x,-y,z
1/2+x,1/2+y,z
1/2-x,1/2-y,z
1/2+x,1/2-y,-z
1/2-x,1/2+y,-z
1/2-x,1/2-y,-z
1/2+x,1/2+y,-z
1/2-x,1/2+y,z
1/2+x,1/2-y,z
loop_
_atom_site_type_symbol
_atom_site_label
_atom_site_fract_x
_atom_site_fract_y
_atom_site_fract_z
Si Si1 0.696628 0.158365 0.699228
Si Si2 0.500000 0.000000 0.500000
Si Si3 0.689523 0.500000 0.615221
Si Si4 0.294119 0.594369 0.153484
Si Si5 0.204502 0.154449 0.000000
O O1 0.500000 0.146903 0.681884
O O2 0.750000 0.250000 0.676060
O O3 0.722231 0.150549 0.784082
O O4 0.795157 0.082736 0.663068
O O5 0.652352 0.000000 0.561426
O O6 0.500000 0.500000 0.583101
O O7 0.500000 0.601429 0.154764
O O8 0.248497 0.500000 0.169517
O O9 0.233730 0.616076 0.074109
O O10 0.250000 0.250000 0.000000
O O11 0.000000 0.143886 0.000000
#
# Coordination Sequence:
#
# PCOD9490689 Si02
#       5
#    16   2   8  16   8
#     4  12  24  42  69 104 141 183 239 292 345 417
#     4  12  26  52  80 114 148 188 230 272 348 430
#     4  12  25  49  79 109 148 188 226 286 346 412
#     4  10  20  36  59  88 124 177 231 291 355 415
#     4  10  21  35  51  79 123 172 232 292 352 416
#
# _framework density 20.875308
#
# number of rings (size 3 to 8) (size 9 to 14) (size 15 to 20)
#    0.000    0.960    3.200    4.560    0.000    5.760 
#    0.000    0.800    0.000    2.880    0.000    0.000 
#    0.000    0.000    0.000    0.000    0.000    0.000 
#
# Total GULP energy -139493.593322 kJ/mol
# GULP energy per Si atom -5579.743733 kJ/mol
# Density = 2.082780 g / cm^3
# Si number density = 20.875308 Si / 1000 Ang^3
#
#
#
# Elastic Constant Matrix: (Units=GPa)
#
#
# Indices 1 2 3 4 5 6 
#
# 1 114.0474 26.0352 30.1406 0.0000 0.0000 0.0000
# 2 26.0352 135.5115 33.5569 0.0000 0.0000 0.0000
# 3 30.1406 33.5569 105.4619 0.0000 0.0000 0.0000
# 4 0.0000 0.0000 0.0000 -29.5446 0.0000 0.0000
# 5 0.0000 0.0000 0.0000 0.0000 26.7986 0.0000
# 6 0.0000 0.0000 0.0000 0.0000 0.0000 25.2506
#
#
#
# Elastic Compliance Matrix: (Units=1/GPa)
#
#
# Indices 1 2 3 4 5 6 
#
# 1 0.009684 -0.001276 -0.002362 0.000000 0.000000 0.000000
# 2 -0.001276 0.008179 -0.002238 0.000000 0.000000 0.000000
# 3 -0.002362 -0.002238 0.010869 0.000000 0.000000 0.000000
# 4 0.000000 0.000000 0.000000 -0.033847 0.000000 0.000000
# 5 0.000000 0.000000 0.000000 0.000000 0.037315 0.000000
# 6 0.000000 0.000000 0.000000 0.000000 0.000000 0.039603
#
#
# Mechanical properties :
#
#
# Convention : Reuss Voigt Hill
#
# Bulk Modulus (GPa) = 58.88859 59.38735 59.13797
# Shear Modulus (GPa) = 56.04559 22.18682 39.11621
#
# Velocity S-wave (km/s) = 5.18711 3.26364 4.33344
# Velocity P-wave (km/s) = 8.00910 6.53545 7.30951
#
# Compressibility (1/GPa) = 0.01698122
#
# Stress axis : x y z
#
# Youngs Moduli (GPa) = 103.26704 122.26910 92.00402
#
# Poissons Ratio (x) = 0.15597 0.21728
# Poissons Ratio (y) = 0.13173 0.20589
# Poissons Ratio (z) = 0.24388 0.27361
#
# Static dielectric constant tensor:
#      x y z
#    x 1.749130 0.000000 0.000000 
#    y 0.000000 1.733280 0.000000 
#    z 0.000000 0.000000 1.740710 
# 
# From -- ./inp_files/48524.got.cif
#   From: 2010.05.17/outbox.cif.g08.bks.cpg/sg65_25_cif.got.tgz:48524.got - 2010.06.03 17:01:31.
