data_PCOD9490958
_publ_section_title
;
Structure prediction by ZEFSAII (Michael W. Deem and Ramdas Pophale) SiO2 
 PCOD9490958
Probable space group: C M M M
;
_chemical_formula_sum "Si O2"
_cell_formula_units_Z 100
_cell_length_a 21.111695
_cell_length_b 30.070887
_cell_length_c 7.552941
_cell_angle_alpha 90.000000
_cell_angle_beta 90.000000
_cell_angle_gamma 90.000000
_cell_volume 4794.964916
_symmetry_space_group_name_H-M "C M M M"
_symmetry_group_IT_number 65
_symmetry_cell_setting 'orthorhombic'
loop_
_space_group_symop_operation_xyz
x,y,z
-x,-y,z
x,-y,-z
-x,y,-z
-x,-y,-z
x,y,-z
-x,y,z
x,-y,z
1/2+x,1/2+y,z
1/2-x,1/2-y,z
1/2+x,1/2-y,-z
1/2-x,1/2+y,-z
1/2-x,1/2-y,-z
1/2+x,1/2+y,-z
1/2-x,1/2+y,z
1/2+x,1/2-y,z
loop_
_atom_site_type_symbol
_atom_site_label
_atom_site_fract_x
_atom_site_fract_y
_atom_site_fract_z
Si Si1 0.807914 0.856347 0.715319
Si Si2 0.260353 0.450649 0.713736
Si Si3 0.310952 0.798512 0.296289
Si Si4 0.500000 0.736890 0.500000
Si Si5 0.888988 0.451461 0.789754
Si Si6 0.894814 0.220650 0.195819
Si Si7 0.568513 0.143333 0.784729
O O1 0.807973 0.856315 0.500000
O O2 0.798802 0.907354 0.774434
O O3 0.746392 0.828161 0.775737
O O4 0.869174 0.829388 0.776848
O O5 0.263053 0.450928 0.500000
O O6 0.280327 0.500000 0.776012
O O7 0.186368 0.445260 0.763048
O O8 0.296327 0.788858 0.500000
O O9 0.333076 0.752703 0.210107
O O10 0.373340 0.828972 0.285884
O O11 0.444223 0.733818 0.345619
O O12 0.906320 0.500000 0.715954
O O13 0.923718 0.407630 0.724177
O O14 0.901076 0.452955 0.000000
O O15 0.921443 0.226487 0.000000
O O16 0.500000 0.161053 0.728566
O O17 0.571353 0.144484 0.000000
#
# Coordination Sequence:
#
# PCOD9490958 Si02
#       7
#    16  16  16   4  16  16  16
#     4  10  20  38  61  91 129 164 205 261 317 363
#     4   9  17  31  55  85 118 156 198 246 307 369
#     4  11  22  38  59  86 123 164 208 265 314 358
#     4  12  26  52  66  94 133 158 201 264 302 380
#     4   9  17  30  47  69 102 146 198 259 316 364
#     4  12  26  43  69  95 123 169 209 250 312 373
#     4  10  21  33  47  72 106 153 211 261 312 373
#
# _framework density 20.85521
#
# number of rings (size 3 to 8) (size 9 to 14) (size 15 to 20)
#    0.000    1.760    3.200    1.200    1.120    4.480 
#    0.000    1.600    0.000    0.000    0.000    4.480 
#    0.000    1.280    0.000    0.000    0.000    0.000 
#
# Total GULP energy -278899.678900 kJ/mol
# GULP energy per Si atom -5577.993578 kJ/mol
# Density = 2.080774 g / cm^3
# Si number density = 20.855210 Si / 1000 Ang^3
#
#
#
# Elastic Constant Matrix: (Units=GPa)
#
#
# Indices 1 2 3 4 5 6 
#
# 1 32.7483 32.4030 11.2708 0.0000 0.0000 0.0000
# 2 32.4030 125.3099 13.9411 0.0000 0.0000 0.0000
# 3 11.2708 13.9411 100.6260 0.0000 0.0000 0.0000
# 4 0.0000 0.0000 0.0000 14.8295 0.0000 0.0000
# 5 0.0000 0.0000 0.0000 0.0000 56.8908 0.0000
# 6 0.0000 0.0000 0.0000 0.0000 0.0000 17.1449
#
#
#
# Elastic Compliance Matrix: (Units=1/GPa)
#
#
# Indices 1 2 3 4 5 6 
#
# 1 0.042059 -0.010514 -0.003254 0.000000 0.000000 0.000000
# 2 -0.010514 0.010733 -0.000309 0.000000 0.000000 0.000000
# 3 -0.003254 -0.000309 0.010345 0.000000 0.000000 0.000000
# 4 0.000000 0.000000 0.000000 0.067433 0.000000 0.000000
# 5 0.000000 0.000000 0.000000 0.000000 0.017578 0.000000
# 6 0.000000 0.000000 0.000000 0.000000 0.000000 0.058326
#
#
# Mechanical properties :
#
#
# Convention : Reuss Voigt Hill
#
# Bulk Modulus (GPa) = 28.58570 41.54600 35.06585
# Shear Modulus (GPa) = 20.30132 31.17767 25.73949
#
# Velocity S-wave (km/s) = 3.12339 3.87066 3.51693
# Velocity P-wave (km/s) = 5.17145 6.31985 5.77427
#
# Compressibility (1/GPa) = 0.03498253
#
# Stress axis : x y z
#
# Youngs Moduli (GPa) = 23.77630 93.16819 96.66356
#
# Poissons Ratio (x) = 0.97953 0.31457
# Poissons Ratio (y) = 0.24997 0.02991
# Poissons Ratio (z) = 0.07737 0.02883
#
# Static dielectric constant tensor:
#      x y z
#    x 1.711450 0.000000 0.000000 
#    y 0.000000 1.807350 0.000000 
#    z 0.000000 0.000000 1.778740 
# 
# From -- ./inp_files/12744.got.cif
#   From: 2010.05.17/outbox.cif.g08.bks.cpg/sg65_7_cif.got.tgz:12744.got - 2010.06.03 17:01:31.
