data_PCOD9490356
_publ_section_title
;
Structure prediction by ZEFSAII (Michael W. Deem and Ramdas Pophale) SiO2 
 PCOD9490356
Probable space group: C M M M
;
_chemical_formula_sum "Si O2"
_cell_formula_units_Z 112
_cell_length_a 14.347641
_cell_length_b 23.535176
_cell_length_c 15.724043
_cell_angle_alpha 90.000000
_cell_angle_beta 90.000000
_cell_angle_gamma 90.000000
_cell_volume 5309.604523
_symmetry_space_group_name_H-M "C M M M"
_symmetry_group_IT_number 65
_symmetry_cell_setting 'orthorhombic'
loop_
_space_group_symop_operation_xyz
x,y,z
-x,-y,z
x,-y,-z
-x,y,-z
-x,-y,-z
x,y,-z
-x,y,z
x,-y,z
1/2+x,1/2+y,z
1/2-x,1/2-y,z
1/2+x,1/2-y,-z
1/2-x,1/2+y,-z
1/2-x,1/2-y,-z
1/2+x,1/2+y,-z
1/2-x,1/2+y,z
1/2+x,1/2-y,z
loop_
_atom_site_type_symbol
_atom_site_label
_atom_site_fract_x
_atom_site_fract_y
_atom_site_fract_z
Si Si1 0.613309 0.156921 0.588631
Si Si2 0.113703 0.907095 0.597577
Si Si3 0.360133 0.242815 0.184162
Si Si4 0.200102 0.062326 0.777789
Si Si5 0.393602 0.720352 0.626229
Si Si6 0.393175 0.647253 0.092989
Si Si7 0.892364 0.386286 0.225568
O O1 0.642670 0.129413 0.500000
O O2 0.500000 0.160684 0.588601
O O3 0.649756 0.221394 0.592806
O O4 0.633193 0.126431 0.675899
O O5 0.130397 0.927256 0.500000
O O6 0.166725 0.933704 0.678772
O O7 0.144651 0.840765 0.602491
O O8 0.000000 0.910703 0.611344
O O9 0.250000 0.250000 0.188280
O O10 0.396419 0.269046 0.272723
O O11 0.392047 0.285245 0.110903
O O12 0.384753 0.176144 0.181209
O O13 0.154808 0.113670 0.830571
O O14 0.310262 0.070735 0.796691
O O15 0.170445 0.000000 0.808394
O O16 0.500000 0.718451 0.595234
O O17 0.500000 0.628742 0.092163
O O18 0.350714 0.635897 0.000000
O O19 0.000000 0.405123 0.218630
#
# Coordination Sequence:
#
# PCOD9490356 Si02
#       7
#    16  16  16  16  16  16  16
#     4   8  14  25  46  79 116 154 197 243 291 347
#     4  10  20  35  58  88 123 163 206 254 314 380
#     4  11  18  34  62  95 131 160 190 239 308 375
#     4  12  26  44  63  86 121 166 215 267 310 351
#     4   9  15  26  49  81 120 160 195 236 293 367
#     4  11  24  43  69  99 127 157 196 246 310 380
#     4  10  21  38  61  90 124 166 210 252 304 367
#
# _framework density 21.09385
#
# number of rings (size 3 to 8) (size 9 to 14) (size 15 to 20)
#    0.000    1.857    2.857    3.000    0.000    4.571 
#    0.000    1.429    0.000    5.143    0.000    4.000 
#    0.000    0.000    0.000    0.000    0.000    0.000 
#
# Total GULP energy -312253.312930 kJ/mol
# GULP energy per Si atom -5575.952017 kJ/mol
# Density = 2.104584 g / cm^3
# Si number density = 21.093850 Si / 1000 Ang^3
#
#
#
# Elastic Constant Matrix: (Units=GPa)
#
#
# Indices 1 2 3 4 5 6 
#
# 1 99.7165 6.3049 10.8684 0.0000 0.0000 0.0000
# 2 6.3049 53.5847 15.3356 0.0000 0.0000 0.0000
# 3 10.8684 15.3356 77.3072 0.0000 0.0000 0.0000
# 4 0.0000 0.0000 0.0000 -4.5252 0.0000 0.0000
# 5 0.0000 0.0000 0.0000 0.0000 -31.3210 0.0000
# 6 0.0000 0.0000 0.0000 0.0000 0.0000 4.1642
#
#
#
# Elastic Compliance Matrix: (Units=1/GPa)
#
#
# Indices 1 2 3 4 5 6 
#
# 1 0.010220 -0.000839 -0.001270 0.000000 0.000000 0.000000
# 2 -0.000839 0.019854 -0.003821 0.000000 0.000000 0.000000
# 3 -0.001270 -0.003821 0.013872 0.000000 0.000000 0.000000
# 4 0.000000 0.000000 0.000000 -0.220985 0.000000 0.000000
# 5 0.000000 0.000000 0.000000 0.000000 -0.031927 0.000000
# 6 0.000000 0.000000 0.000000 0.000000 0.000000 0.240142
#
#
# Mechanical properties :
#
#
# Convention : Reuss Voigt Hill
#
# Bulk Modulus (GPa) = 31.16598 32.84735 32.00667
# Shear Modulus (GPa) = 93.05785 6.87024 49.96404
#
# Velocity S-wave (km/s) = 6.64920 1.80667 4.87216
# Velocity P-wave (km/s) = 8.58814 4.46742 6.84522
#
# Compressibility (1/GPa) = 0.03208627
#
# Stress axis : x y z
#
# Youngs Moduli (GPa) = 97.84796 50.36725 72.08816
#
# Poissons Ratio (x) = 0.04225 0.09158
# Poissons Ratio (y) = 0.08209 0.27542
# Poissons Ratio (z) = 0.12430 0.19243
#
# Static dielectric constant tensor:
#      x y z
#    x 1.801300 0.000000 0.000000 
#    y 0.000000 1.737570 0.000000 
#    z 0.000000 0.000000 1.785120 
# 
# From -- ./inp_files/40790.got.cif
#   From: 2010.05.17/outbox.cif.g08.bks.cpg/sg65_21_cif.got.tgz:40790.got - 2010.06.03 17:01:31.
