data_PCOD9490797
_publ_section_title
;
Structure prediction by ZEFSAII (Michael W. Deem and Ramdas Pophale) SiO2 
 PCOD9490797
Probable space group: C M M M
;
_chemical_formula_sum "Si O2"
_cell_formula_units_Z 72
_cell_length_a 9.000082
_cell_length_b 15.770496
_cell_length_c 27.035586
_cell_angle_alpha 90.000000
_cell_angle_beta 90.000000
_cell_angle_gamma 90.000000
_cell_volume 3837.316370
_symmetry_space_group_name_H-M "C M M M"
_symmetry_group_IT_number 65
_symmetry_cell_setting 'orthorhombic'
loop_
_space_group_symop_operation_xyz
x,y,z
-x,-y,z
x,-y,-z
-x,y,-z
-x,-y,-z
x,y,-z
-x,y,z
x,-y,z
1/2+x,1/2+y,z
1/2-x,1/2-y,z
1/2+x,1/2-y,-z
1/2-x,1/2+y,-z
1/2-x,1/2-y,-z
1/2+x,1/2+y,-z
1/2-x,1/2+y,z
1/2+x,1/2-y,z
loop_
_atom_site_type_symbol
_atom_site_label
_atom_site_fract_x
_atom_site_fract_y
_atom_site_fract_z
Si Si1 0.322796 0.899091 0.100967
Si Si2 0.820834 0.500000 0.613313
Si Si3 0.171749 0.103503 0.000000
Si Si4 0.323984 0.340061 0.440800
Si Si5 0.680349 0.000000 0.271722
Si Si6 0.320283 0.837438 0.208595
O O1 0.500000 0.889962 0.096084
O O2 0.274801 0.855087 0.151718
O O3 0.292230 0.000000 0.106269
O O4 0.247481 0.867569 0.050759
O O5 0.754932 0.416934 0.587110
O O6 0.777040 0.500000 0.671074
O O7 0.000000 0.500000 0.609720
O O8 0.000000 0.126519 0.000000
O O9 0.183688 0.000000 0.000000
O O10 0.305767 0.351848 0.500000
O O11 0.500000 0.338723 0.430254
O O12 0.250000 0.250000 0.427710
O O13 0.728130 0.916216 0.242346
O O14 0.500000 0.000000 0.270105
O O15 0.500000 0.833191 0.209672
O O16 0.250000 0.750000 0.225832
#
# Coordination Sequence:
#
# PCOD9490797 Si02
#       6
#    16   8   8  16   8  16
#     4   9  16  30  53  75  99 137 179 214 257 325
#     4  11  22  36  59  88 119 157 196 240 291 344
#     4   9  17  27  44  75 110 136 162 212 272 319
#     4  10  21  38  60  87 121 159 198 241 287 339
#     4   9  20  40  60  80 111 150 189 230 279 334
#     4  10  20  37  59  81 106 140 183 229 276 328
#
# _framework density 18.763112
#
# number of rings (size 3 to 8) (size 9 to 14) (size 15 to 20)
#    0.000    2.333    1.111    1.667    0.000    5.778 
#    0.000    5.556    0.000    0.000    0.000    0.000 
#    0.000    0.000    0.000    0.000    0.000    0.000 
#
# Total GULP energy -200999.245256 kJ/mol
# GULP energy per Si atom -5583.312368 kJ/mol
# Density = 1.872041 g / cm^3
# Si number density = 18.763112 Si / 1000 Ang^3
#
#
#
# Elastic Constant Matrix: (Units=GPa)
#
#
# Indices 1 2 3 4 5 6 
#
# 1 51.3274 59.0925 58.2035 0.0000 0.0000 0.0000
# 2 59.0925 156.9566 94.9202 0.0000 0.0000 0.0000
# 3 58.2035 94.9202 117.1428 0.0000 0.0000 0.0000
# 4 0.0000 0.0000 0.0000 6.7388 0.0000 0.0000
# 5 0.0000 0.0000 0.0000 0.0000 17.1266 0.0000
# 6 0.0000 0.0000 0.0000 0.0000 0.0000 29.8529
#
#
#
# Elastic Compliance Matrix: (Units=1/GPa)
#
#
# Indices 1 2 3 4 5 6 
#
# 1 0.048473 -0.007225 -0.018230 0.000000 0.000000 0.000000
# 2 -0.007225 0.013570 -0.007406 0.000000 0.000000 0.000000
# 3 -0.018230 -0.007406 0.023595 0.000000 0.000000 0.000000
# 4 0.000000 0.000000 0.000000 0.148393 0.000000 0.000000
# 5 0.000000 0.000000 0.000000 0.000000 0.058389 0.000000
# 6 0.000000 0.000000 0.000000 0.000000 0.000000 0.033498
#
#
# Mechanical properties :
#
#
# Convention : Reuss Voigt Hill
#
# Bulk Modulus (GPa) = 50.20930 83.31769 66.76350
# Shear Modulus (GPa) = 12.55403 18.29103 15.42253
#
# Velocity S-wave (km/s) = 2.58947 3.12563 2.87010
# Velocity P-wave (km/s) = 5.97981 7.58469 6.82956
#
# Compressibility (1/GPa) = 0.01991663
#
# Stress axis : x y z
#
# Youngs Moduli (GPa) = 20.63015 73.69129 42.38120
#
# Poissons Ratio (x) = 0.53241 0.77260
# Poissons Ratio (y) = 0.14905 0.31388
# Poissons Ratio (z) = 0.37609 0.54576
#
# Static dielectric constant tensor:
#      x y z
#    x 1.625350 0.000000 0.000000 
#    y 0.000000 1.642550 0.000000 
#    z 0.000000 0.000000 1.636530 
# 
# From -- ./inp_files/72584.got.cif
#   From: 2010.05.17/outbox.cif.g08.bks.cpg/sg65_37_cif.got.tgz:72584.got - 2010.06.03 17:01:31.
