data_PCOD9490651
_publ_section_title
;
Structure prediction by ZEFSAII (Michael W. Deem and Ramdas Pophale) SiO2 
 PCOD9490651
Probable space group: C M M M
;
_chemical_formula_sum "Si O2"
_cell_formula_units_Z 80
_cell_length_a 24.441992
_cell_length_b 8.714163
_cell_length_c 20.930945
_cell_angle_alpha 90.000000
_cell_angle_beta 90.000000
_cell_angle_gamma 90.000000
_cell_volume 4458.113421
_symmetry_space_group_name_H-M "C M M M"
_symmetry_group_IT_number 65
_symmetry_cell_setting 'orthorhombic'
loop_
_space_group_symop_operation_xyz
x,y,z
-x,-y,z
x,-y,-z
-x,y,-z
-x,-y,-z
x,y,-z
-x,y,z
x,-y,z
1/2+x,1/2+y,z
1/2-x,1/2-y,z
1/2+x,1/2-y,-z
1/2-x,1/2+y,-z
1/2-x,1/2-y,-z
1/2+x,1/2+y,-z
1/2-x,1/2+y,z
1/2+x,1/2-y,z
loop_
_atom_site_type_symbol
_atom_site_label
_atom_site_fract_x
_atom_site_fract_y
_atom_site_fract_z
Si Si1 0.563315 0.184775 0.073183
Si Si2 0.378410 0.185858 0.428847
Si Si3 0.500000 0.177098 0.594347
Si Si4 0.609773 0.316942 0.196263
Si Si5 0.500000 0.823168 0.253022
Si Si6 0.689128 0.684489 0.690721
O O1 0.500000 0.231362 0.087994
O O2 0.605035 0.250054 0.125052
O O3 0.564555 0.000000 0.075719
O O4 0.574552 0.231315 0.000000
O O5 0.356390 0.219595 0.500000
O O6 0.441551 0.242408 0.426275
O O7 0.344647 0.255921 0.370586
O O8 0.379084 0.000000 0.421009
O O9 0.500000 0.176373 0.670764
O O10 0.500000 0.000000 0.572052
O O11 0.610675 0.500000 0.192619
O O12 0.554028 0.260199 0.229234
O O13 0.658359 0.267036 0.243729
O O14 0.500000 0.000000 0.230090
O O15 0.690261 0.500000 0.688955
O O16 0.750000 0.750000 0.688779
#
# Coordination Sequence:
#
# PCOD9490651 Si02
#       6
#    16  16   8  16   8  16
#     4   9  18  32  52  82 118 153 186 216 256 320
#     4  10  20  36  59  85 113 145 182 225 273 328
#     4   9  17  31  54  84 114 144 179 216 263 329
#     4  11  22  35  54  83 115 144 180 230 278 322
#     4  11  19  30  54  82 110 149 184 217 268 331
#     4  11  25  42  59  79 106 141 188 237 280 328
#
# _framework density 17.94481
#
# number of rings (size 3 to 8) (size 9 to 14) (size 15 to 20)
#    0.000    1.800    3.000    2.400    0.000    4.800 
#    0.000    1.500    0.000    1.800    0.000    0.000 
#    0.000    0.000    0.000    0.000    0.000    0.000 
#
# Total GULP energy -223202.754515 kJ/mol
# GULP energy per Si atom -5580.068863 kJ/mol
# Density = 1.790397 g / cm^3
# Si number density = 17.944810 Si / 1000 Ang^3
#
#
#
# Elastic Constant Matrix: (Units=GPa)
#
#
# Indices 1 2 3 4 5 6 
#
# 1 124.0002 28.4347 73.7330 0.0000 0.0000 0.0000
# 2 28.4347 31.2505 40.5965 0.0000 0.0000 0.0000
# 3 73.7330 40.5965 168.7971 0.0000 0.0000 0.0000
# 4 0.0000 0.0000 0.0000 24.6856 0.0000 0.0000
# 5 0.0000 0.0000 0.0000 0.0000 3.3932 0.0000
# 6 0.0000 0.0000 0.0000 0.0000 0.0000 10.0119
#
#
#
# Elastic Compliance Matrix: (Units=1/GPa)
#
#
# Indices 1 2 3 4 5 6 
#
# 1 0.011566 -0.005760 -0.003667 0.000000 0.000000 0.000000
# 2 -0.005760 0.049409 -0.009367 0.000000 0.000000 0.000000
# 3 -0.003667 -0.009367 0.009779 0.000000 0.000000 0.000000
# 4 0.000000 0.000000 0.000000 0.040509 0.000000 0.000000
# 5 0.000000 0.000000 0.000000 0.000000 0.294708 0.000000
# 6 0.000000 0.000000 0.000000 0.000000 0.000000 0.099881
#
#
# Mechanical properties :
#
#
# Convention : Reuss Voigt Hill
#
# Bulk Modulus (GPa) = 30.15174 67.73070 48.94122
# Shear Modulus (GPa) = 9.01721 19.70372 14.36047
#
# Velocity S-wave (km/s) = 2.24408 3.31723 2.83195
# Velocity P-wave (km/s) = 4.85319 7.24554 6.16649
#
# Compressibility (1/GPa) = 0.03316558
#
# Stress axis : x y z
#
# Youngs Moduli (GPa) = 86.46259 20.23924 102.26298
#
# Poissons Ratio (x) = 0.11658 0.37497
# Poissons Ratio (y) = 0.49805 0.95789
# Poissons Ratio (z) = 0.31703 0.18958
#
# Static dielectric constant tensor:
#      x y z
#    x 1.592220 0.000000 0.000000 
#    y 0.000000 1.609170 0.000000 
#    z 0.000000 0.000000 1.642800 
# 
# From -- ./inp_files/65063.got.cif
#   From: 2010.05.17/outbox.cif.g08.bks.cpg/sg65_33_cif.got.tgz:65063.got - 2010.06.03 17:01:31.
