data_PCOD9490408
_publ_section_title
;
Structure prediction by ZEFSAII (Michael W. Deem and Ramdas Pophale) SiO2 
 PCOD9490408
Probable space group: C M M M
;
_chemical_formula_sum "Si O2"
_cell_formula_units_Z 88
_cell_length_a 20.675484
_cell_length_b 24.841256
_cell_length_c 7.902522
_cell_angle_alpha 90.000000
_cell_angle_beta 90.000000
_cell_angle_gamma 90.000000
_cell_volume 4058.774740
_symmetry_space_group_name_H-M "C M M M"
_symmetry_group_IT_number 65
_symmetry_cell_setting 'orthorhombic'
loop_
_space_group_symop_operation_xyz
x,y,z
-x,-y,z
x,-y,-z
-x,y,-z
-x,-y,-z
x,y,-z
-x,y,z
x,-y,z
1/2+x,1/2+y,z
1/2-x,1/2-y,z
1/2+x,1/2-y,-z
1/2-x,1/2+y,-z
1/2-x,1/2-y,-z
1/2+x,1/2+y,-z
1/2-x,1/2+y,z
1/2+x,1/2-y,z
loop_
_atom_site_type_symbol
_atom_site_label
_atom_site_fract_x
_atom_site_fract_y
_atom_site_fract_z
Si Si1 0.000000 0.437848 0.799082
Si Si2 0.568795 0.325123 0.698781
Si Si3 0.871775 0.628918 0.704123
Si Si4 0.324359 0.245572 0.707241
Si Si5 0.750669 0.937795 0.302210
Si Si6 0.896258 0.940509 0.195871
O O1 0.063633 0.403328 0.751603
O O2 0.000000 0.500000 0.730014
O O3 0.000000 0.442590 0.000000
O O4 0.567375 0.311882 0.500000
O O5 0.500000 0.307325 0.773944
O O6 0.631935 0.295362 0.767249
O O7 0.574342 0.389021 0.715691
O O8 0.869995 0.628399 0.500000
O O9 0.861523 0.690775 0.757336
O O10 0.807601 0.597849 0.764676
O O11 0.321317 0.245802 0.500000
O O12 0.250000 0.250000 0.764967
O O13 0.763125 0.923372 0.500000
O O14 0.818714 0.933910 0.209075
O O15 0.729840 0.000000 0.297513
O O16 0.911722 0.000000 0.265992
O O17 0.915614 0.939492 0.000000
#
# Coordination Sequence:
#
# PCOD9490408 Si02
#       6
#     8  16  16  16  16  16
#     4  11  25  41  55  79 121 167 204 243 296 355
#     4  10  21  36  56  81 111 146 185 230 281 337
#     4  10  20  35  61  88 112 147 194 244 291 343
#     4   9  18  34  59  89 116 143 182 235 292 345
#     4   9  17  31  54  84 113 141 181 234 286 335
#     4  10  21  36  55  80 110 146 186 228 279 338
#
# _framework density 21.681419000000002
#
# number of rings (size 3 to 8) (size 9 to 14) (size 15 to 20)
#    0.000    2.273    0.000    2.455    1.273    6.909 
#    0.000    4.545    0.000    2.182    0.000    0.000 
#    0.000    0.000    0.000    0.000    0.000    0.000 
#
# Total GULP energy -245602.675105 kJ/mol
# GULP energy per Si atom -5581.878980 kJ/mol
# Density = 2.163207 g / cm^3
# Si number density = 21.681419 Si / 1000 Ang^3
#
#
#
# Elastic Constant Matrix: (Units=GPa)
#
#
# Indices 1 2 3 4 5 6 
#
# 1 146.0119 83.3457 2.0044 0.0000 0.0000 0.0000
# 2 83.3457 122.7157 5.5967 0.0000 0.0000 0.0000
# 3 2.0044 5.5967 21.2557 0.0000 0.0000 0.0000
# 4 0.0000 0.0000 0.0000 -6.3508 0.0000 0.0000
# 5 0.0000 0.0000 0.0000 0.0000 58.5424 0.0000
# 6 0.0000 0.0000 0.0000 0.0000 0.0000 16.7254
#
#
#
# Elastic Compliance Matrix: (Units=1/GPa)
#
#
# Indices 1 2 3 4 5 6 
#
# 1 0.011204 -0.007653 0.000959 0.000000 0.000000 0.000000
# 2 -0.007653 0.013476 -0.002827 0.000000 0.000000 0.000000
# 3 0.000959 -0.002827 0.047700 0.000000 0.000000 0.000000
# 4 0.000000 0.000000 0.000000 -0.157460 0.000000 0.000000
# 5 0.000000 0.000000 0.000000 0.000000 0.017082 0.000000
# 6 0.000000 0.000000 0.000000 0.000000 0.000000 0.059789
#
#
# Mechanical properties :
#
#
# Convention : Reuss Voigt Hill
#
# Bulk Modulus (GPa) = 18.74854 52.43077 35.58966
# Shear Modulus (GPa) = 174.74655 27.05250 100.89952
#
# Velocity S-wave (km/s) = 8.98734 3.53615 6.82923
# Velocity P-wave (km/s) = 10.78715 6.39588 8.86763
#
# Compressibility (1/GPa) = 0.05333749
#
# Stress axis : x y z
#
# Youngs Moduli (GPa) = 89.25173 74.20685 20.96435
#
# Poissons Ratio (x) = 0.56793 -0.02010
# Poissons Ratio (y) = 0.68308 0.05926
# Poissons Ratio (z) = -0.08556 0.20975
#
# Static dielectric constant tensor:
#      x y z
#    x 1.794750 0.000000 0.000000 
#    y 0.000000 1.793660 0.000000 
#    z 0.000000 0.000000 1.789210 
# 
# From -- ./inp_files/11775.got.cif
#   From: 2010.05.17/outbox.cif.g08.bks.cpg/sg65_6_cif.got.tgz:11775.got - 2010.06.03 17:01:31.
