data_PCOD9490962
_publ_section_title
;
Structure prediction by ZEFSAII (Michael W. Deem and Ramdas Pophale) SiO2 
 PCOD9490962
Probable space group: C M M M
;
_chemical_formula_sum "Si O2"
_cell_formula_units_Z 104
_cell_length_a 21.833231
_cell_length_b 25.501702
_cell_length_c 9.723828
_cell_angle_alpha 90.000000
_cell_angle_beta 90.000000
_cell_angle_gamma 90.000000
_cell_volume 5414.077204
_symmetry_space_group_name_H-M "C M M M"
_symmetry_group_IT_number 65
_symmetry_cell_setting 'orthorhombic'
loop_
_space_group_symop_operation_xyz
x,y,z
-x,-y,z
x,-y,-z
-x,y,-z
-x,-y,-z
x,y,-z
-x,y,z
x,-y,z
1/2+x,1/2+y,z
1/2-x,1/2-y,z
1/2+x,1/2-y,-z
1/2-x,1/2+y,-z
1/2-x,1/2-y,-z
1/2+x,1/2+y,-z
1/2-x,1/2+y,z
1/2+x,1/2-y,z
loop_
_atom_site_type_symbol
_atom_site_label
_atom_site_fract_x
_atom_site_fract_y
_atom_site_fract_z
Si Si1 0.110364 0.383146 0.662419
Si Si2 0.187331 0.216240 0.159696
Si Si3 0.245859 0.873767 0.339642
Si Si4 0.174852 0.061898 0.152876
Si Si5 0.928306 0.500000 0.666213
Si Si6 0.930183 0.063871 0.346319
Si Si7 0.931101 0.713808 0.164075
O O1 0.093088 0.380045 0.500000
O O2 0.181580 0.366810 0.673897
O O3 0.100430 0.443774 0.708382
O O4 0.074941 0.340575 0.753002
O O5 0.250000 0.250000 0.161608
O O6 0.205191 0.169318 0.261293
O O7 0.126306 0.248451 0.201770
O O8 0.177952 0.200508 0.000000
O O9 0.231392 0.875829 0.500000
O O10 0.228579 0.926288 0.258944
O O11 0.113408 0.082713 0.225531
O O12 0.167300 0.000000 0.142251
O O13 0.186069 0.082408 0.000000
O O14 0.924103 0.500000 0.500000
O O15 0.000000 0.500000 0.704493
O O16 0.909560 0.079423 0.500000
O O17 0.000000 0.080694 0.327648
O O18 0.929941 0.000000 0.345207
O O19 0.000000 0.735548 0.188066
O O20 0.925050 0.703976 0.000000
#
# Coordination Sequence:
#
# PCOD9490962 Si02
#       7
#    16  16  16  16   8  16  16
#     4  10  21  36  58  86 116 156 200 243 289 345
#     4  10  20  38  62  84 112 150 189 235 295 359
#     4  11  23  36  56  84 114 150 197 248 296 347
#     4  10  21  35  52  77 110 150 195 239 287 346
#     4   9  18  34  55  81 117 157 194 233 284 345
#     4   8  14  27  48  72  98 131 173 222 277 333
#     4  10  21  38  62  91 120 151 190 238 295 357
#
# _framework density 19.209181999999998
#
# number of rings (size 3 to 8) (size 9 to 14) (size 15 to 20)
#    0.000    2.231    1.538    1.846    1.077    3.692 
#    0.000    2.692    0.000    4.154    0.000    0.000 
#    0.000    0.000    0.000    0.000    0.000    0.000 
#
# Total GULP energy -289704.925062 kJ/mol
# GULP energy per Si atom -5571.248559 kJ/mol
# Density = 1.916546 g / cm^3
# Si number density = 19.209182 Si / 1000 Ang^3
#
#
#
# Elastic Constant Matrix: (Units=GPa)
#
#
# Indices 1 2 3 4 5 6 
#
# 1 108.1719 40.7877 39.6499 0.0000 0.0000 0.0000
# 2 40.7877 81.3409 28.2147 0.0000 0.0000 0.0000
# 3 39.6499 28.2147 93.3230 0.0000 0.0000 0.0000
# 4 0.0000 0.0000 0.0000 28.4154 0.0000 0.0000
# 5 0.0000 0.0000 0.0000 0.0000 19.4054 0.0000
# 6 0.0000 0.0000 0.0000 0.0000 0.0000 29.3304
#
#
#
# Elastic Compliance Matrix: (Units=1/GPa)
#
#
# Indices 1 2 3 4 5 6 
#
# 1 0.012510 -0.004948 -0.003819 0.000000 0.000000 0.000000
# 2 -0.004948 0.015692 -0.002642 0.000000 0.000000 0.000000
# 3 -0.003819 -0.002642 0.013137 0.000000 0.000000 0.000000
# 4 0.000000 0.000000 0.000000 0.035192 0.000000 0.000000
# 5 0.000000 0.000000 0.000000 0.000000 0.051532 0.000000
# 6 0.000000 0.000000 0.000000 0.000000 0.000000 0.034094
#
#
# Mechanical properties :
#
#
# Convention : Reuss Voigt Hill
#
# Bulk Modulus (GPa) = 53.99518 55.57115 54.78316
# Shear Modulus (GPa) = 26.15759 27.04248 26.60003
#
# Velocity S-wave (km/s) = 3.69416 3.75612 3.72527
# Velocity P-wave (km/s) = 6.80924 6.91401 6.86183
#
# Compressibility (1/GPa) = 0.01852017
#
# Stress axis : x y z
#
# Youngs Moduli (GPa) = 79.93404 63.72839 76.12224
#
# Poissons Ratio (x) = 0.31536 0.29072
# Poissons Ratio (y) = 0.39555 0.20109
# Poissons Ratio (z) = 0.30528 0.16835
#
# Static dielectric constant tensor:
#      x y z
#    x 1.700640 0.000000 0.000000 
#    y 0.000000 1.718480 0.000000 
#    z 0.000000 0.000000 1.658820 
# 
# From -- ./inp_files/12379.got.cif
#   From: 2010.05.17/outbox.cif.g08.bks.cpg/sg65_7_cif.got.tgz:12379.got - 2010.06.03 17:01:31.
