data_PCOD9490691
_publ_section_title
;
Structure prediction by ZEFSAII (Michael W. Deem and Ramdas Pophale) SiO2 
 PCOD9490691
Probable space group: C M M M
;
_chemical_formula_sum "Si O2"
_cell_formula_units_Z 88
_cell_length_a 15.494277
_cell_length_b 9.862352
_cell_length_c 27.565902
_cell_angle_alpha 90.000000
_cell_angle_beta 90.000000
_cell_angle_gamma 90.000000
_cell_volume 4212.345864
_symmetry_space_group_name_H-M "C M M M"
_symmetry_group_IT_number 65
_symmetry_cell_setting 'orthorhombic'
loop_
_space_group_symop_operation_xyz
x,y,z
-x,-y,z
x,-y,-z
-x,y,-z
-x,-y,-z
x,y,-z
-x,y,z
x,-y,z
1/2+x,1/2+y,z
1/2-x,1/2-y,z
1/2+x,1/2-y,-z
1/2-x,1/2+y,-z
1/2-x,1/2-y,-z
1/2+x,1/2+y,-z
1/2-x,1/2+y,z
1/2+x,1/2-y,z
loop_
_atom_site_type_symbol
_atom_site_label
_atom_site_fract_x
_atom_site_fract_y
_atom_site_fract_z
Si Si1 0.605488 0.000000 0.444466
Si Si2 0.106345 0.341457 0.000000
Si Si3 0.900552 0.844159 0.911797
Si Si4 0.394381 0.251280 0.379695
Si Si5 0.335418 0.163344 0.169168
Si Si6 0.898095 0.658842 0.721840
Si Si7 0.394323 0.500000 0.444520
O O1 0.632272 0.125742 0.412281
O O2 0.500000 0.000000 0.446600
O O3 0.635499 0.000000 0.500000
O O4 0.136943 0.253657 0.953617
O O5 0.134274 0.500000 0.000000
O O6 0.000000 0.346960 0.000000
O O7 0.900063 0.750555 0.863745
O O8 0.000000 0.862463 0.925775
O O9 0.865142 0.000000 0.906655
O O10 0.500000 0.250553 0.377005
O O11 0.364881 0.243521 0.324092
O O12 0.366704 0.375276 0.412125
O O13 0.250000 0.250000 0.158430
O O14 0.354570 0.177737 0.226320
O O15 0.333683 0.000000 0.158701
O O16 0.890821 0.500000 0.708050
O O17 0.000000 0.686955 0.728554
O O18 0.500000 0.500000 0.446568
O O19 0.364579 0.500000 0.500000
#
# Coordination Sequence:
#
# PCOD9490691 Si02
#       7
#     8   8  16  16  16  16   8
#     4   9  14  20  36  60  89 125 159 196 247 310
#     4   9  17  31  56  89 122 155 190 225 265 317
#     4  10  20  36  59  89 121 152 188 229 272 319
#     4   9  15  25  39  61  92 126 164 204 251 311
#     4  11  23  39  57  78 109 146 187 233 282 333
#     4   9  17  32  54  76  99 132 176 223 269 320
#     4   9  16  24  34  56  95 135 161 190 247 316
#
# _framework density 20.890971
#
# number of rings (size 3 to 8) (size 9 to 14) (size 15 to 20)
#    0.000    2.455    0.909    2.455    0.000    5.091 
#    3.273    0.455    0.000    0.000    0.000    0.000 
#    0.000    4.364    0.000    0.000    0.000    0.000 
#
# Total GULP energy -245088.975644 kJ/mol
# GULP energy per Si atom -5570.203992 kJ/mol
# Density = 2.084342 g / cm^3
# Si number density = 20.890971 Si / 1000 Ang^3
#
#
#
# Elastic Constant Matrix: (Units=GPa)
#
#
# Indices 1 2 3 4 5 6 
#
# 1 28.2059 10.4193 -3.0311 0.0000 0.0000 0.0000
# 2 10.4193 205.1886 82.0255 0.0000 0.0000 0.0000
# 3 -3.0311 82.0255 124.2103 0.0000 0.0000 0.0000
# 4 0.0000 0.0000 0.0000 31.2089 0.0000 0.0000
# 5 0.0000 0.0000 0.0000 0.0000 168.2808 0.0000
# 6 0.0000 0.0000 0.0000 0.0000 0.0000 8.9692
#
#
#
# Elastic Compliance Matrix: (Units=1/GPa)
#
#
# Indices 1 2 3 4 5 6 
#
# 1 0.036886 -0.003034 0.002904 0.000000 0.000000 0.000000
# 2 -0.003034 0.006871 -0.004612 0.000000 0.000000 0.000000
# 3 0.002904 -0.004612 0.011167 0.000000 0.000000 0.000000
# 4 0.000000 0.000000 0.000000 0.032042 0.000000 0.000000
# 5 0.000000 0.000000 0.000000 0.000000 0.005942 0.000000
# 6 0.000000 0.000000 0.000000 0.000000 0.000000 0.111493
#
#
# Mechanical properties :
#
#
# Convention : Reuss Voigt Hill
#
# Bulk Modulus (GPa) = 22.00660 59.60358 40.80509
# Shear Modulus (GPa) = 21.83094 59.57118 40.70106
#
# Velocity S-wave (km/s) = 3.23614 5.34576 4.41870
# Velocity P-wave (km/s) = 4.95181 8.16674 6.75337
#
# Compressibility (1/GPa) = 0.04544092
#
# Stress axis : x y z
#
# Youngs Moduli (GPa) = 27.11039 145.53675 89.54894
#
# Poissons Ratio (x) = 0.44152 -0.26001
# Poissons Ratio (y) = 0.08225 0.41296
# Poissons Ratio (z) = -0.07872 0.67115
#
# Static dielectric constant tensor:
#      x y z
#    x 1.854850 0.000000 0.000000 
#    y 0.000000 1.719040 0.000000 
#    z 0.000000 0.000000 1.731490 
# 
# From -- ./inp_files/78019.got.cif
#   From: 2010.05.17/outbox.cif.g08.bks.cpg/sg65_40_cif.got.tgz:78019.got - 2010.06.03 17:01:31.
