data_PCOD9490953
_publ_section_title
;
Structure prediction by ZEFSAII (Michael W. Deem and Ramdas Pophale) SiO2 
 PCOD9490953
Probable space group: C M M M
;
_chemical_formula_sum "Si O2"
_cell_formula_units_Z 100
_cell_length_a 29.217758
_cell_length_b 22.360809
_cell_length_c 8.066864
_cell_angle_alpha 90.000000
_cell_angle_beta 90.000000
_cell_angle_gamma 90.000000
_cell_volume 5270.346086
_symmetry_space_group_name_H-M "C M M M"
_symmetry_group_IT_number 65
_symmetry_cell_setting 'orthorhombic'
loop_
_space_group_symop_operation_xyz
x,y,z
-x,-y,z
x,-y,-z
-x,y,-z
-x,-y,-z
x,y,-z
-x,y,z
x,-y,z
1/2+x,1/2+y,z
1/2-x,1/2-y,z
1/2+x,1/2-y,-z
1/2-x,1/2+y,-z
1/2-x,1/2-y,-z
1/2+x,1/2+y,-z
1/2-x,1/2+y,z
1/2+x,1/2-y,z
loop_
_atom_site_type_symbol
_atom_site_label
_atom_site_fract_x
_atom_site_fract_y
_atom_site_fract_z
Si Si1 0.078849 0.500000 0.500000
Si Si2 0.551823 0.567772 0.301227
Si Si3 0.395479 0.192633 0.801774
Si Si4 0.698841 0.125057 0.807875
Si Si5 0.778745 0.805631 0.689143
Si Si6 0.448668 0.133371 0.500000
Si Si7 0.351594 0.000000 0.805807
Si Si8 0.619119 0.327421 0.804601
O O1 0.051901 0.438278 0.500000
O O2 0.109612 0.500000 0.666745
O O3 0.549538 0.564841 0.500000
O O4 0.500000 0.583259 0.241817
O O5 0.562582 0.500000 0.241378
O O6 0.589845 0.617240 0.262074
O O7 0.342815 0.171489 0.781766
O O8 0.423835 0.155104 0.668154
O O9 0.399878 0.262184 0.754311
O O10 0.406399 0.184103 0.000000
O O11 0.742259 0.141043 0.698843
O O12 0.678172 0.059573 0.781302
O O13 0.713066 0.129621 0.000000
O O14 0.789025 0.788431 0.500000
O O15 0.750000 0.750000 0.767002
O O16 0.826867 0.824908 0.764959
O O17 0.500000 0.156978 0.500000
O O18 0.367576 0.000000 0.000000
O O19 0.614549 0.329999 0.000000
#
# Coordination Sequence:
#
# PCOD9490953 Si02
#       8
#     4  16  16  16  16   8   8  16
#     4  12  23  40  68  86 124 158 218 258 307 384
#     4   9  20  41  67  91 120 160 205 254 311 372
#     4  10  23  41  64  91 125 164 205 255 314 379
#     4  10  20  38  61  85 119 160 203 249 302 364
#     4  11  23  35  58  90 123 158 200 249 305 371
#     4  12  27  42  64  92 124 163 205 264 323 375
#     4  10  22  39  63  91 118 162 209 259 309 366
#     4  11  23  39  62  92 126 163 204 253 308 371
#
# _framework density 18.974086
#
# number of rings (size 3 to 8) (size 9 to 14) (size 15 to 20)
#    0.000    1.600    3.200    1.560    4.480    2.240 
#    1.440    2.400    0.000    1.440    0.000    0.000 
#    0.000    0.000    0.000    0.000    0.000    0.000 
#
# Total GULP energy -278897.430007 kJ/mol
# GULP energy per Si atom -5577.948600 kJ/mol
# Density = 1.893090 g / cm^3
# Si number density = 18.974086 Si / 1000 Ang^3
#
#
#
# Elastic Constant Matrix: (Units=GPa)
#
#
# Indices 1 2 3 4 5 6 
#
# 1 101.9967 62.6315 34.6187 0.0000 0.0000 0.0000
# 2 62.6315 133.6192 32.7368 0.0000 0.0000 0.0000
# 3 34.6187 32.7368 43.7955 0.0000 0.0000 0.0000
# 4 0.0000 0.0000 0.0000 17.2132 0.0000 0.0000
# 5 0.0000 0.0000 0.0000 0.0000 26.1978 0.0000
# 6 0.0000 0.0000 0.0000 0.0000 0.0000 21.9527
#
#
#
# Elastic Compliance Matrix: (Units=1/GPa)
#
#
# Indices 1 2 3 4 5 6 
#
# 1 0.016063 -0.005409 -0.008654 0.000000 0.000000 0.000000
# 2 -0.005409 0.010983 -0.003934 0.000000 0.000000 0.000000
# 3 -0.008654 -0.003934 0.032615 0.000000 0.000000 0.000000
# 4 0.000000 0.000000 0.000000 0.058095 0.000000 0.000000
# 5 0.000000 0.000000 0.000000 0.000000 0.038171 0.000000
# 6 0.000000 0.000000 0.000000 0.000000 0.000000 0.045552
#
#
# Mechanical properties :
#
#
# Convention : Reuss Voigt Hill
#
# Bulk Modulus (GPa) = 42.25372 59.93171 51.09272
# Shear Modulus (GPa) = 20.37800 23.03437 21.70618
#
# Velocity S-wave (km/s) = 3.28074 3.48802 3.38596
# Velocity P-wave (km/s) = 6.05545 6.91927 6.50172
#
# Compressibility (1/GPa) = 0.02366655
#
# Stress axis : x y z
#
# Youngs Moduli (GPa) = 62.25544 91.04821 30.66090
#
# Poissons Ratio (x) = 0.49247 0.26534
# Poissons Ratio (y) = 0.33674 0.12063
# Poissons Ratio (z) = 0.53875 0.35821
#
# Static dielectric constant tensor:
#      x y z
#    x 1.642130 0.000000 0.000000 
#    y 0.000000 1.702600 0.000000 
#    z 0.000000 0.000000 1.666540 
# 
# From -- ./inp_files/16538.got.cif
#   From: 2010.05.17/outbox.cif.g08.bks.cpg/sg65_9_cif.got.tgz:16538.got - 2010.06.03 17:01:31.
