data_PCOD9490294
_publ_section_title
;
Structure prediction by ZEFSAII (Michael W. Deem and Ramdas Pophale) SiO2 
 PCOD9490294
Probable space group: C M M M
;
_chemical_formula_sum "Si O2"
_cell_formula_units_Z 88
_cell_length_a 28.398542
_cell_length_b 11.603827
_cell_length_c 14.762438
_cell_angle_alpha 90.000000
_cell_angle_beta 90.000000
_cell_angle_gamma 90.000000
_cell_volume 4864.692300
_symmetry_space_group_name_H-M "C M M M"
_symmetry_group_IT_number 65
_symmetry_cell_setting 'orthorhombic'
loop_
_space_group_symop_operation_xyz
x,y,z
-x,-y,z
x,-y,-z
-x,y,-z
-x,-y,-z
x,y,-z
-x,y,z
x,-y,z
1/2+x,1/2+y,z
1/2-x,1/2-y,z
1/2+x,1/2-y,-z
1/2-x,1/2+y,-z
1/2-x,1/2-y,-z
1/2+x,1/2+y,-z
1/2-x,1/2+y,z
1/2+x,1/2-y,z
loop_
_atom_site_type_symbol
_atom_site_label
_atom_site_fract_x
_atom_site_fract_y
_atom_site_fract_z
Si Si1 0.697203 0.701032 0.400765
Si Si2 0.108317 0.636371 0.396325
Si Si3 0.056103 0.720457 0.222807
Si Si4 0.443091 0.000000 0.897645
Si Si5 0.121691 0.136178 0.899050
Si Si6 0.782557 0.866757 0.794783
O O1 0.687595 0.646071 0.500000
O O2 0.750000 0.750000 0.405394
O O3 0.659315 0.803479 0.390022
O O4 0.696818 0.630792 0.307784
O O5 0.091753 0.651160 0.500000
O O6 0.111861 0.500000 0.378368
O O7 0.074392 0.694455 0.323311
O O8 0.069601 0.610993 0.160545
O O9 0.084413 0.821205 0.174419
O O10 0.000000 0.735783 0.221218
O O11 0.500000 0.000000 0.903320
O O12 0.424509 0.000000 0.000000
O O13 0.174439 0.156726 0.863044
O O14 0.116680 0.000000 0.905722
O O15 0.114103 0.186359 0.000000
O O16 0.750000 0.750000 0.799450
O O17 0.763977 0.000000 0.811806
#
# Coordination Sequence:
#
# PCOD9490294 Si02
#       6
#    16  16  16   8  16  16
#     4   9  18  33  54  82 114 150 189 234 285 339
#     4  10  20  35  57  86 120 157 197 238 288 356
#     4  11  21  36  58  83 115 152 193 245 297 346
#     4   9  18  32  51  79 113 147 184 234 295 345
#     4  10  22  41  62  84 113 150 195 247 298 349
#     4  10  21  38  60  88 121 157 195 239 294 357
#
# _framework density 18.08953
#
# number of rings (size 3 to 8) (size 9 to 14) (size 15 to 20)
#    0.000    2.091    2.727    0.545    0.000    5.455 
#    1.636    5.455    0.000    0.545    0.000    1.273 
#    0.000    0.000    0.000    0.000    0.000    0.000 
#
# Total GULP energy -244951.579627 kJ/mol
# GULP energy per Si atom -5567.081355 kJ/mol
# Density = 1.804836 g / cm^3
# Si number density = 18.089530 Si / 1000 Ang^3
#
#
#
# Elastic Constant Matrix: (Units=GPa)
#
#
# Indices 1 2 3 4 5 6 
#
# 1 78.7135 54.5853 52.1724 0.0000 0.0000 0.0000
# 2 54.5853 79.1348 46.6132 0.0000 0.0000 0.0000
# 3 52.1724 46.6132 116.7367 0.0000 0.0000 0.0000
# 4 0.0000 0.0000 0.0000 24.1364 0.0000 0.0000
# 5 0.0000 0.0000 0.0000 0.0000 49.8812 0.0000
# 6 0.0000 0.0000 0.0000 0.0000 0.0000 21.5714
#
#
#
# Elastic Compliance Matrix: (Units=1/GPa)
#
#
# Indices 1 2 3 4 5 6 
#
# 1 0.027343 -0.015249 -0.006131 0.000000 0.000000 0.000000
# 2 -0.015249 0.025027 -0.003178 0.000000 0.000000 0.000000
# 3 -0.006131 -0.003178 0.012576 0.000000 0.000000 0.000000
# 4 0.000000 0.000000 0.000000 0.041431 0.000000 0.000000
# 5 0.000000 0.000000 0.000000 0.000000 0.020048 0.000000
# 6 0.000000 0.000000 0.000000 0.000000 0.000000 0.046358
#
#
# Mechanical properties :
#
#
# Convention : Reuss Voigt Hill
#
# Bulk Modulus (GPa) = 63.17654 64.59188 63.88421
# Shear Modulus (GPa) = 22.00944 27.19873 24.60408
#
# Velocity S-wave (km/s) = 3.49190 3.88179 3.69199
# Velocity P-wave (km/s) = 7.15947 7.47498 7.31892
#
# Compressibility (1/GPa) = 0.01582866
#
# Stress axis : x y z
#
# Youngs Moduli (GPa) = 36.57266 39.95668 79.51924
#
# Poissons Ratio (x) = 0.60930 0.48755
# Poissons Ratio (y) = 0.55769 0.25273
# Poissons Ratio (z) = 0.22424 0.12699
#
# Static dielectric constant tensor:
#      x y z
#    x 1.587240 0.000000 0.000000 
#    y 0.000000 1.653810 0.000000 
#    z 0.000000 0.000000 1.659680 
# 
# From -- ./inp_files/33655.got.cif
#   From: 2010.05.17/outbox.cif.g08.bks.cpg/sg65_17_cif.got.tgz:33655.got - 2010.06.03 17:01:31.
