data_PCOD9490216
_publ_section_title
;
Structure prediction by ZEFSAII (Michael W. Deem and Ramdas Pophale) SiO2 
 PCOD9490216
Probable space group: C M M M
;
_chemical_formula_sum "Si O2"
_cell_formula_units_Z 72
_cell_length_a 17.045373
_cell_length_b 13.905467
_cell_length_c 16.325481
_cell_angle_alpha 90.000000
_cell_angle_beta 90.000000
_cell_angle_gamma 90.000000
_cell_volume 3869.528715
_symmetry_space_group_name_H-M "C M M M"
_symmetry_group_IT_number 65
_symmetry_cell_setting 'orthorhombic'
loop_
_space_group_symop_operation_xyz
x,y,z
-x,-y,z
x,-y,-z
-x,y,-z
-x,-y,-z
x,y,-z
-x,y,z
x,-y,z
1/2+x,1/2+y,z
1/2-x,1/2-y,z
1/2+x,1/2-y,-z
1/2-x,1/2+y,-z
1/2-x,1/2-y,-z
1/2+x,1/2+y,-z
1/2-x,1/2+y,z
1/2+x,1/2-y,z
loop_
_atom_site_type_symbol
_atom_site_label
_atom_site_fract_x
_atom_site_fract_y
_atom_site_fract_z
Si Si1 0.659002 0.720458 0.907708
Si Si2 0.905647 0.613824 0.500000
Si Si3 0.092860 0.890811 0.244026
Si Si4 0.340030 0.218426 0.660297
Si Si5 0.908143 0.389320 0.187473
O O1 0.750000 0.750000 0.901299
O O2 0.637195 0.644373 0.837711
O O3 0.609946 0.816173 0.885725
O O4 0.643111 0.687148 0.000000
O O5 0.885937 0.500000 0.500000
O O6 0.871299 0.666455 0.579692
O O7 0.000000 0.621465 0.500000
O O8 0.113333 0.815021 0.314825
O O9 0.000000 0.886072 0.227789
O O10 0.114106 0.000000 0.265067
O O11 0.250000 0.250000 0.653400
O O12 0.355654 0.146937 0.736717
O O13 0.892191 0.500000 0.167342
O O14 0.000000 0.380716 0.210979
#
# Coordination Sequence:
#
# PCOD9490216 Si02
#       5
#    16   8  16  16  16
#     4  10  21  35  52  77 109 144 184 232 281 327
#     4  11  23  40  63  87 113 145 180 221 268 320
#     4  10  21  37  57  79 106 145 187 224 267 320
#     4  11  22  37  58  85 114 143 178 222 270 320
#     4  10  20  35  57  82 109 144 184 227 278 334
#
# _framework density 18.606915999999998
#
# number of rings (size 3 to 8) (size 9 to 14) (size 15 to 20)
#    0.000    1.667    0.000    7.667    0.000    8.889 
#    0.000    5.000    0.000    2.000    0.000    0.000 
#    0.000    0.000    0.000    0.000    0.000    0.000 
#
# Total GULP energy -201056.251124 kJ/mol
# GULP energy per Si atom -5584.895865 kJ/mol
# Density = 1.856457 g / cm^3
# Si number density = 18.606916 Si / 1000 Ang^3
#
#
#
# Elastic Constant Matrix: (Units=GPa)
#
#
# Indices 1 2 3 4 5 6 
#
# 1 79.6252 26.9575 28.7140 0.0000 0.0000 0.0000
# 2 26.9575 120.7485 32.4920 0.0000 0.0000 0.0000
# 3 28.7140 32.4920 96.7630 0.0000 0.0000 0.0000
# 4 0.0000 0.0000 0.0000 4.7732 0.0000 0.0000
# 5 0.0000 0.0000 0.0000 0.0000 17.5340 0.0000
# 6 0.0000 0.0000 0.0000 0.0000 0.0000 2.8388
#
#
#
# Elastic Compliance Matrix: (Units=1/GPa)
#
#
# Indices 1 2 3 4 5 6 
#
# 1 0.014625 -0.002306 -0.003566 0.000000 0.000000 0.000000
# 2 -0.002306 0.009468 -0.002495 0.000000 0.000000 0.000000
# 3 -0.003566 -0.002495 0.012230 0.000000 0.000000 0.000000
# 4 0.000000 0.000000 0.000000 0.209503 0.000000 0.000000
# 5 0.000000 0.000000 0.000000 0.000000 0.057032 0.000000
# 6 0.000000 0.000000 0.000000 0.000000 0.000000 0.352262
#
#
# Mechanical properties :
#
#
# Convention : Reuss Voigt Hill
#
# Bulk Modulus (GPa) = 51.04462 52.60708 51.82585
# Shear Modulus (GPa) = 7.37045 18.96075 13.16560
#
# Velocity S-wave (km/s) = 1.99242 3.19567 2.66289
# Velocity P-wave (km/s) = 5.72588 6.47693 6.11295
#
# Compressibility (1/GPa) = 0.01959070
#
# Stress axis : x y z
#
# Youngs Moduli (GPa) = 68.37467 105.62130 81.76309
#
# Poissons Ratio (x) = 0.24352 0.29155
# Poissons Ratio (y) = 0.15765 0.20400
# Poissons Ratio (z) = 0.24381 0.26353
#
# Static dielectric constant tensor:
#      x y z
#    x 1.646540 0.000000 0.000000 
#    y 0.000000 1.632100 0.000000 
#    z 0.000000 0.000000 1.628170 
# 
# From -- ./inp_files/52750.got.cif
#   From: 2010.05.17/outbox.cif.g08.bks.cpg/sg65_27_cif.got.tgz:52750.got - 2010.06.03 17:01:31.
