data_PCOD9490494
_publ_section_title
;
Structure prediction by ZEFSAII (Michael W. Deem and Ramdas Pophale) SiO2 
 PCOD9490494
Probable space group: C M M M
;
_chemical_formula_sum "Si O2"
_cell_formula_units_Z 72
_cell_length_a 16.035482
_cell_length_b 23.820101
_cell_length_c 8.598333
_cell_angle_alpha 90.000000
_cell_angle_beta 90.000000
_cell_angle_gamma 90.000000
_cell_volume 3284.277748
_symmetry_space_group_name_H-M "C M M M"
_symmetry_group_IT_number 65
_symmetry_cell_setting 'orthorhombic'
loop_
_space_group_symop_operation_xyz
x,y,z
-x,-y,z
x,-y,-z
-x,y,-z
-x,-y,-z
x,y,-z
-x,y,z
x,-y,z
1/2+x,1/2+y,z
1/2-x,1/2-y,z
1/2+x,1/2-y,-z
1/2-x,1/2+y,-z
1/2-x,1/2-y,-z
1/2+x,1/2+y,-z
1/2-x,1/2+y,z
1/2+x,1/2-y,z
loop_
_atom_site_type_symbol
_atom_site_label
_atom_site_fract_x
_atom_site_fract_y
_atom_site_fract_z
Si Si1 0.185673 0.673005 0.819223
Si Si2 0.355398 0.720785 0.323593
Si Si3 0.400957 0.063298 0.313175
Si Si4 0.593850 0.599266 0.328910
Si Si5 0.904326 0.933723 0.000000
O O1 0.267226 0.692270 0.724054
O O2 0.125657 0.726520 0.785528
O O3 0.148098 0.614479 0.763492
O O4 0.206590 0.671009 0.000000
O O5 0.353268 0.742069 0.500000
O O6 0.412715 0.666387 0.320295
O O7 0.391304 0.066893 0.500000
O O8 0.500000 0.068610 0.279540
O O9 0.374959 0.000000 0.265111
O O10 0.631529 0.585502 0.500000
O O11 0.500000 0.574589 0.328098
O O12 0.635672 0.582246 0.165839
O O13 0.000000 0.909686 0.000000
O O14 0.910358 0.000000 0.000000
#
# Coordination Sequence:
#
# PCOD9490494 Si02
#       5
#    16  16  16  16   8
#     4  11  22  34  54  83 113 146 182 226 283 340
#     4  10  20  36  57  78 108 148 188 230 276 332
#     4   9  19  38  62  84 110 148 192 236 281 336
#     4   9  19  34  54  80 107 140 183 231 280 331
#     4   9  18  32  52  75 102 138 172 215 272 324
#
# _framework density 21.922629000000001
#
# number of rings (size 3 to 8) (size 9 to 14) (size 15 to 20)
#    0.000    2.333    0.000    4.667    3.111    2.222 
#    0.000    6.667    0.000    1.333    0.000    0.000 
#    0.000    0.000    0.000    0.000    0.000    0.000 
#
# Total GULP energy -200689.516965 kJ/mol
# GULP energy per Si atom -5574.708805 kJ/mol
# Density = 2.187273 g / cm^3
# Si number density = 21.922629 Si / 1000 Ang^3
#
#
#
# Elastic Constant Matrix: (Units=GPa)
#
#
# Indices 1 2 3 4 5 6 
#
# 1 26.2931 22.2572 15.3287 0.0000 0.0000 0.0000
# 2 22.2572 119.3226 35.9263 0.0000 0.0000 0.0000
# 3 15.3287 35.9263 139.9989 0.0000 0.0000 0.0000
# 4 0.0000 0.0000 0.0000 36.6442 0.0000 0.0000
# 5 0.0000 0.0000 0.0000 0.0000 4.2404 0.0000
# 6 0.0000 0.0000 0.0000 0.0000 0.0000 26.7936
#
#
#
# Elastic Compliance Matrix: (Units=1/GPa)
#
#
# Indices 1 2 3 4 5 6 
#
# 1 0.046371 -0.007717 -0.003097 0.000000 0.000000 0.000000
# 2 -0.007717 0.010367 -0.001815 0.000000 0.000000 0.000000
# 3 -0.003097 -0.001815 0.007948 0.000000 0.000000 0.000000
# 4 0.000000 0.000000 0.000000 0.027289 0.000000 0.000000
# 5 0.000000 0.000000 0.000000 0.000000 0.235828 0.000000
# 6 0.000000 0.000000 0.000000 0.000000 0.000000 0.037322
#
#
# Mechanical properties :
#
#
# Convention : Reuss Voigt Hill
#
# Bulk Modulus (GPa) = 25.36346 48.07097 36.71722
# Shear Modulus (GPa) = 12.39077 27.67581 20.03329
#
# Velocity S-wave (km/s) = 2.37998 3.55693 3.02622
# Velocity P-wave (km/s) = 4.37574 6.23250 5.38476
#
# Compressibility (1/GPa) = 0.03942680
#
# Stress axis : x y z
#
# Youngs Moduli (GPa) = 21.56527 96.46297 125.82042
#
# Poissons Ratio (x) = 0.74441 0.38965
# Poissons Ratio (y) = 0.16642 0.22840
# Poissons Ratio (z) = 0.06678 0.17511
#
# Static dielectric constant tensor:
#      x y z
#    x 1.892730 0.000000 0.000000 
#    y 0.000000 1.804990 0.000000 
#    z 0.000000 0.000000 1.817640 
# 
# From -- ./inp_files/7305.got.cif
#   From: 2010.05.17/outbox.cif.g08.bks.cpg/sg65_4_cif.got.tgz:7305.got - 2010.06.03 17:01:31.
