data_PCOD9490923
_publ_section_title
;
Structure prediction by ZEFSAII (Michael W. Deem and Ramdas Pophale) SiO2 
 PCOD9490923
Probable space group: C M M M
;
_chemical_formula_sum "Si O2"
_cell_formula_units_Z 64
_cell_length_a 14.491031
_cell_length_b 15.308137
_cell_length_c 15.017889
_cell_angle_alpha 90.000000
_cell_angle_beta 90.000000
_cell_angle_gamma 90.000000
_cell_volume 3331.428646
_symmetry_space_group_name_H-M "C M M M"
_symmetry_group_IT_number 65
_symmetry_cell_setting 'orthorhombic'
loop_
_space_group_symop_operation_xyz
x,y,z
-x,-y,z
x,-y,-z
-x,y,-z
-x,-y,-z
x,y,-z
-x,y,z
x,-y,z
1/2+x,1/2+y,z
1/2-x,1/2-y,z
1/2+x,1/2-y,-z
1/2-x,1/2+y,-z
1/2-x,1/2-y,-z
1/2+x,1/2+y,-z
1/2-x,1/2+y,z
1/2+x,1/2-y,z
loop_
_atom_site_type_symbol
_atom_site_label
_atom_site_fract_x
_atom_site_fract_y
_atom_site_fract_z
Si Si1 0.304072 0.500000 0.601135
Si Si2 0.397514 0.000000 0.337885
Si Si3 0.895397 0.329357 0.213583
Si Si4 0.891331 0.138076 0.732959
Si Si5 0.233900 0.102252 0.898950
O O1 0.338198 0.500000 0.500000
O O2 0.193088 0.500000 0.602473
O O3 0.339946 0.583344 0.657076
O O4 0.391022 0.085294 0.275259
O O5 0.500000 0.000000 0.379705
O O6 0.877615 0.242380 0.270944
O O7 0.819121 0.341278 0.137844
O O8 0.000000 0.322093 0.177811
O O9 0.848349 0.112339 0.828324
O O10 0.000000 0.118998 0.729062
O O11 0.261960 0.000000 0.897364
O O12 0.208962 0.125083 0.000000
#
# Coordination Sequence:
#
# PCOD9490923 Si02
#       5
#     8   8  16  16  16
#     4  12  25  43  68  93 121 161 206 256 315 374
#     4  10  20  40  65  92 123 155 193 247 309 369
#     4  10  20  37  64  90 122 163 203 251 311 367
#     4  11  23  40  62  89 123 164 209 259 309 362
#     4  11  22  37  61  91 126 169 211 251 306 371
#
# _framework density 19.210975999999999
#
# number of rings (size 3 to 8) (size 9 to 14) (size 15 to 20)
#    0.000    1.250    5.000    1.125    0.000    4.250 
#    0.000    7.500    0.000    4.500    0.000    0.000 
#    0.000    0.000    0.000    0.000    0.000    0.000 
#
# Total GULP energy -178710.155973 kJ/mol
# GULP energy per Si atom -5584.692374 kJ/mol
# Density = 1.916725 g / cm^3
# Si number density = 19.210976 Si / 1000 Ang^3
#
#
#
# Elastic Constant Matrix: (Units=GPa)
#
#
# Indices 1 2 3 4 5 6 
#
# 1 123.3447 36.2327 60.5953 0.0000 0.0000 0.0000
# 2 36.2327 127.9956 50.7566 0.0000 0.0000 0.0000
# 3 60.5953 50.7566 129.4597 0.0000 0.0000 0.0000
# 4 0.0000 0.0000 0.0000 7.9529 0.0000 0.0000
# 5 0.0000 0.0000 0.0000 0.0000 0.7287 0.0000
# 6 0.0000 0.0000 0.0000 0.0000 0.0000 17.5490
#
#
#
# Elastic Compliance Matrix: (Units=1/GPa)
#
#
# Indices 1 2 3 4 5 6 
#
# 1 0.010690 -0.001234 -0.004520 0.000000 0.000000 0.000000
# 2 -0.001234 0.009393 -0.003105 0.000000 0.000000 0.000000
# 3 -0.004520 -0.003105 0.011058 0.000000 0.000000 0.000000
# 4 0.000000 0.000000 0.000000 0.125740 0.000000 0.000000
# 5 0.000000 0.000000 0.000000 0.000000 1.372301 0.000000
# 6 0.000000 0.000000 0.000000 0.000000 0.000000 0.056983
#
#
# Mechanical properties :
#
#
# Convention : Reuss Voigt Hill
#
# Bulk Modulus (GPa) = 74.49884 75.10769 74.80326
# Shear Modulus (GPa) = 3.10876 20.79382 11.95129
#
# Velocity S-wave (km/s) = 1.27347 3.29354 2.49691
# Velocity P-wave (km/s) = 6.40514 7.32423 6.88005
#
# Compressibility (1/GPa) = 0.01342303
#
# Stress axis : x y z
#
# Youngs Moduli (GPa) = 93.54246 106.45717 90.43579
#
# Poissons Ratio (x) = 0.13134 0.40877
# Poissons Ratio (y) = 0.11541 0.28083
# Poissons Ratio (z) = 0.42281 0.33059
#
# Static dielectric constant tensor:
#      x y z
#    x 1.685990 0.000000 0.000000 
#    y 0.000000 1.702420 0.000000 
#    z 0.000000 0.000000 1.626990 
# 
# From -- ./inp_files/39692.got.cif
#   From: 2010.05.17/outbox.cif.g08.bks.cpg/sg65_20_cif.got.tgz:39692.got - 2010.06.03 17:01:31.
