data_PCOD9490939
_publ_section_title
;
Structure prediction by ZEFSAII (Michael W. Deem and Ramdas Pophale) SiO2 
 PCOD9490939
Probable space group: C M M M
;
_chemical_formula_sum "Si O2"
_cell_formula_units_Z 76
_cell_length_a 24.093410
_cell_length_b 11.687069
_cell_length_c 14.866093
_cell_angle_alpha 90.000000
_cell_angle_beta 90.000000
_cell_angle_gamma 90.000000
_cell_volume 4186.014464
_symmetry_space_group_name_H-M "C M M M"
_symmetry_group_IT_number 65
_symmetry_cell_setting 'orthorhombic'
loop_
_space_group_symop_operation_xyz
x,y,z
-x,-y,z
x,-y,-z
-x,y,-z
-x,-y,-z
x,y,-z
-x,y,z
x,-y,z
1/2+x,1/2+y,z
1/2-x,1/2-y,z
1/2+x,1/2-y,-z
1/2-x,1/2+y,-z
1/2-x,1/2-y,-z
1/2+x,1/2+y,-z
1/2-x,1/2+y,z
1/2+x,1/2-y,z
loop_
_atom_site_type_symbol
_atom_site_label
_atom_site_fract_x
_atom_site_fract_y
_atom_site_fract_z
Si Si1 0.433494 0.137511 0.500000
Si Si2 0.500000 0.859800 0.197821
Si Si3 0.500000 0.827799 0.000000
Si Si4 0.629977 0.873387 0.000000
Si Si5 0.935181 0.000000 0.276654
Si Si6 0.100437 0.744470 0.313644
Si Si7 0.132543 0.000000 0.106183
Si Si8 0.184287 0.237973 0.163326
O O1 0.500000 0.164218 0.500000
O O2 0.405490 0.190487 0.588421
O O3 0.428653 0.000000 0.500000
O O4 0.446507 0.819941 0.253852
O O5 0.500000 0.000000 0.182415
O O6 0.500000 0.788171 0.104239
O O7 0.437061 0.877729 0.000000
O O8 0.653080 0.812542 0.088206
O O9 0.652523 0.000000 0.000000
O O10 0.911635 0.880847 0.315101
O O11 0.921268 0.000000 0.170050
O O12 0.000000 0.000000 0.292442
O O13 0.157918 0.731552 0.259847
O O14 0.167283 0.889820 0.135231
O O15 0.120647 0.000000 0.000000
O O16 0.250000 0.250000 0.160471
#
# Coordination Sequence:
#
# PCOD9490939 Si02
#       8
#     8   8   4   8   8  16   8  16
#     4  11  22  39  66  99 127 152 190 251 320 385
#     4  12  21  36  59  88 131 166 197 254 313 374
#     4  12  25  38  56  97 138 161 204 254 315 384
#     4  12  24  36  62  92 123 168 208 253 315 369
#     4  10  20  38  58  86 123 161 198 241 301 369
#     4  11  23  40  62  91 122 159 204 250 311 364
#     4  10  22  39  57  85 118 160 212 256 294 345
#     4  11  25  42  60  85 122 167 214 258 294 358
#
# _framework density 18.155695000000001
#
# number of rings (size 3 to 8) (size 9 to 14) (size 15 to 20)
#    0.000    0.947    5.263    1.895    1.474    1.474 
#    0.000    1.579    0.000    0.000    0.000    0.000 
#    0.000    0.000    0.000    0.000    0.000    0.000 
#
# Total GULP energy -211949.647665 kJ/mol
# GULP energy per Si atom -5577.622307 kJ/mol
# Density = 1.811437 g / cm^3
# Si number density = 18.155695 Si / 1000 Ang^3
#
#
#
# Elastic Constant Matrix: (Units=GPa)
#
#
# Indices 1 2 3 4 5 6 
#
# 1 95.3766 31.4172 37.2608 0.0000 0.0000 0.0000
# 2 31.4172 114.1361 45.6173 0.0000 0.0000 0.0000
# 3 37.2608 45.6173 166.4616 0.0000 0.0000 0.0000
# 4 0.0000 0.0000 0.0000-1510.5348 0.0000 0.0000
# 5 0.0000 0.0000 0.0000 0.0000 13.8961 0.0000
# 6 0.0000 0.0000 0.0000 0.0000 0.0000 12.6695
#
#
#
# Elastic Compliance Matrix: (Units=1/GPa)
#
#
# Indices 1 2 3 4 5 6 
#
# 1 0.012105 -0.002526 -0.002017 0.000000 0.000000 0.000000
# 2 -0.002526 0.010366 -0.002275 0.000000 0.000000 0.000000
# 3 -0.002017 -0.002275 0.007083 0.000000 0.000000 0.000000
# 4 0.000000 0.000000 0.000000 -0.000662 0.000000 0.000000
# 5 0.000000 0.000000 0.000000 0.000000 0.071963 0.000000
# 6 0.000000 0.000000 0.000000 0.000000 0.000000 0.078930
#
#
# Mechanical properties :
#
#
# Convention : Reuss Voigt Hill
#
# Bulk Modulus (GPa) = 62.82784 67.17389 65.00086
# Shear Modulus (GPa) = 25.16022 -279.34856 -127.09417
#
# Velocity S-wave (km/s) = 3.72668 -12.41760 -8.37582
# Velocity P-wave (km/s) = 7.29367 12.98139 7.59338
#
# Compressibility (1/GPa) = 0.01591651
#
# Stress axis : x y z
#
# Youngs Moduli (GPa) = 82.61149 96.46822 141.19272
#
# Poissons Ratio (x) = 0.24365 0.28484
# Poissons Ratio (y) = 0.20865 0.32127
# Poissons Ratio (z) = 0.16666 0.21950
#
# Static dielectric constant tensor:
#      x y z
#    x 1.598810 0.000000 0.000000 
#    y 0.000000 1.636910 0.000000 
#    z 0.000000 0.000000 1.618040 
# 
# From -- ./inp_files/45405.got.cif
#   From: 2010.05.17/outbox.cif.g08.bks.cpg/sg65_23_cif.got.tgz:45405.got - 2010.06.03 17:01:31.
