data_PCOD9490079
_publ_section_title
;
Structure prediction by ZEFSAII (Michael W. Deem and Ramdas Pophale) SiO2 
 PCOD9490079
Probable space group: C M M M
;
_chemical_formula_sum "Si O2"
_cell_formula_units_Z 96
_cell_length_a 20.432880
_cell_length_b 29.673572
_cell_length_c 9.190769
_cell_angle_alpha 90.000000
_cell_angle_beta 90.000000
_cell_angle_gamma 90.000000
_cell_volume 5572.515222
_symmetry_space_group_name_H-M "C M M M"
_symmetry_group_IT_number 65
_symmetry_cell_setting 'orthorhombic'
loop_
_space_group_symop_operation_xyz
x,y,z
-x,-y,z
x,-y,-z
-x,y,-z
-x,-y,-z
x,y,-z
-x,y,z
x,-y,z
1/2+x,1/2+y,z
1/2-x,1/2-y,z
1/2+x,1/2-y,-z
1/2-x,1/2+y,-z
1/2-x,1/2-y,-z
1/2+x,1/2+y,-z
1/2-x,1/2+y,z
1/2+x,1/2-y,z
loop_
_atom_site_type_symbol
_atom_site_label
_atom_site_fract_x
_atom_site_fract_y
_atom_site_fract_z
Si Si1 0.422686 0.624908 0.175855
Si Si2 0.691284 0.808841 0.173597
Si Si3 0.328656 0.446924 0.324119
Si Si4 0.155184 0.786990 0.173703
Si Si5 0.926961 0.553903 0.164736
Si Si6 0.189283 0.596949 0.327387
O O1 0.500000 0.623708 0.206912
O O2 0.383943 0.583769 0.249630
O O3 0.390686 0.672510 0.227271
O O4 0.414255 0.622210 0.000000
O O5 0.768900 0.800056 0.194590
O O6 0.651508 0.764701 0.226972
O O7 0.677798 0.854687 0.255409
O O8 0.680876 0.813607 0.000000
O O9 0.334292 0.443951 0.500000
O O10 0.332266 0.500000 0.285166
O O11 0.258113 0.425853 0.281329
O O12 0.144135 0.784506 0.000000
O O13 0.929662 0.500000 0.159574
O O14 0.871259 0.567405 0.275269
O O15 0.000000 0.570394 0.202661
O O16 0.911413 0.569795 0.000000
O O17 0.191439 0.601105 0.500000
#
# Coordination Sequence:
#
# PCOD9490079 Si02
#       6
#    16  16  16  16  16  16
#     4  10  20  35  56  80 105 134 175 228 279 322
#     4   9  16  30  54  77 102 136 173 213 257 311
#     4  10  22  38  53  73 105 144 184 221 262 319
#     4   8  15  30  52  77 102 132 171 215 261 312
#     4   9  19  36  56  77 102 136 178 218 259 314
#     4  11  21  33  52  81 112 142 174 218 267 312
#
# _framework density 17.227409999999999
#
# number of rings (size 3 to 8) (size 9 to 14) (size 15 to 20)
#    0.000    2.500    1.667    2.500    0.000    3.000 
#    0.000    5.833    0.000    3.000    0.000    0.000 
#    0.000    0.000    0.000    0.000    0.000    0.000 
#
# Total GULP energy -267395.727135 kJ/mol
# GULP energy per Si atom -5570.744315 kJ/mol
# Density = 1.718820 g / cm^3
# Si number density = 17.227410 Si / 1000 Ang^3
#
#
#
# Elastic Constant Matrix: (Units=GPa)
#
#
# Indices 1 2 3 4 5 6 
#
# 1 84.0048 59.5632 28.3650 0.0000 0.0000 0.0000
# 2 59.5632 135.8980 29.1646 0.0000 0.0000 0.0000
# 3 28.3650 29.1646 17.9318 0.0000 0.0000 0.0000
# 4 0.0000 0.0000 0.0000 -4.7173 0.0000 0.0000
# 5 0.0000 0.0000 0.0000 0.0000 17.0696 0.0000
# 6 0.0000 0.0000 0.0000 0.0000 0.0000 25.1073
#
#
#
# Elastic Compliance Matrix: (Units=1/GPa)
#
#
# Indices 1 2 3 4 5 6 
#
# 1 0.026956 -0.004092 -0.035984 0.000000 0.000000 0.000000
# 2 -0.004092 0.011925 -0.012922 0.000000 0.000000 0.000000
# 3 -0.035984 -0.012922 0.133705 0.000000 0.000000 0.000000
# 4 0.000000 0.000000 0.000000 -0.211985 0.000000 0.000000
# 5 0.000000 0.000000 0.000000 0.000000 0.058584 0.000000
# 6 0.000000 0.000000 0.000000 0.000000 0.000000 0.039829
#
#
# Mechanical properties :
#
#
# Convention : Reuss Voigt Hill
#
# Bulk Modulus (GPa) = 15.01754 52.44669 33.73211
# Shear Modulus (GPa) = 26.70828 15.54136 21.12482
#
# Velocity S-wave (km/s) = 3.94170 3.00681 3.50556
# Velocity P-wave (km/s) = 5.42699 6.52414 6.00069
#
# Compressibility (1/GPa) = 0.06658881
#
# Stress axis : x y z
#
# Youngs Moduli (GPa) = 37.09745 83.85557 7.47916
#
# Poissons Ratio (x) = 0.34316 0.26913
# Poissons Ratio (y) = 0.15181 0.09665
# Poissons Ratio (z) = 1.33492 1.08361
#
# Static dielectric constant tensor:
#      x y z
#    x 1.473590 0.000000 0.000000 
#    y 0.000000 1.592120 0.000000 
#    z 0.000000 0.000000 1.578690 
# 
# From -- ./inp_files/12240.got.cif
#   From: 2010.05.17/outbox.cif.g08.bks.cpg/sg65_7_cif.got.tgz:12240.got - 2010.06.03 17:01:31.
