data_PCOD9490669
_publ_section_title
;
Structure prediction by ZEFSAII (Michael W. Deem and Ramdas Pophale) SiO2 
 PCOD9490669
Probable space group: C M M M
;
_chemical_formula_sum "Si O2"
_cell_formula_units_Z 92
_cell_length_a 21.402989
_cell_length_b 15.559027
_cell_length_c 15.331098
_cell_angle_alpha 90.000000
_cell_angle_beta 90.000000
_cell_angle_gamma 90.000000
_cell_volume 5105.404096
_symmetry_space_group_name_H-M "C M M M"
_symmetry_group_IT_number 65
_symmetry_cell_setting 'orthorhombic'
loop_
_space_group_symop_operation_xyz
x,y,z
-x,-y,z
x,-y,-z
-x,y,-z
-x,-y,-z
x,y,-z
-x,y,z
x,-y,z
1/2+x,1/2+y,z
1/2-x,1/2-y,z
1/2+x,1/2-y,-z
1/2-x,1/2+y,-z
1/2-x,1/2-y,-z
1/2+x,1/2+y,-z
1/2-x,1/2+y,z
1/2+x,1/2-y,z
loop_
_atom_site_type_symbol
_atom_site_label
_atom_site_fract_x
_atom_site_fract_y
_atom_site_fract_z
Si Si1 0.427957 0.188705 0.656318
Si Si2 0.198224 0.403024 0.899762
Si Si3 0.924470 0.500000 0.599627
Si Si4 0.318654 0.402285 0.222144
Si Si5 0.186966 0.192979 0.598493
Si Si6 0.500000 0.264780 0.000000
Si Si7 0.398026 0.245070 0.151777
O O1 0.500000 0.198493 0.623166
O O2 0.407016 0.089765 0.643704
O O3 0.375395 0.248773 0.612098
O O4 0.427523 0.211171 0.758208
O O5 0.170961 0.500000 0.892923
O O6 0.253559 0.396908 0.829931
O O7 0.149697 0.328355 0.879821
O O8 0.221294 0.393976 0.000000
O O9 0.901805 0.500000 0.500000
O O10 0.000000 0.500000 0.598359
O O11 0.341742 0.500000 0.215207
O O12 0.311666 0.375019 0.322965
O O13 0.362909 0.332644 0.177140
O O14 0.186226 0.157644 0.500000
O O15 0.250000 0.250000 0.607437
O O16 0.553619 0.261899 0.923823
#
# Coordination Sequence:
#
# PCOD9490669 Si02
#       7
#    16  16   8  16  16   4  16
#     4  10  20  36  59  86 120 157 196 241 297 356
#     4  10  21  37  61  91 118 150 194 240 296 362
#     4   9  18  32  54  86 116 148 193 235 281 356
#     4  10  22  40  63  88 115 153 201 252 304 351
#     4  10  21  39  61  88 122 158 197 246 307 367
#     4  12  24  40  60  84 120 168 204 234 310 356
#     4  11  22  39  58  86 121 157 194 249 293 358
#
# _framework density 18.020121
#
# number of rings (size 3 to 8) (size 9 to 14) (size 15 to 20)
#    0.000    1.826    1.739    3.130    2.435    2.087 
#    1.565    1.739    0.000    0.000    0.000    2.435 
#    0.000    0.000    0.000    0.000    0.000    0.000 
#
# Total GULP energy -256084.893143 kJ/mol
# GULP energy per Si atom -5567.062894 kJ/mol
# Density = 1.797911 g / cm^3
# Si number density = 18.020121 Si / 1000 Ang^3
#
#
#
# Elastic Constant Matrix: (Units=GPa)
#
#
# Indices 1 2 3 4 5 6 
#
# 1 80.9979 51.5310 45.7858 0.0000 0.0000 0.0000
# 2 51.5310 105.6338 47.1662 0.0000 0.0000 0.0000
# 3 45.7858 47.1662 129.6905 0.0000 0.0000 0.0000
# 4 0.0000 0.0000 0.0000 18.9795 0.0000 0.0000
# 5 0.0000 0.0000 0.0000 0.0000 20.9621 0.0000
# 6 0.0000 0.0000 0.0000 0.0000 0.0000 6.8093
#
#
#
# Elastic Compliance Matrix: (Units=1/GPa)
#
#
# Indices 1 2 3 4 5 6 
#
# 1 0.019576 -0.007717 -0.004104 0.000000 0.000000 0.000000
# 2 -0.007717 0.014344 -0.002492 0.000000 0.000000 0.000000
# 3 -0.004104 -0.002492 0.010066 0.000000 0.000000 0.000000
# 4 0.000000 0.000000 0.000000 0.052688 0.000000 0.000000
# 5 0.000000 0.000000 0.000000 0.000000 0.047705 0.000000
# 6 0.000000 0.000000 0.000000 0.000000 0.000000 0.146858
#
#
# Mechanical properties :
#
#
# Convention : Reuss Voigt Hill
#
# Bulk Modulus (GPa) = 65.11070 67.25426 66.18248
# Shear Modulus (GPa) = 15.38537 20.80613 18.09575
#
# Velocity S-wave (km/s) = 2.92514 3.40163 3.17234
# Velocity P-wave (km/s) = 6.90067 7.26849 7.08697
#
# Compressibility (1/GPa) = 0.01535846
#
# Stress axis : x y z
#
# Youngs Moduli (GPa) = 51.08403 69.71567 99.34317
#
# Poissons Ratio (x) = 0.53798 0.40775
# Poissons Ratio (y) = 0.39421 0.24760
# Poissons Ratio (z) = 0.20967 0.17375
#
# Static dielectric constant tensor:
#      x y z
#    x 1.609210 0.000000 0.000000 
#    y 0.000000 1.607120 0.000000 
#    z 0.000000 0.000000 1.612850 
# 
# From -- ./inp_files/40449.got.cif
#   From: 2010.05.17/outbox.cif.g08.bks.cpg/sg65_21_cif.got.tgz:40449.got - 2010.06.03 17:01:31.
