data_PCOD9490407
_publ_section_title
;
Structure prediction by ZEFSAII (Michael W. Deem and Ramdas Pophale) SiO2 
 PCOD9490407
Probable space group: C M M M
;
_chemical_formula_sum "Si O2"
_cell_formula_units_Z 56
_cell_length_a 14.548053
_cell_length_b 9.361255
_cell_length_c 20.760014
_cell_angle_alpha 90.000000
_cell_angle_beta 90.000000
_cell_angle_gamma 90.000000
_cell_volume 2827.265490
_symmetry_space_group_name_H-M "C M M M"
_symmetry_group_IT_number 65
_symmetry_cell_setting 'orthorhombic'
loop_
_space_group_symop_operation_xyz
x,y,z
-x,-y,z
x,-y,-z
-x,y,-z
-x,-y,-z
x,y,-z
-x,y,z
x,-y,z
1/2+x,1/2+y,z
1/2-x,1/2-y,z
1/2+x,1/2-y,-z
1/2-x,1/2+y,-z
1/2-x,1/2-y,-z
1/2+x,1/2+y,-z
1/2-x,1/2+y,z
1/2+x,1/2-y,z
loop_
_atom_site_type_symbol
_atom_site_label
_atom_site_fract_x
_atom_site_fract_y
_atom_site_fract_z
Si Si1 0.805462 0.000000 0.073272
Si Si2 0.352038 0.321775 0.500000
Si Si3 0.147872 0.777845 0.817698
Si Si4 0.500000 0.347694 0.285432
Si Si5 0.902268 0.500000 0.110931
Si Si6 0.000000 0.326170 0.591194
O O1 0.839270 0.130714 0.116990
O O2 0.694072 0.000000 0.072812
O O3 0.838834 0.000000 0.000000
O O4 0.350694 0.500000 0.500000
O O5 0.250000 0.250000 0.500000
O O6 0.411460 0.253286 0.559142
O O7 0.250000 0.750000 0.792507
O O8 0.102812 0.634340 0.842355
O O9 0.086475 0.843199 0.762379
O O10 0.500000 0.500000 0.321434
O O11 0.500000 0.216113 0.334033
O O12 0.000000 0.500000 0.075529
O O13 0.000000 0.500000 0.580931
#
# Coordination Sequence:
#
# PCOD9490407 Si02
#       6
#     8   8  16   8   8   8
#     4  10  22  42  60  82 117 161 206 262 336 413
#     4  11  22  45  74 104 152 185 224 271 322 384
#     4  10  22  39  61  86 120 160 204 268 328 393
#     4  12  23  41  64  90 126 172 223 261 325 397
#     4  10  20  35  61  85 118 148 199 262 337 384
#     4  11  25  42  67 106 140 182 229 282 328 385
#
# _framework density 19.807123000000001
#
# number of rings (size 3 to 8) (size 9 to 14) (size 15 to 20)
#    0.000    1.429    2.857    3.429    2.000    6.571 
#    0.000    4.286    0.000    0.000    0.000    0.000 
#    0.000    0.000    0.000    0.000    0.000    0.000 
#
# Total GULP energy -156037.034515 kJ/mol
# GULP energy per Si atom -5572.751233 kJ/mol
# Density = 1.976204 g / cm^3
# Si number density = 19.807123 Si / 1000 Ang^3
#
#
#
# Elastic Constant Matrix: (Units=GPa)
#
#
# Indices 1 2 3 4 5 6 
#
# 1 155.9808 56.4187 51.7288 0.0000 0.0000 0.0000
# 2 56.4187 179.9077 38.5922 0.0000 0.0000 0.0000
# 3 51.7288 38.5922 104.1635 0.0000 0.0000 0.0000
# 4 0.0000 0.0000 0.0000 9.2274 0.0000 0.0000
# 5 0.0000 0.0000 0.0000 0.0000 10.2696 0.0000
# 6 0.0000 0.0000 0.0000 0.0000 0.0000 11.0325
#
#
#
# Elastic Compliance Matrix: (Units=1/GPa)
#
#
# Indices 1 2 3 4 5 6 
#
# 1 0.008203 -0.001845 -0.003390 0.000000 0.000000 0.000000
# 2 -0.001845 0.006453 -0.001475 0.000000 0.000000 0.000000
# 3 -0.003390 -0.001475 0.011830 0.000000 0.000000 0.000000
# 4 0.000000 0.000000 0.000000 0.108372 0.000000 0.000000
# 5 0.000000 0.000000 0.000000 0.000000 0.097375 0.000000
# 6 0.000000 0.000000 0.000000 0.000000 0.000000 0.090642
#
#
# Mechanical properties :
#
#
# Convention : Reuss Voigt Hill
#
# Bulk Modulus (GPa) = 76.53017 81.50349 79.01683
# Shear Modulus (GPa) = 14.67782 25.66004 20.16893
#
# Velocity S-wave (km/s) = 2.72515 3.60320 3.19449
# Velocity P-wave (km/s) = 6.97306 7.65171 7.32025
#
# Compressibility (1/GPa) = 0.01306674
#
# Stress axis : x y z
#
# Youngs Moduli (GPa) = 121.91157 154.95780 84.53013
#
# Poissons Ratio (x) = 0.28592 0.28655
# Poissons Ratio (y) = 0.22495 0.12465
# Poissons Ratio (z) = 0.41327 0.22850
#
# Static dielectric constant tensor:
#      x y z
#    x 1.725100 0.000000 0.000000 
#    y 0.000000 1.340200 0.000000 
#    z 0.000000 0.000000 1.663010 
# 
# From -- ./inp_files/69485.got.cif
#   From: 2010.05.17/outbox.cif.g08.bks.cpg/sg65_35_cif.got.tgz:69485.got - 2010.06.03 17:01:31.
