data_PCOD9490950
_publ_section_title
;
Structure prediction by ZEFSAII (Michael W. Deem and Ramdas Pophale) SiO2 
 PCOD9490950
Probable space group: C M M M
;
_chemical_formula_sum "Si O2"
_cell_formula_units_Z 120
_cell_length_a 19.158253
_cell_length_b 23.933834
_cell_length_c 13.439287
_cell_angle_alpha 90.000000
_cell_angle_beta 90.000000
_cell_angle_gamma 90.000000
_cell_volume 6162.322276
_symmetry_space_group_name_H-M "C M M M"
_symmetry_group_IT_number 65
_symmetry_cell_setting 'orthorhombic'
loop_
_space_group_symop_operation_xyz
x,y,z
-x,-y,z
x,-y,-z
-x,y,-z
-x,-y,-z
x,y,-z
-x,y,z
x,-y,z
1/2+x,1/2+y,z
1/2-x,1/2-y,z
1/2+x,1/2-y,-z
1/2-x,1/2+y,-z
1/2-x,1/2-y,-z
1/2+x,1/2+y,-z
1/2-x,1/2+y,z
1/2+x,1/2-y,z
loop_
_atom_site_type_symbol
_atom_site_label
_atom_site_fract_x
_atom_site_fract_y
_atom_site_fract_z
Si Si1 0.918770 0.303800 0.114335
Si Si2 0.915783 0.112606 0.270159
Si Si3 0.584620 0.500000 0.612073
Si Si4 0.316528 0.886117 0.775893
Si Si5 0.580985 0.262738 0.687825
Si Si6 0.685379 0.565366 0.116780
Si Si7 0.795458 0.305295 0.390834
Si Si8 0.578311 0.932983 0.613202
O O1 0.864955 0.351767 0.147611
O O2 0.910594 0.254973 0.196139
O O3 0.000000 0.322621 0.121923
O O4 0.906582 0.286967 0.000000
O O5 0.895911 0.057853 0.334452
O O6 0.899164 0.172079 0.321342
O O7 0.872777 0.103578 0.169308
O O8 0.000000 0.112120 0.254361
O O9 0.500000 0.500000 0.609729
O O10 0.611520 0.500000 0.500000
O O11 0.259823 0.923282 0.831292
O O12 0.276751 0.843462 0.702323
O O13 0.368003 0.915741 0.697713
O O14 0.500000 0.257314 0.661179
O O15 0.626540 0.218452 0.626950
O O16 0.666383 0.500000 0.128966
O O17 0.690584 0.577294 0.000000
O O18 0.786862 0.331041 0.500000
O O19 0.750000 0.250000 0.387415
O O20 0.595801 0.915135 0.500000
O O21 0.500000 0.911994 0.635925
O O22 0.575856 0.000000 0.611535
#
# Coordination Sequence:
#
# PCOD9490950 Si02
#       8
#    16  16   8  16  16  16  16  16
#     4   9  18  33  53  79 109 140 179 222 266 322
#     4  10  20  38  61  83 112 147 185 231 284 340
#     4   9  18  34  57  83 109 139 175 216 266 327
#     4  11  20  35  56  77 107 146 184 225 277 332
#     4   9  19  34  55  83 111 142 178 222 273 324
#     4  11  24  39  56  80 110 144 188 242 296 342
#     4  10  21  36  53  76 108 144 180 219 264 320
#     4   9  18  33  54  81 111 142 178 222 272 328
#
# _framework density 19.473178999999998
#
# number of rings (size 3 to 8) (size 9 to 14) (size 15 to 20)
#    0.000    2.200    0.667    2.800    0.000    2.133 
#    0.000    4.667    0.000    4.400    0.000    5.600 
#    0.000    0.000    0.000    0.000    0.000    0.000 
#
# Total GULP energy -334710.105723 kJ/mol
# GULP energy per Si atom -5578.501762 kJ/mol
# Density = 1.942886 g / cm^3
# Si number density = 19.473179 Si / 1000 Ang^3
#
#
#
# Elastic Constant Matrix: (Units=GPa)
#
#
# Indices 1 2 3 4 5 6 
#
# 1 35.1823 -8.7825 3.2664 0.0000 0.0000 0.0000
# 2 -8.7825 24.6399 -10.5098 0.0000 0.0000 0.0000
# 3 3.2664 -10.5098 77.2336 0.0000 0.0000 0.0000
# 4 0.0000 0.0000 0.0000 14.1284 0.0000 0.0000
# 5 0.0000 0.0000 0.0000 0.0000 176.0579 0.0000
# 6 0.0000 0.0000 0.0000 0.0000 0.0000 31.5016
#
#
#
# Elastic Compliance Matrix: (Units=1/GPa)
#
#
# Indices 1 2 3 4 5 6 
#
# 1 0.031202 0.011209 0.000206 0.000000 0.000000 0.000000
# 2 0.011209 0.047112 0.005937 0.000000 0.000000 0.000000
# 3 0.000206 0.005937 0.013747 0.000000 0.000000 0.000000
# 4 0.000000 0.000000 0.000000 0.070780 0.000000 0.000000
# 5 0.000000 0.000000 0.000000 0.000000 0.005680 0.000000
# 6 0.000000 0.000000 0.000000 0.000000 0.000000 0.031744
#
#
# Mechanical properties :
#
#
# Convention : Reuss Voigt Hill
#
# Bulk Modulus (GPa) = 7.88858 11.66712 9.77785
# Shear Modulus (GPa) = 24.05964 54.54302 39.30133
#
# Velocity S-wave (km/s) = 3.51882 5.29812 4.49734
# Velocity P-wave (km/s) = 4.53533 6.59024 5.65687
#
# Compressibility (1/GPa) = 0.12676558
#
# Stress axis : x y z
#
# Youngs Moduli (GPa) = 32.04880 21.22586 72.74364
#
# Poissons Ratio (x) = -0.23793 -0.01496
# Poissons Ratio (y) = -0.35925 -0.43187
# Poissons Ratio (z) = -0.00659 -0.12602
#
# Static dielectric constant tensor:
#      x y z
#    x 1.704230 0.000000 0.000000 
#    y 0.000000 1.684010 0.000000 
#    z 0.000000 0.000000 1.665770 
# 
# From -- ./inp_files/29428.got.cif
#   From: 2010.05.17/outbox.cif.g08.bks.cpg/sg65_15_cif.got.tgz:29428.got - 2010.06.03 17:01:31.
