data_PCOD9490511
_publ_section_title
;
Structure prediction by ZEFSAII (Michael W. Deem and Ramdas Pophale) SiO2 
 PCOD9490511
Probable space group: C M M M
;
_chemical_formula_sum "Si O2"
_cell_formula_units_Z 48
_cell_length_a 8.559996
_cell_length_b 14.701882
_cell_length_c 20.120442
_cell_angle_alpha 90.000000
_cell_angle_beta 90.000000
_cell_angle_gamma 90.000000
_cell_volume 2532.118413
_symmetry_space_group_name_H-M "C M M M"
_symmetry_group_IT_number 65
_symmetry_cell_setting 'orthorhombic'
loop_
_space_group_symop_operation_xyz
x,y,z
-x,-y,z
x,-y,-z
-x,y,-z
-x,-y,-z
x,y,-z
-x,y,z
x,-y,z
1/2+x,1/2+y,z
1/2-x,1/2-y,z
1/2+x,1/2-y,-z
1/2-x,1/2+y,-z
1/2-x,1/2-y,-z
1/2+x,1/2+y,-z
1/2-x,1/2+y,z
1/2+x,1/2-y,z
loop_
_atom_site_type_symbol
_atom_site_label
_atom_site_fract_x
_atom_site_fract_y
_atom_site_fract_z
Si Si1 0.312944 0.647159 0.000000
Si Si2 0.311549 0.646726 0.500000
Si Si3 0.188398 0.500000 0.898652
Si Si4 0.312230 0.647351 0.354619
Si Si5 0.313284 0.000000 0.255044
O O1 0.250000 0.750000 0.000000
O O2 0.252133 0.588595 0.062873
O O3 0.500000 0.647929 0.000000
O O4 0.500000 0.646030 0.500000
O O5 0.250000 0.750000 0.500000
O O6 0.263142 0.609653 0.427889
O O7 0.236616 0.500000 0.821742
O O8 0.000000 0.500000 0.903133
O O9 0.500000 0.647528 0.352405
O O10 0.250000 0.750000 0.349501
O O11 0.248017 0.586547 0.295556
O O12 0.500000 0.000000 0.256068
#
# Coordination Sequence:
#
# PCOD9490511 Si02
#       5
#     8   8   8  16   8
#     4  11  22  39  66  94 118 147 184 223 270 328
#     4   8  16  31  52  77 104 140 186 237 288 335
#     4  10  22  41  61  85 119 151 186 232 274 322
#     4  10  20  36  57  80 110 147 190 239 289 340
#     4  11  24  39  56  82 116 153 190 229 278 334
#
# _framework density 18.956458999999999
#
# number of rings (size 3 to 8) (size 9 to 14) (size 15 to 20)
#    0.000    2.000    0.000    4.500    0.000    6.000 
#    0.000    3.333    0.000    0.000    0.000    0.000 
#    0.000    0.000    0.000    0.000    0.000    0.000 
#
# Total GULP energy -133958.751405 kJ/mol
# GULP energy per Si atom -5581.614642 kJ/mol
# Density = 1.891331 g / cm^3
# Si number density = 18.956459 Si / 1000 Ang^3
#
#
#
# Elastic Constant Matrix: (Units=GPa)
#
#
# Indices 1 2 3 4 5 6 
#
# 1 73.7227 40.9955 62.4197 0.0000 0.0000 0.0000
# 2 40.9955 149.8070 99.6701 0.0000 0.0000 0.0000
# 3 62.4197 99.6701 229.2956 0.0000 0.0000 0.0000
# 4 0.0000 0.0000 0.0000 15.6864 0.0000 0.0000
# 5 0.0000 0.0000 0.0000 0.0000 29.8337 0.0000
# 6 0.0000 0.0000 0.0000 0.0000 0.0000 31.7390
#
#
#
# Elastic Compliance Matrix: (Units=1/GPa)
#
#
# Indices 1 2 3 4 5 6 
#
# 1 0.018206 -0.002370 -0.003926 0.000000 0.000000 0.000000
# 2 -0.002370 0.009700 -0.003571 0.000000 0.000000 0.000000
# 3 -0.003926 -0.003571 0.006982 0.000000 0.000000 0.000000
# 4 0.000000 0.000000 0.000000 0.063749 0.000000 0.000000
# 5 0.000000 0.000000 0.000000 0.000000 0.033519 0.000000
# 6 0.000000 0.000000 0.000000 0.000000 0.000000 0.031507
#
#
# Mechanical properties :
#
#
# Convention : Reuss Voigt Hill
#
# Bulk Modulus (GPa) = 65.98967 95.44398 80.71682
# Shear Modulus (GPa) = 26.53229 32.10116 29.31672
#
# Velocity S-wave (km/s) = 3.74524 4.11958 3.93686
# Velocity P-wave (km/s) = 7.32046 8.54905 7.95850
#
# Compressibility (1/GPa) = 0.01515389
#
# Stress axis : x y z
#
# Youngs Moduli (GPa) = 54.92573 103.09482 143.22193
#
# Poissons Ratio (x) = 0.24436 0.56227
# Poissons Ratio (y) = 0.13019 0.51145
# Poissons Ratio (z) = 0.21563 0.36816
#
# Static dielectric constant tensor:
#      x y z
#    x 1.639530 0.000000 0.000000 
#    y 0.000000 1.627110 0.000000 
#    z 0.000000 0.000000 1.673710 
# 
# From -- ./inp_files/48546.got.cif
#   From: 2010.05.17/outbox.cif.g08.bks.cpg/sg65_25_cif.got.tgz:48546.got - 2010.06.03 17:01:31.
