data_PCOD9490818
_publ_section_title
;
Structure prediction by ZEFSAII (Michael W. Deem and Ramdas Pophale) SiO2 
 PCOD9490818
Probable space group: C M M M
;
_chemical_formula_sum "Si O2"
_cell_formula_units_Z 84
_cell_length_a 14.387353
_cell_length_b 26.299015
_cell_length_c 12.753230
_cell_angle_alpha 90.000000
_cell_angle_beta 90.000000
_cell_angle_gamma 90.000000
_cell_volume 4825.480603
_symmetry_space_group_name_H-M "C M M M"
_symmetry_group_IT_number 65
_symmetry_cell_setting 'orthorhombic'
loop_
_space_group_symop_operation_xyz
x,y,z
-x,-y,z
x,-y,-z
-x,y,-z
-x,-y,-z
x,y,-z
-x,y,z
x,-y,z
1/2+x,1/2+y,z
1/2-x,1/2-y,z
1/2+x,1/2-y,-z
1/2-x,1/2+y,-z
1/2-x,1/2-y,-z
1/2+x,1/2+y,-z
1/2-x,1/2+y,z
1/2+x,1/2-y,z
loop_
_atom_site_type_symbol
_atom_site_label
_atom_site_fract_x
_atom_site_fract_y
_atom_site_fract_z
Si Si1 0.110075 0.617129 0.289192
Si Si2 0.392877 0.500000 0.127199
Si Si3 0.606987 0.304348 0.118902
Si Si4 0.387272 0.057945 0.500000
Si Si5 0.000000 0.763625 0.500000
Si Si6 0.143872 0.736957 0.318264
Si Si7 0.766885 0.096430 0.875818
O O1 0.139306 0.587158 0.394327
O O2 0.125314 0.676823 0.311086
O O3 0.174503 0.599475 0.193531
O O4 0.000000 0.608530 0.270474
O O5 0.500000 0.500000 0.164978
O O6 0.334164 0.450030 0.156769
O O7 0.397549 0.500000 0.000000
O O8 0.500000 0.322561 0.124499
O O9 0.621503 0.261642 0.205498
O O10 0.675978 0.351227 0.137882
O O11 0.622578 0.285353 0.000000
O O12 0.500000 0.057349 0.500000
O O13 0.353987 0.000000 0.500000
O O14 0.920198 0.760258 0.592227
O O15 0.250000 0.750000 0.341578
O O16 0.746436 0.090768 0.000000
#
# Coordination Sequence:
#
# PCOD9490818 Si02
#       7
#    16   8  16   8   4  16  16
#     4  11  22  38  60  85 120 158 200 249 304 354
#     4   9  18  36  61  88 117 154 197 244 299 352
#     4  10  20  37  59  86 120 156 199 249 299 359
#     4   9  21  40  61  81 103 146 208 254 288 344
#     4  12  24  40  58  80 119 157 202 250 304 356
#     4  12  23  39  60  87 118 162 201 250 305 361
#     4  10  21  36  59  90 122 156 199 244 299 368
#
# _framework density 17.407592999999999
#
# number of rings (size 3 to 8) (size 9 to 14) (size 15 to 20)
#    0.000    1.524    3.810    1.429    2.667    3.810 
#    0.000    0.000    0.000    1.714    0.000    0.667 
#    0.000    0.000    0.000    0.000    0.000    0.000 
#
# Total GULP energy -233906.973835 kJ/mol
# GULP energy per Si atom -5569.213663 kJ/mol
# Density = 1.736797 g / cm^3
# Si number density = 17.407593 Si / 1000 Ang^3
#
#
#
# Elastic Constant Matrix: (Units=GPa)
#
#
# Indices 1 2 3 4 5 6 
#
# 1 136.2678 25.5158 64.3434 0.0000 0.0000 0.0000
# 2 25.5158 95.0381 63.2234 0.0000 0.0000 0.0000
# 3 64.3434 63.2234 124.9479 0.0000 0.0000 0.0000
# 4 0.0000 0.0000 0.0000 39.4142 0.0000 0.0000
# 5 0.0000 0.0000 0.0000 0.0000 34.6817 0.0000
# 6 0.0000 0.0000 0.0000 0.0000 0.0000 -3.2252
#
#
#
# Elastic Compliance Matrix: (Units=1/GPa)
#
#
# Indices 1 2 3 4 5 6 
#
# 1 0.009771 0.001091 -0.005584 0.000000 0.000000 0.000000
# 2 0.001091 0.015983 -0.008649 0.000000 0.000000 0.000000
# 3 -0.005584 -0.008649 0.015255 0.000000 0.000000 0.000000
# 4 0.000000 0.000000 0.000000 0.025372 0.000000 0.000000
# 5 0.000000 0.000000 0.000000 0.000000 0.028834 0.000000
# 6 0.000000 0.000000 0.000000 0.000000 0.000000 -0.310060
#
#
# Mechanical properties :
#
#
# Convention : Reuss Voigt Hill
#
# Bulk Modulus (GPa) = 67.90966 73.60212 70.75589
# Shear Modulus (GPa) = -27.22517 27.71889 0.24686
#
# Velocity S-wave (km/s) = -3.95901 3.99475 0.37699
# Velocity P-wave (km/s) = 4.26589 7.97814 6.39721
#
# Compressibility (1/GPa) = 0.01472545
#
# Stress axis : x y z
#
# Youngs Moduli (GPa) = 102.34692 62.56635 65.55101
#
# Poissons Ratio (x) = -0.06828 0.36602
# Poissons Ratio (y) = -0.11169 0.56697
# Poissons Ratio (z) = 0.57148 0.54116
#
# Static dielectric constant tensor:
#      x y z
#    x 1.565980 0.000000 0.000000 
#    y 0.000000 1.587160 0.000000 
#    z 0.000000 0.000000 1.573520 
# 
# From -- ./inp_files/24851.got.cif
#   From: 2010.05.17/outbox.cif.g08.bks.cpg/sg65_13_cif.got.tgz:24851.got - 2010.06.03 17:01:31.
