data_PCOD9490656
_publ_section_title
;
Structure prediction by ZEFSAII (Michael W. Deem and Ramdas Pophale) SiO2 
 PCOD9490656
Probable space group: C M M M
;
_chemical_formula_sum "Si O2"
_cell_formula_units_Z 72
_cell_length_a 16.343594
_cell_length_b 8.669871
_cell_length_c 26.003086
_cell_angle_alpha 90.000000
_cell_angle_beta 90.000000
_cell_angle_gamma 90.000000
_cell_volume 3684.555420
_symmetry_space_group_name_H-M "C M M M"
_symmetry_group_IT_number 65
_symmetry_cell_setting 'orthorhombic'
loop_
_space_group_symop_operation_xyz
x,y,z
-x,-y,z
x,-y,-z
-x,y,-z
-x,-y,-z
x,y,-z
-x,y,z
x,-y,z
1/2+x,1/2+y,z
1/2-x,1/2-y,z
1/2+x,1/2-y,-z
1/2-x,1/2+y,-z
1/2-x,1/2-y,-z
1/2+x,1/2+y,-z
1/2-x,1/2+y,z
1/2+x,1/2-y,z
loop_
_atom_site_type_symbol
_atom_site_label
_atom_site_fract_x
_atom_site_fract_y
_atom_site_fract_z
Si Si1 0.000000 0.182287 0.938507
Si Si2 0.841221 0.683661 0.444707
Si Si3 0.403592 0.328121 0.659104
Si Si4 0.656195 0.185034 0.878874
Si Si5 0.341353 0.686555 0.769146
O O1 0.915739 0.256264 0.916587
O O2 0.000000 0.000000 0.925304
O O3 0.000000 0.198229 0.000000
O O4 0.879522 0.733038 0.500000
O O5 0.838715 0.500000 0.444576
O O6 0.750000 0.750000 0.444453
O O7 0.880696 0.737671 0.391914
O O8 0.500000 0.342240 0.659362
O O9 0.365432 0.500000 0.655261
O O10 0.380357 0.264271 0.715033
O O11 0.750000 0.250000 0.887602
O O12 0.627087 0.242177 0.822307
O O13 0.661682 0.000000 0.880166
O O14 0.345093 0.500000 0.772774
O O15 0.250000 0.750000 0.766349
#
# Coordination Sequence:
#
# PCOD9490656 Si02
#       5
#     8  16  16  16  16
#     4  11  25  45  69  97 131 173 216 263 318 371
#     4  10  21  37  57  79 104 140 186 237 291 349
#     4  10  22  37  54  81 114 151 189 233 291 350
#     4  11  23  41  66  97 131 171 216 263 317 376
#     4  10  20  36  59  85 117 155 197 246 298 355
#
# _framework density 19.541027
#
# number of rings (size 3 to 8) (size 9 to 14) (size 15 to 20)
#    0.000    1.667    0.000    5.667    1.556    7.111 
#    0.000    2.222    0.000    0.000    0.000    0.000 
#    0.000    0.000    0.000    0.000    0.000    0.000 
#
# Total GULP energy -200727.690410 kJ/mol
# GULP energy per Si atom -5575.769178 kJ/mol
# Density = 1.949655 g / cm^3
# Si number density = 19.541027 Si / 1000 Ang^3
#
#
#
# Elastic Constant Matrix: (Units=GPa)
#
#
# Indices 1 2 3 4 5 6 
#
# 1 64.3139 30.5233 66.7742 0.0000 0.0000 0.0000
# 2 30.5233 102.9572 69.1204 0.0000 0.0000 0.0000
# 3 66.7742 69.1204 158.3252 0.0000 0.0000 0.0000
# 4 0.0000 0.0000 0.0000 35.7759 0.0000 0.0000
# 5 0.0000 0.0000 0.0000 0.0000 22.6070 0.0000
# 6 0.0000 0.0000 0.0000 0.0000 0.0000 22.4715
#
#
#
# Elastic Compliance Matrix: (Units=1/GPa)
#
#
# Indices 1 2 3 4 5 6 
#
# 1 0.027681 -0.000522 -0.011447 0.000000 0.000000 0.000000
# 2 -0.000522 0.013750 -0.005783 0.000000 0.000000 0.000000
# 3 -0.011447 -0.005783 0.013668 0.000000 0.000000 0.000000
# 4 0.000000 0.000000 0.000000 0.027952 0.000000 0.000000
# 5 0.000000 0.000000 0.000000 0.000000 0.044234 0.000000
# 6 0.000000 0.000000 0.000000 0.000000 0.000000 0.044501
#
#
# Mechanical properties :
#
#
# Convention : Reuss Voigt Hill
#
# Bulk Modulus (GPa) = 51.02890 73.15915 62.09403
# Shear Modulus (GPa) = 23.38410 26.78277 25.08343
#
# Velocity S-wave (km/s) = 3.46304 3.70617 3.58666
# Velocity P-wave (km/s) = 6.49312 7.47223 6.99982
#
# Compressibility (1/GPa) = 0.01959674
#
# Stress axis : x y z
#
# Youngs Moduli (GPa) = 36.12576 72.72910 73.16125
#
# Poissons Ratio (x) = 0.03794 0.83747
# Poissons Ratio (y) = 0.01884 0.42307
# Poissons Ratio (z) = 0.41353 0.42057
#
# Static dielectric constant tensor:
#      x y z
#    x 1.642630 0.000000 0.000000 
#    y 0.000000 1.703120 0.000000 
#    z 0.000000 0.000000 1.764560 
# 
# From -- ./inp_files/74594.got.cif
#   From: 2010.05.17/outbox.cif.g08.bks.cpg/sg65_38_cif.got.tgz:74594.got - 2010.06.03 17:01:31.
