data_PCOD9490876
_publ_section_title
;
Structure prediction by ZEFSAII (Michael W. Deem and Ramdas Pophale) SiO2 
 PCOD9490876
Probable space group: C M M M
;
_chemical_formula_sum "Si O2"
_cell_formula_units_Z 48
_cell_length_a 18.183416
_cell_length_b 7.690463
_cell_length_c 17.387893
_cell_angle_alpha 90.000000
_cell_angle_beta 90.000000
_cell_angle_gamma 90.000000
_cell_volume 2431.503621
_symmetry_space_group_name_H-M "C M M M"
_symmetry_group_IT_number 65
_symmetry_cell_setting 'orthorhombic'
loop_
_space_group_symop_operation_xyz
x,y,z
-x,-y,z
x,-y,-z
-x,y,-z
-x,-y,-z
x,y,-z
-x,y,z
x,-y,z
1/2+x,1/2+y,z
1/2-x,1/2-y,z
1/2+x,1/2-y,-z
1/2-x,1/2+y,-z
1/2-x,1/2-y,-z
1/2+x,1/2+y,-z
1/2-x,1/2+y,z
1/2+x,1/2-y,z
loop_
_atom_site_type_symbol
_atom_site_label
_atom_site_fract_x
_atom_site_fract_y
_atom_site_fract_z
Si Si1 0.163905 0.791352 0.500000
Si Si2 0.164616 0.698541 0.814312
Si Si3 0.586625 0.500000 0.908352
Si Si4 0.414127 0.711406 0.656451
O O1 0.250000 0.750000 0.500000
O O2 0.124552 0.728980 0.577733
O O3 0.155865 0.000000 0.500000
O O4 0.158363 0.500000 0.840739
O O5 0.250000 0.750000 0.808387
O O6 0.124141 0.831894 0.870696
O O7 0.127498 0.717459 0.730721
O O8 0.500000 0.500000 0.889548
O O9 0.595425 0.500000 0.000000
O O10 0.500000 0.758852 0.657055
O O11 0.409878 0.500000 0.660075
#
# Coordination Sequence:
#
# PCOD9490876 Si02
#       4
#     8  16   8  16
#     4  10  21  35  55  85 121 172 220 271 326 380
#     4  12  24  43  69 101 133 176 222 273 329 396
#     4  11  26  48  72 101 138 174 213 271 338 400
#     4  10  20  37  61  89 128 171 219 273 330 390
#
# _framework density 19.740870999999999
#
# number of rings (size 3 to 8) (size 9 to 14) (size 15 to 20)
#    0.000    1.167    3.333    2.500    0.000   10.000 
#    0.000    1.667    0.000    3.000    0.000    0.000 
#    0.000    0.000    0.000    0.000    0.000    0.000 
#
# Total GULP energy -134290.700804 kJ/mol
# GULP energy per Si atom -5595.445867 kJ/mol
# Density = 1.969594 g / cm^3
# Si number density = 19.740871 Si / 1000 Ang^3
#
#
#
# Elastic Constant Matrix: (Units=GPa)
#
#
# Indices 1 2 3 4 5 6 
#
# 1 202.1848 67.0882 99.4199 0.0000 0.0000 0.0000
# 2 67.0882 134.4090 58.1101 0.0000 0.0000 0.0000
# 3 99.4199 58.1101 113.8339 0.0000 0.0000 0.0000
# 4 0.0000 0.0000 0.0000 -15.5407 0.0000 0.0000
# 5 0.0000 0.0000 0.0000 0.0000 76.5937 0.0000
# 6 0.0000 0.0000 0.0000 0.0000 0.0000 31.1586
#
#
#
# Elastic Compliance Matrix: (Units=1/GPa)
#
#
# Indices 1 2 3 4 5 6 
#
# 1 0.008865 -0.001383 -0.007037 0.000000 0.000000 0.000000
# 2 -0.001383 0.009763 -0.003776 0.000000 0.000000 0.000000
# 3 -0.007037 -0.003776 0.016858 0.000000 0.000000 0.000000
# 4 0.000000 0.000000 0.000000 -0.064347 0.000000 0.000000
# 5 0.000000 0.000000 0.000000 0.000000 0.013056 0.000000
# 6 0.000000 0.000000 0.000000 0.000000 0.000000 0.032094
#
#
# Mechanical properties :
#
#
# Convention : Reuss Voigt Hill
#
# Bulk Modulus (GPa) = 90.13172 99.96267 95.04720
# Shear Modulus (GPa) = 112.67190 33.49629 73.08409
#
# Velocity S-wave (km/s) = 7.56303 4.12369 6.09115
# Velocity P-wave (km/s) = 11.04637 8.56857 9.88541
#
# Compressibility (1/GPa) = 0.01109487
#
# Stress axis : x y z
#
# Youngs Moduli (GPa) = 112.80581 102.43132 59.31924
#
# Poissons Ratio (x) = 0.14162 0.41740
# Poissons Ratio (y) = 0.15596 0.22400
# Poissons Ratio (z) = 0.79376 0.38680
#
# Static dielectric constant tensor:
#      x y z
#    x 1.652410 0.000000 0.000000 
#    y 0.000000 1.713020 0.000000 
#    z 0.000000 0.000000 1.655130 
# 
# From -- ./inp_files/52285.got.cif
#   From: 2010.05.17/outbox.cif.g08.bks.cpg/sg65_27_cif.got.tgz:52285.got - 2010.06.03 17:01:31.
