data_PCOD9490432
_publ_section_title
;
Structure prediction by ZEFSAII (Michael W. Deem and Ramdas Pophale) SiO2 
 PCOD9490432
Probable space group: C M M M
;
_chemical_formula_sum "Si O2"
_cell_formula_units_Z 64
_cell_length_a 14.779667
_cell_length_b 8.199742
_cell_length_c 27.691271
_cell_angle_alpha 90.000000
_cell_angle_beta 90.000000
_cell_angle_gamma 90.000000
_cell_volume 3355.890075
_symmetry_space_group_name_H-M "C M M M"
_symmetry_group_IT_number 65
_symmetry_cell_setting 'orthorhombic'
loop_
_space_group_symop_operation_xyz
x,y,z
-x,-y,z
x,-y,-z
-x,y,-z
-x,-y,-z
x,y,-z
-x,y,z
x,-y,z
1/2+x,1/2+y,z
1/2-x,1/2-y,z
1/2+x,1/2-y,-z
1/2-x,1/2+y,-z
1/2-x,1/2-y,-z
1/2+x,1/2+y,-z
1/2-x,1/2+y,z
1/2+x,1/2-y,z
loop_
_atom_site_type_symbol
_atom_site_label
_atom_site_fract_x
_atom_site_fract_y
_atom_site_fract_z
Si Si1 0.645004 0.196969 0.500000
Si Si2 0.646257 0.804795 0.394830
Si Si3 0.000000 0.199544 0.790019
Si Si4 0.500000 0.699289 0.944885
Si Si5 0.500000 0.306356 0.319483
Si Si6 0.646578 0.303655 0.132524
O O1 0.750000 0.250000 0.500000
O O2 0.610347 0.253560 0.552323
O O3 0.638175 0.000000 0.500000
O O4 0.750000 0.750000 0.390168
O O5 0.586298 0.745153 0.350806
O O6 0.643246 0.000000 0.395387
O O7 0.088310 0.250011 0.820741
O O8 0.000000 0.259426 0.735134
O O9 0.000000 0.000000 0.789525
O O10 0.500000 0.500000 0.945525
O O11 0.588245 0.750104 0.914181
O O12 0.500000 0.756023 0.000000
O O13 0.500000 0.500000 0.315827
O O14 0.645299 0.500000 0.132487
O O15 0.750000 0.250000 0.132543
#
# Coordination Sequence:
#
# PCOD9490432 Si02
#       6
#     8  16   8   8   8  16
#     4   8  16  31  52  73  98 130 162 199 244 299
#     4  10  20  36  55  77 103 132 166 205 252 305
#     4   8  18  36  52  67  95 133 169 205 247 298
#     4   8  15  29  49  73 104 139 168 195 237 296
#     4  11  22  36  53  75 102 133 170 212 257 304
#     4   9  17  32  53  74  97 130 170 207 245 291
#
# _framework density 19.070945999999999
#
# number of rings (size 3 to 8) (size 9 to 14) (size 15 to 20)
#    0.000    2.875    0.000    2.625    0.000    3.000 
#    0.000   10.000    0.000    0.750    0.000    0.000 
#    0.000    0.000    0.000    0.000    0.000    0.000 
#
# Total GULP energy -178371.381509 kJ/mol
# GULP energy per Si atom -5574.105672 kJ/mol
# Density = 1.902754 g / cm^3
# Si number density = 19.070946 Si / 1000 Ang^3
#
#
#
# Elastic Constant Matrix: (Units=GPa)
#
#
# Indices 1 2 3 4 5 6 
#
# 1 164.6625 12.0587 110.3636 0.0000 0.0000 0.0000
# 2 12.0587 16.4757 22.9165 0.0000 0.0000 0.0000
# 3 110.3636 22.9165 232.7345 0.0000 0.0000 0.0000
# 4 0.0000 0.0000 0.0000 14.5529 0.0000 0.0000
# 5 0.0000 0.0000 0.0000 0.0000 14.1069 0.0000
# 6 0.0000 0.0000 0.0000 0.0000 0.0000 31.0359
#
#
#
# Elastic Compliance Matrix: (Units=1/GPa)
#
#
# Indices 1 2 3 4 5 6 
#
# 1 0.008910 -0.000747 -0.004152 0.000000 0.000000 0.000000
# 2 -0.000747 0.070390 -0.006577 0.000000 0.000000 0.000000
# 3 -0.004152 -0.006577 0.006913 0.000000 0.000000 0.000000
# 4 0.000000 0.000000 0.000000 0.068715 0.000000 0.000000
# 5 0.000000 0.000000 0.000000 0.000000 0.070887 0.000000
# 6 0.000000 0.000000 0.000000 0.000000 0.000000 0.032221
#
#
# Mechanical properties :
#
#
# Convention : Reuss Voigt Hill
#
# Bulk Modulus (GPa) = 15.80707 78.28335 47.04521
# Shear Modulus (GPa) = 16.55215 29.84139 23.19677
#
# Velocity S-wave (km/s) = 2.94925 3.95999 3.49139
# Velocity P-wave (km/s) = 4.46139 7.87695 6.40118
#
# Compressibility (1/GPa) = 0.06326284
#
# Stress axis : x y z
#
# Youngs Moduli (GPa) = 112.22782 14.20651 144.65141
#
# Poissons Ratio (x) = 0.01061 0.60057
# Poissons Ratio (y) = 0.08380 0.95137
# Poissons Ratio (z) = 0.46595 0.09344
#
# Static dielectric constant tensor:
#      x y z
#    x 1.639290 0.000000 0.000000 
#    y 0.000000 1.679880 0.000000 
#    z 0.000000 0.000000 1.688840 
# 
# From -- ./inp_files/69601.got.cif
#   From: 2010.05.17/outbox.cif.g08.bks.cpg/sg65_35_cif.got.tgz:69601.got - 2010.06.03 17:01:31.
