data_PCOD9490989
_publ_section_title
;
Structure prediction by ZEFSAII (Michael W. Deem and Ramdas Pophale) SiO2 
 PCOD9490989
Probable space group: C M M M
;
_chemical_formula_sum "Si O2"
_cell_formula_units_Z 96
_cell_length_a 15.653257
_cell_length_b 15.529447
_cell_length_c 18.890030
_cell_angle_alpha 90.000000
_cell_angle_beta 90.000000
_cell_angle_gamma 90.000000
_cell_volume 4591.909860
_symmetry_space_group_name_H-M "C M M M"
_symmetry_group_IT_number 65
_symmetry_cell_setting 'orthorhombic'
loop_
_space_group_symop_operation_xyz
x,y,z
-x,-y,z
x,-y,-z
-x,y,-z
-x,-y,-z
x,y,-z
-x,y,z
x,-y,z
1/2+x,1/2+y,z
1/2-x,1/2-y,z
1/2+x,1/2-y,-z
1/2-x,1/2+y,-z
1/2-x,1/2-y,-z
1/2+x,1/2+y,-z
1/2-x,1/2+y,z
1/2+x,1/2-y,z
loop_
_atom_site_type_symbol
_atom_site_label
_atom_site_fract_x
_atom_site_fract_y
_atom_site_fract_z
Si Si1 0.596873 0.318401 0.807909
Si Si2 0.594940 0.500000 0.111917
Si Si3 0.500000 0.170662 0.417972
Si Si4 0.824594 0.396501 0.419244
Si Si5 0.294406 0.000000 0.918818
Si Si6 0.602452 0.833868 0.915806
Si Si7 0.666472 0.400726 0.675386
Si Si8 0.000000 0.875744 0.582112
O O1 0.500000 0.296674 0.784518
O O2 0.593731 0.412141 0.843954
O O3 0.621795 0.248430 0.866678
O O4 0.653042 0.334548 0.739083
O O5 0.500000 0.500000 0.075164
O O6 0.691315 0.500000 0.080346
O O7 0.500000 0.137917 0.500000
O O8 0.587415 0.136451 0.386369
O O9 0.500000 0.272522 0.418971
O O10 0.815982 0.363690 0.500000
O O11 0.827207 0.500000 0.422359
O O12 0.744394 0.372098 0.372915
O O13 0.338298 0.086956 0.890176
O O14 0.324112 0.000000 0.000000
O O15 0.500000 0.853012 0.909883
O O16 0.618313 0.816129 0.000000
O O17 0.680924 0.500000 0.700740
O O18 0.583001 0.403280 0.625731
O O19 0.000000 0.904098 0.500000
#
# Coordination Sequence:
#
# PCOD9490989 Si02
#       8
#    16   8   8  16   8  16  16   8
#     4  10  20  38  64  88 123 170 213 256 318 383
#     4  10  22  38  59  84 126 175 218 254 304 367
#     4   9  19  37  55  79 121 162 201 257 318 374
#     4   9  18  34  60  89 117 156 209 263 318 377
#     4  10  21  39  64  97 131 166 204 258 327 376
#     4   9  19  38  67  99 129 161 208 264 320 382
#     4  11  21  36  62  86 121 164 207 257 315 378
#     4  11  23  35  55  89 126 161 204 259 317 376
#
# _framework density 20.906333
#
# number of rings (size 3 to 8) (size 9 to 14) (size 15 to 20)
#    0.000    2.167    1.667    1.250    0.000    5.500 
#    0.000    9.167    0.000    0.000    4.333    0.000 
#    0.000    0.000    0.000    0.083    0.000    0.667 
#
# Total GULP energy -267804.738795 kJ/mol
# GULP energy per Si atom -5579.265392 kJ/mol
# Density = 2.085875 g / cm^3
# Si number density = 20.906333 Si / 1000 Ang^3
#
#
#
# Elastic Constant Matrix: (Units=GPa)
#
#
# Indices 1 2 3 4 5 6 
#
# 1 152.5581 57.0306 64.4673 0.0000 0.0000 0.0000
# 2 57.0306 89.1536 53.5136 0.0000 0.0000 0.0000
# 3 64.4673 53.5136 84.9447 0.0000 0.0000 0.0000
# 4 0.0000 0.0000 0.0000 123.8128 0.0000 0.0000
# 5 0.0000 0.0000 0.0000 0.0000 58.3546 0.0000
# 6 0.0000 0.0000 0.0000 0.0000 0.0000 45.7088
#
#
#
# Elastic Compliance Matrix: (Units=1/GPa)
#
#
# Indices 1 2 3 4 5 6 
#
# 1 0.010125 -0.002998 -0.005795 0.000000 0.000000 0.000000
# 2 -0.002998 0.018925 -0.009647 0.000000 0.000000 0.000000
# 3 -0.005795 -0.009647 0.022248 0.000000 0.000000 0.000000
# 4 0.000000 0.000000 0.000000 0.008077 0.000000 0.000000
# 5 0.000000 0.000000 0.000000 0.000000 0.017137 0.000000
# 6 0.000000 0.000000 0.000000 0.000000 0.000000 0.021878
#
#
# Mechanical properties :
#
#
# Convention : Reuss Voigt Hill
#
# Bulk Modulus (GPa) = 69.36269 75.18659 72.27464
# Shear Modulus (GPa) = 35.69530 55.68488 45.69009
#
# Velocity S-wave (km/s) = 4.13654 5.16655 4.67997
# Velocity P-wave (km/s) = 7.48762 8.46360 7.99053
#
# Compressibility (1/GPa) = 0.01441697
#
# Stress axis : x y z
#
# Youngs Moduli (GPa) = 98.77014 52.84015 44.94807
#
# Poissons Ratio (x) = 0.15842 0.26048
# Poissons Ratio (y) = 0.29612 0.43362
# Poissons Ratio (z) = 0.57238 0.50975
#
# Static dielectric constant tensor:
#      x y z
#    x 1.754700 0.000000 0.000000 
#    y 0.000000 1.739160 0.000000 
#    z 0.000000 0.000000 1.756590 
# 
# From -- ./inp_files/62720.got.cif
#   From: 2010.05.17/outbox.cif.g08.bks.cpg/sg65_32_cif.got.tgz:62720.got - 2010.06.03 17:01:31.
