data_PCOD9490759
_publ_section_title
;
Structure prediction by ZEFSAII (Michael W. Deem and Ramdas Pophale) SiO2 
 PCOD9490759
Probable space group: C M M M
;
_chemical_formula_sum "Si O2"
_cell_formula_units_Z 88
_cell_length_a 14.161054
_cell_length_b 28.824967
_cell_length_c 12.173348
_cell_angle_alpha 90.000000
_cell_angle_beta 90.000000
_cell_angle_gamma 90.000000
_cell_volume 4969.062223
_symmetry_space_group_name_H-M "C M M M"
_symmetry_group_IT_number 65
_symmetry_cell_setting 'orthorhombic'
loop_
_space_group_symop_operation_xyz
x,y,z
-x,-y,z
x,-y,-z
-x,y,-z
-x,-y,-z
x,y,-z
-x,y,z
x,-y,z
1/2+x,1/2+y,z
1/2-x,1/2-y,z
1/2+x,1/2-y,-z
1/2-x,1/2+y,-z
1/2-x,1/2-y,-z
1/2+x,1/2+y,-z
1/2-x,1/2+y,z
1/2+x,1/2-y,z
loop_
_atom_site_type_symbol
_atom_site_label
_atom_site_fract_x
_atom_site_fract_y
_atom_site_fract_z
Si Si1 0.612802 0.000000 0.870298
Si Si2 0.896036 0.103916 0.500000
Si Si3 0.886033 0.672955 0.871983
Si Si4 0.294570 0.945323 0.500000
Si Si5 0.390490 0.631260 0.259307
Si Si6 0.197688 0.412704 0.255717
Si Si7 0.885223 0.222413 0.125162
O O1 0.656316 0.045044 0.813288
O O2 0.500000 0.000000 0.855008
O O3 0.632000 0.000000 0.000000
O O4 0.817741 0.064319 0.500000
O O5 0.887192 0.134685 0.391182
O O6 0.000000 0.082705 0.500000
O O7 0.846348 0.634629 0.790478
O O8 0.854172 0.725536 0.844762
O O9 0.000000 0.671707 0.867174
O O10 0.860475 0.663445 0.000000
O O11 0.325180 0.922125 0.615488
O O12 0.316645 0.000000 0.500000
O O13 0.500000 0.620422 0.228659
O O14 0.310613 0.592853 0.236372
O O15 0.361608 0.679255 0.201899
O O16 0.000000 0.224264 0.124268
O O17 0.854581 0.213153 0.000000
#
# Coordination Sequence:
#
# PCOD9490759 Si02
#       7
#     8   8  16   8  16  16  16
#     4  11  24  41  60  80 101 131 175 221 265 313
#     4   8  16  31  53  77  99 135 181 218 254 297
#     4   9  18  34  55  78 105 139 182 226 260 302
#     4  10  20  37  53  73 105 135 171 220 266 321
#     4   9  18  33  53  79 110 141 174 212 257 311
#     4  11  21  36  57  78 104 138 175 219 268 313
#     4   8  15  29  50  77 109 142 174 212 260 311
#
# _framework density 17.709579000000002
#
# number of rings (size 3 to 8) (size 9 to 14) (size 15 to 20)
#    0.000    2.636    0.909    2.182    0.000    3.818 
#    0.000    5.455    0.000    6.000    0.000    0.000 
#    0.000    0.000    0.000    0.000    0.000    0.000 
#
# Total GULP energy -245176.031471 kJ/mol
# GULP energy per Si atom -5572.182533 kJ/mol
# Density = 1.766927 g / cm^3
# Si number density = 17.709579 Si / 1000 Ang^3
#
#
#
# Elastic Constant Matrix: (Units=GPa)
#
#
# Indices 1 2 3 4 5 6 
#
# 1 65.5342 45.3735 56.9182 0.0000 0.0000 0.0000
# 2 45.3735 98.2148 68.4555 0.0000 0.0000 0.0000
# 3 56.9182 68.4555 102.6977 0.0000 0.0000 0.0000
# 4 0.0000 0.0000 0.0000 -24.1162 0.0000 0.0000
# 5 0.0000 0.0000 0.0000 0.0000 23.9983 0.0000
# 6 0.0000 0.0000 0.0000 0.0000 0.0000 28.5996
#
#
#
# Elastic Compliance Matrix: (Units=1/GPa)
#
#
# Indices 1 2 3 4 5 6 
#
# 1 0.030360 -0.004292 -0.013966 0.000000 0.000000 0.000000
# 2 -0.004292 0.019624 -0.010702 0.000000 0.000000 0.000000
# 3 -0.013966 -0.010702 0.024611 0.000000 0.000000 0.000000
# 4 0.000000 0.000000 0.000000 -0.041466 0.000000 0.000000
# 5 0.000000 0.000000 0.000000 0.000000 0.041670 0.000000
# 6 0.000000 0.000000 0.000000 0.000000 0.000000 0.034966
#
#
# Mechanical properties :
#
#
# Convention : Reuss Voigt Hill
#
# Bulk Modulus (GPa) = 59.96602 67.54899 63.75751
# Shear Modulus (GPa) = 28.86118 12.07629 20.46874
#
# Velocity S-wave (km/s) = 4.04133 2.61417 3.40339
# Velocity P-wave (km/s) = 7.46396 6.88021 7.17802
#
# Compressibility (1/GPa) = 0.01667611
#
# Stress axis : x y z
#
# Youngs Moduli (GPa) = 32.93760 50.95853 40.63167
#
# Poissons Ratio (x) = 0.21870 0.56746
# Poissons Ratio (y) = 0.14136 0.43484
# Poissons Ratio (z) = 0.46000 0.54536
#
# Static dielectric constant tensor:
#      x y z
#    x 1.667680 0.000000 0.000000 
#    y 0.000000 1.578310 0.000000 
#    z 0.000000 0.000000 1.593360 
# 
# From -- ./inp_files/25405.got.cif
#   From: 2010.05.17/outbox.cif.g08.bks.cpg/sg65_13_cif.got.tgz:25405.got - 2010.06.03 17:01:31.
