data_PCOD9490634
_publ_section_title
;
Structure prediction by ZEFSAII (Michael W. Deem and Ramdas Pophale) SiO2 
 PCOD9490634
Probable space group: C M M M
;
_chemical_formula_sum "Si O2"
_cell_formula_units_Z 88
_cell_length_a 19.786752
_cell_length_b 25.367464
_cell_length_c 9.536634
_cell_angle_alpha 90.000000
_cell_angle_beta 90.000000
_cell_angle_gamma 90.000000
_cell_volume 4786.815391
_symmetry_space_group_name_H-M "C M M M"
_symmetry_group_IT_number 65
_symmetry_cell_setting 'orthorhombic'
loop_
_space_group_symop_operation_xyz
x,y,z
-x,-y,z
x,-y,-z
-x,y,-z
-x,-y,-z
x,y,-z
-x,y,z
x,-y,z
1/2+x,1/2+y,z
1/2-x,1/2-y,z
1/2+x,1/2-y,-z
1/2-x,1/2+y,-z
1/2-x,1/2-y,-z
1/2+x,1/2+y,-z
1/2-x,1/2+y,z
1/2+x,1/2-y,z
loop_
_atom_site_type_symbol
_atom_site_label
_atom_site_fract_x
_atom_site_fract_y
_atom_site_fract_z
Si Si1 0.811223 0.708073 0.661465
Si Si2 0.578435 0.366470 0.662196
Si Si3 0.194651 0.418382 0.335885
Si Si4 0.576923 0.740946 0.163156
Si Si5 0.577983 0.000000 0.668649
Si Si6 0.175063 0.060058 0.839859
O O1 0.833146 0.718045 0.500000
O O2 0.750000 0.750000 0.686787
O O3 0.798813 0.645343 0.671556
O O4 0.869166 0.719898 0.772634
O O5 0.599003 0.360524 0.500000
O O6 0.500000 0.383387 0.665776
O O7 0.582586 0.311343 0.743256
O O8 0.625838 0.406205 0.743758
O O9 0.207887 0.432183 0.500000
O O10 0.123894 0.447942 0.297949
O O11 0.251794 0.438866 0.231799
O O12 0.500000 0.760683 0.175499
O O13 0.589657 0.729162 0.000000
O O14 0.500000 0.000000 0.723037
O O15 0.572381 0.000000 0.500000
O O16 0.150926 0.000000 0.843072
O O17 0.177628 0.080032 0.000000
#
# Coordination Sequence:
#
# PCOD9490634 Si02
#       6
#    16  16  16  16   8  16
#     4  10  21  35  54  84 116 148 192 241 289 344
#     4  10  21  37  58  83 112 149 192 237 282 331
#     4  10  20  36  59  83 112 150 191 242 293 343
#     4  10  21  37  57  82 114 151 188 228 281 344
#     4   9  18  34  57  85 112 143 192 247 297 348
#     4  11  23  37  56  82 114 151 189 232 284 343
#
# _framework density 18.38383
#
# number of rings (size 3 to 8) (size 9 to 14) (size 15 to 20)
#    0.000    1.909    0.909    2.727    0.000    6.909 
#    0.000    3.636    0.000    1.091    0.000    0.000 
#    0.000    0.000    0.000    0.000    0.000    0.000 
#
# Total GULP energy -245319.030321 kJ/mol
# GULP energy per Si atom -5575.432507 kJ/mol
# Density = 1.834199 g / cm^3
# Si number density = 18.383830 Si / 1000 Ang^3
#
#
#
# Elastic Constant Matrix: (Units=GPa)
#
#
# Indices 1 2 3 4 5 6 
#
# 1 46.9524 40.4093 51.7013 0.0000 0.0000 0.0000
# 2 40.4093 78.3206 35.5772 0.0000 0.0000 0.0000
# 3 51.7013 35.5772 128.2749 0.0000 0.0000 0.0000
# 4 0.0000 0.0000 0.0000 35.1751 0.0000 0.0000
# 5 0.0000 0.0000 0.0000 0.0000 29.2744 0.0000
# 6 0.0000 0.0000 0.0000 0.0000 0.0000 27.5211
#
#
#
# Elastic Compliance Matrix: (Units=1/GPa)
#
#
# Indices 1 2 3 4 5 6 
#
# 1 0.061783 -0.023530 -0.018376 0.000000 0.000000 0.000000
# 2 -0.023530 0.023570 0.002947 0.000000 0.000000 0.000000
# 3 -0.018376 0.002947 0.014385 0.000000 0.000000 0.000000
# 4 0.000000 0.000000 0.000000 0.028429 0.000000 0.000000
# 5 0.000000 0.000000 0.000000 0.000000 0.034160 0.000000
# 6 0.000000 0.000000 0.000000 0.000000 0.000000 0.036336
#
#
# Mechanical properties :
#
#
# Convention : Reuss Voigt Hill
#
# Bulk Modulus (GPa) = 45.82957 56.54703 51.18830
# Shear Modulus (GPa) = 17.61476 26.78478 22.19977
#
# Velocity S-wave (km/s) = 3.09878 3.82118 3.47878
# Velocity P-wave (km/s) = 6.14709 7.09185 6.63630
#
# Compressibility (1/GPa) = 0.02181997
#
# Stress axis : x y z
#
# Youngs Moduli (GPa) = 16.18568 42.42755 69.51752
#
# Poissons Ratio (x) = 0.99830 1.27743
# Poissons Ratio (y) = 0.38084 -0.20484
# Poissons Ratio (z) = 0.29742 -0.12502
#
# Static dielectric constant tensor:
#      x y z
#    x 1.646800 0.000000 0.000000 
#    y 0.000000 1.656480 0.000000 
#    z 0.000000 0.000000 1.612230 
# 
# From -- ./inp_files/11705.got.cif
#   From: 2010.05.17/outbox.cif.g08.bks.cpg/sg65_6_cif.got.tgz:11705.got - 2010.06.03 17:01:31.
