data_PCOD9490611
_publ_section_title
;
Structure prediction by ZEFSAII (Michael W. Deem and Ramdas Pophale) SiO2 
 PCOD9490611
Probable space group: C M M M
;
_chemical_formula_sum "Si O2"
_cell_formula_units_Z 56
_cell_length_a 27.877866
_cell_length_b 8.952895
_cell_length_c 10.992003
_cell_angle_alpha 90.000000
_cell_angle_beta 90.000000
_cell_angle_gamma 90.000000
_cell_volume 2743.467726
_symmetry_space_group_name_H-M "C M M M"
_symmetry_group_IT_number 65
_symmetry_cell_setting 'orthorhombic'
loop_
_space_group_symop_operation_xyz
x,y,z
-x,-y,z
x,-y,-z
-x,y,-z
-x,-y,-z
x,y,-z
-x,y,z
x,-y,z
1/2+x,1/2+y,z
1/2-x,1/2-y,z
1/2+x,1/2-y,-z
1/2-x,1/2+y,-z
1/2-x,1/2-y,-z
1/2+x,1/2+y,-z
1/2-x,1/2+y,z
1/2+x,1/2-y,z
loop_
_atom_site_type_symbol
_atom_site_label
_atom_site_fract_x
_atom_site_fract_y
_atom_site_fract_z
Si Si1 0.302827 0.820784 0.730778
Si Si2 0.302548 0.178405 0.000000
Si Si3 0.394202 0.322040 0.633202
Si Si4 0.557847 0.826315 0.864410
O O1 0.250000 0.750000 0.717374
O O2 0.322446 0.782060 0.867537
O O3 0.341633 0.751153 0.641974
O O4 0.299836 0.000000 0.719395
O O5 0.250000 0.250000 0.000000
O O6 0.298283 0.000000 0.000000
O O7 0.415381 0.285279 0.500000
O O8 0.390000 0.500000 0.642289
O O9 0.423624 0.261153 0.747768
O O10 0.500000 0.824112 0.863407
O O11 0.573441 0.000000 0.854689
O O12 0.572962 0.772826 0.000000
#
# Coordination Sequence:
#
# PCOD9490611 Si02
#       4
#    16   8  16  16
#     4  10  20  36  58  84 117 157 202 250 300 353
#     4   8  16  30  50  78 107 138 181 236 290 341
#     4  11  25  41  57  85 124 164 205 246 293 352
#     4   9  20  41  68  95 121 151 192 244 301 361
#
# _framework density 20.412122
#
# number of rings (size 3 to 8) (size 9 to 14) (size 15 to 20)
#    0.000    2.286    0.000    2.571    2.000    5.714 
#    0.000    4.286    0.000    0.000    0.000    0.000 
#    0.000    0.000    0.000    0.000    0.000    0.000 
#
# Total GULP energy -156258.950885 kJ/mol
# GULP energy per Si atom -5580.676817 kJ/mol
# Density = 2.036566 g / cm^3
# Si number density = 20.412122 Si / 1000 Ang^3
#
#
#
# Elastic Constant Matrix: (Units=GPa)
#
#
# Indices 1 2 3 4 5 6 
#
# 1 57.2264 28.0776 49.3631 0.0000 0.0000 0.0000
# 2 28.0776 65.7847 73.1628 0.0000 0.0000 0.0000
# 3 49.3631 73.1628 185.2343 0.0000 0.0000 0.0000
# 4 0.0000 0.0000 0.0000 28.3746 0.0000 0.0000
# 5 0.0000 0.0000 0.0000 0.0000 21.9639 0.0000
# 6 0.0000 0.0000 0.0000 0.0000 0.0000 32.2776
#
#
#
# Elastic Compliance Matrix: (Units=1/GPa)
#
#
# Indices 1 2 3 4 5 6 
#
# 1 0.023767 -0.005528 -0.004150 0.000000 0.000000 0.000000
# 2 -0.005528 0.028396 -0.009742 0.000000 0.000000 0.000000
# 3 -0.004150 -0.009742 0.010352 0.000000 0.000000 0.000000
# 4 0.000000 0.000000 0.000000 0.035243 0.000000 0.000000
# 5 0.000000 0.000000 0.000000 0.000000 0.045529 0.000000
# 6 0.000000 0.000000 0.000000 0.000000 0.000000 0.030981
#
#
# Mechanical properties :
#
#
# Convention : Reuss Voigt Hill
#
# Bulk Modulus (GPa) = 42.24158 67.71694 54.97926
# Shear Modulus (GPa) = 22.62437 27.03268 24.82853
#
# Velocity S-wave (km/s) = 3.33284 3.64310 3.49142
# Velocity P-wave (km/s) = 5.96236 7.13745 6.57620
#
# Compressibility (1/GPa) = 0.02367336
#
# Stress axis : x y z
#
# Youngs Moduli (GPa) = 42.07573 35.21664 96.59539
#
# Poissons Ratio (x) = 0.19469 0.40087
# Poissons Ratio (y) = 0.23261 0.94106
# Poissons Ratio (z) = 0.17461 0.34309
#
# Static dielectric constant tensor:
#      x y z
#    x 1.729720 0.000000 0.000000 
#    y 0.000000 1.682710 0.000000 
#    z 0.000000 0.000000 1.775720 
# 
# From -- ./inp_files/20799.got.cif
#   From: 2010.05.17/outbox.cif.g08.bks.cpg/sg65_11_cif.got.tgz:20799.got - 2010.06.03 17:01:31.
