data_PCOD9490852
_publ_section_title
;
Structure prediction by ZEFSAII (Michael W. Deem and Ramdas Pophale) SiO2 
 PCOD9490852
Probable space group: C M M M
;
_chemical_formula_sum "Si O2"
_cell_formula_units_Z 88
_cell_length_a 22.647580
_cell_length_b 17.913227
_cell_length_c 11.429565
_cell_angle_alpha 90.000000
_cell_angle_beta 90.000000
_cell_angle_gamma 90.000000
_cell_volume 4636.874415
_symmetry_space_group_name_H-M "C M M M"
_symmetry_group_IT_number 65
_symmetry_cell_setting 'orthorhombic'
loop_
_space_group_symop_operation_xyz
x,y,z
-x,-y,z
x,-y,-z
-x,y,-z
-x,-y,-z
x,y,-z
-x,y,z
x,-y,z
1/2+x,1/2+y,z
1/2-x,1/2-y,z
1/2+x,1/2-y,-z
1/2-x,1/2+y,-z
1/2-x,1/2-y,-z
1/2+x,1/2+y,-z
1/2-x,1/2+y,z
1/2+x,1/2-y,z
loop_
_atom_site_type_symbol
_atom_site_label
_atom_site_fract_x
_atom_site_fract_y
_atom_site_fract_z
Si Si1 0.933974 0.264724 0.241665
Si Si2 0.107479 0.414834 0.138688
Si Si3 0.567633 0.193189 0.500000
Si Si4 0.432230 0.500000 0.858085
Si Si5 0.852404 0.141951 0.860636
Si Si6 0.679986 0.089379 0.500000
Si Si7 0.765518 0.411751 0.250850
O O1 0.927653 0.351326 0.206510
O O2 0.925224 0.260130 0.380982
O O3 0.885552 0.217440 0.173754
O O4 0.000000 0.238600 0.211326
O O5 0.092220 0.500000 0.173265
O O6 0.176401 0.403694 0.170579
O O7 0.098324 0.407379 0.000000
O O8 0.500000 0.164403 0.500000
O O9 0.617057 0.129645 0.500000
O O10 0.500000 0.500000 0.815779
O O11 0.395454 0.573533 0.824383
O O12 0.434527 0.500000 0.000000
O O13 0.789919 0.132995 0.797304
O O14 0.843565 0.137551 0.000000
O O15 0.715043 0.109405 0.382012
O O16 0.671867 0.000000 0.500000
O O17 0.749990 0.500000 0.250009
#
# Coordination Sequence:
#
# PCOD9490852 Si02
#       7
#    16  16   8   8  16   8  16
#     4  11  24  41  61  88 122 160 208 261 308 360
#     4  10  21  37  59  86 122 163 198 245 310 376
#     4  10  22  42  63  84 119 165 208 257 312 360
#     4   9  18  34  58  87 117 157 207 251 298 358
#     4  11  22  37  61  90 124 165 203 251 311 369
#     4  10  20  38  65  93 120 158 207 263 309 354
#     4  10  20  37  60  90 124 156 198 251 305 365
#
# _framework density 18.978300999999998
#
# number of rings (size 3 to 8) (size 9 to 14) (size 15 to 20)
#    0.000    1.727    2.727    1.636    0.000    4.909 
#    0.000    5.455    0.000    0.000    0.000    3.182 
#    0.000    0.000    0.000    0.000    0.000    0.000 
#
# Total GULP energy -245754.329861 kJ/mol
# GULP energy per Si atom -5585.325679 kJ/mol
# Density = 1.893511 g / cm^3
# Si number density = 18.978301 Si / 1000 Ang^3
#
#
#
# Elastic Constant Matrix: (Units=GPa)
#
#
# Indices 1 2 3 4 5 6 
#
# 1 89.3677 18.9743 25.7847 0.0000 0.0000 0.0000
# 2 18.9743 48.2418 8.7654 0.0000 0.0000 0.0000
# 3 25.7847 8.7654 61.4491 0.0000 0.0000 0.0000
# 4 0.0000 0.0000 0.0000 15.8378 0.0000 0.0000
# 5 0.0000 0.0000 0.0000 0.0000 17.4615 0.0000
# 6 0.0000 0.0000 0.0000 0.0000 0.0000 29.4972
#
#
#
# Elastic Compliance Matrix: (Units=1/GPa)
#
#
# Indices 1 2 3 4 5 6 
#
# 1 0.013593 -0.004425 -0.005072 0.000000 0.000000 0.000000
# 2 -0.004425 0.022721 -0.001384 0.000000 0.000000 0.000000
# 3 -0.005072 -0.001384 0.018600 0.000000 0.000000 0.000000
# 4 0.000000 0.000000 0.000000 0.063140 0.000000 0.000000
# 5 0.000000 0.000000 0.000000 0.000000 0.057269 0.000000
# 6 0.000000 0.000000 0.000000 0.000000 0.000000 0.033902
#
#
# Mechanical properties :
#
#
# Convention : Reuss Voigt Hill
#
# Bulk Modulus (GPa) = 30.16587 34.01194 32.08890
# Shear Modulus (GPa) = 20.65805 22.26158 21.45982
#
# Velocity S-wave (km/s) = 3.30284 3.42863 3.36632
# Velocity P-wave (km/s) = 5.52036 5.79951 5.66166
#
# Compressibility (1/GPa) = 0.03315005
#
# Stress axis : x y z
#
# Youngs Moduli (GPa) = 73.56909 44.01268 53.76462
#
# Poissons Ratio (x) = 0.19474 0.27272
# Poissons Ratio (y) = 0.32551 0.07443
# Poissons Ratio (z) = 0.37318 0.06093
#
# Static dielectric constant tensor:
#      x y z
#    x 1.639160 0.000000 0.000000 
#    y 0.000000 1.657540 0.000000 
#    z 0.000000 0.000000 1.644270 
# 
# From -- ./inp_files/28746.got.cif
#   From: 2010.05.17/outbox.cif.g08.bks.cpg/sg65_15_cif.got.tgz:28746.got - 2010.06.03 17:01:31.
