data_PCOD9490782
_publ_section_title
;
Structure prediction by ZEFSAII (Michael W. Deem and Ramdas Pophale) SiO2 
 PCOD9490782
Probable space group: C M M M
;
_chemical_formula_sum "Si O2"
_cell_formula_units_Z 64
_cell_length_a 8.716488
_cell_length_b 14.628806
_cell_length_c 27.239553
_cell_angle_alpha 90.000000
_cell_angle_beta 90.000000
_cell_angle_gamma 90.000000
_cell_volume 3473.364760
_symmetry_space_group_name_H-M "C M M M"
_symmetry_group_IT_number 65
_symmetry_cell_setting 'orthorhombic'
loop_
_space_group_symop_operation_xyz
x,y,z
-x,-y,z
x,-y,-z
-x,y,-z
-x,-y,-z
x,y,-z
-x,y,z
x,-y,z
1/2+x,1/2+y,z
1/2-x,1/2-y,z
1/2+x,1/2-y,-z
1/2-x,1/2+y,-z
1/2-x,1/2-y,-z
1/2+x,1/2+y,-z
1/2-x,1/2+y,z
1/2+x,1/2-y,z
loop_
_atom_site_type_symbol
_atom_site_label
_atom_site_fract_x
_atom_site_fract_y
_atom_site_fract_z
Si Si1 0.184077 0.000000 0.211595
Si Si2 0.315868 0.351845 0.869822
Si Si3 0.684715 0.647441 0.500000
Si Si4 0.815937 0.500000 0.942641
Si Si5 0.317727 0.000000 0.320014
Si Si6 0.315246 0.352380 0.392392
O O1 0.224123 0.088722 0.178686
O O2 0.263619 0.000000 0.263938
O O3 0.000000 0.000000 0.218348
O O4 0.500000 0.348983 0.873345
O O5 0.250000 0.250000 0.868387
O O6 0.250501 0.411277 0.914927
O O7 0.500000 0.649955 0.500000
O O8 0.750000 0.750000 0.500000
O O9 0.729350 0.609150 0.446710
O O10 0.000000 0.500000 0.938071
O O11 0.775480 0.500000 0.000000
O O12 0.251587 0.086674 0.349272
O O13 0.500000 0.000000 0.322506
O O14 0.500000 0.351157 0.389531
O O15 0.250000 0.250000 0.389182
#
# Coordination Sequence:
#
# PCOD9490782 Si02
#       6
#     8  16   8   8   8  16
#     4   9  21  41  59  79 109 145 187 238 287 330
#     4  10  21  38  62  88 115 150 192 235 282 335
#     4   8  16  31  54  79 104 138 176 217 270 327
#     4  10  21  37  58  87 124 161 196 236 279 323
#     4  12  25  38  55  82 112 146 185 227 279 335
#     4  10  20  37  58  81 110 142 179 225 275 332
#
# _framework density 18.425937000000001
#
# number of rings (size 3 to 8) (size 9 to 14) (size 15 to 20)
#    0.000    2.125    0.000    3.750    0.000    7.000 
#    0.000    5.000    0.000    0.000    0.000    0.000 
#    0.000    0.000    0.000    0.000    0.000    0.000 
#
# Total GULP energy -178610.968748 kJ/mol
# GULP energy per Si atom -5581.592773 kJ/mol
# Density = 1.838400 g / cm^3
# Si number density = 18.425937 Si / 1000 Ang^3
#
#
#
# Elastic Constant Matrix: (Units=GPa)
#
#
# Indices 1 2 3 4 5 6 
#
# 1 78.9809 58.6584 83.5780 0.0000 0.0000 0.0000
# 2 58.6584 164.2237 98.2993 0.0000 0.0000 0.0000
# 3 83.5780 98.2993 201.8935 0.0000 0.0000 0.0000
# 4 0.0000 0.0000 0.0000 11.1661 0.0000 0.0000
# 5 0.0000 0.0000 0.0000 0.0000 28.3386 0.0000
# 6 0.0000 0.0000 0.0000 0.0000 0.0000 28.6406
#
#
#
# Elastic Compliance Matrix: (Units=1/GPa)
#
#
# Indices 1 2 3 4 5 6 
#
# 1 0.024034 -0.003711 -0.008143 0.000000 0.000000 0.000000
# 2 -0.003711 0.009167 -0.002927 0.000000 0.000000 0.000000
# 3 -0.008143 -0.002927 0.009749 0.000000 0.000000 0.000000
# 4 0.000000 0.000000 0.000000 0.089557 0.000000 0.000000
# 5 0.000000 0.000000 0.000000 0.000000 0.035288 0.000000
# 6 0.000000 0.000000 0.000000 0.000000 0.000000 0.034915
#
#
# Mechanical properties :
#
#
# Convention : Reuss Voigt Hill
#
# Bulk Modulus (GPa) = 74.68872 102.90770 88.79821
# Shear Modulus (GPa) = 21.12085 27.26654 24.19370
#
# Velocity S-wave (km/s) = 3.38931 3.85098 3.62750
# Velocity P-wave (km/s) = 7.47925 8.70310 8.11428
#
# Compressibility (1/GPa) = 0.01338890
#
# Stress axis : x y z
#
# Youngs Moduli (GPa) = 41.60836 109.09084 102.57410
#
# Poissons Ratio (x) = 0.40479 0.83522
# Poissons Ratio (y) = 0.15439 0.30024
# Poissons Ratio (z) = 0.33880 0.31932
#
# Static dielectric constant tensor:
#      x y z
#    x 1.610760 0.000000 0.000000 
#    y 0.000000 0.355670 0.000000 
#    z 0.000000 0.000000 1.631140 
# 
# From -- ./inp_files/66918.got.cif
#   From: 2010.05.17/outbox.cif.g08.bks.cpg/sg65_34_cif.got.tgz:66918.got - 2010.06.03 17:01:31.
