data_PCOD9490272
_publ_section_title
;
Structure prediction by ZEFSAII (Michael W. Deem and Ramdas Pophale) SiO2 
 PCOD9490272
Probable space group: C M M M
;
_chemical_formula_sum "Si O2"
_cell_formula_units_Z 72
_cell_length_a 18.281486
_cell_length_b 24.458012
_cell_length_c 8.561975
_cell_angle_alpha 90.000000
_cell_angle_beta 90.000000
_cell_angle_gamma 90.000000
_cell_volume 3828.305641
_symmetry_space_group_name_H-M "C M M M"
_symmetry_group_IT_number 65
_symmetry_cell_setting 'orthorhombic'
loop_
_space_group_symop_operation_xyz
x,y,z
-x,-y,z
x,-y,-z
-x,y,-z
-x,-y,-z
x,y,-z
-x,y,z
x,-y,z
1/2+x,1/2+y,z
1/2-x,1/2-y,z
1/2+x,1/2-y,-z
1/2-x,1/2+y,-z
1/2-x,1/2-y,-z
1/2+x,1/2+y,-z
1/2-x,1/2+y,z
1/2+x,1/2-y,z
loop_
_atom_site_type_symbol
_atom_site_label
_atom_site_fract_x
_atom_site_fract_y
_atom_site_fract_z
Si Si1 0.272253 0.688668 0.690833
Si Si2 0.000000 0.436484 0.185168
Si Si3 0.106888 0.000000 0.177995
Si Si4 0.581780 0.378618 0.311577
Si Si5 0.351232 0.894050 0.315573
Si Si6 0.780652 0.500000 0.178966
O O1 0.275408 0.688237 0.500000
O O2 0.250000 0.750000 0.738589
O O3 0.348743 0.658985 0.741990
O O4 0.202526 0.653099 0.741833
O O5 0.070630 0.403350 0.239324
O O6 0.000000 0.500000 0.246551
O O7 0.000000 0.440472 0.000000
O O8 0.086817 0.942119 0.257498
O O9 0.194260 0.000000 0.172502
O O10 0.079956 0.000000 0.000000
O O11 0.584729 0.378688 0.500000
O O12 0.500000 0.358457 0.264880
O O13 0.361194 0.887628 0.500000
O O14 0.307685 0.948444 0.273618
O O15 0.810021 0.500000 0.000000
#
# Coordination Sequence:
#
# PCOD9490272 Si02
#       6
#    16   8   8  16  16   8
#     4   9  19  37  58  83 113 145 186 237 286 327
#     4  11  23  37  55  83 122 156 180 225 286 343
#     4  11  22  34  54  83 117 152 183 222 280 341
#     4  10  20  35  57  85 114 147 185 228 279 333
#     4  11  21  35  59  85 110 146 192 237 280 335
#     4  11  21  33  53  81 113 152 186 225 287 344
#
# _framework density 18.807276999999999
#
# number of rings (size 3 to 8) (size 9 to 14) (size 15 to 20)
#    0.000    1.667    3.333    2.000    0.000    3.111 
#    2.000    0.000    0.000    6.000    0.000    0.000 
#    0.000    0.000    0.000    0.000    0.000    0.000 
#
# Total GULP energy -200642.506890 kJ/mol
# GULP energy per Si atom -5573.402969 kJ/mol
# Density = 1.876447 g / cm^3
# Si number density = 18.807277 Si / 1000 Ang^3
#
#
#
# Elastic Constant Matrix: (Units=GPa)
#
#
# Indices 1 2 3 4 5 6 
#
# 1 202.1107 90.7560 29.5795 0.0000 0.0000 0.0000
# 2 90.7560 159.9617 7.6774 0.0000 0.0000 0.0000
# 3 29.5795 7.6774 13.7766 0.0000 0.0000 0.0000
# 4 0.0000 0.0000 0.0000 1.0063 0.0000 0.0000
# 5 0.0000 0.0000 0.0000 0.0000 25.0597 0.0000
# 6 0.0000 0.0000 0.0000 0.0000 0.0000 7.8140
#
#
#
# Elastic Compliance Matrix: (Units=1/GPa)
#
#
# Indices 1 2 3 4 5 6 
#
# 1 0.009693 -0.004624 -0.018235 0.000000 0.000000 0.000000
# 2 -0.004624 0.008629 0.005120 0.000000 0.000000 0.000000
# 3 -0.018235 0.005120 0.108885 0.000000 0.000000 0.000000
# 4 0.000000 0.000000 0.000000 0.993784 0.000000 0.000000
# 5 0.000000 0.000000 0.000000 0.000000 0.039905 0.000000
# 6 0.000000 0.000000 0.000000 0.000000 0.000000 0.127975
#
#
# Mechanical properties :
#
#
# Convention : Reuss Voigt Hill
#
# Bulk Modulus (GPa) = 10.90168 70.20831 40.55500
# Shear Modulus (GPa) = 3.69024 23.29840 13.49432
#
# Velocity S-wave (km/s) = 1.40228 3.52347 2.68153
# Velocity P-wave (km/s) = 2.90361 7.34606 5.58550
#
# Compressibility (1/GPa) = 0.09172899
#
# Stress axis : x y z
#
# Youngs Moduli (GPa) = 103.16813 115.88323 9.18400
#
# Poissons Ratio (x) = 0.53587 0.16747
# Poissons Ratio (y) = 0.47707 -0.04702
# Poissons Ratio (z) = 1.88122 -0.59327
#
# Static dielectric constant tensor:
#      x y z
#    x 1.722910 0.000000 0.000000 
#    y 0.000000 1.590850 0.000000 
#    z 0.000000 0.000000 1.650390 
# 
# From -- ./inp_files/9338.got.cif
#   From: 2010.05.17/outbox.cif.g08.bks.cpg/sg65_5_cif.got.tgz:9338.got - 2010.06.03 17:01:31.
