data_PCOD9490383
_publ_section_title
;
Structure prediction by ZEFSAII (Michael W. Deem and Ramdas Pophale) SiO2 
 PCOD9490383
Probable space group: C M M M
;
_chemical_formula_sum "Si O2"
_cell_formula_units_Z 96
_cell_length_a 8.297926
_cell_length_b 25.926181
_cell_length_c 25.081894
_cell_angle_alpha 90.000000
_cell_angle_beta 90.000000
_cell_angle_gamma 90.000000
_cell_volume 5395.956430
_symmetry_space_group_name_H-M "C M M M"
_symmetry_group_IT_number 65
_symmetry_cell_setting 'orthorhombic'
loop_
_space_group_symop_operation_xyz
x,y,z
-x,-y,z
x,-y,-z
-x,y,-z
-x,-y,-z
x,y,-z
-x,y,z
x,-y,z
1/2+x,1/2+y,z
1/2-x,1/2-y,z
1/2+x,1/2-y,-z
1/2-x,1/2+y,-z
1/2-x,1/2-y,-z
1/2+x,1/2+y,-z
1/2-x,1/2+y,z
1/2+x,1/2-y,z
loop_
_atom_site_type_symbol
_atom_site_label
_atom_site_fract_x
_atom_site_fract_y
_atom_site_fract_z
Si Si1 0.686084 0.500000 0.174297
Si Si2 0.691749 0.307321 0.182084
Si Si3 0.685129 0.000000 0.710511
Si Si4 0.808584 0.941126 0.000000
Si Si5 0.311581 0.095146 0.629435
Si Si6 0.194983 0.191583 0.695388
Si Si7 0.500000 0.561502 0.436540
Si Si8 0.689530 0.901125 0.887897
O O1 0.500000 0.500000 0.158442
O O2 0.704038 0.500000 0.237853
O O3 0.764467 0.449294 0.149421
O O4 0.500000 0.307279 0.183041
O O5 0.750000 0.250000 0.168674
O O6 0.744764 0.319138 0.243031
O O7 0.748825 0.349748 0.140615
O O8 0.707304 0.949753 0.673871
O O9 0.500000 0.000000 0.729990
O O10 0.758169 0.912233 0.946372
O O11 0.000000 0.944957 0.000000
O O12 0.741635 0.000000 0.000000
O O13 0.500000 0.092386 0.610472
O O14 0.277443 0.149871 0.657342
O O15 0.165660 0.084677 0.588035
O O16 0.250000 0.250000 0.683418
O O17 0.000000 0.187656 0.691343
O O18 0.500000 0.500000 0.425111
O O19 0.500000 0.568756 0.500000
O O20 0.500000 0.898004 0.892558
#
# Coordination Sequence:
#
# PCOD9490383 Si02
#       8
#     8  16   8   8  16  16   8  16
#     4  12  24  35  55  84 119 157 192 237 300 361
#     4  10  21  38  60  87 123 159 197 242 295 358
#     4  10  22  36  55  86 122 157 191 241 302 365
#     4  11  23  41  64  83 109 146 200 249 301 363
#     4  11  22  38  61  90 125 160 205 255 306 361
#     4  10  20  35  59  91 125 164 204 246 302 367
#     4  11  24  42  66  92 124 166 212 255 307 361
#     4  12  24  39  59  84 115 153 196 246 299 357
#
# _framework density 17.791101000000001
#
# number of rings (size 3 to 8) (size 9 to 14) (size 15 to 20)
#    0.000    1.167    2.500    4.500    1.167    5.333 
#    0.000    1.250    0.000    0.500    0.000    0.000 
#    0.000    0.000    0.000    0.000    0.000    0.000 
#
# Total GULP energy -268170.630155 kJ/mol
# GULP energy per Si atom -5586.888128 kJ/mol
# Density = 1.775061 g / cm^3
# Si number density = 17.791101 Si / 1000 Ang^3
#
#
#
# Elastic Constant Matrix: (Units=GPa)
#
#
# Indices 1 2 3 4 5 6 
#
# 1 105.2512 52.2745 58.4063 0.0000 0.0000 0.0000
# 2 52.2745 121.8020 72.2883 0.0000 0.0000 0.0000
# 3 58.4063 72.2883 99.6985 0.0000 0.0000 0.0000
# 4 0.0000 0.0000 0.0000 53.3842 0.0000 0.0000
# 5 0.0000 0.0000 0.0000 0.0000 19.3020 0.0000
# 6 0.0000 0.0000 0.0000 0.0000 0.0000 30.7854
#
#
#
# Elastic Compliance Matrix: (Units=1/GPa)
#
#
# Indices 1 2 3 4 5 6 
#
# 1 0.014365 -0.002055 -0.006925 0.000000 0.000000 0.000000
# 2 -0.002055 0.014706 -0.009459 0.000000 0.000000 0.000000
# 3 -0.006925 -0.009459 0.020946 0.000000 0.000000 0.000000
# 4 0.000000 0.000000 0.000000 0.018732 0.000000 0.000000
# 5 0.000000 0.000000 0.000000 0.000000 0.051808 0.000000
# 6 0.000000 0.000000 0.000000 0.000000 0.000000 0.032483
#
#
# Mechanical properties :
#
#
# Convention : Reuss Voigt Hill
#
# Bulk Modulus (GPa) = 76.11559 76.96555 76.54057
# Shear Modulus (GPa) = 25.73390 30.27984 28.00687
#
# Velocity S-wave (km/s) = 3.80735 4.12996 3.97193
# Velocity P-wave (km/s) = 7.88693 8.12999 8.00938
#
# Compressibility (1/GPa) = 0.01313791
#
# Stress axis : x y z
#
# Youngs Moduli (GPa) = 69.61521 68.00101 47.74278
#
# Poissons Ratio (x) = 0.13973 0.33063
# Poissons Ratio (y) = 0.14305 0.45159
# Poissons Ratio (z) = 0.48211 0.64321
#
# Static dielectric constant tensor:
#      x y z
#    x 1.612470 0.000000 0.000000 
#    y 0.000000 1.498580 0.000000 
#    z 0.000000 0.000000 1.528550 
# 
# From -- ./inp_files/67950.got.cif
#   From: 2010.05.17/outbox.cif.g08.bks.cpg/sg65_34_cif.got.tgz:67950.got - 2010.06.03 17:01:31.
