data_PCOD9490440
_publ_section_title
;
Structure prediction by ZEFSAII (Michael W. Deem and Ramdas Pophale) SiO2 
 PCOD9490440
Probable space group: C M M M
;
_chemical_formula_sum "Si O2"
_cell_formula_units_Z 104
_cell_length_a 15.287636
_cell_length_b 18.217041
_cell_length_c 20.824986
_cell_angle_alpha 90.000000
_cell_angle_beta 90.000000
_cell_angle_gamma 90.000000
_cell_volume 5799.664718
_symmetry_space_group_name_H-M "C M M M"
_symmetry_group_IT_number 65
_symmetry_cell_setting 'orthorhombic'
loop_
_space_group_symop_operation_xyz
x,y,z
-x,-y,z
x,-y,-z
-x,y,-z
-x,-y,-z
x,y,-z
-x,y,z
x,-y,z
1/2+x,1/2+y,z
1/2-x,1/2-y,z
1/2+x,1/2-y,-z
1/2-x,1/2+y,-z
1/2-x,1/2-y,-z
1/2+x,1/2+y,-z
1/2-x,1/2+y,z
1/2+x,1/2-y,z
loop_
_atom_site_type_symbol
_atom_site_label
_atom_site_fract_x
_atom_site_fract_y
_atom_site_fract_z
Si Si1 0.095640 0.813253 0.179767
Si Si2 0.100259 0.000000 0.421844
Si Si3 0.898275 0.418078 0.273054
Si Si4 0.764111 0.415213 0.154126
Si Si5 0.841679 0.706135 0.071388
Si Si6 0.648326 0.237948 0.310657
Si Si7 0.394390 0.341382 0.573022
O O1 0.176302 0.869372 0.170676
O O2 0.105356 0.750101 0.125611
O O3 0.101694 0.774532 0.249221
O O4 0.000000 0.848630 0.173425
O O5 0.140200 0.078464 0.404192
O O6 0.096710 0.000000 0.500000
O O7 0.000000 0.000000 0.397745
O O8 0.887327 0.500000 0.301822
O O9 0.830809 0.412491 0.214095
O O10 0.877244 0.347229 0.315703
O O11 0.000000 0.412591 0.252213
O O12 0.744106 0.500000 0.140243
O O13 0.814510 0.373773 0.096883
O O14 0.750000 0.750000 0.067972
O O15 0.880675 0.705431 0.000000
O O16 0.750000 0.250000 0.296556
O O17 0.628158 0.280168 0.375993
O O18 0.364378 0.327093 0.500000
O O19 0.500000 0.347789 0.570417
#
# Coordination Sequence:
#
# PCOD9490440 Si02
#       7
#    16   8  16  16  16  16  16
#     4  11  21  36  56  81 115 153 191 232 282 341
#     4   7  12  28  50  74 108 142 174 214 266 337
#     4  10  20  36  58  79 105 146 189 231 283 341
#     4  10  20  36  55  81 115 147 185 232 285 344
#     4   9  18  34  55  79 107 143 187 229 271 324
#     4  12  21  36  55  81 113 146 191 246 291 337
#     4   9  18  33  55  82 111 147 189 232 283 345
#
# _framework density 17.93207
#
# number of rings (size 3 to 8) (size 9 to 14) (size 15 to 20)
#    0.000    2.077    3.077    2.769    0.000    1.231 
#    2.769    0.000    0.000    0.462    0.000    9.692 
#    0.000    0.000    0.000    0.000    0.000    0.000 
#
# Total GULP energy -289751.413377 kJ/mol
# GULP energy per Si atom -5572.142565 kJ/mol
# Density = 1.789126 g / cm^3
# Si number density = 17.932070 Si / 1000 Ang^3
#
#
#
# Elastic Constant Matrix: (Units=GPa)
#
#
# Indices 1 2 3 4 5 6 
#
# 1 87.7959 32.9700 14.6763 0.0000 0.0000 0.0000
# 2 32.9700 164.3243 63.3285 0.0000 0.0000 0.0000
# 3 14.6763 63.3285 95.3301 0.0000 0.0000 0.0000
# 4 0.0000 0.0000 0.0000 21.7784 0.0000 0.0000
# 5 0.0000 0.0000 0.0000 0.0000 27.6110 0.0000
# 6 0.0000 0.0000 0.0000 0.0000 0.0000 20.4865
#
#
#
# Elastic Compliance Matrix: (Units=1/GPa)
#
#
# Indices 1 2 3 4 5 6 
#
# 1 0.012326 -0.002341 -0.000342 0.000000 0.000000 0.000000
# 2 -0.002341 0.008624 -0.005369 0.000000 0.000000 0.000000
# 3 -0.000342 -0.005369 0.014109 0.000000 0.000000 0.000000
# 4 0.000000 0.000000 0.000000 0.045917 0.000000 0.000000
# 5 0.000000 0.000000 0.000000 0.000000 0.036217 0.000000
# 6 0.000000 0.000000 0.000000 0.000000 0.000000 0.048813
#
#
# Mechanical properties :
#
#
# Convention : Reuss Voigt Hill
#
# Bulk Modulus (GPa) = 52.75617 63.26665 58.01141
# Shear Modulus (GPa) = 26.53503 29.74022 28.13762
#
# Velocity S-wave (km/s) = 3.85093 4.07688 3.96551
# Velocity P-wave (km/s) = 7.01832 7.58414 7.30671
#
# Compressibility (1/GPa) = 0.01895513
#
# Stress axis : x y z
#
# Youngs Moduli (GPa) = 81.12608 115.95106 70.87626
#
# Poissons Ratio (x) = 0.27147 0.02427
# Poissons Ratio (y) = 0.18994 0.38052
# Poissons Ratio (z) = 0.02778 0.62251
#
# Static dielectric constant tensor:
#      x y z
#    x 1.645540 0.000000 0.000000 
#    y 0.000000 1.640810 0.000000 
#    z 0.000000 0.000000 1.620040 
# 
# From -- ./inp_files/62824.got.cif
#   From: 2010.05.17/outbox.cif.g08.bks.cpg/sg65_32_cif.got.tgz:62824.got - 2010.06.03 17:01:31.
