data_PCOD9490963
_publ_section_title
;
Structure prediction by ZEFSAII (Michael W. Deem and Ramdas Pophale) SiO2 
 PCOD9490963
Probable space group: C M M M
;
_chemical_formula_sum "Si O2"
_cell_formula_units_Z 56
_cell_length_a 14.655849
_cell_length_b 26.141873
_cell_length_c 7.799341
_cell_angle_alpha 90.000000
_cell_angle_beta 90.000000
_cell_angle_gamma 90.000000
_cell_volume 2988.171994
_symmetry_space_group_name_H-M "C M M M"
_symmetry_group_IT_number 65
_symmetry_cell_setting 'orthorhombic'
loop_
_space_group_symop_operation_xyz
x,y,z
-x,-y,z
x,-y,-z
-x,y,-z
-x,-y,-z
x,y,-z
-x,y,z
x,-y,z
1/2+x,1/2+y,z
1/2-x,1/2-y,z
1/2+x,1/2-y,-z
1/2-x,1/2+y,-z
1/2-x,1/2-y,-z
1/2+x,1/2+y,-z
1/2-x,1/2+y,z
1/2+x,1/2-y,z
loop_
_atom_site_type_symbol
_atom_site_label
_atom_site_fract_x
_atom_site_fract_y
_atom_site_fract_z
Si Si1 0.799193 0.376219 0.699601
Si Si2 0.597222 0.656867 0.297806
Si Si3 0.644945 0.767848 0.194007
Si Si4 0.392030 0.060896 0.000000
O O1 0.798083 0.392440 0.500000
O O2 0.694540 0.365279 0.762474
O O3 0.852496 0.321831 0.710887
O O4 0.846405 0.414433 0.831416
O O5 0.596932 0.646336 0.500000
O O6 0.500000 0.638084 0.224145
O O7 0.598882 0.718217 0.274207
O O8 0.750000 0.750000 0.186487
O O9 0.611975 0.775863 0.000000
O O10 0.500000 0.072157 0.000000
O O11 0.379661 0.000000 0.000000
#
# Coordination Sequence:
#
# PCOD9490963 Si02
#       4
#    16  16  16   8
#     4  10  20  38  62  84 113 152 188 227 280 336
#     4   9  18  31  51  85 124 158 190 220 257 320
#     4   9  16  28  48  78 117 156 191 223 256 305
#     4  11  26  46  64  83 105 131 180 248 302 343
#
# _framework density 18.740555000000001
#
# number of rings (size 3 to 8) (size 9 to 14) (size 15 to 20)
#    0.000    2.429    1.429    0.857    2.000    6.286 
#    0.000    1.429    0.000    1.714    0.000    4.000 
#    0.000    0.000    0.000    0.000    0.000    0.000 
#
# Total GULP energy -155982.276815 kJ/mol
# GULP energy per Si atom -5570.795601 kJ/mol
# Density = 1.869790 g / cm^3
# Si number density = 18.740555 Si / 1000 Ang^3
#
#
#
# Elastic Constant Matrix: (Units=GPa)
#
#
# Indices 1 2 3 4 5 6 
#
# 1 142.3173 63.9024 44.2907 0.0000 0.0000 0.0000
# 2 63.9024 77.3331 45.0812 0.0000 0.0000 0.0000
# 3 44.2907 45.0812 92.5551 0.0000 0.0000 0.0000
# 4 0.0000 0.0000 0.0000 -2.7195 0.0000 0.0000
# 5 0.0000 0.0000 0.0000 0.0000 11.3581 0.0000
# 6 0.0000 0.0000 0.0000 0.0000 0.0000 69.0948
#
#
#
# Elastic Compliance Matrix: (Units=1/GPa)
#
#
# Indices 1 2 3 4 5 6 
#
# 1 0.011266 -0.008612 -0.001196 0.000000 0.000000 0.000000
# 2 -0.008612 0.024641 -0.007881 0.000000 0.000000 0.000000
# 3 -0.001196 -0.007881 0.015216 0.000000 0.000000 0.000000
# 4 0.000000 0.000000 0.000000 -0.367713 0.000000 0.000000
# 5 0.000000 0.000000 0.000000 0.000000 0.088043 0.000000
# 6 0.000000 0.000000 0.000000 0.000000 0.000000 0.014473
#
#
# Mechanical properties :
#
#
# Convention : Reuss Voigt Hill
#
# Bulk Modulus (GPa) = 63.51609 68.75045 66.13327
# Shear Modulus (GPa) = -28.82708 26.14210 -1.34249
#
# Velocity S-wave (km/s) = -3.92627 3.73895 -0.84730
# Velocity P-wave (km/s) = 3.66221 7.44343 5.86585
#
# Compressibility (1/GPa) = 0.01574404
#
# Stress axis : x y z
#
# Youngs Moduli (GPa) = 88.76556 40.58206 65.72152
#
# Poissons Ratio (x) = 0.34948 0.07864
# Poissons Ratio (y) = 0.76441 0.51797
# Poissons Ratio (z) = 0.10621 0.31984
#
# Static dielectric constant tensor:
#      x y z
#    x 1.849740 0.000000 0.000000 
#    y 0.000000 1.609550 0.000000 
#    z 0.000000 0.000000 1.663770 
# 
# From -- ./inp_files/6259.got.cif
#   From: 2010.05.17/outbox.cif.g08.bks.cpg/sg65_4_cif.got.tgz:6259.got - 2010.06.03 17:01:31.
