data_PCOD9490931
_publ_section_title
;
Structure prediction by ZEFSAII (Michael W. Deem and Ramdas Pophale) SiO2 
 PCOD9490931
Probable space group: C M M M
;
_chemical_formula_sum "Si O2"
_cell_formula_units_Z 90
_cell_length_a 23.311535
_cell_length_b 17.648019
_cell_length_c 11.521113
_cell_angle_alpha 90.000000
_cell_angle_beta 90.000000
_cell_angle_gamma 90.000000
_cell_volume 4739.813684
_symmetry_space_group_name_H-M "C M M M"
_symmetry_group_IT_number 65
_symmetry_cell_setting 'orthorhombic'
loop_
_space_group_symop_operation_xyz
x,y,z
-x,-y,z
x,-y,-z
-x,y,-z
-x,-y,-z
x,y,-z
-x,y,z
x,-y,z
1/2+x,1/2+y,z
1/2-x,1/2-y,z
1/2+x,1/2-y,-z
1/2-x,1/2+y,-z
1/2-x,1/2-y,-z
1/2+x,1/2+y,-z
1/2-x,1/2+y,z
1/2+x,1/2-y,z
loop_
_atom_site_type_symbol
_atom_site_label
_atom_site_fract_x
_atom_site_fract_y
_atom_site_fract_z
Si Si1 0.564422 0.219452 0.753237
Si Si2 0.783089 0.408823 0.000000
Si Si3 0.913739 0.645880 0.000000
Si Si4 0.248613 0.591097 0.744603
Si Si5 0.375673 0.086444 0.361909
Si Si6 0.136942 0.150039 0.638911
Si Si7 0.434575 0.500000 0.640338
Si Si8 0.500000 0.000000 0.000000
O O1 0.500000 0.247926 0.733452
O O2 0.572256 0.194596 0.885963
O O3 0.576052 0.143018 0.681059
O O4 0.609838 0.280093 0.707363
O O5 0.751082 0.388824 0.119214
O O6 0.789717 0.500000 0.000000
O O7 0.846439 0.374084 0.000000
O O8 0.950183 0.568029 0.000000
O O9 0.257279 0.500000 0.731662
O O10 0.185098 0.607317 0.696083
O O11 0.297768 0.633894 0.674811
O O12 0.369371 0.089504 0.500000
O O13 0.388959 0.000000 0.327085
O O14 0.132540 0.161818 0.500000
O O15 0.100412 0.075191 0.672041
O O16 0.500000 0.500000 0.683882
O O17 0.436996 0.500000 0.500000
#
# Coordination Sequence:
#
# PCOD9490931 Si02
#       8
#    16   8   8  16  16  16   8   2
#     4  12  26  42  62  93 132 169 214 273 327 379
#     4  10  20  37  66  96 125 161 209 273 332 376
#     4  12  24  43  67  97 126 171 225 273 317 382
#     4  10  20  38  65  96 128 163 216 275 326 388
#     4  10  22  38  60  89 126 170 209 259 328 400
#     4  11  23  40  65  94 130 175 217 269 329 390
#     4   9  18  36  63  91 118 165 227 268 307 376
#     4  12  24  40  80  96 118 182 240 268 314 386
#
# _framework density 18.988088000000001
#
# number of rings (size 3 to 8) (size 9 to 14) (size 15 to 20)
#    0.000    1.333    4.000    1.600    1.244    4.622 
#    0.000    3.556    0.000    0.000    0.000    2.489 
#    0.000    0.000    0.000    0.000    0.000    0.000 
#
# Total GULP energy -251190.867837 kJ/mol
# GULP energy per Si atom -5582.019285 kJ/mol
# Density = 1.894487 g / cm^3
# Si number density = 18.988088 Si / 1000 Ang^3
#
#
#
# Elastic Constant Matrix: (Units=GPa)
#
#
# Indices 1 2 3 4 5 6 
#
# 1 46.6608 17.8158 12.0293 0.0000 0.0000 0.0000
# 2 17.8158 69.6415 34.8065 0.0000 0.0000 0.0000
# 3 12.0293 34.8065 86.5818 0.0000 0.0000 0.0000
# 4 0.0000 0.0000 0.0000 19.5933 0.0000 0.0000
# 5 0.0000 0.0000 0.0000 0.0000 7.7758 0.0000
# 6 0.0000 0.0000 0.0000 0.0000 0.0000 26.8643
#
#
#
# Elastic Compliance Matrix: (Units=1/GPa)
#
#
# Indices 1 2 3 4 5 6 
#
# 1 0.023831 -0.005559 -0.001076 0.000000 0.000000 0.000000
# 2 -0.005559 0.019266 -0.006973 0.000000 0.000000 0.000000
# 3 -0.001076 -0.006973 0.014502 0.000000 0.000000 0.000000
# 4 0.000000 0.000000 0.000000 0.051038 0.000000 0.000000
# 5 0.000000 0.000000 0.000000 0.000000 0.128604 0.000000
# 6 0.000000 0.000000 0.000000 0.000000 0.000000 0.037224
#
#
# Mechanical properties :
#
#
# Convention : Reuss Voigt Hill
#
# Bulk Modulus (GPa) = 32.91190 36.90973 34.91081
# Shear Modulus (GPa) = 16.03540 20.06217 18.04878
#
# Velocity S-wave (km/s) = 2.90918 3.25401 3.08641
# Velocity P-wave (km/s) = 5.35303 5.79644 5.57914
#
# Compressibility (1/GPa) = 0.03038415
#
# Stress axis : x y z
#
# Youngs Moduli (GPa) = 41.96192 51.90414 68.95371
#
# Poissons Ratio (x) = 0.28851 0.07422
# Poissons Ratio (y) = 0.23325 0.48081
# Poissons Ratio (z) = 0.04517 0.36192
#
# Static dielectric constant tensor:
#      x y z
#    x 1.634690 0.000000 0.000000 
#    y 0.000000 1.657550 0.000000 
#    z 0.000000 0.000000 1.672520 
# 
# From -- ./inp_files/28820.got.cif
#   From: 2010.05.17/outbox.cif.g08.bks.cpg/sg65_15_cif.got.tgz:28820.got - 2010.06.03 17:01:31.
