data_PCOD9490377
_publ_section_title
;
Structure prediction by ZEFSAII (Michael W. Deem and Ramdas Pophale) SiO2 
 PCOD9490377
Probable space group: C M M M
;
_chemical_formula_sum "Si O2"
_cell_formula_units_Z 96
_cell_length_a 14.561015
_cell_length_b 22.368893
_cell_length_c 15.493709
_cell_angle_alpha 90.000000
_cell_angle_beta 90.000000
_cell_angle_gamma 90.000000
_cell_volume 5046.514625
_symmetry_space_group_name_H-M "C M M M"
_symmetry_group_IT_number 65
_symmetry_cell_setting 'orthorhombic'
loop_
_space_group_symop_operation_xyz
x,y,z
-x,-y,z
x,-y,-z
-x,y,-z
-x,-y,-z
x,y,-z
-x,y,z
x,-y,z
1/2+x,1/2+y,z
1/2-x,1/2-y,z
1/2+x,1/2-y,-z
1/2-x,1/2+y,-z
1/2-x,1/2-y,-z
1/2+x,1/2+y,-z
1/2-x,1/2+y,z
1/2+x,1/2-y,z
loop_
_atom_site_type_symbol
_atom_site_label
_atom_site_fract_x
_atom_site_fract_y
_atom_site_fract_z
Si Si1 0.854714 0.772971 0.598297
Si Si2 0.897524 0.355112 0.660052
Si Si3 0.790681 0.619479 0.832791
Si Si4 0.608276 0.000000 0.103989
Si Si5 0.388016 0.931584 0.500000
Si Si6 0.393538 0.336803 0.774200
Si Si7 0.605651 0.226677 0.903961
O O1 0.876826 0.791781 0.500000
O O2 0.750000 0.750000 0.600009
O O3 0.904844 0.711698 0.624072
O O4 0.873314 0.820405 0.674069
O O5 0.835115 0.359464 0.742809
O O6 0.857956 0.396424 0.584530
O O7 0.000000 0.376437 0.682646
O O8 0.838214 0.558309 0.861747
O O9 0.681929 0.619011 0.814948
O O10 0.823055 0.672726 0.895719
O O11 0.500000 0.000000 0.130026
O O12 0.610548 0.000000 0.000000
O O13 0.500000 0.929164 0.500000
O O14 0.359621 0.000000 0.500000
O O15 0.500000 0.354868 0.783003
O O16 0.381066 0.275466 0.829400
O O17 0.500000 0.203657 0.894627
O O18 0.612689 0.253595 0.000000
#
# Coordination Sequence:
#
# PCOD9490377 Si02
#       7
#    16  16  16   8   8  16  16
#     4  11  20  34  56  86 123 165 209 253 309 372
#     4  11  20  32  53  81 115 154 191 242 304 363
#     4  12  23  39  59  86 119 157 199 247 302 362
#     4  11  26  46  69  96 122 153 197 248 309 380
#     4   9  20  34  49  76 113 153 198 238 291 357
#     4  11  23  39  58  86 122 162 208 253 305 365
#     4  10  20  35  59  89 121 155 190 237 302 368
#
# _framework density 19.023029999999999
#
# number of rings (size 3 to 8) (size 9 to 14) (size 15 to 20)
#    0.000    1.167    4.167    3.000    1.167    4.333 
#    0.000    0.417    0.000    0.500    0.000    0.000 
#    0.000    2.000    0.000    0.000    0.000    0.000 
#
# Total GULP energy -268008.159821 kJ/mol
# GULP energy per Si atom -5583.503330 kJ/mol
# Density = 1.897973 g / cm^3
# Si number density = 19.023030 Si / 1000 Ang^3
#
#
#
# Elastic Constant Matrix: (Units=GPa)
#
#
# Indices 1 2 3 4 5 6 
#
# 1 132.4223 37.1814 32.7238 0.0000 0.0000 0.0000
# 2 37.1814 52.9676 20.5209 0.0000 0.0000 0.0000
# 3 32.7238 20.5209 110.8868 0.0000 0.0000 0.0000
# 4 0.0000 0.0000 0.0000 54.7924 0.0000 0.0000
# 5 0.0000 0.0000 0.0000 0.0000 22.6108 0.0000
# 6 0.0000 0.0000 0.0000 0.0000 0.0000 41.2959
#
#
#
# Elastic Compliance Matrix: (Units=1/GPa)
#
#
# Indices 1 2 3 4 5 6 
#
# 1 0.009703 -0.006142 -0.001727 0.000000 0.000000 0.000000
# 2 -0.006142 0.024226 -0.002671 0.000000 0.000000 0.000000
# 3 -0.001727 -0.002671 0.010022 0.000000 0.000000 0.000000
# 4 0.000000 0.000000 0.000000 0.018251 0.000000 0.000000
# 5 0.000000 0.000000 0.000000 0.000000 0.044227 0.000000
# 6 0.000000 0.000000 0.000000 0.000000 0.000000 0.024215
#
#
# Mechanical properties :
#
#
# Convention : Reuss Voigt Hill
#
# Bulk Modulus (GPa) = 43.72239 53.01433 48.36836
# Shear Modulus (GPa) = 31.37819 37.46319 34.42069
#
# Velocity S-wave (km/s) = 4.06579 4.44256 4.25834
# Velocity P-wave (km/s) = 6.71377 7.36506 7.04694
#
# Compressibility (1/GPa) = 0.02287158
#
# Stress axis : x y z
#
# Youngs Moduli (GPa) = 103.06219 41.27854 99.78026
#
# Poissons Ratio (x) = 0.25354 0.17230
# Poissons Ratio (y) = 0.63302 0.26648
# Poissons Ratio (z) = 0.17796 0.11024
#
# Static dielectric constant tensor:
#      x y z
#    x 1.757490 0.000000 0.000000 
#    y 0.000000 1.625630 0.000000 
#    z 0.000000 0.000000 2.145980 
# 
# From -- ./inp_files/40442.got.cif
#   From: 2010.05.17/outbox.cif.g08.bks.cpg/sg65_21_cif.got.tgz:40442.got - 2010.06.03 17:01:31.
