data_PCOD9490046
_publ_section_title
;
Structure prediction by ZEFSAII (Michael W. Deem and Ramdas Pophale) SiO2 
 PCOD9490046
Probable space group: C M M M
;
_chemical_formula_sum "Si O2"
_cell_formula_units_Z 90
_cell_length_a 25.100481
_cell_length_b 20.886379
_cell_length_c 8.560666
_cell_angle_alpha 90.000000
_cell_angle_beta 90.000000
_cell_angle_gamma 90.000000
_cell_volume 4487.998999
_symmetry_space_group_name_H-M "C M M M"
_symmetry_group_IT_number 65
_symmetry_cell_setting 'orthorhombic'
loop_
_space_group_symop_operation_xyz
x,y,z
-x,-y,z
x,-y,-z
-x,y,-z
-x,-y,-z
x,y,-z
-x,y,z
x,-y,z
1/2+x,1/2+y,z
1/2-x,1/2-y,z
1/2+x,1/2-y,-z
1/2-x,1/2+y,-z
1/2-x,1/2-y,-z
1/2+x,1/2+y,-z
1/2-x,1/2+y,z
1/2+x,1/2-y,z
loop_
_atom_site_type_symbol
_atom_site_label
_atom_site_fract_x
_atom_site_fract_y
_atom_site_fract_z
Si Si1 0.500000 0.500000 0.500000
Si Si2 0.616327 0.108553 0.313662
Si Si3 0.388210 0.500000 0.674262
Si Si4 0.500000 0.899279 0.316744
Si Si5 0.771850 0.574040 0.822090
Si Si6 0.383925 0.749057 0.817272
Si Si7 0.830953 0.873111 0.683218
Si Si8 0.000000 0.260343 0.182469
O O1 0.451251 0.500000 0.634612
O O2 0.618129 0.099147 0.500000
O O3 0.558611 0.082473 0.254815
O O4 0.667626 0.078376 0.234520
O O5 0.620139 0.184376 0.275235
O O6 0.361712 0.500000 0.500000
O O7 0.366183 0.433647 0.745172
O O8 0.500000 0.915314 0.500000
O O9 0.500000 0.822505 0.291777
O O10 0.755538 0.500000 0.819248
O O11 0.730632 0.611162 0.713601
O O12 0.767836 0.597926 0.000000
O O13 0.345629 0.692938 0.765578
O O14 0.444790 0.724549 0.792656
O O15 0.376939 0.763832 0.000000
O O16 0.842431 0.865099 0.500000
O O17 0.000000 0.282561 0.000000
#
# Coordination Sequence:
#
# PCOD9490046 Si02
#       8
#     2  16   8   8  16  16  16   8
#     4   8  16  36  56  88 122 148 192 254 304 332
#     4  10  20  37  61  89 117 151 189 238 287 344
#     4   8  18  34  55  79 115 148 188 236 289 334
#     4   8  16  32  56  84 116 145 181 227 285 335
#     4  11  24  41  61  83 111 151 196 239 290 349
#     4  10  20  35  55  84 120 154 191 235 290 348
#     4  11  21  37  58  84 112 151 194 240 287 340
#     4   8  16  31  51  76 112 155 189 224 276 343
#
# _framework density 20.05348
#
# number of rings (size 3 to 8) (size 9 to 14) (size 15 to 20)
#    0.267    1.956    0.889    2.133    0.000    3.911 
#    0.000    4.000    0.000    2.667    0.000    3.111 
#    0.000    0.000    0.000    0.000    0.000    0.000 
#
# Total GULP energy -250506.883474 kJ/mol
# GULP energy per Si atom -5566.819633 kJ/mol
# Density = 2.000784 g / cm^3
# Si number density = 20.053480 Si / 1000 Ang^3
#
#
#
# Elastic Constant Matrix: (Units=GPa)
#
#
# Indices 1 2 3 4 5 6 
#
# 1 101.7269 10.2407 -2.7198 0.0000 0.0000 0.0000
# 2 10.2407 39.6295 -2.8704 0.0000 0.0000 0.0000
# 3 -2.7198 -2.8704 26.6264 0.0000 0.0000 0.0000
# 4 0.0000 0.0000 0.0000 14.3099 0.0000 0.0000
# 5 0.0000 0.0000 0.0000 0.0000 23.6888 0.0000
# 6 0.0000 0.0000 0.0000 0.0000 0.0000 -2.1860
#
#
#
# Elastic Compliance Matrix: (Units=1/GPa)
#
#
# Indices 1 2 3 4 5 6 
#
# 1 0.010108 -0.002557 0.000757 0.000000 0.000000 0.000000
# 2 -0.002557 0.026079 0.002550 0.000000 0.000000 0.000000
# 3 0.000757 0.002550 0.037909 0.000000 0.000000 0.000000
# 4 0.000000 0.000000 0.000000 0.069882 0.000000 0.000000
# 5 0.000000 0.000000 0.000000 0.000000 0.042214 0.000000
# 6 0.000000 0.000000 0.000000 0.000000 0.000000 -0.457455
#
#
# Mechanical properties :
#
#
# Convention : Reuss Voigt Hill
#
# Bulk Modulus (GPa) = 13.22827 19.69820 16.46323
# Shear Modulus (GPa) = -20.19678 18.05136 -1.07271
#
# Velocity S-wave (km/s) = -3.17700 3.00352 -0.73218
# Velocity P-wave (km/s) = 2.61667 4.67679 2.74093
#
# Compressibility (1/GPa) = 0.07559569
#
# Stress axis : x y z
#
# Youngs Moduli (GPa) = 98.93248 38.34472 26.37901
#
# Poissons Ratio (x) = 0.09805 -0.01996
# Poissons Ratio (y) = 0.25299 -0.06727
# Poissons Ratio (z) = -0.07487 -0.09779
#
# Static dielectric constant tensor:
#      x y z
#    x 1.727860 0.000000 0.000000 
#    y 0.000000 1.705720 0.000000 
#    z 0.000000 0.000000 1.711670 
# 
# From -- ./inp_files/14131.got.cif
#   From: 2010.05.17/outbox.cif.g08.bks.cpg/sg65_8_cif.got.tgz:14131.got - 2010.06.03 17:01:31.
