data_PCOD9490157
_publ_section_title
;
Structure prediction by ZEFSAII (Michael W. Deem and Ramdas Pophale) SiO2 
 PCOD9490157
Probable space group: C M M M
;
_chemical_formula_sum "Si O2"
_cell_formula_units_Z 72
_cell_length_a 15.058814
_cell_length_b 9.866357
_cell_length_c 25.493549
_cell_angle_alpha 90.000000
_cell_angle_beta 90.000000
_cell_angle_gamma 90.000000
_cell_volume 3787.720229
_symmetry_space_group_name_H-M "C M M M"
_symmetry_group_IT_number 65
_symmetry_cell_setting 'orthorhombic'
loop_
_space_group_symop_operation_xyz
x,y,z
-x,-y,z
x,-y,-z
-x,y,-z
-x,-y,-z
x,y,-z
-x,y,z
x,-y,z
1/2+x,1/2+y,z
1/2-x,1/2-y,z
1/2+x,1/2-y,-z
1/2-x,1/2+y,-z
1/2-x,1/2-y,-z
1/2+x,1/2+y,-z
1/2-x,1/2+y,z
1/2+x,1/2-y,z
loop_
_atom_site_type_symbol
_atom_site_label
_atom_site_fract_x
_atom_site_fract_y
_atom_site_fract_z
Si Si1 0.334472 0.161308 0.631417
Si Si2 0.500000 0.835582 0.559715
Si Si3 0.608402 0.154876 0.059659
Si Si4 0.607510 0.845972 0.750902
Si Si5 0.391154 0.344764 0.154400
O O1 0.250000 0.250000 0.618532
O O2 0.414267 0.202655 0.593288
O O3 0.360067 0.183618 0.692285
O O4 0.319103 0.000000 0.625345
O O5 0.500000 0.785738 0.500000
O O6 0.500000 0.000000 0.557919
O O7 0.500000 0.155573 0.060107
O O8 0.637635 0.262088 0.102956
O O9 0.635117 0.000000 0.072164
O O10 0.635800 0.186764 0.000000
O O11 0.500000 0.844319 0.749737
O O12 0.636875 0.737686 0.793976
O O13 0.634244 0.000000 0.765240
O O14 0.500000 0.345565 0.154264
O O15 0.361407 0.500000 0.154445
#
# Coordination Sequence:
#
# PCOD9490157 Si02
#       5
#    16   8  16  16  16
#     4  10  20  35  56  83 111 144 185 227 272 321
#     4   9  18  36  61  85 113 151 190 223 262 321
#     4   8  13  21  32  47  73 114 162 207 253 310
#     4   9  16  29  48  66  91 130 175 215 255 315
#     4   9  16  23  34  57  86 117 158 209 267 319
#
# _framework density 19.008796
#
# number of rings (size 3 to 8) (size 9 to 14) (size 15 to 20)
#    0.000    3.000    1.111    1.333    0.000    4.444 
#    0.000    2.778    0.000    0.667    0.000    0.000 
#    0.000    0.889    0.000    2.889    0.000    5.778 
#
# Total GULP energy -200887.190363 kJ/mol
# GULP energy per Si atom -5580.199732 kJ/mol
# Density = 1.896553 g / cm^3
# Si number density = 19.008796 Si / 1000 Ang^3
#
#
#
# Elastic Constant Matrix: (Units=GPa)
#
#
# Indices 1 2 3 4 5 6 
#
# 1 65.4589 55.2236 57.1586 0.0000 0.0000 0.0000
# 2 55.2236 116.9412 112.4609 0.0000 0.0000 0.0000
# 3 57.1586 112.4609 165.8202 0.0000 0.0000 0.0000
# 4 0.0000 0.0000 0.0000 4.1057 0.0000 0.0000
# 5 0.0000 0.0000 0.0000 0.0000 -13.6802 0.0000
# 6 0.0000 0.0000 0.0000 0.0000 0.0000 16.0903
#
#
#
# Elastic Compliance Matrix: (Units=1/GPa)
#
#
# Indices 1 2 3 4 5 6 
#
# 1 0.025578 -0.010351 -0.001797 0.000000 0.000000 0.000000
# 2 -0.010351 0.028778 -0.015949 0.000000 0.000000 0.000000
# 3 -0.001797 -0.015949 0.017467 0.000000 0.000000 0.000000
# 4 0.000000 0.000000 0.000000 0.243566 0.000000 0.000000
# 5 0.000000 0.000000 0.000000 0.000000 -0.073098 0.000000
# 6 0.000000 0.000000 0.000000 0.000000 0.000000 0.062149
#
#
# Mechanical properties :
#
#
# Convention : Reuss Voigt Hill
#
# Bulk Modulus (GPa) = 63.98465 88.65625 76.32045
# Shear Modulus (GPa) = 13.66708 9.52830 11.59769
#
# Velocity S-wave (km/s) = 2.68430 2.24131 2.47275
# Velocity P-wave (km/s) = 6.58338 7.31018 6.95628
#
# Compressibility (1/GPa) = 0.01562875
#
# Stress axis : x y z
#
# Youngs Moduli (GPa) = 39.09592 34.74934 57.25134
#
# Poissons Ratio (x) = 0.35969 0.10286
# Poissons Ratio (y) = 0.40468 0.91311
# Poissons Ratio (z) = 0.07024 0.55422
#
# Static dielectric constant tensor:
#      x y z
#    x 1.688200 0.000000 0.000000 
#    y 0.000000 1.634290 0.000000 
#    z 0.000000 0.000000 1.641930 
# 
# From -- ./inp_files/67107.got.cif
#   From: 2010.05.17/outbox.cif.g08.bks.cpg/sg65_34_cif.got.tgz:67107.got - 2010.06.03 17:01:31.
