data_PCOD9490563
_publ_section_title
;
Structure prediction by ZEFSAII (Michael W. Deem and Ramdas Pophale) SiO2 
 PCOD9490563
Probable space group: C M M M
;
_chemical_formula_sum "Si O2"
_cell_formula_units_Z 72
_cell_length_a 8.801250
_cell_length_b 16.150356
_cell_length_c 26.887675
_cell_angle_alpha 90.000000
_cell_angle_beta 90.000000
_cell_angle_gamma 90.000000
_cell_volume 3821.903412
_symmetry_space_group_name_H-M "C M M M"
_symmetry_group_IT_number 65
_symmetry_cell_setting 'orthorhombic'
loop_
_space_group_symop_operation_xyz
x,y,z
-x,-y,z
x,-y,-z
-x,y,-z
-x,-y,-z
x,y,-z
-x,y,z
x,-y,z
1/2+x,1/2+y,z
1/2-x,1/2-y,z
1/2+x,1/2-y,-z
1/2-x,1/2+y,-z
1/2-x,1/2-y,-z
1/2+x,1/2+y,-z
1/2-x,1/2+y,z
1/2+x,1/2-y,z
loop_
_atom_site_type_symbol
_atom_site_label
_atom_site_fract_x
_atom_site_fract_y
_atom_site_fract_z
Si Si1 0.183884 0.663083 0.794192
Si Si2 0.814817 0.500000 0.733684
Si Si3 0.814470 0.500000 0.619053
Si Si4 0.820625 0.158938 0.000000
Si Si5 0.822364 0.403068 0.899499
Si Si6 0.316832 0.838292 0.558070
O O1 0.250000 0.750000 0.776271
O O2 0.232786 0.583586 0.762027
O O3 0.231636 0.647524 0.851497
O O4 0.000000 0.665753 0.793454
O O5 0.766269 0.500000 0.676379
O O6 0.000000 0.500000 0.734604
O O7 0.766035 0.416753 0.590467
O O8 0.000000 0.500000 0.618250
O O9 0.750000 0.250000 0.000000
O O10 0.765504 0.114226 0.049988
O O11 0.000000 0.164539 0.000000
O O12 0.813713 0.500000 0.886419
O O13 0.000000 0.383052 0.908247
O O14 0.275091 0.850835 0.500000
O O15 0.500000 0.833947 0.560596
O O16 0.250000 0.750000 0.574353
#
# Coordination Sequence:
#
# PCOD9490563 Si02
#       6
#    16   8   8   8  16  16
#     4  10  20  36  58  81 105 138 177 219 264 318
#     4   9  18  35  55  77 105 138 179 222 267 318
#     4   9  17  30  52  76 101 139 182 222 263 314
#     4  12  25  38  53  79 111 141 175 217 262 315
#     4  10  20  37  59  80 106 140 174 211 263 323
#     4   9  17  30  49  75 106 140 179 220 263 314
#
# _framework density 18.838781000000001
#
# number of rings (size 3 to 8) (size 9 to 14) (size 15 to 20)
#    0.000    2.222    1.111    2.333    0.000    6.667 
#    0.000    1.111    0.000    4.000    0.000    0.000 
#    0.000    0.000    0.000    0.000    0.000    0.000 
#
# Total GULP energy -200952.287792 kJ/mol
# GULP energy per Si atom -5582.007994 kJ/mol
# Density = 1.879590 g / cm^3
# Si number density = 18.838781 Si / 1000 Ang^3
#
#
#
# Elastic Constant Matrix: (Units=GPa)
#
#
# Indices 1 2 3 4 5 6 
#
# 1 20.2871 27.1731 25.0559 0.0000 0.0000 0.0000
# 2 27.1731 163.4521 90.4374 0.0000 0.0000 0.0000
# 3 25.0559 90.4374 123.2653 0.0000 0.0000 0.0000
# 4 0.0000 0.0000 0.0000 7.4711 0.0000 0.0000
# 5 0.0000 0.0000 0.0000 0.0000 8.9656 0.0000
# 6 0.0000 0.0000 0.0000 0.0000 0.0000 31.8415
#
#
#
# Elastic Compliance Matrix: (Units=1/GPa)
#
#
# Indices 1 2 3 4 5 6 
#
# 1 0.069453 -0.006287 -0.009505 0.000000 0.000000 0.000000
# 2 -0.006287 0.010868 -0.006696 0.000000 0.000000 0.000000
# 3 -0.009505 -0.006696 0.014957 0.000000 0.000000 0.000000
# 4 0.000000 0.000000 0.000000 0.133848 0.000000 0.000000
# 5 0.000000 0.000000 0.000000 0.000000 0.111537 0.000000
# 6 0.000000 0.000000 0.000000 0.000000 0.000000 0.031406
#
#
# Mechanical properties :
#
#
# Convention : Reuss Voigt Hill
#
# Bulk Modulus (GPa) = 19.87975 65.81527 42.84751
# Shear Modulus (GPa) = 11.52577 20.61153 16.06865
#
# Velocity S-wave (km/s) = 2.47616 3.31131 2.92371
# Velocity P-wave (km/s) = 4.33020 7.04497 5.84732
#
# Compressibility (1/GPa) = 0.05030244
#
# Stress axis : x y z
#
# Youngs Moduli (GPa) = 14.39833 92.01472 66.85860
#
# Poissons Ratio (x) = 0.57852 0.63547
# Poissons Ratio (y) = 0.09053 0.44765
# Poissons Ratio (z) = 0.13685 0.61609
#
# Static dielectric constant tensor:
#      x y z
#    x 1.629140 0.000000 0.000000 
#    y 0.000000 1.647420 0.000000 
#    z 0.000000 0.000000 1.656150 
# 
# From -- ./inp_files/72574.got.cif
#   From: 2010.05.17/outbox.cif.g08.bks.cpg/sg65_37_cif.got.tgz:72574.got - 2010.06.03 17:01:31.
