data_PCOD9490789
_publ_section_title
;
Structure prediction by ZEFSAII (Michael W. Deem and Ramdas Pophale) SiO2 
 PCOD9490789
Probable space group: C M M M
;
_chemical_formula_sum "Si O2"
_cell_formula_units_Z 48
_cell_length_a 14.670370
_cell_length_b 8.544393
_cell_length_c 19.979914
_cell_angle_alpha 90.000000
_cell_angle_beta 90.000000
_cell_angle_gamma 90.000000
_cell_volume 2504.470367
_symmetry_space_group_name_H-M "C M M M"
_symmetry_group_IT_number 65
_symmetry_cell_setting 'orthorhombic'
loop_
_space_group_symop_operation_xyz
x,y,z
-x,-y,z
x,-y,-z
-x,y,-z
-x,-y,-z
x,y,-z
-x,y,z
x,-y,z
1/2+x,1/2+y,z
1/2-x,1/2-y,z
1/2+x,1/2-y,-z
1/2-x,1/2+y,-z
1/2-x,1/2-y,-z
1/2+x,1/2+y,-z
1/2-x,1/2+y,z
1/2+x,1/2-y,z
loop_
_atom_site_type_symbol
_atom_site_label
_atom_site_fract_x
_atom_site_fract_y
_atom_site_fract_z
Si Si1 0.500000 0.185715 0.248865
Si Si2 0.647132 0.813063 0.500000
Si Si3 0.353371 0.311136 0.146818
Si Si4 0.853394 0.188467 0.000000
Si Si5 0.500000 0.686311 0.601710
O O1 0.413579 0.239831 0.205292
O O2 0.500000 0.265008 0.321263
O O3 0.500000 0.000000 0.257064
O O4 0.750000 0.750000 0.500000
O O5 0.588639 0.753503 0.563521
O O6 0.648267 0.000000 0.500000
O O7 0.355003 0.500000 0.150978
O O8 0.250000 0.250000 0.151374
O O9 0.390626 0.264170 0.072667
O O10 0.750000 0.250000 0.000000
O O11 0.853557 0.000000 0.000000
O O12 0.500000 0.500000 0.594632
#
# Coordination Sequence:
#
# PCOD9490789 Si02
#       5
#     8   8  16   8   8
#     4  12  25  40  57  84 119 158 197 240 291 348
#     4  11  22  41  68  98 126 157 192 231 278 336
#     4  10  20  37  58  83 113 151 195 245 298 353
#     4   8  16  31  54  79 108 144 190 243 296 347
#     4  11  23  42  64  91 123 156 194 241 287 338
#
# _framework density 19.165728999999999
#
# number of rings (size 3 to 8) (size 9 to 14) (size 15 to 20)
#    0.000    1.667    0.000    6.500    0.000    3.333 
#    0.000   10.000    0.000    0.000    0.000    0.000 
#    0.000    0.000    0.000    0.000    0.000    0.000 
#
# Total GULP energy -134048.006739 kJ/mol
# GULP energy per Si atom -5585.333614 kJ/mol
# Density = 1.912211 g / cm^3
# Si number density = 19.165729 Si / 1000 Ang^3
#
#
#
# Elastic Constant Matrix: (Units=GPa)
#
#
# Indices 1 2 3 4 5 6 
#
# 1 145.8533 50.9497 80.6658 0.0000 0.0000 0.0000
# 2 50.9497 140.0571 56.4359 0.0000 0.0000 0.0000
# 3 80.6658 56.4359 186.0323 0.0000 0.0000 0.0000
# 4 0.0000 0.0000 0.0000 30.9272 0.0000 0.0000
# 5 0.0000 0.0000 0.0000 0.0000 12.1453 0.0000
# 6 0.0000 0.0000 0.0000 0.0000 0.0000 32.2703
#
#
#
# Elastic Compliance Matrix: (Units=1/GPa)
#
#
# Indices 1 2 3 4 5 6 
#
# 1 0.009508 -0.002048 -0.003502 0.000000 0.000000 0.000000
# 2 -0.002048 0.008575 -0.001713 0.000000 0.000000 0.000000
# 3 -0.003502 -0.001713 0.007414 0.000000 0.000000 0.000000
# 4 0.000000 0.000000 0.000000 0.032334 0.000000 0.000000
# 5 0.000000 0.000000 0.000000 0.000000 0.082336 0.000000
# 6 0.000000 0.000000 0.000000 0.000000 0.000000 0.030988
#
#
# Mechanical properties :
#
#
# Convention : Reuss Voigt Hill
#
# Bulk Modulus (GPa) = 91.14817 94.22728 92.68772
# Shear Modulus (GPa) = 26.40774 33.99466 30.20120
#
# Velocity S-wave (km/s) = 3.71598 4.21613 3.97393
# Velocity P-wave (km/s) = 8.12850 8.54237 8.33801
#
# Compressibility (1/GPa) = 0.01097115
#
# Stress axis : x y z
#
# Youngs Moduli (GPa) = 105.17263 116.61297 134.88797
#
# Poissons Ratio (x) = 0.23881 0.47232
# Poissons Ratio (y) = 0.21538 0.23113
# Poissons Ratio (z) = 0.36827 0.19981
#
# Static dielectric constant tensor:
#      x y z
#    x 1.659460 0.000000 0.000000 
#    y 0.000000 1.641100 0.000000 
#    z 0.000000 0.000000 1.667830 
# 
# From -- ./inp_files/52343.got.cif
#   From: 2010.05.17/outbox.cif.g08.bks.cpg/sg65_27_cif.got.tgz:52343.got - 2010.06.03 17:01:31.
