data_PCOD9490193
_publ_section_title
;
Structure prediction by ZEFSAII (Michael W. Deem and Ramdas Pophale) SiO2 
 PCOD9490193
Probable space group: C M M M
;
_chemical_formula_sum "Si O2"
_cell_formula_units_Z 66
_cell_length_a 14.500841
_cell_length_b 30.796292
_cell_length_c 7.317012
_cell_angle_alpha 90.000000
_cell_angle_beta 90.000000
_cell_angle_gamma 90.000000
_cell_volume 3267.573661
_symmetry_space_group_name_H-M "C M M M"
_symmetry_group_IT_number 65
_symmetry_cell_setting 'orthorhombic'
loop_
_space_group_symop_operation_xyz
x,y,z
-x,-y,z
x,-y,-z
-x,y,-z
-x,-y,-z
x,y,-z
-x,y,z
x,-y,z
1/2+x,1/2+y,z
1/2-x,1/2-y,z
1/2+x,1/2-y,-z
1/2-x,1/2+y,-z
1/2-x,1/2-y,-z
1/2+x,1/2+y,-z
1/2-x,1/2+y,z
1/2+x,1/2-y,z
loop_
_atom_site_type_symbol
_atom_site_label
_atom_site_fract_x
_atom_site_fract_y
_atom_site_fract_z
Si Si1 0.895554 0.243852 0.222497
Si Si2 0.703106 0.917082 0.786492
Si Si3 0.500000 0.950546 0.282306
Si Si4 0.762937 0.679320 0.222997
Si Si5 0.175703 0.000000 0.225088
Si Si6 0.500000 0.500000 0.500000
O O1 0.845646 0.288486 0.278229
O O2 0.830818 0.203749 0.277782
O O3 0.000000 0.240691 0.285259
O O4 0.896279 0.243841 0.000000
O O5 0.594625 0.927224 0.770943
O O6 0.726264 0.869631 0.709814
O O7 0.763541 0.957688 0.721207
O O8 0.725058 0.914414 0.000000
O O9 0.500000 0.952677 0.500000
O O10 0.500000 0.000000 0.210814
O O11 0.764278 0.678673 0.000000
O O12 0.081548 0.000000 0.338598
O O13 0.163638 0.000000 0.000000
#
# Coordination Sequence:
#
# PCOD9490193 Si02
#       6
#    16  16   8  16   8   2
#     4   8  13  23  40  66 103 143 180 221 276 338
#     4  10  20  35  56  84 119 150 184 237 292 348
#     4  11  23  35  55  81 112 149 191 228 285 359
#     4   8  15  26  42  70 107 143 178 225 283 337
#     4  10  23  42  64  91 120 155 199 245 298 352
#     4  12  26  44  72  80 116 164 202 256 296 336
#
# _framework density 20.198474000000001
#
# number of rings (size 3 to 8) (size 9 to 14) (size 15 to 20)
#    0.000    2.788    1.212    2.000    3.394    0.485 
#    2.182    0.000    0.000    0.000    0.000    3.394 
#   14.545    0.000    0.000    0.000    0.000    0.000 
#
# Total GULP energy -183849.784028 kJ/mol
# GULP energy per Si atom -5571.205577 kJ/mol
# Density = 2.015250 g / cm^3
# Si number density = 20.198474 Si / 1000 Ang^3
#
#
#
# Elastic Constant Matrix: (Units=GPa)
#
#
# Indices 1 2 3 4 5 6 
#
# 1 217.2838 127.4645 11.3145 0.0000 0.0000 0.0000
# 2 127.4645 228.4064 19.7405 0.0000 0.0000 0.0000
# 3 11.3145 19.7405 87.6661 0.0000 0.0000 0.0000
# 4 0.0000 0.0000 0.0000 -21.1489 0.0000 0.0000
# 5 0.0000 0.0000 0.0000 0.0000 -41.3700 0.0000
# 6 0.0000 0.0000 0.0000 0.0000 0.0000 14.2478
#
#
#
# Elastic Compliance Matrix: (Units=1/GPa)
#
#
# Indices 1 2 3 4 5 6 
#
# 1 0.006842 -0.003816 -0.000024 0.000000 0.000000 0.000000
# 2 -0.003816 0.006594 -0.000992 0.000000 0.000000 0.000000
# 3 -0.000024 -0.000992 0.011633 0.000000 0.000000 0.000000
# 4 0.000000 0.000000 0.000000 -0.047284 0.000000 0.000000
# 5 0.000000 0.000000 0.000000 0.000000 -0.024172 0.000000
# 6 0.000000 0.000000 0.000000 0.000000 0.000000 0.070186
#
#
# Mechanical properties :
#
#
# Convention : Reuss Voigt Hill
#
# Bulk Modulus (GPa) = 64.91488 94.48838 79.70163
# Shear Modulus (GPa) = 129.53596 15.33490 72.43543
#
# Velocity S-wave (km/s) = 8.01691 2.75837 5.99497
# Velocity P-wave (km/s) = 10.85830 7.55158 9.35224
#
# Compressibility (1/GPa) = 0.01540479
#
# Stress axis : x y z
#
# Youngs Moduli (GPa) = 146.14983 151.66048 85.95938
#
# Poissons Ratio (x) = 0.57879 0.00204
# Poissons Ratio (y) = 0.55776 0.08529
# Poissons Ratio (z) = 0.00347 0.15048
#
# Static dielectric constant tensor:
#      x y z
#    x 1.798000 0.000000 0.000000 
#    y 0.000000 1.710110 0.000000 
#    z 0.000000 0.000000 1.756210 
# 
# From -- ./inp_files/7126.got.cif
#   From: 2010.05.17/outbox.cif.g08.bks.cpg/sg65_4_cif.got.tgz:7126.got - 2010.06.03 17:01:31.
