data_PCOD9490652
_publ_section_title
;
Structure prediction by ZEFSAII (Michael W. Deem and Ramdas Pophale) SiO2 
 PCOD9490652
Probable space group: C M M M
;
_chemical_formula_sum "Si O2"
_cell_formula_units_Z 64
_cell_length_a 14.671449
_cell_length_b 7.711811
_cell_length_c 24.672913
_cell_angle_alpha 90.000000
_cell_angle_beta 90.000000
_cell_angle_gamma 90.000000
_cell_volume 2791.578296
_symmetry_space_group_name_H-M "C M M M"
_symmetry_group_IT_number 65
_symmetry_cell_setting 'orthorhombic'
loop_
_space_group_symop_operation_xyz
x,y,z
-x,-y,z
x,-y,-z
-x,y,-z
-x,-y,-z
x,y,-z
-x,y,z
x,-y,z
1/2+x,1/2+y,z
1/2-x,1/2-y,z
1/2+x,1/2-y,-z
1/2-x,1/2+y,-z
1/2-x,1/2-y,-z
1/2+x,1/2+y,-z
1/2-x,1/2+y,z
1/2+x,1/2-y,z
loop_
_atom_site_type_symbol
_atom_site_label
_atom_site_fract_x
_atom_site_fract_y
_atom_site_fract_z
Si Si1 0.858291 0.790937 0.000000
Si Si2 0.858188 0.208971 0.766631
Si Si3 0.355882 0.705141 0.649501
Si Si4 0.141687 0.209106 0.883283
Si Si5 0.000000 0.296214 0.560260
O O1 0.750000 0.750000 0.000000
O O2 0.893492 0.726550 0.058356
O O3 0.869592 0.000000 0.000000
O O4 0.750000 0.250000 0.766294
O O5 0.890211 0.276247 0.707994
O O6 0.893449 0.273929 0.824937
O O7 0.870678 0.000000 0.767415
O O8 0.363456 0.500000 0.654273
O O9 0.250000 0.750000 0.643151
O O10 0.413397 0.754470 0.597411
O O11 0.250000 0.250000 0.883192
O O12 0.130428 0.000000 0.883401
O O13 0.000000 0.500000 0.553661
O O14 0.000000 0.216073 0.500000
#
# Coordination Sequence:
#
# PCOD9490652 Si02
#       5
#     8  16  16  16   8
#     4   8  12  16  24  40  68 109 152 193 238 286
#     4   8  14  24  40  63  91 124 163 206 251 299
#     4  10  20  36  59  85 113 146 182 221 267 317
#     4   8  12  18  28  46  75 112 154 197 241 289
#     4  11  25  43  61  83 111 142 177 218 264 317
#
# _framework density 22.926100000000002
#
# number of rings (size 3 to 8) (size 9 to 14) (size 15 to 20)
#    0.000    3.125    0.000    1.125    0.000    2.500 
#    0.000    0.000    0.000    0.000    0.000    0.000 
#    0.000    1.000    0.000   12.875    0.000   12.250 
#
# Total GULP energy -178281.256514 kJ/mol
# GULP energy per Si atom -5571.289266 kJ/mol
# Density = 2.287392 g / cm^3
# Si number density = 22.926100 Si / 1000 Ang^3
#
#
#
# Elastic Constant Matrix: (Units=GPa)
#
#
# Indices 1 2 3 4 5 6 
#
# 1 93.4791 -3.2635 72.1970 0.0000 0.0000 0.0000
# 2 -3.2635 47.3924 20.5523 0.0000 0.0000 0.0000
# 3 72.1970 20.5523 337.6058 0.0000 0.0000 0.0000
# 4 0.0000 0.0000 0.0000 12.1283 0.0000 0.0000
# 5 0.0000 0.0000 0.0000 0.0000 42.0090 0.0000
# 6 0.0000 0.0000 0.0000 0.0000 0.0000 3.5286
#
#
#
# Elastic Compliance Matrix: (Units=1/GPa)
#
#
# Indices 1 2 3 4 5 6 
#
# 1 0.013026 0.002162 -0.002917 0.000000 0.000000 0.000000
# 2 0.002162 0.022031 -0.001804 0.000000 0.000000 0.000000
# 3 -0.002917 -0.001804 0.003696 0.000000 0.000000 0.000000
# 4 0.000000 0.000000 0.000000 0.082452 0.000000 0.000000
# 5 0.000000 0.000000 0.000000 0.000000 0.023804 0.000000
# 6 0.000000 0.000000 0.000000 0.000000 0.000000 0.283401
#
#
# Mechanical properties :
#
#
# Convention : Reuss Voigt Hill
#
# Bulk Modulus (GPa) = 29.73017 73.04987 51.39002
# Shear Modulus (GPa) = 11.24253 37.46594 24.35423
#
# Velocity S-wave (km/s) = 2.21686 4.04692 3.26282
# Velocity P-wave (km/s) = 4.42138 7.33274 6.05465
#
# Compressibility (1/GPa) = 0.03363587
#
# Stress axis : x y z
#
# Youngs Moduli (GPa) = 76.76853 45.38964 270.58562
#
# Poissons Ratio (x) = -0.09814 0.78937
# Poissons Ratio (y) = -0.16598 0.48802
# Poissons Ratio (z) = 0.22395 0.08186
#
# Static dielectric constant tensor:
#      x y z
#    x 2.275110 0.000000 0.000000 
#    y 0.000000 1.835950 0.000000 
#    z 0.000000 0.000000 1.994910 
# 
# From -- ./inp_files/70274.got.cif
#   From: 2010.05.17/outbox.cif.g08.bks.cpg/sg65_36_cif.got.tgz:70274.got - 2010.06.03 17:01:31.
