data_PCOD9490830
_publ_section_title
;
Structure prediction by ZEFSAII (Michael W. Deem and Ramdas Pophale) SiO2 
 PCOD9490830
Probable space group: C M M M
;
_chemical_formula_sum "Si O2"
_cell_formula_units_Z 56
_cell_length_a 15.792560
_cell_length_b 20.461768
_cell_length_c 8.851049
_cell_angle_alpha 90.000000
_cell_angle_beta 90.000000
_cell_angle_gamma 90.000000
_cell_volume 2860.160713
_symmetry_space_group_name_H-M "C M M M"
_symmetry_group_IT_number 65
_symmetry_cell_setting 'orthorhombic'
loop_
_space_group_symop_operation_xyz
x,y,z
-x,-y,z
x,-y,-z
-x,y,-z
-x,-y,-z
x,y,-z
-x,y,z
x,-y,z
1/2+x,1/2+y,z
1/2-x,1/2-y,z
1/2+x,1/2-y,-z
1/2-x,1/2+y,-z
1/2-x,1/2-y,-z
1/2+x,1/2+y,-z
1/2-x,1/2+y,z
1/2+x,1/2-y,z
loop_
_atom_site_type_symbol
_atom_site_label
_atom_site_fract_x
_atom_site_fract_y
_atom_site_fract_z
Si Si1 0.666723 0.309299 0.824681
Si Si2 0.000000 0.423248 0.683664
Si Si3 0.100698 0.072699 0.666623
Si Si4 0.646577 0.821066 0.681289
O O1 0.621595 0.377232 0.795789
O O2 0.619008 0.251411 0.734667
O O3 0.760730 0.322343 0.757471
O O4 0.670464 0.292228 0.000000
O O5 0.917498 0.379392 0.727195
O O6 0.000000 0.500000 0.733664
O O7 0.000000 0.424948 0.500000
O O8 0.131418 0.095687 0.500000
O O9 0.000000 0.067985 0.657580
O O10 0.135510 0.000000 0.691351
O O11 0.654032 0.822510 0.500000
#
# Coordination Sequence:
#
# PCOD9490830 Si02
#       4
#    16   8  16  16
#     4  11  22  36  55  83 118 152 187 232 285 341
#     4   9  20  38  61  89 114 141 188 247 295 336
#     4   9  19  36  57  81 109 144 188 232 275 330
#     4  10  20  37  60  84 110 147 193 238 282 335
#
# _framework density 19.579318000000001
#
# number of rings (size 3 to 8) (size 9 to 14) (size 15 to 20)
#    0.000    2.143    0.000    6.000    2.000    2.286 
#    0.000    6.429    0.000    6.000    0.000    0.000 
#    0.000    0.000    0.000    0.000    0.000    0.000 
#
# Total GULP energy -155976.351873 kJ/mol
# GULP energy per Si atom -5570.583995 kJ/mol
# Density = 1.953475 g / cm^3
# Si number density = 19.579318 Si / 1000 Ang^3
#
#
#
# Elastic Constant Matrix: (Units=GPa)
#
#
# Indices 1 2 3 4 5 6 
#
# 1 53.2353 46.3583 16.7459 0.0000 0.0000 0.0000
# 2 46.3583 126.6930 34.3664 0.0000 0.0000 0.0000
# 3 16.7459 34.3664 68.3392 0.0000 0.0000 0.0000
# 4 0.0000 0.0000 0.0000 10.3524 0.0000 0.0000
# 5 0.0000 0.0000 0.0000 0.0000 -7.5632 0.0000
# 6 0.0000 0.0000 0.0000 0.0000 0.0000 40.4211
#
#
#
# Elastic Compliance Matrix: (Units=1/GPa)
#
#
# Indices 1 2 3 4 5 6 
#
# 1 0.027795 -0.009638 -0.001964 0.000000 0.000000 0.000000
# 2 -0.009638 0.012482 -0.003915 0.000000 0.000000 0.000000
# 3 -0.001964 -0.003915 0.017083 0.000000 0.000000 0.000000
# 4 0.000000 0.000000 0.000000 0.096596 0.000000 0.000000
# 5 0.000000 0.000000 0.000000 0.000000 -0.132220 0.000000
# 6 0.000000 0.000000 0.000000 0.000000 0.000000 0.024740
#
#
# Mechanical properties :
#
#
# Convention : Reuss Voigt Hill
#
# Bulk Modulus (GPa) = 37.98598 49.24540 43.61569
# Shear Modulus (GPa) = 57.94764 18.69520 38.32142
#
# Velocity S-wave (km/s) = 5.44615 3.09341 4.42887
# Velocity P-wave (km/s) = 7.68054 6.16159 6.96261
#
# Compressibility (1/GPa) = 0.02632550
#
# Stress axis : x y z
#
# Youngs Moduli (GPa) = 35.97757 80.11777 58.53743
#
# Poissons Ratio (x) = 0.77215 0.11499
# Poissons Ratio (y) = 0.34674 0.22918
# Poissons Ratio (z) = 0.07067 0.31367
#
# Static dielectric constant tensor:
#      x y z
#    x 1.718430 0.000000 0.000000 
#    y 0.000000 1.760090 0.000000 
#    z 0.000000 0.000000 1.693160 
# 
# From -- ./inp_files/6268.got.cif
#   From: 2010.05.17/outbox.cif.g08.bks.cpg/sg65_4_cif.got.tgz:6268.got - 2010.06.03 17:01:31.
