data_PCOD9490257
_publ_section_title
;
Structure prediction by ZEFSAII (Michael W. Deem and Ramdas Pophale) SiO2 
 PCOD9490257
Probable space group: C M M M
;
_chemical_formula_sum "Si O2"
_cell_formula_units_Z 88
_cell_length_a 28.054481
_cell_length_b 19.781117
_cell_length_c 8.166226
_cell_angle_alpha 90.000000
_cell_angle_beta 90.000000
_cell_angle_gamma 90.000000
_cell_volume 4531.838716
_symmetry_space_group_name_H-M "C M M M"
_symmetry_group_IT_number 65
_symmetry_cell_setting 'orthorhombic'
loop_
_space_group_symop_operation_xyz
x,y,z
-x,-y,z
x,-y,-z
-x,y,-z
-x,-y,-z
x,y,-z
-x,y,z
x,-y,z
1/2+x,1/2+y,z
1/2-x,1/2-y,z
1/2+x,1/2-y,-z
1/2-x,1/2+y,-z
1/2-x,1/2-y,-z
1/2+x,1/2+y,-z
1/2-x,1/2+y,z
1/2+x,1/2-y,z
loop_
_atom_site_type_symbol
_atom_site_label
_atom_site_fract_x
_atom_site_fract_y
_atom_site_fract_z
Si Si1 0.192364 0.422767 0.802493
Si Si2 0.500000 0.078888 0.200574
Si Si3 0.444305 0.424820 0.197620
Si Si4 0.403267 0.152243 0.196147
Si Si5 0.619622 0.301590 0.306264
Si Si6 0.773024 0.178931 0.697683
O O1 0.193512 0.500000 0.743650
O O2 0.144811 0.384329 0.741249
O O3 0.239409 0.381373 0.756042
O O4 0.189743 0.424119 0.000000
O O5 0.451968 0.117193 0.256309
O O6 0.500000 0.000000 0.248706
O O7 0.500000 0.080101 0.000000
O O8 0.500000 0.418591 0.240977
O O9 0.427932 0.500000 0.248783
O O10 0.414606 0.364053 0.270727
O O11 0.441175 0.421681 0.000000
O O12 0.399492 0.231609 0.232886
O O13 0.403475 0.144033 0.000000
O O14 0.623382 0.290560 0.500000
O O15 0.672492 0.320342 0.243492
O O16 0.773189 0.177018 0.500000
O O17 0.750000 0.250000 0.750021
#
# Coordination Sequence:
#
# PCOD9490257 Si02
#       6
#    16   8  16  16  16  16
#     4  10  21  36  57  86 115 144 185 236 284 330
#     4   9  18  34  57  83 112 147 186 229 275 328
#     4   9  20  40  63  85 112 147 185 226 277 337
#     4  10  20  35  57  84 114 149 188 230 278 332
#     4  11  23  37  57  84 115 149 188 233 278 330
#     4  10  21  39  57  76 109 151 191 227 273 333
#
# _framework density 19.418168000000001
#
# number of rings (size 3 to 8) (size 9 to 14) (size 15 to 20)
#    0.000    2.091    1.818    1.636    1.273    5.818 
#    0.000    4.545    0.000    2.182    0.000    0.000 
#    0.000    0.000    0.000    0.000    0.000    0.000 
#
# Total GULP energy -245669.147917 kJ/mol
# GULP energy per Si atom -5583.389725 kJ/mol
# Density = 1.937397 g / cm^3
# Si number density = 19.418168 Si / 1000 Ang^3
#
#
#
# Elastic Constant Matrix: (Units=GPa)
#
#
# Indices 1 2 3 4 5 6 
#
# 1 136.9516 90.8192 10.2811 0.0000 0.0000 0.0000
# 2 90.8192 168.4952 3.9888 0.0000 0.0000 0.0000
# 3 10.2811 3.9888 5.5670 0.0000 0.0000 0.0000
# 4 0.0000 0.0000 0.0000 -27.1650 0.0000 0.0000
# 5 0.0000 0.0000 0.0000 0.0000 12.8186 0.0000
# 6 0.0000 0.0000 0.0000 0.0000 0.0000 37.8785
#
#
#
# Elastic Compliance Matrix: (Units=1/GPa)
#
#
# Indices 1 2 3 4 5 6 
#
# 1 0.013172 -0.006636 -0.019571 0.000000 0.000000 0.000000
# 2 -0.006636 0.009381 0.005535 0.000000 0.000000 0.000000
# 3 -0.019571 0.005535 0.211809 0.000000 0.000000 0.000000
# 4 0.000000 0.000000 0.000000 -0.036812 0.000000 0.000000
# 5 0.000000 0.000000 0.000000 0.000000 0.078011 0.000000
# 6 0.000000 0.000000 0.000000 0.000000 0.000000 0.026400
#
#
# Mechanical properties :
#
#
# Convention : Reuss Voigt Hill
#
# Bulk Modulus (GPa) = 5.18091 57.91019 31.54555
# Shear Modulus (GPa) = 12.26557 18.43476 15.35016
#
# Velocity S-wave (km/s) = 2.51600 3.08451 2.81464
# Velocity P-wave (km/s) = 3.33380 6.52480 5.18108
#
# Compressibility (1/GPa) = 0.19301625
#
# Stress axis : x y z
#
# Youngs Moduli (GPa) = 75.91873 106.59951 4.72124
#
# Poissons Ratio (x) = 0.70744 0.09240
# Poissons Ratio (y) = 0.50383 -0.02613
# Poissons Ratio (z) = 1.48580 -0.58999
#
# Static dielectric constant tensor:
#      x y z
#    x 1.673520 0.000000 0.000000 
#    y 0.000000 1.643530 0.000000 
#    z 0.000000 0.000000 1.691500 
# 
# From -- ./inp_files/11843.got.cif
#   From: 2010.05.17/outbox.cif.g08.bks.cpg/sg65_6_cif.got.tgz:11843.got - 2010.06.03 17:01:31.
