data_PCOD9490683
_publ_section_title
;
Structure prediction by ZEFSAII (Michael W. Deem and Ramdas Pophale) SiO2 
 PCOD9490683
Probable space group: C M M M
;
_chemical_formula_sum "Si O2"
_cell_formula_units_Z 88
_cell_length_a 18.967419
_cell_length_b 8.043014
_cell_length_c 30.712028
_cell_angle_alpha 90.000000
_cell_angle_beta 90.000000
_cell_angle_gamma 90.000000
_cell_volume 4685.280083
_symmetry_space_group_name_H-M "C M M M"
_symmetry_group_IT_number 65
_symmetry_cell_setting 'orthorhombic'
loop_
_space_group_symop_operation_xyz
x,y,z
-x,-y,z
x,-y,-z
-x,y,-z
-x,-y,-z
x,y,-z
-x,y,z
x,-y,z
1/2+x,1/2+y,z
1/2-x,1/2-y,z
1/2+x,1/2-y,-z
1/2-x,1/2+y,-z
1/2-x,1/2-y,-z
1/2+x,1/2+y,-z
1/2-x,1/2+y,z
1/2+x,1/2-y,z
loop_
_atom_site_type_symbol
_atom_site_label
_atom_site_fract_x
_atom_site_fract_y
_atom_site_fract_z
Si Si1 0.669203 0.806455 0.809449
Si Si2 0.083998 0.187106 0.891215
Si Si3 0.914375 0.500000 0.049690
Si Si4 0.581812 0.697683 0.272756
Si Si5 0.918431 0.701165 0.631092
Si Si6 0.668578 0.200711 0.451993
O O1 0.750000 0.750000 0.806939
O O2 0.626759 0.708730 0.846659
O O3 0.630303 0.779260 0.763588
O O4 0.666447 0.000000 0.821053
O O5 0.105824 0.333384 0.924195
O O6 0.000000 0.206690 0.882430
O O7 0.094624 0.000000 0.908531
O O8 0.000000 0.500000 0.048354
O O9 0.888858 0.500000 0.000000
O O10 0.500000 0.755168 0.269062
O O11 0.582770 0.500000 0.265950
O O12 0.606253 0.735881 0.321872
O O13 0.915689 0.500000 0.631979
O O14 0.874711 0.761805 0.589570
O O15 0.000000 0.751388 0.626316
O O16 0.643825 0.258334 0.500000
O O17 0.750000 0.250000 0.447755
O O18 0.663935 0.000000 0.451938
#
# Coordination Sequence:
#
# PCOD9490683 Si02
#       6
#    16  16   8  16  16  16
#     4  12  24  38  57  83 113 149 189 234 282 335
#     4  10  20  36  59  88 120 155 195 239 289 341
#     4   9  18  34  58  90 122 154 197 243 288 338
#     4  10  21  37  56  79 109 143 181 224 273 333
#     4   9  18  33  52  74 100 133 172 216 267 319
#     4   9  18  32  50  72  98 130 169 213 264 321
#
# _framework density 18.782229000000001
#
# number of rings (size 3 to 8) (size 9 to 14) (size 15 to 20)
#    0.000    2.091    0.909    2.727    0.000    5.455 
#    0.000    5.455    0.000    0.545    0.000    5.091 
#    0.000    0.000    0.000    0.000    0.000    0.000 
#
# Total GULP energy -245596.537076 kJ/mol
# GULP energy per Si atom -5581.739479 kJ/mol
# Density = 1.873948 g / cm^3
# Si number density = 18.782229 Si / 1000 Ang^3
#
#
#
# Elastic Constant Matrix: (Units=GPa)
#
#
# Indices 1 2 3 4 5 6 
#
# 1 55.1746 26.3685 60.6411 0.0000 0.0000 0.0000
# 2 26.3685 78.6160 38.4389 0.0000 0.0000 0.0000
# 3 60.6411 38.4389 147.3013 0.0000 0.0000 0.0000
# 4 0.0000 0.0000 0.0000 14.8249 0.0000 0.0000
# 5 0.0000 0.0000 0.0000 0.0000 -56.2807 0.0000
# 6 0.0000 0.0000 0.0000 0.0000 0.0000 18.4846
#
#
#
# Elastic Compliance Matrix: (Units=1/GPa)
#
#
# Indices 1 2 3 4 5 6 
#
# 1 0.034979 -0.005377 -0.012997 0.000000 0.000000 0.000000
# 2 -0.005377 0.015407 -0.001807 0.000000 0.000000 0.000000
# 3 -0.012997 -0.001807 0.012611 0.000000 0.000000 0.000000
# 4 0.000000 0.000000 0.000000 0.067454 0.000000 0.000000
# 5 0.000000 0.000000 0.000000 0.000000 -0.017768 0.000000
# 6 0.000000 0.000000 0.000000 0.000000 0.000000 0.054099
#
#
# Mechanical properties :
#
#
# Convention : Reuss Voigt Hill
#
# Bulk Modulus (GPa) = 44.18014 59.10988 51.64501
# Shear Modulus (GPa) = 23.28957 5.78198 14.53577
#
# Velocity S-wave (km/s) = 3.52515 1.75645 2.78494
# Velocity P-wave (km/s) = 6.33580 5.97101 6.15611
#
# Compressibility (1/GPa) = 0.02263461
#
# Stress axis : x y z
#
# Youngs Moduli (GPa) = 28.58891 64.90510 79.29717
#
# Poissons Ratio (x) = 0.34902 1.03060
# Poissons Ratio (y) = 0.15374 0.14327
# Poissons Ratio (z) = 0.37156 0.11727
#
# Static dielectric constant tensor:
#      x y z
#    x 1.621780 0.000000 0.000000 
#    y 0.000000 1.672720 0.000000 
#    z 0.000000 0.000000 1.635640 
# 
# From -- ./inp_files/77954.got.cif
#   From: 2010.05.17/outbox.cif.g08.bks.cpg/sg65_39_cif.got.tgz:77954.got - 2010.06.03 17:01:31.
