data_PCOD9490969
_publ_section_title
;
Structure prediction by ZEFSAII (Michael W. Deem and Ramdas Pophale) SiO2 
 PCOD9490969
Probable space group: C M M M
;
_chemical_formula_sum "Si O2"
_cell_formula_units_Z 90
_cell_length_a 20.755047
_cell_length_b 17.556434
_cell_length_c 12.402481
_cell_angle_alpha 90.000000
_cell_angle_beta 90.000000
_cell_angle_gamma 90.000000
_cell_volume 4519.273237
_symmetry_space_group_name_H-M "C M M M"
_symmetry_group_IT_number 65
_symmetry_cell_setting 'orthorhombic'
loop_
_space_group_symop_operation_xyz
x,y,z
-x,-y,z
x,-y,-z
-x,y,-z
-x,-y,-z
x,y,-z
-x,y,z
x,-y,z
1/2+x,1/2+y,z
1/2-x,1/2-y,z
1/2+x,1/2-y,-z
1/2-x,1/2+y,-z
1/2-x,1/2-y,-z
1/2+x,1/2+y,-z
1/2-x,1/2+y,z
1/2+x,1/2-y,z
loop_
_atom_site_type_symbol
_atom_site_label
_atom_site_fract_x
_atom_site_fract_y
_atom_site_fract_z
Si Si1 0.885519 0.299411 0.626161
Si Si2 0.925866 0.906463 0.000000
Si Si3 0.571078 0.625840 0.375165
Si Si4 0.500000 0.000000 0.000000
Si Si5 0.336847 0.414596 0.807849
Si Si6 0.000000 0.586556 0.630569
Si Si7 0.290238 0.821798 0.180018
Si Si8 0.134651 0.413896 0.000000
O O1 0.866552 0.311377 0.500000
O O2 0.919999 0.217281 0.630634
O O3 0.827523 0.298595 0.711040
O O4 0.936449 0.365179 0.658315
O O5 0.885186 0.879171 0.896499
O O6 0.000000 0.880379 0.000000
O O7 0.928955 0.000000 0.000000
O O8 0.575828 0.604265 0.500000
O O9 0.500000 0.604943 0.334744
O O10 0.625379 0.588959 0.303552
O O11 0.558553 0.934073 0.000000
O O12 0.326628 0.500000 0.845166
O O13 0.267873 0.378243 0.794900
O O14 0.000000 0.500000 0.674332
O O15 0.000000 0.582354 0.500000
O O16 0.250000 0.750000 0.133423
O O17 0.339796 0.864496 0.101012
O O18 0.164992 0.500000 0.000000
#
# Coordination Sequence:
#
# PCOD9490969 Si02
#       8
#    16   8  16   2  16   8  16   8
#     4  10  21  39  62  93 130 171 220 271 325 387
#     4   9  19  38  63  86 115 153 197 257 315 362
#     4  10  20  38  62  88 125 171 213 260 320 383
#     4   8  24  52  76 100 130 180 212 280 360 402
#     4  11  23  39  61  94 125 163 211 262 321 382
#     4   9  18  35  61  93 126 167 224 283 333 384
#     4  12  24  41  67  96 130 177 221 266 326 405
#     4  10  24  48  70  97 131 167 219 273 344 408
#
# _framework density 19.914705999999999
#
# number of rings (size 3 to 8) (size 9 to 14) (size 15 to 20)
#    0.267    1.422    2.667    1.867    0.000    5.333 
#    1.600    0.889    1.956    0.000    0.000    0.000 
#    0.000    0.000    0.000    0.000    0.000    0.000 
#
# Total GULP energy -250768.849037 kJ/mol
# GULP energy per Si atom -5572.641090 kJ/mol
# Density = 1.986938 g / cm^3
# Si number density = 19.914706 Si / 1000 Ang^3
#
#
#
# Elastic Constant Matrix: (Units=GPa)
#
#
# Indices 1 2 3 4 5 6 
#
# 1 145.9979 18.9507 47.2723 0.0000 0.0000 0.0000
# 2 18.9507 60.6229 6.3062 0.0000 0.0000 0.0000
# 3 47.2723 6.3062 65.7550 0.0000 0.0000 0.0000
# 4 0.0000 0.0000 0.0000 19.5863 0.0000 0.0000
# 5 0.0000 0.0000 0.0000 0.0000 19.0956 0.0000
# 6 0.0000 0.0000 0.0000 0.0000 0.0000 19.2121
#
#
#
# Elastic Compliance Matrix: (Units=1/GPa)
#
#
# Indices 1 2 3 4 5 6 
#
# 1 0.009212 -0.002213 -0.006411 0.000000 0.000000 0.000000
# 2 -0.002213 0.017193 -0.000058 0.000000 0.000000 0.000000
# 3 -0.006411 -0.000058 0.019822 0.000000 0.000000 0.000000
# 4 0.000000 0.000000 0.000000 0.051056 0.000000 0.000000
# 5 0.000000 0.000000 0.000000 0.000000 0.052368 0.000000
# 6 0.000000 0.000000 0.000000 0.000000 0.000000 0.052051
#
#
# Mechanical properties :
#
#
# Convention : Reuss Voigt Hill
#
# Bulk Modulus (GPa) = 34.64448 46.38158 40.51303
# Shear Modulus (GPa) = 21.86392 24.90190 23.38291
#
# Velocity S-wave (km/s) = 3.31702 3.53997 3.43031
# Velocity P-wave (km/s) = 5.66607 6.32845 6.00640
#
# Compressibility (1/GPa) = 0.02886463
#
# Stress axis : x y z
#
# Youngs Moduli (GPa) = 108.54991 58.16249 50.44829
#
# Poissons Ratio (x) = 0.12871 0.32341
# Poissons Ratio (y) = 0.24021 0.00293
# Poissons Ratio (z) = 0.69588 0.00337
#
# Static dielectric constant tensor:
#      x y z
#    x 1.672150 0.000000 0.000000 
#    y 0.000000 1.752000 0.000000 
#    z 0.000000 0.000000 1.726550 
# 
# From -- ./inp_files/28805.got.cif
#   From: 2010.05.17/outbox.cif.g08.bks.cpg/sg65_15_cif.got.tgz:28805.got - 2010.06.03 17:01:31.
