data_PCOD9490510
_publ_section_title
;
Structure prediction by ZEFSAII (Michael W. Deem and Ramdas Pophale) SiO2 
 PCOD9490510
Probable space group: C M M M
;
_chemical_formula_sum "Si O2"
_cell_formula_units_Z 104
_cell_length_a 8.763758
_cell_length_b 26.807415
_cell_length_c 22.675354
_cell_angle_alpha 90.000000
_cell_angle_beta 90.000000
_cell_angle_gamma 90.000000
_cell_volume 5327.204761
_symmetry_space_group_name_H-M "C M M M"
_symmetry_group_IT_number 65
_symmetry_cell_setting 'orthorhombic'
loop_
_space_group_symop_operation_xyz
x,y,z
-x,-y,z
x,-y,-z
-x,y,-z
-x,-y,-z
x,y,-z
-x,y,z
x,-y,z
1/2+x,1/2+y,z
1/2-x,1/2-y,z
1/2+x,1/2-y,-z
1/2-x,1/2+y,-z
1/2-x,1/2-y,-z
1/2+x,1/2+y,-z
1/2-x,1/2+y,z
1/2+x,1/2-y,z
loop_
_atom_site_type_symbol
_atom_site_label
_atom_site_fract_x
_atom_site_fract_y
_atom_site_fract_z
Si Si1 0.183608 0.655977 0.064529
Si Si2 0.816421 0.055597 0.113987
Si Si3 0.325832 0.500000 0.570124
Si Si4 0.683190 0.197960 0.811025
Si Si5 0.182756 0.594028 0.632641
Si Si6 0.817687 0.098043 0.240651
Si Si7 0.183928 0.696153 0.569183
O O1 0.240497 0.600025 0.077668
O O2 0.231896 0.688575 0.120728
O O3 0.000000 0.655939 0.064393
O O4 0.238058 0.672648 0.000000
O O5 0.779909 0.064678 0.183217
O O6 0.000000 0.059618 0.108064
O O7 0.769804 0.000000 0.096108
O O8 0.500000 0.500000 0.592818
O O9 0.328844 0.500000 0.500000
O O10 0.242469 0.549699 0.591852
O O11 0.500000 0.197248 0.807481
O O12 0.750000 0.250000 0.790299
O O13 0.752657 0.152450 0.774871
O O14 0.244572 0.582963 0.697864
O O15 0.233522 0.648409 0.607863
O O16 0.000000 0.594335 0.633294
O O17 0.000000 0.099135 0.245966
O O18 0.226011 0.688247 0.500000
O O19 0.250000 0.750000 0.587590
O O20 0.000000 0.698853 0.572096
#
# Coordination Sequence:
#
# PCOD9490510 Si02
#       7
#    16  16   8  16  16  16  16
#     4   9  19  35  53  77 109 142 180 228 279 336
#     4   9  19  35  54  76 104 141 180 224 277 329
#     4  11  25  43  63  89 121 159 202 247 296 351
#     4  10  20  36  57  80 110 147 188 233 285 343
#     4  11  23  39  60  88 120 155 195 240 293 354
#     4  10  21  37  57  81 111 146 186 232 281 334
#     4   9  19  36  58  83 112 146 184 228 279 335
#
# _framework density 19.522434000000001
#
# number of rings (size 3 to 8) (size 9 to 14) (size 15 to 20)
#    0.000    2.231    0.000    2.077    1.077    5.538 
#    0.000    4.615    0.000    0.000    0.000    0.000 
#    0.000    0.000    0.000    0.000    0.000    0.000 
#
# Total GULP energy -290329.994791 kJ/mol
# GULP energy per Si atom -5583.269131 kJ/mol
# Density = 1.947800 g / cm^3
# Si number density = 19.522434 Si / 1000 Ang^3
#
#
#
# Elastic Constant Matrix: (Units=GPa)
#
#
# Indices 1 2 3 4 5 6 
#
# 1 31.6023 5.1038 11.8846 0.0000 0.0000 0.0000
# 2 5.1038 59.4067 -11.5754 0.0000 0.0000 0.0000
# 3 11.8846 -11.5754 54.1028 0.0000 0.0000 0.0000
# 4 0.0000 0.0000 0.0000 -4.1764 0.0000 0.0000
# 5 0.0000 0.0000 0.0000 0.0000 25.3564 0.0000
# 6 0.0000 0.0000 0.0000 0.0000 0.0000 29.6895
#
#
#
# Elastic Compliance Matrix: (Units=1/GPa)
#
#
# Indices 1 2 3 4 5 6 
#
# 1 0.035760 -0.004803 -0.008883 0.000000 0.000000 0.000000
# 2 -0.004803 0.018210 0.004951 0.000000 0.000000 0.000000
# 3 -0.008883 0.004951 0.021494 0.000000 0.000000 0.000000
# 4 0.000000 0.000000 0.000000 -0.239440 0.000000 0.000000
# 5 0.000000 0.000000 0.000000 0.000000 0.039438 0.000000
# 6 0.000000 0.000000 0.000000 0.000000 0.000000 0.033682
#
#
# Mechanical properties :
#
#
# Convention : Reuss Voigt Hill
#
# Bulk Modulus (GPa) = 17.24294 17.32643 17.28469
# Shear Modulus (GPa) = -92.49698 19.48714 -36.50492
#
# Velocity S-wave (km/s) = -6.89077 3.16285 -4.32892
# Velocity P-wave (km/s) = 7.37961 4.71514 4.01411
#
# Compressibility (1/GPa) = 0.05799475
#
# Stress axis : x y z
#
# Youngs Moduli (GPa) = 27.96457 54.91338 46.52480
#
# Poissons Ratio (x) = 0.26375 0.41327
# Poissons Ratio (y) = 0.13431 -0.23035
# Poissons Ratio (z) = 0.24840 -0.27189
#
# Static dielectric constant tensor:
#      x y z
#    x 1.656190 0.000000 0.000000 
#    y 0.000000 1.635990 0.000000 
#    z 0.000000 0.000000 1.700750 
# 
# From -- ./inp_files/60415.got.cif
#   From: 2010.05.17/outbox.cif.g08.bks.cpg/sg65_31_cif.got.tgz:60415.got - 2010.06.03 17:01:31.
