data_PCOD9490425
_publ_section_title
;
Structure prediction by ZEFSAII (Michael W. Deem and Ramdas Pophale) SiO2 
 PCOD9490425
Probable space group: C M M M
;
_chemical_formula_sum "Si O2"
_cell_formula_units_Z 88
_cell_length_a 25.018627
_cell_length_b 12.552921
_cell_length_c 16.339964
_cell_angle_alpha 90.000000
_cell_angle_beta 90.000000
_cell_angle_gamma 90.000000
_cell_volume 5131.677595
_symmetry_space_group_name_H-M "C M M M"
_symmetry_group_IT_number 65
_symmetry_cell_setting 'orthorhombic'
loop_
_space_group_symop_operation_xyz
x,y,z
-x,-y,z
x,-y,-z
-x,y,-z
-x,-y,-z
x,y,-z
-x,y,z
x,-y,z
1/2+x,1/2+y,z
1/2-x,1/2-y,z
1/2+x,1/2-y,-z
1/2-x,1/2+y,-z
1/2-x,1/2-y,-z
1/2+x,1/2+y,-z
1/2-x,1/2+y,z
1/2+x,1/2-y,z
loop_
_atom_site_type_symbol
_atom_site_label
_atom_site_fract_x
_atom_site_fract_y
_atom_site_fract_z
Si Si1 0.250000 0.250000 0.215797
Si Si2 0.441514 0.873171 0.156938
Si Si3 0.059823 0.730648 0.331233
Si Si4 0.809182 0.206186 0.500000
Si Si5 0.096136 0.627495 0.500000
Si Si6 0.827332 0.371512 0.093051
Si Si7 0.163579 0.123698 0.324671
O O1 0.213643 0.323831 0.157976
O O2 0.208931 0.182504 0.271286
O O3 0.500000 0.831453 0.129463
O O4 0.436703 0.847506 0.253275
O O5 0.387911 0.833798 0.112947
O O6 0.442446 0.000000 0.145131
O O7 0.068183 0.668258 0.416627
O O8 0.106660 0.816374 0.318529
O O9 0.000000 0.777570 0.331777
O O10 0.750000 0.250000 0.500000
O O11 0.847823 0.309357 0.500000
O O12 0.820158 0.138431 0.580804
O O13 0.100743 0.500000 0.500000
O O14 0.826764 0.500000 0.099108
O O15 0.813453 0.342115 0.000000
O O16 0.159788 0.000000 0.302568
#
# Coordination Sequence:
#
# PCOD9490425 Si02
#       7
#     8  16  16   8   8  16  16
#     4  12  21  39  56  82 110 146 184 225 273 326
#     4   9  17  31  53  80 110 142 177 222 274 328
#     4  10  20  36  54  78 112 145 185 228 271 323
#     4  10  21  40  52  81 114 151 189 223 267 317
#     4  10  21  33  53  83 115 150 184 223 275 326
#     4  10  21  36  56  82 111 143 178 222 278 337
#     4  11  23  38  58  81 110 146 188 231 271 320
#
# _framework density 17.148389000000002
#
# number of rings (size 3 to 8) (size 9 to 14) (size 15 to 20)
#    0.000    1.818    2.727    1.909    0.000    2.909 
#    0.000    1.818    0.000    3.273    0.000    0.000 
#    0.000    2.909    0.000    0.000    0.000    0.000 
#
# Total GULP energy -245356.609087 kJ/mol
# GULP energy per Si atom -5576.286570 kJ/mol
# Density = 1.710936 g / cm^3
# Si number density = 17.148389 Si / 1000 Ang^3
#
#
#
# Elastic Constant Matrix: (Units=GPa)
#
#
# Indices 1 2 3 4 5 6 
#
# 1 134.6726 43.0519 47.1237 0.0000 0.0000 0.0000
# 2 43.0519 76.1726 28.9107 0.0000 0.0000 0.0000
# 3 47.1237 28.9107 95.2135 0.0000 0.0000 0.0000
# 4 0.0000 0.0000 0.0000 19.1295 0.0000 0.0000
# 5 0.0000 0.0000 0.0000 0.0000 8.9773 0.0000
# 6 0.0000 0.0000 0.0000 0.0000 0.0000 18.1598
#
#
#
# Elastic Compliance Matrix: (Units=1/GPa)
#
#
# Indices 1 2 3 4 5 6 
#
# 1 0.010092 -0.004304 -0.003688 0.000000 0.000000 0.000000
# 2 -0.004304 0.016674 -0.002933 0.000000 0.000000 0.000000
# 3 -0.003688 -0.002933 0.013218 0.000000 0.000000 0.000000
# 4 0.000000 0.000000 0.000000 0.052275 0.000000 0.000000
# 5 0.000000 0.000000 0.000000 0.000000 0.111392 0.000000
# 6 0.000000 0.000000 0.000000 0.000000 0.000000 0.055067
#
#
# Mechanical properties :
#
#
# Convention : Reuss Voigt Hill
#
# Bulk Modulus (GPa) = 55.14234 60.47015 57.80625
# Shear Modulus (GPa) = 17.44520 21.71816 19.58168
#
# Velocity S-wave (km/s) = 3.19299 3.56263 3.38286
# Velocity P-wave (km/s) = 6.76900 7.22928 7.00292
#
# Compressibility (1/GPa) = 0.01813488
#
# Stress axis : x y z
#
# Youngs Moduli (GPa) = 99.09102 59.97450 75.65233
#
# Poissons Ratio (x) = 0.25813 0.27899
# Poissons Ratio (y) = 0.42649 0.22186
# Poissons Ratio (z) = 0.36543 0.17588
#
# Static dielectric constant tensor:
#      x y z
#    x 1.600340 0.000000 0.000000 
#    y 0.000000 1.546210 0.000000 
#    z 0.000000 0.000000 1.500560 
# 
# From -- ./inp_files/46817.got.cif
#   From: 2010.05.17/outbox.cif.g08.bks.cpg/sg65_24_cif.got.tgz:46817.got - 2010.06.03 17:01:31.
