data_PCOD9490710
_publ_section_title
;
Structure prediction by ZEFSAII (Michael W. Deem and Ramdas Pophale) SiO2 
 PCOD9490710
Probable space group: C M M M
;
_chemical_formula_sum "Si O2"
_cell_formula_units_Z 56
_cell_length_a 29.742198
_cell_length_b 10.252730
_cell_length_c 7.691297
_cell_angle_alpha 90.000000
_cell_angle_beta 90.000000
_cell_angle_gamma 90.000000
_cell_volume 2345.374306
_symmetry_space_group_name_H-M "C M M M"
_symmetry_group_IT_number 65
_symmetry_cell_setting 'orthorhombic'
loop_
_space_group_symop_operation_xyz
x,y,z
-x,-y,z
x,-y,-z
-x,y,-z
-x,-y,-z
x,y,-z
-x,y,z
x,-y,z
1/2+x,1/2+y,z
1/2-x,1/2-y,z
1/2+x,1/2-y,-z
1/2-x,1/2+y,-z
1/2-x,1/2-y,-z
1/2+x,1/2+y,-z
1/2-x,1/2+y,z
1/2+x,1/2-y,z
loop_
_atom_site_type_symbol
_atom_site_label
_atom_site_fract_x
_atom_site_fract_y
_atom_site_fract_z
Si Si1 0.177914 0.500000 0.203263
Si Si2 0.052902 0.500000 0.193410
Si Si3 0.352297 0.283158 0.209708
Si Si4 0.719558 0.500000 0.701983
Si Si5 0.050751 0.790262 0.786696
O O1 0.157888 0.364129 0.275409
O O2 0.231714 0.500000 0.213163
O O3 0.167497 0.500000 0.000000
O O4 0.059255 0.359110 0.273478
O O5 0.000000 0.500000 0.167941
O O6 0.073814 0.500000 0.000000
O O7 0.310765 0.375110 0.254304
O O8 0.400548 0.346149 0.264163
O O9 0.354421 0.276169 0.000000
O O10 0.729021 0.500000 0.500000
O O11 0.000000 0.832148 0.730545
O O12 0.048512 0.792888 0.000000
#
# Coordination Sequence:
#
# PCOD9490710 Si02
#       5
#     8   8  16   8  16
#     4  10  21  38  62  90 114 139 179 233 291 343
#     4   7   9  15  32  64 105 137 160 199 256 311
#     4  10  20  36  60  88 116 146 182 228 281 334
#     4  12  26  41  56  77 110 153 196 236 280 331
#     4   8  13  23  44  77 113 144 174 212 263 325
#
# _framework density 23.876787
#
# number of rings (size 3 to 8) (size 9 to 14) (size 15 to 20)
#    0.000    2.714    0.000    4.714    0.000    8.000 
#    0.000    0.714    0.000    5.143    0.000    0.000 
#    0.000    6.857    0.000    0.000    0.000    0.000 
#
# Total GULP energy -155936.554179 kJ/mol
# GULP energy per Si atom -5569.162649 kJ/mol
# Density = 2.382244 g / cm^3
# Si number density = 23.876787 Si / 1000 Ang^3
#
#
#
# Elastic Constant Matrix: (Units=GPa)
#
#
# Indices 1 2 3 4 5 6 
#
# 1 247.5269 48.9111 2.8871 0.0000 0.0000 0.0000
# 2 48.9111 117.2718 1.2939 0.0000 0.0000 0.0000
# 3 2.8871 1.2939 37.2125 0.0000 0.0000 0.0000
# 4 0.0000 0.0000 0.0000 26.3532 0.0000 0.0000
# 5 0.0000 0.0000 0.0000 0.0000 -105.8236 0.0000
# 6 0.0000 0.0000 0.0000 0.0000 0.0000 65.2889
#
#
#
# Elastic Compliance Matrix: (Units=1/GPa)
#
#
# Indices 1 2 3 4 5 6 
#
# 1 0.004406 -0.001834 -0.000278 0.000000 0.000000 0.000000
# 2 -0.001834 0.009294 -0.000181 0.000000 0.000000 0.000000
# 3 -0.000278 -0.000181 0.026901 0.000000 0.000000 0.000000
# 4 0.000000 0.000000 0.000000 0.037946 0.000000 0.000000
# 5 0.000000 0.000000 0.000000 0.000000 -0.009450 0.000000
# 6 0.000000 0.000000 0.000000 0.000000 0.000000 0.015317
#
#
# Mechanical properties :
#
#
# Convention : Reuss Voigt Hill
#
# Bulk Modulus (GPa) = 27.76704 56.46616 42.11660
# Shear Modulus (GPa) = 49.50264 20.42498 34.96381
#
# Velocity S-wave (km/s) = 4.55824 2.92795 3.83083
# Velocity P-wave (km/s) = 6.27359 5.92713 6.10282
#
# Compressibility (1/GPa) = 0.03601392
#
# Stress axis : x y z
#
# Youngs Moduli (GPa) = 226.97920 107.59292 37.17397
#
# Poissons Ratio (x) = 0.19737 0.01034
# Poissons Ratio (y) = 0.41638 0.00672
# Poissons Ratio (z) = 0.06311 0.01946
#
# Static dielectric constant tensor:
#      x y z
#    x 1.944810 0.000000 0.000000 
#    y 0.000000 1.751300 0.000000 
#    z 0.000000 0.000000 1.686850 
# 
# From -- ./inp_files/17735.got.cif
#   From: 2010.05.17/outbox.cif.g08.bks.cpg/sg65_9_cif.got.tgz:17735.got - 2010.06.03 17:01:31.
