data_PCOD9490568
_publ_section_title
;
Structure prediction by ZEFSAII (Michael W. Deem and Ramdas Pophale) SiO2 
 PCOD9490568
Probable space group: C M M M
;
_chemical_formula_sum "Si O2"
_cell_formula_units_Z 80
_cell_length_a 8.319786
_cell_length_b 24.455712
_cell_length_c 21.102165
_cell_angle_alpha 90.000000
_cell_angle_beta 90.000000
_cell_angle_gamma 90.000000
_cell_volume 4293.579230
_symmetry_space_group_name_H-M "C M M M"
_symmetry_group_IT_number 65
_symmetry_cell_setting 'orthorhombic'
loop_
_space_group_symop_operation_xyz
x,y,z
-x,-y,z
x,-y,-z
-x,y,-z
-x,-y,-z
x,y,-z
-x,y,z
x,-y,z
1/2+x,1/2+y,z
1/2-x,1/2-y,z
1/2+x,1/2-y,-z
1/2-x,1/2+y,-z
1/2-x,1/2-y,-z
1/2+x,1/2+y,-z
1/2-x,1/2+y,z
1/2+x,1/2-y,z
loop_
_atom_site_type_symbol
_atom_site_label
_atom_site_fract_x
_atom_site_fract_y
_atom_site_fract_z
Si Si1 0.304062 0.500000 0.624096
Si Si2 0.305561 0.382674 0.571356
Si Si3 0.805756 0.617309 0.810122
Si Si4 0.694235 0.188536 0.928244
Si Si5 0.307827 0.187870 0.689132
Si Si6 0.807893 0.000000 0.770595
O O1 0.500000 0.500000 0.623333
O O2 0.252340 0.444051 0.590436
O O3 0.250825 0.500000 0.697245
O O4 0.252075 0.369476 0.500000
O O5 0.500000 0.382579 0.571962
O O6 0.247946 0.340666 0.624412
O O7 0.749812 0.646915 0.874293
O O8 0.748939 0.651762 0.748833
O O9 0.750945 0.555184 0.803424
O O10 0.000000 0.618284 0.809861
O O11 0.500000 0.188148 0.928216
O O12 0.750000 0.250000 0.913230
O O13 0.748590 0.175475 0.000000
O O14 0.500000 0.187675 0.690712
O O15 0.250000 0.250000 0.693854
O O16 0.000000 0.000000 0.769336
#
# Coordination Sequence:
#
# PCOD9490568 Si02
#       6
#     8  16  16  16  16   8
#     4   9  17  33  56  82 106 132 172 219 266 317
#     4  10  20  36  58  81 107 139 176 221 271 323
#     4  10  21  37  56  81 112 144 179 222 270 321
#     4   9  18  34  57  84 113 146 183 223 268 317
#     4  11  23  37  55  78 107 141 179 222 269 322
#     4  11  21  34  58  84 108 142 181 223 269 319
#
# _framework density 18.632473999999998
#
# number of rings (size 3 to 8) (size 9 to 14) (size 15 to 20)
#    0.000    2.000    2.000    1.800    0.000    3.600 
#    0.000    1.000    0.000    4.200    0.000    0.000 
#    0.000    0.000    0.000    0.000    0.000    0.000 
#
# Total GULP energy -223371.439482 kJ/mol
# GULP energy per Si atom -5584.285987 kJ/mol
# Density = 1.859007 g / cm^3
# Si number density = 18.632474 Si / 1000 Ang^3
#
#
#
# Elastic Constant Matrix: (Units=GPa)
#
#
# Indices 1 2 3 4 5 6 
#
# 1 11.6248 18.3895 24.1777 0.0000 0.0000 0.0000
# 2 18.3895 178.0707 112.8948 0.0000 0.0000 0.0000
# 3 24.1777 112.8948 170.8291 0.0000 0.0000 0.0000
# 4 0.0000 0.0000 0.0000 35.5629 0.0000 0.0000
# 5 0.0000 0.0000 0.0000 0.0000 16.4666 0.0000
# 6 0.0000 0.0000 0.0000 0.0000 0.0000 9.3084
#
#
#
# Elastic Compliance Matrix: (Units=1/GPa)
#
#
# Indices 1 2 3 4 5 6 
#
# 1 0.122750 -0.002861 -0.015482 0.000000 0.000000 0.000000
# 2 -0.002861 0.009732 -0.006027 0.000000 0.000000 0.000000
# 3 -0.015482 -0.006027 0.012028 0.000000 0.000000 0.000000
# 4 0.000000 0.000000 0.000000 0.028119 0.000000 0.000000
# 5 0.000000 0.000000 0.000000 0.000000 0.060729 0.000000
# 6 0.000000 0.000000 0.000000 0.000000 0.000000 0.107430
#
#
# Mechanical properties :
#
#
# Convention : Reuss Voigt Hill
#
# Bulk Modulus (GPa) = 10.44169 74.60539 42.52354
# Shear Modulus (GPa) = 11.86378 25.93841 18.90110
#
# Velocity S-wave (km/s) = 2.52608 3.73514 3.18845
# Velocity P-wave (km/s) = 3.75823 7.66350 6.03546
#
# Compressibility (1/GPa) = 0.09576996
#
# Stress axis : x y z
#
# Youngs Moduli (GPa) = 8.14666 102.75383 83.14044
#
# Poissons Ratio (x) = 0.29396 1.28721
# Poissons Ratio (y) = 0.02331 0.50106
# Poissons Ratio (z) = 0.12613 0.61926
#
# Static dielectric constant tensor:
#      x y z
#    x 1.649640 0.000000 0.000000 
#    y 0.000000 1.602890 0.000000 
#    z 0.000000 0.000000 1.648060 
# 
# From -- ./inp_files/59635.got.cif
#   From: 2010.05.17/outbox.cif.g08.bks.cpg/sg65_30_cif.got.tgz:59635.got - 2010.06.03 17:01:31.
