data_PCOD9490741
_publ_section_title
;
Structure prediction by ZEFSAII (Michael W. Deem and Ramdas Pophale) SiO2 
 PCOD9490741
Probable space group: C M M M
;
_chemical_formula_sum "Si O2"
_cell_formula_units_Z 60
_cell_length_a 10.538733
_cell_length_b 27.689028
_cell_length_c 11.717779
_cell_angle_alpha 90.000000
_cell_angle_beta 90.000000
_cell_angle_gamma 90.000000
_cell_volume 3419.333137
_symmetry_space_group_name_H-M "C M M M"
_symmetry_group_IT_number 65
_symmetry_cell_setting 'orthorhombic'
loop_
_space_group_symop_operation_xyz
x,y,z
-x,-y,z
x,-y,-z
-x,y,-z
-x,-y,-z
x,y,-z
-x,y,z
x,-y,z
1/2+x,1/2+y,z
1/2-x,1/2-y,z
1/2+x,1/2-y,-z
1/2-x,1/2+y,-z
1/2-x,1/2-y,-z
1/2+x,1/2+y,-z
1/2-x,1/2+y,z
1/2+x,1/2-y,z
loop_
_atom_site_type_symbol
_atom_site_label
_atom_site_fract_x
_atom_site_fract_y
_atom_site_fract_z
Si Si1 0.000000 0.287563 0.865893
Si Si2 0.251994 0.647474 0.866215
Si Si3 0.849036 0.554754 0.255125
Si Si4 0.500000 0.364251 0.500000
Si Si5 0.000000 0.187834 0.258403
Si Si6 0.279419 0.444419 0.500000
O O1 0.126702 0.319402 0.849981
O O2 0.000000 0.244175 0.775674
O O3 0.000000 0.270511 0.000000
O O4 0.218105 0.594458 0.821547
O O5 0.372719 0.666966 0.798681
O O6 0.280813 0.647305 0.000000
O O7 0.818583 0.500000 0.219165
O O8 0.803737 0.560128 0.385741
O O9 0.000000 0.561212 0.248613
O O10 0.500000 0.330082 0.388863
O O11 0.381647 0.401542 0.500000
O O12 0.331996 0.500000 0.500000
#
# Coordination Sequence:
#
# PCOD9490741 Si02
#       6
#     8  16  16   4   8   8
#     4  10  22  42  66  87 113 160 210 243 287 355
#     4  11  22  39  63  89 120 159 199 244 299 356
#     4  10  20  36  61  91 121 155 198 248 297 353
#     4  12  23  38  60  86 118 158 193 244 312 354
#     4  12  24  41  60  87 122 153 201 253 297 352
#     4  10  20  38  60  84 116 161 206 241 290 358
#
# _framework density 17.547281999999999
#
# number of rings (size 3 to 8) (size 9 to 14) (size 15 to 20)
#    0.000    1.333    4.000    2.600    0.000    4.267 
#    0.000    6.000    0.000    1.600    0.000    0.000 
#    0.000    0.000    0.000    0.000    0.000    0.000 
#
# Total GULP energy -167500.237911 kJ/mol
# GULP energy per Si atom -5583.341264 kJ/mol
# Density = 1.750734 g / cm^3
# Si number density = 17.547282 Si / 1000 Ang^3
#
#
#
# Elastic Constant Matrix: (Units=GPa)
#
#
# Indices 1 2 3 4 5 6 
#
# 1 91.3116 36.1856 52.8979 0.0000 0.0000 0.0000
# 2 36.1856 103.7738 67.6917 0.0000 0.0000 0.0000
# 3 52.8979 67.6917 127.1676 0.0000 0.0000 0.0000
# 4 0.0000 0.0000 0.0000 39.7161 0.0000 0.0000
# 5 0.0000 0.0000 0.0000 0.0000 24.5536 0.0000
# 6 0.0000 0.0000 0.0000 0.0000 0.0000 18.1433
#
#
#
# Elastic Compliance Matrix: (Units=1/GPa)
#
#
# Indices 1 2 3 4 5 6 
#
# 1 0.014629 -0.001734 -0.005162 0.000000 0.000000 0.000000
# 2 -0.001734 0.014968 -0.007246 0.000000 0.000000 0.000000
# 3 -0.005162 -0.007246 0.013868 0.000000 0.000000 0.000000
# 4 0.000000 0.000000 0.000000 0.025179 0.000000 0.000000
# 5 0.000000 0.000000 0.000000 0.000000 0.040727 0.000000
# 6 0.000000 0.000000 0.000000 0.000000 0.000000 0.055117
#
#
# Mechanical properties :
#
#
# Convention : Reuss Voigt Hill
#
# Bulk Modulus (GPa) = 65.87428 70.64481 68.25955
# Shear Modulus (GPa) = 25.27397 27.51447 26.39422
#
# Velocity S-wave (km/s) = 3.79929 3.96412 3.88258
# Velocity P-wave (km/s) = 7.54113 7.82939 7.68661
#
# Compressibility (1/GPa) = 0.01518043
#
# Stress axis : x y z
#
# Youngs Moduli (GPa) = 68.35626 66.81141 72.10753
#
# Poissons Ratio (x) = 0.11583 0.37225
# Poissons Ratio (y) = 0.11851 0.52250
# Poissons Ratio (z) = 0.35289 0.48412
#
# Static dielectric constant tensor:
#      x y z
#    x 1.578120 0.000000 0.000000 
#    y 0.000000 1.594900 0.000000 
#    z 0.000000 0.000000 1.566570 
# 
# From -- ./inp_files/22268.got.cif
#   From: 2010.05.17/outbox.cif.g08.bks.cpg/sg65_12_cif.got.tgz:22268.got - 2010.06.03 17:01:31.
