data_PCOD9490842
_publ_section_title
;
Structure prediction by ZEFSAII (Michael W. Deem and Ramdas Pophale) SiO2 
 PCOD9490842
Probable space group: C M M M
;
_chemical_formula_sum "Si O2"
_cell_formula_units_Z 64
_cell_length_a 25.214017
_cell_length_b 8.917534
_cell_length_c 14.900987
_cell_angle_alpha 90.000000
_cell_angle_beta 90.000000
_cell_angle_gamma 90.000000
_cell_volume 3350.440047
_symmetry_space_group_name_H-M "C M M M"
_symmetry_group_IT_number 65
_symmetry_cell_setting 'orthorhombic'
loop_
_space_group_symop_operation_xyz
x,y,z
-x,-y,z
x,-y,-z
-x,y,-z
-x,-y,-z
x,y,-z
-x,y,z
x,-y,z
1/2+x,1/2+y,z
1/2-x,1/2-y,z
1/2+x,1/2-y,-z
1/2-x,1/2+y,-z
1/2-x,1/2-y,-z
1/2+x,1/2+y,-z
1/2-x,1/2+y,z
1/2+x,1/2-y,z
loop_
_atom_site_type_symbol
_atom_site_label
_atom_site_fract_x
_atom_site_fract_y
_atom_site_fract_z
Si Si1 0.388458 0.179851 0.859748
Si Si2 0.307734 0.819085 0.500000
Si Si3 0.609277 0.179084 0.351521
Si Si4 0.808684 0.819923 0.000000
Si Si5 0.000000 0.826209 0.861512
Si Si6 0.000000 0.171184 0.643155
O O1 0.382678 0.213569 0.753605
O O2 0.446024 0.242910 0.888873
O O3 0.386709 0.000000 0.872300
O O4 0.342355 0.259503 0.915353
O O5 0.250000 0.750000 0.500000
O O6 0.341904 0.772877 0.413102
O O7 0.303778 0.000000 0.500000
O O8 0.554210 0.249493 0.384204
O O9 0.604162 0.000000 0.358761
O O10 0.750000 0.750000 0.000000
O O11 0.806184 0.000000 0.000000
O O12 0.000000 0.824105 0.752445
O O13 0.000000 0.000000 0.889925
O O14 0.000000 0.000000 0.614242
#
# Coordination Sequence:
#
# PCOD9490842 Si02
#       6
#    16   8  16   8   8   8
#     4  10  20  37  60  86 114 147 185 229 278 330
#     4  10  22  39  56  79 109 146 190 232 273 324
#     4   9  19  36  58  82 113 149 183 222 275 331
#     4  12  26  43  60  81 110 146 188 234 278 330
#     4   9  17  32  55  86 118 148 182 224 275 333
#     4   9  17  30  53  84 115 144 181 226 273 325
#
# _framework density 19.101967999999999
#
# number of rings (size 3 to 8) (size 9 to 14) (size 15 to 20)
#    0.000    2.250    0.000    2.625    0.000    7.000 
#    0.000    7.500    0.000    0.000    0.000    0.000 
#    0.000    0.000    0.000    0.000    0.000    0.000 
#
# Total GULP energy -178756.400132 kJ/mol
# GULP energy per Si atom -5586.137504 kJ/mol
# Density = 1.905849 g / cm^3
# Si number density = 19.101968 Si / 1000 Ang^3
#
#
#
# Elastic Constant Matrix: (Units=GPa)
#
#
# Indices 1 2 3 4 5 6 
#
# 1 228.9465 86.6442 88.3058 0.0000 0.0000 0.0000
# 2 86.6442 90.9894 57.1819 0.0000 0.0000 0.0000
# 3 88.3058 57.1819 100.6534 0.0000 0.0000 0.0000
# 4 0.0000 0.0000 0.0000 16.0550 0.0000 0.0000
# 5 0.0000 0.0000 0.0000 0.0000 31.4658 0.0000
# 6 0.0000 0.0000 0.0000 0.0000 0.0000 42.6402
#
#
#
# Elastic Compliance Matrix: (Units=1/GPa)
#
#
# Indices 1 2 3 4 5 6 
#
# 1 0.007768 -0.004843 -0.004064 0.000000 0.000000 0.000000
# 2 -0.004843 0.020113 -0.007177 0.000000 0.000000 0.000000
# 3 -0.004064 -0.007177 0.017577 0.000000 0.000000 0.000000
# 4 0.000000 0.000000 0.000000 0.062286 0.000000 0.000000
# 5 0.000000 0.000000 0.000000 0.000000 0.031781 0.000000
# 6 0.000000 0.000000 0.000000 0.000000 0.000000 0.023452
#
#
# Mechanical properties :
#
#
# Convention : Reuss Voigt Hill
#
# Bulk Modulus (GPa) = 75.24219 98.31702 86.77960
# Shear Modulus (GPa) = 25.05327 30.59604 27.82466
#
# Velocity S-wave (km/s) = 3.62547 4.00649 3.82073
# Velocity P-wave (km/s) = 7.54988 8.54307 8.06178
#
# Compressibility (1/GPa) = 0.01329042
#
# Stress axis : x y z
#
# Youngs Moduli (GPa) = 128.73019 49.71982 56.89107
#
# Poissons Ratio (x) = 0.24081 0.23118
# Poissons Ratio (y) = 0.62350 0.40830
# Poissons Ratio (z) = 0.52311 0.35683
#
# Static dielectric constant tensor:
#      x y z
#    x 1.615440 0.000000 0.000000 
#    y 0.000000 1.637400 0.000000 
#    z 0.000000 0.000000 1.707610 
# 
# From -- ./inp_files/45131.got.cif
#   From: 2010.05.17/outbox.cif.g08.bks.cpg/sg65_23_cif.got.tgz:45131.got - 2010.06.03 17:01:31.
