data_PCOD9490567
_publ_section_title
;
Structure prediction by ZEFSAII (Michael W. Deem and Ramdas Pophale) SiO2 
 PCOD9490567
Probable space group: C M M M
;
_chemical_formula_sum "Si O2"
_cell_formula_units_Z 72
_cell_length_a 7.909472
_cell_length_b 16.346644
_cell_length_c 26.832940
_cell_angle_alpha 90.000000
_cell_angle_beta 90.000000
_cell_angle_gamma 90.000000
_cell_volume 3469.319979
_symmetry_space_group_name_H-M "C M M M"
_symmetry_group_IT_number 65
_symmetry_cell_setting 'orthorhombic'
loop_
_space_group_symop_operation_xyz
x,y,z
-x,-y,z
x,-y,-z
-x,y,-z
-x,-y,-z
x,y,-z
-x,y,z
x,-y,z
1/2+x,1/2+y,z
1/2-x,1/2-y,z
1/2+x,1/2-y,-z
1/2-x,1/2+y,-z
1/2-x,1/2-y,-z
1/2+x,1/2+y,-z
1/2-x,1/2+y,z
1/2+x,1/2-y,z
loop_
_atom_site_type_symbol
_atom_site_label
_atom_site_fract_x
_atom_site_fract_y
_atom_site_fract_z
Si Si1 0.199798 0.660603 0.790925
Si Si2 0.792296 0.500000 0.733292
Si Si3 0.793026 0.500000 0.618075
Si Si4 0.796175 0.155368 0.000000
Si Si5 0.703721 0.408584 0.893653
Si Si6 0.296374 0.840761 0.557275
O O1 0.250000 0.750000 0.772126
O O2 0.268872 0.582146 0.761067
O O3 0.247752 0.650499 0.848857
O O4 0.000000 0.655621 0.787539
O O5 0.741936 0.500000 0.675638
O O6 0.000000 0.500000 0.734696
O O7 0.736706 0.417473 0.589894
O O8 0.000000 0.500000 0.617000
O O9 0.750000 0.250000 0.000000
O O10 0.733469 0.116325 0.051589
O O11 0.000000 0.146589 0.000000
O O12 0.500000 0.409835 0.895900
O O13 0.764434 0.500000 0.881252
O O14 0.234625 0.847695 0.500000
O O15 0.500000 0.845024 0.556020
O O16 0.250000 0.750000 0.575937
#
# Coordination Sequence:
#
# PCOD9490567 Si02
#       6
#    16   8   8   8  16  16
#     4  11  22  38  58  81 107 140 181 225 272 323
#     4   9  20  37  55  77 107 140 179 228 273 316
#     4   9  17  32  54  76 103 143 184 220 265 318
#     4  10  21  35  51  77 109 140 173 213 259 319
#     4  10  20  36  58  81 107 139 176 218 267 320
#     4   9  17  30  51  79 109 141 179 220 263 316
#
# _framework density 20.753346000000001
#
# number of rings (size 3 to 8) (size 9 to 14) (size 15 to 20)
#    0.000    2.222    1.111    2.000    0.000    6.222 
#    0.000    0.556    0.000    8.667    0.000    0.000 
#    0.000    0.000    0.000    0.000    0.000    0.000 
#
# Total GULP energy -201002.192043 kJ/mol
# GULP energy per Si atom -5583.394223 kJ/mol
# Density = 2.070611 g / cm^3
# Si number density = 20.753346 Si / 1000 Ang^3
#
#
#
# Elastic Constant Matrix: (Units=GPa)
#
#
# Indices 1 2 3 4 5 6 
#
# 1 19.6325 8.9343 7.0851 0.0000 0.0000 0.0000
# 2 8.9343 194.9306 92.4797 0.0000 0.0000 0.0000
# 3 7.0851 92.4797 125.7079 0.0000 0.0000 0.0000
# 4 0.0000 0.0000 0.0000 12.8295 0.0000 0.0000
# 5 0.0000 0.0000 0.0000 0.0000 7.7879 0.0000
# 6 0.0000 0.0000 0.0000 0.0000 0.0000 26.9589
#
#
#
# Elastic Compliance Matrix: (Units=1/GPa)
#
#
# Indices 1 2 3 4 5 6 
#
# 1 0.052290 -0.001534 -0.001819 0.000000 0.000000 0.000000
# 2 -0.001534 0.007925 -0.005744 0.000000 0.000000 0.000000
# 3 -0.001819 -0.005744 0.012283 0.000000 0.000000 0.000000
# 4 0.000000 0.000000 0.000000 0.077946 0.000000 0.000000
# 5 0.000000 0.000000 0.000000 0.000000 0.128404 0.000000
# 6 0.000000 0.000000 0.000000 0.000000 0.000000 0.037094
#
#
# Mechanical properties :
#
#
# Convention : Reuss Voigt Hill
#
# Bulk Modulus (GPa) = 18.41425 61.91880 40.16653
# Shear Modulus (GPa) = 14.19499 24.96672 19.58085
#
# Velocity S-wave (km/s) = 2.61815 3.47222 3.07498
# Velocity P-wave (km/s) = 4.24638 6.78052 5.65717
#
# Compressibility (1/GPa) = 0.05430576
#
# Stress axis : x y z
#
# Youngs Moduli (GPa) = 19.12396 126.17562 81.41184
#
# Poissons Ratio (x) = 0.19352 0.14808
# Poissons Ratio (y) = 0.02933 0.46764
# Poissons Ratio (z) = 0.03478 0.72476
#
# Static dielectric constant tensor:
#      x y z
#    x 1.756500 0.000000 0.000000 
#    y 0.000000 1.733180 0.000000 
#    z 0.000000 0.000000 1.732790 
# 
# From -- ./inp_files/72630.got.cif
#   From: 2010.05.17/outbox.cif.g08.bks.cpg/sg65_37_cif.got.tgz:72630.got - 2010.06.03 17:01:31.
