data_PCOD9490141
_publ_section_title
;
Structure prediction by ZEFSAII (Michael W. Deem and Ramdas Pophale) SiO2 
 PCOD9490141
Probable space group: C M M M
;
_chemical_formula_sum "Si O2"
_cell_formula_units_Z 88
_cell_length_a 8.618498
_cell_length_b 23.869410
_cell_length_c 23.383876
_cell_angle_alpha 90.000000
_cell_angle_beta 90.000000
_cell_angle_gamma 90.000000
_cell_volume 4810.495014
_symmetry_space_group_name_H-M "C M M M"
_symmetry_group_IT_number 65
_symmetry_cell_setting 'orthorhombic'
loop_
_space_group_symop_operation_xyz
x,y,z
-x,-y,z
x,-y,-z
-x,y,-z
-x,-y,-z
x,y,-z
-x,y,z
x,-y,z
1/2+x,1/2+y,z
1/2-x,1/2-y,z
1/2+x,1/2-y,-z
1/2-x,1/2+y,-z
1/2-x,1/2-y,-z
1/2+x,1/2+y,-z
1/2-x,1/2+y,z
1/2+x,1/2-y,z
loop_
_atom_site_type_symbol
_atom_site_label
_atom_site_fract_x
_atom_site_fract_y
_atom_site_fract_z
Si Si1 0.187165 0.813030 0.500000
Si Si2 0.812257 0.880500 0.173898
Si Si3 0.185126 0.312436 0.280332
Si Si4 0.187283 0.811525 0.934765
Si Si5 0.813471 0.881735 0.612664
Si Si6 0.814992 0.500000 0.645702
Si Si7 0.187553 0.000000 0.224561
O O1 0.250000 0.750000 0.500000
O O2 0.235076 0.847216 0.443518
O O3 0.000000 0.810206 0.500000
O O4 0.741436 0.839687 0.221306
O O5 0.765292 0.857831 0.111592
O O6 0.000000 0.877478 0.177399
O O7 0.767314 0.943764 0.190611
O O8 0.250000 0.250000 0.285501
O O9 0.252086 0.349659 0.331660
O O10 0.000000 0.311916 0.282974
O O11 0.250000 0.750000 0.918749
O O12 0.000000 0.808967 0.934553
O O13 0.238015 0.823392 0.000000
O O14 0.748397 0.944379 0.615354
O O15 0.000000 0.883840 0.614430
O O16 0.757009 0.500000 0.711697
O O17 0.000000 0.500000 0.645608
O O18 0.000000 0.000000 0.230473
#
# Coordination Sequence:
#
# PCOD9490141 Si02
#       7
#     8  16  16  16  16   8   8
#     4  10  24  43  66  91 119 156 196 238 293 350
#     4  10  20  35  56  82 112 151 194 239 295 350
#     4  12  24  37  56  85 117 150 192 242 294 351
#     4   9  18  33  53  79 112 149 192 241 291 348
#     4  11  23  42  64  88 119 156 195 240 291 348
#     4  12  24  39  61  91 120 155 198 243 291 344
#     4  10  20  36  58  81 114 156 193 237 293 350
#
# _framework density 18.293334999999999
#
# number of rings (size 3 to 8) (size 9 to 14) (size 15 to 20)
#    0.000    1.455    1.818    4.091    0.000    5.455 
#    0.000    2.273    0.000    2.727    0.000    0.000 
#    0.000    5.091    0.000    0.000    0.000    0.000 
#
# Total GULP energy -245892.499818 kJ/mol
# GULP energy per Si atom -5588.465905 kJ/mol
# Density = 1.825170 g / cm^3
# Si number density = 18.293335 Si / 1000 Ang^3
#
#
#
# Elastic Constant Matrix: (Units=GPa)
#
#
# Indices 1 2 3 4 5 6 
#
# 1 42.5595 40.8188 31.7716 0.0000 0.0000 0.0000
# 2 40.8188 175.6525 77.7205 0.0000 0.0000 0.0000
# 3 31.7716 77.7205 123.4785 0.0000 0.0000 0.0000
# 4 0.0000 0.0000 0.0000 26.7885 0.0000 0.0000
# 5 0.0000 0.0000 0.0000 0.0000 -6.4749 0.0000
# 6 0.0000 0.0000 0.0000 0.0000 0.0000 28.3051
#
#
#
# Elastic Compliance Matrix: (Units=1/GPa)
#
#
# Indices 1 2 3 4 5 6 
#
# 1 0.032296 -0.005306 -0.004970 0.000000 0.000000 0.000000
# 2 -0.005306 0.008762 -0.004150 0.000000 0.000000 0.000000
# 3 -0.004970 -0.004150 0.011990 0.000000 0.000000 0.000000
# 4 0.000000 0.000000 0.000000 0.037329 0.000000 0.000000
# 5 0.000000 0.000000 0.000000 0.000000 -0.154443 0.000000
# 6 0.000000 0.000000 0.000000 0.000000 0.000000 0.035329
#
#
# Mechanical properties :
#
#
# Convention : Reuss Voigt Hill
#
# Bulk Modulus (GPa) = 41.33006 71.36802 56.34904
# Shear Modulus (GPa) = 611.18518 22.48240 316.83379
#
# Velocity S-wave (km/s) = 18.29830 3.50950 13.17468
# Velocity P-wave (km/s) = 21.65824 7.45117 16.19567
#
# Compressibility (1/GPa) = 0.02419546
#
# Stress axis : x y z
#
# Youngs Moduli (GPa) = 30.96386 114.12552 83.40602
#
# Poissons Ratio (x) = 0.60553 0.41455
# Poissons Ratio (y) = 0.16429 0.34613
# Poissons Ratio (z) = 0.15390 0.47362
#
# Static dielectric constant tensor:
#      x y z
#    x 1.616230 0.000000 0.000000 
#    y 0.000000 1.604740 0.000000 
#    z 0.000000 0.000000 1.619160 
# 
# From -- ./inp_files/59868.got.cif
#   From: 2010.05.17/outbox.cif.g08.bks.cpg/sg65_30_cif.got.tgz:59868.got - 2010.06.03 17:01:31.
