data_PCOD9490581
_publ_section_title
;
Structure prediction by ZEFSAII (Michael W. Deem and Ramdas Pophale) SiO2 
 PCOD9490581
Probable space group: C M M M
;
_chemical_formula_sum "Si O2"
_cell_formula_units_Z 72
_cell_length_a 15.067215
_cell_length_b 8.438657
_cell_length_c 28.576201
_cell_angle_alpha 90.000000
_cell_angle_beta 90.000000
_cell_angle_gamma 90.000000
_cell_volume 3633.379924
_symmetry_space_group_name_H-M "C M M M"
_symmetry_group_IT_number 65
_symmetry_cell_setting 'orthorhombic'
loop_
_space_group_symop_operation_xyz
x,y,z
-x,-y,z
x,-y,-z
-x,y,-z
-x,-y,-z
x,y,-z
-x,y,z
x,-y,z
1/2+x,1/2+y,z
1/2-x,1/2-y,z
1/2+x,1/2-y,-z
1/2-x,1/2+y,-z
1/2-x,1/2-y,-z
1/2+x,1/2+y,-z
1/2-x,1/2+y,z
1/2+x,1/2-y,z
loop_
_atom_site_type_symbol
_atom_site_label
_atom_site_fract_x
_atom_site_fract_y
_atom_site_fract_z
Si Si1 0.000000 0.310422 0.272188
Si Si2 0.147479 0.192223 0.000000
Si Si3 0.351080 0.690407 0.796710
Si Si4 0.150246 0.810205 0.552777
Si Si5 0.351943 0.308369 0.899365
Si Si6 0.000000 0.689261 0.379055
O O1 0.914196 0.252957 0.243741
O O2 0.000000 0.500000 0.272919
O O3 0.000000 0.251457 0.325653
O O4 0.250000 0.250000 0.000000
O O5 0.109024 0.244190 0.949611
O O6 0.146032 0.000000 0.000000
O O7 0.350947 0.500000 0.795689
O O8 0.250000 0.750000 0.791877
O O9 0.386480 0.742012 0.848433
O O10 0.122569 0.760181 0.500000
O O11 0.250000 0.750000 0.559976
O O12 0.084990 0.746025 0.591938
O O13 0.149109 0.000000 0.553974
O O14 0.354079 0.500000 0.899509
O O15 0.250000 0.250000 0.899592
O O16 0.000000 0.500000 0.377797
#
# Coordination Sequence:
#
# PCOD9490581 Si02
#       6
#     8   8  16  16  16   8
#     4  11  25  42  58  80 109 146 193 240 285 330
#     4   8  12  20  36  63  98 129 160 204 256 317
#     4  10  20  36  58  82 108 142 184 230 281 337
#     4  10  21  38  62  92 124 157 191 226 269 324
#     4   8  14  24  42  69  99 131 168 210 262 324
#     4  11  24  40  59  84 115 151 192 238 285 330
#
# _framework density 19.816258999999999
#
# number of rings (size 3 to 8) (size 9 to 14) (size 15 to 20)
#    0.000    2.444    0.000    2.333    0.000    6.222 
#    0.000    0.000    0.000    0.667    0.000    4.667 
#    0.000    0.000    0.000    0.000    0.000    0.000 
#
# Total GULP energy -200769.276273 kJ/mol
# GULP energy per Si atom -5576.924341 kJ/mol
# Density = 1.977116 g / cm^3
# Si number density = 19.816259 Si / 1000 Ang^3
#
#
#
# Elastic Constant Matrix: (Units=GPa)
#
#
# Indices 1 2 3 4 5 6 
#
# 1 92.5637 19.3438 96.6259 0.0000 0.0000 0.0000
# 2 19.3438 35.6574 44.1423 0.0000 0.0000 0.0000
# 3 96.6259 44.1423 250.5697 0.0000 0.0000 0.0000
# 4 0.0000 0.0000 0.0000 24.5084 0.0000 0.0000
# 5 0.0000 0.0000 0.0000 0.0000 3.3743 0.0000
# 6 0.0000 0.0000 0.0000 0.0000 0.0000 24.3889
#
#
#
# Elastic Compliance Matrix: (Units=1/GPa)
#
#
# Indices 1 2 3 4 5 6 
#
# 1 0.018146 -0.001511 -0.006731 0.000000 0.000000 0.000000
# 2 -0.001511 0.035993 -0.005758 0.000000 0.000000 0.000000
# 3 -0.006731 -0.005758 0.007601 0.000000 0.000000 0.000000
# 4 0.000000 0.000000 0.000000 0.040802 0.000000 0.000000
# 5 0.000000 0.000000 0.000000 0.000000 0.296356 0.000000
# 6 0.000000 0.000000 0.000000 0.000000 0.000000 0.041002
#
#
# Mechanical properties :
#
#
# Convention : Reuss Voigt Hill
#
# Bulk Modulus (GPa) = 29.63940 77.66831 53.65385
# Shear Modulus (GPa) = 10.43522 25.03290 17.73406
#
# Velocity S-wave (km/s) = 2.29726 3.55808 2.99477
# Velocity P-wave (km/s) = 4.69320 7.49395 6.25241
#
# Compressibility (1/GPa) = 0.03373888
#
# Stress axis : x y z
#
# Youngs Moduli (GPa) = 55.10901 27.78355 131.56047
#
# Poissons Ratio (x) = 0.04198 0.88558
# Poissons Ratio (y) = 0.08326 0.75754
# Poissons Ratio (z) = 0.37096 0.15998
#
# Static dielectric constant tensor:
#      x y z
#    x 1.677130 0.000000 0.000000 
#    y 0.000000 1.673360 0.000000 
#    z 0.000000 0.000000 1.745090 
# 
# From -- ./inp_files/74673.got.cif
#   From: 2010.05.17/outbox.cif.g08.bks.cpg/sg65_38_cif.got.tgz:74673.got - 2010.06.03 17:01:31.
