data_PCOD9490037
_publ_section_title
;
Structure prediction by ZEFSAII (Michael W. Deem and Ramdas Pophale) SiO2 
 PCOD9490037
Probable space group: C M M M
;
_chemical_formula_sum "Si O2"
_cell_formula_units_Z 104
_cell_length_a 32.217488
_cell_length_b 8.254707
_cell_length_c 20.023907
_cell_angle_alpha 90.000000
_cell_angle_beta 90.000000
_cell_angle_gamma 90.000000
_cell_volume 5325.276444
_symmetry_space_group_name_H-M "C M M M"
_symmetry_group_IT_number 65
_symmetry_cell_setting 'orthorhombic'
loop_
_space_group_symop_operation_xyz
x,y,z
-x,-y,z
x,-y,-z
-x,y,-z
-x,-y,-z
x,y,-z
-x,y,z
x,-y,z
1/2+x,1/2+y,z
1/2-x,1/2-y,z
1/2+x,1/2-y,-z
1/2-x,1/2+y,-z
1/2-x,1/2-y,-z
1/2+x,1/2+y,-z
1/2-x,1/2+y,z
1/2+x,1/2-y,z
loop_
_atom_site_type_symbol
_atom_site_label
_atom_site_fract_x
_atom_site_fract_y
_atom_site_fract_z
Si Si1 0.000000 0.307375 0.077585
Si Si2 0.156429 0.303101 0.797623
Si Si3 0.437760 0.692378 0.809881
Si Si4 0.875537 0.695569 0.575875
Si Si5 0.797522 0.695419 0.661651
Si Si6 0.297295 0.195154 0.071308
Si Si7 0.044933 0.804214 0.660422
O O1 0.960771 0.259081 0.124407
O O2 0.000000 0.500000 0.072435
O O3 0.000000 0.244226 0.000000
O O4 0.154182 0.500000 0.796240
O O5 0.110394 0.235904 0.803871
O O6 0.182383 0.252559 0.732456
O O7 0.179774 0.245757 0.863672
O O8 0.443741 0.500000 0.812136
O O9 0.454555 0.750565 0.737825
O O10 0.880717 0.753873 0.500000
O O11 0.874405 0.500000 0.575197
O O12 0.831468 0.750511 0.606947
O O13 0.914631 0.744111 0.621435
O O14 0.796969 0.500000 0.661008
O O15 0.750000 0.750000 0.653153
O O16 0.250000 0.250000 0.073641
O O17 0.298429 0.000000 0.072615
O O18 0.315359 0.249304 0.000000
O O19 0.000000 0.755614 0.630999
O O20 0.046787 0.000000 0.660481
#
# Coordination Sequence:
#
# PCOD9490037 Si02
#       7
#     8  16  16  16  16  16  16
#     4  11  25  43  63  89 122 161 202 243 293 356
#     4  10  20  35  55  81 112 148 192 239 292 351
#     4  11  22  38  61  88 117 152 193 241 293 345
#     4  10  22  40  60  86 120 156 199 249 298 358
#     4  10  21  36  56  83 115 155 201 250 303 361
#     4   9  18  32  50  73 104 140 178 224 277 334
#     4  10  21  39  62  89 120 153 192 238 296 360
#
# _framework density 19.529502000000001
#
# number of rings (size 3 to 8) (size 9 to 14) (size 15 to 20)
#    0.000    1.923    2.308    1.154    0.000    4.923 
#    0.000    3.077    0.000    0.000    0.000    0.000 
#    0.000    0.000    0.000    0.000    0.000    0.000 
#
# Total GULP energy -290028.527644 kJ/mol
# GULP energy per Si atom -5577.471685 kJ/mol
# Density = 1.948505 g / cm^3
# Si number density = 19.529502 Si / 1000 Ang^3
#
#
#
# Elastic Constant Matrix: (Units=GPa)
#
#
# Indices 1 2 3 4 5 6 
#
# 1 167.8297 12.8863 91.3599 0.0000 0.0000 0.0000
# 2 12.8863 12.2589 23.2174 0.0000 0.0000 0.0000
# 3 91.3599 23.2174 167.3654 0.0000 0.0000 0.0000
# 4 0.0000 0.0000 0.0000 14.0224 0.0000 0.0000
# 5 0.0000 0.0000 0.0000 0.0000 85.2890 0.0000
# 6 0.0000 0.0000 0.0000 0.0000 0.0000 21.2633
#
#
#
# Elastic Compliance Matrix: (Units=1/GPa)
#
#
# Indices 1 2 3 4 5 6 
#
# 1 0.008478 -0.000199 -0.004600 0.000000 0.000000 0.000000
# 2 -0.000199 0.110648 -0.015241 0.000000 0.000000 0.000000
# 3 -0.004600 -0.015241 0.010600 0.000000 0.000000 0.000000
# 4 0.000000 0.000000 0.000000 0.071315 0.000000 0.000000
# 5 0.000000 0.000000 0.000000 0.000000 0.011725 0.000000
# 6 0.000000 0.000000 0.000000 0.000000 0.000000 0.047029
#
#
# Mechanical properties :
#
#
# Convention : Reuss Voigt Hill
#
# Bulk Modulus (GPa) = 11.15502 66.93124 39.04313
# Shear Modulus (GPa) = 15.16268 38.78094 26.97181
#
# Velocity S-wave (km/s) = 2.78942 4.46102 3.72032
# Velocity P-wave (km/s) = 4.01232 7.80260 6.20400
#
# Compressibility (1/GPa) = 0.08964572
#
# Stress axis : x y z
#
# Youngs Moduli (GPa) = 117.95393 9.03769 94.33734
#
# Poissons Ratio (x) = 0.00180 0.43397
# Poissons Ratio (y) = 0.02352 1.43775
# Poissons Ratio (z) = 0.54261 0.13774
#
# Static dielectric constant tensor:
#      x y z
#    x 1.681660 0.000000 0.000000 
#    y 0.000000 1.689150 0.000000 
#    z 0.000000 0.000000 1.704590 
# 
# From -- ./inp_files/66401.got.cif
#   From: 2010.05.17/outbox.cif.g08.bks.cpg/sg65_34_cif.got.tgz:66401.got - 2010.06.03 17:01:31.
