data_PCOD9490115
_publ_section_title
;
Structure prediction by ZEFSAII (Michael W. Deem and Ramdas Pophale) SiO2 
 PCOD9490115
Probable space group: C M M M
;
_chemical_formula_sum "Si O2"
_cell_formula_units_Z 64
_cell_length_a 21.420692
_cell_length_b 18.164089
_cell_length_c 7.639768
_cell_angle_alpha 90.000000
_cell_angle_beta 90.000000
_cell_angle_gamma 90.000000
_cell_volume 2972.537131
_symmetry_space_group_name_H-M "C M M M"
_symmetry_group_IT_number 65
_symmetry_cell_setting 'orthorhombic'
loop_
_space_group_symop_operation_xyz
x,y,z
-x,-y,z
x,-y,-z
-x,y,-z
-x,-y,-z
x,y,-z
-x,y,z
x,-y,z
1/2+x,1/2+y,z
1/2-x,1/2-y,z
1/2+x,1/2-y,-z
1/2-x,1/2+y,-z
1/2-x,1/2-y,-z
1/2+x,1/2+y,-z
1/2-x,1/2+y,z
1/2+x,1/2-y,z
loop_
_atom_site_type_symbol
_atom_site_label
_atom_site_fract_x
_atom_site_fract_y
_atom_site_fract_z
Si Si1 0.000000 0.584912 0.285668
Si Si2 0.120805 0.675293 0.705062
Si Si3 0.000000 0.914139 0.785847
Si Si4 0.244586 0.414822 0.787617
Si Si5 0.372418 0.343429 0.203520
O O1 0.938179 0.628454 0.228074
O O2 0.000000 0.500000 0.228214
O O3 0.000000 0.583576 0.500000
O O4 0.110025 0.688343 0.500000
O O5 0.183834 0.629103 0.727558
O O6 0.127284 0.755460 0.788093
O O7 0.063181 0.875249 0.721442
O O8 0.000000 0.000000 0.741061
O O9 0.000000 0.908739 0.000000
O O10 0.242269 0.500000 0.733673
O O11 0.308363 0.376741 0.722661
O O12 0.243992 0.412529 0.000000
O O13 0.372184 0.366173 0.000000
#
# Coordination Sequence:
#
# PCOD9490115 Si02
#       5
#     8  16   8  16  16
#     4   9  19  36  55  75 102 137 176 218 264 311
#     4  11  22  36  56  80 107 141 180 220 264 317
#     4   9  17  32  57  85 108 137 182 227 264 310
#     4  10  21  37  56  79 108 141 177 219 267 316
#     4  10  20  35  56  81 110 142 176 218 267 316
#
# _framework density 21.530428000000001
#
# number of rings (size 3 to 8) (size 9 to 14) (size 15 to 20)
#    0.000    2.000    0.000    3.750    0.000    8.500 
#    0.000    1.875    0.000    7.500    0.000    0.000 
#    0.000    0.000    0.000    0.000    0.000    0.000 
#
# Total GULP energy -178880.349494 kJ/mol
# GULP energy per Si atom -5590.010922 kJ/mol
# Density = 2.148142 g / cm^3
# Si number density = 21.530428 Si / 1000 Ang^3
#
#
#
# Elastic Constant Matrix: (Units=GPa)
#
#
# Indices 1 2 3 4 5 6 
#
# 1 223.3708 92.0907 -9.2864 0.0000 0.0000 0.0000
# 2 92.0907 131.3615 -22.6096 0.0000 0.0000 0.0000
# 3 -9.2864 -22.6096 38.9607 0.0000 0.0000 0.0000
# 4 0.0000 0.0000 0.0000 -94.9798 0.0000 0.0000
# 5 0.0000 0.0000 0.0000 0.0000 8.4002 0.0000
# 6 0.0000 0.0000 0.0000 0.0000 0.0000 49.5069
#
#
#
# Elastic Compliance Matrix: (Units=1/GPa)
#
#
# Indices 1 2 3 4 5 6 
#
# 1 0.006346 -0.004653 -0.001188 0.000000 0.000000 0.000000
# 2 -0.004653 0.011869 0.005779 0.000000 0.000000 0.000000
# 3 -0.001188 0.005779 0.028737 0.000000 0.000000 0.000000
# 4 0.000000 0.000000 0.000000 -0.010529 0.000000 0.000000
# 5 0.000000 0.000000 0.000000 0.000000 0.119045 0.000000
# 6 0.000000 0.000000 0.000000 0.000000 0.000000 0.020199
#
#
# Mechanical properties :
#
#
# Convention : Reuss Voigt Hill
#
# Bulk Modulus (GPa) = 21.35456 57.12027 39.23742
# Shear Modulus (GPa) = 26.12302 14.81868 20.47085
#
# Velocity S-wave (km/s) = 3.48703 2.62633 3.08683
# Velocity P-wave (km/s) = 5.11394 5.98201 5.56493
#
# Compressibility (1/GPa) = 0.04682840
#
# Stress axis : x y z
#
# Youngs Moduli (GPa) = 157.58217 84.25054 34.79792
#
# Poissons Ratio (x) = 0.39204 0.04133
# Poissons Ratio (y) = 0.73326 -0.20109
# Poissons Ratio (z) = 0.18717 -0.48688
#
# Static dielectric constant tensor:
#      x y z
#    x 1.756940 0.000000 0.000000 
#    y 0.000000 1.710140 0.000000 
#    z 0.000000 0.000000 1.821430 
# 
# From -- ./inp_files/8815.got.cif
#   From: 2010.05.17/outbox.cif.g08.bks.cpg/sg65_5_cif.got.tgz:8815.got - 2010.06.03 17:01:31.
