data_PCOD9490569
_publ_section_title
;
Structure prediction by ZEFSAII (Michael W. Deem and Ramdas Pophale) SiO2 
 PCOD9490569
Probable space group: C M M M
;
_chemical_formula_sum "Si O2"
_cell_formula_units_Z 80
_cell_length_a 23.282897
_cell_length_b 9.414672
_cell_length_c 19.483237
_cell_angle_alpha 90.000000
_cell_angle_beta 90.000000
_cell_angle_gamma 90.000000
_cell_volume 4270.741886
_symmetry_space_group_name_H-M "C M M M"
_symmetry_group_IT_number 65
_symmetry_cell_setting 'orthorhombic'
loop_
_space_group_symop_operation_xyz
x,y,z
-x,-y,z
x,-y,-z
-x,y,-z
-x,-y,-z
x,y,-z
-x,y,z
x,-y,z
1/2+x,1/2+y,z
1/2-x,1/2-y,z
1/2+x,1/2-y,-z
1/2-x,1/2+y,-z
1/2-x,1/2-y,-z
1/2+x,1/2+y,-z
1/2-x,1/2+y,z
1/2+x,1/2-y,z
loop_
_atom_site_type_symbol
_atom_site_label
_atom_site_fract_x
_atom_site_fract_y
_atom_site_fract_z
Si Si1 0.691901 0.830701 0.581137
Si Si2 0.000000 0.825442 0.766562
Si Si3 0.869371 0.153147 0.077773
Si Si4 0.000000 0.233411 0.077131
Si Si5 0.602513 0.164602 0.306536
Si Si6 0.306678 0.159823 0.815384
O O1 0.684404 0.803676 0.500000
O O2 0.750000 0.750000 0.603642
O O3 0.634723 0.791753 0.623430
O O4 0.700262 0.000000 0.591190
O O5 0.000000 0.736079 0.839457
O O6 0.945151 0.771308 0.723082
O O7 0.000000 0.000000 0.777687
O O8 0.938412 0.158289 0.074412
O O9 0.844654 0.276242 0.123645
O O10 0.852512 0.000000 0.106973
O O11 0.847988 0.164430 0.000000
O O12 0.000000 0.312670 0.000000
O O13 0.653720 0.162355 0.251306
O O14 0.580920 0.000000 0.312409
O O15 0.250000 0.250000 0.805567
O O16 0.290385 0.000000 0.831883
#
# Coordination Sequence:
#
# PCOD9490569 Si02
#       6
#    16   8  16   8  16  16
#     4   9  18  35  61  90 118 152 192 233 279 331
#     4  12  23  36  61  89 113 149 192 235 284 339
#     4  10  20  36  58  81 107 140 180 229 281 334
#     4  10  20  36  60  87 112 142 187 241 291 338
#     4  10  22  39  57  82 118 151 183 230 283 337
#     4  11  23  37  55  78 108 144 182 226 279 336
#
# _framework density 18.732108
#
# number of rings (size 3 to 8) (size 9 to 14) (size 15 to 20)
#    0.000    1.800    2.000    2.400    0.000    4.600 
#    0.000    1.000    0.000    6.000    0.000    0.000 
#    0.000    0.000    0.000    0.000    0.000    0.000 
#
# Total GULP energy -222691.587497 kJ/mol
# GULP energy per Si atom -5567.289687 kJ/mol
# Density = 1.868947 g / cm^3
# Si number density = 18.732108 Si / 1000 Ang^3
#
#
#
# Elastic Constant Matrix: (Units=GPa)
#
#
# Indices 1 2 3 4 5 6 
#
# 1 92.1679 43.7122 36.8056 0.0000 0.0000 0.0000
# 2 43.7122 83.9802 29.6937 0.0000 0.0000 0.0000
# 3 36.8056 29.6937 83.7933 0.0000 0.0000 0.0000
# 4 0.0000 0.0000 0.0000 19.2082 0.0000 0.0000
# 5 0.0000 0.0000 0.0000 0.0000 142.3411 0.0000
# 6 0.0000 0.0000 0.0000 0.0000 0.0000 21.7427
#
#
#
# Elastic Compliance Matrix: (Units=1/GPa)
#
#
# Indices 1 2 3 4 5 6 
#
# 1 0.015824 -0.006607 -0.004609 0.000000 0.000000 0.000000
# 2 -0.006607 0.016372 -0.002900 0.000000 0.000000 0.000000
# 3 -0.004609 -0.002900 0.014986 0.000000 0.000000 0.000000
# 4 0.000000 0.000000 0.000000 0.052061 0.000000 0.000000
# 5 0.000000 0.000000 0.000000 0.000000 0.007025 0.000000
# 6 0.000000 0.000000 0.000000 0.000000 0.000000 0.045992
#
#
# Mechanical properties :
#
#
# Convention : Reuss Voigt Hill
#
# Bulk Modulus (GPa) = 52.76912 53.37383 53.07148
# Shear Modulus (GPa) = 26.76543 46.64041 36.70292
#
# Velocity S-wave (km/s) = 3.78412 4.99527 4.43127
# Velocity P-wave (km/s) = 6.87927 7.86291 7.38748
#
# Compressibility (1/GPa) = 0.01895048
#
# Stress axis : x y z
#
# Youngs Moduli (GPa) = 63.19644 61.08138 66.72777
#
# Poissons Ratio (x) = 0.40354 0.30757
# Poissons Ratio (y) = 0.41751 0.19349
# Poissons Ratio (z) = 0.29129 0.17712
#
# Static dielectric constant tensor:
#      x y z
#    x 1.624290 0.000000 0.000000 
#    y 0.000000 1.654600 0.000000 
#    z 0.000000 0.000000 1.686000 
# 
# From -- ./inp_files/57313.got.cif
#   From: 2010.05.17/outbox.cif.g08.bks.cpg/sg65_29_cif.got.tgz:57313.got - 2010.06.03 17:01:31.
