data_PCOD9490143
_publ_section_title
;
Structure prediction by ZEFSAII (Michael W. Deem and Ramdas Pophale) SiO2 
 PCOD9490143
Probable space group: C M M M
;
_chemical_formula_sum "Si O2"
_cell_formula_units_Z 88
_cell_length_a 26.993593
_cell_length_b 15.127546
_cell_length_c 11.383911
_cell_angle_alpha 90.000000
_cell_angle_beta 90.000000
_cell_angle_gamma 90.000000
_cell_volume 4648.583854
_symmetry_space_group_name_H-M "C M M M"
_symmetry_group_IT_number 65
_symmetry_cell_setting 'orthorhombic'
loop_
_space_group_symop_operation_xyz
x,y,z
-x,-y,z
x,-y,-z
-x,y,-z
-x,-y,-z
x,y,-z
-x,y,z
x,-y,z
1/2+x,1/2+y,z
1/2-x,1/2-y,z
1/2+x,1/2-y,-z
1/2-x,1/2+y,-z
1/2-x,1/2-y,-z
1/2+x,1/2+y,-z
1/2-x,1/2+y,z
1/2+x,1/2-y,z
loop_
_atom_site_type_symbol
_atom_site_label
_atom_site_fract_x
_atom_site_fract_y
_atom_site_fract_z
Si Si1 0.556736 0.211244 0.767826
Si Si2 0.922863 0.899399 0.135957
Si Si3 0.559555 0.899319 0.000000
Si Si4 0.747557 0.145602 0.632794
Si Si5 0.196263 0.897261 0.128052
Si Si6 0.365717 0.097541 0.360272
O O1 0.500000 0.186648 0.736964
O O2 0.558251 0.316133 0.790723
O O3 0.597491 0.174503 0.679330
O O4 0.571601 0.159200 0.886823
O O5 0.863229 0.891288 0.135239
O O6 0.935442 0.000000 0.174221
O O7 0.939420 0.890268 0.000000
O O8 0.500000 0.906626 0.000000
O O9 0.579493 0.000000 0.000000
O O10 0.759422 0.108734 0.500000
O O11 0.750000 0.250000 0.619026
O O12 0.781483 0.129354 0.746591
O O13 0.691897 0.115954 0.666075
O O14 0.209290 0.000000 0.119151
O O15 0.211000 0.855833 0.000000
O O16 0.368560 0.093462 0.500000
O O17 0.380053 0.000000 0.312465
#
# Coordination Sequence:
#
# PCOD9490143 Si02
#       6
#    16  16   8  16  16  16
#     4  11  21  35  56  80 108 144 187 238 289 336
#     4   9  18  34  56  83 116 150 185 228 281 347
#     4   9  18  32  49  73 104 135 170 220 279 327
#     4  10  20  35  56  82 113 148 186 232 285 341
#     4   9  18  33  53  78 109 144 182 224 272 333
#     4  10  22  39  57  79 110 150 196 240 282 337
#
# _framework density 18.930496999999999
#
# number of rings (size 3 to 8) (size 9 to 14) (size 15 to 20)
#    0.000    2.273    0.909    3.273    0.000    3.273 
#    1.636    1.818    0.000    1.636    0.000    1.273 
#    0.000    0.000    0.000    0.000    0.000    0.000 
#
# Total GULP energy -244937.023306 kJ/mol
# GULP energy per Si atom -5566.750530 kJ/mol
# Density = 1.888741 g / cm^3
# Si number density = 18.930497 Si / 1000 Ang^3
#
#
#
# Elastic Constant Matrix: (Units=GPa)
#
#
# Indices 1 2 3 4 5 6 
#
# 1 58.1927 20.9027 39.5848 0.0000 0.0000 0.0000
# 2 20.9027 105.5502 14.2688 0.0000 0.0000 0.0000
# 3 39.5848 14.2688 77.4983 0.0000 0.0000 0.0000
# 4 0.0000 0.0000 0.0000 25.8415 0.0000 0.0000
# 5 0.0000 0.0000 0.0000 0.0000 11.1468 0.0000
# 6 0.0000 0.0000 0.0000 0.0000 0.0000 21.9212
#
#
#
# Elastic Compliance Matrix: (Units=1/GPa)
#
#
# Indices 1 2 3 4 5 6 
#
# 1 0.027645 -0.003657 -0.013447 0.000000 0.000000 0.000000
# 2 -0.003657 0.010200 -0.000010 0.000000 0.000000 0.000000
# 3 -0.013447 -0.000010 0.019774 0.000000 0.000000 0.000000
# 4 0.000000 0.000000 0.000000 0.038697 0.000000 0.000000
# 5 0.000000 0.000000 0.000000 0.000000 0.089712 0.000000
# 6 0.000000 0.000000 0.000000 0.000000 0.000000 0.045618
#
#
# Mechanical properties :
#
#
# Convention : Reuss Voigt Hill
#
# Bulk Modulus (GPa) = 42.75275 43.41709 43.08492
# Shear Modulus (GPa) = 18.27004 22.88088 20.57546
#
# Velocity S-wave (km/s) = 3.10999 3.48038 3.30039
# Velocity P-wave (km/s) = 5.96064 6.25584 6.11002
#
# Compressibility (1/GPa) = 0.02339031
#
# Stress axis : x y z
#
# Youngs Moduli (GPa) = 36.17256 98.04194 50.57124
#
# Poissons Ratio (x) = 0.35853 0.68005
# Poissons Ratio (y) = 0.13228 0.00051
# Poissons Ratio (z) = 0.48643 0.00099
#
# Static dielectric constant tensor:
#      x y z
#    x 1.653550 0.000000 0.000000 
#    y 0.000000 1.689180 0.000000 
#    z 0.000000 0.000000 1.747640 
# 
# From -- ./inp_files/24826.got.cif
#   From: 2010.05.17/outbox.cif.g08.bks.cpg/sg65_13_cif.got.tgz:24826.got - 2010.06.03 17:01:31.
