data_PCOD9490675
_publ_section_title
;
Structure prediction by ZEFSAII (Michael W. Deem and Ramdas Pophale) SiO2 
 PCOD9490675
Probable space group: C M M M
;
_chemical_formula_sum "Si O2"
_cell_formula_units_Z 80
_cell_length_a 25.333096
_cell_length_b 18.817727
_cell_length_c 8.579277
_cell_angle_alpha 90.000000
_cell_angle_beta 90.000000
_cell_angle_gamma 90.000000
_cell_volume 4089.838160
_symmetry_space_group_name_H-M "C M M M"
_symmetry_group_IT_number 65
_symmetry_cell_setting 'orthorhombic'
loop_
_space_group_symop_operation_xyz
x,y,z
-x,-y,z
x,-y,-z
-x,y,-z
-x,-y,-z
x,y,-z
-x,y,z
x,-y,z
1/2+x,1/2+y,z
1/2-x,1/2-y,z
1/2+x,1/2-y,-z
1/2-x,1/2+y,-z
1/2-x,1/2-y,-z
1/2+x,1/2+y,-z
1/2-x,1/2+y,z
1/2+x,1/2-y,z
loop_
_atom_site_type_symbol
_atom_site_label
_atom_site_fract_x
_atom_site_fract_y
_atom_site_fract_z
Si Si1 0.500000 0.917605 0.813237
Si Si2 0.716403 0.180781 0.688718
Si Si3 0.594255 0.330612 0.183465
Si Si4 0.309400 0.418518 0.687737
Si Si5 0.500000 0.584269 0.320623
Si Si6 0.404705 0.822761 0.314092
O O1 0.552436 0.876484 0.755717
O O2 0.500000 0.000000 0.760796
O O3 0.500000 0.916402 0.000000
O O4 0.713125 0.188333 0.500000
O O5 0.750000 0.250000 0.743498
O O6 0.751408 0.111640 0.722874
O O7 0.656270 0.172227 0.744262
O O8 0.649389 0.363974 0.238397
O O9 0.550741 0.387459 0.231800
O O10 0.580536 0.257841 0.271003
O O11 0.594524 0.317497 0.000000
O O12 0.316514 0.416044 0.500000
O O13 0.317056 0.500000 0.738193
O O14 0.500000 0.500000 0.323766
O O15 0.500000 0.609880 0.500000
O O16 0.404805 0.832166 0.500000
#
# Coordination Sequence:
#
# PCOD9490675 Si02
#       6
#     8  16  16  16   8  16
#     4  11  26  47  66  91 133 173 206 257 324 383
#     4   9  17  34  61  91 121 154 201 261 315 363
#     4  12  24  38  58  86 123 160 198 244 303 372
#     4  10  20  36  59  87 120 159 203 253 310 367
#     4  11  24  41  60  81 109 151 202 251 300 355
#     4  11  22  40  69  96 121 158 211 264 306 360
#
# _framework density 19.560676999999998
#
# number of rings (size 3 to 8) (size 9 to 14) (size 15 to 20)
#    0.000    1.400    2.000    4.200    0.000    5.200 
#    0.000    5.000    0.000    0.000    0.000    0.000 
#    0.000    0.000    0.000    0.000    0.000    0.000 
#
# Total GULP energy -223435.553668 kJ/mol
# GULP energy per Si atom -5585.888842 kJ/mol
# Density = 1.951616 g / cm^3
# Si number density = 19.560677 Si / 1000 Ang^3
#
#
#
# Elastic Constant Matrix: (Units=GPa)
#
#
# Indices 1 2 3 4 5 6 
#
# 1 140.0583 59.0891 28.3177 0.0000 0.0000 0.0000
# 2 59.0891 124.5315 20.4402 0.0000 0.0000 0.0000
# 3 28.3177 20.4402 36.2798 0.0000 0.0000 0.0000
# 4 0.0000 0.0000 0.0000 18.5669 0.0000 0.0000
# 5 0.0000 0.0000 0.0000 0.0000 34.2727 0.0000
# 6 0.0000 0.0000 0.0000 0.0000 0.0000 -59.7129
#
#
#
# Elastic Compliance Matrix: (Units=1/GPa)
#
#
# Indices 1 2 3 4 5 6 
#
# 1 0.009853 -0.003761 -0.005572 0.000000 0.000000 0.000000
# 2 -0.003761 0.010284 -0.002859 0.000000 0.000000 0.000000
# 3 -0.005572 -0.002859 0.033523 0.000000 0.000000 0.000000
# 4 0.000000 0.000000 0.000000 0.053859 0.000000 0.000000
# 5 0.000000 0.000000 0.000000 0.000000 0.029178 0.000000
# 6 0.000000 0.000000 0.000000 0.000000 0.000000 -0.016747
#
#
# Mechanical properties :
#
#
# Convention : Reuss Voigt Hill
#
# Bulk Modulus (GPa) = 34.15569 57.39595 45.77582
# Shear Modulus (GPa) = 32.44827 11.49350 21.97088
#
# Velocity S-wave (km/s) = 4.07732 2.42664 3.35508
# Velocity P-wave (km/s) = 6.29804 6.10390 6.20173
#
# Compressibility (1/GPa) = 0.02927770
#
# Stress axis : x y z
#
# Youngs Moduli (GPa) = 101.49194 97.24150 29.83010
#
# Poissons Ratio (x) = 0.36569 0.16621
# Poissons Ratio (y) = 0.38167 0.08527
# Poissons Ratio (z) = 0.56550 0.27797
#
# Static dielectric constant tensor:
#      x y z
#    x 1.693350 0.000000 0.000000 
#    y 0.000000 1.669890 0.000000 
#    z 0.000000 0.000000 1.673230 
# 
# From -- ./inp_files/16088.got.cif
#   From: 2010.05.17/outbox.cif.g08.bks.cpg/sg65_9_cif.got.tgz:16088.got - 2010.06.03 17:01:31.
