data_PCOD9490038
_publ_section_title
;
Structure prediction by ZEFSAII (Michael W. Deem and Ramdas Pophale) SiO2 
 PCOD9490038
Probable space group: C M M M
;
_chemical_formula_sum "Si O2"
_cell_formula_units_Z 112
_cell_length_a 15.053660
_cell_length_b 15.848662
_cell_length_c 23.632837
_cell_angle_alpha 90.000000
_cell_angle_beta 90.000000
_cell_angle_gamma 90.000000
_cell_volume 5638.330977
_symmetry_space_group_name_H-M "C M M M"
_symmetry_group_IT_number 65
_symmetry_cell_setting 'orthorhombic'
loop_
_space_group_symop_operation_xyz
x,y,z
-x,-y,z
x,-y,-z
-x,y,-z
-x,-y,-z
x,y,-z
-x,y,z
x,-y,z
1/2+x,1/2+y,z
1/2-x,1/2-y,z
1/2+x,1/2-y,-z
1/2-x,1/2+y,-z
1/2-x,1/2-y,-z
1/2+x,1/2+y,-z
1/2-x,1/2+y,z
1/2+x,1/2-y,z
loop_
_atom_site_type_symbol
_atom_site_label
_atom_site_fract_x
_atom_site_fract_y
_atom_site_fract_z
Si Si1 0.895032 0.091282 0.877560
Si Si2 0.598832 0.602585 0.566263
Si Si3 0.896091 0.866972 0.751433
Si Si4 0.759168 0.903603 0.654669
Si Si5 0.896508 0.668301 0.275023
Si Si6 0.645948 0.236732 0.937722
Si Si7 0.893067 0.593661 0.154460
O O1 0.861918 0.111518 0.814311
O O2 0.885173 0.171685 0.917198
O O3 0.000000 0.083479 0.870345
O O4 0.860367 0.000000 0.897687
O O5 0.606475 0.623639 0.500000
O O6 0.500000 0.630549 0.586454
O O7 0.599076 0.500000 0.570525
O O8 0.682389 0.632474 0.602821
O O9 0.831177 0.905240 0.705259
O O10 0.893520 0.766372 0.742040
O O11 0.000000 0.893225 0.745241
O O12 0.673501 0.852577 0.675915
O O13 0.731658 0.000000 0.642050
O O14 0.867506 0.618076 0.218444
O O15 0.000000 0.647485 0.288339
O O16 0.750000 0.250000 0.942105
O O17 0.630364 0.165174 0.890887
O O18 0.609862 0.214435 0.000000
O O19 0.859840 0.500000 0.139794
O O20 0.000000 0.591603 0.155229
#
# Coordination Sequence:
#
# PCOD9490038 Si02
#       7
#    16  16  16  16  16  16  16
#     4  10  21  38  60  84 111 145 184 230 289 357
#     4   8  15  30  52  80 118 159 197 242 293 344
#     4  10  20  35  55  81 114 147 184 233 288 350
#     4  11  21  31  53  87 116 148 189 239 294 348
#     4  10  21  37  55  78 113 155 195 237 290 351
#     4  11  25  41  58  82 113 148 184 232 291 354
#     4  10  21  39  62  83 105 141 193 247 293 340
#
# _framework density 19.864034
#
# number of rings (size 3 to 8) (size 9 to 14) (size 15 to 20)
#    0.000    2.000    1.429    2.571    2.000    4.571 
#    0.000    2.857    0.000    2.143    0.000    4.000 
#    0.000    0.000    0.000    0.000    0.000    0.000 
#
# Total GULP energy -312496.969065 kJ/mol
# GULP energy per Si atom -5580.303019 kJ/mol
# Density = 1.981882 g / cm^3
# Si number density = 19.864034 Si / 1000 Ang^3
#
#
#
# Elastic Constant Matrix: (Units=GPa)
#
#
# Indices 1 2 3 4 5 6 
#
# 1 86.8763 30.0620 44.6168 0.0000 0.0000 0.0000
# 2 30.0620 100.5752 27.2351 0.0000 0.0000 0.0000
# 3 44.6168 27.2351 88.1253 0.0000 0.0000 0.0000
# 4 0.0000 0.0000 0.0000 17.9237 0.0000 0.0000
# 5 0.0000 0.0000 0.0000 0.0000 32.9346 0.0000
# 6 0.0000 0.0000 0.0000 0.0000 0.0000 10.0091
#
#
#
# Elastic Compliance Matrix: (Units=1/GPa)
#
#
# Indices 1 2 3 4 5 6 
#
# 1 0.016283 -0.002875 -0.007355 0.000000 0.000000 0.000000
# 2 -0.002875 0.011359 -0.002055 0.000000 0.000000 0.000000
# 3 -0.007355 -0.002055 0.015706 0.000000 0.000000 0.000000
# 4 0.000000 0.000000 0.000000 0.055792 0.000000 0.000000
# 5 0.000000 0.000000 0.000000 0.000000 0.030363 0.000000
# 6 0.000000 0.000000 0.000000 0.000000 0.000000 0.099909
#
#
# Mechanical properties :
#
#
# Convention : Reuss Voigt Hill
#
# Bulk Modulus (GPa) = 53.25504 53.26717 53.26110
# Shear Modulus (GPa) = 19.21292 23.75102 21.48197
#
# Velocity S-wave (km/s) = 3.11339 3.46161 3.29211
# Velocity P-wave (km/s) = 6.30811 6.54608 6.42819
#
# Compressibility (1/GPa) = 0.01877757
#
# Stress axis : x y z
#
# Youngs Moduli (GPa) = 61.41392 88.03890 63.66849
#
# Poissons Ratio (x) = 0.25313 0.46830
# Poissons Ratio (y) = 0.17658 0.13082
# Poissons Ratio (z) = 0.45172 0.18089
#
# Static dielectric constant tensor:
#      x y z
#    x 1.705720 0.000000 0.000000 
#    y 0.000000 1.699740 0.000000 
#    z 0.000000 0.000000 1.718560 
# 
# From -- ./inp_files/69967.got.cif
#   From: 2010.05.17/outbox.cif.g08.bks.cpg/sg65_35_cif.got.tgz:69967.got - 2010.06.03 17:01:31.
