data_PCOD9490103
_publ_section_title
;
Structure prediction by ZEFSAII (Michael W. Deem and Ramdas Pophale) SiO2 
 PCOD9490103
Probable space group: C M M M
;
_chemical_formula_sum "Si O2"
_cell_formula_units_Z 72
_cell_length_a 19.284344
_cell_length_b 8.735271
_cell_length_c 24.147927
_cell_angle_alpha 90.000000
_cell_angle_beta 90.000000
_cell_angle_gamma 90.000000
_cell_volume 4067.814192
_symmetry_space_group_name_H-M "C M M M"
_symmetry_group_IT_number 65
_symmetry_cell_setting 'orthorhombic'
loop_
_space_group_symop_operation_xyz
x,y,z
-x,-y,z
x,-y,-z
-x,y,-z
-x,-y,-z
x,y,-z
-x,y,z
x,-y,z
1/2+x,1/2+y,z
1/2-x,1/2-y,z
1/2+x,1/2-y,-z
1/2-x,1/2+y,-z
1/2-x,1/2-y,-z
1/2+x,1/2+y,-z
1/2-x,1/2+y,z
1/2+x,1/2-y,z
loop_
_atom_site_type_symbol
_atom_site_label
_atom_site_fract_x
_atom_site_fract_y
_atom_site_fract_z
Si Si1 0.418773 0.817966 0.902077
Si Si2 0.172828 0.181821 0.000000
Si Si3 0.579916 0.687036 0.664354
Si Si4 0.672933 0.684915 0.438179
Si Si5 0.915807 0.823394 0.214287
O O1 0.500000 0.772117 0.909432
O O2 0.370203 0.737908 0.946655
O O3 0.397366 0.772833 0.839685
O O4 0.414976 0.000000 0.909391
O O5 0.250000 0.250000 0.000000
O O6 0.177254 0.000000 0.000000
O O7 0.500000 0.735502 0.658047
O O8 0.579858 0.500000 0.665441
O O9 0.625055 0.737675 0.612308
O O10 0.607141 0.734224 0.725173
O O11 0.647399 0.727625 0.500000
O O12 0.675748 0.500000 0.436199
O O13 0.750000 0.750000 0.432075
O O14 0.000000 0.824128 0.217458
O O15 0.893733 0.000000 0.206670
#
# Coordination Sequence:
#
# PCOD9490103 Si02
#       5
#    16   8  16  16  16
#     4  10  20  35  56  81 107 134 168 207 244 289
#     4  12  25  40  57  77 105 137 169 206 251 298
#     4   8  14  26  46  71  95 120 157 205 248 284
#     4   9  17  29  45  65  91 124 160 198 242 292
#     4   8  14  27  48  72  97 126 161 201 245 291
#
# _framework density 17.699922999999998
#
# number of rings (size 3 to 8) (size 9 to 14) (size 15 to 20)
#    0.000    2.889    0.000    3.333    0.000    3.111 
#    0.000    4.444    0.000    4.667    0.000    3.111 
#    0.000    0.000    0.000    0.000    0.000    0.000 
#
# Total GULP energy -200602.583267 kJ/mol
# GULP energy per Si atom -5572.293980 kJ/mol
# Density = 1.765964 g / cm^3
# Si number density = 17.699923 Si / 1000 Ang^3
#
#
#
# Elastic Constant Matrix: (Units=GPa)
#
#
# Indices 1 2 3 4 5 6 
#
# 1 71.3519 32.5397 85.5418 0.0000 0.0000 0.0000
# 2 32.5397 42.3579 47.8656 0.0000 0.0000 0.0000
# 3 85.5418 47.8656 193.2298 0.0000 0.0000 0.0000
# 4 0.0000 0.0000 0.0000 13.7353 0.0000 0.0000
# 5 0.0000 0.0000 0.0000 0.0000 -14.3902 0.0000
# 6 0.0000 0.0000 0.0000 0.0000 0.0000 20.0877
#
#
#
# Elastic Compliance Matrix: (Units=1/GPa)
#
#
# Indices 1 2 3 4 5 6 
#
# 1 0.034177 -0.012718 -0.011980 0.000000 0.000000 0.000000
# 2 -0.012718 0.037518 -0.003664 0.000000 0.000000 0.000000
# 3 -0.011980 -0.003664 0.011386 0.000000 0.000000 0.000000
# 4 0.000000 0.000000 0.000000 0.072805 0.000000 0.000000
# 5 0.000000 0.000000 0.000000 0.000000 -0.069492 0.000000
# 6 0.000000 0.000000 0.000000 0.000000 0.000000 0.049782
#
#
# Mechanical properties :
#
#
# Convention : Reuss Voigt Hill
#
# Bulk Modulus (GPa) = 37.93743 70.98153 54.45948
# Shear Modulus (GPa) = 24.79118 13.28606 19.03862
#
# Velocity S-wave (km/s) = 3.74657 2.74273 3.28324
# Velocity P-wave (km/s) = 6.34002 7.08660 6.72368
#
# Compressibility (1/GPa) = 0.02635919
#
# Stress axis : x y z
#
# Youngs Moduli (GPa) = 29.25959 26.65363 87.82706
#
# Poissons Ratio (x) = 0.33897 1.05213
# Poissons Ratio (y) = 0.37212 0.32177
# Poissons Ratio (z) = 0.35052 0.09765
#
# Static dielectric constant tensor:
#      x y z
#    x 1.575560 0.000000 0.000000 
#    y 0.000000 1.597420 0.000000 
#    z 0.000000 0.000000 1.631110 
# 
# From -- ./inp_files/67138.got.cif
#   From: 2010.05.17/outbox.cif.g08.bks.cpg/sg65_34_cif.got.tgz:67138.got - 2010.06.03 17:01:31.
