data_PCOD9490820
_publ_section_title
;
Structure prediction by ZEFSAII (Michael W. Deem and Ramdas Pophale) SiO2 
 PCOD9490820
Probable space group: C M M M
;
_chemical_formula_sum "Si O2"
_cell_formula_units_Z 88
_cell_length_a 22.631271
_cell_length_b 9.737501
_cell_length_c 21.839656
_cell_angle_alpha 90.000000
_cell_angle_beta 90.000000
_cell_angle_gamma 90.000000
_cell_volume 4812.849196
_symmetry_space_group_name_H-M "C M M M"
_symmetry_group_IT_number 65
_symmetry_cell_setting 'orthorhombic'
loop_
_space_group_symop_operation_xyz
x,y,z
-x,-y,z
x,-y,-z
-x,y,-z
-x,-y,-z
x,y,-z
-x,y,z
x,-y,z
1/2+x,1/2+y,z
1/2-x,1/2-y,z
1/2+x,1/2-y,-z
1/2-x,1/2+y,-z
1/2-x,1/2-y,-z
1/2+x,1/2+y,-z
1/2-x,1/2+y,z
1/2+x,1/2-y,z
loop_
_atom_site_type_symbol
_atom_site_label
_atom_site_fract_x
_atom_site_fract_y
_atom_site_fract_z
Si Si1 0.797739 0.500000 0.425155
Si Si2 0.500000 0.667711 0.185630
Si Si3 0.000000 0.654997 0.690667
Si Si4 0.877099 0.835090 0.124651
Si Si5 0.377315 0.233190 0.363221
Si Si6 0.691510 0.664421 0.752875
Si Si7 0.187912 0.831412 0.000000
Si Si8 0.658903 0.500000 0.572106
O O1 0.801919 0.500000 0.500000
O O2 0.831689 0.628654 0.395257
O O3 0.728205 0.500000 0.407277
O O4 0.500000 0.500000 0.193178
O O5 0.500000 0.738693 0.252354
O O6 0.558180 0.709834 0.147260
O O7 0.058050 0.674188 0.649059
O O8 0.000000 0.500000 0.715912
O O9 0.832362 0.802928 0.179610
O O10 0.849976 0.791243 0.060065
O O11 0.881215 0.000000 0.120841
O O12 0.354553 0.283210 0.297138
O O13 0.375025 0.367687 0.404364
O O14 0.699517 0.500000 0.747622
O O15 0.750000 0.750000 0.741295
O O16 0.250000 0.750000 0.000000
O O17 0.196638 0.000000 0.000000
O O18 0.661785 0.500000 0.500000
#
# Coordination Sequence:
#
# PCOD9490820 Si02
#       8
#     8   8   8  16  16  16   8   8
#     4  11  24  45  69  93 129 165 199 254 313 377
#     4  10  20  39  64  87 119 160 204 259 314 362
#     4  12  26  44  62  90 128 166 207 261 316 372
#     4   9  19  35  58  90 121 160 208 252 304 361
#     4  12  24  41  64  93 123 163 210 254 311 371
#     4  11  22  36  58  91 125 157 205 262 313 365
#     4  10  20  37  59  87 127 166 205 248 304 367
#     4  11  24  43  67  97 125 159 205 254 311 375
#
# _framework density 18.284388
#
# number of rings (size 3 to 8) (size 9 to 14) (size 15 to 20)
#    0.000    1.273    3.636    2.727    2.545    1.818 
#    0.000    5.455    0.000    0.000    0.000    1.273 
#    0.000    0.000    0.000    0.000    0.000    0.000 
#
# Total GULP energy -245593.949407 kJ/mol
# GULP energy per Si atom -5581.680668 kJ/mol
# Density = 1.824277 g / cm^3
# Si number density = 18.284388 Si / 1000 Ang^3
#
#
#
# Elastic Constant Matrix: (Units=GPa)
#
#
# Indices 1 2 3 4 5 6 
#
# 1 100.6482 18.6009 26.0831 0.0000 0.0000 0.0000
# 2 18.6009 78.5001 20.9687 0.0000 0.0000 0.0000
# 3 26.0831 20.9687 106.1459 0.0000 0.0000 0.0000
# 4 0.0000 0.0000 0.0000 28.3184 0.0000 0.0000
# 5 0.0000 0.0000 0.0000 0.0000 24.9378 0.0000
# 6 0.0000 0.0000 0.0000 0.0000 0.0000 25.2052
#
#
#
# Elastic Compliance Matrix: (Units=1/GPa)
#
#
# Indices 1 2 3 4 5 6 
#
# 1 0.010892 -0.001970 -0.002287 0.000000 0.000000 0.000000
# 2 -0.001970 0.013805 -0.002243 0.000000 0.000000 0.000000
# 3 -0.002287 -0.002243 0.010426 0.000000 0.000000 0.000000
# 4 0.000000 0.000000 0.000000 0.035313 0.000000 0.000000
# 5 0.000000 0.000000 0.000000 0.000000 0.040100 0.000000
# 6 0.000000 0.000000 0.000000 0.000000 0.000000 0.039674
#
#
# Mechanical properties :
#
#
# Convention : Reuss Voigt Hill
#
# Bulk Modulus (GPa) = 45.20269 46.28885 45.74577
# Shear Modulus (GPa) = 29.31084 30.33504 29.82294
#
# Velocity S-wave (km/s) = 4.00816 4.07758 4.04302
# Velocity P-wave (km/s) = 6.79677 6.89492 6.84602
#
# Compressibility (1/GPa) = 0.02212258
#
# Stress axis : x y z
#
# Youngs Moduli (GPa) = 91.80656 72.43874 95.91241
#
# Poissons Ratio (x) = 0.14270 0.21939
# Poissons Ratio (y) = 0.18086 0.21513
# Poissons Ratio (z) = 0.21000 0.16248
#
# Static dielectric constant tensor:
#      x y z
#    x 1.632970 0.000000 0.000000 
#    y 0.000000 1.635540 0.000000 
#    z 0.000000 0.000000 1.630150 
# 
# From -- ./inp_files/65288.got.cif
#   From: 2010.05.17/outbox.cif.g08.bks.cpg/sg65_33_cif.got.tgz:65288.got - 2010.06.03 17:01:31.
