data_PCOD9490309
_publ_section_title
;
Structure prediction by ZEFSAII (Michael W. Deem and Ramdas Pophale) SiO2 
 PCOD9490309
Probable space group: C M M M
;
_chemical_formula_sum "Si O2"
_cell_formula_units_Z 72
_cell_length_a 18.749400
_cell_length_b 8.826865
_cell_length_c 24.129702
_cell_angle_alpha 90.000000
_cell_angle_beta 90.000000
_cell_angle_gamma 90.000000
_cell_volume 3993.427620
_symmetry_space_group_name_H-M "C M M M"
_symmetry_group_IT_number 65
_symmetry_cell_setting 'orthorhombic'
loop_
_space_group_symop_operation_xyz
x,y,z
-x,-y,z
x,-y,-z
-x,y,-z
-x,-y,-z
x,y,-z
-x,y,z
x,-y,z
1/2+x,1/2+y,z
1/2-x,1/2-y,z
1/2+x,1/2-y,-z
1/2-x,1/2+y,-z
1/2-x,1/2-y,-z
1/2+x,1/2+y,-z
1/2-x,1/2+y,z
1/2+x,1/2-y,z
loop_
_atom_site_type_symbol
_atom_site_label
_atom_site_fract_x
_atom_site_fract_y
_atom_site_fract_z
Si Si1 0.170305 0.681533 0.101697
Si Si2 0.914856 0.320123 0.437011
Si Si3 0.329675 0.818903 0.774930
Si Si4 0.170750 0.179791 0.336961
Si Si5 0.583828 0.318828 0.000000
O O1 0.175134 0.500000 0.095962
O O2 0.250000 0.750000 0.097247
O O3 0.140790 0.714586 0.163754
O O4 0.121724 0.750367 0.054002
O O5 0.893904 0.278298 0.500000
O O6 0.900775 0.500000 0.430068
O O7 0.874132 0.228721 0.390164
O O8 0.000000 0.298677 0.432364
O O9 0.250000 0.750000 0.776519
O O10 0.362850 0.746458 0.719919
O O11 0.326283 0.000000 0.768348
O O12 0.250000 0.250000 0.342325
O O13 0.176360 0.000000 0.332398
O O14 0.592581 0.500000 0.000000
O O15 0.500000 0.283011 0.000000
#
# Coordination Sequence:
#
# PCOD9490309 Si02
#       5
#    16  16  16  16   8
#     4  10  20  35  58  83 106 136 175 217 258 308
#     4   9  19  37  58  77 101 136 176 218 264 313
#     4   9  17  31  52  78 106 136 171 213 260 307
#     4  11  21  33  53  80 110 141 173 214 261 309
#     4  11  24  39  54  75 107 143 176 217 266 309
#
# _framework density 18.029624999999999
#
# number of rings (size 3 to 8) (size 9 to 14) (size 15 to 20)
#    0.000    2.111    0.000    6.000    0.000    4.889 
#    0.000    2.222    0.000    1.333    0.000    0.000 
#    0.000    0.000    0.000    0.000    0.000    0.000 
#
# Total GULP energy -200852.936479 kJ/mol
# GULP energy per Si atom -5579.248236 kJ/mol
# Density = 1.798859 g / cm^3
# Si number density = 18.029625 Si / 1000 Ang^3
#
#
#
# Elastic Constant Matrix: (Units=GPa)
#
#
# Indices 1 2 3 4 5 6 
#
# 1 46.1593 44.4500 63.7613 0.0000 0.0000 0.0000
# 2 44.4500 110.8304 95.3598 0.0000 0.0000 0.0000
# 3 63.7613 95.3598 199.1085 0.0000 0.0000 0.0000
# 4 0.0000 0.0000 0.0000 208.9129 0.0000 0.0000
# 5 0.0000 0.0000 0.0000 0.0000 -0.9207 0.0000
# 6 0.0000 0.0000 0.0000 0.0000 0.0000 22.2110
#
#
#
# Elastic Compliance Matrix: (Units=1/GPa)
#
#
# Indices 1 2 3 4 5 6 
#
# 1 0.043917 -0.009377 -0.009573 0.000000 0.000000 0.000000
# 2 -0.009377 0.017349 -0.005306 0.000000 0.000000 0.000000
# 3 -0.009573 -0.005306 0.010629 0.000000 0.000000 0.000000
# 4 0.000000 0.000000 0.000000 0.004787 0.000000 0.000000
# 5 0.000000 0.000000 0.000000 0.000000 -1.086171 0.000000
# 6 0.000000 0.000000 0.000000 0.000000 0.000000 0.045023
#
#
# Mechanical properties :
#
#
# Convention : Reuss Voigt Hill
#
# Bulk Modulus (GPa) = 42.76539 84.80447 63.78493
# Shear Modulus (GPa) = -5.50564 56.20912 25.35174
#
# Velocity S-wave (km/s) = -1.74937 5.58960 3.75389
# Velocity P-wave (km/s) = 4.43741 9.42319 7.36502
#
# Compressibility (1/GPa) = 0.02338340
#
# Stress axis : x y z
#
# Youngs Moduli (GPa) = 22.77022 57.63984 94.08009
#
# Poissons Ratio (x) = 0.54049 0.90061
# Poissons Ratio (y) = 0.21352 0.49921
# Poissons Ratio (z) = 0.21797 0.30585
#
# Static dielectric constant tensor:
#      x y z
#    x 1.586560 0.000000 0.000000 
#    y 0.000000 1.598010 0.000000 
#    z 0.000000 0.000000 1.653980 
# 
# From -- ./inp_files/70300.got.cif
#   From: 2010.05.17/outbox.cif.g08.bks.cpg/sg65_36_cif.got.tgz:70300.got - 2010.06.03 17:01:31.
