data_PCOD9490316
_publ_section_title
;
Structure prediction by ZEFSAII (Michael W. Deem and Ramdas Pophale) SiO2 
 PCOD9490316
Probable space group: C M M M
;
_chemical_formula_sum "Si O2"
_cell_formula_units_Z 88
_cell_length_a 8.726924
_cell_length_b 18.856888
_cell_length_c 29.245924
_cell_angle_alpha 90.000000
_cell_angle_beta 90.000000
_cell_angle_gamma 90.000000
_cell_volume 4812.786125
_symmetry_space_group_name_H-M "C M M M"
_symmetry_group_IT_number 65
_symmetry_cell_setting 'orthorhombic'
loop_
_space_group_symop_operation_xyz
x,y,z
-x,-y,z
x,-y,-z
-x,y,-z
-x,-y,-z
x,y,-z
-x,y,z
x,-y,z
1/2+x,1/2+y,z
1/2-x,1/2-y,z
1/2+x,1/2-y,-z
1/2-x,1/2+y,-z
1/2-x,1/2-y,-z
1/2+x,1/2+y,-z
1/2-x,1/2+y,z
1/2+x,1/2-y,z
loop_
_atom_site_type_symbol
_atom_site_label
_atom_site_fract_x
_atom_site_fract_y
_atom_site_fract_z
Si Si1 0.683408 0.671699 0.447424
Si Si2 0.183855 0.916143 0.000000
Si Si3 0.816677 0.330196 0.085295
Si Si4 0.316608 0.917540 0.634949
Si Si5 0.316568 0.670433 0.281084
Si Si6 0.683649 0.670266 0.820336
O O1 0.722386 0.652864 0.500000
O O2 0.500000 0.674067 0.443340
O O3 0.750000 0.750000 0.438513
O O4 0.751379 0.618217 0.410728
O O5 0.253645 0.877739 0.955708
O O6 0.000000 0.907307 0.000000
O O7 0.218251 0.000000 0.000000
O O8 0.750000 0.250000 0.080757
O O9 0.759411 0.360747 0.134139
O O10 0.000000 0.326342 0.084466
O O11 0.500000 0.911480 0.634834
O O12 0.251071 0.876699 0.678750
O O13 0.273968 0.000000 0.636792
O O14 0.500000 0.674594 0.285156
O O15 0.250000 0.750000 0.284521
O O16 0.281216 0.640534 0.230111
O O17 0.500000 0.672236 0.826019
O O18 0.750000 0.750000 0.818555
#
# Coordination Sequence:
#
# PCOD9490316 Si02
#       6
#    16   8  16  16  16  16
#     4  10  21  38  61  86 111 141 179 224 272 324
#     4  11  24  41  58  77 107 145 184 227 274 325
#     4  11  21  35  58  85 113 143 180 225 271 323
#     4  11  24  39  55  78 111 149 186 226 272 322
#     4  10  20  35  58  84 111 144 182 226 271 321
#     4   9  17  31  53  82 111 140 178 223 272 320
#
# _framework density 18.284628000000001
#
# number of rings (size 3 to 8) (size 9 to 14) (size 15 to 20)
#    0.000    1.727    0.000    6.000    0.000    5.818 
#    0.000    2.727    0.000    1.091    0.000    0.000 
#    0.000    0.000    0.000    0.000    0.000    0.000 
#
# Total GULP energy -245715.823827 kJ/mol
# GULP energy per Si atom -5584.450542 kJ/mol
# Density = 1.824301 g / cm^3
# Si number density = 18.284628 Si / 1000 Ang^3
#
#
#
# Elastic Constant Matrix: (Units=GPa)
#
#
# Indices 1 2 3 4 5 6 
#
# 1 102.2970 60.6534 80.0943 0.0000 0.0000 0.0000
# 2 60.6534 99.2293 106.4285 0.0000 0.0000 0.0000
# 3 80.0943 106.4285 192.8858 0.0000 0.0000 0.0000
# 4 0.0000 0.0000 0.0000 -12.7780 0.0000 0.0000
# 5 0.0000 0.0000 0.0000 0.0000 39.5111 0.0000
# 6 0.0000 0.0000 0.0000 0.0000 0.0000 24.5121
#
#
#
# Elastic Compliance Matrix: (Units=1/GPa)
#
#
# Indices 1 2 3 4 5 6 
#
# 1 0.016039 -0.006517 -0.003064 0.000000 0.000000 0.000000
# 2 -0.006517 0.027337 -0.012377 0.000000 0.000000 0.000000
# 3 -0.003064 -0.012377 0.013286 0.000000 0.000000 0.000000
# 4 0.000000 0.000000 0.000000 -0.078260 0.000000 0.000000
# 5 0.000000 0.000000 0.000000 0.000000 0.025309 0.000000
# 6 0.000000 0.000000 0.000000 0.000000 0.000000 0.040796
#
#
# Mechanical properties :
#
#
# Convention : Reuss Voigt Hill
#
# Bulk Modulus (GPa) = 78.46622 98.75161 88.60891
# Shear Modulus (GPa) = 53.95395 20.06478 37.00937
#
# Velocity S-wave (km/s) = 5.43800 3.31623 4.50385
# Velocity P-wave (km/s) = 9.07943 8.29388 8.69553
#
# Compressibility (1/GPa) = 0.01274434
#
# Stress axis : x y z
#
# Youngs Moduli (GPa) = 62.34985 36.58106 75.26754
#
# Poissons Ratio (x) = 0.23842 0.23060
# Poissons Ratio (y) = 0.40636 0.93160
# Poissons Ratio (z) = 0.19102 0.45277
#
# Static dielectric constant tensor:
#      x y z
#    x 1.606390 0.000000 0.000000 
#    y 0.000000 1.583490 0.000000 
#    z 0.000000 0.000000 1.651890 
# 
# From -- ./inp_files/76543.got.cif
#   From: 2010.05.17/outbox.cif.g08.bks.cpg/sg65_39_cif.got.tgz:76543.got - 2010.06.03 17:01:31.
