data_PCOD9490718
_publ_section_title
;
Structure prediction by ZEFSAII (Michael W. Deem and Ramdas Pophale) SiO2 
 PCOD9490718
Probable space group: C M M M
;
_chemical_formula_sum "Si O2"
_cell_formula_units_Z 72
_cell_length_a 15.571809
_cell_length_b 13.964639
_cell_length_c 16.135935
_cell_angle_alpha 90.000000
_cell_angle_beta 90.000000
_cell_angle_gamma 90.000000
_cell_volume 3508.834764
_symmetry_space_group_name_H-M "C M M M"
_symmetry_group_IT_number 65
_symmetry_cell_setting 'orthorhombic'
loop_
_space_group_symop_operation_xyz
x,y,z
-x,-y,z
x,-y,-z
-x,y,-z
-x,-y,-z
x,y,-z
-x,y,z
x,-y,z
1/2+x,1/2+y,z
1/2-x,1/2-y,z
1/2+x,1/2-y,-z
1/2-x,1/2+y,-z
1/2-x,1/2-y,-z
1/2+x,1/2+y,-z
1/2-x,1/2+y,z
1/2+x,1/2-y,z
loop_
_atom_site_type_symbol
_atom_site_label
_atom_site_fract_x
_atom_site_fract_y
_atom_site_fract_z
Si Si1 0.103208 0.388850 0.000000
Si Si2 0.903269 0.384486 0.666449
Si Si3 0.848999 0.279470 0.833080
Si Si4 0.224142 0.883630 0.591394
Si Si5 0.097021 0.890055 0.261961
O O1 0.133794 0.332786 0.918579
O O2 0.132382 0.500000 0.000000
O O3 0.000000 0.389441 0.000000
O O4 0.904519 0.500000 0.666971
O O5 0.880102 0.347173 0.758014
O O6 0.822807 0.355825 0.609208
O O7 0.000000 0.351946 0.643651
O O8 0.750000 0.250000 0.826135
O O9 0.897202 0.179496 0.816315
O O10 0.196912 0.851814 0.500000
O O11 0.162552 0.855195 0.667094
O O12 0.221298 0.000000 0.591536
O O13 0.000000 0.887794 0.294895
O O14 0.118292 0.000000 0.240890
#
# Coordination Sequence:
#
# PCOD9490718 Si02
#       5
#     8  16  16  16  16
#     4  11  25  44  67  97 127 153 194 250 303 364
#     4  10  20  36  60  88 121 162 206 255 313 372
#     4  12  23  40  64  90 122 161 200 246 303 363
#     4   9  18  34  57  87 122 161 209 262 311 360
#     4  10  21  38  60  86 121 167 212 253 300 358
#
# _framework density 20.519632000000001
#
# number of rings (size 3 to 8) (size 9 to 14) (size 15 to 20)
#    0.000    1.667    2.222    3.000    0.000    3.556 
#    0.000    7.222    0.000    4.667    0.000    0.000 
#    0.000    0.000    0.000    0.000    0.000    0.000 
#
# Total GULP energy -201071.925025 kJ/mol
# GULP energy per Si atom -5585.331251 kJ/mol
# Density = 2.047293 g / cm^3
# Si number density = 20.519632 Si / 1000 Ang^3
#
#
#
# Elastic Constant Matrix: (Units=GPa)
#
#
# Indices 1 2 3 4 5 6 
#
# 1 121.7698 18.7590 24.6732 0.0000 0.0000 0.0000
# 2 18.7590 107.8831 44.1355 0.0000 0.0000 0.0000
# 3 24.6732 44.1355 103.8467 0.0000 0.0000 0.0000
# 4 0.0000 0.0000 0.0000 20.5997 0.0000 0.0000
# 5 0.0000 0.0000 0.0000 0.0000 13.2249 0.0000
# 6 0.0000 0.0000 0.0000 0.0000 0.0000 23.2568
#
#
#
# Elastic Compliance Matrix: (Units=1/GPa)
#
#
# Indices 1 2 3 4 5 6 
#
# 1 0.008685 -0.000806 -0.001721 0.000000 0.000000 0.000000
# 2 -0.000806 0.011295 -0.004609 0.000000 0.000000 0.000000
# 3 -0.001721 -0.004609 0.011997 0.000000 0.000000 0.000000
# 4 0.000000 0.000000 0.000000 0.048544 0.000000 0.000000
# 5 0.000000 0.000000 0.000000 0.000000 0.075615 0.000000
# 6 0.000000 0.000000 0.000000 0.000000 0.000000 0.042998
#
#
# Mechanical properties :
#
#
# Convention : Reuss Voigt Hill
#
# Bulk Modulus (GPa) = 56.47980 56.51498 56.49739
# Shear Modulus (GPa) = 22.79890 27.81173 25.30531
#
# Velocity S-wave (km/s) = 3.33690 3.68553 3.51554
# Velocity P-wave (km/s) = 6.51391 6.76111 6.63866
#
# Compressibility (1/GPa) = 0.01770544
#
# Stress axis : x y z
#
# Youngs Moduli (GPa) = 115.13973 88.53478 83.35230
#
# Poissons Ratio (x) = 0.07137 0.14344
# Poissons Ratio (y) = 0.09282 0.38416
# Poissons Ratio (z) = 0.19814 0.40805
#
# Static dielectric constant tensor:
#      x y z
#    x 1.756190 0.000000 0.000000 
#    y 0.000000 1.781320 0.000000 
#    z 0.000000 0.000000 1.679680 
# 
# From -- ./inp_files/52745.got.cif
#   From: 2010.05.17/outbox.cif.g08.bks.cpg/sg65_27_cif.got.tgz:52745.got - 2010.06.03 17:01:31.
