data_PCOD9490455
_publ_section_title
;
Structure prediction by ZEFSAII (Michael W. Deem and Ramdas Pophale) SiO2 
 PCOD9490455
Probable space group: C M M M
;
_chemical_formula_sum "Si O2"
_cell_formula_units_Z 88
_cell_length_a 27.742299
_cell_length_b 20.065572
_cell_length_c 7.864518
_cell_angle_alpha 90.000000
_cell_angle_beta 90.000000
_cell_angle_gamma 90.000000
_cell_volume 4377.902683
_symmetry_space_group_name_H-M "C M M M"
_symmetry_group_IT_number 65
_symmetry_cell_setting 'orthorhombic'
loop_
_space_group_symop_operation_xyz
x,y,z
-x,-y,z
x,-y,-z
-x,y,-z
-x,-y,-z
x,y,-z
-x,y,z
x,-y,z
1/2+x,1/2+y,z
1/2-x,1/2-y,z
1/2+x,1/2-y,-z
1/2-x,1/2+y,-z
1/2-x,1/2-y,-z
1/2+x,1/2+y,-z
1/2-x,1/2+y,z
1/2+x,1/2-y,z
loop_
_atom_site_type_symbol
_atom_site_label
_atom_site_fract_x
_atom_site_fract_y
_atom_site_fract_z
Si Si1 0.804558 0.575199 0.203895
Si Si2 0.598254 0.152434 0.297154
Si Si3 0.943842 0.926983 0.707501
Si Si4 0.615846 0.301889 0.297421
Si Si5 0.226039 0.819660 0.794023
Si Si6 0.500000 0.076446 0.797136
O O1 0.804069 0.500000 0.271901
O O2 0.855521 0.610609 0.237254
O O3 0.760432 0.620708 0.267376
O O4 0.799343 0.571747 0.000000
O O5 0.601333 0.155775 0.500000
O O6 0.602675 0.228352 0.229205
O O7 0.548238 0.116143 0.253570
O O8 0.941443 0.926659 0.500000
O O9 0.915340 0.863106 0.772325
O O10 0.000000 0.922076 0.752703
O O11 0.925612 0.000000 0.763017
O O12 0.606990 0.299204 0.500000
O O13 0.671563 0.318942 0.268408
O O14 0.250000 0.750000 0.741602
O O15 0.225073 0.821278 0.000000
O O16 0.500000 0.000000 0.729744
O O17 0.500000 0.072244 0.000000
#
# Coordination Sequence:
#
# PCOD9490455 Si02
#       6
#    16  16  16  16  16   8
#     4  10  21  38  59  81 108 147 192 231 273 331
#     4  11  23  37  57  86 117 146 180 229 283 331
#     4   8  15  30  53  79 108 143 180 217 262 320
#     4  10  21  34  55  85 115 144 180 228 278 326
#     4  10  20  36  56  77 106 144 185 225 270 325
#     4  11  25  43  61  81 110 149 190 230 273 331
#
# _framework density 20.100949
#
# number of rings (size 3 to 8) (size 9 to 14) (size 15 to 20)
#    0.000    2.091    1.818    1.909    1.273    5.818 
#    0.000    0.000    0.000    0.000    0.000    1.273 
#    0.000    0.000    0.000    0.000    0.000    0.000 
#
# Total GULP energy -245653.812158 kJ/mol
# GULP energy per Si atom -5583.041185 kJ/mol
# Density = 2.005520 g / cm^3
# Si number density = 20.100949 Si / 1000 Ang^3
#
#
#
# Elastic Constant Matrix: (Units=GPa)
#
#
# Indices 1 2 3 4 5 6 
#
# 1 112.5502 110.8476 -10.9553 0.0000 0.0000 0.0000
# 2 110.8476 242.3696 9.9669 0.0000 0.0000 0.0000
# 3 -10.9553 9.9669 19.7212 0.0000 0.0000 0.0000
# 4 0.0000 0.0000 0.0000 13.7215 0.0000 0.0000
# 5 0.0000 0.0000 0.0000 0.0000 26.1267 0.0000
# 6 0.0000 0.0000 0.0000 0.0000 0.0000 41.5371
#
#
#
# Elastic Compliance Matrix: (Units=1/GPa)
#
#
# Indices 1 2 3 4 5 6 
#
# 1 0.020246 -0.009929 0.016265 0.000000 0.000000 0.000000
# 2 -0.009929 0.009082 -0.010105 0.000000 0.000000 0.000000
# 3 0.016265 -0.010105 0.064849 0.000000 0.000000 0.000000
# 4 0.000000 0.000000 0.000000 0.072878 0.000000 0.000000
# 5 0.000000 0.000000 0.000000 0.000000 0.038275 0.000000
# 6 0.000000 0.000000 0.000000 0.000000 0.000000 0.024075
#
#
# Mechanical properties :
#
#
# Convention : Reuss Voigt Hill
#
# Bulk Modulus (GPa) = 11.54204 66.03993 38.79099
# Shear Modulus (GPa) = 18.80940 33.92918 26.36929
#
# Velocity S-wave (km/s) = 3.06232 4.11291 3.62587
# Velocity P-wave (km/s) = 4.27296 7.44850 6.07200
#
# Compressibility (1/GPa) = 0.08663979
#
# Stress axis : x y z
#
# Youngs Moduli (GPa) = 49.39139 110.10413 15.42033
#
# Poissons Ratio (x) = 1.09317 -0.25081
# Poissons Ratio (y) = 0.49038 0.15583
# Poissons Ratio (z) = -0.80334 1.11266
#
# Static dielectric constant tensor:
#      x y z
#    x 1.690500 0.000000 0.000000 
#    y 0.000000 1.736410 0.000000 
#    z 0.000000 0.000000 1.744210 
# 
# From -- ./inp_files/13977.got.cif
#   From: 2010.05.17/outbox.cif.g08.bks.cpg/sg65_7_cif.got.tgz:13977.got - 2010.06.03 17:01:31.
