data_PCOD9490289
_publ_section_title
;
Structure prediction by ZEFSAII (Michael W. Deem and Ramdas Pophale) SiO2 
 PCOD9490289
Probable space group: C M M M
;
_chemical_formula_sum "Si O2"
_cell_formula_units_Z 76
_cell_length_a 27.804091
_cell_length_b 7.834286
_cell_length_c 17.976666
_cell_angle_alpha 90.000000
_cell_angle_beta 90.000000
_cell_angle_gamma 90.000000
_cell_volume 3915.770882
_symmetry_space_group_name_H-M "C M M M"
_symmetry_group_IT_number 65
_symmetry_cell_setting 'orthorhombic'
loop_
_space_group_symop_operation_xyz
x,y,z
-x,-y,z
x,-y,-z
-x,y,-z
-x,-y,-z
x,y,-z
-x,y,z
x,-y,z
1/2+x,1/2+y,z
1/2-x,1/2-y,z
1/2+x,1/2-y,-z
1/2-x,1/2+y,-z
1/2-x,1/2-y,-z
1/2+x,1/2+y,-z
1/2-x,1/2+y,z
1/2+x,1/2-y,z
loop_
_atom_site_type_symbol
_atom_site_label
_atom_site_fract_x
_atom_site_fract_y
_atom_site_fract_z
Si Si1 0.347263 0.202050 0.158466
Si Si2 0.305843 0.297824 0.000000
Si Si3 0.304309 0.303878 0.310530
Si Si4 0.097553 0.695188 0.378829
Si Si5 0.412646 0.500000 0.500000
Si Si6 0.552806 0.204977 0.782232
O O1 0.314084 0.284008 0.222225
O O2 0.401559 0.268507 0.171003
O O3 0.346794 0.000000 0.174698
O O4 0.329380 0.229943 0.075526
O O5 0.250000 0.250000 0.000000
O O6 0.310571 0.500000 0.000000
O O7 0.310575 0.500000 0.331734
O O8 0.250000 0.250000 0.327556
O O9 0.346519 0.203131 0.352546
O O10 0.087380 0.500000 0.404181
O O11 0.088202 0.847045 0.435932
O O12 0.066694 0.728329 0.304087
O O13 0.500000 0.275395 0.798938
O O14 0.550811 0.000000 0.794069
#
# Coordination Sequence:
#
# PCOD9490289 Si02
#       6
#    16   8  16  16   4  16
#     4  10  20  35  57  86 116 154 194 240 293 346
#     4  12  24  38  55  80 121 157 196 243 295 346
#     4  11  20  35  58  83 113 149 200 243 286 345
#     4  10  21  38  60  84 116 155 194 242 296 355
#     4  12  22  40  59  84 122 154 188 240 311 360
#     4   8  16  35  63  89 113 149 196 241 288 345
#
# _framework density 19.408695000000002
#
# number of rings (size 3 to 8) (size 9 to 14) (size 15 to 20)
#    0.000    1.895    1.053    5.684    0.000    0.000 
#    0.000    2.632    0.000    5.684    0.000    0.000 
#    0.000    0.000    0.000    0.000    0.000    0.000 
#
# Total GULP energy -211563.019866 kJ/mol
# GULP energy per Si atom -5567.447891 kJ/mol
# Density = 1.936452 g / cm^3
# Si number density = 19.408695 Si / 1000 Ang^3
#
#
#
# Elastic Constant Matrix: (Units=GPa)
#
#
# Indices 1 2 3 4 5 6 
#
# 1 95.3621 7.7691 14.5325 0.0000 0.0000 0.0000
# 2 7.7691 101.6716 20.2722 0.0000 0.0000 0.0000
# 3 14.5325 20.2722 68.9394 0.0000 0.0000 0.0000
# 4 0.0000 0.0000 0.0000 37.1704 0.0000 0.0000
# 5 0.0000 0.0000 0.0000 0.0000 10.1920 0.0000
# 6 0.0000 0.0000 0.0000 0.0000 0.0000 8.1379
#
#
#
# Elastic Compliance Matrix: (Units=1/GPa)
#
#
# Indices 1 2 3 4 5 6 
#
# 1 0.010849 -0.000396 -0.002171 0.000000 0.000000 0.000000
# 2 -0.000396 0.010463 -0.002993 0.000000 0.000000 0.000000
# 3 -0.002171 -0.002993 0.015843 0.000000 0.000000 0.000000
# 4 0.000000 0.000000 0.000000 0.026903 0.000000 0.000000
# 5 0.000000 0.000000 0.000000 0.000000 0.098116 0.000000
# 6 0.000000 0.000000 0.000000 0.000000 0.000000 0.122882
#
#
# Mechanical properties :
#
#
# Convention : Reuss Voigt Hill
#
# Bulk Modulus (GPa) = 38.40916 39.01340 38.71128
# Shear Modulus (GPa) = 16.40124 25.99334 21.19729
#
# Velocity S-wave (km/s) = 2.91012 3.66356 3.30836
# Velocity P-wave (km/s) = 5.57892 6.16768 5.88067
#
# Compressibility (1/GPa) = 0.02603546
#
# Stress axis : x y z
#
# Youngs Moduli (GPa) = 92.17095 95.57799 63.11860
#
# Poissons Ratio (x) = 0.03787 0.13700
# Poissons Ratio (y) = 0.03652 0.18892
# Poissons Ratio (z) = 0.20006 0.28607
#
# Static dielectric constant tensor:
#      x y z
#    x 1.699540 0.000000 0.000000 
#    y 0.000000 1.710240 0.000000 
#    z 0.000000 0.000000 1.701810 
# 
# From -- ./inp_files/57279.got.cif
#   From: 2010.05.17/outbox.cif.g08.bks.cpg/sg65_29_cif.got.tgz:57279.got - 2010.06.03 17:01:31.
