data_PCOD9490392
_publ_section_title
;
Structure prediction by ZEFSAII (Michael W. Deem and Ramdas Pophale) SiO2 
 PCOD9490392
Probable space group: C M M M
;
_chemical_formula_sum "Si O2"
_cell_formula_units_Z 88
_cell_length_a 14.202600
_cell_length_b 14.260161
_cell_length_c 23.654678
_cell_angle_alpha 90.000000
_cell_angle_beta 90.000000
_cell_angle_gamma 90.000000
_cell_volume 4790.814168
_symmetry_space_group_name_H-M "C M M M"
_symmetry_group_IT_number 65
_symmetry_cell_setting 'orthorhombic'
loop_
_space_group_symop_operation_xyz
x,y,z
-x,-y,z
x,-y,-z
-x,y,-z
-x,-y,-z
x,y,-z
-x,y,z
x,-y,z
1/2+x,1/2+y,z
1/2-x,1/2-y,z
1/2+x,1/2-y,-z
1/2-x,1/2+y,-z
1/2-x,1/2-y,-z
1/2+x,1/2+y,-z
1/2-x,1/2+y,z
1/2+x,1/2-y,z
loop_
_atom_site_type_symbol
_atom_site_label
_atom_site_fract_x
_atom_site_fract_y
_atom_site_fract_z
Si Si1 0.770686 0.887370 0.328082
Si Si2 0.393098 0.613610 0.435960
Si Si3 0.604135 0.500000 0.931808
Si Si4 0.735965 0.139788 0.064639
Si Si5 0.387164 0.769570 0.723971
Si Si6 0.888075 0.396785 0.171306
O O1 0.815975 0.863135 0.389116
O O2 0.669126 0.839629 0.318307
O O3 0.840811 0.832328 0.285193
O O4 0.769217 0.000000 0.321311
O O5 0.373037 0.645812 0.500000
O O6 0.500000 0.644397 0.420418
O O7 0.395872 0.500000 0.437400
O O8 0.500000 0.500000 0.907303
O O9 0.667173 0.589523 0.917641
O O10 0.595906 0.500000 0.000000
O O11 0.750000 0.250000 0.064505
O O12 0.659225 0.113884 0.110696
O O13 0.713162 0.110734 0.000000
O O14 0.500000 0.768978 0.716250
O O15 0.364424 0.814206 0.785215
O O16 0.861186 0.500000 0.194874
O O17 0.000000 0.395507 0.164922
#
# Coordination Sequence:
#
# PCOD9490392 Si02
#       6
#    16  16   8  16  16  16
#     4  10  20  35  60  86 109 149 196 237 273 330
#     4   8  14  27  51  84 118 148 182 230 286 335
#     4   9  18  36  59  83 115 149 176 210 272 347
#     4  10  21  36  59  87 113 144 182 229 282 340
#     4  10  22  38  55  81 116 152 189 234 290 337
#     4  10  21  38  60  82 108 145 188 235 285 339
#
# _framework density 18.368486000000001
#
# number of rings (size 3 to 8) (size 9 to 14) (size 15 to 20)
#    0.000    2.455    0.909    1.636    2.545    3.273 
#    0.000    4.545    0.000    1.636    0.000    2.545 
#    0.000    0.000    0.000    0.000    0.000    0.000 
#
# Total GULP energy -245152.394109 kJ/mol
# GULP energy per Si atom -5571.645321 kJ/mol
# Density = 1.832668 g / cm^3
# Si number density = 18.368486 Si / 1000 Ang^3
#
#
#
# Elastic Constant Matrix: (Units=GPa)
#
#
# Indices 1 2 3 4 5 6 
#
# 1 79.6469 31.8029 34.0252 0.0000 0.0000 0.0000
# 2 31.8029 109.1759 15.9336 0.0000 0.0000 0.0000
# 3 34.0252 15.9336 71.0453 0.0000 0.0000 0.0000
# 4 0.0000 0.0000 0.0000 27.7551 0.0000 0.0000
# 5 0.0000 0.0000 0.0000 0.0000 33.5554 0.0000
# 6 0.0000 0.0000 0.0000 0.0000 0.0000 16.7006
#
#
#
# Elastic Compliance Matrix: (Units=1/GPa)
#
#
# Indices 1 2 3 4 5 6 
#
# 1 0.017295 -0.003959 -0.007395 0.000000 0.000000 0.000000
# 2 -0.003959 0.010376 -0.000431 0.000000 0.000000 0.000000
# 3 -0.007395 -0.000431 0.017714 0.000000 0.000000 0.000000
# 4 0.000000 0.000000 0.000000 0.036029 0.000000 0.000000
# 5 0.000000 0.000000 0.000000 0.000000 0.029801 0.000000
# 6 0.000000 0.000000 0.000000 0.000000 0.000000 0.059878
#
#
# Mechanical properties :
#
#
# Convention : Reuss Voigt Hill
#
# Bulk Modulus (GPa) = 45.84060 47.04351 46.44205
# Shear Modulus (GPa) = 24.76033 27.47599 26.11816
#
# Velocity S-wave (km/s) = 3.67547 3.87178 3.77490
# Velocity P-wave (km/s) = 6.55914 6.75679 6.65870
#
# Compressibility (1/GPa) = 0.02181473
#
# Stress axis : x y z
#
# Youngs Moduli (GPa) = 57.81866 96.37958 56.45261
#
# Poissons Ratio (x) = 0.38155 0.41748
# Poissons Ratio (y) = 0.22890 0.02433
# Poissons Ratio (z) = 0.42759 0.04154
#
# Static dielectric constant tensor:
#      x y z
#    x 1.627340 0.000000 0.000000 
#    y 0.000000 1.648680 0.000000 
#    z 0.000000 0.000000 1.651890 
# 
# From -- ./inp_files/74246.got.cif
#   From: 2010.05.17/outbox.cif.g08.bks.cpg/sg65_38_cif.got.tgz:74246.got - 2010.06.03 17:01:31.
