data_PCOD9490900
_publ_section_title
;
Structure prediction by ZEFSAII (Michael W. Deem and Ramdas Pophale) SiO2 
 PCOD9490900
Probable space group: C M M M
;
_chemical_formula_sum "Si O2"
_cell_formula_units_Z 72
_cell_length_a 18.553150
_cell_length_b 7.952642
_cell_length_c 25.041708
_cell_angle_alpha 90.000000
_cell_angle_beta 90.000000
_cell_angle_gamma 90.000000
_cell_volume 3694.817870
_symmetry_space_group_name_H-M "C M M M"
_symmetry_group_IT_number 65
_symmetry_cell_setting 'orthorhombic'
loop_
_space_group_symop_operation_xyz
x,y,z
-x,-y,z
x,-y,-z
-x,y,-z
-x,-y,-z
x,y,-z
-x,y,z
x,-y,z
1/2+x,1/2+y,z
1/2-x,1/2-y,z
1/2+x,1/2-y,-z
1/2-x,1/2+y,-z
1/2-x,1/2-y,-z
1/2+x,1/2+y,-z
1/2-x,1/2+y,z
1/2+x,1/2-y,z
loop_
_atom_site_type_symbol
_atom_site_label
_atom_site_fract_x
_atom_site_fract_y
_atom_site_fract_z
Si Si1 0.666353 0.200960 0.558502
Si Si2 0.083984 0.500000 0.063980
Si Si3 0.915454 0.696856 0.779058
Si Si4 0.081928 0.801427 0.336608
Si Si5 0.833240 0.193301 0.119534
O O1 0.639581 0.260993 0.500000
O O2 0.750000 0.250000 0.561938
O O3 0.625617 0.268928 0.609841
O O4 0.660507 0.000000 0.559344
O O5 0.122884 0.667919 0.085691
O O6 0.000000 0.500000 0.081028
O O7 0.086877 0.500000 0.000000
O O8 0.911977 0.500000 0.793166
O O9 0.890332 0.718923 0.717986
O O10 0.867432 0.795188 0.821285
O O11 0.000000 0.749434 0.781312
O O12 0.000000 0.739950 0.344644
O O13 0.080456 0.000000 0.326594
O O14 0.750000 0.250000 0.120572
O O15 0.838897 0.000000 0.100343
#
# Coordination Sequence:
#
# PCOD9490900 Si02
#       5
#    16   8  16  16  16
#     4  10  21  37  56  77 105 144 192 245 305 369
#     4  11  26  48  72 102 139 179 226 274 325 390
#     4  10  20  37  62  90 125 164 205 258 316 380
#     4  10  21  36  55  84 117 153 198 245 302 367
#     4  12  24  43  68 101 137 177 223 273 331 388
#
# _framework density 19.486753
#
# number of rings (size 3 to 8) (size 9 to 14) (size 15 to 20)
#    0.000    1.444    2.222    2.667    0.000    7.556 
#    0.000    7.778    0.000    0.000    0.000    0.000 
#    0.000    0.000    0.000    0.000    0.000    0.000 
#
# Total GULP energy -201099.126532 kJ/mol
# GULP energy per Si atom -5586.086848 kJ/mol
# Density = 1.944240 g / cm^3
# Si number density = 19.486753 Si / 1000 Ang^3
#
#
#
# Elastic Constant Matrix: (Units=GPa)
#
#
# Indices 1 2 3 4 5 6 
#
# 1 95.0613 41.5412 55.2385 0.0000 0.0000 0.0000
# 2 41.5412 116.2831 38.2829 0.0000 0.0000 0.0000
# 3 55.2385 38.2829 111.9680 0.0000 0.0000 0.0000
# 4 0.0000 0.0000 0.0000 23.8979 0.0000 0.0000
# 5 0.0000 0.0000 0.0000 0.0000 92.7369 0.0000
# 6 0.0000 0.0000 0.0000 0.0000 0.0000 26.9631
#
#
#
# Elastic Compliance Matrix: (Units=1/GPa)
#
#
# Indices 1 2 3 4 5 6 
#
# 1 0.015914 -0.003494 -0.006657 0.000000 0.000000 0.000000
# 2 -0.003494 0.010457 -0.001852 0.000000 0.000000 0.000000
# 3 -0.006657 -0.001852 0.012848 0.000000 0.000000 0.000000
# 4 0.000000 0.000000 0.000000 0.041845 0.000000 0.000000
# 5 0.000000 0.000000 0.000000 0.000000 0.010783 0.000000
# 6 0.000000 0.000000 0.000000 0.000000 0.000000 0.037088
#
#
# Mechanical properties :
#
#
# Convention : Reuss Voigt Hill
#
# Bulk Modulus (GPa) = 65.72238 65.93754 65.82996
# Shear Modulus (GPa) = 31.64311 41.26957 36.45634
#
# Velocity S-wave (km/s) = 4.03405 4.60698 4.33000
# Velocity P-wave (km/s) = 7.44969 7.88730 7.67162
#
# Compressibility (1/GPa) = 0.01521552
#
# Stress axis : x y z
#
# Youngs Moduli (GPa) = 62.83633 95.62515 77.83118
#
# Poissons Ratio (x) = 0.33409 0.51810
# Poissons Ratio (y) = 0.21953 0.14414
# Poissons Ratio (z) = 0.41828 0.17709
#
# Static dielectric constant tensor:
#      x y z
#    x 1.657440 0.000000 0.000000 
#    y 0.000000 1.686310 0.000000 
#    z 0.000000 0.000000 1.685300 
# 
# From -- ./inp_files/70348.got.cif
#   From: 2010.05.17/outbox.cif.g08.bks.cpg/sg65_36_cif.got.tgz:70348.got - 2010.06.03 17:01:31.
