data_PCOD9490365
_publ_section_title
;
Structure prediction by ZEFSAII (Michael W. Deem and Ramdas Pophale) SiO2 
 PCOD9490365
Probable space group: C M M M
;
_chemical_formula_sum "Si O2"
_cell_formula_units_Z 80
_cell_length_a 10.625701
_cell_length_b 23.373721
_cell_length_c 18.108745
_cell_angle_alpha 90.000000
_cell_angle_beta 90.000000
_cell_angle_gamma 90.000000
_cell_volume 4497.527215
_symmetry_space_group_name_H-M "C M M M"
_symmetry_group_IT_number 65
_symmetry_cell_setting 'orthorhombic'
loop_
_space_group_symop_operation_xyz
x,y,z
-x,-y,z
x,-y,-z
-x,y,-z
-x,-y,-z
x,y,-z
-x,y,z
x,-y,z
1/2+x,1/2+y,z
1/2-x,1/2-y,z
1/2+x,1/2-y,-z
1/2-x,1/2+y,-z
1/2-x,1/2-y,-z
1/2+x,1/2+y,-z
1/2-x,1/2+y,z
1/2+x,1/2-y,z
loop_
_atom_site_type_symbol
_atom_site_label
_atom_site_fract_x
_atom_site_fract_y
_atom_site_fract_z
Si Si1 0.844943 0.500000 0.194903
Si Si2 0.650613 0.876890 0.144975
Si Si3 0.844852 0.304102 0.000000
Si Si4 0.500000 0.432692 0.589898
Si Si5 0.853914 0.500000 0.363891
Si Si6 0.852692 0.299994 0.711260
Si Si7 0.238381 0.618975 0.584747
O O1 0.801626 0.558441 0.155829
O O2 0.799586 0.500000 0.280414
O O3 0.000000 0.500000 0.194458
O O4 0.500000 0.882186 0.140353
O O5 0.675755 0.840344 0.218494
O O6 0.686404 0.841878 0.072292
O O7 0.750000 0.250000 0.000000
O O8 0.000000 0.291902 0.000000
O O9 0.500000 0.500000 0.614144
O O10 0.500000 0.435614 0.500000
O O11 0.620914 0.395881 0.611644
O O12 0.821671 0.556367 0.408744
O O13 0.000000 0.500000 0.350836
O O14 0.750000 0.250000 0.710420
O O15 0.832251 0.337775 0.638074
O O16 0.000000 0.281786 0.715918
O O17 0.239785 0.638534 0.500000
#
# Coordination Sequence:
#
# PCOD9490365 Si02
#       7
#     8  16   8   8   8  16  16
#     4   9  16  30  53  82 116 144 170 223 287 335
#     4   9  18  34  56  85 117 145 181 227 280 334
#     4  10  20  35  59  87 115 152 191 226 264 320
#     4   9  18  34  54  80 108 137 175 226 284 336
#     4  11  19  31  54  82 110 143 180 229 289 340
#     4  11  24  40  57  79 110 149 192 239 285 334
#     4  11  22  36  56  80 110 145 188 236 284 340
#
# _framework density 17.787552000000002
#
# number of rings (size 3 to 8) (size 9 to 14) (size 15 to 20)
#    0.000    1.900    3.000    1.500    1.400    2.800 
#    0.000    2.000    0.000    0.000    0.000    0.700 
#    0.000    0.000    0.000    0.000    0.000    0.000 
#
# Total GULP energy -222880.496922 kJ/mol
# GULP energy per Si atom -5572.012423 kJ/mol
# Density = 1.774707 g / cm^3
# Si number density = 17.787552 Si / 1000 Ang^3
#
#
#
# Elastic Constant Matrix: (Units=GPa)
#
#
# Indices 1 2 3 4 5 6 
#
# 1 67.9799 45.6825 25.8920 0.0000 0.0000 0.0000
# 2 45.6825 110.8833 47.9509 0.0000 0.0000 0.0000
# 3 25.8920 47.9509 109.1698 0.0000 0.0000 0.0000
# 4 0.0000 0.0000 0.0000 -14.4547 0.0000 0.0000
# 5 0.0000 0.0000 0.0000 0.0000 25.2361 0.0000
# 6 0.0000 0.0000 0.0000 0.0000 0.0000 17.5682
#
#
#
# Elastic Compliance Matrix: (Units=1/GPa)
#
#
# Indices 1 2 3 4 5 6 
#
# 1 0.020520 -0.007838 -0.001424 0.000000 0.000000 0.000000
# 2 -0.007838 0.014127 -0.004346 0.000000 0.000000 0.000000
# 3 -0.001424 -0.004346 0.011407 0.000000 0.000000 0.000000
# 4 0.000000 0.000000 0.000000 -0.069182 0.000000 0.000000
# 5 0.000000 0.000000 0.000000 0.000000 0.039626 0.000000
# 6 0.000000 0.000000 0.000000 0.000000 0.000000 0.056921
#
#
# Mechanical properties :
#
#
# Convention : Reuss Voigt Hill
#
# Bulk Modulus (GPa) = 53.08623 58.56488 55.82555
# Shear Modulus (GPa) = 46.76641 16.90376 31.83508
#
# Velocity S-wave (km/s) = 5.13310 3.08606 4.23512
# Velocity P-wave (km/s) = 8.06480 6.75977 7.44095
#
# Compressibility (1/GPa) = 0.01883728
#
# Stress axis : x y z
#
# Youngs Moduli (GPa) = 48.73343 70.78564 87.66759
#
# Poissons Ratio (x) = 0.55483 0.12483
# Poissons Ratio (y) = 0.38198 0.38101
# Poissons Ratio (z) = 0.06939 0.30764
#
# Static dielectric constant tensor:
#      x y z
#    x 1.681940 0.000000 0.000000 
#    y 0.000000 1.599690 0.000000 
#    z 0.000000 0.000000 1.631120 
# 
# From -- ./inp_files/51402.got.cif
#   From: 2010.05.17/outbox.cif.g08.bks.cpg/sg65_26_cif.got.tgz:51402.got - 2010.06.03 17:01:31.
