data_PCOD9490805
_publ_section_title
;
Structure prediction by ZEFSAII (Michael W. Deem and Ramdas Pophale) SiO2 
 PCOD9490805
Probable space group: C M M M
;
_chemical_formula_sum "Si O2"
_cell_formula_units_Z 104
_cell_length_a 19.097098
_cell_length_b 25.325905
_cell_length_c 12.824444
_cell_angle_alpha 90.000000
_cell_angle_beta 90.000000
_cell_angle_gamma 90.000000
_cell_volume 6202.558881
_symmetry_space_group_name_H-M "C M M M"
_symmetry_group_IT_number 65
_symmetry_cell_setting 'orthorhombic'
loop_
_space_group_symop_operation_xyz
x,y,z
-x,-y,z
x,-y,-z
-x,y,-z
-x,-y,-z
x,y,-z
-x,y,z
x,-y,z
1/2+x,1/2+y,z
1/2-x,1/2-y,z
1/2+x,1/2-y,-z
1/2-x,1/2+y,-z
1/2-x,1/2-y,-z
1/2+x,1/2+y,-z
1/2-x,1/2+y,z
1/2+x,1/2-y,z
loop_
_atom_site_type_symbol
_atom_site_label
_atom_site_fract_x
_atom_site_fract_y
_atom_site_fract_z
Si Si1 0.324868 0.279266 0.619809
Si Si2 0.822047 0.782646 0.000000
Si Si3 0.083671 0.500000 0.125646
Si Si4 0.807287 0.140335 0.803282
Si Si5 0.078746 0.937301 0.123991
Si Si6 0.416263 0.181165 0.000000
Si Si7 0.143998 0.612705 0.808112
Si Si8 0.416501 0.821220 0.622539
O O1 0.337483 0.294998 0.500000
O O2 0.250000 0.250000 0.624992
O O3 0.320635 0.327797 0.697583
O O4 0.382186 0.235277 0.650273
O O5 0.750000 0.750000 0.000000
O O6 0.821655 0.819205 0.898174
O O7 0.883835 0.739741 0.000000
O O8 0.118809 0.446904 0.170418
O O9 0.000000 0.500000 0.146999
O O10 0.092329 0.500000 0.000000
O O11 0.861649 0.093091 0.815495
O O12 0.727672 0.119969 0.810875
O O13 0.000000 0.919859 0.152225
O O14 0.083060 0.000000 0.139526
O O15 0.087651 0.927706 0.000000
O O16 0.388568 0.149507 0.899035
O O17 0.500000 0.181964 0.000000
O O18 0.115754 0.635108 0.698537
O O19 0.400142 0.830714 0.500000
O O20 0.500000 0.819718 0.634712
#
# Coordination Sequence:
#
# PCOD9490805 Si02
#       8
#    16   8   8  16  16   8  16  16
#     4  10  20  37  59  82 114 153 191 228 276 333
#     4  12  22  36  49  81 119 146 177 230 284 340
#     4  11  24  40  57  79 112 148 195 241 281 341
#     4  12  22  35  59  86 117 147 187 236 285 337
#     4   9  20  39  60  83 115 152 189 231 284 344
#     4  12  24  37  55  77 114 157 186 220 282 349
#     4  12  23  38  58  84 113 150 190 237 286 340
#     4  10  21  38  61  86 114 152 195 235 280 337
#
# _framework density 16.767272999999999
#
# number of rings (size 3 to 8) (size 9 to 14) (size 15 to 20)
#    0.000    1.154    4.615    3.231    1.077    1.231 
#    0.000    0.385    0.000    1.846    0.000    1.077 
#    0.000    0.000    0.000    0.000    0.000    0.000 
#
# Total GULP energy -290501.199391 kJ/mol
# GULP energy per Si atom -5586.561527 kJ/mol
# Density = 1.672911 g / cm^3
# Si number density = 16.767273 Si / 1000 Ang^3
#
#
#
# Elastic Constant Matrix: (Units=GPa)
#
#
# Indices 1 2 3 4 5 6 
#
# 1 148.5019 83.0154 58.7567 0.0000 0.0000 0.0000
# 2 83.0154 110.6516 59.0648 0.0000 0.0000 0.0000
# 3 58.7567 59.0648 77.5293 0.0000 0.0000 0.0000
# 4 0.0000 0.0000 0.0000 -9.1748 0.0000 0.0000
# 5 0.0000 0.0000 0.0000 0.0000 -21.9617 0.0000
# 6 0.0000 0.0000 0.0000 0.0000 0.0000 35.2575
#
#
#
# Elastic Compliance Matrix: (Units=1/GPa)
#
#
# Indices 1 2 3 4 5 6 
#
# 1 0.012242 -0.007133 -0.003844 0.000000 0.000000 0.000000
# 2 -0.007133 0.019387 -0.009364 0.000000 0.000000 0.000000
# 3 -0.003844 -0.009364 0.022946 0.000000 0.000000 0.000000
# 4 0.000000 0.000000 0.000000 -0.108994 0.000000 0.000000
# 5 0.000000 0.000000 0.000000 0.000000 -0.045534 0.000000
# 6 0.000000 0.000000 0.000000 0.000000 0.000000 0.028363
#
#
# Mechanical properties :
#
#
# Convention : Reuss Voigt Hill
#
# Bulk Modulus (GPa) = 71.97813 82.03962 77.00887
# Shear Modulus (GPa) = -190.27969 9.88060 -90.19955
#
# Velocity S-wave (km/s) = -10.66439 2.43014 -7.34246
# Velocity P-wave (km/s) = 10.42199 7.54379 5.08474
#
# Compressibility (1/GPa) = 0.01389311
#
# Stress axis : x y z
#
# Youngs Moduli (GPa) = 81.68510 51.58047 43.58145
#
# Poissons Ratio (x) = 0.36791 0.16752
# Poissons Ratio (y) = 0.58264 0.40811
# Poissons Ratio (z) = 0.31399 0.48301
#
# Static dielectric constant tensor:
#      x y z
#    x 1.560230 0.000000 0.000000 
#    y 0.000000 1.561000 0.000000 
#    z 0.000000 0.000000 1.565280 
# 
# From -- ./inp_files/27528.got.cif
#   From: 2010.05.17/outbox.cif.g08.bks.cpg/sg65_14_cif.got.tgz:27528.got - 2010.06.03 17:01:31.
