data_PCOD9490990
_publ_section_title
;
Structure prediction by ZEFSAII (Michael W. Deem and Ramdas Pophale) SiO2 
 PCOD9490990
Probable space group: C M M M
;
_chemical_formula_sum "Si O2"
_cell_formula_units_Z 90
_cell_length_a 23.387566
_cell_length_b 8.803097
_cell_length_c 23.023651
_cell_angle_alpha 90.000000
_cell_angle_beta 90.000000
_cell_angle_gamma 90.000000
_cell_volume 4740.178617
_symmetry_space_group_name_H-M "C M M M"
_symmetry_group_IT_number 65
_symmetry_cell_setting 'orthorhombic'
loop_
_space_group_symop_operation_xyz
x,y,z
-x,-y,z
x,-y,-z
-x,y,-z
-x,-y,-z
x,y,-z
-x,y,z
x,-y,z
1/2+x,1/2+y,z
1/2-x,1/2-y,z
1/2+x,1/2-y,-z
1/2-x,1/2+y,-z
1/2-x,1/2-y,-z
1/2+x,1/2+y,-z
1/2-x,1/2+y,z
1/2+x,1/2-y,z
loop_
_atom_site_type_symbol
_atom_site_label
_atom_site_fract_x
_atom_site_fract_y
_atom_site_fract_z
Si Si1 0.885078 0.318333 0.931920
Si Si2 0.380488 0.331945 0.500000
Si Si3 0.625747 0.817965 0.277075
Si Si4 0.000000 0.181522 0.877635
Si Si5 0.000000 0.318792 0.250993
Si Si6 0.188162 0.180814 0.167718
Si Si7 0.500000 0.500000 0.500000
Si Si8 0.686984 0.182239 0.396430
O O1 0.886471 0.500000 0.923819
O O2 0.944239 0.248298 0.908955
O O3 0.835818 0.247449 0.892294
O O4 0.877667 0.286098 0.000000
O O5 0.352363 0.500000 0.500000
O O6 0.448065 0.369345 0.500000
O O7 0.357297 0.244491 0.556120
O O8 0.558471 0.784113 0.284706
O O9 0.646860 0.734394 0.219477
O O10 0.663202 0.774705 0.332690
O O11 0.631634 0.000000 0.268416
O O12 0.000000 0.234323 0.810675
O O13 0.000000 0.000000 0.880732
O O14 0.000000 0.500000 0.238705
O O15 0.250000 0.250000 0.180000
O O16 0.190474 0.000000 0.165267
O O17 0.750000 0.250000 0.405886
O O18 0.689702 0.000000 0.399712
#
# Coordination Sequence:
#
# PCOD9490990 Si02
#       8
#    16   8  16   8   8  16   2  16
#     4  11  24  42  64  88 118 159 204 255 318 383
#     4  10  22  44  68  94 135 178 222 269 330 381
#     4  10  22  40  64  95 131 169 214 261 321 382
#     4  12  23  37  61  94 125 156 203 254 313 380
#     4  10  20  38  64  89 125 171 208 257 315 387
#     4  12  25  41  63  88 122 162 207 261 320 382
#     4   8  24  44  70  96 136 184 222 274 338 388
#     4  11  23  40  67 102 136 177 225 275 325 387
#
# _framework density 18.986626999999999
#
# number of rings (size 3 to 8) (size 9 to 14) (size 15 to 20)
#    0.267    0.889    1.778    4.800    0.000    6.400 
#    0.000    1.778    0.000    0.000    0.000    0.000 
#    0.000    0.000    0.000    0.000    0.000    0.000 
#
# Total GULP energy -251254.942703 kJ/mol
# GULP energy per Si atom -5583.443171 kJ/mol
# Density = 1.894341 g / cm^3
# Si number density = 18.986627 Si / 1000 Ang^3
#
#
#
# Elastic Constant Matrix: (Units=GPa)
#
#
# Indices 1 2 3 4 5 6 
#
# 1 132.9638 35.4794 28.4976 0.0000 0.0000 0.0000
# 2 35.4794 64.9769 35.4673 0.0000 0.0000 0.0000
# 3 28.4976 35.4673 77.6026 0.0000 0.0000 0.0000
# 4 0.0000 0.0000 0.0000 10.6639 0.0000 0.0000
# 5 0.0000 0.0000 0.0000 0.0000 -36.0040 0.0000
# 6 0.0000 0.0000 0.0000 0.0000 0.0000 28.9414
#
#
#
# Elastic Compliance Matrix: (Units=1/GPa)
#
#
# Indices 1 2 3 4 5 6 
#
# 1 0.008916 -0.004105 -0.001398 0.000000 0.000000 0.000000
# 2 -0.004105 0.022396 -0.008728 0.000000 0.000000 0.000000
# 3 -0.001398 -0.008728 0.017389 0.000000 0.000000 0.000000
# 4 0.000000 0.000000 0.000000 0.093774 0.000000 0.000000
# 5 0.000000 0.000000 0.000000 0.000000 -0.027775 0.000000
# 6 0.000000 0.000000 0.000000 0.000000 0.000000 0.034553
#
#
# Mechanical properties :
#
#
# Convention : Reuss Voigt Hill
#
# Bulk Modulus (GPa) = 49.41279 52.71466 51.06372
# Shear Modulus (GPa) = 27.10597 12.46019 19.78308
#
# Velocity S-wave (km/s) = 3.78250 2.56454 3.23142
# Velocity P-wave (km/s) = 6.71997 6.04926 6.39342
#
# Compressibility (1/GPa) = 0.02023768
#
# Stress axis : x y z
#
# Youngs Moduli (GPa) = 112.15932 44.65085 57.50896
#
# Poissons Ratio (x) = 0.18331 0.08039
# Poissons Ratio (y) = 0.46045 0.50195
# Poissons Ratio (z) = 0.15678 0.38972
#
# Static dielectric constant tensor:
#      x y z
#    x 1.639240 0.000000 0.000000 
#    y 0.000000 1.638160 0.000000 
#    z 0.000000 0.000000 1.637480 
# 
# From -- ./inp_files/65315.got.cif
#   From: 2010.05.17/outbox.cif.g08.bks.cpg/sg65_33_cif.got.tgz:65315.got - 2010.06.03 17:01:31.
