data_PCOD9490973
_publ_section_title
;
Structure prediction by ZEFSAII (Michael W. Deem and Ramdas Pophale) SiO2 
 PCOD9490973
Probable space group: C M M M
;
_chemical_formula_sum "Si O2"
_cell_formula_units_Z 88
_cell_length_a 18.922148
_cell_length_b 20.800054
_cell_length_c 11.561759
_cell_angle_alpha 90.000000
_cell_angle_beta 90.000000
_cell_angle_gamma 90.000000
_cell_volume 4550.496764
_symmetry_space_group_name_H-M "C M M M"
_symmetry_group_IT_number 65
_symmetry_cell_setting 'orthorhombic'
loop_
_space_group_symop_operation_xyz
x,y,z
-x,-y,z
x,-y,-z
-x,y,-z
-x,-y,-z
x,y,-z
-x,y,z
x,-y,z
1/2+x,1/2+y,z
1/2-x,1/2-y,z
1/2+x,1/2-y,-z
1/2-x,1/2+y,-z
1/2-x,1/2-y,-z
1/2+x,1/2+y,-z
1/2-x,1/2+y,z
1/2+x,1/2-y,z
loop_
_atom_site_type_symbol
_atom_site_label
_atom_site_fract_x
_atom_site_fract_y
_atom_site_fract_z
Si Si1 0.164771 0.870600 0.277953
Si Si2 0.922498 0.354028 0.500000
Si Si3 0.584589 0.500000 0.639366
Si Si4 0.584090 0.260462 0.136503
Si Si5 0.715221 0.927040 0.127948
Si Si6 0.745444 0.174526 0.500000
Si Si7 0.422486 0.883312 0.237424
O O1 0.119390 0.934681 0.308849
O O2 0.119421 0.812826 0.221754
O O3 0.223385 0.886447 0.183206
O O4 0.211368 0.851875 0.389849
O O5 0.839578 0.334206 0.500000
O O6 0.926159 0.387557 0.375829
O O7 0.000000 0.315201 0.500000
O O8 0.500000 0.500000 0.659913
O O9 0.596113 0.500000 0.500000
O O10 0.500000 0.272590 0.135135
O O11 0.593320 0.189743 0.193770
O O12 0.607537 0.262139 0.000000
O O13 0.642662 0.924422 0.196430
O O14 0.740863 0.000000 0.125185
O O15 0.699098 0.903874 0.000000
O O16 0.750000 0.250000 0.500000
O O17 0.500000 0.900787 0.190141
#
# Coordination Sequence:
#
# PCOD9490973 Si02
#       7
#    16   8   8  16  16   8  16
#     4  12  23  41  64  92 126 165 209 265 318 375
#     4  10  20  38  62  89 124 165 203 248 310 378
#     4  11  24  44  65  93 127 168 214 261 322 384
#     4  10  22  40  62  90 125 166 211 259 319 387
#     4  11  24  40  61  89 123 166 214 257 308 370
#     4  12  24  39  64  99 133 166 205 263 324 381
#     4  10  21  40  64  91 125 162 206 261 319 381
#
# _framework density 19.338547999999999
#
# number of rings (size 3 to 8) (size 9 to 14) (size 15 to 20)
#    0.000    1.182    3.636    2.727    0.000    1.455 
#    0.000    5.000    0.000    3.818    0.000    0.000 
#    0.000    0.000    0.000    0.000    0.000    0.000 
#
# Total GULP energy -245111.621400 kJ/mol
# GULP energy per Si atom -5570.718668 kJ/mol
# Density = 1.929453 g / cm^3
# Si number density = 19.338548 Si / 1000 Ang^3
#
#
#
# Elastic Constant Matrix: (Units=GPa)
#
#
# Indices 1 2 3 4 5 6 
#
# 1 95.4327 19.7267 24.3709 0.0000 0.0000 0.0000
# 2 19.7267 42.1477 4.4329 0.0000 0.0000 0.0000
# 3 24.3709 4.4329 99.1672 0.0000 0.0000 0.0000
# 4 0.0000 0.0000 0.0000 286.6648 0.0000 0.0000
# 5 0.0000 0.0000 0.0000 0.0000 47.0674 0.0000
# 6 0.0000 0.0000 0.0000 0.0000 0.0000 8.5635
#
#
#
# Elastic Compliance Matrix: (Units=1/GPa)
#
#
# Indices 1 2 3 4 5 6 
#
# 1 0.012321 -0.005474 -0.002783 0.000000 0.000000 0.000000
# 2 -0.005474 0.026270 0.000171 0.000000 0.000000 0.000000
# 3 -0.002783 0.000171 0.010760 0.000000 0.000000 0.000000
# 4 0.000000 0.000000 0.000000 0.003488 0.000000 0.000000
# 5 0.000000 0.000000 0.000000 0.000000 0.021246 0.000000
# 6 0.000000 0.000000 0.000000 0.000000 0.000000 0.116774
#
#
# Mechanical properties :
#
#
# Convention : Reuss Voigt Hill
#
# Bulk Modulus (GPa) = 30.13962 37.08982 33.61472
# Shear Modulus (GPa) = 22.92610 81.00694 51.96652
#
# Velocity S-wave (km/s) = 3.44686 6.47918 5.18944
# Velocity P-wave (km/s) = 5.60894 8.67144 7.30254
#
# Compressibility (1/GPa) = 0.03317892
#
# Stress axis : x y z
#
# Youngs Moduli (GPa) = 81.16324 38.06608 92.93395
#
# Poissons Ratio (x) = 0.20837 0.25866
# Poissons Ratio (y) = 0.44428 -0.01589
# Poissons Ratio (z) = 0.22590 -0.00651
#
# Static dielectric constant tensor:
#      x y z
#    x 1.898000 0.000000 0.000000 
#    y 0.000000 1.671500 0.000000 
#    z 0.000000 0.000000 1.647560 
# 
# From -- ./inp_files/26863.got.cif
#   From: 2010.05.17/outbox.cif.g08.bks.cpg/sg65_14_cif.got.tgz:26863.got - 2010.06.03 17:01:31.
