data_PCOD9490463
_publ_section_title
;
Structure prediction by ZEFSAII (Michael W. Deem and Ramdas Pophale) SiO2 
 PCOD9490463
Probable space group: C M M M
;
_chemical_formula_sum "Si O2"
_cell_formula_units_Z 88
_cell_length_a 31.304524
_cell_length_b 7.606576
_cell_length_c 17.666592
_cell_angle_alpha 90.000000
_cell_angle_beta 90.000000
_cell_angle_gamma 90.000000
_cell_volume 4206.773144
_symmetry_space_group_name_H-M "C M M M"
_symmetry_group_IT_number 65
_symmetry_cell_setting 'orthorhombic'
loop_
_space_group_symop_operation_xyz
x,y,z
-x,-y,z
x,-y,-z
-x,y,-z
-x,-y,-z
x,y,-z
-x,y,z
x,-y,z
1/2+x,1/2+y,z
1/2-x,1/2-y,z
1/2+x,1/2-y,-z
1/2-x,1/2+y,-z
1/2-x,1/2-y,-z
1/2+x,1/2+y,-z
1/2-x,1/2+y,z
1/2+x,1/2-y,z
loop_
_atom_site_type_symbol
_atom_site_label
_atom_site_fract_x
_atom_site_fract_y
_atom_site_fract_z
Si Si1 0.200310 0.789031 0.913722
Si Si2 0.112754 0.211584 0.361268
Si Si3 0.548929 0.207456 0.500000
Si Si4 0.623445 0.715485 0.190811
Si Si5 0.204928 0.210782 0.414704
Si Si6 0.046497 0.214272 0.086853
O O1 0.250000 0.750000 0.898294
O O2 0.168097 0.726924 0.847828
O O3 0.195644 0.000000 0.916526
O O4 0.190465 0.724480 0.000000
O O5 0.077030 0.250820 0.424750
O O6 0.109454 0.272885 0.274653
O O7 0.159990 0.276252 0.384243
O O8 0.114037 0.000000 0.359453
O O9 0.500000 0.282009 0.500000
O O10 0.544465 0.000000 0.500000
O O11 0.624880 0.500000 0.193004
O O12 0.586197 0.773366 0.134866
O O13 0.208087 0.281641 0.500000
O O14 0.250000 0.250000 0.374682
O O15 0.201902 0.000000 0.417450
O O16 0.000000 0.268338 0.116436
O O17 0.047203 0.000000 0.087129
O O18 0.050079 0.269448 0.000000
#
# Coordination Sequence:
#
# PCOD9490463 Si02
#       6
#    16  16   8  16  16  16
#     4   9  17  30  48  72 106 147 185 217 251 295
#     4  10  20  36  56  79 105 132 170 219 263 308
#     4  11  25  43  60  77 100 133 172 211 260 325
#     4   9  17  28  46  72 101 132 167 209 255 298
#     4   9  17  30  48  71  98 126 158 197 244 294
#     4   8  13  22  38  63  96 129 159 195 242 296
#
# _framework density 20.918647
#
# number of rings (size 3 to 8) (size 9 to 14) (size 15 to 20)
#    0.000    2.818    0.909    1.364    0.000    5.091 
#    0.000    2.727    0.000    0.000    0.000    0.000 
#    0.000    0.000    0.000   12.545    0.000   11.273 
#
# Total GULP energy -245111.428461 kJ/mol
# GULP energy per Si atom -5570.714283 kJ/mol
# Density = 2.087104 g / cm^3
# Si number density = 20.918647 Si / 1000 Ang^3
#
#
#
# Elastic Constant Matrix: (Units=GPa)
#
#
# Indices 1 2 3 4 5 6 
#
# 1 188.2574 4.4141 104.6564 0.0000 0.0000 0.0000
# 2 4.4141 43.7504 6.1758 0.0000 0.0000 0.0000
# 3 104.6564 6.1758 132.0398 0.0000 0.0000 0.0000
# 4 0.0000 0.0000 0.0000 -13.5899 0.0000 0.0000
# 5 0.0000 0.0000 0.0000 0.0000 -12.3816 0.0000
# 6 0.0000 0.0000 0.0000 0.0000 0.0000 17.0600
#
#
#
# Elastic Compliance Matrix: (Units=1/GPa)
#
#
# Indices 1 2 3 4 5 6 
#
# 1 0.009497 0.000105 -0.007532 0.000000 0.000000 0.000000
# 2 0.000105 0.023010 -0.001160 0.000000 0.000000 0.000000
# 3 -0.007532 -0.001160 0.013598 0.000000 0.000000 0.000000
# 4 0.000000 0.000000 0.000000 -0.073584 0.000000 0.000000
# 5 0.000000 0.000000 0.000000 0.000000 -0.080765 0.000000
# 6 0.000000 0.000000 0.000000 0.000000 0.000000 0.058617
#
#
# Mechanical properties :
#
#
# Convention : Reuss Voigt Hill
#
# Bulk Modulus (GPa) = 34.56457 66.06001 50.31229
# Shear Modulus (GPa) = -219.19050 14.80446 -102.19302
#
# Velocity S-wave (km/s) = -10.24743 2.66318 -6.99705
# Velocity P-wave (km/s) = 11.11098 6.41130 6.41674
#
# Compressibility (1/GPa) = 0.02893136
#
# Stress axis : x y z
#
# Youngs Moduli (GPa) = 105.30010 43.45936 73.54168
#
# Poissons Ratio (x) = -0.00457 0.55392
# Poissons Ratio (y) = -0.01107 0.08527
# Poissons Ratio (z) = 0.79313 0.05039
#
# Static dielectric constant tensor:
#      x y z
#    x 1.784290 0.000000 0.000000 
#    y 0.000000 1.799010 0.000000 
#    z 0.000000 0.000000 2.338440 
# 
# From -- ./inp_files/58030.got.cif
#   From: 2010.05.17/outbox.cif.g08.bks.cpg/sg65_30_cif.got.tgz:58030.got - 2010.06.03 17:01:31.
