data_PCOD9490626
_publ_section_title
;
Structure prediction by ZEFSAII (Michael W. Deem and Ramdas Pophale) SiO2 
 PCOD9490626
Probable space group: C M M M
;
_chemical_formula_sum "Si O2"
_cell_formula_units_Z 72
_cell_length_a 8.899354
_cell_length_b 15.895065
_cell_length_c 27.088958
_cell_angle_alpha 90.000000
_cell_angle_beta 90.000000
_cell_angle_gamma 90.000000
_cell_volume 3831.890504
_symmetry_space_group_name_H-M "C M M M"
_symmetry_group_IT_number 65
_symmetry_cell_setting 'orthorhombic'
loop_
_space_group_symop_operation_xyz
x,y,z
-x,-y,z
x,-y,-z
-x,y,-z
-x,-y,-z
x,y,-z
-x,y,z
x,-y,z
1/2+x,1/2+y,z
1/2-x,1/2-y,z
1/2+x,1/2-y,-z
1/2-x,1/2+y,-z
1/2-x,1/2-y,-z
1/2+x,1/2+y,-z
1/2-x,1/2+y,z
1/2+x,1/2-y,z
loop_
_atom_site_type_symbol
_atom_site_label
_atom_site_fract_x
_atom_site_fract_y
_atom_site_fract_z
Si Si1 0.822325 0.839801 0.440795
Si Si2 0.817673 0.000000 0.722037
Si Si3 0.319289 0.343473 0.209033
Si Si4 0.179312 0.158046 0.099089
Si Si5 0.165458 0.401495 0.000000
Si Si6 0.679795 0.000000 0.613322
O O1 0.804927 0.849521 0.500000
O O2 0.750000 0.750000 0.426994
O O3 0.742713 0.917183 0.413978
O O4 0.000000 0.839794 0.429621
O O5 0.775247 0.915265 0.752041
O O6 0.741676 0.000000 0.668903
O O7 0.000000 0.000000 0.717339
O O8 0.500000 0.333807 0.211218
O O9 0.250000 0.250000 0.216306
O O10 0.283065 0.377006 0.153586
O O11 0.250000 0.250000 0.100552
O O12 0.247312 0.118588 0.050075
O O13 0.000000 0.160015 0.094743
O O14 0.146201 0.500000 0.000000
O O15 0.000000 0.359211 0.000000
O O16 0.500000 0.000000 0.612331
#
# Coordination Sequence:
#
# PCOD9490626 Si02
#       6
#    16   8  16  16   8   8
#     4  10  21  39  64  93 125 163 205 250 301 355
#     4  10  22  41  61  83 115 155 197 247 300 349
#     4   9  20  38  62  86 111 145 189 239 293 350
#     4  10  20  36  59  82 107 140 180 225 278 341
#     4  11  24  37  50  77 113 145 178 221 276 333
#     4  12  25  39  58  89 125 165 208 249 299 355
#
# _framework density 18.789680000000001
#
# number of rings (size 3 to 8) (size 9 to 14) (size 15 to 20)
#    0.000    1.889    0.000    3.333    1.556    6.222 
#    0.000    2.222    0.000    0.000    0.000    0.000 
#    0.000    0.000    0.000    0.000    0.000    0.000 
#
# Total GULP energy -200901.009316 kJ/mol
# GULP energy per Si atom -5580.583592 kJ/mol
# Density = 1.874691 g / cm^3
# Si number density = 18.789680 Si / 1000 Ang^3
#
#
#
# Elastic Constant Matrix: (Units=GPa)
#
#
# Indices 1 2 3 4 5 6 
#
# 1 107.6696 68.5670 81.1275 0.0000 0.0000 0.0000
# 2 68.5670 139.0435 95.4372 0.0000 0.0000 0.0000
# 3 81.1275 95.4372 121.0922 0.0000 0.0000 0.0000
# 4 0.0000 0.0000 0.0000 -10.7420 0.0000 0.0000
# 5 0.0000 0.0000 0.0000 0.0000 27.2749 0.0000
# 6 0.0000 0.0000 0.0000 0.0000 0.0000 26.4637
#
#
#
# Elastic Compliance Matrix: (Units=1/GPa)
#
#
# Indices 1 2 3 4 5 6 
#
# 1 0.018875 -0.001368 -0.011567 0.000000 0.000000 0.000000
# 2 -0.001368 0.015767 -0.011510 0.000000 0.000000 0.000000
# 3 -0.011567 -0.011510 0.025079 0.000000 0.000000 0.000000
# 4 0.000000 0.000000 0.000000 -0.093092 0.000000 0.000000
# 5 0.000000 0.000000 0.000000 0.000000 0.036664 0.000000
# 6 0.000000 0.000000 0.000000 0.000000 0.000000 0.037788
#
#
# Mechanical properties :
#
#
# Convention : Reuss Voigt Hill
#
# Bulk Modulus (GPa) = 92.33280 95.34097 93.83688
# Shear Modulus (GPa) = 53.43089 16.77755 35.10422
#
# Velocity S-wave (km/s) = 5.33835 2.99141 4.32704
# Velocity P-wave (km/s) = 9.34046 7.92355 8.66103
#
# Compressibility (1/GPa) = 0.01083039
#
# Stress axis : x y z
#
# Youngs Moduli (GPa) = 52.98152 63.42434 39.87462
#
# Poissons Ratio (x) = 0.08679 0.46122
# Poissons Ratio (y) = 0.07250 0.45894
# Poissons Ratio (z) = 0.61282 0.72999
#
# Static dielectric constant tensor:
#      x y z
#    x 1.681060 0.000000 0.000000 
#    y 0.000000 1.615780 0.000000 
#    z 0.000000 0.000000 1.707270 
# 
# From -- ./inp_files/72624.got.cif
#   From: 2010.05.17/outbox.cif.g08.bks.cpg/sg65_37_cif.got.tgz:72624.got - 2010.06.03 17:01:31.
