data_PCOD9490174
_publ_section_title
;
Structure prediction by ZEFSAII (Michael W. Deem and Ramdas Pophale) SiO2 
 PCOD9490174
Probable space group: C M M M
;
_chemical_formula_sum "Si O2"
_cell_formula_units_Z 44
_cell_length_a 16.015547
_cell_length_b 14.784766
_cell_length_c 7.187622
_cell_angle_alpha 90.000000
_cell_angle_beta 90.000000
_cell_angle_gamma 90.000000
_cell_volume 1701.929088
_symmetry_space_group_name_H-M "C M M M"
_symmetry_group_IT_number 65
_symmetry_cell_setting 'orthorhombic'
loop_
_space_group_symop_operation_xyz
x,y,z
-x,-y,z
x,-y,-z
-x,y,-z
-x,-y,-z
x,y,-z
-x,y,z
x,-y,z
1/2+x,1/2+y,z
1/2-x,1/2-y,z
1/2+x,1/2-y,-z
1/2-x,1/2+y,-z
1/2-x,1/2-y,-z
1/2+x,1/2+y,-z
1/2-x,1/2+y,z
1/2+x,1/2-y,z
loop_
_atom_site_type_symbol
_atom_site_label
_atom_site_fract_x
_atom_site_fract_y
_atom_site_fract_z
Si Si1 0.407256 0.632248 0.780805
Si Si2 0.597860 0.000000 0.773107
Si Si3 0.173173 0.688339 0.221351
Si Si4 0.670980 0.500000 0.500000
O O1 0.500000 0.601521 0.726181
O O2 0.401282 0.739802 0.754675
O O3 0.340871 0.578135 0.661737
O O4 0.395429 0.615155 0.000000
O O5 0.646240 0.909852 0.708471
O O6 0.500000 0.000000 0.719344
O O7 0.598074 0.000000 0.000000
O O8 0.250000 0.750000 0.290100
O O9 0.188375 0.675976 0.000000
#
# Coordination Sequence:
#
# PCOD9490174 Si02
#       4
#    16   8  16   4
#     4  10  20  35  56  83 115 152 196 244 293 350
#     4   9  16  29  51  78 110 151 195 236 286 351
#     4   9  18  32  53  83 115 148 191 243 295 348
#     4  12  23  36  56  82 114 154 195 238 295 358
#
# _framework density 25.853016
#
# number of rings (size 3 to 8) (size 9 to 14) (size 15 to 20)
#    0.000    2.364    0.000    3.273    0.000    7.273 
#    0.000    6.364    0.000    1.091    0.000    3.818 
#    0.000    0.000    0.000    0.000    0.000    1.818 
#
# Total GULP energy -122528.752429 kJ/mol
# GULP energy per Si atom -5569.488747 kJ/mol
# Density = 2.579417 g / cm^3
# Si number density = 25.853016 Si / 1000 Ang^3
#
#
#
# Elastic Constant Matrix: (Units=GPa)
#
#
# Indices 1 2 3 4 5 6 
#
# 1 153.0077 73.6353 2.1746 0.0000 0.0000 0.0000
# 2 73.6353 284.2156 36.8638 0.0000 0.0000 0.0000
# 3 2.1746 36.8638 141.1934 0.0000 0.0000 0.0000
# 4 0.0000 0.0000 0.0000 66.9148 0.0000 0.0000
# 5 0.0000 0.0000 0.0000 0.0000 44.6130 0.0000
# 6 0.0000 0.0000 0.0000 0.0000 0.0000 11.3473
#
#
#
# Elastic Compliance Matrix: (Units=1/GPa)
#
#
# Indices 1 2 3 4 5 6 
#
# 1 0.007489 -0.001993 0.000405 0.000000 0.000000 0.000000
# 2 -0.001993 0.004172 -0.001059 0.000000 0.000000 0.000000
# 3 0.000405 -0.001059 0.007353 0.000000 0.000000 0.000000
# 4 0.000000 0.000000 0.000000 0.014944 0.000000 0.000000
# 5 0.000000 0.000000 0.000000 0.000000 0.022415 0.000000
# 6 0.000000 0.000000 0.000000 0.000000 0.000000 0.088127
#
#
# Mechanical properties :
#
#
# Convention : Reuss Voigt Hill
#
# Bulk Modulus (GPa) = 72.88223 89.30714 81.09468
# Shear Modulus (GPa) = 32.39050 55.62455 44.00752
#
# Velocity S-wave (km/s) = 3.54343 4.64353 4.13027
# Velocity P-wave (km/s) = 6.70771 7.96047 7.36079
#
# Compressibility (1/GPa) = 0.01372077
#
# Stress axis : x y z
#
# Youngs Moduli (GPa) = 133.53127 239.69054 136.00580
#
# Poissons Ratio (x) = 0.47765 -0.05507
# Poissons Ratio (y) = 0.26610 0.14397
# Poissons Ratio (z) = -0.05407 0.25373
#
# Static dielectric constant tensor:
#      x y z
#    x 2.107420 0.000000 0.000000 
#    y 0.000000 2.018780 0.000000 
#    z 0.000000 0.000000 1.972050 
# 
# From -- ./inp_files/8123.got.cif
#   From: 2010.05.17/outbox.cif.g08.bks.cpg/sg65_5_cif.got.tgz:8123.got - 2010.06.03 17:01:31.
