data_PCOD9490060
_publ_section_title
;
Structure prediction by ZEFSAII (Michael W. Deem and Ramdas Pophale) SiO2 
 PCOD9490060
Probable space group: C M M M
;
_chemical_formula_sum "Si O2"
_cell_formula_units_Z 88
_cell_length_a 15.009326
_cell_length_b 14.982621
_cell_length_c 18.550859
_cell_angle_alpha 90.000000
_cell_angle_beta 90.000000
_cell_angle_gamma 90.000000
_cell_volume 4171.699417
_symmetry_space_group_name_H-M "C M M M"
_symmetry_group_IT_number 65
_symmetry_cell_setting 'orthorhombic'
loop_
_space_group_symop_operation_xyz
x,y,z
-x,-y,z
x,-y,-z
-x,y,-z
-x,-y,-z
x,y,-z
-x,y,z
x,-y,z
1/2+x,1/2+y,z
1/2-x,1/2-y,z
1/2+x,1/2-y,-z
1/2-x,1/2+y,-z
1/2-x,1/2-y,-z
1/2+x,1/2+y,-z
1/2-x,1/2+y,z
1/2+x,1/2-y,z
loop_
_atom_site_type_symbol
_atom_site_label
_atom_site_fract_x
_atom_site_fract_y
_atom_site_fract_z
Si Si1 0.602311 0.108122 0.285000
Si Si2 0.724807 0.852859 0.579445
Si Si3 0.900866 0.109438 0.819218
Si Si4 0.602388 0.109171 0.000000
Si Si5 0.708402 0.890653 0.858240
Si Si6 0.595383 0.604594 0.344826
O O1 0.500000 0.139421 0.281675
O O2 0.651431 0.133329 0.359041
O O3 0.659696 0.137780 0.215689
O O4 0.600968 0.000000 0.282581
O O5 0.698041 0.885622 0.500000
O O6 0.750000 0.750000 0.574860
O O7 0.819201 0.890445 0.605470
O O8 0.811527 0.138387 0.859652
O O9 0.889904 0.140847 0.735935
O O10 0.000000 0.137081 0.843880
O O11 0.900485 0.000000 0.820835
O O12 0.653449 0.137699 0.927989
O O13 0.500000 0.138199 0.000000
O O14 0.602102 0.000000 0.000000
O O15 0.708240 0.000000 0.857380
O O16 0.500000 0.639725 0.373423
O O17 0.585030 0.500000 0.332697
#
# Coordination Sequence:
#
# PCOD9490060 Si02
#       6
#    16  16  16   8  16  16
#     4  10  20  35  56  78 101 136 180 220 258 307
#     4  11  24  38  51  72 105 140 170 209 264 319
#     4   8  13  23  43  69  94 121 157 204 254 298
#     4   9  16  24  37  65 104 139 168 204 256 311
#     4   9  15  26  45  70 102 135 166 207 258 310
#     4   9  17  32  55  78  97 123 166 218 262 301
#
# _framework density 21.094522000000001
#
# number of rings (size 3 to 8) (size 9 to 14) (size 15 to 20)
#    0.000    2.636    1.818    2.182    0.000    5.091 
#    0.000    4.091    0.000    2.727    0.000    0.636 
#    0.000    0.000    0.000    0.000    0.000    0.000 
#
# Total GULP energy -245372.099194 kJ/mol
# GULP energy per Si atom -5576.638618 kJ/mol
# Density = 2.104651 g / cm^3
# Si number density = 21.094522 Si / 1000 Ang^3
#
#
#
# Elastic Constant Matrix: (Units=GPa)
#
#
# Indices 1 2 3 4 5 6 
#
# 1 217.8868 7.4428 117.4412 0.0000 0.0000 0.0000
# 2 7.4428 22.2544 4.2180 0.0000 0.0000 0.0000
# 3 117.4412 4.2180 147.5976 0.0000 0.0000 0.0000
# 4 0.0000 0.0000 0.0000 34.8483 0.0000 0.0000
# 5 0.0000 0.0000 0.0000 0.0000 18.5462 0.0000
# 6 0.0000 0.0000 0.0000 0.0000 0.0000 -14.8961
#
#
#
# Elastic Compliance Matrix: (Units=1/GPa)
#
#
# Indices 1 2 3 4 5 6 
#
# 1 0.008085 -0.001493 -0.006390 0.000000 0.000000 0.000000
# 2 -0.001493 0.045455 -0.000111 0.000000 0.000000 0.000000
# 3 -0.006390 -0.000111 0.011863 0.000000 0.000000 0.000000
# 4 0.000000 0.000000 0.000000 0.028696 0.000000 0.000000
# 5 0.000000 0.000000 0.000000 0.000000 0.053919 0.000000
# 6 0.000000 0.000000 0.000000 0.000000 0.000000 -0.067132
#
#
# Mechanical properties :
#
#
# Convention : Reuss Voigt Hill
#
# Bulk Modulus (GPa) = 20.23697 71.77141 46.00419
# Shear Modulus (GPa) = 44.11211 24.94211 34.52711
#
# Velocity S-wave (km/s) = 4.57789 3.44233 4.05010
# Velocity P-wave (km/s) = 6.12838 7.06379 6.61264
#
# Compressibility (1/GPa) = 0.04941451
#
# Stress axis : x y z
#
# Youngs Moduli (GPa) = 123.68612 21.99966 84.29473
#
# Poissons Ratio (x) = 0.03284 0.53868
# Poissons Ratio (y) = 0.18463 0.00938
# Poissons Ratio (z) = 0.79041 0.00245
#
# Static dielectric constant tensor:
#      x y z
#    x 1.724390 0.000000 0.000000 
#    y 0.000000 1.769490 0.000000 
#    z 0.000000 0.000000 1.748530 
# 
# From -- ./inp_files/53020.got.cif
#   From: 2010.05.17/outbox.cif.g08.bks.cpg/sg65_27_cif.got.tgz:53020.got - 2010.06.03 17:01:31.
