data_PCOD9490879
_publ_section_title
;
Structure prediction by ZEFSAII (Michael W. Deem and Ramdas Pophale) SiO2 
 PCOD9490879
Probable space group: C M M M
;
_chemical_formula_sum "Si O2"
_cell_formula_units_Z 82
_cell_length_a 16.766923
_cell_length_b 22.362801
_cell_length_c 11.815797
_cell_angle_alpha 90.000000
_cell_angle_beta 90.000000
_cell_angle_gamma 90.000000
_cell_volume 4430.396447
_symmetry_space_group_name_H-M "C M M M"
_symmetry_group_IT_number 65
_symmetry_cell_setting 'orthorhombic'
loop_
_space_group_symop_operation_xyz
x,y,z
-x,-y,z
x,-y,-z
-x,y,-z
-x,-y,-z
x,y,-z
-x,y,z
x,-y,z
1/2+x,1/2+y,z
1/2-x,1/2-y,z
1/2+x,1/2-y,-z
1/2-x,1/2+y,-z
1/2-x,1/2-y,-z
1/2+x,1/2+y,-z
1/2-x,1/2+y,z
1/2+x,1/2-y,z
loop_
_atom_site_type_symbol
_atom_site_label
_atom_site_fract_x
_atom_site_fract_y
_atom_site_fract_z
Si Si1 0.406483 0.000000 0.863817
Si Si2 0.820279 0.387017 0.751180
Si Si3 0.154242 0.144183 0.865623
Si Si4 0.500000 0.568445 0.862416
Si Si5 0.500000 0.000000 0.500000
Si Si6 0.408186 0.758483 0.500000
Si Si7 0.635530 0.896855 0.500000
Si Si8 0.403315 0.240430 0.251756
O O1 0.364604 0.941653 0.812447
O O2 0.500000 0.000000 0.830913
O O3 0.400821 0.000000 0.000000
O O4 0.733981 0.376092 0.803605
O O5 0.816579 0.400244 0.617197
O O6 0.871315 0.326265 0.767525
O O7 0.132011 0.212263 0.835435
O O8 0.079066 0.103992 0.827963
O O9 0.164545 0.137527 0.000000
O O10 0.500000 0.500000 0.823790
O O11 0.500000 0.568109 0.000000
O O12 0.569189 0.947719 0.500000
O O13 0.500000 0.739250 0.500000
O O14 0.403947 0.830708 0.500000
O O15 0.374490 0.739951 0.621650
O O16 0.500000 0.240589 0.248736
#
# Coordination Sequence:
#
# PCOD9490879 Si02
#       8
#     8  16  16   8   2   8   8  16
#     4  11  25  42  59  88 125 167 208 238 300 383
#     4  11  24  39  61  90 127 163 205 263 312 368
#     4  11  23  40  62  91 122 158 210 260 318 379
#     4   9  20  40  65  85 108 154 210 259 303 363
#     4  12  20  36  64  88 126 162 208 252 290 358
#     4   8  16  33  55  84 117 152 201 250 305 364
#     4  10  22  35  60  91 117 163 210 253 300 363
#     4  10  20  37  61  90 122 161 207 259 314 376
#
# _framework density 18.508503000000001
#
# number of rings (size 3 to 8) (size 9 to 14) (size 15 to 20)
#    0.000    1.756    1.463    2.341    5.463    3.122 
#    0.000    2.927    0.000    0.000    0.000    2.732 
#    0.000    0.000    0.000    0.000    0.000    0.000 
#
# Total GULP energy -228638.172329 kJ/mol
# GULP energy per Si atom -5576.540789 kJ/mol
# Density = 1.846638 g / cm^3
# Si number density = 18.508503 Si / 1000 Ang^3
#
#
#
# Elastic Constant Matrix: (Units=GPa)
#
#
# Indices 1 2 3 4 5 6 
#
# 1 147.9774 62.6690 75.3702 0.0000 0.0000 0.0000
# 2 62.6690 110.0706 48.8511 0.0000 0.0000 0.0000
# 3 75.3702 48.8511 94.5687 0.0000 0.0000 0.0000
# 4 0.0000 0.0000 0.0000 -9.5150 0.0000 0.0000
# 5 0.0000 0.0000 0.0000 0.0000 10.8249 0.0000
# 6 0.0000 0.0000 0.0000 0.0000 0.0000 139.6520
#
#
#
# Elastic Compliance Matrix: (Units=1/GPa)
#
#
# Indices 1 2 3 4 5 6 
#
# 1 0.012305 -0.003443 -0.008029 0.000000 0.000000 0.000000
# 2 -0.003443 0.012751 -0.003843 0.000000 0.000000 0.000000
# 3 -0.008029 -0.003843 0.018958 0.000000 0.000000 0.000000
# 4 0.000000 0.000000 0.000000 -0.105097 0.000000 0.000000
# 5 0.000000 0.000000 0.000000 0.000000 0.092380 0.000000
# 6 0.000000 0.000000 0.000000 0.000000 0.000000 0.007161
#
#
# Mechanical properties :
#
#
# Convention : Reuss Voigt Hill
#
# Bulk Modulus (GPa) = 74.70694 80.71080 77.70887
# Shear Modulus (GPa) = 67.98388 39.24081 53.61234
#
# Velocity S-wave (km/s) = 6.06720 4.60950 5.38788
# Velocity P-wave (km/s) = 9.46216 8.48717 8.98790
#
# Compressibility (1/GPa) = 0.01338564
#
# Stress axis : x y z
#
# Youngs Moduli (GPa) = 81.26756 78.42720 52.74792
#
# Poissons Ratio (x) = 0.27000 0.42349
# Poissons Ratio (y) = 0.27978 0.20270
# Poissons Ratio (z) = 0.65246 0.30138
#
# Static dielectric constant tensor:
#      x y z
#    x 1.613350 0.000000 0.000000 
#    y 0.000000 1.611350 0.000000 
#    z 0.000000 0.000000 1.680030 
# 
# From -- ./inp_files/26774.got.cif
#   From: 2010.05.17/outbox.cif.g08.bks.cpg/sg65_14_cif.got.tgz:26774.got - 2010.06.03 17:01:31.
