data_PCOD9490866
_publ_section_title
;
Structure prediction by ZEFSAII (Michael W. Deem and Ramdas Pophale) SiO2 
 PCOD9490866
Probable space group: C M M M
;
_chemical_formula_sum "Si O2"
_cell_formula_units_Z 56
_cell_length_a 17.517181
_cell_length_b 8.364835
_cell_length_c 18.570731
_cell_angle_alpha 90.000000
_cell_angle_beta 90.000000
_cell_angle_gamma 90.000000
_cell_volume 2721.138177
_symmetry_space_group_name_H-M "C M M M"
_symmetry_group_IT_number 65
_symmetry_cell_setting 'orthorhombic'
loop_
_space_group_symop_operation_xyz
x,y,z
-x,-y,z
x,-y,-z
-x,y,-z
-x,-y,-z
x,y,-z
-x,y,z
x,-y,z
1/2+x,1/2+y,z
1/2-x,1/2-y,z
1/2+x,1/2-y,-z
1/2-x,1/2+y,-z
1/2-x,1/2-y,-z
1/2+x,1/2+y,-z
1/2-x,1/2+y,z
1/2+x,1/2-y,z
loop_
_atom_site_type_symbol
_atom_site_label
_atom_site_fract_x
_atom_site_fract_y
_atom_site_fract_z
Si Si1 0.335972 0.811614 0.586600
Si Si2 0.909761 0.000000 0.342965
Si Si3 0.083659 0.745167 0.919965
Si Si4 0.136633 0.000000 0.183209
Si Si5 0.220536 0.500000 0.920255
O O1 0.344385 0.813345 0.500000
O O2 0.250000 0.750000 0.603020
O O3 0.388383 0.667143 0.616977
O O4 0.346617 0.000000 0.610329
O O5 0.863211 0.000000 0.268159
O O6 0.000000 0.000000 0.328365
O O7 0.091038 0.853443 0.850623
O O8 0.160828 0.644186 0.917278
O O9 0.000000 0.666753 0.916872
O O10 0.084797 0.821387 0.000000
O O11 0.218591 0.000000 0.143148
O O12 0.257014 0.500000 0.000000
#
# Coordination Sequence:
#
# PCOD9490866 Si02
#       5
#    16   8  16   8   8
#     4  10  21  43  76 107 135 174 223 272 326 392
#     4  12  27  44  63 100 148 183 222 275 332 395
#     4  10  20  37  61  87 117 157 209 268 326 383
#     4  12  24  39  56  84 126 170 212 258 318 385
#     4  10  21  38  61  88 116 156 214 272 322 380
#
# _framework density 20.579625
#
# number of rings (size 3 to 8) (size 9 to 14) (size 15 to 20)
#    0.000    1.429    1.429    4.286    0.000    9.143 
#    2.571    1.429    0.000    0.000    0.000    0.000 
#    0.000    0.000    0.000    0.000    0.000    0.000 
#
# Total GULP energy -155930.498724 kJ/mol
# GULP energy per Si atom -5568.946383 kJ/mol
# Density = 2.053278 g / cm^3
# Si number density = 20.579625 Si / 1000 Ang^3
#
#
#
# Elastic Constant Matrix: (Units=GPa)
#
#
# Indices 1 2 3 4 5 6 
#
# 1 155.5997 37.8500 33.9397 0.0000 0.0000 0.0000
# 2 37.8500 145.8992 45.4838 0.0000 0.0000 0.0000
# 3 33.9397 45.4838 67.2224 0.0000 0.0000 0.0000
# 4 0.0000 0.0000 0.0000 22.4786 0.0000 0.0000
# 5 0.0000 0.0000 0.0000 0.0000 332.6911 0.0000
# 6 0.0000 0.0000 0.0000 0.0000 0.0000 38.3927
#
#
#
# Elastic Compliance Matrix: (Units=1/GPa)
#
#
# Indices 1 2 3 4 5 6 
#
# 1 0.007324 -0.000947 -0.003057 0.000000 0.000000 0.000000
# 2 -0.000947 0.008809 -0.005482 0.000000 0.000000 0.000000
# 3 -0.003057 -0.005482 0.020129 0.000000 0.000000 0.000000
# 4 0.000000 0.000000 0.000000 0.044487 0.000000 0.000000
# 5 0.000000 0.000000 0.000000 0.000000 0.003006 0.000000
# 6 0.000000 0.000000 0.000000 0.000000 0.000000 0.026047
#
#
# Mechanical properties :
#
#
# Convention : Reuss Voigt Hill
#
# Bulk Modulus (GPa) = 57.83928 67.02982 62.43455
# Shear Modulus (GPa) = 37.16490 95.47568 66.32029
#
# Velocity S-wave (km/s) = 4.25421 6.81865 5.68297
# Velocity P-wave (km/s) = 7.23168 9.72799 8.57120
#
# Compressibility (1/GPa) = 0.01728929
#
# Stress axis : x y z
#
# Youngs Moduli (GPa) = 136.53926 113.52381 49.68048
#
# Poissons Ratio (x) = 0.10751 0.15187
# Poissons Ratio (y) = 0.12930 0.27235
# Poissons Ratio (z) = 0.41740 0.62234
#
# Static dielectric constant tensor:
#      x y z
#    x 1.728010 0.000000 0.000000 
#    y 0.000000 1.924530 0.000000 
#    z 0.000000 0.000000 1.686220 
# 
# From -- ./inp_files/43578.got.cif
#   From: 2010.05.17/outbox.cif.g08.bks.cpg/sg65_22_cif.got.tgz:43578.got - 2010.06.03 17:01:31.
