data_PCOD9490536
_publ_section_title
;
Structure prediction by ZEFSAII (Michael W. Deem and Ramdas Pophale) SiO2 
 PCOD9490536
Probable space group: C M M M
;
_chemical_formula_sum "Si O2"
_cell_formula_units_Z 88
_cell_length_a 8.571645
_cell_length_b 26.369081
_cell_length_c 21.379505
_cell_angle_alpha 90.000000
_cell_angle_beta 90.000000
_cell_angle_gamma 90.000000
_cell_volume 4832.332577
_symmetry_space_group_name_H-M "C M M M"
_symmetry_group_IT_number 65
_symmetry_cell_setting 'orthorhombic'
loop_
_space_group_symop_operation_xyz
x,y,z
-x,-y,z
x,-y,-z
-x,y,-z
-x,-y,-z
x,y,-z
-x,y,z
x,-y,z
1/2+x,1/2+y,z
1/2-x,1/2-y,z
1/2+x,1/2-y,-z
1/2-x,1/2+y,-z
1/2-x,1/2-y,-z
1/2+x,1/2+y,-z
1/2-x,1/2+y,z
1/2+x,1/2-y,z
loop_
_atom_site_type_symbol
_atom_site_label
_atom_site_fract_x
_atom_site_fract_y
_atom_site_fract_z
Si Si1 0.687151 0.559270 0.000000
Si Si2 0.187273 0.500000 0.642367
Si Si3 0.312850 0.694583 0.201362
Si Si4 0.188953 0.900898 0.427554
Si Si5 0.812669 0.596793 0.868450
Si Si6 0.812100 0.195000 0.346184
Si Si7 0.689777 0.000000 0.213489
O O1 0.750785 0.585417 0.062407
O O2 0.736154 0.500000 0.000000
O O3 0.500000 0.561053 0.000000
O O4 0.247762 0.450320 0.607096
O O5 0.241683 0.500000 0.714629
O O6 0.000000 0.500000 0.642097
O O7 0.500000 0.694804 0.198920
O O8 0.250000 0.750000 0.182997
O O9 0.248033 0.649507 0.159188
O O10 0.263974 0.685993 0.273962
O O11 0.237366 0.899966 0.500000
O O12 0.240491 0.850542 0.390611
O O13 0.000000 0.902466 0.425905
O O14 0.760029 0.550323 0.823623
O O15 0.000000 0.597134 0.869265
O O16 0.750000 0.250000 0.365499
O O17 0.000000 0.196456 0.347399
O O18 0.500000 0.000000 0.213616
#
# Coordination Sequence:
#
# PCOD9490536 Si02
#       7
#     8   8  16  16  16  16   8
#     4  11  23  39  58  85 120 153 187 226 268 318
#     4  11  22  36  54  79 108 140 183 232 277 324
#     4  10  20  36  57  83 113 146 186 231 279 330
#     4  10  21  37  54  74 106 147 185 224 277 338
#     4  11  21  37  60  85 114 150 187 225 274 328
#     4   9  19  35  56  81 109 142 182 229 280 331
#     4   9  20  35  55  83 113 142 177 226 281 331
#
# _framework density 18.210667000000001
#
# number of rings (size 3 to 8) (size 9 to 14) (size 15 to 20)
#    0.000    1.909    0.909    3.000    0.000    3.636 
#    0.000    3.182    0.000    0.000    0.000    0.000 
#    0.000    0.000    0.000    0.000    0.000    0.000 
#
# Total GULP energy -245806.427537 kJ/mol
# GULP energy per Si atom -5586.509717 kJ/mol
# Density = 1.816922 g / cm^3
# Si number density = 18.210667 Si / 1000 Ang^3
#
#
#
# Elastic Constant Matrix: (Units=GPa)
#
#
# Indices 1 2 3 4 5 6 
#
# 1 34.6638 41.9801 39.6526 0.0000 0.0000 0.0000
# 2 41.9801 203.7347 136.0249 0.0000 0.0000 0.0000
# 3 39.6526 136.0249 172.1103 0.0000 0.0000 0.0000
# 4 0.0000 0.0000 0.0000 -53.1866 0.0000 0.0000
# 5 0.0000 0.0000 0.0000 0.0000 24.2739 0.0000
# 6 0.0000 0.0000 0.0000 0.0000 0.0000 31.5120
#
#
#
# Elastic Compliance Matrix: (Units=1/GPa)
#
#
# Indices 1 2 3 4 5 6 
#
# 1 0.041065 -0.004541 -0.005872 0.000000 0.000000 0.000000
# 2 -0.004541 0.010894 -0.007564 0.000000 0.000000 0.000000
# 3 -0.005872 -0.007564 0.013141 0.000000 0.000000 0.000000
# 4 0.000000 0.000000 0.000000 -0.018802 0.000000 0.000000
# 5 0.000000 0.000000 0.000000 0.000000 0.041196 0.000000
# 6 0.000000 0.000000 0.000000 0.000000 0.000000 0.031734
#
#
# Mechanical properties :
#
#
# Convention : Reuss Voigt Hill
#
# Bulk Modulus (GPa) = 34.30947 93.98046 64.14496
# Shear Modulus (GPa) = 30.32179 13.37663 21.84921
#
# Velocity S-wave (km/s) = 4.08494 2.71320 3.46757
# Velocity P-wave (km/s) = 6.41328 7.84440 7.16466
#
# Compressibility (1/GPa) = 0.02914648
#
# Stress axis : x y z
#
# Youngs Moduli (GPa) = 24.35154 91.79366 76.09799
#
# Poissons Ratio (x) = 0.41684 0.44685
# Poissons Ratio (y) = 0.11058 0.57558
# Poissons Ratio (z) = 0.14299 0.69430
#
# Static dielectric constant tensor:
#      x y z
#    x 1.622010 0.000000 0.000000 
#    y 0.000000 1.591060 0.000000 
#    z 0.000000 0.000000 1.605630 
# 
# From -- ./inp_files/59921.got.cif
#   From: 2010.05.17/outbox.cif.g08.bks.cpg/sg65_30_cif.got.tgz:59921.got - 2010.06.03 17:01:31.
