data_PCOD9490320
_publ_section_title
;
Structure prediction by ZEFSAII (Michael W. Deem and Ramdas Pophale) SiO2 
 PCOD9490320
Probable space group: C M M M
;
_chemical_formula_sum "Si O2"
_cell_formula_units_Z 112
_cell_length_a 14.525742
_cell_length_b 14.554899
_cell_length_c 26.811327
_cell_angle_alpha 90.000000
_cell_angle_beta 90.000000
_cell_angle_gamma 90.000000
_cell_volume 5668.469729
_symmetry_space_group_name_H-M "C M M M"
_symmetry_group_IT_number 65
_symmetry_cell_setting 'orthorhombic'
loop_
_space_group_symop_operation_xyz
x,y,z
-x,-y,z
x,-y,-z
-x,y,-z
-x,-y,-z
x,y,-z
-x,y,z
x,-y,z
1/2+x,1/2+y,z
1/2-x,1/2-y,z
1/2+x,1/2-y,-z
1/2-x,1/2+y,-z
1/2-x,1/2-y,-z
1/2+x,1/2+y,-z
1/2-x,1/2+y,z
1/2+x,1/2-y,z
loop_
_atom_site_type_symbol
_atom_site_label
_atom_site_fract_x
_atom_site_fract_y
_atom_site_fract_z
Si Si1 0.395181 0.603928 0.396357
Si Si2 0.608954 0.793159 0.647796
Si Si3 0.705480 0.891576 0.555306
Si Si4 0.599276 0.393005 0.884332
Si Si5 0.110478 0.391250 0.251878
Si Si6 0.357416 0.225672 0.054384
Si Si7 0.194662 0.609776 0.147155
O O1 0.500000 0.614325 0.415467
O O2 0.386254 0.500000 0.376493
O O3 0.380158 0.683560 0.355985
O O4 0.315500 0.615615 0.437040
O O5 0.500000 0.813848 0.643870
O O6 0.658437 0.837139 0.600065
O O7 0.642256 0.836262 0.699427
O O8 0.679330 0.859349 0.500000
O O9 0.682213 0.000000 0.559397
O O10 0.500000 0.382796 0.857402
O O11 0.606051 0.500000 0.899665
O O12 0.597926 0.321656 0.929672
O O13 0.695336 0.371274 0.856500
O O14 0.129691 0.500000 0.258886
O O15 0.156166 0.359907 0.200414
O O16 0.000000 0.381092 0.247348
O O17 0.250000 0.250000 0.050286
O O18 0.359469 0.156509 0.101168
O O19 0.388563 0.191920 0.000000
O O20 0.182663 0.500000 0.143543
#
# Coordination Sequence:
#
# PCOD9490320 Si02
#       7
#    16  16  16  16  16  16  16
#     4   9  19  36  56  79 108 143 185 227 266 317
#     4  10  20  35  58  85 111 142 180 224 275 328
#     4  10  21  36  55  81 113 147 182 224 274 325
#     4   9  18  33  53  78 108 142 182 225 269 323
#     4   9  18  34  57  83 109 139 178 223 271 326
#     4   9  18  32  50  75 108 144 181 221 265 315
#     4   9  18  34  57  83 110 142 180 224 275 327
#
# _framework density 19.758417999999999
#
# number of rings (size 3 to 8) (size 9 to 14) (size 15 to 20)
#    0.000    2.714    0.000    0.857    0.000    4.000 
#    0.000   11.429    0.000    5.143    0.000   13.000 
#    0.000    0.000    0.000    0.000    0.000    0.000 
#
# Total GULP energy -312078.823283 kJ/mol
# GULP energy per Si atom -5572.836130 kJ/mol
# Density = 1.971345 g / cm^3
# Si number density = 19.758418 Si / 1000 Ang^3
#
#
#
# Elastic Constant Matrix: (Units=GPa)
#
#
# Indices 1 2 3 4 5 6 
#
# 1 68.2006 37.8619 50.3977 0.0000 0.0000 0.0000
# 2 37.8619 72.0526 73.0864 0.0000 0.0000 0.0000
# 3 50.3977 73.0864 177.2022 0.0000 0.0000 0.0000
# 4 0.0000 0.0000 0.0000 22.1107 0.0000 0.0000
# 5 0.0000 0.0000 0.0000 0.0000 53.3703 0.0000
# 6 0.0000 0.0000 0.0000 0.0000 0.0000 19.3608
#
#
#
# Elastic Compliance Matrix: (Units=1/GPa)
#
#
# Indices 1 2 3 4 5 6 
#
# 1 0.021318 -0.008686 -0.002480 0.000000 0.000000 0.000000
# 2 -0.008686 0.027401 -0.008831 0.000000 0.000000 0.000000
# 3 -0.002480 -0.008831 0.009991 0.000000 0.000000 0.000000
# 4 0.000000 0.000000 0.000000 0.045227 0.000000 0.000000
# 5 0.000000 0.000000 0.000000 0.000000 0.018737 0.000000
# 6 0.000000 0.000000 0.000000 0.000000 0.000000 0.051651
#
#
# Mechanical properties :
#
#
# Convention : Reuss Voigt Hill
#
# Bulk Modulus (GPa) = 53.43383 71.12746 62.28064
# Shear Modulus (GPa) = 22.66992 29.37566 26.02279
#
# Velocity S-wave (km/s) = 3.39094 3.86001 3.63305
# Velocity P-wave (km/s) = 6.51410 7.47950 7.01343
#
# Compressibility (1/GPa) = 0.01871474
#
# Stress axis : x y z
#
# Youngs Moduli (GPa) = 46.90966 36.49556 100.08989
#
# Poissons Ratio (x) = 0.31699 0.24827
# Poissons Ratio (y) = 0.40745 0.88389
# Poissons Ratio (z) = 0.11636 0.32229
#
# Static dielectric constant tensor:
#      x y z
#    x 1.750620 0.000000 0.000000 
#    y 0.000000 1.710020 0.000000 
#    z 0.000000 0.000000 1.669170 
# 
# From -- ./inp_files/69979.got.cif
#   From: 2010.05.17/outbox.cif.g08.bks.cpg/sg65_35_cif.got.tgz:69979.got - 2010.06.03 17:01:31.
