data_PCOD9490593
_publ_section_title
;
Structure prediction by ZEFSAII (Michael W. Deem and Ramdas Pophale) SiO2 
 PCOD9490593
Probable space group: C M M M
;
_chemical_formula_sum "Si O2"
_cell_formula_units_Z 72
_cell_length_a 27.551735
_cell_length_b 15.907068
_cell_length_c 8.499549
_cell_angle_alpha 90.000000
_cell_angle_beta 90.000000
_cell_angle_gamma 90.000000
_cell_volume 3725.074580
_symmetry_space_group_name_H-M "C M M M"
_symmetry_group_IT_number 65
_symmetry_cell_setting 'orthorhombic'
loop_
_space_group_symop_operation_xyz
x,y,z
-x,-y,z
x,-y,-z
-x,y,-z
-x,-y,-z
x,y,-z
-x,y,z
x,-y,z
1/2+x,1/2+y,z
1/2-x,1/2-y,z
1/2+x,1/2-y,-z
1/2-x,1/2+y,-z
1/2-x,1/2-y,-z
1/2+x,1/2+y,-z
1/2-x,1/2+y,z
1/2+x,1/2-y,z
loop_
_atom_site_type_symbol
_atom_site_label
_atom_site_fract_x
_atom_site_fract_y
_atom_site_fract_z
Si Si1 0.556123 0.000000 0.811340
Si Si2 0.779478 0.666926 0.190488
Si Si3 0.110773 0.335026 0.688653
Si Si4 0.889550 0.000000 0.188731
Si Si5 0.056155 0.165188 0.309725
Si Si6 0.777736 0.000000 0.808223
O O1 0.583478 0.082897 0.751872
O O2 0.500000 0.000000 0.757871
O O3 0.556860 0.000000 0.000000
O O4 0.750000 0.750000 0.238991
O O5 0.833876 0.666766 0.254284
O O6 0.750631 0.583607 0.241857
O O7 0.781738 0.666467 0.000000
O O8 0.109750 0.337337 0.500000
O O9 0.083290 0.250205 0.741572
O O10 0.916697 0.083044 0.247831
O O11 0.833562 0.000000 0.243765
O O12 0.889584 0.000000 0.000000
O O13 0.056902 0.162974 0.500000
O O14 0.000000 0.165839 0.259097
O O15 0.778101 0.000000 0.000000
#
# Coordination Sequence:
#
# PCOD9490593 Si02
#       6
#     8  16  16   8  16   8
#     4  11  24  41  62  88 118 153 194 243 298 356
#     4  10  20  36  58  82 113 154 194 235 286 343
#     4  11  23  39  61  88 118 154 196 242 291 347
#     4  11  22  37  60  88 114 145 192 243 284 330
#     4  10  22  40  59  81 115 156 190 226 283 348
#     4   9  19  35  54  78 110 147 184 225 280 338
#
# _framework density 19.328472000000001
#
# number of rings (size 3 to 8) (size 9 to 14) (size 15 to 20)
#    0.000    1.667    0.000    4.333    0.000    8.444 
#    0.000    2.222    0.000    0.000    0.000    0.000 
#    0.000    0.000    0.000    0.000    0.000    0.000 
#
# Total GULP energy -201291.794738 kJ/mol
# GULP energy per Si atom -5591.438743 kJ/mol
# Density = 1.928448 g / cm^3
# Si number density = 19.328472 Si / 1000 Ang^3
#
#
#
# Elastic Constant Matrix: (Units=GPa)
#
#
# Indices 1 2 3 4 5 6 
#
# 1 243.4722 150.2417 39.6676 0.0000 0.0000 0.0000
# 2 150.2417 245.2885 39.8089 0.0000 0.0000 0.0000
# 3 39.6676 39.8089 19.1082 0.0000 0.0000 0.0000
# 4 0.0000 0.0000 0.0000 -28.3877 0.0000 0.0000
# 5 0.0000 0.0000 0.0000 0.0000 6.9878 0.0000
# 6 0.0000 0.0000 0.0000 0.0000 0.0000 46.4710
#
#
#
# Elastic Compliance Matrix: (Units=1/GPa)
#
#
# Indices 1 2 3 4 5 6 
#
# 1 0.007520 -0.003131 -0.009088 0.000000 0.000000 0.000000
# 2 -0.003131 0.007463 -0.009048 0.000000 0.000000 0.000000
# 3 -0.009088 -0.009048 0.090050 0.000000 0.000000 0.000000
# 4 0.000000 0.000000 0.000000 -0.035226 0.000000 0.000000
# 5 0.000000 0.000000 0.000000 0.000000 0.143107 0.000000
# 6 0.000000 0.000000 0.000000 0.000000 0.000000 0.021519
#
#
# Mechanical properties :
#
#
# Convention : Reuss Voigt Hill
#
# Bulk Modulus (GPa) = 16.00039 107.47838 61.73938
# Shear Modulus (GPa) = 16.78980 23.55759 20.17369
#
# Velocity S-wave (km/s) = 2.95049 3.49492 3.23418
# Velocity P-wave (km/s) = 4.46132 8.48604 6.77924
#
# Compressibility (1/GPa) = 0.06249849
#
# Stress axis : x y z
#
# Youngs Moduli (GPa) = 132.97686 133.99090 11.10498
#
# Poissons Ratio (x) = 0.41956 0.10092
# Poissons Ratio (y) = 0.41638 0.10048
# Poissons Ratio (z) = 1.20848 1.21236
#
# Static dielectric constant tensor:
#      x y z
#    x 1.638840 0.000000 0.000000 
#    y 0.000000 1.638670 0.000000 
#    z 0.000000 0.000000 1.663340 
# 
# From -- ./inp_files/15824.got.cif
#   From: 2010.05.17/outbox.cif.g08.bks.cpg/sg65_8_cif.got.tgz:15824.got - 2010.06.03 17:01:31.
