data_PCOD9490605
_publ_section_title
;
Structure prediction by ZEFSAII (Michael W. Deem and Ramdas Pophale) SiO2 
 PCOD9490605
Probable space group: C M M M
;
_chemical_formula_sum "Si O2"
_cell_formula_units_Z 96
_cell_length_a 14.648538
_cell_length_b 20.585450
_cell_length_c 16.967026
_cell_angle_alpha 90.000000
_cell_angle_beta 90.000000
_cell_angle_gamma 90.000000
_cell_volume 5116.351489
_symmetry_space_group_name_H-M "C M M M"
_symmetry_group_IT_number 65
_symmetry_cell_setting 'orthorhombic'
loop_
_space_group_symop_operation_xyz
x,y,z
-x,-y,z
x,-y,-z
-x,y,-z
-x,-y,-z
x,y,-z
-x,y,z
x,-y,z
1/2+x,1/2+y,z
1/2-x,1/2-y,z
1/2+x,1/2-y,-z
1/2-x,1/2+y,-z
1/2-x,1/2-y,-z
1/2+x,1/2+y,-z
1/2-x,1/2+y,z
1/2+x,1/2-y,z
loop_
_atom_site_type_symbol
_atom_site_label
_atom_site_fract_x
_atom_site_fract_y
_atom_site_fract_z
Si Si1 0.739647 0.571016 0.141636
Si Si2 0.858921 0.759045 0.000000
Si Si3 0.599868 0.168309 0.859800
Si Si4 0.604527 0.590775 0.000000
Si Si5 0.890989 0.814745 0.593111
Si Si6 0.767015 0.077836 0.326059
Si Si7 0.893349 0.678836 0.324505
O O1 0.783557 0.500000 0.140801
O O2 0.816363 0.622282 0.118999
O O3 0.711669 0.583017 0.232258
O O4 0.658595 0.571040 0.078862
O O5 0.750000 0.750000 0.000000
O O6 0.896263 0.725869 0.921558
O O7 0.888811 0.832240 0.000000
O O8 0.500000 0.136013 0.864958
O O9 0.611592 0.190466 0.769633
O O10 0.500000 0.570204 0.000000
O O11 0.873090 0.810919 0.500000
O O12 0.839846 0.877380 0.628451
O O13 0.864188 0.745536 0.632532
O O14 0.000000 0.821454 0.605524
O O15 0.671188 0.116481 0.340117
O O16 0.764850 0.000000 0.345284
O O17 0.000000 0.666205 0.344697
#
# Coordination Sequence:
#
# PCOD9490605 Si02
#       7
#    16   8  16   8  16  16  16
#     4  10  22  39  56  80 112 147 188 229 273 331
#     4  12  22  35  54  80 111 144 182 236 286 329
#     4  10  20  36  58  84 111 141 181 231 284 336
#     4  12  25  38  55  76 107 152 193 233 277 324
#     4  10  22  40  62  87 115 150 194 240 283 333
#     4  10  22  38  59  87 120 154 188 233 288 342
#     4   9  20  37  61  89 117 150 189 234 285 343
#
# _framework density 18.763370999999999
#
# number of rings (size 3 to 8) (size 9 to 14) (size 15 to 20)
#    0.000    1.833    1.667    1.500    2.333    4.000 
#    0.000    5.833    0.000    2.000    0.000    3.500 
#    0.000    0.000    0.000    0.000    0.000    0.000 
#
# Total GULP energy -267736.583759 kJ/mol
# GULP energy per Si atom -5577.845495 kJ/mol
# Density = 1.872067 g / cm^3
# Si number density = 18.763371 Si / 1000 Ang^3
#
#
#
# Elastic Constant Matrix: (Units=GPa)
#
#
# Indices 1 2 3 4 5 6 
#
# 1 118.3708 60.5989 60.6016 0.0000 0.0000 0.0000
# 2 60.5989 156.4054 68.3331 0.0000 0.0000 0.0000
# 3 60.6016 68.3331 64.9881 0.0000 0.0000 0.0000
# 4 0.0000 0.0000 0.0000 45.3125 0.0000 0.0000
# 5 0.0000 0.0000 0.0000 0.0000 23.9018 0.0000
# 6 0.0000 0.0000 0.0000 0.0000 0.0000 -89.2171
#
#
#
# Elastic Compliance Matrix: (Units=1/GPa)
#
#
# Indices 1 2 3 4 5 6 
#
# 1 0.016196 0.000598 -0.015731 0.000000 0.000000 0.000000
# 2 0.000598 0.011849 -0.013016 0.000000 0.000000 0.000000
# 3 -0.015731 -0.013016 0.043743 0.000000 0.000000 0.000000
# 4 0.000000 0.000000 0.000000 0.022069 0.000000 0.000000
# 5 0.000000 0.000000 0.000000 0.000000 0.041838 0.000000
# 6 0.000000 0.000000 0.000000 0.000000 0.000000 -0.011209
#
#
# Mechanical properties :
#
#
# Convention : Reuss Voigt Hill
#
# Bulk Modulus (GPa) = 64.56422 79.87014 72.21718
# Shear Modulus (GPa) = 26.88929 6.01483 16.45206
#
# Velocity S-wave (km/s) = 3.78970 1.79237 2.96432
# Velocity P-wave (km/s) = 7.32349 6.85149 7.09142
#
# Compressibility (1/GPa) = 0.01548845
#
# Stress axis : x y z
#
# Youngs Moduli (GPa) = 61.74439 84.39763 22.86077
#
# Poissons Ratio (x) = -0.05047 0.35963
# Poissons Ratio (y) = -0.03692 0.29756
# Poissons Ratio (z) = 0.97132 1.09853
#
# Static dielectric constant tensor:
#      x y z
#    x 1.670960 0.000000 0.000000 
#    y 0.000000 1.634800 0.000000 
#    z 0.000000 0.000000 1.649630 
# 
# From -- ./inp_files/40455.got.cif
#   From: 2010.05.17/outbox.cif.g08.bks.cpg/sg65_21_cif.got.tgz:40455.got - 2010.06.03 17:01:31.
