data_PCOD9490063
_publ_section_title
;
Structure prediction by ZEFSAII (Michael W. Deem and Ramdas Pophale) SiO2 
 PCOD9490063
Probable space group: C M M M
;
_chemical_formula_sum "Si O2"
_cell_formula_units_Z 116
_cell_length_a 23.616692
_cell_length_b 25.913218
_cell_length_c 9.039485
_cell_angle_alpha 90.000000
_cell_angle_beta 90.000000
_cell_angle_gamma 90.000000
_cell_volume 5532.024602
_symmetry_space_group_name_H-M "C M M M"
_symmetry_group_IT_number 65
_symmetry_cell_setting 'orthorhombic'
loop_
_space_group_symop_operation_xyz
x,y,z
-x,-y,z
x,-y,-z
-x,y,-z
-x,-y,-z
x,y,-z
-x,y,z
x,-y,z
1/2+x,1/2+y,z
1/2-x,1/2-y,z
1/2+x,1/2-y,-z
1/2-x,1/2+y,-z
1/2-x,1/2-y,-z
1/2+x,1/2+y,-z
1/2-x,1/2+y,z
1/2+x,1/2-y,z
loop_
_atom_site_type_symbol
_atom_site_label
_atom_site_fract_x
_atom_site_fract_y
_atom_site_fract_z
Si Si1 0.721675 0.000000 0.000000
Si Si2 0.737385 0.345683 0.323663
Si Si3 0.063641 0.707230 0.671839
Si Si4 0.566352 0.632771 0.676036
Si Si5 0.644869 0.281812 0.175256
Si Si6 0.937574 0.417271 0.328653
Si Si7 0.158125 0.943436 0.322631
Si Si8 0.827733 0.593179 0.838233
O O1 0.714149 0.045885 0.125598
O O2 0.739772 0.339175 0.500000
O O3 0.704309 0.297875 0.250705
O O4 0.698253 0.395511 0.284544
O O5 0.797689 0.363403 0.260079
O O6 0.070755 0.723011 0.500000
O O7 0.114331 0.730516 0.766119
O O8 0.062991 0.645290 0.675644
O O9 0.000000 0.724597 0.718692
O O10 0.576013 0.643296 0.500000
O O11 0.500000 0.633693 0.703718
O O12 0.599906 0.674849 0.770357
O O13 0.595108 0.577573 0.707900
O O14 0.651449 0.281728 0.000000
O O15 0.931304 0.432792 0.500000
O O16 0.883425 0.431570 0.233913
O O17 0.000000 0.434288 0.277113
O O18 0.163993 0.947845 0.500000
O O19 0.168404 0.000000 0.256090
O O20 0.843008 0.615322 0.000000
#
# Coordination Sequence:
#
# PCOD9490063 Si02
#       8
#     4  16  16  16  16  16  16  16
#     4   8  24  40  59  90 122 156 183 216 282 356
#     4  10  20  35  56  78 106 146 192 239 286 332
#     4   9  18  34  57  83 113 151 196 244 289 335
#     4   9  17  29  44  63  94 137 180 227 284 335
#     4  11  21  32  48  77 111 147 187 237 287 344
#     4   9  19  38  64  91 118 152 192 233 277 328
#     4   8  15  26  43  69  93 119 165 224 278 326
#     4  10  21  39  59  86 119 152 182 225 279 344
#
# _framework density 20.968813999999998
#
# number of rings (size 3 to 8) (size 9 to 14) (size 15 to 20)
#    0.414    2.207    0.000    4.138    0.966    3.310 
#    0.000    5.172    0.000    8.690    0.000    3.862 
#    0.000    0.000    0.000    0.000    0.000    0.000 
#
# Total GULP energy -322873.112281 kJ/mol
# GULP energy per Si atom -5566.777798 kJ/mol
# Density = 2.092109 g / cm^3
# Si number density = 20.968814 Si / 1000 Ang^3
#
#
#
# Elastic Constant Matrix: (Units=GPa)
#
#
# Indices 1 2 3 4 5 6 
#
# 1 84.4282 17.7185 46.4875 0.0000 0.0000 0.0000
# 2 17.7185 59.4200 15.9665 0.0000 0.0000 0.0000
# 3 46.4875 15.9665 88.0817 0.0000 0.0000 0.0000
# 4 0.0000 0.0000 0.0000 84.0158 0.0000 0.0000
# 5 0.0000 0.0000 0.0000 0.0000 -0.9376 0.0000
# 6 0.0000 0.0000 0.0000 0.0000 0.0000 39.1682
#
#
#
# Elastic Compliance Matrix: (Units=1/GPa)
#
#
# Indices 1 2 3 4 5 6 
#
# 1 0.017133 -0.002816 -0.008532 0.000000 0.000000 0.000000
# 2 -0.002816 0.018154 -0.001804 0.000000 0.000000 0.000000
# 3 -0.008532 -0.001804 0.016183 0.000000 0.000000 0.000000
# 4 0.000000 0.000000 0.000000 0.011903 0.000000 0.000000
# 5 0.000000 0.000000 0.000000 0.000000 -1.066537 0.000000
# 6 0.000000 0.000000 0.000000 0.000000 0.000000 0.025531
#
#
# Mechanical properties :
#
#
# Convention : Reuss Voigt Hill
#
# Bulk Modulus (GPa) = 39.73781 43.58612 41.66197
# Shear Modulus (GPa) = -5.30257 34.56643 14.63193
#
# Velocity S-wave (km/s) = -1.59194 4.06454 2.64445
# Velocity P-wave (km/s) = 3.95133 6.54665 5.40701
#
# Compressibility (1/GPa) = 0.02516495
#
# Stress axis : x y z
#
# Youngs Moduli (GPa) = 58.36580 55.08429 61.79252
#
# Poissons Ratio (x) = 0.15514 0.52722
# Poissons Ratio (y) = 0.16438 0.11150
# Poissons Ratio (z) = 0.49798 0.09939
#
# Static dielectric constant tensor:
#      x y z
#    x 1.795960 0.000000 0.000000 
#    y 0.000000 1.803210 0.000000 
#    z 0.000000 0.000000 1.740030 
# 
# From -- ./inp_files/15151.got.cif
#   From: 2010.05.17/outbox.cif.g08.bks.cpg/sg65_8_cif.got.tgz:15151.got - 2010.06.03 17:01:31.
