data_PCOD9490670
_publ_section_title
;
Structure prediction by ZEFSAII (Michael W. Deem and Ramdas Pophale) SiO2 
 PCOD9490670
Probable space group: C M M M
;
_chemical_formula_sum "Si O2"
_cell_formula_units_Z 64
_cell_length_a 18.227532
_cell_length_b 8.040295
_cell_length_c 23.040142
_cell_angle_alpha 90.000000
_cell_angle_beta 90.000000
_cell_angle_gamma 90.000000
_cell_volume 3376.641891
_symmetry_space_group_name_H-M "C M M M"
_symmetry_group_IT_number 65
_symmetry_cell_setting 'orthorhombic'
loop_
_space_group_symop_operation_xyz
x,y,z
-x,-y,z
x,-y,-z
-x,y,-z
-x,-y,-z
x,y,-z
-x,y,z
x,-y,z
1/2+x,1/2+y,z
1/2-x,1/2-y,z
1/2+x,1/2-y,-z
1/2-x,1/2+y,-z
1/2-x,1/2-y,-z
1/2+x,1/2+y,-z
1/2-x,1/2+y,z
1/2+x,1/2-y,z
loop_
_atom_site_type_symbol
_atom_site_label
_atom_site_fract_x
_atom_site_fract_y
_atom_site_fract_z
Si Si1 0.910501 0.500000 0.566692
Si Si2 0.588290 0.684898 0.643014
Si Si3 0.089253 0.805298 0.000000
Si Si4 0.665854 0.804559 0.757130
Si Si5 0.085695 0.798019 0.873623
O O1 0.886225 0.500000 0.500000
O O2 0.887280 0.665618 0.601133
O O3 0.000000 0.500000 0.566377
O O4 0.500000 0.694617 0.647803
O O5 0.607182 0.500000 0.621260
O O6 0.622221 0.710952 0.706439
O O7 0.111784 0.736118 0.937288
O O8 0.000000 0.800788 0.000000
O O9 0.110254 0.000000 0.000000
O O10 0.750000 0.750000 0.756230
O O11 0.631676 0.766325 0.819825
O O12 0.659877 0.000000 0.745436
O O13 0.000000 0.751766 0.866475
O O14 0.088668 0.000000 0.874179
#
# Coordination Sequence:
#
# PCOD9490670 Si02
#       5
#     8  16   8  16  16
#     4   9  18  34  58  90 122 149 184 228 271 323
#     4  10  20  36  59  87 117 150 187 228 278 331
#     4   7  12  26  50  77 104 137 175 221 274 332
#     4  12  24  37  53  77 108 146 188 236 283 334
#     4   9  17  32  55  81 108 139 180 226 278 338
#
# _framework density 18.953741999999998
#
# number of rings (size 3 to 8) (size 9 to 14) (size 15 to 20)
#    0.000    2.250    1.250    4.500    0.000    4.000 
#    0.000    3.750    0.000    3.000    0.000    0.000 
#    0.000    0.000    0.000    0.000    0.000    0.000 
#
# Total GULP energy -178530.228717 kJ/mol
# GULP energy per Si atom -5579.069647 kJ/mol
# Density = 1.891060 g / cm^3
# Si number density = 18.953742 Si / 1000 Ang^3
#
#
#
# Elastic Constant Matrix: (Units=GPa)
#
#
# Indices 1 2 3 4 5 6 
#
# 1 18.8359 28.8886 26.6202 0.0000 0.0000 0.0000
# 2 28.8886 112.7239 57.9173 0.0000 0.0000 0.0000
# 3 26.6202 57.9173 153.0376 0.0000 0.0000 0.0000
# 4 0.0000 0.0000 0.0000 20.5242 0.0000 0.0000
# 5 0.0000 0.0000 0.0000 0.0000 105.9581 0.0000
# 6 0.0000 0.0000 0.0000 0.0000 0.0000 9.5799
#
#
#
# Elastic Compliance Matrix: (Units=1/GPa)
#
#
# Indices 1 2 3 4 5 6 
#
# 1 0.097018 -0.020102 -0.009268 0.000000 0.000000 0.000000
# 2 -0.020102 0.015178 -0.002247 0.000000 0.000000 0.000000
# 3 -0.009268 -0.002247 0.008997 0.000000 0.000000 0.000000
# 4 0.000000 0.000000 0.000000 0.048723 0.000000 0.000000
# 5 0.000000 0.000000 0.000000 0.000000 0.009438 0.000000
# 6 0.000000 0.000000 0.000000 0.000000 0.000000 0.104386
#
#
# Mechanical properties :
#
#
# Convention : Reuss Voigt Hill
#
# Bulk Modulus (GPa) = 17.25380 56.82774 37.04077
# Shear Modulus (GPa) = 13.65025 38.62385 26.13705
#
# Velocity S-wave (km/s) = 2.68654 4.51909 3.71751
# Velocity P-wave (km/s) = 4.32969 7.56816 6.16536
#
# Compressibility (1/GPa) = 0.05795826
#
# Stress axis : x y z
#
# Youngs Moduli (GPa) = 10.30732 65.88685 111.14734
#
# Poissons Ratio (x) = 1.32443 1.03016
# Poissons Ratio (y) = 0.20719 0.24979
# Poissons Ratio (z) = 0.09553 0.14807
#
# Static dielectric constant tensor:
#      x y z
#    x 1.636180 0.000000 0.000000 
#    y 0.000000 1.679020 0.000000 
#    z 0.000000 0.000000 1.652450 
# 
# From -- ./inp_files/63264.got.cif
#   From: 2010.05.17/outbox.cif.g08.bks.cpg/sg65_32_cif.got.tgz:63264.got - 2010.06.03 17:01:31.
