data_PCOD9490595
_publ_section_title
;
Structure prediction by ZEFSAII (Michael W. Deem and Ramdas Pophale) SiO2 
 PCOD9490595
Probable space group: C M M M
;
_chemical_formula_sum "Si O2"
_cell_formula_units_Z 72
_cell_length_a 7.953780
_cell_length_b 15.632068
_cell_length_c 29.407271
_cell_angle_alpha 90.000000
_cell_angle_beta 90.000000
_cell_angle_gamma 90.000000
_cell_volume 3656.324509
_symmetry_space_group_name_H-M "C M M M"
_symmetry_group_IT_number 65
_symmetry_cell_setting 'orthorhombic'
loop_
_space_group_symop_operation_xyz
x,y,z
-x,-y,z
x,-y,-z
-x,y,-z
-x,-y,-z
x,y,-z
-x,y,z
x,-y,z
1/2+x,1/2+y,z
1/2-x,1/2-y,z
1/2+x,1/2-y,-z
1/2-x,1/2+y,-z
1/2-x,1/2-y,-z
1/2+x,1/2+y,-z
1/2-x,1/2+y,z
1/2+x,1/2-y,z
loop_
_atom_site_type_symbol
_atom_site_label
_atom_site_fract_x
_atom_site_fract_y
_atom_site_fract_z
Si Si1 0.792983 0.500000 0.780799
Si Si2 0.698614 0.000000 0.116169
Si Si3 0.500000 0.604542 0.447828
Si Si4 0.700086 0.346422 0.948747
Si Si5 0.195137 0.603792 0.383507
Si Si6 0.798539 0.654864 0.717722
O O1 0.731525 0.500000 0.832621
O O2 0.737169 0.583159 0.752631
O O3 0.000000 0.500000 0.781035
O O4 0.745497 0.083279 0.087225
O O5 0.500000 0.000000 0.120974
O O6 0.500000 0.500000 0.447889
O O7 0.500000 0.633160 0.500000
O O8 0.331183 0.630962 0.420991
O O9 0.500000 0.350152 0.951354
O O10 0.750000 0.250000 0.936147
O O11 0.767940 0.363521 0.000000
O O12 0.194427 0.500000 0.381603
O O13 0.254638 0.636434 0.334143
O O14 0.000000 0.630237 0.391775
O O15 0.750000 0.750000 0.731431
O O16 0.000000 0.647963 0.716739
#
# Coordination Sequence:
#
# PCOD9490595 Si02
#       6
#     8   8   8  16  16  16
#     4   9  20  40  58  79 118 153 188 234 297 351
#     4  11  22  36  59  86 118 160 191 238 302 362
#     4   9  18  30  50  84 118 145 185 239 285 346
#     4  10  21  38  60  85 116 154 200 249 291 345
#     4   9  17  32  55  78 109 151 187 232 289 344
#     4  10  20  36  58  83 108 144 192 239 284 344
#
# _framework density 19.691905999999999
#
# number of rings (size 3 to 8) (size 9 to 14) (size 15 to 20)
#    0.000    2.333    1.111    1.333    1.556    4.000 
#    0.000    7.222    0.000    0.667    0.000    0.000 
#    0.000    0.000    0.000    0.000    0.000    0.000 
#
# Total GULP energy -200972.068608 kJ/mol
# GULP energy per Si atom -5582.557461 kJ/mol
# Density = 1.964709 g / cm^3
# Si number density = 19.691906 Si / 1000 Ang^3
#
#
#
# Elastic Constant Matrix: (Units=GPa)
#
#
# Indices 1 2 3 4 5 6 
#
# 1 55.3307 28.8118 52.2961 0.0000 0.0000 0.0000
# 2 28.8118 114.1189 107.0019 0.0000 0.0000 0.0000
# 3 52.2961 107.0019 191.4888 0.0000 0.0000 0.0000
# 4 0.0000 0.0000 0.0000 -29.1507 0.0000 0.0000
# 5 0.0000 0.0000 0.0000 0.0000 18.3604 0.0000
# 6 0.0000 0.0000 0.0000 0.0000 0.0000 26.0894
#
#
#
# Elastic Compliance Matrix: (Units=1/GPa)
#
#
# Indices 1 2 3 4 5 6 
#
# 1 0.024363 0.000184 -0.006757 0.000000 0.000000 0.000000
# 2 0.000184 0.018408 -0.010337 0.000000 0.000000 0.000000
# 3 -0.006757 -0.010337 0.012844 0.000000 0.000000 0.000000
# 4 0.000000 0.000000 0.000000 -0.034304 0.000000 0.000000
# 5 0.000000 0.000000 0.000000 0.000000 0.054465 0.000000
# 6 0.000000 0.000000 0.000000 0.000000 0.000000 0.038330
#
#
# Mechanical properties :
#
#
# Convention : Reuss Voigt Hill
#
# Bulk Modulus (GPa) = 45.87800 81.90642 63.89221
# Shear Modulus (GPa) = 32.21874 14.58173 23.40023
#
# Velocity S-wave (km/s) = 4.04931 2.72415 3.45094
# Velocity P-wave (km/s) = 6.72392 7.18185 6.95665
#
# Compressibility (1/GPa) = 0.02179694
#
# Stress axis : x y z
#
# Youngs Moduli (GPa) = 41.04539 54.32326 77.86031
#
# Poissons Ratio (x) = -0.01001 0.52607
# Poissons Ratio (y) = -0.00756 0.80482
# Poissons Ratio (z) = 0.27733 0.56152
#
# Static dielectric constant tensor:
#      x y z
#    x 1.704860 0.000000 0.000000 
#    y 0.000000 1.669830 0.000000 
#    z 0.000000 0.000000 1.693030 
# 
# From -- ./inp_files/72583.got.cif
#   From: 2010.05.17/outbox.cif.g08.bks.cpg/sg65_37_cif.got.tgz:72583.got - 2010.06.03 17:01:31.
