data_PCOD9490468
_publ_section_title
;
Structure prediction by ZEFSAII (Michael W. Deem and Ramdas Pophale) SiO2 
 PCOD9490468
Probable space group: C M M M
;
_chemical_formula_sum "Si O2"
_cell_formula_units_Z 88
_cell_length_a 23.138909
_cell_length_b 22.196853
_cell_length_c 9.785610
_cell_angle_alpha 90.000000
_cell_angle_beta 90.000000
_cell_angle_gamma 90.000000
_cell_volume 5025.996562
_symmetry_space_group_name_H-M "C M M M"
_symmetry_group_IT_number 65
_symmetry_cell_setting 'orthorhombic'
loop_
_space_group_symop_operation_xyz
x,y,z
-x,-y,z
x,-y,-z
-x,y,-z
-x,-y,-z
x,y,-z
-x,y,z
x,-y,z
1/2+x,1/2+y,z
1/2-x,1/2-y,z
1/2+x,1/2-y,-z
1/2-x,1/2+y,-z
1/2-x,1/2-y,-z
1/2+x,1/2+y,-z
1/2-x,1/2+y,z
1/2+x,1/2-y,z
loop_
_atom_site_type_symbol
_atom_site_label
_atom_site_fract_x
_atom_site_fract_y
_atom_site_fract_z
Si Si1 0.932708 0.000000 0.334336
Si Si2 0.746563 0.677311 0.658430
Si Si3 0.383284 0.370354 0.663027
Si Si4 0.932843 0.427794 0.653363
Si Si5 0.565621 0.733842 0.839613
Si Si6 0.145492 0.651170 0.162234
O O1 0.899606 0.061466 0.294932
O O2 0.933955 0.000000 0.500000
O O3 0.000000 0.000000 0.288427
O O4 0.760986 0.663058 0.500000
O O5 0.750000 0.750000 0.671287
O O6 0.683094 0.650118 0.686022
O O7 0.793339 0.651816 0.762573
O O8 0.393874 0.364992 0.500000
O O9 0.422031 0.323339 0.745815
O O10 0.915313 0.407617 0.500000
O O11 0.929477 0.500000 0.656090
O O12 0.893768 0.399452 0.768936
O O13 0.000000 0.411179 0.672274
O O14 0.500000 0.755962 0.818242
O O15 0.611818 0.786047 0.809947
O O16 0.571356 0.717949 0.000000
O O17 0.150827 0.644223 0.000000
#
# Coordination Sequence:
#
# PCOD9490468 Si02
#       6
#     8  16  16  16  16  16
#     4   9  18  34  57  85 111 137 180 233 282 333
#     4  10  20  36  56  79 109 143 186 232 276 334
#     4  10  20  36  58  81 108 143 184 231 281 330
#     4   9  19  37  59  82 110 145 185 229 278 332
#     4  10  21  35  52  79 113 144 177 221 276 337
#     4  11  22  35  55  81 113 148 185 228 279 338
#
# _framework density 17.508965
#
# number of rings (size 3 to 8) (size 9 to 14) (size 15 to 20)
#    0.000    2.091    1.818    2.182    0.000    4.364 
#    1.636    1.364    0.000    1.636    0.000    0.000 
#    0.000    0.000    0.000    0.000    0.000    0.000 
#
# Total GULP energy -245452.598454 kJ/mol
# GULP energy per Si atom -5578.468147 kJ/mol
# Density = 1.746911 g / cm^3
# Si number density = 17.508965 Si / 1000 Ang^3
#
#
#
# Elastic Constant Matrix: (Units=GPa)
#
#
# Indices 1 2 3 4 5 6 
#
# 1 91.6931 40.8527 45.1874 0.0000 0.0000 0.0000
# 2 40.8527 69.6549 31.6616 0.0000 0.0000 0.0000
# 3 45.1874 31.6616 50.9299 0.0000 0.0000 0.0000
# 4 0.0000 0.0000 0.0000 21.4687 0.0000 0.0000
# 5 0.0000 0.0000 0.0000 0.0000 16.8697 0.0000
# 6 0.0000 0.0000 0.0000 0.0000 0.0000 74.5385
#
#
#
# Elastic Compliance Matrix: (Units=1/GPa)
#
#
# Indices 1 2 3 4 5 6 
#
# 1 0.020686 -0.005282 -0.015070 0.000000 0.000000 0.000000
# 2 -0.005282 0.021360 -0.008592 0.000000 0.000000 0.000000
# 3 -0.015070 -0.008592 0.038347 0.000000 0.000000 0.000000
# 4 0.000000 0.000000 0.000000 0.046580 0.000000 0.000000
# 5 0.000000 0.000000 0.000000 0.000000 0.059278 0.000000
# 6 0.000000 0.000000 0.000000 0.000000 0.000000 0.013416
#
#
# Mechanical properties :
#
#
# Convention : Reuss Voigt Hill
#
# Bulk Modulus (GPa) = 44.43552 49.74236 47.08894
# Shear Modulus (GPa) = 18.86393 28.88047 23.87220
#
# Velocity S-wave (km/s) = 3.28592 4.06577 3.69647
# Velocity P-wave (km/s) = 6.31111 7.10718 6.72094
#
# Compressibility (1/GPa) = 0.02250452
#
# Stress axis : x y z
#
# Youngs Moduli (GPa) = 48.34203 46.81598 26.07781
#
# Poissons Ratio (x) = 0.24730 0.39298
# Poissons Ratio (y) = 0.25537 0.22406
# Poissons Ratio (z) = 0.72849 0.40225
#
# Static dielectric constant tensor:
#      x y z
#    x 1.594580 0.000000 0.000000 
#    y 0.000000 1.585280 0.000000 
#    z 0.000000 0.000000 1.577000 
# 
# From -- ./inp_files/11756.got.cif
#   From: 2010.05.17/outbox.cif.g08.bks.cpg/sg65_6_cif.got.tgz:11756.got - 2010.06.03 17:01:31.
