data_PCOD9490707
_publ_section_title
;
Structure prediction by ZEFSAII (Michael W. Deem and Ramdas Pophale) SiO2 
 PCOD9490707
Probable space group: C M M M
;
_chemical_formula_sum "Si O2"
_cell_formula_units_Z 104
_cell_length_a 31.078319
_cell_length_b 21.257790
_cell_length_c 8.393459
_cell_angle_alpha 90.000000
_cell_angle_beta 90.000000
_cell_angle_gamma 90.000000
_cell_volume 5545.192229
_symmetry_space_group_name_H-M "C M M M"
_symmetry_group_IT_number 65
_symmetry_cell_setting 'orthorhombic'
loop_
_space_group_symop_operation_xyz
x,y,z
-x,-y,z
x,-y,-z
-x,y,-z
-x,-y,-z
x,y,-z
-x,y,z
x,-y,z
1/2+x,1/2+y,z
1/2-x,1/2-y,z
1/2+x,1/2-y,-z
1/2-x,1/2+y,-z
1/2-x,1/2-y,-z
1/2+x,1/2+y,-z
1/2-x,1/2+y,z
1/2+x,1/2-y,z
loop_
_atom_site_type_symbol
_atom_site_label
_atom_site_fract_x
_atom_site_fract_y
_atom_site_fract_z
Si Si1 0.549777 0.862959 0.810170
Si Si2 0.724218 0.186795 0.190541
Si Si3 0.281188 0.428234 0.307130
Si Si4 0.948048 0.500000 0.318954
Si Si5 0.130907 0.715655 0.690902
Si Si6 0.868123 0.859954 0.694615
Si Si7 0.953320 0.073050 0.305826
O O1 0.500000 0.852289 0.751645
O O2 0.586539 0.816555 0.745907
O O3 0.563159 0.934351 0.764320
O O4 0.548629 0.857857 0.000000
O O5 0.750000 0.250000 0.248742
O O6 0.748087 0.124102 0.248061
O O7 0.675042 0.184971 0.248616
O O8 0.724673 0.189084 0.000000
O O9 0.280386 0.428527 0.500000
O O10 0.273653 0.500000 0.253368
O O11 0.328085 0.402761 0.256082
O O12 0.931741 0.500000 0.500000
O O13 0.000000 0.500000 0.322883
O O14 0.131052 0.714710 0.500000
O O15 0.134676 0.788000 0.746370
O O16 0.868232 0.860226 0.500000
O O17 0.912853 0.888538 0.751854
O O18 0.952837 0.074812 0.500000
O O19 0.000000 0.097021 0.253717
O O20 0.949547 0.000000 0.261430
#
# Coordination Sequence:
#
# PCOD9490707 Si02
#       7
#    16  16  16   8  16  16  16
#     4  10  21  38  59  84 118 156 192 233 284 344
#     4  11  23  40  61  83 113 154 194 238 291 354
#     4  10  20  36  60  87 114 145 187 240 294 349
#     4   9  17  33  59  87 113 145 189 237 285 339
#     4  11  22  36  58  85 114 148 189 239 286 338
#     4   9  17  29  48  76 108 144 183 229 282 333
#     4   8  13  22  38  64 102 144 180 215 261 319
#
# _framework density 18.754985000000001
#
# number of rings (size 3 to 8) (size 9 to 14) (size 15 to 20)
#    0.000    2.231    1.538    2.538    0.000    5.231 
#    1.385    1.538    0.000    0.000    0.000    0.000 
#    0.000    0.000    0.000   10.154    0.000    9.846 
#
# Total GULP energy -290011.876674 kJ/mol
# GULP energy per Si atom -5577.151474 kJ/mol
# Density = 1.871230 g / cm^3
# Si number density = 18.754985 Si / 1000 Ang^3
#
#
#
# Elastic Constant Matrix: (Units=GPa)
#
#
# Indices 1 2 3 4 5 6 
#
# 1 160.3078 87.1837 23.8198 0.0000 0.0000 0.0000
# 2 87.1837 139.4810 26.2856 0.0000 0.0000 0.0000
# 3 23.8198 26.2856 30.8729 0.0000 0.0000 0.0000
# 4 0.0000 0.0000 0.0000 13.1150 0.0000 0.0000
# 5 0.0000 0.0000 0.0000 0.0000 18.3376 0.0000
# 6 0.0000 0.0000 0.0000 0.0000 0.0000 34.6790
#
#
#
# Elastic Compliance Matrix: (Units=1/GPa)
#
#
# Indices 1 2 3 4 5 6 
#
# 1 0.009643 -0.005509 -0.002749 0.000000 0.000000 0.000000
# 2 -0.005509 0.011687 -0.005700 0.000000 0.000000 0.000000
# 3 -0.002749 -0.005700 0.039365 0.000000 0.000000 0.000000
# 4 0.000000 0.000000 0.000000 0.076248 0.000000 0.000000
# 5 0.000000 0.000000 0.000000 0.000000 0.054533 0.000000
# 6 0.000000 0.000000 0.000000 0.000000 0.000000 0.028836
#
#
# Mechanical properties :
#
#
# Convention : Reuss Voigt Hill
#
# Bulk Modulus (GPa) = 30.50813 67.24886 48.87850
# Shear Modulus (GPa) = 19.29349 26.11783 22.70566
#
# Velocity S-wave (km/s) = 3.21083 3.73578 3.48321
# Velocity P-wave (km/s) = 5.48160 7.38528 6.50347
#
# Compressibility (1/GPa) = 0.03277814
#
# Stress axis : x y z
#
# Youngs Moduli (GPa) = 103.70613 85.56407 25.40322
#
# Poissons Ratio (x) = 0.47138 0.06984
# Poissons Ratio (y) = 0.57133 0.14480
# Poissons Ratio (z) = 0.28511 0.48772
#
# Static dielectric constant tensor:
#      x y z
#    x 1.647610 0.000000 0.000000 
#    y 0.000000 1.640350 0.000000 
#    z 0.000000 0.000000 1.644830 
# 
# From -- ./inp_files/18685.got.cif
#   From: 2010.05.17/outbox.cif.g08.bks.cpg/sg65_10_cif.got.tgz:18685.got - 2010.06.03 17:01:31.
