data_PCOD9490248
_publ_section_title
;
Structure prediction by ZEFSAII (Michael W. Deem and Ramdas Pophale) SiO2 
 PCOD9490248
Probable space group: C M M M
;
_chemical_formula_sum "Si O2"
_cell_formula_units_Z 72
_cell_length_a 18.894052
_cell_length_b 8.988606
_cell_length_c 23.899504
_cell_angle_alpha 90.000000
_cell_angle_beta 90.000000
_cell_angle_gamma 90.000000
_cell_volume 4058.881185
_symmetry_space_group_name_H-M "C M M M"
_symmetry_group_IT_number 65
_symmetry_cell_setting 'orthorhombic'
loop_
_space_group_symop_operation_xyz
x,y,z
-x,-y,z
x,-y,-z
-x,y,-z
-x,-y,-z
x,y,-z
-x,y,z
x,-y,z
1/2+x,1/2+y,z
1/2-x,1/2-y,z
1/2+x,1/2-y,-z
1/2-x,1/2+y,-z
1/2-x,1/2-y,-z
1/2+x,1/2+y,-z
1/2-x,1/2+y,z
1/2+x,1/2-y,z
loop_
_atom_site_type_symbol
_atom_site_label
_atom_site_fract_x
_atom_site_fract_y
_atom_site_fract_z
Si Si1 0.416700 0.820938 0.161372
Si Si2 0.085957 0.328448 0.285720
Si Si3 0.327345 0.322414 0.937008
Si Si4 0.172328 0.322359 0.500000
Si Si5 0.084487 0.176077 0.599362
O O1 0.500000 0.785554 0.157423
O O2 0.390737 0.778298 0.223881
O O3 0.375531 0.743215 0.111617
O O4 0.409641 0.000000 0.157573
O O5 0.108176 0.500000 0.294860
O O6 0.105643 0.227807 0.338269
O O7 0.000000 0.329643 0.283403
O O8 0.321791 0.500000 0.931765
O O9 0.250000 0.250000 0.932509
O O10 0.354460 0.288725 0.000000
O O11 0.177646 0.500000 0.500000
O O12 0.250000 0.250000 0.500000
O O13 0.128811 0.265594 0.553832
O O14 0.000000 0.205241 0.592635
O O15 0.095472 0.000000 0.592167
#
# Coordination Sequence:
#
# PCOD9490248 Si02
#       5
#    16  16  16   8  16
#     4   9  18  33  54  80 109 139 171 211 259 310
#     4   8  15  30  52  78 107 138 173 212 255 304
#     4  10  21  36  53  73 100 136 177 220 264 312
#     4  12  25  40  57  77 107 143 177 218 267 312
#     4  10  20  35  57  84 111 139 175 216 256 305
#
# _framework density 17.738878
#
# number of rings (size 3 to 8) (size 9 to 14) (size 15 to 20)
#    0.000    2.444    0.000    4.000    0.000    5.778 
#    0.000    5.556    0.000    5.333    0.000    0.000 
#    0.000    0.000    0.000    0.000    0.000    0.000 
#
# Total GULP energy -200819.548954 kJ/mol
# GULP energy per Si atom -5578.320804 kJ/mol
# Density = 1.769850 g / cm^3
# Si number density = 17.738878 Si / 1000 Ang^3
#
#
#
# Elastic Constant Matrix: (Units=GPa)
#
#
# Indices 1 2 3 4 5 6 
#
# 1 54.4035 55.0883 73.4373 0.0000 0.0000 0.0000
# 2 55.0883 90.7388 87.3341 0.0000 0.0000 0.0000
# 3 73.4373 87.3341 185.0412 0.0000 0.0000 0.0000
# 4 0.0000 0.0000 0.0000 36.0182 0.0000 0.0000
# 5 0.0000 0.0000 0.0000 0.0000 -35.3783 0.0000
# 6 0.0000 0.0000 0.0000 0.0000 0.0000 28.0828
#
#
#
# Elastic Compliance Matrix: (Units=1/GPa)
#
#
# Indices 1 2 3 4 5 6 
#
# 1 0.059413 -0.024509 -0.012012 0.000000 0.000000 0.000000
# 2 -0.024509 0.030305 -0.004576 0.000000 0.000000 0.000000
# 3 -0.012012 -0.004576 0.012331 0.000000 0.000000 0.000000
# 4 0.000000 0.000000 0.000000 0.027764 0.000000 0.000000
# 5 0.000000 0.000000 0.000000 0.000000 -0.028266 0.000000
# 6 0.000000 0.000000 0.000000 0.000000 0.000000 0.035609
#
#
# Mechanical properties :
#
#
# Convention : Reuss Voigt Hill
#
# Bulk Modulus (GPa) = 50.36505 84.65590 67.51047
# Shear Modulus (GPa) = 22.12714 13.36611 17.74662
#
# Velocity S-wave (km/s) = 3.53566 2.74796 3.16640
# Velocity P-wave (km/s) = 6.71729 7.60890 7.17695
#
# Compressibility (1/GPa) = 0.01985504
#
# Stress axis : x y z
#
# Youngs Moduli (GPa) = 16.83139 32.99828 81.09685
#
# Poissons Ratio (x) = 0.80876 0.97410
# Poissons Ratio (y) = 0.41252 0.37109
# Poissons Ratio (z) = 0.20217 0.15100
#
# Static dielectric constant tensor:
#      x y z
#    x 1.580390 0.000000 0.000000 
#    y 0.000000 1.589800 0.000000 
#    z 0.000000 0.000000 1.614210 
# 
# From -- ./inp_files/67015.got.cif
#   From: 2010.05.17/outbox.cif.g08.bks.cpg/sg65_34_cif.got.tgz:67015.got - 2010.06.03 17:01:31.
