data_PCOD9490165
_publ_section_title
;
Structure prediction by ZEFSAII (Michael W. Deem and Ramdas Pophale) SiO2 
 PCOD9490165
Probable space group: C M M M
;
_chemical_formula_sum "Si O2"
_cell_formula_units_Z 88
_cell_length_a 19.748854
_cell_length_b 25.130823
_cell_length_c 7.760668
_cell_angle_alpha 90.000000
_cell_angle_beta 90.000000
_cell_angle_gamma 90.000000
_cell_volume 3851.657977
_symmetry_space_group_name_H-M "C M M M"
_symmetry_group_IT_number 65
_symmetry_cell_setting 'orthorhombic'
loop_
_space_group_symop_operation_xyz
x,y,z
-x,-y,z
x,-y,-z
-x,y,-z
-x,-y,-z
x,y,-z
-x,y,z
x,-y,z
1/2+x,1/2+y,z
1/2-x,1/2-y,z
1/2+x,1/2-y,-z
1/2-x,1/2+y,-z
1/2-x,1/2-y,-z
1/2+x,1/2+y,-z
1/2-x,1/2+y,z
1/2+x,1/2-y,z
loop_
_atom_site_type_symbol
_atom_site_label
_atom_site_fract_x
_atom_site_fract_y
_atom_site_fract_z
Si Si1 0.500000 0.435575 0.305177
Si Si2 0.150537 0.060810 0.798666
Si Si3 0.922109 0.441362 0.207478
Si Si4 0.355620 0.831253 0.294030
Si Si5 0.425616 0.726338 0.711016
Si Si6 0.792609 0.832271 0.699175
O O1 0.500000 0.500000 0.310453
O O2 0.500000 0.414302 0.500000
O O3 0.571647 0.422337 0.221133
O O4 0.195981 0.104390 0.706610
O O5 0.156930 0.000000 0.733971
O O6 0.167706 0.060984 0.000000
O O7 0.898628 0.500000 0.266668
O O8 0.877989 0.391084 0.257979
O O9 0.000000 0.434175 0.266633
O O10 0.923307 0.442594 0.000000
O O11 0.351180 0.825985 0.500000
O O12 0.410016 0.787329 0.238350
O O13 0.280473 0.819301 0.223222
O O14 0.426835 0.722788 0.500000
O O15 0.500000 0.708969 0.770488
O O16 0.360495 0.693623 0.774347
O O17 0.790809 0.814696 0.500000
#
# Coordination Sequence:
#
# PCOD9490165 Si02
#       6
#     8  16  16  16  16  16
#     4   9  17  31  53  77 101 135 179 225 272 323
#     4  10  21  36  53  76 109 147 185 228 277 324
#     4   9  19  36  57  82 113 148 185 224 269 329
#     4  10  20  35  56  83 114 145 180 229 283 331
#     4   9  18  34  57  82 107 140 184 231 280 334
#     4  10  21  35  54  81 112 146 186 231 277 331
#
# _framework density 22.847304000000001
#
# number of rings (size 3 to 8) (size 9 to 14) (size 15 to 20)
#    0.000    2.455    0.000    2.455    1.273    7.273 
#    0.000    5.455    0.000    3.273    0.000    0.000 
#    0.000    0.000    0.000    0.000    0.000    0.000 
#
# Total GULP energy -245698.861250 kJ/mol
# GULP energy per Si atom -5584.065028 kJ/mol
# Density = 2.279530 g / cm^3
# Si number density = 22.847304 Si / 1000 Ang^3
#
#
#
# Elastic Constant Matrix: (Units=GPa)
#
#
# Indices 1 2 3 4 5 6 
#
# 1 116.6079 41.1601 3.0169 0.0000 0.0000 0.0000
# 2 41.1601 95.8557 -2.2875 0.0000 0.0000 0.0000
# 3 3.0169 -2.2875 33.7262 0.0000 0.0000 0.0000
# 4 0.0000 0.0000 0.0000 42.9462 0.0000 0.0000
# 5 0.0000 0.0000 0.0000 0.0000 6.9669 0.0000
# 6 0.0000 0.0000 0.0000 0.0000 0.0000 29.0381
#
#
#
# Elastic Compliance Matrix: (Units=1/GPa)
#
#
# Indices 1 2 3 4 5 6 
#
# 1 0.010157 -0.004390 -0.001206 0.000000 0.000000 0.000000
# 2 -0.004390 0.012347 0.001230 0.000000 0.000000 0.000000
# 3 -0.001206 0.001230 0.029842 0.000000 0.000000 0.000000
# 4 0.000000 0.000000 0.000000 0.023285 0.000000 0.000000
# 5 0.000000 0.000000 0.000000 0.000000 0.143537 0.000000
# 6 0.000000 0.000000 0.000000 0.000000 0.000000 0.034438
#
#
# Mechanical properties :
#
#
# Convention : Reuss Voigt Hill
#
# Bulk Modulus (GPa) = 22.92899 36.66322 29.79611
# Shear Modulus (GPa) = 18.05875 29.41025 23.73450
#
# Velocity S-wave (km/s) = 2.81447 3.59172 3.22659
# Velocity P-wave (km/s) = 4.54084 5.76910 5.19142
#
# Compressibility (1/GPa) = 0.04361290
#
# Stress axis : x y z
#
# Youngs Moduli (GPa) = 98.45886 80.99307 33.50991
#
# Poissons Ratio (x) = 0.35556 0.04042
# Poissons Ratio (y) = 0.43223 -0.04122
# Poissons Ratio (z) = 0.11877 -0.09963
#
# Static dielectric constant tensor:
#      x y z
#    x 1.851880 0.000000 0.000000 
#    y 0.000000 1.863440 0.000000 
#    z 0.000000 0.000000 1.845010 
# 
# From -- ./inp_files/11726.got.cif
#   From: 2010.05.17/outbox.cif.g08.bks.cpg/sg65_6_cif.got.tgz:11726.got - 2010.06.03 17:01:31.
