data_PCOD9490899
_publ_section_title
;
Structure prediction by ZEFSAII (Michael W. Deem and Ramdas Pophale) SiO2 
 PCOD9490899
Probable space group: C M M M
;
_chemical_formula_sum "Si O2"
_cell_formula_units_Z 64
_cell_length_a 34.136156
_cell_length_b 8.815430
_cell_length_c 10.592180
_cell_angle_alpha 90.000000
_cell_angle_beta 90.000000
_cell_angle_gamma 90.000000
_cell_volume 3187.450640
_symmetry_space_group_name_H-M "C M M M"
_symmetry_group_IT_number 65
_symmetry_cell_setting 'orthorhombic'
loop_
_space_group_symop_operation_xyz
x,y,z
-x,-y,z
x,-y,-z
-x,y,-z
-x,-y,-z
x,y,-z
-x,y,z
x,-y,z
1/2+x,1/2+y,z
1/2-x,1/2-y,z
1/2+x,1/2-y,-z
1/2-x,1/2+y,-z
1/2-x,1/2-y,-z
1/2+x,1/2+y,-z
1/2-x,1/2+y,z
1/2+x,1/2-y,z
loop_
_atom_site_type_symbol
_atom_site_label
_atom_site_fract_x
_atom_site_fract_y
_atom_site_fract_z
Si Si1 0.065658 0.316569 0.145871
Si Si2 0.349749 0.679955 0.207389
Si Si3 0.789596 0.670981 0.351654
Si Si4 0.707103 0.180989 0.000000
Si Si5 0.000000 0.684444 0.649294
O O1 0.067331 0.500000 0.147040
O O2 0.108194 0.249099 0.175765
O O3 0.036699 0.270601 0.260579
O O4 0.054166 0.274186 0.000000
O O5 0.351107 0.500000 0.194536
O O6 0.329417 0.733123 0.336113
O O7 0.317906 0.754190 0.115362
O O8 0.782984 0.656059 0.500000
O O9 0.793789 0.500000 0.299995
O O10 0.750000 0.750000 0.300180
O O11 0.750000 0.250000 0.000000
O O12 0.708282 0.000000 0.000000
O O13 0.000000 0.500000 0.644135
O O14 0.000000 0.734624 0.500000
#
# Coordination Sequence:
#
# PCOD9490899 Si02
#       5
#    16  16  16   8   8
#     4  10  20  37  62  90 123 163 207 257 311 377
#     4  12  24  38  58  87 122 159 203 254 308 366
#     4  10  21  38  59  83 115 158 207 256 308 368
#     4  12  24  40  60  85 120 161 206 256 307 362
#     4   9  19  37  64  97 126 156 203 260 318 379
#
# _framework density 20.078742999999999
#
# number of rings (size 3 to 8) (size 9 to 14) (size 15 to 20)
#    0.000    1.375    1.250    5.250    0.000    4.000 
#    0.000    3.125    0.000    2.250    0.000    0.000 
#    0.000    0.000    0.000    0.000    0.000    0.000 
#
# Total GULP energy -178442.798176 kJ/mol
# GULP energy per Si atom -5576.337443 kJ/mol
# Density = 2.003304 g / cm^3
# Si number density = 20.078743 Si / 1000 Ang^3
#
#
#
# Elastic Constant Matrix: (Units=GPa)
#
#
# Indices 1 2 3 4 5 6 
#
# 1 169.0554 47.8611 77.2987 0.0000 0.0000 0.0000
# 2 47.8611 77.5173 38.5466 0.0000 0.0000 0.0000
# 3 77.2987 38.5466 130.6992 0.0000 0.0000 0.0000
# 4 0.0000 0.0000 0.0000 13.4957 0.0000 0.0000
# 5 0.0000 0.0000 0.0000 0.0000 15.5943 0.0000
# 6 0.0000 0.0000 0.0000 0.0000 0.0000 31.1891
#
#
#
# Elastic Compliance Matrix: (Units=1/GPa)
#
#
# Indices 1 2 3 4 5 6 
#
# 1 0.008784 -0.003328 -0.004214 0.000000 0.000000 0.000000
# 2 -0.003328 0.016378 -0.002862 0.000000 0.000000 0.000000
# 3 -0.004214 -0.002862 0.010987 0.000000 0.000000 0.000000
# 4 0.000000 0.000000 0.000000 0.074098 0.000000 0.000000
# 5 0.000000 0.000000 0.000000 0.000000 0.064126 0.000000
# 6 0.000000 0.000000 0.000000 0.000000 0.000000 0.032062
#
#
# Mechanical properties :
#
#
# Convention : Reuss Voigt Hill
#
# Bulk Modulus (GPa) = 65.17992 78.29831 71.73911
# Shear Modulus (GPa) = 21.51852 26.29351 23.90601
#
# Velocity S-wave (km/s) = 3.27724 3.62265 3.45427
# Velocity P-wave (km/s) = 6.84493 7.52186 7.19137
#
# Compressibility (1/GPa) = 0.01534215
#
# Stress axis : x y z
#
# Youngs Moduli (GPa) = 113.84244 61.05571 91.01481
#
# Poissons Ratio (x) = 0.20321 0.38349
# Poissons Ratio (y) = 0.37890 0.26049
# Poissons Ratio (z) = 0.47968 0.17474
#
# Static dielectric constant tensor:
#      x y z
#    x 1.665760 0.000000 0.000000 
#    y 0.000000 1.696790 0.000000 
#    z 0.000000 0.000000 2.173880 
# 
# From -- ./inp_files/33244.got.cif
#   From: 2010.05.17/outbox.cif.g08.bks.cpg/sg65_17_cif.got.tgz:33244.got - 2010.06.03 17:01:31.
