data_PCOD9490098
_publ_section_title
;
Structure prediction by ZEFSAII (Michael W. Deem and Ramdas Pophale) SiO2 
 PCOD9490098
Probable space group: C M M M
;
_chemical_formula_sum "Si O2"
_cell_formula_units_Z 80
_cell_length_a 16.788125
_cell_length_b 12.203998
_cell_length_c 21.047013
_cell_angle_alpha 90.000000
_cell_angle_beta 90.000000
_cell_angle_gamma 90.000000
_cell_volume 4312.159251
_symmetry_space_group_name_H-M "C M M M"
_symmetry_group_IT_number 65
_symmetry_cell_setting 'orthorhombic'
loop_
_space_group_symop_operation_xyz
x,y,z
-x,-y,z
x,-y,-z
-x,y,-z
-x,-y,-z
x,y,-z
-x,y,z
x,-y,z
1/2+x,1/2+y,z
1/2-x,1/2-y,z
1/2+x,1/2-y,-z
1/2-x,1/2+y,-z
1/2-x,1/2-y,-z
1/2+x,1/2+y,-z
1/2-x,1/2+y,z
1/2+x,1/2-y,z
loop_
_atom_site_type_symbol
_atom_site_label
_atom_site_fract_x
_atom_site_fract_y
_atom_site_fract_z
Si Si1 0.403193 0.500000 0.125168
Si Si2 0.403989 0.875729 0.190913
Si Si3 0.097442 0.234347 0.928497
Si Si4 0.156120 0.236325 0.309892
Si Si5 0.596087 0.125957 0.427268
Si Si6 0.903875 0.000000 0.274068
O O1 0.500000 0.500000 0.123354
O O2 0.377374 0.611664 0.091161
O O3 0.380980 0.500000 0.199314
O O4 0.500000 0.879880 0.187919
O O5 0.375792 0.818025 0.126041
O O6 0.382294 0.802137 0.251132
O O7 0.374002 0.000000 0.197450
O O8 0.000000 0.235205 0.928066
O O9 0.122963 0.261349 0.000000
O O10 0.250000 0.250000 0.303824
O O11 0.129184 0.291694 0.375458
O O12 0.129432 0.110504 0.304988
O O13 0.620089 0.150262 0.500000
O O14 0.500000 0.129349 0.424934
O O15 0.619801 0.000000 0.412699
O O16 0.000000 0.000000 0.277613
#
# Coordination Sequence:
#
# PCOD9490098 Si02
#       6
#     8  16  16  16  16   8
#     4   9  15  28  49  75 108 145 189 242 294 342
#     4  10  20  35  56  80 110 151 194 241 298 360
#     4   9  16  27  47  78 110 140 184 246 304 351
#     4  12  25  37  59  87 123 155 195 245 297 346
#     4   9  19  39  67  92 116 152 194 234 282 348
#     4  11  22  39  61  87 120 161 203 247 297 353
#
# _framework density 18.55219
#
# number of rings (size 3 to 8) (size 9 to 14) (size 15 to 20)
#    0.000    2.000    2.000    3.300    2.800    3.600 
#    0.000    2.500    0.000    2.400    0.000    0.000 
#    0.000    0.000    0.000    0.000    0.000    0.000 
#
# Total GULP energy -223323.390001 kJ/mol
# GULP energy per Si atom -5583.084750 kJ/mol
# Density = 1.850996 g / cm^3
# Si number density = 18.552190 Si / 1000 Ang^3
#
#
#
# Elastic Constant Matrix: (Units=GPa)
#
#
# Indices 1 2 3 4 5 6 
#
# 1 26.8676 26.3399 17.3064 0.0000 0.0000 0.0000
# 2 26.3399 175.6063 93.6544 0.0000 0.0000 0.0000
# 3 17.3064 93.6544 138.0602 0.0000 0.0000 0.0000
# 4 0.0000 0.0000 0.0000 27.1841 0.0000 0.0000
# 5 0.0000 0.0000 0.0000 0.0000 -7.1631 0.0000
# 6 0.0000 0.0000 0.0000 0.0000 0.0000 8.0964
#
#
#
# Elastic Compliance Matrix: (Units=1/GPa)
#
#
# Indices 1 2 3 4 5 6 
#
# 1 0.043867 -0.005715 -0.001622 0.000000 0.000000 0.000000
# 2 -0.005715 0.009667 -0.005841 0.000000 0.000000 0.000000
# 3 -0.001622 -0.005841 0.011409 0.000000 0.000000 0.000000
# 4 0.000000 0.000000 0.000000 0.036786 0.000000 0.000000
# 5 0.000000 0.000000 0.000000 0.000000 -0.139604 0.000000
# 6 0.000000 0.000000 0.000000 0.000000 0.000000 0.123511
#
#
# Mechanical properties :
#
#
# Convention : Reuss Voigt Hill
#
# Bulk Modulus (GPa) = 25.91584 68.34839 47.13211
# Shear Modulus (GPa) = 40.04637 19.17238 29.60938
#
# Velocity S-wave (km/s) = 4.65109 3.21819 3.99934
# Velocity P-wave (km/s) = 6.54546 7.12251 6.84007
#
# Compressibility (1/GPa) = 0.03858645
#
# Stress axis : x y z
#
# Youngs Moduli (GPa) = 22.79627 103.44449 87.64899
#
# Poissons Ratio (x) = 0.59113 0.14220
# Poissons Ratio (y) = 0.13027 0.51199
# Poissons Ratio (z) = 0.03698 0.60426
#
# Static dielectric constant tensor:
#      x y z
#    x 1.606400 0.000000 0.000000 
#    y 0.000000 1.631250 0.000000 
#    z 0.000000 0.000000 1.625810 
# 
# From -- ./inp_files/63549.got.cif
#   From: 2010.05.17/outbox.cif.g08.bks.cpg/sg65_32_cif.got.tgz:63549.got - 2010.06.03 17:01:31.
