data_PCOD9490768
_publ_section_title
;
Structure prediction by ZEFSAII (Michael W. Deem and Ramdas Pophale) SiO2 
 PCOD9490768
Probable space group: C M M M
;
_chemical_formula_sum "Si O2"
_cell_formula_units_Z 96
_cell_length_a 26.351798
_cell_length_b 22.532993
_cell_length_c 7.800234
_cell_angle_alpha 90.000000
_cell_angle_beta 90.000000
_cell_angle_gamma 90.000000
_cell_volume 4631.661009
_symmetry_space_group_name_H-M "C M M M"
_symmetry_group_IT_number 65
_symmetry_cell_setting 'orthorhombic'
loop_
_space_group_symop_operation_xyz
x,y,z
-x,-y,z
x,-y,-z
-x,y,-z
-x,-y,-z
x,y,-z
-x,y,z
x,-y,z
1/2+x,1/2+y,z
1/2-x,1/2-y,z
1/2+x,1/2-y,-z
1/2-x,1/2+y,-z
1/2-x,1/2-y,-z
1/2+x,1/2+y,-z
1/2-x,1/2+y,z
1/2+x,1/2-y,z
loop_
_atom_site_type_symbol
_atom_site_label
_atom_site_fract_x
_atom_site_fract_y
_atom_site_fract_z
Si Si1 0.143535 0.338344 0.706559
Si Si2 0.799635 0.000000 0.291225
Si Si3 0.917204 0.000000 0.706283
Si Si4 0.151653 0.205738 0.701476
Si Si5 0.945038 0.131233 0.201890
Si Si6 0.244069 0.874151 0.710389
Si Si7 0.442461 0.066948 0.205924
O O1 0.144504 0.336976 0.500000
O O2 0.138147 0.270714 0.771614
O O3 0.198896 0.360340 0.765146
O O4 0.098623 0.383350 0.751258
O O5 0.858307 0.000000 0.239970
O O6 0.773086 0.939598 0.234466
O O7 0.798985 0.000000 0.500000
O O8 0.941181 0.060740 0.771102
O O9 0.919970 0.000000 0.500000
O O10 0.162143 0.214069 0.500000
O O11 0.103676 0.162446 0.717812
O O12 0.202125 0.173551 0.771010
O O13 0.000000 0.151606 0.269687
O O14 0.943218 0.143700 0.000000
O O15 0.243237 0.873465 0.500000
O O16 0.500000 0.080364 0.267020
O O17 0.428872 0.000000 0.266875
O O18 0.444597 0.064336 0.000000
#
# Coordination Sequence:
#
# PCOD9490768 Si02
#       7
#    16   8   8  16  16  16  16
#     4  10  21  34  58  90 115 142 180 231 282 328
#     4   9  16  28  54  85 109 141 182 222 267 327
#     4  11  20  36  61  86 110 145 191 235 283 335
#     4  10  20  37  57  80 112 151 191 227 271 332
#     4  11  24  39  55  79 112 150 192 238 286 331
#     4   9  17  32  54  83 116 145 180 226 277 329
#     4   9  20  40  61  79 107 148 186 222 273 339
#
# _framework density 20.726906
#
# number of rings (size 3 to 8) (size 9 to 14) (size 15 to 20)
#    0.000    2.167    1.667    2.000    1.167    6.333 
#    0.000    5.000    0.000    2.000    0.000    0.000 
#    0.000    0.000    0.000    0.000    0.000    0.000 
#
# Total GULP energy -267994.773279 kJ/mol
# GULP energy per Si atom -5583.224443 kJ/mol
# Density = 2.067973 g / cm^3
# Si number density = 20.726906 Si / 1000 Ang^3
#
#
#
# Elastic Constant Matrix: (Units=GPa)
#
#
# Indices 1 2 3 4 5 6 
#
# 1 166.3820 106.2465 0.9332 0.0000 0.0000 0.0000
# 2 106.2465 169.1805 3.2390 0.0000 0.0000 0.0000
# 3 0.9332 3.2390 26.0226 0.0000 0.0000 0.0000
# 4 0.0000 0.0000 0.0000 -3.5575 0.0000 0.0000
# 5 0.0000 0.0000 0.0000 0.0000 24.6318 0.0000
# 6 0.0000 0.0000 0.0000 0.0000 0.0000 6.9475
#
#
#
# Elastic Compliance Matrix: (Units=1/GPa)
#
#
# Indices 1 2 3 4 5 6 
#
# 1 0.010039 -0.006313 0.000426 0.000000 0.000000 0.000000
# 2 -0.006313 0.009894 -0.001005 0.000000 0.000000 0.000000
# 3 0.000426 -0.001005 0.038538 0.000000 0.000000 0.000000
# 4 0.000000 0.000000 0.000000 -0.281098 0.000000 0.000000
# 5 0.000000 0.000000 0.000000 0.000000 0.040598 0.000000
# 6 0.000000 0.000000 0.000000 0.000000 0.000000 0.143936
#
#
# Mechanical properties :
#
#
# Convention : Reuss Voigt Hill
#
# Bulk Modulus (GPa) = 22.37783 64.71363 43.54573
# Shear Modulus (GPa) = -531.23773 22.34880 -254.44446
#
# Velocity S-wave (km/s) = -16.02685 3.28723 -11.09175
# Velocity P-wave (km/s) = 18.21153 6.76001 11.95747
#
# Compressibility (1/GPa) = 0.04468708
#
# Stress axis : x y z
#
# Youngs Moduli (GPa) = 99.61183 101.06626 25.94847
#
# Poissons Ratio (x) = 0.63800 -0.01105
# Poissons Ratio (y) = 0.62882 0.02608
# Poissons Ratio (z) = -0.04241 0.10159
#
# Static dielectric constant tensor:
#      x y z
#    x 1.724530 0.000000 0.000000 
#    y 0.000000 1.727800 0.000000 
#    z 0.000000 0.000000 1.767200 
# 
# From -- ./inp_files/14414.got.cif
#   From: 2010.05.17/outbox.cif.g08.bks.cpg/sg65_8_cif.got.tgz:14414.got - 2010.06.03 17:01:31.
