data_PCOD9490932
_publ_section_title
;
Structure prediction by ZEFSAII (Michael W. Deem and Ramdas Pophale) SiO2 
 PCOD9490932
Probable space group: C M M M
;
_chemical_formula_sum "Si O2"
_cell_formula_units_Z 104
_cell_length_a 22.338876
_cell_length_b 13.785410
_cell_length_c 17.054142
_cell_angle_alpha 90.000000
_cell_angle_beta 90.000000
_cell_angle_gamma 90.000000
_cell_volume 5251.832658
_symmetry_space_group_name_H-M "C M M M"
_symmetry_group_IT_number 65
_symmetry_cell_setting 'orthorhombic'
loop_
_space_group_symop_operation_xyz
x,y,z
-x,-y,z
x,-y,-z
-x,y,-z
-x,-y,-z
x,y,-z
-x,y,z
x,-y,z
1/2+x,1/2+y,z
1/2-x,1/2-y,z
1/2+x,1/2-y,-z
1/2-x,1/2+y,-z
1/2-x,1/2-y,-z
1/2+x,1/2+y,-z
1/2-x,1/2+y,z
1/2+x,1/2-y,z
loop_
_atom_site_type_symbol
_atom_site_label
_atom_site_fract_x
_atom_site_fract_y
_atom_site_fract_z
Si Si1 0.404697 0.884400 0.588196
Si Si2 0.648700 0.288609 0.137984
Si Si3 0.276161 0.883125 0.649055
Si Si4 0.724731 0.885654 0.167595
Si Si5 0.567424 0.725070 0.708252
Si Si6 0.071677 0.883068 0.000000
Si Si7 0.852084 0.116522 0.588825
O O1 0.425095 0.859468 0.500000
O O2 0.334049 0.860350 0.597526
O O3 0.432997 0.825759 0.659667
O O4 0.412298 0.000000 0.597605
O O5 0.679901 0.184457 0.120275
O O6 0.706365 0.358463 0.149859
O O7 0.610028 0.275419 0.216653
O O8 0.604992 0.334324 0.073836
O O9 0.284775 0.859151 0.740435
O O10 0.212534 0.846485 0.618570
O O11 0.272047 0.000000 0.646762
O O12 0.714406 0.000000 0.156548
O O13 0.500000 0.699016 0.730342
O O14 0.596530 0.651661 0.646231
O O15 0.000000 0.865116 0.000000
O O16 0.080290 0.000000 0.000000
O O17 0.862519 0.148297 0.500000
O O18 0.850126 0.000000 0.589495
#
# Coordination Sequence:
#
# PCOD9490932 Si02
#       7
#    16  16  16  16  16   8  16
#     4  10  21  37  58  85 119 163 216 270 320 371
#     4  11  23  42  68  97 127 163 205 256 317 383
#     4   9  16  32  57  87 119 153 199 253 311 370
#     4  10  20  37  67 101 132 161 199 257 323 387
#     4  12  25  39  56  81 115 162 214 260 308 369
#     4  11  26  49  75 101 133 171 211 254 296 359
#     4  10  21  36  55  81 115 156 202 256 314 369
#
# _framework density 19.802612
#
# number of rings (size 3 to 8) (size 9 to 14) (size 15 to 20)
#    0.000    1.615    3.077    1.846    0.000    6.154 
#    0.000    4.231    0.000    1.846    0.000    0.000 
#    0.000    0.000    0.000    0.000    0.000    0.000 
#
# Total GULP energy -290492.730284 kJ/mol
# GULP energy per Si atom -5586.398659 kJ/mol
# Density = 1.975754 g / cm^3
# Si number density = 19.802612 Si / 1000 Ang^3
#
#
#
# Elastic Constant Matrix: (Units=GPa)
#
#
# Indices 1 2 3 4 5 6 
#
# 1 147.9908 48.1155 54.9224 0.0000 0.0000 0.0000
# 2 48.1155 105.4089 52.2070 0.0000 0.0000 0.0000
# 3 54.9224 52.2070 107.8908 0.0000 0.0000 0.0000
# 4 0.0000 0.0000 0.0000 26.4113 0.0000 0.0000
# 5 0.0000 0.0000 0.0000 0.0000 165.9319 0.0000
# 6 0.0000 0.0000 0.0000 0.0000 0.0000 21.6668
#
#
#
# Elastic Compliance Matrix: (Units=1/GPa)
#
#
# Indices 1 2 3 4 5 6 
#
# 1 0.008753 -0.002352 -0.003318 0.000000 0.000000 0.000000
# 2 -0.002352 0.013109 -0.005146 0.000000 0.000000 0.000000
# 3 -0.003318 -0.005146 0.013448 0.000000 0.000000 0.000000
# 4 0.000000 0.000000 0.000000 0.037863 0.000000 0.000000
# 5 0.000000 0.000000 0.000000 0.000000 0.006027 0.000000
# 6 0.000000 0.000000 0.000000 0.000000 0.000000 0.046154
#
#
# Mechanical properties :
#
#
# Convention : Reuss Voigt Hill
#
# Bulk Modulus (GPa) = 73.10884 74.64225 73.87554
# Shear Modulus (GPa) = 32.99371 56.53838 44.76605
#
# Velocity S-wave (km/s) = 4.08625 5.34911 4.75975
# Velocity P-wave (km/s) = 7.69820 8.71353 8.22155
#
# Compressibility (1/GPa) = 0.01367824
#
# Stress axis : x y z
#
# Youngs Moduli (GPa) = 114.24358 76.28152 74.36320
#
# Poissons Ratio (x) = 0.17945 0.24671
# Poissons Ratio (y) = 0.26875 0.38267
# Poissons Ratio (z) = 0.37901 0.39254
#
# Static dielectric constant tensor:
#      x y z
#    x 1.686330 0.000000 0.000000 
#    y 0.000000 1.749850 0.000000 
#    z 0.000000 0.000000 1.688170 
# 
# From -- ./inp_files/55877.got.cif
#   From: 2010.05.17/outbox.cif.g08.bks.cpg/sg65_28_cif.got.tgz:55877.got - 2010.06.03 17:01:31.
