data_PCOD9490493
_publ_section_title
;
Structure prediction by ZEFSAII (Michael W. Deem and Ramdas Pophale) SiO2 
 PCOD9490493
Probable space group: C M M M
;
_chemical_formula_sum "Si O2"
_cell_formula_units_Z 112
_cell_length_a 13.246462
_cell_length_b 13.246447
_cell_length_c 31.282503
_cell_angle_alpha 90.000000
_cell_angle_beta 90.000000
_cell_angle_gamma 90.000000
_cell_volume 5489.095655
_symmetry_space_group_name_H-M "C M M M"
_symmetry_group_IT_number 65
_symmetry_cell_setting 'orthorhombic'
loop_
_space_group_symop_operation_xyz
x,y,z
-x,-y,z
x,-y,-z
-x,y,-z
-x,-y,-z
x,y,-z
-x,y,z
x,-y,z
1/2+x,1/2+y,z
1/2-x,1/2-y,z
1/2+x,1/2-y,-z
1/2-x,1/2+y,-z
1/2-x,1/2-y,-z
1/2+x,1/2+y,-z
1/2-x,1/2+y,z
1/2+x,1/2-y,z
loop_
_atom_site_type_symbol
_atom_site_label
_atom_site_fract_x
_atom_site_fract_y
_atom_site_fract_z
Si Si1 0.817381 0.884000 0.406153
Si Si2 0.887597 0.680877 0.631933
Si Si3 0.385155 0.378042 0.500000
Si Si4 0.112304 0.324383 0.266927
Si Si5 0.616000 0.817381 0.093847
Si Si6 0.324383 0.387695 0.233073
Si Si7 0.319123 0.612404 0.868067
Si Si8 0.378042 0.885155 0.000000
O O1 0.873062 0.800431 0.377387
O O2 0.700582 0.874765 0.393360
O O3 0.833377 0.851509 0.455353
O O4 0.851936 0.000000 0.400823
O O5 0.875027 0.661371 0.682332
O O6 0.000000 0.650502 0.619165
O O7 0.388895 0.500000 0.500000
O O8 0.500000 0.339522 0.500000
O O9 0.205099 0.376781 0.243147
O O10 0.123219 0.205099 0.256854
O O11 0.000000 0.358333 0.254468
O O12 0.500000 0.851936 0.099177
O O13 0.625235 0.700582 0.106640
O O14 0.699569 0.873062 0.122613
O O15 0.648490 0.833377 0.044647
O O16 0.358333 0.500000 0.245532
O O17 0.338629 0.375026 0.182332
O O18 0.349498 0.500000 0.880835
O O19 0.500000 0.888896 0.000000
O O20 0.339522 0.000000 0.000000
#
# Coordination Sequence:
#
# PCOD9490493 Si02
#       8
#    16  16   8  16  16  16  16   8
#     4  10  20  36  57  78 106 144 179 217 269 321
#     4  10  22  36  53  82 111 137 178 226 269 319
#     4   9  18  33  55  83 110 139 181 226 265 315
#     4  10  21  37  55  78 109 141 178 224 269 318
#     4  10  20  36  57  78 106 144 179 217 269 321
#     4  10  21  37  55  78 109 141 178 224 269 318
#     4  10  22  36  53  82 111 137 178 226 269 319
#     4   9  18  33  55  83 110 139 181 226 265 315
#
# _framework density 20.40409
#
# number of rings (size 3 to 8) (size 9 to 14) (size 15 to 20)
#    0.000    2.143    0.000    4.286    0.000    9.714 
#    0.000    7.857    0.000    2.571    0.000    0.000 
#    0.000    0.000    0.000    0.000    0.000    0.000 
#
# Total GULP energy -312695.898473 kJ/mol
# GULP energy per Si atom -5583.855330 kJ/mol
# Density = 2.035765 g / cm^3
# Si number density = 20.404090 Si / 1000 Ang^3
#
#
#
# Elastic Constant Matrix: (Units=GPa)
#
#
# Indices 1 2 3 4 5 6 
#
# 1 68.1762 -13.3821 15.1258 0.0000 0.0000 0.0000
# 2 -13.3821 68.1761 15.1262 0.0000 0.0000 0.0000
# 3 15.1258 15.1262 59.3578 0.0000 0.0000 0.0000
# 4 0.0000 0.0000 0.0000 44.7844 0.0000 0.0000
# 5 0.0000 0.0000 0.0000 0.0000 44.7850 0.0000
# 6 0.0000 0.0000 0.0000 0.0000 0.0000 4.0585
#
#
#
# Elastic Compliance Matrix: (Units=1/GPa)
#
#
# Indices 1 2 3 4 5 6 
#
# 1 0.016750 0.004489 -0.005412 0.000000 0.000000 0.000000
# 2 0.004489 0.016750 -0.005412 0.000000 0.000000 0.000000
# 3 -0.005412 -0.005412 0.019605 0.000000 0.000000 0.000000
# 4 0.000000 0.000000 0.000000 0.022329 0.000000 0.000000
# 5 0.000000 0.000000 0.000000 0.000000 0.022329 0.000000
# 6 0.000000 0.000000 0.000000 0.000000 0.000000 0.246397
#
#
# Mechanical properties :
#
#
# Convention : Reuss Voigt Hill
#
# Bulk Modulus (GPa) = 24.73207 25.49445 25.11326
# Shear Modulus (GPa) = 13.50224 30.64824 22.07524
#
# Velocity S-wave (km/s) = 2.57523 3.87985 3.29280
# Velocity P-wave (km/s) = 4.58147 5.70902 5.17604
#
# Compressibility (1/GPa) = 0.04043333
#
# Stress axis : x y z
#
# Youngs Moduli (GPa) = 59.70279 59.70247 51.00661
#
# Poissons Ratio (x) = -0.26798 0.27605
# Poissons Ratio (y) = -0.26798 0.27606
# Poissons Ratio (z) = 0.32311 0.32312
#
# Static dielectric constant tensor:
#      x y z
#    x 1.740980 0.000000 0.000000 
#    y 0.000000 1.740980 0.000000 
#    z 0.000000 0.000000 1.692270 
# 
# From -- ./inp_files/74927.got.cif
#   From: 2010.05.17/outbox.cif.g08.bks.cpg/sg65_38_cif.got.tgz:74927.got - 2010.06.03 17:01:31.
