data_PCOD9490517
_publ_section_title
;
Structure prediction by ZEFSAII (Michael W. Deem and Ramdas Pophale) SiO2 
 PCOD9490517
Probable space group: C M M M
;
_chemical_formula_sum "Si O2"
_cell_formula_units_Z 72
_cell_length_a 22.164674
_cell_length_b 7.789206
_cell_length_c 20.510876
_cell_angle_alpha 90.000000
_cell_angle_beta 90.000000
_cell_angle_gamma 90.000000
_cell_volume 3541.104529
_symmetry_space_group_name_H-M "C M M M"
_symmetry_group_IT_number 65
_symmetry_cell_setting 'orthorhombic'
loop_
_space_group_symop_operation_xyz
x,y,z
-x,-y,z
x,-y,-z
-x,y,-z
-x,-y,-z
x,y,-z
-x,y,z
x,-y,z
1/2+x,1/2+y,z
1/2-x,1/2-y,z
1/2+x,1/2-y,-z
1/2-x,1/2+y,-z
1/2-x,1/2-y,-z
1/2+x,1/2+y,-z
1/2-x,1/2+y,z
1/2+x,1/2-y,z
loop_
_atom_site_type_symbol
_atom_site_label
_atom_site_fract_x
_atom_site_fract_y
_atom_site_fract_z
Si Si1 0.500000 0.788293 0.077079
Si Si2 0.180535 0.707157 0.733245
Si Si3 0.927348 0.194125 0.500000
Si Si4 0.430706 0.798161 0.644870
Si Si5 0.181079 0.203696 0.000000
Si Si6 0.123040 0.299713 0.134458
O O1 0.557602 0.726243 0.117624
O O2 0.500000 0.000000 0.075532
O O3 0.500000 0.737204 0.000000
O O4 0.178905 0.500000 0.731288
O O5 0.250000 0.750000 0.716744
O O6 0.125162 0.771038 0.687588
O O7 0.162641 0.769997 0.806084
O O8 0.912658 0.279593 0.568873
O O9 0.000000 0.188927 0.500000
O O10 0.903906 0.000000 0.500000
O O11 0.500000 0.727728 0.653805
O O12 0.435322 0.000000 0.660049
O O13 0.250000 0.250000 0.000000
O O14 0.155100 0.283331 0.934552
O O15 0.170286 0.000000 0.000000
O O16 0.113532 0.500000 0.150180
#
# Coordination Sequence:
#
# PCOD9490517 Si02
#       6
#     8  16   8  16   8  16
#     4   9  16  30  56  84 106 133 174 223 273 326
#     4  10  22  37  56  81 112 147 184 227 275 328
#     4   9  17  31  54  85 116 147 181 219 268 325
#     4   9  18  34  57  85 113 143 182 228 272 317
#     4  12  24  37  54  75 101 138 184 230 275 330
#     4  10  20  36  57  81 108 141 180 224 274 328
#
# _framework density 20.332637999999999
#
# number of rings (size 3 to 8) (size 9 to 14) (size 15 to 20)
#    0.000    2.222    1.111    2.000    1.556    4.889 
#    0.000    1.667    0.000    0.000    0.000    0.000 
#    0.000    0.000    0.000    0.000    0.000    0.000 
#
# Total GULP energy -200551.253577 kJ/mol
# GULP energy per Si atom -5570.868155 kJ/mol
# Density = 2.028636 g / cm^3
# Si number density = 20.332638 Si / 1000 Ang^3
#
#
#
# Elastic Constant Matrix: (Units=GPa)
#
#
# Indices 1 2 3 4 5 6 
#
# 1 177.3641 0.7137 79.1435 0.0000 0.0000 0.0000
# 2 0.7137 31.4362 -4.0373 0.0000 0.0000 0.0000
# 3 79.1435 -4.0373 127.8927 0.0000 0.0000 0.0000
# 4 0.0000 0.0000 0.0000 126.6378 0.0000 0.0000
# 5 0.0000 0.0000 0.0000 0.0000 8.3460 0.0000
# 6 0.0000 0.0000 0.0000 0.0000 0.0000 14.1688
#
#
#
# Elastic Compliance Matrix: (Units=1/GPa)
#
#
# Indices 1 2 3 4 5 6 
#
# 1 0.007809 -0.000801 -0.004858 0.000000 0.000000 0.000000
# 2 -0.000801 0.032022 0.001507 0.000000 0.000000 0.000000
# 3 -0.004858 0.001507 0.010873 0.000000 0.000000 0.000000
# 4 0.000000 0.000000 0.000000 0.007897 0.000000 0.000000
# 5 0.000000 0.000000 0.000000 0.000000 0.119817 0.000000
# 6 0.000000 0.000000 0.000000 0.000000 0.000000 0.070578
#
#
# Mechanical properties :
#
#
# Convention : Reuss Voigt Hill
#
# Bulk Modulus (GPa) = 23.58522 54.25920 38.92221
# Shear Modulus (GPa) = 18.42074 47.22206 32.82140
#
# Velocity S-wave (km/s) = 3.01320 4.82444 4.02210
# Velocity P-wave (km/s) = 4.87141 7.60114 6.38388
#
# Compressibility (1/GPa) = 0.04239944
#
# Stress axis : x y z
#
# Youngs Moduli (GPa) = 128.05840 31.22836 91.97364
#
# Poissons Ratio (x) = 0.02502 0.44678
# Poissons Ratio (y) = 0.10260 -0.13857
# Poissons Ratio (z) = 0.62207 -0.04705
#
# Static dielectric constant tensor:
#      x y z
#    x 1.890280 0.000000 0.000000 
#    y 0.000000 1.781540 0.000000 
#    z 0.000000 0.000000 1.671140 
# 
# From -- ./inp_files/64427.got.cif
#   From: 2010.05.17/outbox.cif.g08.bks.cpg/sg65_33_cif.got.tgz:64427.got - 2010.06.03 17:01:31.
