data_PCOD9490483
_publ_section_title
;
Structure prediction by ZEFSAII (Michael W. Deem and Ramdas Pophale) SiO2 
 PCOD9490483
Probable space group: C M M M
;
_chemical_formula_sum "Si O2"
_cell_formula_units_Z 72
_cell_length_a 8.734500
_cell_length_b 22.210620
_cell_length_c 20.471461
_cell_angle_alpha 90.000000
_cell_angle_beta 90.000000
_cell_angle_gamma 90.000000
_cell_volume 3971.436010
_symmetry_space_group_name_H-M "C M M M"
_symmetry_group_IT_number 65
_symmetry_cell_setting 'orthorhombic'
loop_
_space_group_symop_operation_xyz
x,y,z
-x,-y,z
x,-y,-z
-x,y,-z
-x,-y,-z
x,y,-z
-x,y,z
x,-y,z
1/2+x,1/2+y,z
1/2-x,1/2-y,z
1/2+x,1/2-y,-z
1/2-x,1/2+y,-z
1/2-x,1/2-y,-z
1/2+x,1/2+y,-z
1/2-x,1/2+y,z
1/2+x,1/2-y,z
loop_
_atom_site_type_symbol
_atom_site_label
_atom_site_fract_x
_atom_site_fract_y
_atom_site_fract_z
Si Si1 0.682256 0.184691 0.500000
Si Si2 0.683086 0.815181 0.249772
Si Si3 0.817052 0.500000 0.578278
Si Si4 0.815833 0.317375 0.097413
Si Si5 0.814360 0.573484 0.000000
Si Si6 0.181487 0.121764 0.627461
O O1 0.500000 0.181203 0.500000
O O2 0.750000 0.250000 0.500000
O O3 0.743691 0.156970 0.432946
O O4 0.500000 0.815126 0.255494
O O5 0.750000 0.750000 0.266507
O O6 0.722058 0.826485 0.173863
O O7 0.754650 0.859339 0.302403
O O8 0.792514 0.500000 0.500000
O O9 0.735914 0.555600 0.611275
O O10 0.000000 0.500000 0.588504
O O11 0.750000 0.250000 0.078775
O O12 0.000000 0.312275 0.089775
O O13 0.770350 0.379530 0.059386
O O14 0.765676 0.500000 0.000000
O O15 0.000000 0.569777 0.000000
O O16 0.000000 0.129458 0.625807
#
# Coordination Sequence:
#
# PCOD9490483 Si02
#       6
#     8  16   8  16   8  16
#     4  12  24  39  58  83 112 144 184 234 288 340
#     4  10  20  36  56  83 115 148 189 234 287 341
#     4  11  23  41  63  83 108 145 188 235 280 336
#     4   9  18  33  57  86 114 152 194 238 286 341
#     4   9  17  32  55  85 120 151 192 240 286 339
#     4  12  24  39  59  83 112 147 186 232 285 338
#
# _framework density 18.129463000000001
#
# number of rings (size 3 to 8) (size 9 to 14) (size 15 to 20)
#    0.000    1.556    1.111    5.000    0.000    1.333 
#    2.000    0.000    0.000    1.333    0.000    0.000 
#    0.000    0.000    0.000    0.000    0.000    0.000 
#
# Total GULP energy -200560.318149 kJ/mol
# GULP energy per Si atom -5571.119949 kJ/mol
# Density = 1.808820 g / cm^3
# Si number density = 18.129463 Si / 1000 Ang^3
#
#
#
# Elastic Constant Matrix: (Units=GPa)
#
#
# Indices 1 2 3 4 5 6 
#
# 1 89.8767 40.2960 54.3618 0.0000 0.0000 0.0000
# 2 40.2960 167.9010 76.9004 0.0000 0.0000 0.0000
# 3 54.3618 76.9004 121.0754 0.0000 0.0000 0.0000
# 4 0.0000 0.0000 0.0000 38.2840 0.0000 0.0000
# 5 0.0000 0.0000 0.0000 0.0000 21.0649 0.0000
# 6 0.0000 0.0000 0.0000 0.0000 0.0000 30.0690
#
#
#
# Elastic Compliance Matrix: (Units=1/GPa)
#
#
# Indices 1 2 3 4 5 6 
#
# 1 0.015340 -0.000743 -0.006415 0.000000 0.000000 0.000000
# 2 -0.000743 0.008435 -0.005024 0.000000 0.000000 0.000000
# 3 -0.006415 -0.005024 0.014331 0.000000 0.000000 0.000000
# 4 0.000000 0.000000 0.000000 0.026121 0.000000 0.000000
# 5 0.000000 0.000000 0.000000 0.000000 0.047472 0.000000
# 6 0.000000 0.000000 0.000000 0.000000 0.000000 0.033257
#
#
# Mechanical properties :
#
#
# Convention : Reuss Voigt Hill
#
# Bulk Modulus (GPa) = 72.77620 80.21883 76.49752
# Shear Modulus (GPa) = 28.75199 31.70325 30.22762
#
# Velocity S-wave (km/s) = 3.98669 4.18630 4.08771
# Velocity P-wave (km/s) = 7.83717 8.22865 8.03529
#
# Compressibility (1/GPa) = 0.01374076
#
# Stress axis : x y z
#
# Youngs Moduli (GPa) = 65.18929 118.54990 69.78028
#
# Poissons Ratio (x) = 0.08811 0.44767
# Poissons Ratio (y) = 0.04845 0.35057
# Poissons Ratio (z) = 0.41822 0.59558
#
# Static dielectric constant tensor:
#      x y z
#    x 1.604250 0.000000 0.000000 
#    y 0.000000 1.608750 0.000000 
#    z 0.000000 0.000000 1.586560 
# 
# From -- ./inp_files/59343.got.cif
#   From: 2010.05.17/outbox.cif.g08.bks.cpg/sg65_30_cif.got.tgz:59343.got - 2010.06.03 17:01:31.
