data_PCOD9490594
_publ_section_title
;
Structure prediction by ZEFSAII (Michael W. Deem and Ramdas Pophale) SiO2 
 PCOD9490594
Probable space group: C M M M
;
_chemical_formula_sum "Si O2"
_cell_formula_units_Z 104
_cell_length_a 8.543027
_cell_length_b 22.833618
_cell_length_c 27.489977
_cell_angle_alpha 90.000000
_cell_angle_beta 90.000000
_cell_angle_gamma 90.000000
_cell_volume 5362.420746
_symmetry_space_group_name_H-M "C M M M"
_symmetry_group_IT_number 65
_symmetry_cell_setting 'orthorhombic'
loop_
_space_group_symop_operation_xyz
x,y,z
-x,-y,z
x,-y,-z
-x,y,-z
-x,-y,-z
x,y,-z
-x,y,z
x,-y,z
1/2+x,1/2+y,z
1/2-x,1/2-y,z
1/2+x,1/2-y,-z
1/2-x,1/2+y,-z
1/2-x,1/2-y,-z
1/2+x,1/2+y,-z
1/2-x,1/2+y,z
1/2+x,1/2-y,z
loop_
_atom_site_type_symbol
_atom_site_label
_atom_site_fract_x
_atom_site_fract_y
_atom_site_fract_z
Si Si1 0.188352 0.500000 0.896745
Si Si2 0.187683 0.685427 0.809323
Si Si3 0.813954 0.314340 0.000000
Si Si4 0.810769 0.390183 0.278791
Si Si5 0.685466 0.623254 0.905083
Si Si6 0.688732 0.314132 0.557083
Si Si7 0.311141 0.000000 0.785980
Si Si8 0.811776 0.069441 0.616814
O O1 0.257983 0.441570 0.917868
O O2 0.243610 0.500000 0.840636
O O3 0.000000 0.500000 0.898984
O O4 0.250000 0.750000 0.819134
O O5 0.235616 0.665060 0.754700
O O6 0.245421 0.643795 0.853036
O O7 0.000000 0.683830 0.810364
O O8 0.750000 0.250000 0.000000
O O9 0.749527 0.340129 0.949882
O O10 0.000000 0.318572 0.000000
O O11 0.764947 0.443489 0.243744
O O12 0.735724 0.405614 0.330302
O O13 0.000000 0.389229 0.285107
O O14 0.500000 0.627363 0.901895
O O15 0.731429 0.316811 0.500000
O O16 0.500000 0.312217 0.561316
O O17 0.750000 0.250000 0.575709
O O18 0.740580 0.376294 0.581481
O O19 0.500000 0.000000 0.788052
O O20 0.000000 0.066587 0.612759
O O21 0.757578 0.000000 0.610576
#
# Coordination Sequence:
#
# PCOD9490594 Si02
#       8
#     8  16   8  16  16  16   8  16
#     4  11  21  40  66  93 123 158 199 242 292 352
#     4  11  23  40  60  85 117 157 200 244 291 351
#     4  12  26  47  70  91 118 158 198 242 298 356
#     4  10  20  36  58  82 113 155 195 233 286 348
#     4  12  25  42  64  94 124 154 195 245 297 354
#     4   9  19  37  59  81 110 151 197 243 296 358
#     4   9  16  33  58  82 110 148 193 233 276 340
#     4  10  21  35  54  85 119 150 191 246 301 354
#
# _framework density 19.394224999999999
#
# number of rings (size 3 to 8) (size 9 to 14) (size 15 to 20)
#    0.000    1.538    2.308    3.231    0.000    3.077 
#    0.000    6.154    0.000    0.000    0.000    3.231 
#    0.000    0.000    0.000    0.000    0.000    0.000 
#
# Total GULP energy -289872.354452 kJ/mol
# GULP energy per Si atom -5574.468355 kJ/mol
# Density = 1.935008 g / cm^3
# Si number density = 19.394225 Si / 1000 Ang^3
#
#
#
# Elastic Constant Matrix: (Units=GPa)
#
#
# Indices 1 2 3 4 5 6 
#
# 1 57.4386 30.6717 20.4379 0.0000 0.0000 0.0000
# 2 30.6717 162.2583 62.1442 0.0000 0.0000 0.0000
# 3 20.4379 62.1442 87.9378 0.0000 0.0000 0.0000
# 4 0.0000 0.0000 0.0000 71.2839 0.0000 0.0000
# 5 0.0000 0.0000 0.0000 0.0000 27.8839 0.0000
# 6 0.0000 0.0000 0.0000 0.0000 0.0000 27.9129
#
#
#
# Elastic Compliance Matrix: (Units=1/GPa)
#
#
# Indices 1 2 3 4 5 6 
#
# 1 0.019816 -0.002717 -0.002685 0.000000 0.000000 0.000000
# 2 -0.002717 0.008823 -0.005603 0.000000 0.000000 0.000000
# 3 -0.002685 -0.005603 0.015955 0.000000 0.000000 0.000000
# 4 0.000000 0.000000 0.000000 0.014028 0.000000 0.000000
# 5 0.000000 0.000000 0.000000 0.000000 0.035863 0.000000
# 6 0.000000 0.000000 0.000000 0.000000 0.000000 0.035826
#
#
# Mechanical properties :
#
#
# Convention : Reuss Voigt Hill
#
# Bulk Modulus (GPa) = 44.28163 59.34915 51.81539
# Shear Modulus (GPa) = 31.27905 38.37487 34.82696
#
# Velocity S-wave (km/s) = 4.02033 4.45306 4.24221
# Velocity P-wave (km/s) = 6.66578 7.55695 7.12531
#
# Compressibility (1/GPa) = 0.02258273
#
# Stress axis : x y z
#
# Youngs Moduli (GPa) = 50.46312 113.34353 62.67433
#
# Poissons Ratio (x) = 0.30801 0.16829
# Poissons Ratio (y) = 0.13713 0.35118
# Poissons Ratio (z) = 0.13550 0.63510
#
# Static dielectric constant tensor:
#      x y z
#    x 1.664710 0.000000 0.000000 
#    y 0.000000 1.698460 0.000000 
#    z 0.000000 0.000000 1.656460 
# 
# From -- ./inp_files/73385.got.cif
#   From: 2010.05.17/outbox.cif.g08.bks.cpg/sg65_37_cif.got.tgz:73385.got - 2010.06.03 17:01:31.
