data_PCOD9490226
_publ_section_title
;
Structure prediction by ZEFSAII (Michael W. Deem and Ramdas Pophale) SiO2 
 PCOD9490226
Probable space group: C M M M
;
_chemical_formula_sum "Si O2"
_cell_formula_units_Z 104
_cell_length_a 28.214978
_cell_length_b 28.715185
_cell_length_c 7.676260
_cell_angle_alpha 90.000000
_cell_angle_beta 90.000000
_cell_angle_gamma 90.000000
_cell_volume 6219.292902
_symmetry_space_group_name_H-M "C M M M"
_symmetry_group_IT_number 65
_symmetry_cell_setting 'orthorhombic'
loop_
_space_group_symop_operation_xyz
x,y,z
-x,-y,z
x,-y,-z
-x,y,-z
-x,-y,-z
x,y,-z
-x,y,z
x,-y,z
1/2+x,1/2+y,z
1/2-x,1/2-y,z
1/2+x,1/2-y,-z
1/2-x,1/2+y,-z
1/2-x,1/2-y,-z
1/2+x,1/2+y,-z
1/2-x,1/2+y,z
1/2+x,1/2-y,z
loop_
_atom_site_type_symbol
_atom_site_label
_atom_site_fract_x
_atom_site_fract_y
_atom_site_fract_z
Si Si1 0.787413 0.946367 0.292864
Si Si2 0.816567 0.553698 0.209419
Si Si3 0.000000 0.553447 0.213072
Si Si4 0.390508 0.444594 0.801752
Si Si5 0.943054 0.711297 0.205323
Si Si6 0.056893 0.109473 0.500000
Si Si7 0.092355 0.610566 0.787362
Si Si8 0.557303 0.283475 0.500000
O O1 0.794174 0.946404 0.500000
O O2 0.735532 0.926722 0.253221
O O3 0.835869 0.927541 0.212786
O O4 0.784037 0.000000 0.229709
O O5 0.820728 0.500000 0.274735
O O6 0.859389 0.586046 0.272352
O O7 0.819981 0.551431 0.000000
O O8 0.047132 0.580303 0.269146
O O9 0.000000 0.500000 0.269037
O O10 0.000000 0.553686 0.000000
O O11 0.390345 0.500000 0.757725
O O12 0.422480 0.416885 0.667489
O O13 0.406779 0.439640 0.000000
O O14 0.916491 0.664087 0.260863
O O15 0.929226 0.753990 0.329009
O O16 0.000000 0.703182 0.223631
O O17 0.934396 0.720100 0.000000
O O18 0.073329 0.163259 0.500000
O O19 0.000000 0.107906 0.500000
O O20 0.092407 0.610006 0.000000
O O21 0.500000 0.285132 0.500000
#
# Coordination Sequence:
#
# PCOD9490226 Si02
#       8
#    16  16   8  16  16   8  16   8
#     4   9  16  29  48  69  97 134 174 212 245 280
#     4   9  16  25  39  64  98 131 168 218 265 304
#     4   9  14  20  34  59  93 133 174 211 257 322
#     4  10  20  35  57  83 111 145 176 196 225 276
#     4   9  16  30  50  69  92 125 172 224 265 308
#     4  11  23  38  55  81 116 141 165 199 234 287
#     4   9  15  24  39  63  93 129 172 218 267 315
#     4   9  20  35  52  74  96 127 167 208 258 297
#
# _framework density 16.722158
#
# number of rings (size 3 to 8) (size 9 to 14) (size 15 to 20)
#    0.000    2.692    1.538    1.154    0.000    5.231 
#    1.385    2.308    0.000    0.000    0.000    2.692 
#    0.000    4.923    0.000    0.000    0.000    0.000 
#
# Total GULP energy -289828.035744 kJ/mol
# GULP energy per Si atom -5573.616072 kJ/mol
# Density = 1.668410 g / cm^3
# Si number density = 16.722158 Si / 1000 Ang^3
#
#
#
# Elastic Constant Matrix: (Units=GPa)
#
#
# Indices 1 2 3 4 5 6 
#
# 1 98.9621 53.2524 34.5238 0.0000 0.0000 0.0000
# 2 53.2524 109.6063 51.4784 0.0000 0.0000 0.0000
# 3 34.5238 51.4784 67.6218 0.0000 0.0000 0.0000
# 4 0.0000 0.0000 0.0000 8.2499 0.0000 0.0000
# 5 0.0000 0.0000 0.0000 0.0000 12.9577 0.0000
# 6 0.0000 0.0000 0.0000 0.0000 0.0000 4.3801
#
#
#
# Elastic Compliance Matrix: (Units=1/GPa)
#
#
# Indices 1 2 3 4 5 6 
#
# 1 0.014083 -0.005394 -0.003084 0.000000 0.000000 0.000000
# 2 -0.005394 0.016267 -0.009630 0.000000 0.000000 0.000000
# 3 -0.003084 -0.009630 0.023693 0.000000 0.000000 0.000000
# 4 0.000000 0.000000 0.000000 0.121214 0.000000 0.000000
# 5 0.000000 0.000000 0.000000 0.000000 0.077174 0.000000
# 6 0.000000 0.000000 0.000000 0.000000 0.000000 0.228307
#
#
# Mechanical properties :
#
#
# Convention : Reuss Voigt Hill
#
# Bulk Modulus (GPa) = 56.08973 61.63324 58.86149
# Shear Modulus (GPa) = 9.56211 14.24658 11.90434
#
# Velocity S-wave (km/s) = 2.39388 2.92200 2.67102
# Velocity P-wave (km/s) = 6.42307 6.95136 6.69243
#
# Compressibility (1/GPa) = 0.01782858
#
# Stress axis : x y z
#
# Youngs Moduli (GPa) = 71.00633 61.47423 42.20597
#
# Poissons Ratio (x) = 0.33159 0.13015
# Poissons Ratio (y) = 0.38301 0.40643
# Poissons Ratio (z) = 0.21897 0.59198
#
# Static dielectric constant tensor:
#      x y z
#    x 1.569610 0.000000 0.000000 
#    y 0.000000 1.542830 0.000000 
#    z 0.000000 0.000000 1.603640 
# 
# From -- ./inp_files/16850.got.cif
#   From: 2010.05.17/outbox.cif.g08.bks.cpg/sg65_9_cif.got.tgz:16850.got - 2010.06.03 17:01:31.
