data_PCOD9490395
_publ_section_title
;
Structure prediction by ZEFSAII (Michael W. Deem and Ramdas Pophale) SiO2 
 PCOD9490395
Probable space group: C M M M
;
_chemical_formula_sum "Si O2"
_cell_formula_units_Z 66
_cell_length_a 28.169334
_cell_length_b 13.933674
_cell_length_c 9.942453
_cell_angle_alpha 90.000000
_cell_angle_beta 90.000000
_cell_angle_gamma 90.000000
_cell_volume 3902.435837
_symmetry_space_group_name_H-M "C M M M"
_symmetry_group_IT_number 65
_symmetry_cell_setting 'orthorhombic'
loop_
_space_group_symop_operation_xyz
x,y,z
-x,-y,z
x,-y,-z
-x,y,-z
-x,-y,-z
x,y,-z
-x,y,z
x,-y,z
1/2+x,1/2+y,z
1/2-x,1/2-y,z
1/2+x,1/2-y,-z
1/2-x,1/2+y,-z
1/2-x,1/2-y,-z
1/2+x,1/2+y,-z
1/2-x,1/2+y,z
1/2+x,1/2-y,z
loop_
_atom_site_type_symbol
_atom_site_label
_atom_site_fract_x
_atom_site_fract_y
_atom_site_fract_z
Si Si1 0.947621 0.703554 0.000000
Si Si2 0.557035 0.385555 0.500000
Si Si3 0.000000 0.500000 0.000000
Si Si4 0.701780 0.797667 0.340217
Si Si5 0.254830 0.000000 0.342664
Si Si6 0.837739 0.000000 0.847178
Si Si7 0.609285 0.693241 0.235847
O O1 0.920538 0.744313 0.869938
O O2 0.959050 0.588585 0.000000
O O3 0.000000 0.749398 0.000000
O O4 0.568663 0.500000 0.500000
O O5 0.500000 0.376375 0.500000
O O6 0.579260 0.336145 0.632220
O O7 0.698884 0.777309 0.500000
O O8 0.750000 0.750000 0.287141
O O9 0.711989 0.908837 0.320148
O O10 0.655044 0.755502 0.275994
O O11 0.239594 0.000000 0.500000
O O12 0.207203 0.000000 0.253887
O O13 0.869893 0.905946 0.823737
O O14 0.819930 0.000000 0.000000
#
# Coordination Sequence:
#
# PCOD9490395 Si02
#       7
#     8   8   2  16   8   8  16
#     4  10  24  47  71  89 118 167 220 264 322 381
#     4  11  24  38  61  98 132 164 210 266 331 390
#     4   8  24  52  76  84 112 176 208 266 320 402
#     4  10  20  35  60  92 125 167 211 252 307 379
#     4  10  22  39  61  87 128 174 215 256 307 381
#     4  12  24  38  56  98 134 165 205 256 318 374
#     4  12  22  40  66  93 129 172 208 261 320 382
#
# _framework density 16.912514999999999
#
# number of rings (size 3 to 8) (size 9 to 14) (size 15 to 20)
#    0.364    0.848    6.061    0.727    1.697    0.970 
#    2.182    2.424    0.000    0.727    0.000    0.000 
#    0.000    0.000    0.000    0.000    0.000    0.000 
#
# Total GULP energy -183756.047173 kJ/mol
# GULP energy per Si atom -5568.365066 kJ/mol
# Density = 1.687402 g / cm^3
# Si number density = 16.912515 Si / 1000 Ang^3
#
#
#
# Elastic Constant Matrix: (Units=GPa)
#
#
# Indices 1 2 3 4 5 6 
#
# 1 152.2379 81.1605 75.9556 0.0000 0.0000 0.0000
# 2 81.1605 138.6612 78.9644 0.0000 0.0000 0.0000
# 3 75.9556 78.9644 111.8552 0.0000 0.0000 0.0000
# 4 0.0000 0.0000 0.0000 23.8930 0.0000 0.0000
# 5 0.0000 0.0000 0.0000 0.0000 29.4299 0.0000
# 6 0.0000 0.0000 0.0000 0.0000 0.0000 50.9961
#
#
#
# Elastic Compliance Matrix: (Units=1/GPa)
#
#
# Indices 1 2 3 4 5 6 
#
# 1 0.010927 -0.003629 -0.004858 0.000000 0.000000 0.000000
# 2 -0.003629 0.013266 -0.006900 0.000000 0.000000 0.000000
# 3 -0.004858 -0.006900 0.017110 0.000000 0.000000 0.000000
# 4 0.000000 0.000000 0.000000 0.041853 0.000000 0.000000
# 5 0.000000 0.000000 0.000000 0.000000 0.033979 0.000000
# 6 0.000000 0.000000 0.000000 0.000000 0.000000 0.019609
#
#
# Mechanical properties :
#
#
# Convention : Reuss Voigt Hill
#
# Bulk Modulus (GPa) = 94.98742 97.21279 96.10011
# Shear Modulus (GPa) = 29.23454 31.97539 30.60497
#
# Velocity S-wave (km/s) = 4.16212 4.35286 4.25856
# Velocity P-wave (km/s) = 8.90975 9.10317 9.00698
#
# Compressibility (1/GPa) = 0.01052771
#
# Stress axis : x y z
#
# Youngs Moduli (GPa) = 91.51313 75.38160 58.44378
#
# Poissons Ratio (x) = 0.27359 0.28393
# Poissons Ratio (y) = 0.33214 0.40329
# Poissons Ratio (z) = 0.44458 0.52017
#
# Static dielectric constant tensor:
#      x y z
#    x 1.542140 0.000000 0.000000 
#    y 0.000000 1.539810 0.000000 
#    z 0.000000 0.000000 1.576310 
# 
# From -- ./inp_files/15720.got.cif
#   From: 2010.05.17/outbox.cif.g08.bks.cpg/sg65_8_cif.got.tgz:15720.got - 2010.06.03 17:01:31.
