data_PCOD9490643
_publ_section_title
;
Structure prediction by ZEFSAII (Michael W. Deem and Ramdas Pophale) SiO2 
 PCOD9490643
Probable space group: C M M M
;
_chemical_formula_sum "Si O2"
_cell_formula_units_Z 88
_cell_length_a 16.209943
_cell_length_b 9.225295
_cell_length_c 30.806932
_cell_angle_alpha 90.000000
_cell_angle_beta 90.000000
_cell_angle_gamma 90.000000
_cell_volume 4606.915010
_symmetry_space_group_name_H-M "C M M M"
_symmetry_group_IT_number 65
_symmetry_cell_setting 'orthorhombic'
loop_
_space_group_symop_operation_xyz
x,y,z
-x,-y,z
x,-y,-z
-x,y,-z
-x,-y,-z
x,y,-z
-x,y,z
x,-y,z
1/2+x,1/2+y,z
1/2-x,1/2-y,z
1/2+x,1/2-y,-z
1/2-x,1/2+y,-z
1/2-x,1/2-y,-z
1/2+x,1/2+y,-z
1/2-x,1/2+y,z
1/2+x,1/2-y,z
loop_
_atom_site_type_symbol
_atom_site_label
_atom_site_fract_x
_atom_site_fract_y
_atom_site_fract_z
Si Si1 0.400736 0.830180 0.866751
Si Si2 0.500000 0.323964 0.549796
Si Si3 0.835937 0.674053 0.226494
Si Si4 0.595858 0.169665 0.318826
Si Si5 0.600433 0.329978 0.952579
Si Si6 0.833782 0.826175 0.398873
O O1 0.500000 0.817221 0.865590
O O2 0.368089 0.775658 0.820478
O O3 0.369110 0.749653 0.909605
O O4 0.380860 0.000000 0.870637
O O5 0.500000 0.500000 0.549941
O O6 0.500000 0.274458 0.500000
O O7 0.584593 0.281460 0.573981
O O8 0.827269 0.500000 0.224025
O O9 0.750000 0.750000 0.235465
O O10 0.893101 0.703658 0.267965
O O11 0.500000 0.186141 0.330292
O O12 0.648942 0.270737 0.350018
O O13 0.619010 0.000000 0.325208
O O14 0.500000 0.318619 0.952358
O O15 0.620126 0.500000 0.950106
O O16 0.628031 0.273913 0.000000
O O17 0.750000 0.750000 0.414652
O O18 0.825805 0.000000 0.400260
#
# Coordination Sequence:
#
# PCOD9490643 Si02
#       6
#    16   8  16  16  16  16
#     4   9  17  30  48  69  94 124 162 206 253 306
#     4   9  20  40  63  87 121 163 203 247 300 351
#     4  10  21  35  50  72 102 138 175 215 263 319
#     4  10  20  36  59  84 113 148 187 232 284 340
#     4   8  14  25  42  66  95 123 153 195 250 309
#     4  11  22  38  61  90 122 158 200 246 295 349
#
# _framework density 19.101718999999999
#
# number of rings (size 3 to 8) (size 9 to 14) (size 15 to 20)
#    0.000    2.455    0.909    2.182    0.000    5.818 
#    0.000    1.818    0.000    7.636    0.000    0.000 
#    0.000    0.000    0.000    0.000    0.000    0.000 
#
# Total GULP energy -245365.632340 kJ/mol
# GULP energy per Si atom -5576.491644 kJ/mol
# Density = 1.905824 g / cm^3
# Si number density = 19.101719 Si / 1000 Ang^3
#
#
#
# Elastic Constant Matrix: (Units=GPa)
#
#
# Indices 1 2 3 4 5 6 
#
# 1 77.9563 37.7057 47.8221 0.0000 0.0000 0.0000
# 2 37.7057 30.9686 36.1837 0.0000 0.0000 0.0000
# 3 47.8221 36.1837 125.6426 0.0000 0.0000 0.0000
# 4 0.0000 0.0000 0.0000 22.6496 0.0000 0.0000
# 5 0.0000 0.0000 0.0000 0.0000 4.5769 0.0000
# 6 0.0000 0.0000 0.0000 0.0000 0.0000 23.4666
#
#
#
# Elastic Compliance Matrix: (Units=1/GPa)
#
#
# Indices 1 2 3 4 5 6 
#
# 1 0.031370 -0.036538 -0.001417 0.000000 0.000000 0.000000
# 2 -0.036538 0.091225 -0.012364 0.000000 0.000000 0.000000
# 3 -0.001417 -0.012364 0.012059 0.000000 0.000000 0.000000
# 4 0.000000 0.000000 0.000000 0.044151 0.000000 0.000000
# 5 0.000000 0.000000 0.000000 0.000000 0.218491 0.000000
# 6 0.000000 0.000000 0.000000 0.000000 0.000000 0.042614
#
#
# Mechanical properties :
#
#
# Convention : Reuss Voigt Hill
#
# Bulk Modulus (GPa) = 29.40007 53.11007 41.25507
# Shear Modulus (GPa) = 9.05982 17.66234 13.36108
#
# Velocity S-wave (km/s) = 2.18019 3.04410 2.64762
# Velocity P-wave (km/s) = 4.66502 6.34189 5.56695
#
# Compressibility (1/GPa) = 0.03401352
#
# Stress axis : x y z
#
# Youngs Moduli (GPa) = 31.87760 10.96197 82.92284
#
# Poissons Ratio (x) = 0.40053 0.11753
# Poissons Ratio (y) = 1.16475 1.02530
# Poissons Ratio (z) = 0.04518 0.13554
#
# Static dielectric constant tensor:
#      x y z
#    x 1.671620 0.000000 0.000000 
#    y 0.000000 1.639510 0.000000 
#    z 0.000000 0.000000 1.685290 
# 
# From -- ./inp_files/77804.got.cif
#   From: 2010.05.17/outbox.cif.g08.bks.cpg/sg65_39_cif.got.tgz:77804.got - 2010.06.03 17:01:31.
