data_PCOD9490717
_publ_section_title
;
Structure prediction by ZEFSAII (Michael W. Deem and Ramdas Pophale) SiO2 
 PCOD9490717
Probable space group: C M M M
;
_chemical_formula_sum "Si O2"
_cell_formula_units_Z 80
_cell_length_a 17.225596
_cell_length_b 27.980385
_cell_length_c 8.665711
_cell_angle_alpha 90.000000
_cell_angle_beta 90.000000
_cell_angle_gamma 90.000000
_cell_volume 4176.689058
_symmetry_space_group_name_H-M "C M M M"
_symmetry_group_IT_number 65
_symmetry_cell_setting 'orthorhombic'
loop_
_space_group_symop_operation_xyz
x,y,z
-x,-y,z
x,-y,-z
-x,y,-z
-x,-y,-z
x,y,-z
-x,y,z
x,-y,z
1/2+x,1/2+y,z
1/2-x,1/2-y,z
1/2+x,1/2-y,-z
1/2-x,1/2+y,-z
1/2-x,1/2-y,-z
1/2+x,1/2+y,-z
1/2-x,1/2+y,z
1/2+x,1/2-y,z
loop_
_atom_site_type_symbol
_atom_site_label
_atom_site_fract_x
_atom_site_fract_y
_atom_site_fract_z
Si Si1 0.318080 0.094464 0.685224
Si Si2 0.091397 0.685259 0.815510
Si Si3 0.910868 0.500000 0.688089
Si Si4 0.408271 0.711675 0.684382
Si Si5 0.000000 0.054910 0.812007
Si Si6 0.151594 0.885896 0.185134
O O1 0.317399 0.095531 0.500000
O O2 0.359737 0.141997 0.746770
O O3 0.230756 0.093533 0.747151
O O4 0.365945 0.047753 0.736643
O O5 0.115599 0.736563 0.747717
O O6 0.000000 0.678617 0.776790
O O7 0.098939 0.686146 0.000000
O O8 0.911831 0.500000 0.500000
O O9 0.000000 0.500000 0.740737
O O10 0.400640 0.710679 0.500000
O O11 0.500000 0.705397 0.723553
O O12 0.361601 0.668159 0.758088
O O13 0.077072 0.083162 0.763349
O O14 0.000000 0.000000 0.760292
O O15 0.000000 0.054757 0.000000
O O16 0.154886 0.886548 0.000000
#
# Coordination Sequence:
#
# PCOD9490717 Si02
#       6
#    16  16   8  16   8  16
#     4  11  23  39  60  89 122 156 199 247 299 353
#     4  10  21  38  61  89 121 156 199 246 298 358
#     4   9  20  40  65  88 117 158 198 240 294 357
#     4  10  20  36  60  88 120 158 200 245 297 357
#     4   9  20  38  61  87 117 161 205 244 295 356
#     4  11  22  38  61  88 122 159 201 247 298 352
#
# _framework density 19.153926999999999
#
# number of rings (size 3 to 8) (size 9 to 14) (size 15 to 20)
#    0.000    1.800    1.000    3.000    1.400    3.600 
#    0.000    5.500    0.000    6.000    0.000    0.000 
#    0.000    0.000    0.000    0.000    0.000    0.000 
#
# Total GULP energy -223587.396091 kJ/mol
# GULP energy per Si atom -5589.684902 kJ/mol
# Density = 1.911033 g / cm^3
# Si number density = 19.153927 Si / 1000 Ang^3
#
#
#
# Elastic Constant Matrix: (Units=GPa)
#
#
# Indices 1 2 3 4 5 6 
#
# 1 150.5583 102.7062 36.8562 0.0000 0.0000 0.0000
# 2 102.7062 166.5285 29.3993 0.0000 0.0000 0.0000
# 3 36.8562 29.3993 38.4871 0.0000 0.0000 0.0000
# 4 0.0000 0.0000 0.0000 16.4981 0.0000 0.0000
# 5 0.0000 0.0000 0.0000 0.0000 30.5709 0.0000
# 6 0.0000 0.0000 0.0000 0.0000 0.0000 -27.0020
#
#
#
# Elastic Compliance Matrix: (Units=1/GPa)
#
#
# Indices 1 2 3 4 5 6 
#
# 1 0.013040 -0.006748 -0.007333 0.000000 0.000000 0.000000
# 2 -0.006748 0.010433 -0.001507 0.000000 0.000000 0.000000
# 3 -0.007333 -0.001507 0.034157 0.000000 0.000000 0.000000
# 4 0.000000 0.000000 0.000000 0.060613 0.000000 0.000000
# 5 0.000000 0.000000 0.000000 0.000000 0.032711 0.000000
# 6 0.000000 0.000000 0.000000 0.000000 0.000000 -0.037034
#
#
# Mechanical properties :
#
#
# Convention : Reuss Voigt Hill
#
# Bulk Modulus (GPa) = 37.80317 77.05524 57.42921
# Shear Modulus (GPa) = 32.48569 16.45423 24.46996
#
# Velocity S-wave (km/s) = 4.12276 2.93414 3.57815
# Velocity P-wave (km/s) = 6.51477 7.19692 6.86433
#
# Compressibility (1/GPa) = 0.02645281
#
# Stress axis : x y z
#
# Youngs Moduli (GPa) = 76.68494 95.85050 29.27693
#
# Poissons Ratio (x) = 0.64680 0.21469
# Poissons Ratio (y) = 0.51747 0.04413
# Poissons Ratio (z) = 0.56234 0.14448
#
# Static dielectric constant tensor:
#      x y z
#    x 1.656790 0.000000 0.000000 
#    y 0.000000 1.633770 0.000000 
#    z 0.000000 0.000000 1.638520 
# 
# From -- ./inp_files/9720.got.cif
#   From: 2010.05.17/outbox.cif.g08.bks.cpg/sg65_5_cif.got.tgz:9720.got - 2010.06.03 17:01:31.
