data_PCOD9490889
_publ_section_title
;
Structure prediction by ZEFSAII (Michael W. Deem and Ramdas Pophale) SiO2 
 PCOD9490889
Probable space group: C M M M
;
_chemical_formula_sum "Si O2"
_cell_formula_units_Z 72
_cell_length_a 13.869495
_cell_length_b 32.591452
_cell_length_c 7.520277
_cell_angle_alpha 90.000000
_cell_angle_beta 90.000000
_cell_angle_gamma 90.000000
_cell_volume 3399.368105
_symmetry_space_group_name_H-M "C M M M"
_symmetry_group_IT_number 65
_symmetry_cell_setting 'orthorhombic'
loop_
_space_group_symop_operation_xyz
x,y,z
-x,-y,z
x,-y,-z
-x,y,-z
-x,-y,-z
x,y,-z
-x,y,z
x,-y,z
1/2+x,1/2+y,z
1/2-x,1/2-y,z
1/2+x,1/2-y,-z
1/2-x,1/2+y,-z
1/2-x,1/2-y,-z
1/2+x,1/2+y,-z
1/2-x,1/2+y,z
1/2+x,1/2-y,z
loop_
_atom_site_type_symbol
_atom_site_label
_atom_site_fract_x
_atom_site_fract_y
_atom_site_fract_z
Si Si1 0.889510 0.127942 0.207615
Si Si2 0.500000 0.228558 0.784303
Si Si3 0.388104 0.000000 0.713043
Si Si4 0.000000 0.632701 0.783748
Si Si5 0.321768 0.281657 0.298884
Si Si6 0.305760 0.088355 0.209750
O O1 0.852034 0.174908 0.218780
O O2 0.799515 0.101348 0.282993
O O3 0.000000 0.125092 0.281582
O O4 0.898234 0.116930 0.000000
O O5 0.500000 0.180643 0.743674
O O6 0.587177 0.252688 0.700732
O O7 0.500000 0.233191 0.000000
O O8 0.500000 0.000000 0.778052
O O9 0.392016 0.000000 0.500000
O O10 0.332115 0.040717 0.771293
O O11 0.099529 0.612138 0.718130
O O12 0.000000 0.628013 0.000000
O O13 0.286639 0.290535 0.500000
O O14 0.250000 0.250000 0.203800
O O15 0.301607 0.098714 0.000000
#
# Coordination Sequence:
#
# PCOD9490889 Si02
#       6
#    16   8   8   8  16  16
#     4  10  21  38  60  87 117 155 201 247 295 349
#     4  11  21  35  56  82 113 151 199 250 292 338
#     4  11  23  39  60  91 124 150 185 236 301 368
#     4   9  18  32  54  85 114 146 193 247 294 342
#     4  11  23  37  54  80 116 157 199 244 298 355
#     4  10  20  37  62  88 116 151 194 240 294 357
#
# _framework density 21.180408
#
# number of rings (size 3 to 8) (size 9 to 14) (size 15 to 20)
#    0.000    1.667    2.222    2.667    0.000    4.889 
#    0.000    2.778    0.000    3.333    0.000    0.000 
#    0.000    0.000    0.000    0.000    0.000    0.000 
#
# Total GULP energy -200704.361479 kJ/mol
# GULP energy per Si atom -5575.121152 kJ/mol
# Density = 2.113220 g / cm^3
# Si number density = 21.180408 Si / 1000 Ang^3
#
#
#
# Elastic Constant Matrix: (Units=GPa)
#
#
# Indices 1 2 3 4 5 6 
#
# 1 207.8094 85.0566 0.8807 0.0000 0.0000 0.0000
# 2 85.0566 134.9625 -11.3203 0.0000 0.0000 0.0000
# 3 0.8807 -11.3203 65.0662 0.0000 0.0000 0.0000
# 4 0.0000 0.0000 0.0000 46.0170 0.0000 0.0000
# 5 0.0000 0.0000 0.0000 0.0000 7.5249 0.0000
# 6 0.0000 0.0000 0.0000 0.0000 0.0000 45.1666
#
#
#
# Elastic Compliance Matrix: (Units=1/GPa)
#
#
# Indices 1 2 3 4 5 6 
#
# 1 0.006527 -0.004182 -0.000816 0.000000 0.000000 0.000000
# 2 -0.004182 0.010199 0.001831 0.000000 0.000000 0.000000
# 3 -0.000816 0.001831 0.015699 0.000000 0.000000 0.000000
# 4 0.000000 0.000000 0.000000 0.021731 0.000000 0.000000
# 5 0.000000 0.000000 0.000000 0.000000 0.132892 0.000000
# 6 0.000000 0.000000 0.000000 0.000000 0.000000 0.022140
#
#
# Mechanical properties :
#
#
# Convention : Reuss Voigt Hill
#
# Bulk Modulus (GPa) = 38.32820 61.89690 50.11255
# Shear Modulus (GPa) = 22.29960 41.95644 32.12802
#
# Velocity S-wave (km/s) = 3.24827 4.45557 3.89893
# Velocity P-wave (km/s) = 5.67483 7.46703 6.63175
#
# Compressibility (1/GPa) = 0.02609045
#
# Stress axis : x y z
#
# Youngs Moduli (GPa) = 153.20270 98.05166 63.70006
#
# Poissons Ratio (x) = 0.41006 0.05198
# Poissons Ratio (y) = 0.64071 -0.11663
# Poissons Ratio (z) = 0.12501 -0.17953
#
# Static dielectric constant tensor:
#      x y z
#    x 1.773070 0.000000 0.000000 
#    y 0.000000 1.711200 0.000000 
#    z 0.000000 0.000000 1.827090 
# 
# From -- ./inp_files/7345.got.cif
#   From: 2010.05.17/outbox.cif.g08.bks.cpg/sg65_4_cif.got.tgz:7345.got - 2010.06.03 17:01:31.
