data_PCOD9490636
_publ_section_title
;
Structure prediction by ZEFSAII (Michael W. Deem and Ramdas Pophale) SiO2 
 PCOD9490636
Probable space group: C M M M
;
_chemical_formula_sum "Si O2"
_cell_formula_units_Z 88
_cell_length_a 9.105334
_cell_length_b 16.094362
_cell_length_c 30.191192
_cell_angle_alpha 90.000000
_cell_angle_beta 90.000000
_cell_angle_gamma 90.000000
_cell_volume 4424.354390
_symmetry_space_group_name_H-M "C M M M"
_symmetry_group_IT_number 65
_symmetry_cell_setting 'orthorhombic'
loop_
_space_group_symop_operation_xyz
x,y,z
-x,-y,z
x,-y,-z
-x,y,-z
-x,-y,-z
x,y,-z
-x,y,z
x,-y,z
1/2+x,1/2+y,z
1/2-x,1/2-y,z
1/2+x,1/2-y,-z
1/2-x,1/2+y,-z
1/2-x,1/2-y,-z
1/2+x,1/2+y,-z
1/2-x,1/2+y,z
1/2+x,1/2-y,z
loop_
_atom_site_type_symbol
_atom_site_label
_atom_site_fract_x
_atom_site_fract_y
_atom_site_fract_z
Si Si1 0.834783 0.099446 0.586398
Si Si2 0.667350 0.400658 0.761140
Si Si3 0.831998 0.601944 0.326126
Si Si4 0.177264 0.841648 0.047679
Si Si5 0.825255 0.339301 0.500000
Si Si6 0.177650 0.159516 0.143274
O O1 0.764433 0.130364 0.632184
O O2 0.733723 0.117488 0.544396
O O3 0.000000 0.132498 0.579519
O O4 0.844958 0.000000 0.590442
O O5 0.500000 0.368788 0.756697
O O6 0.660751 0.500000 0.756870
O O7 0.765947 0.369594 0.720738
O O8 0.722587 0.382331 0.810675
O O9 0.830130 0.500000 0.326149
O O10 0.000000 0.627895 0.331309
O O11 0.250000 0.750000 0.047630
O O12 0.216891 0.880699 0.095430
O O13 0.000000 0.833101 0.047755
O O14 0.217451 0.881243 0.000000
O O15 0.750000 0.250000 0.500000
O O16 0.000000 0.335255 0.500000
O O17 0.250000 0.250000 0.143341
O O18 0.000000 0.164810 0.144289
#
# Coordination Sequence:
#
# PCOD9490636 Si02
#       6
#    16  16  16  16   8  16
#     4  10  20  36  59  84 108 135 170 210 250 293
#     4   9  17  30  47  66  91 124 158 191 233 286
#     4   9  17  30  50  76 101 125 160 205 246 283
#     4   8  13  22  37  57  81 109 143 184 228 273
#     4  12  25  40  57  79 111 145 175 208 249 296
#     4   9  17  28  43  64  89 117 150 190 234 280
#
# _framework density 19.889907999999998
#
# number of rings (size 3 to 8) (size 9 to 14) (size 15 to 20)
#    0.000    2.727    0.000    2.182    0.000    5.091 
#    0.000    0.909    0.000    2.727    0.000    3.818 
#    0.000    0.000    0.000   34.000    0.000   18.545 
#
# Total GULP energy -245097.097713 kJ/mol
# GULP energy per Si atom -5570.388584 kJ/mol
# Density = 1.984464 g / cm^3
# Si number density = 19.889908 Si / 1000 Ang^3
#
#
#
# Elastic Constant Matrix: (Units=GPa)
#
#
# Indices 1 2 3 4 5 6 
#
# 1 99.3532 8.0386 77.8930 0.0000 0.0000 0.0000
# 2 8.0386 3.6421 9.2552 0.0000 0.0000 0.0000
# 3 77.8930 9.2552 208.8253 0.0000 0.0000 0.0000
# 4 0.0000 0.0000 0.0000 21.5719 0.0000 0.0000
# 5 0.0000 0.0000 0.0000 0.0000 11.3584 0.0000
# 6 0.0000 0.0000 0.0000 0.0000 0.0000 12.5191
#
#
#
# Elastic Compliance Matrix: (Units=1/GPa)
#
#
# Indices 1 2 3 4 5 6 
#
# 1 0.015676 -0.022246 -0.004861 0.000000 0.000000 0.000000
# 2 -0.022246 0.340984 -0.006815 0.000000 0.000000 0.000000
# 3 -0.004861 -0.006815 0.006904 0.000000 0.000000 0.000000
# 4 0.000000 0.000000 0.000000 0.046357 0.000000 0.000000
# 5 0.000000 0.000000 0.000000 0.000000 0.088041 0.000000
# 6 0.000000 0.000000 0.000000 0.000000 0.000000 0.079878
#
#
# Mechanical properties :
#
#
# Convention : Reuss Voigt Hill
#
# Bulk Modulus (GPa) = 3.38158 55.79935 29.59047
# Shear Modulus (GPa) = 6.71810 23.53210 15.12510
#
# Velocity S-wave (km/s) = 1.83983 3.44338 2.76060
# Velocity P-wave (km/s) = 2.49342 6.62753 5.00706
#
# Compressibility (1/GPa) = 0.29571996
#
# Stress axis : x y z
#
# Youngs Moduli (GPa) = 63.79020 2.93269 144.84238
#
# Poissons Ratio (x) = 0.06524 0.70414
# Poissons Ratio (y) = 1.41909 0.98704
# Poissons Ratio (z) = 0.31011 0.01999
#
# Static dielectric constant tensor:
#      x y z
#    x 1.686400 0.000000 0.000000 
#    y 0.000000 1.715030 0.000000 
#    z 0.000000 0.000000 1.765670 
# 
# From -- ./inp_files/76441.got.cif
#   From: 2010.05.17/outbox.cif.g08.bks.cpg/sg65_39_cif.got.tgz:76441.got - 2010.06.03 17:01:31.
