data_PCOD9490828
_publ_section_title
;
Structure prediction by ZEFSAII (Michael W. Deem and Ramdas Pophale) SiO2 
 PCOD9490828
Probable space group: C M M M
;
_chemical_formula_sum "Si O2"
_cell_formula_units_Z 88
_cell_length_a 18.515574
_cell_length_b 28.565187
_cell_length_c 9.169657
_cell_angle_alpha 90.000000
_cell_angle_beta 90.000000
_cell_angle_gamma 90.000000
_cell_volume 4849.839232
_symmetry_space_group_name_H-M "C M M M"
_symmetry_group_IT_number 65
_symmetry_cell_setting 'orthorhombic'
loop_
_space_group_symop_operation_xyz
x,y,z
-x,-y,z
x,-y,-z
-x,y,-z
-x,-y,-z
x,y,-z
-x,y,z
x,-y,z
1/2+x,1/2+y,z
1/2-x,1/2-y,z
1/2+x,1/2-y,-z
1/2-x,1/2+y,-z
1/2-x,1/2-y,-z
1/2+x,1/2+y,-z
1/2-x,1/2+y,z
1/2+x,1/2-y,z
loop_
_atom_site_type_symbol
_atom_site_label
_atom_site_fract_x
_atom_site_fract_y
_atom_site_fract_z
Si Si1 0.086109 0.214854 0.331114
Si Si2 0.817249 0.285402 0.829532
Si Si3 0.294554 0.884242 0.325500
Si Si4 0.082261 0.555799 0.173516
Si Si5 0.000000 0.944461 0.826245
Si Si6 0.630653 0.390274 0.324850
O O1 0.107371 0.223374 0.500000
O O2 0.115423 0.256523 0.232888
O O3 0.118063 0.164432 0.287430
O O4 0.000000 0.211235 0.324338
O O5 0.750000 0.250000 0.812639
O O6 0.803827 0.332581 0.740798
O O7 0.825962 0.296393 0.000000
O O8 0.299635 0.882022 0.500000
O O9 0.356880 0.916704 0.260262
O O10 0.213593 0.902105 0.289057
O O11 0.088832 0.500000 0.196620
O O12 0.000000 0.569477 0.214472
O O13 0.090241 0.564300 0.000000
O O14 0.929138 0.920909 0.755945
O O15 0.000000 0.000000 0.798513
O O16 0.000000 0.936695 0.000000
O O17 0.620189 0.394508 0.500000
#
# Coordination Sequence:
#
# PCOD9490828 Si02
#       6
#    16  16  16  16   8  16
#     4  10  20  37  60  83 111 151 199 242 288 346
#     4  11  23  37  56  85 119 155 195 238 290 345
#     4  11  23  38  62  92 123 157 198 248 297 351
#     4   9  20  41  66  89 118 157 196 241 301 361
#     4  11  25  41  59  87 121 157 201 253 302 351
#     4  10  21  39  61  85 114 155 200 243 297 356
#
# _framework density 18.144932000000001
#
# number of rings (size 3 to 8) (size 9 to 14) (size 15 to 20)
#    0.000    1.727    2.727    1.909    0.000    6.182 
#    0.000    4.545    0.000    0.000    0.000    0.000 
#    0.000    0.000    0.000    0.000    0.000    0.000 
#
# Total GULP energy -245766.554220 kJ/mol
# GULP energy per Si atom -5585.603505 kJ/mol
# Density = 1.810363 g / cm^3
# Si number density = 18.144932 Si / 1000 Ang^3
#
#
#
# Elastic Constant Matrix: (Units=GPa)
#
#
# Indices 1 2 3 4 5 6 
#
# 1 155.1463 79.7618 80.5994 0.0000 0.0000 0.0000
# 2 79.7618 86.7782 62.7199 0.0000 0.0000 0.0000
# 3 80.5994 62.7199 74.6168 0.0000 0.0000 0.0000
# 4 0.0000 0.0000 0.0000 -260.2466 0.0000 0.0000
# 5 0.0000 0.0000 0.0000 0.0000 25.1262 0.0000
# 6 0.0000 0.0000 0.0000 0.0000 0.0000 30.1193
#
#
#
# Elastic Compliance Matrix: (Units=1/GPa)
#
#
# Indices 1 2 3 4 5 6 
#
# 1 0.015662 -0.005524 -0.012274 0.000000 0.000000 0.000000
# 2 -0.005524 0.031310 -0.020350 0.000000 0.000000 0.000000
# 3 -0.012274 -0.020350 0.043766 0.000000 0.000000 0.000000
# 4 0.000000 0.000000 0.000000 -0.003843 0.000000 0.000000
# 5 0.000000 0.000000 0.000000 0.000000 0.039799 0.000000
# 6 0.000000 0.000000 0.000000 0.000000 0.000000 0.033201
#
#
# Mechanical properties :
#
#
# Convention : Reuss Voigt Hill
#
# Bulk Modulus (GPa) = 69.25368 84.74483 76.99926
# Shear Modulus (GPa) = 20.74616 -34.76954 -7.01169
#
# Velocity S-wave (km/s) = 3.38503 -4.38220 -1.96791
# Velocity P-wave (km/s) = 7.31626 4.60444 6.11263
#
# Compressibility (1/GPa) = 0.01443967
#
# Stress axis : x y z
#
# Youngs Moduli (GPa) = 63.84733 31.93869 22.84869
#
# Poissons Ratio (x) = 0.17645 0.28046
# Poissons Ratio (y) = 0.35272 0.46498
# Poissons Ratio (z) = 0.78369 0.64997
#
# Static dielectric constant tensor:
#      x y z
#    x 1.619100 0.000000 0.000000 
#    y 0.000000 1.590940 0.000000 
#    z 0.000000 0.000000 1.606480 
# 
# From -- ./inp_files/10127.got.cif
#   From: 2010.05.17/outbox.cif.g08.bks.cpg/sg65_6_cif.got.tgz:10127.got - 2010.06.03 17:01:31.
