data_PCOD9490831
_publ_section_title
;
Structure prediction by ZEFSAII (Michael W. Deem and Ramdas Pophale) SiO2 
 PCOD9490831
Probable space group: C M M M
;
_chemical_formula_sum "Si O2"
_cell_formula_units_Z 88
_cell_length_a 27.516049
_cell_length_b 19.517088
_cell_length_c 9.061870
_cell_angle_alpha 90.000000
_cell_angle_beta 90.000000
_cell_angle_gamma 90.000000
_cell_volume 4866.524589
_symmetry_space_group_name_H-M "C M M M"
_symmetry_group_IT_number 65
_symmetry_cell_setting 'orthorhombic'
loop_
_space_group_symop_operation_xyz
x,y,z
-x,-y,z
x,-y,-z
-x,y,-z
-x,-y,-z
x,y,-z
-x,y,z
x,-y,z
1/2+x,1/2+y,z
1/2-x,1/2-y,z
1/2+x,1/2-y,-z
1/2-x,1/2+y,-z
1/2-x,1/2-y,-z
1/2+x,1/2+y,-z
1/2-x,1/2+y,z
1/2+x,1/2-y,z
loop_
_atom_site_type_symbol
_atom_site_label
_atom_site_fract_x
_atom_site_fract_y
_atom_site_fract_z
Si Si1 0.811136 0.581204 0.175787
Si Si2 0.595113 0.148963 0.322493
Si Si3 0.942195 0.923037 0.824304
Si Si4 0.619827 0.305242 0.324138
Si Si5 0.222822 0.822767 0.828027
Si Si6 0.500000 0.081827 0.823072
O O1 0.807116 0.500000 0.196187
O O2 0.856921 0.610536 0.263920
O O3 0.761671 0.619989 0.219721
O O4 0.818426 0.594796 0.000000
O O5 0.591580 0.143427 0.500000
O O6 0.601551 0.229092 0.282052
O O7 0.547784 0.116013 0.247534
O O8 0.914528 0.863540 0.741146
O O9 0.000000 0.917813 0.800173
O O10 0.926811 0.000000 0.779253
O O11 0.933806 0.916975 0.000000
O O12 0.619991 0.308416 0.500000
O O13 0.673827 0.318085 0.263765
O O14 0.250000 0.750000 0.818890
O O15 0.210423 0.835419 0.000000
O O16 0.500000 0.000000 0.794433
O O17 0.500000 0.091547 0.000000
#
# Coordination Sequence:
#
# PCOD9490831 Si02
#       6
#    16  16  16  16  16   8
#     4  10  21  38  61  88 116 150 198 249 293 345
#     4  11  24  40  59  87 123 159 194 237 293 355
#     4   9  20  40  64  89 117 152 196 244 293 346
#     4  11  24  38  58  89 124 157 194 241 292 351
#     4  10  20  37  60  84 113 153 198 241 292 345
#     4  11  25  43  63  87 116 153 200 251 295 344
#
# _framework density 18.082719999999998
#
# number of rings (size 3 to 8) (size 9 to 14) (size 15 to 20)
#    0.000    1.727    1.818    2.455    1.273    8.000 
#    0.000    2.727    0.000    0.000    0.000    0.000 
#    0.000    0.000    0.000    0.000    0.000    0.000 
#
# Total GULP energy -245820.500966 kJ/mol
# GULP energy per Si atom -5586.829567 kJ/mol
# Density = 1.804156 g / cm^3
# Si number density = 18.082720 Si / 1000 Ang^3
#
#
#
# Elastic Constant Matrix: (Units=GPa)
#
#
# Indices 1 2 3 4 5 6 
#
# 1 127.4023 100.6891 70.9637 0.0000 0.0000 0.0000
# 2 100.6891 160.6724 75.4740 0.0000 0.0000 0.0000
# 3 70.9637 75.4740 62.7458 0.0000 0.0000 0.0000
# 4 0.0000 0.0000 0.0000 29.8851 0.0000 0.0000
# 5 0.0000 0.0000 0.0000 0.0000 171.0771 0.0000
# 6 0.0000 0.0000 0.0000 0.0000 0.0000 35.4380
#
#
#
# Elastic Compliance Matrix: (Units=1/GPa)
#
#
# Indices 1 2 3 4 5 6 
#
# 1 0.022841 -0.005010 -0.019806 0.000000 0.000000 0.000000
# 2 -0.005010 0.015408 -0.012867 0.000000 0.000000 0.000000
# 3 -0.019806 -0.012867 0.053814 0.000000 0.000000 0.000000
# 4 0.000000 0.000000 0.000000 0.033461 0.000000 0.000000
# 5 0.000000 0.000000 0.000000 0.000000 0.005845 0.000000
# 6 0.000000 0.000000 0.000000 0.000000 0.000000 0.028218
#
#
# Mechanical properties :
#
#
# Convention : Reuss Voigt Hill
#
# Bulk Modulus (GPa) = 59.89127 93.89713 76.89420
# Shear Modulus (GPa) = 20.78849 54.19295 37.49072
#
# Velocity S-wave (km/s) = 3.39430 5.48038 4.55828
# Velocity P-wave (km/s) = 6.96809 9.59610 8.38569
#
# Compressibility (1/GPa) = 0.01669692
#
# Stress axis : x y z
#
# Youngs Moduli (GPa) = 43.78157 64.90322 18.58261
#
# Poissons Ratio (x) = 0.32518 0.36804
# Poissons Ratio (y) = 0.21935 0.23910
# Poissons Ratio (z) = 0.86712 0.83509
#
# Static dielectric constant tensor:
#      x y z
#    x 1.603400 0.000000 0.000000 
#    y 0.000000 1.604360 0.000000 
#    z 0.000000 0.000000 1.606820 
# 
# From -- ./inp_files/13975.got.cif
#   From: 2010.05.17/outbox.cif.g08.bks.cpg/sg65_7_cif.got.tgz:13975.got - 2010.06.03 17:01:31.
