data_PCOD9490640
_publ_section_title
;
Structure prediction by ZEFSAII (Michael W. Deem and Ramdas Pophale) SiO2 
 PCOD9490640
Probable space group: C M M M
;
_chemical_formula_sum "Si O2"
_cell_formula_units_Z 104
_cell_length_a 17.801703
_cell_length_b 17.913540
_cell_length_c 18.399693
_cell_angle_alpha 90.000000
_cell_angle_beta 90.000000
_cell_angle_gamma 90.000000
_cell_volume 5867.506045
_symmetry_space_group_name_H-M "C M M M"
_symmetry_group_IT_number 65
_symmetry_cell_setting 'orthorhombic'
loop_
_space_group_symop_operation_xyz
x,y,z
-x,-y,z
x,-y,-z
-x,y,-z
-x,-y,-z
x,y,-z
-x,y,z
x,-y,z
1/2+x,1/2+y,z
1/2-x,1/2-y,z
1/2+x,1/2-y,-z
1/2-x,1/2+y,-z
1/2-x,1/2-y,-z
1/2+x,1/2+y,-z
1/2-x,1/2+y,z
1/2+x,1/2-y,z
loop_
_atom_site_type_symbol
_atom_site_label
_atom_site_fract_x
_atom_site_fract_y
_atom_site_fract_z
Si Si1 0.000000 0.909323 0.582843
Si Si2 0.279889 0.835068 0.415163
Si Si3 0.913494 0.811700 0.786661
Si Si4 0.352012 0.588562 0.328450
Si Si5 0.410195 0.086170 0.844659
Si Si6 0.585899 0.158516 0.694353
Si Si7 0.837308 0.270356 0.085537
O O1 0.925654 0.886430 0.625776
O O2 0.000000 0.882018 0.500000
O O3 0.000000 0.000000 0.580558
O O4 0.285648 0.854782 0.500000
O O5 0.250000 0.750000 0.410247
O O6 0.219701 0.885456 0.373202
O O7 0.357497 0.842380 0.372123
O O8 0.860162 0.872208 0.749268
O O9 0.909086 0.738308 0.735418
O O10 0.886386 0.785237 0.865204
O O11 0.000000 0.837188 0.788107
O O12 0.353758 0.500000 0.321359
O O13 0.500000 0.101773 0.855628
O O14 0.395826 0.100107 0.758823
O O15 0.361340 0.146590 0.888358
O O16 0.396115 0.000000 0.863888
O O17 0.500000 0.147137 0.671353
O O18 0.750000 0.250000 0.099236
O O19 0.851648 0.263027 0.000000
#
# Coordination Sequence:
#
# PCOD9490640 Si02
#       7
#     8  16  16  16  16  16  16
#     4   9  18  34  54  78 113 145 174 229 297 345
#     4  11  23  37  54  80 116 154 195 243 292 346
#     4  10  20  36  59  84 111 148 193 232 276 342
#     4  11  22  36  56  83 111 146 193 243 292 341
#     4   9  19  36  61  91 117 147 191 241 290 340
#     4   9  19  36  57  82 114 152 192 234 284 342
#     4  10  22  38  58  87 123 157 188 230 285 345
#
# _framework density 17.724737000000001
#
# number of rings (size 3 to 8) (size 9 to 14) (size 15 to 20)
#    0.000    2.077    2.308    1.846    4.308    3.385 
#    0.000    0.769    0.000    1.385    0.000    4.308 
#    0.000    0.000    0.000    0.000    0.000    0.000 
#
# Total GULP energy -290218.825548 kJ/mol
# GULP energy per Si atom -5581.131261 kJ/mol
# Density = 1.768439 g / cm^3
# Si number density = 17.724737 Si / 1000 Ang^3
#
#
#
# Elastic Constant Matrix: (Units=GPa)
#
#
# Indices 1 2 3 4 5 6 
#
# 1 98.0473 30.7479 74.5530 0.0000 0.0000 0.0000
# 2 30.7479 76.2508 47.2053 0.0000 0.0000 0.0000
# 3 74.5530 47.2053 118.8652 0.0000 0.0000 0.0000
# 4 0.0000 0.0000 0.0000 15.2585 0.0000 0.0000
# 5 0.0000 0.0000 0.0000 0.0000 23.4709 0.0000
# 6 0.0000 0.0000 0.0000 0.0000 0.0000 25.0089
#
#
#
# Elastic Compliance Matrix: (Units=1/GPa)
#
#
# Indices 1 2 3 4 5 6 
#
# 1 0.019507 -0.000387 -0.012081 0.000000 0.000000 0.000000
# 2 -0.000387 0.017398 -0.006667 0.000000 0.000000 0.000000
# 3 -0.012081 -0.006667 0.018638 0.000000 0.000000 0.000000
# 4 0.000000 0.000000 0.000000 0.065537 0.000000 0.000000
# 5 0.000000 0.000000 0.000000 0.000000 0.042606 0.000000
# 6 0.000000 0.000000 0.000000 0.000000 0.000000 0.039986
#
#
# Mechanical properties :
#
#
# Convention : Reuss Voigt Hill
#
# Bulk Modulus (GPa) = 57.89340 66.46396 62.17868
# Shear Modulus (GPa) = 20.18589 22.12480 21.15534
#
# Velocity S-wave (km/s) = 3.37835 3.53688 3.45853
# Velocity P-wave (km/s) = 6.92467 7.36605 7.14877
#
# Compressibility (1/GPa) = 0.01727313
#
# Stress axis : x y z
#
# Youngs Moduli (GPa) = 51.26459 57.47868 53.65461
#
# Poissons Ratio (x) = 0.02224 0.64820
# Poissons Ratio (y) = 0.01983 0.35769
# Poissons Ratio (z) = 0.61933 0.38319
#
# Static dielectric constant tensor:
#      x y z
#    x 1.605200 0.000000 0.000000 
#    y 0.000000 1.602630 0.000000 
#    z 0.000000 0.000000 1.590910 
# 
# From -- ./inp_files/54594.got.cif
#   From: 2010.05.17/outbox.cif.g08.bks.cpg/sg65_28_cif.got.tgz:54594.got - 2010.06.03 17:01:31.
