data_PCOD9490629
_publ_section_title
;
Structure prediction by ZEFSAII (Michael W. Deem and Ramdas Pophale) SiO2 
 PCOD9490629
Probable space group: C M M M
;
_chemical_formula_sum "Si O2"
_cell_formula_units_Z 64
_cell_length_a 18.403766
_cell_length_b 21.325190
_cell_length_c 8.881379
_cell_angle_alpha 90.000000
_cell_angle_beta 90.000000
_cell_angle_gamma 90.000000
_cell_volume 3485.619811
_symmetry_space_group_name_H-M "C M M M"
_symmetry_group_IT_number 65
_symmetry_cell_setting 'orthorhombic'
loop_
_space_group_symop_operation_xyz
x,y,z
-x,-y,z
x,-y,-z
-x,y,-z
-x,-y,-z
x,y,-z
-x,y,z
x,-y,z
1/2+x,1/2+y,z
1/2-x,1/2-y,z
1/2+x,1/2-y,-z
1/2-x,1/2+y,-z
1/2-x,1/2-y,-z
1/2+x,1/2+y,-z
1/2-x,1/2+y,z
1/2+x,1/2-y,z
loop_
_atom_site_type_symbol
_atom_site_label
_atom_site_fract_x
_atom_site_fract_y
_atom_site_fract_z
Si Si1 0.331700 0.616734 0.818539
Si Si2 0.913352 0.000000 0.323337
Si Si3 0.670513 0.116168 0.320986
Si Si4 0.586475 0.000000 0.821736
Si Si5 0.338189 0.755324 0.173234
O O1 0.380411 0.561130 0.755933
O O2 0.251228 0.610063 0.749247
O O3 0.362387 0.685927 0.778334
O O4 0.326094 0.614564 0.000000
O O5 0.893241 0.000000 0.500000
O O6 0.000000 0.000000 0.311036
O O7 0.674575 0.111011 0.500000
O O8 0.642144 0.185058 0.272931
O O9 0.621540 0.061370 0.252753
O O10 0.500000 0.000000 0.801131
O O11 0.602526 0.000000 0.000000
O O12 0.250000 0.750000 0.174385
O O13 0.360156 0.766775 0.000000
#
# Coordination Sequence:
#
# PCOD9490629 Si02
#       5
#    16   8  16   8  16
#     4  10  20  36  59  83 109 143 184 224 261 315
#     4  11  24  39  54  77 111 145 180 227 278 323
#     4  11  21  34  57  86 114 141 173 220 274 324
#     4  11  24  41  58  75 103 145 188 227 266 315
#     4   8  16  32  54  81 110 140 177 220 263 312
#
# _framework density 18.361153000000002
#
# number of rings (size 3 to 8) (size 9 to 14) (size 15 to 20)
#    0.000    2.000    0.000    6.000    0.000    7.500 
#    0.000    1.250    0.000    1.500    0.000    0.000 
#    0.000    0.000    0.000    0.000    0.000    0.000 
#
# Total GULP energy -178664.297010 kJ/mol
# GULP energy per Si atom -5583.259282 kJ/mol
# Density = 1.831936 g / cm^3
# Si number density = 18.361153 Si / 1000 Ang^3
#
#
#
# Elastic Constant Matrix: (Units=GPa)
#
#
# Indices 1 2 3 4 5 6 
#
# 1 42.6728 60.9001 54.0055 0.0000 0.0000 0.0000
# 2 60.9001 197.4780 99.6558 0.0000 0.0000 0.0000
# 3 54.0055 99.6558 138.5812 0.0000 0.0000 0.0000
# 4 0.0000 0.0000 0.0000 44.0913 0.0000 0.0000
# 5 0.0000 0.0000 0.0000 0.0000 20.6885 0.0000
# 6 0.0000 0.0000 0.0000 0.0000 0.0000 -13.5070
#
#
#
# Elastic Compliance Matrix: (Units=1/GPa)
#
#
# Indices 1 2 3 4 5 6 
#
# 1 0.056315 -0.009876 -0.014844 0.000000 0.000000 0.000000
# 2 -0.009876 0.009680 -0.003112 0.000000 0.000000 0.000000
# 3 -0.014844 -0.003112 0.015239 0.000000 0.000000 0.000000
# 4 0.000000 0.000000 0.000000 0.022680 0.000000 0.000000
# 5 0.000000 0.000000 0.000000 0.000000 0.048336 0.000000
# 6 0.000000 0.000000 0.000000 0.000000 0.000000 -0.074036
#
#
# Mechanical properties :
#
#
# Convention : Reuss Voigt Hill
#
# Bulk Modulus (GPa) = 39.11000 89.76165 64.43582
# Shear Modulus (GPa) = 35.11176 21.19926 28.15551
#
# Velocity S-wave (km/s) = 4.37771 3.40158 3.92015
# Velocity P-wave (km/s) = 6.84829 8.02624 7.46055
#
# Compressibility (1/GPa) = 0.02556891
#
# Stress axis : x y z
#
# Youngs Moduli (GPa) = 17.75735 103.30406 65.62101
#
# Poissons Ratio (x) = 1.02022 0.97409
# Poissons Ratio (y) = 0.17537 0.20424
# Poissons Ratio (z) = 0.26359 0.32153
#
# Static dielectric constant tensor:
#      x y z
#    x 1.598850 0.000000 0.000000 
#    y 0.000000 1.649190 0.000000 
#    z 0.000000 0.000000 1.610830 
# 
# From -- ./inp_files/8828.got.cif
#   From: 2010.05.17/outbox.cif.g08.bks.cpg/sg65_5_cif.got.tgz:8828.got - 2010.06.03 17:01:31.
