data_PCOD9490004
_publ_section_title
;
Structure prediction by ZEFSAII (Michael W. Deem and Ramdas Pophale) SiO2 
 PCOD9490004
Probable space group: C M M M
;
_chemical_formula_sum "Si O2"
_cell_formula_units_Z 96
_cell_length_a 24.370313
_cell_length_b 7.683850
_cell_length_c 24.241108
_cell_angle_alpha 90.000000
_cell_angle_beta 90.000000
_cell_angle_gamma 90.000000
_cell_volume 4539.337270
_symmetry_space_group_name_H-M "C M M M"
_symmetry_group_IT_number 65
_symmetry_cell_setting 'orthorhombic'
loop_
_space_group_symop_operation_xyz
x,y,z
-x,-y,z
x,-y,-z
-x,y,-z
-x,-y,-z
x,y,-z
-x,y,z
x,-y,z
1/2+x,1/2+y,z
1/2-x,1/2-y,z
1/2+x,1/2-y,-z
1/2-x,1/2+y,-z
1/2-x,1/2-y,-z
1/2+x,1/2+y,-z
1/2-x,1/2+y,z
1/2+x,1/2-y,z
loop_
_atom_site_type_symbol
_atom_site_label
_atom_site_fract_x
_atom_site_fract_y
_atom_site_fract_z
Si Si1 0.500000 0.291196 0.736751
Si Si2 0.384263 0.708065 0.439027
Si Si3 0.000000 0.711994 0.064059
Si Si4 0.500000 0.712999 0.608723
Si Si5 0.186094 0.293615 0.332889
Si Si6 0.313856 0.208779 0.000000
Si Si7 0.378963 0.205816 0.772857
Si Si8 0.881571 0.286416 0.106068
O O1 0.500000 0.500000 0.737943
O O2 0.500000 0.234326 0.672706
O O3 0.444048 0.227772 0.764318
O O4 0.369239 0.774469 0.500000
O O5 0.389255 0.500000 0.442873
O O6 0.444280 0.773436 0.420399
O O7 0.341209 0.740322 0.390518
O O8 0.055909 0.767488 0.093394
O O9 0.000000 0.500000 0.064052
O O10 0.000000 0.766091 0.000000
O O11 0.500000 0.500000 0.607776
O O12 0.180433 0.500000 0.330726
O O13 0.250000 0.250000 0.330056
O O14 0.152773 0.219259 0.280209
O O15 0.250000 0.250000 0.000000
O O16 0.343739 0.272358 0.055481
O O17 0.320451 0.000000 0.000000
O O18 0.363891 0.275158 0.833346
O O19 0.367163 0.000000 0.774128
O O20 0.881052 0.500000 0.106546
#
# Coordination Sequence:
#
# PCOD9490004 Si02
#       8
#     8  16   8   8  16   8  16  16
#     4  11  20  33  58  87 117 150 180 219 275 338
#     4  10  20  37  62  88 114 146 183 223 271 329
#     4   9  13  22  46  79 106 132 169 217 265 310
#     4   9  17  32  57  87 116 144 174 214 267 328
#     4  11  24  40  58  79 109 147 190 234 279 326
#     4  10  20  35  55  79 107 142 185 230 276 326
#     4  10  21  37  57  83 113 147 186 231 277 328
#     4   9  17  31  53  80 109 139 178 225 273 324
#
# _framework density 21.148461000000001
#
# number of rings (size 3 to 8) (size 9 to 14) (size 15 to 20)
#    0.000    2.083    2.500    1.500    0.000    4.333 
#    0.000    1.250    0.000    1.000    0.000    1.167 
#    0.000    0.000    0.000    0.000    0.000    0.000 
#
# Total GULP energy -268126.886360 kJ/mol
# GULP energy per Si atom -5585.976799 kJ/mol
# Density = 2.110033 g / cm^3
# Si number density = 21.148461 Si / 1000 Ang^3
#
#
#
# Elastic Constant Matrix: (Units=GPa)
#
#
# Indices 1 2 3 4 5 6 
#
# 1 137.7564 -12.7758 90.2178 0.0000 0.0000 0.0000
# 2 -12.7758 34.7771 7.0501 0.0000 0.0000 0.0000
# 3 90.2178 7.0501 227.3881 0.0000 0.0000 0.0000
# 4 0.0000 0.0000 0.0000 -5.3038 0.0000 0.0000
# 5 0.0000 0.0000 0.0000 0.0000 -6.9618 0.0000
# 6 0.0000 0.0000 0.0000 0.0000 0.0000 -16.3660
#
#
#
# Elastic Compliance Matrix: (Units=1/GPa)
#
#
# Indices 1 2 3 4 5 6 
#
# 1 0.010532 0.004746 -0.004326 0.000000 0.000000 0.000000
# 2 0.004746 0.031075 -0.002847 0.000000 0.000000 0.000000
# 3 -0.004326 -0.002847 0.006202 0.000000 0.000000 0.000000
# 4 0.000000 0.000000 0.000000 -0.188543 0.000000 0.000000
# 5 0.000000 0.000000 0.000000 0.000000 -0.143640 0.000000
# 6 0.000000 0.000000 0.000000 0.000000 0.000000 -0.061102
#
#
# Mechanical properties :
#
#
# Convention : Reuss Voigt Hill
#
# Bulk Modulus (GPa) = 23.27888 63.21175 43.24532
# Shear Modulus (GPa) = -15.32315 15.30230 -0.01042
#
# Velocity S-wave (km/s) = -2.69467 2.69284 -0.07027
# Velocity P-wave (km/s) = 1.16172 6.29467 4.52617
#
# Compressibility (1/GPa) = 0.04295738
#
# Stress axis : x y z
#
# Youngs Moduli (GPa) = 94.94428 32.18002 161.22809
#
# Poissons Ratio (x) = -0.15273 0.69747
# Poissons Ratio (y) = -0.45063 0.45895
# Poissons Ratio (z) = 0.41073 0.09160
#
# Static dielectric constant tensor:
#      x y z
#    x 1.704850 0.000000 0.000000 
#    y 0.000000 1.800780 0.000000 
#    z 0.000000 0.000000 1.789780 
# 
# From -- ./inp_files/71495.got.cif
#   From: 2010.05.17/outbox.cif.g08.bks.cpg/sg65_36_cif.got.tgz:71495.got - 2010.06.03 17:01:31.
