data_PCOD9490738
_publ_section_title
;
Structure prediction by ZEFSAII (Michael W. Deem and Ramdas Pophale) SiO2 
 PCOD9490738
Probable space group: C M M M
;
_chemical_formula_sum "Si O2"
_cell_formula_units_Z 104
_cell_length_a 27.994441
_cell_length_b 22.963494
_cell_length_c 8.508128
_cell_angle_alpha 90.000000
_cell_angle_beta 90.000000
_cell_angle_gamma 90.000000
_cell_volume 5469.451599
_symmetry_space_group_name_H-M "C M M M"
_symmetry_group_IT_number 65
_symmetry_cell_setting 'orthorhombic'
loop_
_space_group_symop_operation_xyz
x,y,z
-x,-y,z
x,-y,-z
-x,y,-z
-x,-y,-z
x,y,-z
-x,y,z
x,-y,z
1/2+x,1/2+y,z
1/2-x,1/2-y,z
1/2+x,1/2-y,-z
1/2-x,1/2+y,-z
1/2-x,1/2-y,-z
1/2+x,1/2+y,-z
1/2-x,1/2+y,z
1/2+x,1/2-y,z
loop_
_atom_site_type_symbol
_atom_site_label
_atom_site_fract_x
_atom_site_fract_y
_atom_site_fract_z
Si Si1 0.181898 0.106753 0.821651
Si Si2 0.416746 0.347057 0.689115
Si Si3 0.445177 0.784743 0.689838
Si Si4 0.339140 0.000000 0.187838
Si Si5 0.733594 0.500000 0.321390
Si Si6 0.271192 0.192872 0.180834
Si Si7 0.500000 0.431559 0.189055
Si Si8 0.134608 0.627906 0.809217
O O1 0.135281 0.137538 0.754408
O O2 0.227070 0.149393 0.826953
O O3 0.200278 0.054440 0.716144
O O4 0.172212 0.086483 0.000000
O O5 0.417066 0.348673 0.500000
O O6 0.430750 0.281162 0.738275
O O7 0.454346 0.395071 0.750202
O O8 0.442573 0.786336 0.500000
O O9 0.500000 0.794849 0.736938
O O10 0.410240 0.833952 0.756406
O O11 0.361749 0.939212 0.246691
O O12 0.282169 0.000000 0.220027
O O13 0.345087 0.000000 0.000000
O O14 0.749662 0.500000 0.500000
O O15 0.250000 0.250000 0.261970
O O16 0.317655 0.161589 0.248138
O O17 0.284930 0.209106 0.000000
O O18 0.500000 0.500000 0.238740
O O19 0.500000 0.430826 0.000000
O O20 0.135903 0.626237 0.000000
#
# Coordination Sequence:
#
# PCOD9490738 Si02
#       8
#    16  16  16   8   8  16   8  16
#     4  11  22  38  60  86 120 157 197 245 293 350
#     4  11  23  42  64  89 123 162 203 253 311 367
#     4  10  22  42  63  87 122 162 201 251 318 379
#     4  10  20  40  63  87 123 166 206 252 315 376
#     4  12  24  38  58  86 122 164 208 245 293 364
#     4   9  17  31  54  85 118 149 187 238 296 350
#     4  11  25  43  63  89 119 158 209 258 306 364
#     4  10  20  36  61  90 119 158 206 257 310 369
#
# _framework density 19.014703000000001
#
# number of rings (size 3 to 8) (size 9 to 14) (size 15 to 20)
#    0.000    1.615    2.308    2.769    1.077    4.000 
#    0.000    0.385    0.000    5.538    0.000    0.000 
#    0.000    0.000    0.000    0.000    0.000    0.000 
#
# Total GULP energy -290233.127615 kJ/mol
# GULP energy per Si atom -5581.406300 kJ/mol
# Density = 1.897142 g / cm^3
# Si number density = 19.014703 Si / 1000 Ang^3
#
#
#
# Elastic Constant Matrix: (Units=GPa)
#
#
# Indices 1 2 3 4 5 6 
#
# 1 144.8978 78.4030 5.4804 0.0000 0.0000 0.0000
# 2 78.4030 156.6821 14.4453 0.0000 0.0000 0.0000
# 3 5.4804 14.4453 16.6228 0.0000 0.0000 0.0000
# 4 0.0000 0.0000 0.0000 -103.8834 0.0000 0.0000
# 5 0.0000 0.0000 0.0000 0.0000 6.2317 0.0000
# 6 0.0000 0.0000 0.0000 0.0000 0.0000 680.4675
#
#
#
# Elastic Compliance Matrix: (Units=1/GPa)
#
#
# Indices 1 2 3 4 5 6 
#
# 1 0.009482 -0.004845 0.001084 0.000000 0.000000 0.000000
# 2 -0.004845 0.009413 -0.006583 0.000000 0.000000 0.000000
# 3 0.001084 -0.006583 0.065522 0.000000 0.000000 0.000000
# 4 0.000000 0.000000 0.000000 -0.009626 0.000000 0.000000
# 5 0.000000 0.000000 0.000000 0.000000 0.160470 0.000000
# 6 0.000000 0.000000 0.000000 0.000000 0.000000 0.001470
#
#
# Mechanical properties :
#
#
# Convention : Reuss Voigt Hill
#
# Bulk Modulus (GPa) = 15.69135 57.20667 36.44901
# Shear Modulus (GPa) = 17.94295 131.22143 74.58219
#
# Velocity S-wave (km/s) = 3.07520 8.31627 6.26966
# Velocity P-wave (km/s) = 4.56938 11.06185 8.46297
#
# Compressibility (1/GPa) = 0.06372937
#
# Stress axis : x y z
#
# Youngs Moduli (GPa) = 105.46553 106.23066 15.26210
#
# Poissons Ratio (x) = 0.51464 -0.01654
# Poissons Ratio (y) = 0.51093 0.10047
# Poissons Ratio (z) = -0.11431 0.69933
#
# Static dielectric constant tensor:
#      x y z
#    x 1.622770 0.000000 0.000000 
#    y 0.000000 1.646410 0.000000 
#    z 0.000000 0.000000 1.672920 
# 
# From -- ./inp_files/16539.got.cif
#   From: 2010.05.17/outbox.cif.g08.bks.cpg/sg65_9_cif.got.tgz:16539.got - 2010.06.03 17:01:31.
