data_PCOD9490301
_publ_section_title
;
Structure prediction by ZEFSAII (Michael W. Deem and Ramdas Pophale) SiO2 
 PCOD9490301
Probable space group: C M M M
;
_chemical_formula_sum "Si O2"
_cell_formula_units_Z 112
_cell_length_a 14.374698
_cell_length_b 25.663575
_cell_length_c 15.306013
_cell_angle_alpha 90.000000
_cell_angle_beta 90.000000
_cell_angle_gamma 90.000000
_cell_volume 5646.482178
_symmetry_space_group_name_H-M "C M M M"
_symmetry_group_IT_number 65
_symmetry_cell_setting 'orthorhombic'
loop_
_space_group_symop_operation_xyz
x,y,z
-x,-y,z
x,-y,-z
-x,y,-z
-x,-y,-z
x,y,-z
-x,y,z
x,-y,z
1/2+x,1/2+y,z
1/2-x,1/2-y,z
1/2+x,1/2-y,-z
1/2-x,1/2+y,-z
1/2-x,1/2-y,-z
1/2+x,1/2+y,-z
1/2-x,1/2+y,z
1/2+x,1/2-y,z
loop_
_atom_site_type_symbol
_atom_site_label
_atom_site_fract_x
_atom_site_fract_y
_atom_site_fract_z
Si Si1 0.102649 0.352129 0.652628
Si Si2 0.105876 0.440318 0.198562
Si Si3 0.639863 0.739859 0.720875
Si Si4 0.335287 0.709305 0.094729
Si Si5 0.813539 0.853687 0.599832
Si Si6 0.785338 0.911371 0.901535
Si Si7 0.890675 0.059819 0.727876
O O1 0.115207 0.397930 0.724292
O O2 0.098128 0.295304 0.697120
O O3 0.200447 0.349297 0.601146
O O4 0.000000 0.360926 0.610580
O O5 0.120533 0.500000 0.229868
O O6 0.181823 0.427952 0.125590
O O7 0.000000 0.436576 0.165852
O O8 0.750000 0.750000 0.728862
O O9 0.609450 0.719947 0.816138
O O10 0.636747 0.695999 0.645907
O O11 0.250000 0.750000 0.091940
O O12 0.294380 0.651181 0.102035
O O13 0.383782 0.713145 0.000000
O O14 0.844060 0.859354 0.500000
O O15 0.839546 0.901973 0.661271
O O16 0.851201 0.932817 0.825385
O O17 0.808258 0.928286 0.000000
O O18 0.000000 0.071514 0.727250
O O19 0.876446 0.000000 0.701824
#
# Coordination Sequence:
#
# PCOD9490301 Si02
#       7
#    16  16  16  16  16  16  16
#     4  10  21  37  61  93 128 167 208 250 303 367
#     4  10  20  35  57  87 125 168 211 249 289 350
#     4   9  17  34  57  85 122 162 199 248 298 352
#     4   9  16  29  55  88 121 162 204 242 292 354
#     4  11  23  41  66  93 122 160 205 257 317 376
#     4  11  21  37  63  93 126 164 205 250 305 366
#     4  11  25  45  66  89 121 158 202 259 315 371
#
# _framework density 19.835357999999999
#
# number of rings (size 3 to 8) (size 9 to 14) (size 15 to 20)
#    0.000    1.857    2.857    2.143    0.000    5.714 
#    0.000    2.143    0.000    1.286    0.000    7.000 
#    0.000    0.000    0.000    0.000    0.000    0.000 
#
# Total GULP energy -312290.451375 kJ/mol
# GULP energy per Si atom -5576.615203 kJ/mol
# Density = 1.979021 g / cm^3
# Si number density = 19.835358 Si / 1000 Ang^3
#
#
#
# Elastic Constant Matrix: (Units=GPa)
#
#
# Indices 1 2 3 4 5 6 
#
# 1 76.3218 46.6635 35.4582 0.0000 0.0000 0.0000
# 2 46.6635 104.2709 53.2729 0.0000 0.0000 0.0000
# 3 35.4582 53.2729 148.3621 0.0000 0.0000 0.0000
# 4 0.0000 0.0000 0.0000 35.2570 0.0000 0.0000
# 5 0.0000 0.0000 0.0000 0.0000 -12.6718 0.0000
# 6 0.0000 0.0000 0.0000 0.0000 0.0000 20.7926
#
#
#
# Elastic Compliance Matrix: (Units=1/GPa)
#
#
# Indices 1 2 3 4 5 6 
#
# 1 0.018408 -0.007336 -0.001765 0.000000 0.000000 0.000000
# 2 -0.007336 0.014669 -0.003514 0.000000 0.000000 0.000000
# 3 -0.001765 -0.003514 0.008424 0.000000 0.000000 0.000000
# 4 0.000000 0.000000 0.000000 0.028363 0.000000 0.000000
# 5 0.000000 0.000000 0.000000 0.000000 -0.078915 0.000000
# 6 0.000000 0.000000 0.000000 0.000000 0.000000 0.048094
#
#
# Mechanical properties :
#
#
# Convention : Reuss Voigt Hill
#
# Bulk Modulus (GPa) = 61.46224 66.63821 64.05022
# Shear Modulus (GPa) = 71.74049 21.57958 46.66004
#
# Velocity S-wave (km/s) = 6.02051 3.30196 4.85538
# Velocity P-wave (km/s) = 8.90967 6.94305 7.98712
#
# Compressibility (1/GPa) = 0.01627015
#
# Stress axis : x y z
#
# Youngs Moduli (GPa) = 54.32478 68.17241 118.71003
#
# Poissons Ratio (x) = 0.50011 0.20955
# Poissons Ratio (y) = 0.39853 0.41713
# Poissons Ratio (z) = 0.09590 0.23955
#
# Static dielectric constant tensor:
#      x y z
#    x -0.425880 0.000000 0.000000 
#    y 0.000000 1.688340 0.000000 
#    z 0.000000 0.000000 1.699610 
# 
# From -- ./inp_files/41081.got.cif
#   From: 2010.05.17/outbox.cif.g08.bks.cpg/sg65_21_cif.got.tgz:41081.got - 2010.06.03 17:01:31.
