data_PCOD9490834
_publ_section_title
;
Structure prediction by ZEFSAII (Michael W. Deem and Ramdas Pophale) SiO2 
 PCOD9490834
Probable space group: C M M M
;
_chemical_formula_sum "Si O2"
_cell_formula_units_Z 64
_cell_length_a 8.482415
_cell_length_b 15.144577
_cell_length_c 26.838207
_cell_angle_alpha 90.000000
_cell_angle_beta 90.000000
_cell_angle_gamma 90.000000
_cell_volume 3447.705505
_symmetry_space_group_name_H-M "C M M M"
_symmetry_group_IT_number 65
_symmetry_cell_setting 'orthorhombic'
loop_
_space_group_symop_operation_xyz
x,y,z
-x,-y,z
x,-y,-z
-x,y,-z
-x,-y,-z
x,y,-z
-x,y,z
x,-y,z
1/2+x,1/2+y,z
1/2-x,1/2-y,z
1/2+x,1/2-y,-z
1/2-x,1/2+y,-z
1/2-x,1/2-y,-z
1/2+x,1/2+y,-z
1/2-x,1/2+y,z
1/2+x,1/2-y,z
loop_
_atom_site_type_symbol
_atom_site_label
_atom_site_fract_x
_atom_site_fract_y
_atom_site_fract_z
Si Si1 0.190962 0.603332 0.000000
Si Si2 0.310667 0.000000 0.441953
Si Si3 0.308217 0.500000 0.290687
Si Si4 0.189418 0.148957 0.368445
Si Si5 0.811249 0.343106 0.891002
Si Si6 0.188761 0.000000 0.176728
O O1 0.248398 0.643065 0.947935
O O2 0.229394 0.500000 0.000000
O O3 0.000000 0.610913 0.000000
O O4 0.246486 0.087892 0.414479
O O5 0.500000 0.000000 0.437848
O O6 0.266665 0.000000 0.500000
O O7 0.500000 0.500000 0.290769
O O8 0.260068 0.411600 0.320879
O O9 0.253765 0.500000 0.233759
O O10 0.250000 0.250000 0.368320
O O11 0.000000 0.152023 0.369079
O O12 0.750000 0.250000 0.872880
O O13 0.748791 0.417139 0.854423
O O14 0.000000 0.346752 0.892266
O O15 0.000000 0.000000 0.177609
#
# Coordination Sequence:
#
# PCOD9490834 Si02
#       6
#     8   8   8  16  16   8
#     4   9  17  34  58  79 106 142 178 223 272 327
#     4  10  21  37  57  85 120 155 192 234 278 326
#     4   8  19  38  58  80 110 145 185 235 282 328
#     4  10  20  37  60  85 113 149 191 234 280 330
#     4  11  22  38  58  82 111 144 182 224 275 331
#     4  11  22  39  59  83 113 144 182 229 281 334
#
# _framework density 18.56307
#
# number of rings (size 3 to 8) (size 9 to 14) (size 15 to 20)
#    0.000    2.000    1.250    3.375    0.000    2.500 
#    0.000   12.500    0.000    0.000    0.000    0.000 
#    0.000    0.000    0.000    0.000    0.000    0.000 
#
# Total GULP energy -178569.426106 kJ/mol
# GULP energy per Si atom -5580.294566 kJ/mol
# Density = 1.852082 g / cm^3
# Si number density = 18.563070 Si / 1000 Ang^3
#
#
#
# Elastic Constant Matrix: (Units=GPa)
#
#
# Indices 1 2 3 4 5 6 
#
# 1 51.1425 38.3812 43.0038 0.0000 0.0000 0.0000
# 2 38.3812 208.2307 106.0383 0.0000 0.0000 0.0000
# 3 43.0038 106.0383 176.5213 0.0000 0.0000 0.0000
# 4 0.0000 0.0000 0.0000 28.0008 0.0000 0.0000
# 5 0.0000 0.0000 0.0000 0.0000 13.4737 0.0000
# 6 0.0000 0.0000 0.0000 0.0000 0.0000 31.5528
#
#
#
# Elastic Compliance Matrix: (Units=1/GPa)
#
#
# Indices 1 2 3 4 5 6 
#
# 1 0.025268 -0.002194 -0.004838 0.000000 0.000000 0.000000
# 2 -0.002194 0.007109 -0.003736 0.000000 0.000000 0.000000
# 3 -0.004838 -0.003736 0.009088 0.000000 0.000000 0.000000
# 4 0.000000 0.000000 0.000000 0.035713 0.000000 0.000000
# 5 0.000000 0.000000 0.000000 0.000000 0.074219 0.000000
# 6 0.000000 0.000000 0.000000 0.000000 0.000000 0.031693
#
#
# Mechanical properties :
#
#
# Convention : Reuss Voigt Hill
#
# Bulk Modulus (GPa) = 50.17739 90.08237 70.12988
# Shear Modulus (GPa) = 23.66657 31.17020 27.41838
#
# Velocity S-wave (km/s) = 3.57449 4.10219 3.84740
# Velocity P-wave (km/s) = 6.64269 8.43032 7.58933
#
# Compressibility (1/GPa) = 0.01992929
#
# Stress axis : x y z
#
# Youngs Moduli (GPa) = 39.57649 140.66027 110.03510
#
# Poissons Ratio (x) = 0.30857 0.53233
# Poissons Ratio (y) = 0.08682 0.41112
# Poissons Ratio (z) = 0.19146 0.52554
#
# Static dielectric constant tensor:
#      x y z
#    x 1.634730 0.000000 0.000000 
#    y 0.000000 1.607910 0.000000 
#    z 0.000000 0.000000 1.648310 
# 
# From -- ./inp_files/72427.got.cif
#   From: 2010.05.17/outbox.cif.g08.bks.cpg/sg65_37_cif.got.tgz:72427.got - 2010.06.03 17:01:31.
