data_PCOD9490202
_publ_section_title
;
Structure prediction by ZEFSAII (Michael W. Deem and Ramdas Pophale) SiO2 
 PCOD9490202
Probable space group: C M M M
;
_chemical_formula_sum "Si O2"
_cell_formula_units_Z 120
_cell_length_a 28.553917
_cell_length_b 8.832771
_cell_length_c 27.236463
_cell_angle_alpha 90.000000
_cell_angle_beta 90.000000
_cell_angle_gamma 90.000000
_cell_volume 6869.314053
_symmetry_space_group_name_H-M "C M M M"
_symmetry_group_IT_number 65
_symmetry_cell_setting 'orthorhombic'
loop_
_space_group_symop_operation_xyz
x,y,z
-x,-y,z
x,-y,-z
-x,y,-z
-x,-y,-z
x,y,-z
-x,y,z
x,-y,z
1/2+x,1/2+y,z
1/2-x,1/2-y,z
1/2+x,1/2-y,-z
1/2-x,1/2+y,-z
1/2-x,1/2-y,-z
1/2+x,1/2+y,-z
1/2-x,1/2+y,z
1/2+x,1/2-y,z
loop_
_atom_site_type_symbol
_atom_site_label
_atom_site_fract_x
_atom_site_fract_y
_atom_site_fract_z
Si Si1 0.353796 0.184412 0.347794
Si Si2 0.603774 0.182173 0.196403
Si Si3 0.200268 0.322489 0.059162
Si Si4 0.199327 0.682275 0.248840
Si Si5 0.555902 0.826131 0.000000
Si Si6 0.604907 0.320503 0.093308
Si Si7 0.552627 0.184308 0.703172
Si Si8 0.698271 0.182927 0.555186
O O1 0.318994 0.228339 0.303257
O O2 0.406160 0.234829 0.333531
O O3 0.334822 0.234392 0.400430
O O4 0.354411 0.000000 0.347675
O O5 0.656986 0.224667 0.212106
O O6 0.589263 0.258266 0.145919
O O7 0.570534 0.222897 0.242149
O O8 0.602672 0.000000 0.191043
O O9 0.199288 0.500000 0.071433
O O10 0.250000 0.250000 0.072308
O O11 0.157702 0.237454 0.084500
O O12 0.194695 0.307960 0.000000
O O13 0.202570 0.500000 0.248193
O O14 0.250000 0.750000 0.237833
O O15 0.575071 0.746442 0.048584
O O16 0.500000 0.824525 0.000000
O O17 0.572871 0.000000 0.000000
O O18 0.603197 0.500000 0.092051
O O19 0.500000 0.238351 0.693533
O O20 0.551883 0.000000 0.701174
O O21 0.682440 0.224642 0.500000
O O22 0.750000 0.250000 0.562294
O O23 0.701229 0.000000 0.557154
#
# Coordination Sequence:
#
# PCOD9490202 Si02
#       8
#    16  16  16  16   8  16  16  16
#     4   8  14  25  41  64  93 124 160 203 248 290
#     4   9  19  34  50  71  99 126 158 199 243 289
#     4  10  20  35  57  81 107 137 171 205 239 281
#     4   9  17  29  46  67  94 128 162 200 240 282
#     4  11  25  45  66  83 100 129 167 203 243 293
#     4  12  24  38  58  82 110 137 163 200 248 298
#     4   8  14  27  49  72  90 116 159 206 249 297
#     4   9  16  25  39  62  95 133 167 200 241 288
#
# _framework density 17.468993000000001
#
# number of rings (size 3 to 8) (size 9 to 14) (size 15 to 20)
#    0.000    2.600    0.667    3.800    0.000    2.667 
#    0.000    2.667    0.000    1.200    0.000    2.800 
#    0.000    0.000    0.000    3.333    0.000    3.467 
#
# Total GULP energy -334670.333980 kJ/mol
# GULP energy per Si atom -5577.838900 kJ/mol
# Density = 1.742923 g / cm^3
# Si number density = 17.468993 Si / 1000 Ang^3
#
#
#
# Elastic Constant Matrix: (Units=GPa)
#
#
# Indices 1 2 3 4 5 6 
#
# 1 81.7327 16.9913 49.7607 0.0000 0.0000 0.0000
# 2 16.9913 40.5807 36.6171 0.0000 0.0000 0.0000
# 3 49.7607 36.6171 131.6163 0.0000 0.0000 0.0000
# 4 0.0000 0.0000 0.0000 9.6562 0.0000 0.0000
# 5 0.0000 0.0000 0.0000 0.0000 13.8888 0.0000
# 6 0.0000 0.0000 0.0000 0.0000 0.0000 19.8777
#
#
#
# Elastic Compliance Matrix: (Units=1/GPa)
#
#
# Indices 1 2 3 4 5 6 
#
# 1 0.015976 -0.001654 -0.005580 0.000000 0.000000 0.000000
# 2 -0.001654 0.033073 -0.008576 0.000000 0.000000 0.000000
# 3 -0.005580 -0.008576 0.012093 0.000000 0.000000 0.000000
# 4 0.000000 0.000000 0.000000 0.103560 0.000000 0.000000
# 5 0.000000 0.000000 0.000000 0.000000 0.072001 0.000000
# 6 0.000000 0.000000 0.000000 0.000000 0.000000 0.050308
#
#
# Mechanical properties :
#
#
# Convention : Reuss Voigt Hill
#
# Bulk Modulus (GPa) = 33.87255 51.18531 42.52893
# Shear Modulus (GPa) = 15.22200 18.72192 16.97196
#
# Velocity S-wave (km/s) = 2.95510 3.27727 3.12035
# Velocity P-wave (km/s) = 5.57456 6.60946 6.11395
#
# Compressibility (1/GPa) = 0.02952243
#
# Stress axis : x y z
#
# Youngs Moduli (GPa) = 62.59361 30.23597 82.69016
#
# Poissons Ratio (x) = 0.05002 0.46140
# Poissons Ratio (y) = 0.10355 0.70914
# Poissons Ratio (z) = 0.34926 0.25930
#
# Static dielectric constant tensor:
#      x y z
#    x 1.585050 0.000000 0.000000 
#    y 0.000000 1.586000 0.000000 
#    z 0.000000 0.000000 1.604950 
# 
# From -- ./inp_files/76093.got.cif
#   From: 2010.05.17/outbox.cif.g08.bks.cpg/sg65_39_cif.got.tgz:76093.got - 2010.06.03 17:01:31.
