data_PCOD9490254
_publ_section_title
;
Structure prediction by ZEFSAII (Michael W. Deem and Ramdas Pophale) SiO2 
 PCOD9490254
Probable space group: C M M M
;
_chemical_formula_sum "Si O2"
_cell_formula_units_Z 104
_cell_length_a 29.296760
_cell_length_b 8.715745
_cell_length_c 21.121549
_cell_angle_alpha 90.000000
_cell_angle_beta 90.000000
_cell_angle_gamma 90.000000
_cell_volume 5393.241576
_symmetry_space_group_name_H-M "C M M M"
_symmetry_group_IT_number 65
_symmetry_cell_setting 'orthorhombic'
loop_
_space_group_symop_operation_xyz
x,y,z
-x,-y,z
x,-y,-z
-x,y,-z
-x,-y,-z
x,y,-z
-x,y,z
x,-y,z
1/2+x,1/2+y,z
1/2-x,1/2-y,z
1/2+x,1/2-y,-z
1/2-x,1/2+y,-z
1/2-x,1/2-y,-z
1/2+x,1/2+y,-z
1/2-x,1/2+y,z
1/2+x,1/2-y,z
loop_
_atom_site_type_symbol
_atom_site_label
_atom_site_fract_x
_atom_site_fract_y
_atom_site_fract_z
Si Si1 0.553367 0.684391 0.000000
Si Si2 0.800726 0.815711 0.831376
Si Si3 0.554394 0.320497 0.765703
Si Si4 0.108755 0.682000 0.881658
Si Si5 0.300250 0.315106 0.686443
Si Si6 0.638639 0.684915 0.430811
Si Si7 0.447657 0.816896 0.373155
O O1 0.579893 0.745850 0.061234
O O2 0.554277 0.500000 0.000000
O O3 0.500000 0.732481 0.000000
O O4 0.750000 0.750000 0.843432
O O5 0.840193 0.749435 0.875849
O O6 0.813516 0.772459 0.758388
O O7 0.799531 0.000000 0.835616
O O8 0.500000 0.308097 0.778292
O O9 0.567310 0.500000 0.768855
O O10 0.582363 0.228041 0.817519
O O11 0.562311 0.257992 0.695256
O O12 0.110791 0.500000 0.888714
O O13 0.299049 0.500000 0.684560
O O14 0.250000 0.250000 0.675895
O O15 0.332548 0.260551 0.629788
O O16 0.657453 0.728461 0.500000
O O17 0.636976 0.500000 0.428055
O O18 0.588236 0.750685 0.422196
O O19 0.500000 0.779702 0.389435
O O20 0.443481 0.000000 0.368253
#
# Coordination Sequence:
#
# PCOD9490254 Si02
#       7
#     8  16  16  16  16  16  16
#     4  11  25  45  66  89 122 165 207 241 281 337
#     4  10  20  37  61  88 118 152 194 243 294 346
#     4  10  20  35  57  84 113 147 188 234 287 347
#     4  12  24  38  60  90 123 158 196 239 288 338
#     4   9  19  35  56  82 111 143 182 231 283 336
#     4  10  21  36  53  75 106 146 190 231 277 342
#     4  10  21  36  54  78 107 139 181 236 293 345
#
# _framework density 19.283393
#
# number of rings (size 3 to 8) (size 9 to 14) (size 15 to 20)
#    0.000    1.769    0.000    4.385    0.000    7.692 
#    0.000    1.923    0.000    0.000    0.000    0.000 
#    0.000    0.000    0.000    0.000    0.000    0.000 
#
# Total GULP energy -290569.467865 kJ/mol
# GULP energy per Si atom -5587.874382 kJ/mol
# Density = 1.923950 g / cm^3
# Si number density = 19.283393 Si / 1000 Ang^3
#
#
#
# Elastic Constant Matrix: (Units=GPa)
#
#
# Indices 1 2 3 4 5 6 
#
# 1 115.0554 45.2473 78.7465 0.0000 0.0000 0.0000
# 2 45.2473 58.9226 31.8250 0.0000 0.0000 0.0000
# 3 78.7465 31.8250 73.7977 0.0000 0.0000 0.0000
# 4 0.0000 0.0000 0.0000 14.3859 0.0000 0.0000
# 5 0.0000 0.0000 0.0000 0.0000 23.9039 0.0000
# 6 0.0000 0.0000 0.0000 0.0000 0.0000 34.3569
#
#
#
# Elastic Compliance Matrix: (Units=1/GPa)
#
#
# Indices 1 2 3 4 5 6 
#
# 1 0.035450 -0.008853 -0.034009 0.000000 0.000000 0.000000
# 2 -0.008853 0.024336 -0.001048 0.000000 0.000000 0.000000
# 3 -0.034009 -0.001048 0.050292 0.000000 0.000000 0.000000
# 4 0.000000 0.000000 0.000000 0.069512 0.000000 0.000000
# 5 0.000000 0.000000 0.000000 0.000000 0.041834 0.000000
# 6 0.000000 0.000000 0.000000 0.000000 0.000000 0.029106
#
#
# Mechanical properties :
#
#
# Convention : Reuss Voigt Hill
#
# Bulk Modulus (GPa) = 44.92862 62.15704 53.54283
# Shear Modulus (GPa) = 14.46052 20.65982 17.56017
#
# Velocity S-wave (km/s) = 2.74139 3.27674 3.02095
# Velocity P-wave (km/s) = 5.77668 6.82785 6.32414
#
# Compressibility (1/GPa) = 0.02225753
#
# Stress axis : x y z
#
# Youngs Moduli (GPa) = 28.20903 41.09153 19.88398
#
# Poissons Ratio (x) = 0.36380 0.67623
# Poissons Ratio (y) = 0.24975 0.02083
# Poissons Ratio (z) = 0.95936 0.04305
#
# Static dielectric constant tensor:
#      x y z
#    x 1.667040 0.000000 0.000000 
#    y 0.000000 1.639470 0.000000 
#    z 0.000000 0.000000 1.680000 
# 
# From -- ./inp_files/65939.got.cif
#   From: 2010.05.17/outbox.cif.g08.bks.cpg/sg65_33_cif.got.tgz:65939.got - 2010.06.03 17:01:31.
