data_PCOD9490047
_publ_section_title
;
Structure prediction by ZEFSAII (Michael W. Deem and Ramdas Pophale) SiO2 
 PCOD9490047
Probable space group: C M M M
;
_chemical_formula_sum "Si O2"
_cell_formula_units_Z 100
_cell_length_a 7.579098
_cell_length_b 31.920636
_cell_length_c 21.061485
_cell_angle_alpha 90.000000
_cell_angle_beta 90.000000
_cell_angle_gamma 90.000000
_cell_volume 5095.397241
_symmetry_space_group_name_H-M "C M M M"
_symmetry_group_IT_number 65
_symmetry_cell_setting 'orthorhombic'
loop_
_space_group_symop_operation_xyz
x,y,z
-x,-y,z
x,-y,-z
-x,y,-z
-x,-y,-z
x,y,-z
-x,y,z
x,-y,z
1/2+x,1/2+y,z
1/2-x,1/2-y,z
1/2+x,1/2-y,-z
1/2-x,1/2+y,-z
1/2-x,1/2-y,-z
1/2+x,1/2+y,-z
1/2-x,1/2+y,z
1/2+x,1/2-y,z
loop_
_atom_site_type_symbol
_atom_site_label
_atom_site_fract_x
_atom_site_fract_y
_atom_site_fract_z
Si Si1 0.794241 0.061017 0.215897
Si Si2 0.500000 0.000000 0.168255
Si Si3 0.714227 0.545939 0.363472
Si Si4 0.710670 0.630840 0.571110
Si Si5 0.708457 0.201639 0.326351
Si Si6 0.214907 0.658058 0.801497
Si Si7 0.711615 0.799194 0.069889
O O1 0.656288 0.036279 0.172943
O O2 0.744007 0.050158 0.288891
O O3 0.774972 0.110643 0.207952
O O4 0.000000 0.049649 0.206548
O O5 0.500000 0.546172 0.367605
O O6 0.774452 0.500000 0.386147
O O7 0.780025 0.587003 0.400033
O O8 0.778915 0.638471 0.500000
O O9 0.500000 0.625785 0.566823
O O10 0.738776 0.669383 0.618619
O O11 0.500000 0.198569 0.321823
O O12 0.750000 0.250000 0.339240
O O13 0.778986 0.185792 0.258208
O O14 0.277670 0.676227 0.868746
O O15 0.000000 0.658603 0.801641
O O16 0.500000 0.804156 0.068803
O O17 0.750000 0.750000 0.077525
O O18 0.779075 0.812112 0.000000
#
# Coordination Sequence:
#
# PCOD9490047 Si02
#       7
#    16   4  16  16  16  16  16
#     4  11  21  34  57  86 117 157 193 240 297 349
#     4  12  22  36  56  86 126 152 198 246 292 358
#     4   9  17  32  54  81 110 140 182 226 281 354
#     4  10  21  37  56  77 106 143 184 235 291 348
#     4  11  23  37  57  79 107 145 189 239 291 344
#     4  10  20  35  55  85 118 152 192 239 292 343
#     4   9  18  33  54  82 120 160 196 235 285 346
#
# _framework density 19.625554000000001
#
# number of rings (size 3 to 8) (size 9 to 14) (size 15 to 20)
#    0.000    1.920    3.200    1.200    0.000    2.240 
#    0.000    1.600    0.000    0.000    0.000    2.800 
#    0.000    1.280    0.000    0.000    0.000    0.000 
#
# Total GULP energy -278584.858431 kJ/mol
# GULP energy per Si atom -5571.697169 kJ/mol
# Density = 1.958089 g / cm^3
# Si number density = 19.625554 Si / 1000 Ang^3
#
#
#
# Elastic Constant Matrix: (Units=GPa)
#
#
# Indices 1 2 3 4 5 6 
#
# 1 64.2798 0.9254 7.1026 0.0000 0.0000 0.0000
# 2 0.9254 171.2150 81.1762 0.0000 0.0000 0.0000
# 3 7.1026 81.1762 119.6510 0.0000 0.0000 0.0000
# 4 0.0000 0.0000 0.0000 23.1415 0.0000 0.0000
# 5 0.0000 0.0000 0.0000 0.0000 3.9587 0.0000
# 6 0.0000 0.0000 0.0000 0.0000 0.0000 -2.0111
#
#
#
# Elastic Compliance Matrix: (Units=1/GPa)
#
#
# Indices 1 2 3 4 5 6 
#
# 1 0.015692 0.000526 -0.001288 0.000000 0.000000 0.000000
# 2 0.000526 0.008628 -0.005885 0.000000 0.000000 0.000000
# 3 -0.001288 -0.005885 0.012427 0.000000 0.000000 0.000000
# 4 0.000000 0.000000 0.000000 0.043212 0.000000 0.000000
# 5 0.000000 0.000000 0.000000 0.000000 0.252611 0.000000
# 6 0.000000 0.000000 0.000000 0.000000 0.000000 -0.497229
#
#
# Mechanical properties :
#
#
# Convention : Reuss Voigt Hill
#
# Bulk Modulus (GPa) = 42.64016 59.28379 50.96198
# Shear Modulus (GPa) = -34.83150 22.74725 -6.04212
#
# Velocity S-wave (km/s) = -4.21741 3.40819 -1.75653
# Velocity P-wave (km/s) = 1.39334 6.76467 4.68078
#
# Compressibility (1/GPa) = 0.02345207
#
# Stress axis : x y z
#
# Youngs Moduli (GPa) = 63.72771 115.90439 80.47300
#
# Poissons Ratio (x) = -0.06097 0.10368
# Poissons Ratio (y) = -0.03352 0.47356
# Poissons Ratio (z) = 0.08210 0.68206
#
# Static dielectric constant tensor:
#      x y z
#    x 1.720400 0.000000 0.000000 
#    y 0.000000 1.639800 0.000000 
#    z 0.000000 0.000000 1.702220 
# 
# From -- ./inp_files/60811.got.cif
#   From: 2010.05.17/outbox.cif.g08.bks.cpg/sg65_31_cif.got.tgz:60811.got - 2010.06.03 17:01:31.
