data_PCOD9490072
_publ_section_title
;
Structure prediction by ZEFSAII (Michael W. Deem and Ramdas Pophale) SiO2 
 PCOD9490072
Probable space group: C M M M
;
_chemical_formula_sum "Si O2"
_cell_formula_units_Z 56
_cell_length_a 13.560554
_cell_length_b 25.919652
_cell_length_c 8.725900
_cell_angle_alpha 90.000000
_cell_angle_beta 90.000000
_cell_angle_gamma 90.000000
_cell_volume 3067.021571
_symmetry_space_group_name_H-M "C M M M"
_symmetry_group_IT_number 65
_symmetry_cell_setting 'orthorhombic'
loop_
_space_group_symop_operation_xyz
x,y,z
-x,-y,z
x,-y,-z
-x,y,-z
-x,-y,-z
x,y,-z
-x,y,z
x,-y,z
1/2+x,1/2+y,z
1/2-x,1/2-y,z
1/2+x,1/2-y,-z
1/2-x,1/2+y,-z
1/2-x,1/2-y,-z
1/2+x,1/2+y,-z
1/2-x,1/2+y,z
1/2+x,1/2-y,z
loop_
_atom_site_type_symbol
_atom_site_label
_atom_site_fract_x
_atom_site_fract_y
_atom_site_fract_z
Si Si1 0.393786 0.850540 0.184087
Si Si2 0.865609 0.240303 0.325049
Si Si3 0.669286 0.368620 0.184063
Si Si4 0.000000 0.939316 0.683045
O O1 0.500000 0.874381 0.235026
O O2 0.399360 0.790905 0.235377
O O3 0.285404 0.871100 0.235797
O O4 0.391477 0.853167 0.000000
O O5 0.900572 0.237884 0.500000
O O6 0.750000 0.250000 0.333571
O O7 0.876195 0.185941 0.240350
O O8 0.597891 0.412402 0.249441
O O9 0.668261 0.369827 0.000000
O O10 0.000000 0.932152 0.500000
O O11 0.000000 0.000000 0.717745
#
# Coordination Sequence:
#
# PCOD9490072 Si02
#       4
#    16  16  16   8
#     4   9  18  32  51  78 113 148 180 214 257 315
#     4   9  17  29  46  72 108 148 185 217 253 304
#     4  10  20  35  56  79 105 140 180 223 271 320
#     4  11  25  43  61  79 101 133 177 233 288 331
#
# _framework density 18.258756000000002
#
# number of rings (size 3 to 8) (size 9 to 14) (size 15 to 20)
#    0.000    2.429    0.000    2.143    2.000    6.286 
#    0.000    0.000    0.000    0.857    0.000    6.000 
#    0.000    0.000    0.000    0.000    0.000    0.000 
#
# Total GULP energy -155884.279991 kJ/mol
# GULP energy per Si atom -5567.295714 kJ/mol
# Density = 1.821720 g / cm^3
# Si number density = 18.258756 Si / 1000 Ang^3
#
#
#
# Elastic Constant Matrix: (Units=GPa)
#
#
# Indices 1 2 3 4 5 6 
#
# 1 196.2240 57.9840 24.9297 0.0000 0.0000 0.0000
# 2 57.9840 89.6922 33.0414 0.0000 0.0000 0.0000
# 3 24.9297 33.0414 30.3850 0.0000 0.0000 0.0000
# 4 0.0000 0.0000 0.0000 31.8055 0.0000 0.0000
# 5 0.0000 0.0000 0.0000 0.0000 -7.6770 0.0000
# 6 0.0000 0.0000 0.0000 0.0000 0.0000 27.0735
#
#
#
# Elastic Compliance Matrix: (Units=1/GPa)
#
#
# Indices 1 2 3 4 5 6 
#
# 1 0.006328 -0.003634 -0.001240 0.000000 0.000000 0.000000
# 2 -0.003634 0.020687 -0.019514 0.000000 0.000000 0.000000
# 3 -0.001240 -0.019514 0.055149 0.000000 0.000000 0.000000
# 4 0.000000 0.000000 0.000000 0.031441 0.000000 0.000000
# 5 0.000000 0.000000 0.000000 0.000000 -0.130259 0.000000
# 6 0.000000 0.000000 0.000000 0.000000 0.000000 0.036937
#
#
# Mechanical properties :
#
#
# Convention : Reuss Voigt Hill
#
# Bulk Modulus (GPa) = 29.95171 60.91240 45.43205
# Shear Modulus (GPa) = 62.35338 23.59679 42.97508
#
# Velocity S-wave (km/s) = 5.85013 3.59883 4.85673
# Velocity P-wave (km/s) = 7.87855 7.12053 7.50911
#
# Compressibility (1/GPa) = 0.03338708
#
# Stress axis : x y z
#
# Youngs Moduli (GPa) = 158.03915 48.33894 18.13278
#
# Poissons Ratio (x) = 0.17565 0.02248
# Poissons Ratio (y) = 0.57428 0.35385
# Poissons Ratio (z) = 0.19597 0.94331
#
# Static dielectric constant tensor:
#      x y z
#    x 1.726120 0.000000 0.000000 
#    y 0.000000 1.579400 0.000000 
#    z 0.000000 0.000000 1.621140 
# 
# From -- ./inp_files/6239.got.cif
#   From: 2010.05.17/outbox.cif.g08.bks.cpg/sg65_4_cif.got.tgz:6239.got - 2010.06.03 17:01:31.
