data_PCOD9490621
_publ_section_title
;
Structure prediction by ZEFSAII (Michael W. Deem and Ramdas Pophale) SiO2 
 PCOD9490621
Probable space group: C M M M
;
_chemical_formula_sum "Si O2"
_cell_formula_units_Z 62
_cell_length_a 18.307495
_cell_length_b 13.612742
_cell_length_c 13.685523
_cell_angle_alpha 90.000000
_cell_angle_beta 90.000000
_cell_angle_gamma 90.000000
_cell_volume 3410.640435
_symmetry_space_group_name_H-M "C M M M"
_symmetry_group_IT_number 65
_symmetry_cell_setting 'orthorhombic'
loop_
_space_group_symop_operation_xyz
x,y,z
-x,-y,z
x,-y,-z
-x,y,-z
-x,-y,-z
x,y,-z
-x,y,z
x,-y,z
1/2+x,1/2+y,z
1/2-x,1/2-y,z
1/2+x,1/2-y,-z
1/2-x,1/2+y,-z
1/2-x,1/2-y,-z
1/2+x,1/2+y,-z
1/2-x,1/2+y,z
1/2+x,1/2-y,z
loop_
_atom_site_type_symbol
_atom_site_label
_atom_site_fract_x
_atom_site_fract_y
_atom_site_fract_z
Si Si1 0.412788 0.382020 0.000000
Si Si2 0.859338 0.194328 0.206535
Si Si3 0.500000 0.163017 0.500000
Si Si4 0.000000 0.000000 0.500000
Si Si5 0.000000 0.828194 0.338653
Si Si6 0.293578 0.116696 0.283896
Si Si7 0.166321 0.610735 0.500000
O O1 0.376044 0.337392 0.096515
O O2 0.403961 0.500000 0.000000
O O3 0.500000 0.361404 0.000000
O O4 0.788875 0.137969 0.249800
O O5 0.842604 0.310514 0.218557
O O6 0.928975 0.168339 0.271534
O O7 0.500000 0.229423 0.402980
O O8 0.578188 0.109943 0.500000
O O9 0.000000 0.915244 0.415369
O O10 0.306546 0.151843 0.396358
O O11 0.310173 0.000000 0.277393
O O12 0.195422 0.500000 0.500000
#
# Coordination Sequence:
#
# PCOD9490621 Si02
#       7
#     8  16   4   2   8  16   8
#     4  11  24  41  69  95 119 162 214 261 314 377
#     4  11  23  42  66  89 128 162 210 264 315 370
#     4  11  19  37  59  90 124 166 207 251 291 373
#     4  10  28  32  58  98 126 160 206 250 324 368
#     4  11  23  40  59  93 127 162 205 261 315 366
#     4  10  23  40  63  93 129 168 205 255 314 379
#     4  10  20  36  58  92 125 170 210 241 303 379
#
# _framework density 18.178405000000001
#
# number of rings (size 3 to 8) (size 9 to 14) (size 15 to 20)
#    0.000    1.419    3.871    0.968    3.613    6.194 
#    2.323    2.581    0.000    0.774    0.000    0.000 
#    0.000    0.000    0.000    0.000    0.000    0.000 
#
# Total GULP energy -172719.944134 kJ/mol
# GULP energy per Si atom -5571.611101 kJ/mol
# Density = 1.813703 g / cm^3
# Si number density = 18.178405 Si / 1000 Ang^3
#
#
#
# Elastic Constant Matrix: (Units=GPa)
#
#
# Indices 1 2 3 4 5 6 
#
# 1 126.2593 38.0181 85.3192 0.0000 0.0000 0.0000
# 2 38.0181 114.8009 59.6109 0.0000 0.0000 0.0000
# 3 85.3192 59.6109 184.7269 0.0000 0.0000 0.0000
# 4 0.0000 0.0000 0.0000 33.9962 0.0000 0.0000
# 5 0.0000 0.0000 0.0000 0.0000 28.9542 0.0000
# 6 0.0000 0.0000 0.0000 0.0000 0.0000 13.6621
#
#
#
# Elastic Compliance Matrix: (Units=1/GPa)
#
#
# Indices 1 2 3 4 5 6 
#
# 1 0.011668 -0.001280 -0.004976 0.000000 0.000000 0.000000
# 2 -0.001280 0.010605 -0.002831 0.000000 0.000000 0.000000
# 3 -0.004976 -0.002831 0.008625 0.000000 0.000000 0.000000
# 4 0.000000 0.000000 0.000000 0.029415 0.000000 0.000000
# 5 0.000000 0.000000 0.000000 0.000000 0.034537 0.000000
# 6 0.000000 0.000000 0.000000 0.000000 0.000000 0.073195
#
#
# Mechanical properties :
#
#
# Convention : Reuss Voigt Hill
#
# Bulk Modulus (GPa) = 78.59265 87.96482 83.27873
# Shear Modulus (GPa) = 26.25210 31.51177 28.88194
#
# Velocity S-wave (km/s) = 3.80430 4.16802 3.99031
# Velocity P-wave (km/s) = 7.91359 8.46510 8.19399
#
# Compressibility (1/GPa) = 0.01272384
#
# Stress axis : x y z
#
# Youngs Moduli (GPa) = 85.70265 94.29868 115.94026
#
# Poissons Ratio (x) = 0.12073 0.57692
# Poissons Ratio (y) = 0.10973 0.32820
# Poissons Ratio (z) = 0.42646 0.26694
#
# Static dielectric constant tensor:
#      x y z
#    x 1.617350 0.000000 0.000000 
#    y 0.000000 1.644320 0.000000 
#    z 0.000000 0.000000 1.614340 
# 
# From -- ./inp_files/26174.got.cif
#   From: 2010.05.17/outbox.cif.g08.bks.cpg/sg65_14_cif.got.tgz:26174.got - 2010.06.03 17:01:31.
