data_PCOD9490427
_publ_section_title
;
Structure prediction by ZEFSAII (Michael W. Deem and Ramdas Pophale) SiO2 
 PCOD9490427
Probable space group: C M M M
;
_chemical_formula_sum "Si O2"
_cell_formula_units_Z 72
_cell_length_a 13.434123
_cell_length_b 13.335623
_cell_length_c 22.360991
_cell_angle_alpha 90.000000
_cell_angle_beta 90.000000
_cell_angle_gamma 90.000000
_cell_volume 4006.025197
_symmetry_space_group_name_H-M "C M M M"
_symmetry_group_IT_number 65
_symmetry_cell_setting 'orthorhombic'
loop_
_space_group_symop_operation_xyz
x,y,z
-x,-y,z
x,-y,-z
-x,y,-z
-x,-y,-z
x,y,-z
-x,y,z
x,-y,z
1/2+x,1/2+y,z
1/2-x,1/2-y,z
1/2+x,1/2-y,-z
1/2-x,1/2+y,-z
1/2-x,1/2-y,-z
1/2+x,1/2+y,-z
1/2-x,1/2+y,z
1/2+x,1/2-y,z
loop_
_atom_site_type_symbol
_atom_site_label
_atom_site_fract_x
_atom_site_fract_y
_atom_site_fract_z
Si Si1 0.319116 0.113555 0.617160
Si Si2 0.116782 0.381824 0.754288
Si Si3 0.888145 0.179204 0.429742
Si Si4 0.750000 0.250000 0.842247
Si Si5 0.117432 0.119439 0.930859
O O1 0.344774 0.131737 0.686483
O O2 0.201256 0.126657 0.605528
O O3 0.371580 0.201621 0.579914
O O4 0.349545 0.000000 0.601757
O O5 0.126776 0.500000 0.768398
O O6 0.179632 0.316397 0.799977
O O7 0.000000 0.355842 0.756249
O O8 0.877269 0.156137 0.500000
O O9 0.000000 0.152038 0.410787
O O10 0.816652 0.180026 0.884598
O O11 0.000000 0.140033 0.921978
O O12 0.131817 0.000000 0.923715
O O13 0.141605 0.144666 0.000000
#
# Coordination Sequence:
#
# PCOD9490427 Si02
#       5
#    16  16  16   8  16
#     4  10  20  36  55  72  98 138 174 203 249 311
#     4  10  22  37  52  75 106 136 169 214 261 301
#     4  10  21  35  52  78 106 128 161 213 262 303
#     4  12  19  32  58  82 101 136 180 214 252 306
#     4   9  19  35  53  77 110 142 173 212 255 300
#
# _framework density 17.972926999999999
#
# number of rings (size 3 to 8) (size 9 to 14) (size 15 to 20)
#    0.000    2.000    0.000    5.667    0.000    3.556 
#    0.000    3.333    0.000    2.667    0.000    9.333 
#    0.000    0.000    0.000    0.000    0.000    0.000 
#
# Total GULP energy -201041.739168 kJ/mol
# GULP energy per Si atom -5584.492755 kJ/mol
# Density = 1.793202 g / cm^3
# Si number density = 17.972927 Si / 1000 Ang^3
#
#
#
# Elastic Constant Matrix: (Units=GPa)
#
#
# Indices 1 2 3 4 5 6 
#
# 1 137.0185 37.2171 76.4039 0.0000 0.0000 0.0000
# 2 37.2171 48.6460 41.1831 0.0000 0.0000 0.0000
# 3 76.4039 41.1831 88.5247 0.0000 0.0000 0.0000
# 4 0.0000 0.0000 0.0000 46.7188 0.0000 0.0000
# 5 0.0000 0.0000 0.0000 0.0000 6.6398 0.0000
# 6 0.0000 0.0000 0.0000 0.0000 0.0000 8.8326
#
#
#
# Elastic Compliance Matrix: (Units=1/GPa)
#
#
# Indices 1 2 3 4 5 6 
#
# 1 0.014088 -0.000799 -0.011788 0.000000 0.000000 0.000000
# 2 -0.000799 0.033959 -0.015108 0.000000 0.000000 0.000000
# 3 -0.011788 -0.015108 0.028498 0.000000 0.000000 0.000000
# 4 0.000000 0.000000 0.000000 0.021405 0.000000 0.000000
# 5 0.000000 0.000000 0.000000 0.000000 0.150607 0.000000
# 6 0.000000 0.000000 0.000000 0.000000 0.000000 0.113217
#
#
# Mechanical properties :
#
#
# Convention : Reuss Voigt Hill
#
# Bulk Modulus (GPa) = 47.26943 64.86635 56.06789
# Shear Modulus (GPa) = 11.78644 20.39724 16.09184
#
# Velocity S-wave (km/s) = 2.56362 3.37246 2.99547
# Velocity P-wave (km/s) = 5.92624 7.16479 6.57474
#
# Compressibility (1/GPa) = 0.02115532
#
# Stress axis : x y z
#
# Youngs Moduli (GPa) = 70.98089 29.44763 35.08959
#
# Poissons Ratio (x) = 0.02354 0.41362
# Poissons Ratio (y) = 0.05673 0.53014
# Poissons Ratio (z) = 0.83669 0.44490
#
# Static dielectric constant tensor:
#      x y z
#    x 1.607770 0.000000 0.000000 
#    y 0.000000 1.615850 0.000000 
#    z 0.000000 0.000000 1.579030 
# 
# From -- ./inp_files/52734.got.cif
#   From: 2010.05.17/outbox.cif.g08.bks.cpg/sg65_27_cif.got.tgz:52734.got - 2010.06.03 17:01:31.
