data_PCOD9490809
_publ_section_title
;
Structure prediction by ZEFSAII (Michael W. Deem and Ramdas Pophale) SiO2 
 PCOD9490809
Probable space group: C M M M
;
_chemical_formula_sum "Si O2"
_cell_formula_units_Z 104
_cell_length_a 24.483117
_cell_length_b 25.918741
_cell_length_c 8.446651
_cell_angle_alpha 90.000000
_cell_angle_beta 90.000000
_cell_angle_gamma 90.000000
_cell_volume 5360.004573
_symmetry_space_group_name_H-M "C M M M"
_symmetry_group_IT_number 65
_symmetry_cell_setting 'orthorhombic'
loop_
_space_group_symop_operation_xyz
x,y,z
-x,-y,z
x,-y,-z
-x,y,-z
-x,-y,-z
x,y,-z
-x,y,z
x,-y,z
1/2+x,1/2+y,z
1/2-x,1/2-y,z
1/2+x,1/2-y,-z
1/2-x,1/2+y,-z
1/2-x,1/2-y,-z
1/2+x,1/2+y,-z
1/2-x,1/2+y,z
1/2+x,1/2-y,z
loop_
_atom_site_type_symbol
_atom_site_label
_atom_site_fract_x
_atom_site_fract_y
_atom_site_fract_z
Si Si1 0.882655 0.246613 0.188039
Si Si2 0.000000 0.608187 0.307009
Si Si3 0.500000 0.562651 0.182666
Si Si4 0.882842 0.058974 0.690466
Si Si5 0.614240 0.058280 0.693205
Si Si6 0.815442 0.344809 0.308010
Si Si7 0.309664 0.652608 0.308457
Si Si8 0.500000 0.771959 0.310254
O O1 0.853204 0.298997 0.245173
O O2 0.847625 0.199120 0.253264
O O3 0.944515 0.246264 0.250479
O O4 0.883144 0.245063 0.000000
O O5 0.945153 0.579088 0.256366
O O6 0.000000 0.608329 0.500000
O O7 0.000000 0.667879 0.256806
O O8 0.500000 0.500000 0.192045
O O9 0.556875 0.578603 0.261632
O O10 0.500000 0.578109 0.000000
O O11 0.880966 0.057105 0.500000
O O12 0.836811 0.098813 0.745409
O O13 0.875781 0.000000 0.749200
O O14 0.613892 0.057415 0.500000
O O15 0.659069 0.100321 0.740352
O O16 0.624069 0.000000 0.747550
O O17 0.816786 0.342125 0.500000
O O18 0.752747 0.340143 0.255427
O O19 0.308949 0.652192 0.500000
O O20 0.500000 0.771693 0.500000
#
# Coordination Sequence:
#
# PCOD9490809 Si02
#       8
#    16   8   8  16  16  16  16   8
#     4  12  25  40  59  85 115 148 192 240 291 344
#     4   9  15  27  51  83 117 148 182 226 282 341
#     4   9  17  30  51  78 106 140 180 219 265 329
#     4   9  18  34  56  82 112 144 179 226 286 343
#     4   9  16  27  50  87 122 149 187 240 289 337
#     4  10  20  37  59  83 113 154 198 238 284 338
#     4  10  22  38  58  83 113 151 195 239 285 340
#     4  11  21  39  66  89 115 151 190 235 294 351
#
# _framework density 19.402967
#
# number of rings (size 3 to 8) (size 9 to 14) (size 15 to 20)
#    0.000    2.077    1.538    2.538    0.000    6.154 
#    0.000    3.846    0.000    0.462    0.000    3.231 
#    0.000    0.000    0.000    0.000    0.000    0.000 
#
# Total GULP energy -290362.386766 kJ/mol
# GULP energy per Si atom -5583.892053 kJ/mol
# Density = 1.935881 g / cm^3
# Si number density = 19.402967 Si / 1000 Ang^3
#
#
#
# Elastic Constant Matrix: (Units=GPa)
#
#
# Indices 1 2 3 4 5 6 
#
# 1 183.4452 77.1312 21.7865 0.0000 0.0000 0.0000
# 2 77.1312 101.4847 10.6107 0.0000 0.0000 0.0000
# 3 21.7865 10.6107 13.9271 0.0000 0.0000 0.0000
# 4 0.0000 0.0000 0.0000 -1.9257 0.0000 0.0000
# 5 0.0000 0.0000 0.0000 0.0000 -4.7267 0.0000
# 6 0.0000 0.0000 0.0000 0.0000 0.0000 7.9734
#
#
#
# Elastic Compliance Matrix: (Units=1/GPa)
#
#
# Indices 1 2 3 4 5 6 
#
# 1 0.009080 -0.005885 -0.009721 0.000000 0.000000 0.000000
# 2 -0.005885 0.014520 -0.001857 0.000000 0.000000 0.000000
# 3 -0.009721 -0.001857 0.088423 0.000000 0.000000 0.000000
# 4 0.000000 0.000000 0.000000 -0.519302 0.000000 0.000000
# 5 0.000000 0.000000 0.000000 0.000000 -0.211563 0.000000
# 6 0.000000 0.000000 0.000000 0.000000 0.000000 0.125418
#
#
# Mechanical properties :
#
#
# Convention : Reuss Voigt Hill
#
# Bulk Modulus (GPa) = 12.97036 57.54597 35.25817
# Shear Modulus (GPa) = -11.55270 12.88610 0.66670
#
# Velocity S-wave (km/s) = -2.44275 2.57987 0.58682
# Velocity P-wave (km/s) = 1.12106 6.21265 4.32089
#
# Compressibility (1/GPa) = 0.07709887
#
# Stress axis : x y z
#
# Youngs Moduli (GPa) = 110.13316 68.86865 11.30923
#
# Poissons Ratio (x) = 0.40527 0.10993
# Poissons Ratio (y) = 0.64810 0.02100
# Poissons Ratio (z) = 1.07055 0.12790
#
# Static dielectric constant tensor:
#      x y z
#    x 1.662320 0.000000 0.000000 
#    y 0.000000 1.673030 0.000000 
#    z 0.000000 0.000000 1.662070 
# 
# From -- ./inp_files/12481.got.cif
#   From: 2010.05.17/outbox.cif.g08.bks.cpg/sg65_7_cif.got.tgz:12481.got - 2010.06.03 17:01:31.
