data_PCOD9490586
_publ_section_title
;
Structure prediction by ZEFSAII (Michael W. Deem and Ramdas Pophale) SiO2 
 PCOD9490586
Probable space group: C M M M
;
_chemical_formula_sum "Si O2"
_cell_formula_units_Z 96
_cell_length_a 24.266949
_cell_length_b 9.017036
_cell_length_c 25.834804
_cell_angle_alpha 90.000000
_cell_angle_beta 90.000000
_cell_angle_gamma 90.000000
_cell_volume 5653.067251
_symmetry_space_group_name_H-M "C M M M"
_symmetry_group_IT_number 65
_symmetry_cell_setting 'orthorhombic'
loop_
_space_group_symop_operation_xyz
x,y,z
-x,-y,z
x,-y,-z
-x,y,-z
-x,-y,-z
x,y,-z
-x,y,z
x,-y,z
1/2+x,1/2+y,z
1/2-x,1/2-y,z
1/2+x,1/2-y,-z
1/2-x,1/2+y,-z
1/2-x,1/2-y,-z
1/2+x,1/2+y,-z
1/2-x,1/2+y,z
1/2+x,1/2-y,z
loop_
_atom_site_type_symbol
_atom_site_label
_atom_site_fract_x
_atom_site_fract_y
_atom_site_fract_z
Si Si1 0.564601 0.822277 0.939748
Si Si2 0.000000 0.826552 0.316984
Si Si3 0.000000 0.324630 0.208834
Si Si4 0.809912 0.178318 0.752070
Si Si5 0.122357 0.824575 0.351373
Si Si6 0.309291 0.823331 0.559340
Si Si7 0.607343 0.677918 0.841763
O O1 0.500000 0.783036 0.929594
O O2 0.604398 0.739619 0.899968
O O3 0.568959 0.000000 0.932808
O O4 0.575558 0.788938 0.000000
O O5 0.000000 0.716227 0.268951
O O6 0.943213 0.804681 0.347281
O O7 0.000000 0.000000 0.298344
O O8 0.053945 0.249964 0.184819
O O9 0.000000 0.500000 0.199262
O O10 0.750000 0.250000 0.747555
O O11 0.848528 0.219206 0.702998
O O12 0.840869 0.219156 0.805534
O O13 0.804576 0.000000 0.751350
O O14 0.148425 0.736528 0.398602
O O15 0.133180 0.000000 0.358454
O O16 0.324938 0.785763 0.500000
O O17 0.250000 0.750000 0.569603
O O18 0.304134 0.000000 0.563161
O O19 0.602737 0.500000 0.841616
#
# Coordination Sequence:
#
# PCOD9490586 Si02
#       7
#    16   8   8  16  16  16  16
#     4   9  18  32  50  77 111 140 172 218 268 317
#     4  10  20  38  57  78 113 147 176 215 264 320
#     4  12  22  32  51  80 109 144 182 215 262 321
#     4  10  22  37  54  78 108 140 175 221 269 314
#     4  10  20  36  58  82 110 143 177 219 269 320
#     4  10  21  37  57  81 109 142 183 230 274 316
#     4  11  21  35  54  77 109 144 179 221 265 316
#
# _framework density 16.981930999999999
#
# number of rings (size 3 to 8) (size 9 to 14) (size 15 to 20)
#    0.000    1.833    2.500    2.750    0.000    5.333 
#    0.000    1.250    0.000    3.000    0.000    0.000 
#    0.000    0.000    0.000    0.000    0.000    0.000 
#
# Total GULP energy -267899.735915 kJ/mol
# GULP energy per Si atom -5581.244498 kJ/mol
# Density = 1.694328 g / cm^3
# Si number density = 16.981931 Si / 1000 Ang^3
#
#
#
# Elastic Constant Matrix: (Units=GPa)
#
#
# Indices 1 2 3 4 5 6 
#
# 1 113.3947 42.3131 63.1463 0.0000 0.0000 0.0000
# 2 42.3131 44.2045 49.1619 0.0000 0.0000 0.0000
# 3 63.1463 49.1619 107.4752 0.0000 0.0000 0.0000
# 4 0.0000 0.0000 0.0000 34.3820 0.0000 0.0000
# 5 0.0000 0.0000 0.0000 0.0000 17.9562 0.0000
# 6 0.0000 0.0000 0.0000 0.0000 0.0000 24.1495
#
#
#
# Elastic Compliance Matrix: (Units=1/GPa)
#
#
# Indices 1 2 3 4 5 6 
#
# 1 0.014708 -0.009095 -0.004481 0.000000 0.000000 0.000000
# 2 -0.009095 0.051671 -0.018292 0.000000 0.000000 0.000000
# 3 -0.004481 -0.018292 0.020305 0.000000 0.000000 0.000000
# 4 0.000000 0.000000 0.000000 0.029085 0.000000 0.000000
# 5 0.000000 0.000000 0.000000 0.000000 0.055691 0.000000
# 6 0.000000 0.000000 0.000000 0.000000 0.000000 0.041409
#
#
# Mechanical properties :
#
#
# Convention : Reuss Voigt Hill
#
# Bulk Modulus (GPa) = 43.57782 63.81300 53.69541
# Shear Modulus (GPa) = 17.58981 22.66106 20.12544
#
# Velocity S-wave (km/s) = 3.22187 3.65694 3.44628
# Velocity P-wave (km/s) = 6.28948 7.44913 6.89373
#
# Compressibility (1/GPa) = 0.02294745
#
# Stress axis : x y z
#
# Youngs Moduli (GPa) = 67.99018 19.35305 49.24908
#
# Poissons Ratio (x) = 0.17601 0.22071
# Poissons Ratio (y) = 0.61834 0.90088
# Poissons Ratio (z) = 0.30470 0.35401
#
# Static dielectric constant tensor:
#      x y z
#    x 1.551280 0.000000 0.000000 
#    y 0.000000 1.566720 0.000000 
#    z 0.000000 0.000000 1.592670 
# 
# From -- ./inp_files/71424.got.cif
#   From: 2010.05.17/outbox.cif.g08.bks.cpg/sg65_36_cif.got.tgz:71424.got - 2010.06.03 17:01:31.
