data_PCOD9490358
_publ_section_title
;
Structure prediction by ZEFSAII (Michael W. Deem and Ramdas Pophale) SiO2 
 PCOD9490358
Probable space group: C M M M
;
_chemical_formula_sum "Si O2"
_cell_formula_units_Z 112
_cell_length_a 14.761718
_cell_length_b 25.410150
_cell_length_c 15.019653
_cell_angle_alpha 90.000000
_cell_angle_beta 90.000000
_cell_angle_gamma 90.000000
_cell_volume 5633.833820
_symmetry_space_group_name_H-M "C M M M"
_symmetry_group_IT_number 65
_symmetry_cell_setting 'orthorhombic'
loop_
_space_group_symop_operation_xyz
x,y,z
-x,-y,z
x,-y,-z
-x,y,-z
-x,-y,-z
x,y,-z
-x,y,z
x,-y,z
1/2+x,1/2+y,z
1/2-x,1/2-y,z
1/2+x,1/2-y,-z
1/2-x,1/2+y,-z
1/2-x,1/2-y,-z
1/2+x,1/2+y,-z
1/2-x,1/2+y,z
1/2+x,1/2-y,z
loop_
_atom_site_type_symbol
_atom_site_label
_atom_site_fract_x
_atom_site_fract_y
_atom_site_fract_z
Si Si1 0.101625 0.354407 0.664568
Si Si2 0.101074 0.439883 0.178225
Si Si3 0.599997 0.732522 0.711612
Si Si4 0.331941 0.708601 0.097946
Si Si5 0.798470 0.852451 0.601753
Si Si6 0.788007 0.913720 0.901886
Si Si7 0.893400 0.060329 0.723262
O O1 0.109384 0.397548 0.742757
O O2 0.108100 0.295225 0.703157
O O3 0.190196 0.360059 0.604678
O O4 0.000000 0.359775 0.625097
O O5 0.107676 0.500000 0.212339
O O6 0.184496 0.430718 0.112850
O O7 0.000000 0.433664 0.138862
O O8 0.500000 0.717275 0.678424
O O9 0.608706 0.717406 0.814968
O O10 0.672830 0.700364 0.654546
O O11 0.250000 0.750000 0.103474
O O12 0.293726 0.649541 0.102458
O O13 0.375590 0.715065 0.000000
O O14 0.829498 0.850097 0.500000
O O15 0.844810 0.899565 0.656660
O O16 0.847323 0.934533 0.820153
O O17 0.819751 0.930345 0.000000
O O18 0.000000 0.072705 0.729769
O O19 0.883277 0.000000 0.693062
#
# Coordination Sequence:
#
# PCOD9490358 Si02
#       7
#    16  16  16  16  16  16  16
#     4  10  22  40  64  94 128 165 207 255 313 377
#     4  10  20  36  60  89 125 169 212 252 297 357
#     4  11  22  38  62  91 129 169 208 257 310 368
#     4  10  20  35  58  88 126 171 213 255 306 367
#     4  12  25  42  67  94 122 161 210 262 319 378
#     4  11  22  37  62  94 128 166 210 257 307 367
#     4  11  25  45  66  90 125 165 207 258 313 372
#
# _framework density 19.87989
#
# number of rings (size 3 to 8) (size 9 to 14) (size 15 to 20)
#    0.000    1.286    2.857    3.000    0.000    4.857 
#    0.000    5.000    0.000    5.143    0.000    3.000 
#    0.000    0.000    0.000    0.000    0.000    0.000 
#
# Total GULP energy -312765.010917 kJ/mol
# GULP energy per Si atom -5585.089481 kJ/mol
# Density = 1.983464 g / cm^3
# Si number density = 19.879890 Si / 1000 Ang^3
#
#
#
# Elastic Constant Matrix: (Units=GPa)
#
#
# Indices 1 2 3 4 5 6 
#
# 1 114.8346 35.7501 44.6762 0.0000 0.0000 0.0000
# 2 35.7501 108.3672 34.2328 0.0000 0.0000 0.0000
# 3 44.6762 34.2328 117.1893 0.0000 0.0000 0.0000
# 4 0.0000 0.0000 0.0000 16.8247 0.0000 0.0000
# 5 0.0000 0.0000 0.0000 0.0000 -3.2478 0.0000
# 6 0.0000 0.0000 0.0000 0.0000 0.0000 11.3752
#
#
#
# Elastic Compliance Matrix: (Units=1/GPa)
#
#
# Indices 1 2 3 4 5 6 
#
# 1 0.010803 -0.002493 -0.003390 0.000000 0.000000 0.000000
# 2 -0.002493 0.010741 -0.002187 0.000000 0.000000 0.000000
# 3 -0.003390 -0.002187 0.010465 0.000000 0.000000 0.000000
# 4 0.000000 0.000000 0.000000 0.059437 0.000000 0.000000
# 5 0.000000 0.000000 0.000000 0.000000 -0.307899 0.000000
# 6 0.000000 0.000000 0.000000 0.000000 0.000000 0.087910
#
#
# Mechanical properties :
#
#
# Convention : Reuss Voigt Hill
#
# Bulk Modulus (GPa) = 63.01983 63.30103 63.16043
# Shear Modulus (GPa) = -46.68000 20.03921 -13.32039
#
# Velocity S-wave (km/s) = -4.85098 3.17837 -2.59133
# Velocity P-wave (km/s) = 0.62700 6.73649 4.78400
#
# Compressibility (1/GPa) = 0.01586802
#
# Stress axis : x y z
#
# Youngs Moduli (GPa) = 92.56442 93.09882 95.55997
#
# Poissons Ratio (x) = 0.23209 0.32398
# Poissons Ratio (y) = 0.23076 0.20902
# Poissons Ratio (z) = 0.31382 0.20363
#
# Static dielectric constant tensor:
#      x y z
#    x 1.718820 0.000000 0.000000 
#    y 0.000000 1.687710 0.000000 
#    z 0.000000 0.000000 1.679070 
# 
# From -- ./inp_files/40755.got.cif
#   From: 2010.05.17/outbox.cif.g08.bks.cpg/sg65_21_cif.got.tgz:40755.got - 2010.06.03 17:01:31.
