data_PCOD9490863
_publ_section_title
;
Structure prediction by ZEFSAII (Michael W. Deem and Ramdas Pophale) SiO2 
 PCOD9490863
Probable space group: C M M M
;
_chemical_formula_sum "Si O2"
_cell_formula_units_Z 80
_cell_length_a 8.737065
_cell_length_b 24.360553
_cell_length_c 20.799274
_cell_angle_alpha 90.000000
_cell_angle_beta 90.000000
_cell_angle_gamma 90.000000
_cell_volume 4426.911966
_symmetry_space_group_name_H-M "C M M M"
_symmetry_group_IT_number 65
_symmetry_cell_setting 'orthorhombic'
loop_
_space_group_symop_operation_xyz
x,y,z
-x,-y,z
x,-y,-z
-x,y,-z
-x,-y,-z
x,y,-z
-x,y,z
x,-y,z
1/2+x,1/2+y,z
1/2-x,1/2-y,z
1/2+x,1/2-y,-z
1/2-x,1/2+y,-z
1/2-x,1/2-y,-z
1/2+x,1/2+y,-z
1/2-x,1/2+y,z
1/2+x,1/2-y,z
loop_
_atom_site_type_symbol
_atom_site_label
_atom_site_fract_x
_atom_site_fract_y
_atom_site_fract_z
Si Si1 0.184821 0.381544 0.313546
Si Si2 0.683706 0.188959 0.187233
Si Si3 0.183247 0.884203 0.926952
Si Si4 0.815658 0.500000 0.116032
Si Si5 0.316948 0.309674 0.574368
Si Si6 0.685931 0.000000 0.266841
O O1 0.226415 0.344834 0.251463
O O2 0.253692 0.354633 0.376943
O O3 0.236754 0.443820 0.300269
O O4 0.000000 0.381291 0.318279
O O5 0.500000 0.190913 0.184011
O O6 0.750000 0.250000 0.189892
O O7 0.746378 0.156298 0.125732
O O8 0.000000 0.885697 0.919813
O O9 0.249674 0.944969 0.915129
O O10 0.219484 0.867001 0.000000
O O11 0.772359 0.500000 0.191628
O O12 0.000000 0.500000 0.111382
O O13 0.273388 0.320545 0.500000
O O14 0.500000 0.307308 0.578232
O O15 0.250000 0.250000 0.592036
O O16 0.500000 0.000000 0.268113
#
# Coordination Sequence:
#
# PCOD9490863 Si02
#       6
#    16  16  16   8  16   8
#     4  10  20  37  61  87 116 149 189 236 282 336
#     4  11  23  39  60  85 114 150 192 240 293 350
#     4  11  24  40  58  84 117 151 192 241 290 346
#     4  11  20  38  63  87 115 149 191 239 290 344
#     4  10  21  37  58  86 119 154 193 235 280 333
#     4   9  18  36  59  86 116 146 185 233 280 333
#
# _framework density 18.071289
#
# number of rings (size 3 to 8) (size 9 to 14) (size 15 to 20)
#    0.000    1.600    2.000    3.000    0.000    7.600 
#    0.000    1.000    0.000    3.000    0.000    0.000 
#    0.000    0.000    0.000    0.000    0.000    0.000 
#
# Total GULP energy -223533.744204 kJ/mol
# GULP energy per Si atom -5588.343605 kJ/mol
# Density = 1.803016 g / cm^3
# Si number density = 18.071289 Si / 1000 Ang^3
#
#
#
# Elastic Constant Matrix: (Units=GPa)
#
#
# Indices 1 2 3 4 5 6 
#
# 1 39.4652 40.4292 39.3396 0.0000 0.0000 0.0000
# 2 40.4292 154.5810 76.7841 0.0000 0.0000 0.0000
# 3 39.3396 76.7841 115.3763 0.0000 0.0000 0.0000
# 4 0.0000 0.0000 0.0000 43.4212 0.0000 0.0000
# 5 0.0000 0.0000 0.0000 0.0000 32.1724 0.0000
# 6 0.0000 0.0000 0.0000 0.0000 0.0000 29.7351
#
#
#
# Elastic Compliance Matrix: (Units=1/GPa)
#
#
# Indices 1 2 3 4 5 6 
#
# 1 0.041511 -0.005716 -0.010350 0.000000 0.000000 0.000000
# 2 -0.005716 0.010451 -0.005006 0.000000 0.000000 0.000000
# 3 -0.010350 -0.005006 0.015528 0.000000 0.000000 0.000000
# 4 0.000000 0.000000 0.000000 0.023030 0.000000 0.000000
# 5 0.000000 0.000000 0.000000 0.000000 0.031083 0.000000
# 6 0.000000 0.000000 0.000000 0.000000 0.000000 0.033630
#
#
# Mechanical properties :
#
#
# Convention : Reuss Voigt Hill
#
# Bulk Modulus (GPa) = 39.45400 69.16980 54.31190
# Shear Modulus (GPa) = 24.29237 31.25703 27.77470
#
# Velocity S-wave (km/s) = 3.67038 4.16342 3.92465
# Velocity P-wave (km/s) = 6.31206 7.84036 7.11735
#
# Compressibility (1/GPa) = 0.02534597
#
# Stress axis : x y z
#
# Youngs Moduli (GPa) = 24.08976 95.68763 64.39982
#
# Poissons Ratio (x) = 0.54693 0.66655
# Poissons Ratio (y) = 0.13769 0.32239
# Poissons Ratio (z) = 0.24933 0.47903
#
# Static dielectric constant tensor:
#      x y z
#    x 1.608580 0.000000 0.000000 
#    y 0.000000 1.590720 0.000000 
#    z 0.000000 0.000000 1.603240 
# 
# From -- ./inp_files/59684.got.cif
#   From: 2010.05.17/outbox.cif.g08.bks.cpg/sg65_30_cif.got.tgz:59684.got - 2010.06.03 17:01:31.
