data_PCOD9490575
_publ_section_title
;
Structure prediction by ZEFSAII (Michael W. Deem and Ramdas Pophale) SiO2 
 PCOD9490575
Probable space group: C M M M
;
_chemical_formula_sum "Si O2"
_cell_formula_units_Z 64
_cell_length_a 8.489702
_cell_length_b 15.734228
_cell_length_c 24.464255
_cell_angle_alpha 90.000000
_cell_angle_beta 90.000000
_cell_angle_gamma 90.000000
_cell_volume 3267.908442
_symmetry_space_group_name_H-M "C M M M"
_symmetry_group_IT_number 65
_symmetry_cell_setting 'orthorhombic'
loop_
_space_group_symop_operation_xyz
x,y,z
-x,-y,z
x,-y,-z
-x,y,-z
-x,-y,-z
x,y,-z
-x,y,z
x,-y,z
1/2+x,1/2+y,z
1/2-x,1/2-y,z
1/2+x,1/2-y,-z
1/2-x,1/2+y,-z
1/2-x,1/2-y,-z
1/2+x,1/2+y,-z
1/2-x,1/2+y,z
1/2+x,1/2-y,z
loop_
_atom_site_type_symbol
_atom_site_label
_atom_site_fract_x
_atom_site_fract_y
_atom_site_fract_z
Si Si1 0.689635 0.095919 0.380994
Si Si2 0.188231 0.500000 0.922323
Si Si3 0.191678 0.000000 0.200779
Si Si4 0.812837 0.162328 0.729350
Si Si5 0.690478 0.845420 0.500000
Si Si6 0.189451 0.149884 0.000000
O O1 0.500000 0.102754 0.380751
O O2 0.756166 0.153333 0.333104
O O3 0.743934 0.114316 0.442761
O O4 0.735044 0.000000 0.366910
O O5 0.236906 0.500000 0.859262
O O6 0.254335 0.412556 0.950135
O O7 0.000000 0.500000 0.929404
O O8 0.241941 0.917526 0.235154
O O9 0.000000 0.000000 0.196953
O O10 0.750000 0.250000 0.752875
O O11 0.000000 0.162639 0.729248
O O12 0.500000 0.849466 0.500000
O O13 0.750000 0.750000 0.500000
O O14 0.250000 0.250000 0.000000
O O15 0.000000 0.154101 0.000000
#
# Coordination Sequence:
#
# PCOD9490575 Si02
#       6
#    16   8   8  16   8   8
#     4  10  20  36  58  81 109 146 191 242 300 366
#     4  11  23  40  65  98 133 171 215 260 310 367
#     4  10  23  43  62  85 124 166 206 256 307 358
#     4  11  23  40  61  86 117 155 200 251 305 364
#     4  10  21  35  51  77 109 144 185 237 297 363
#     4  11  22  41  68  98 136 177 216 259 308 360
#
# _framework density 19.584391
#
# number of rings (size 3 to 8) (size 9 to 14) (size 15 to 20)
#    0.000    1.500    1.250    4.875    0.000    7.500 
#    0.000    2.500    0.000    2.250    0.000    0.000 
#    0.000    0.000    0.000    0.000    0.000    0.000 
#
# Total GULP energy -178615.556171 kJ/mol
# GULP energy per Si atom -5581.736130 kJ/mol
# Density = 1.953982 g / cm^3
# Si number density = 19.584391 Si / 1000 Ang^3
#
#
#
# Elastic Constant Matrix: (Units=GPa)
#
#
# Indices 1 2 3 4 5 6 
#
# 1 55.1058 47.3217 28.0461 0.0000 0.0000 0.0000
# 2 47.3217 188.8892 73.1672 0.0000 0.0000 0.0000
# 3 28.0461 73.1672 139.1264 0.0000 0.0000 0.0000
# 4 0.0000 0.0000 0.0000 10.4305 0.0000 0.0000
# 5 0.0000 0.0000 0.0000 0.0000 27.3113 0.0000
# 6 0.0000 0.0000 0.0000 0.0000 0.0000 33.5148
#
#
#
# Elastic Compliance Matrix: (Units=1/GPa)
#
#
# Indices 1 2 3 4 5 6 
#
# 1 0.023586 -0.005108 -0.002068 0.000000 0.000000 0.000000
# 2 -0.005108 0.007755 -0.003049 0.000000 0.000000 0.000000
# 3 -0.002068 -0.003049 0.009208 0.000000 0.000000 0.000000
# 4 0.000000 0.000000 0.000000 0.095873 0.000000 0.000000
# 5 0.000000 0.000000 0.000000 0.000000 0.036615 0.000000
# 6 0.000000 0.000000 0.000000 0.000000 0.000000 0.029838
#
#
# Mechanical properties :
#
#
# Convention : Reuss Voigt Hill
#
# Bulk Modulus (GPa) = 49.75362 75.57683 62.66522
# Shear Modulus (GPa) = 21.73698 29.89041 25.81369
#
# Velocity S-wave (km/s) = 3.33515 3.91095 3.63447
# Velocity P-wave (km/s) = 6.34751 7.68558 7.04837
#
# Compressibility (1/GPa) = 0.02009904
#
# Stress axis : x y z
#
# Youngs Moduli (GPa) = 42.39837 128.95620 108.60221
#
# Poissons Ratio (x) = 0.65866 0.22464
# Poissons Ratio (y) = 0.21656 0.33108
# Poissons Ratio (z) = 0.08770 0.39313
#
# Static dielectric constant tensor:
#      x y z
#    x 1.670130 0.000000 0.000000 
#    y 0.000000 1.695720 0.000000 
#    z 0.000000 0.000000 1.701070 
# 
# From -- ./inp_files/66896.got.cif
#   From: 2010.05.17/outbox.cif.g08.bks.cpg/sg65_34_cif.got.tgz:66896.got - 2010.06.03 17:01:31.
