data_PCOD9490579
_publ_section_title
;
Structure prediction by ZEFSAII (Michael W. Deem and Ramdas Pophale) SiO2 
 PCOD9490579
Probable space group: C M M M
;
_chemical_formula_sum "Si O2"
_cell_formula_units_Z 96
_cell_length_a 8.627383
_cell_length_b 30.674599
_cell_length_c 19.558522
_cell_angle_alpha 90.000000
_cell_angle_beta 90.000000
_cell_angle_gamma 90.000000
_cell_volume 5175.996873
_symmetry_space_group_name_H-M "C M M M"
_symmetry_group_IT_number 65
_symmetry_cell_setting 'orthorhombic'
loop_
_space_group_symop_operation_xyz
x,y,z
-x,-y,z
x,-y,-z
-x,y,-z
-x,-y,-z
x,y,-z
-x,y,z
x,-y,z
1/2+x,1/2+y,z
1/2-x,1/2-y,z
1/2+x,1/2-y,-z
1/2-x,1/2+y,-z
1/2-x,1/2-y,-z
1/2+x,1/2+y,-z
1/2-x,1/2+y,z
1/2+x,1/2-y,z
loop_
_atom_site_type_symbol
_atom_site_label
_atom_site_fract_x
_atom_site_fract_y
_atom_site_fract_z
Si Si1 0.312545 0.377272 0.921321
Si Si2 0.686601 0.298371 0.312913
Si Si3 0.685423 0.949749 0.662846
Si Si4 0.686897 0.550296 0.187937
Si Si5 0.684855 0.798273 0.163665
Si Si6 0.687084 0.371078 0.577900
O O1 0.500000 0.374169 0.918347
O O2 0.264899 0.416931 0.871792
O O3 0.241819 0.333089 0.891352
O O4 0.268199 0.384440 0.000000
O O5 0.500000 0.297074 0.309778
O O6 0.750000 0.250000 0.327219
O O7 0.749916 0.311423 0.238336
O O8 0.735927 0.332470 0.370882
O O9 0.500000 0.948075 0.661387
O O10 0.743562 0.937273 0.738657
O O11 0.753132 0.916448 0.608206
O O12 0.734482 0.000000 0.650925
O O13 0.500000 0.552051 0.193395
O O14 0.730784 0.500000 0.173762
O O15 0.500000 0.796532 0.166546
O O16 0.750000 0.750000 0.149279
O O17 0.739200 0.364219 0.500000
O O18 0.500000 0.371751 0.578359
#
# Coordination Sequence:
#
# PCOD9490579 Si02
#       6
#    16  16  16  16  16  16
#     4  10  21  36  54  79 112 145 176 216 266 316
#     4  10  20  36  58  82 108 138 176 220 264 313
#     4  10  21  36  55  80 108 139 178 224 270 314
#     4   9  18  34  57  82 107 140 181 220 260 311
#     4  11  22  37  58  81 106 138 179 223 266 315
#     4  10  22  38  55  78 109 144 179 216 262 317
#
# _framework density 18.547150999999999
#
# number of rings (size 3 to 8) (size 9 to 14) (size 15 to 20)
#    0.000    2.000    0.000    4.500    0.000    9.000 
#    0.000    3.333    0.000    0.000    0.000    3.500 
#    0.000    0.000    0.000    0.000    0.000    0.000 
#
# Total GULP energy -268141.377806 kJ/mol
# GULP energy per Si atom -5586.278704 kJ/mol
# Density = 1.850494 g / cm^3
# Si number density = 18.547151 Si / 1000 Ang^3
#
#
#
# Elastic Constant Matrix: (Units=GPa)
#
#
# Indices 1 2 3 4 5 6 
#
# 1 25.6199 4.8092 5.7918 0.0000 0.0000 0.0000
# 2 4.8092 32.8250 11.9430 0.0000 0.0000 0.0000
# 3 5.7918 11.9430 42.7206 0.0000 0.0000 0.0000
# 4 0.0000 0.0000 0.0000 -11.3103 0.0000 0.0000
# 5 0.0000 0.0000 0.0000 0.0000 11.4839 0.0000
# 6 0.0000 0.0000 0.0000 0.0000 0.0000 26.4609
#
#
#
# Elastic Compliance Matrix: (Units=1/GPa)
#
#
# Indices 1 2 3 4 5 6 
#
# 1 0.040834 -0.004418 -0.004301 0.000000 0.000000 0.000000
# 2 -0.004418 0.034392 -0.009016 0.000000 0.000000 0.000000
# 3 -0.004301 -0.009016 0.026511 0.000000 0.000000 0.000000
# 4 0.000000 0.000000 0.000000 -0.088415 0.000000 0.000000
# 5 0.000000 0.000000 0.000000 0.000000 0.087079 0.000000
# 6 0.000000 0.000000 0.000000 0.000000 0.000000 0.037792
#
#
# Mechanical properties :
#
#
# Convention : Reuss Voigt Hill
#
# Bulk Modulus (GPa) = 15.09015 16.25041 15.67028
# Shear Modulus (GPa) = 25.54268 10.56833 18.05550
#
# Velocity S-wave (km/s) = 3.71506 2.38966 3.12347
# Velocity P-wave (km/s) = 5.15325 4.04903 4.63415
#
# Compressibility (1/GPa) = 0.06626837
#
# Stress axis : x y z
#
# Youngs Moduli (GPa) = 24.48953 29.07644 37.71956
#
# Poissons Ratio (x) = 0.12845 0.16223
# Poissons Ratio (y) = 0.10819 0.34007
# Poissons Ratio (z) = 0.10533 0.26215
#
# Static dielectric constant tensor:
#      x y z
#    x 1.627590 0.000000 0.000000 
#    y 0.000000 1.630020 0.000000 
#    z 0.000000 0.000000 1.618340 
# 
# From -- ./inp_files/60212.got.cif
#   From: 2010.05.17/outbox.cif.g08.bks.cpg/sg65_31_cif.got.tgz:60212.got - 2010.06.03 17:01:31.
