data_PCOD9490674
_publ_section_title
;
Structure prediction by ZEFSAII (Michael W. Deem and Ramdas Pophale) SiO2 
 PCOD9490674
Probable space group: C M M M
;
_chemical_formula_sum "Si O2"
_cell_formula_units_Z 64
_cell_length_a 15.127119
_cell_length_b 8.478281
_cell_length_c 26.682685
_cell_angle_alpha 90.000000
_cell_angle_beta 90.000000
_cell_angle_gamma 90.000000
_cell_volume 3422.106799
_symmetry_space_group_name_H-M "C M M M"
_symmetry_group_IT_number 65
_symmetry_cell_setting 'orthorhombic'
loop_
_space_group_symop_operation_xyz
x,y,z
-x,-y,z
x,-y,-z
-x,y,-z
-x,-y,-z
x,y,-z
-x,y,z
x,-y,z
1/2+x,1/2+y,z
1/2-x,1/2-y,z
1/2+x,1/2-y,-z
1/2-x,1/2+y,-z
1/2-x,1/2-y,-z
1/2+x,1/2+y,-z
1/2-x,1/2+y,z
1/2+x,1/2-y,z
loop_
_atom_site_type_symbol
_atom_site_label
_atom_site_fract_x
_atom_site_fract_y
_atom_site_fract_z
Si Si1 0.843742 0.689603 0.610082
Si Si2 0.000000 0.312937 0.208929
Si Si3 0.851025 0.189278 0.135550
Si Si4 0.602917 0.808870 0.500000
Si Si5 0.500000 0.307912 0.057257
Si Si6 0.500000 0.686752 0.320973
O O1 0.849685 0.500000 0.610447
O O2 0.750000 0.750000 0.627986
O O3 0.856462 0.745780 0.552408
O O4 0.917289 0.759706 0.645900
O O5 0.912012 0.244647 0.182069
O O6 0.000000 0.268618 0.267079
O O7 0.000000 0.500000 0.202296
O O8 0.750000 0.250000 0.135510
O O9 0.911691 0.240114 0.087790
O O10 0.847730 0.000000 0.135882
O O11 0.500000 0.766051 0.500000
O O12 0.608412 0.000000 0.500000
O O13 0.500000 0.500000 0.057051
O O14 0.500000 0.253023 0.000000
O O15 0.500000 0.500000 0.313781
#
# Coordination Sequence:
#
# PCOD9490674 Si02
#       6
#    16   8  16   8   8   8
#     4  11  22  39  61  87 118 152 190 232 283 339
#     4  11  23  41  63  85 111 147 191 242 297 348
#     4  10  20  36  59  87 119 156 198 242 288 341
#     4   9  17  34  60  85 114 152 188 229 278 335
#     4   8  16  32  54  83 122 163 200 240 285 333
#     4  12  25  42  61  86 116 148 189 237 291 347
#
# _framework density 18.701929
#
# number of rings (size 3 to 8) (size 9 to 14) (size 15 to 20)
#    0.000    1.750    1.250    4.875    0.000    1.500 
#    0.000    7.500    0.000   12.750    0.000    0.000 
#    0.000    0.000    0.000    0.000    0.000    0.000 
#
# Total GULP energy -178655.046989 kJ/mol
# GULP energy per Si atom -5582.970218 kJ/mol
# Density = 1.865936 g / cm^3
# Si number density = 18.701929 Si / 1000 Ang^3
#
#
#
# Elastic Constant Matrix: (Units=GPa)
#
#
# Indices 1 2 3 4 5 6 
#
# 1 198.0177 33.7249 79.5906 0.0000 0.0000 0.0000
# 2 33.7249 64.0440 19.1363 0.0000 0.0000 0.0000
# 3 79.5906 19.1363 137.1761 0.0000 0.0000 0.0000
# 4 0.0000 0.0000 0.0000 20.6784 0.0000 0.0000
# 5 0.0000 0.0000 0.0000 0.0000 23.3202 0.0000
# 6 0.0000 0.0000 0.0000 0.0000 0.0000 29.8416
#
#
#
# Elastic Compliance Matrix: (Units=1/GPa)
#
#
# Indices 1 2 3 4 5 6 
#
# 1 0.006969 -0.002569 -0.003685 0.000000 0.000000 0.000000
# 2 -0.002569 0.017240 -0.000915 0.000000 0.000000 0.000000
# 3 -0.003685 -0.000915 0.009556 0.000000 0.000000 0.000000
# 4 0.000000 0.000000 0.000000 0.048360 0.000000 0.000000
# 5 0.000000 0.000000 0.000000 0.000000 0.042881 0.000000
# 6 0.000000 0.000000 0.000000 0.000000 0.000000 0.033510
#
#
# Mechanical properties :
#
#
# Convention : Reuss Voigt Hill
#
# Bulk Modulus (GPa) = 51.47244 73.79349 62.63296
# Shear Modulus (GPa) = 27.88189 32.55378 30.21784
#
# Velocity S-wave (km/s) = 3.86535 4.17665 4.02401
# Velocity P-wave (km/s) = 6.89228 7.92481 7.42651
#
# Compressibility (1/GPa) = 0.01942787
#
# Stress axis : x y z
#
# Youngs Moduli (GPa) = 143.50048 58.00414 104.65144
#
# Poissons Ratio (x) = 0.14899 0.38563
# Poissons Ratio (y) = 0.36859 0.09573
# Poissons Ratio (z) = 0.52879 0.05306
#
# Static dielectric constant tensor:
#      x y z
#    x 1.615270 0.000000 0.000000 
#    y 0.000000 1.634390 0.000000 
#    z 0.000000 0.000000 1.643450 
# 
# From -- ./inp_files/69603.got.cif
#   From: 2010.05.17/outbox.cif.g08.bks.cpg/sg65_35_cif.got.tgz:69603.got - 2010.06.03 17:01:31.
