data_PCOD9490783
_publ_section_title
;
Structure prediction by ZEFSAII (Michael W. Deem and Ramdas Pophale) SiO2 
 PCOD9490783
Probable space group: C M M M
;
_chemical_formula_sum "Si O2"
_cell_formula_units_Z 96
_cell_length_a 25.194608
_cell_length_b 23.005142
_cell_length_c 7.715641
_cell_angle_alpha 90.000000
_cell_angle_beta 90.000000
_cell_angle_gamma 90.000000
_cell_volume 4472.028227
_symmetry_space_group_name_H-M "C M M M"
_symmetry_group_IT_number 65
_symmetry_cell_setting 'orthorhombic'
loop_
_space_group_symop_operation_xyz
x,y,z
-x,-y,z
x,-y,-z
-x,y,-z
-x,-y,-z
x,y,-z
-x,y,z
x,-y,z
1/2+x,1/2+y,z
1/2-x,1/2-y,z
1/2+x,1/2-y,-z
1/2-x,1/2+y,-z
1/2-x,1/2-y,-z
1/2+x,1/2+y,-z
1/2-x,1/2+y,z
1/2+x,1/2-y,z
loop_
_atom_site_type_symbol
_atom_site_label
_atom_site_fract_x
_atom_site_fract_y
_atom_site_fract_z
Si Si1 0.693891 0.907396 0.197761
Si Si2 0.079095 0.562370 0.298339
Si Si3 0.806397 0.276844 0.294431
Si Si4 0.500000 0.705024 0.795382
Si Si5 0.615212 0.327183 0.790290
Si Si6 0.500000 0.840391 0.710363
Si Si7 0.812625 0.934561 0.211804
O O1 0.642278 0.932364 0.288583
O O2 0.687142 0.838106 0.202948
O O3 0.752060 0.922451 0.269782
O O4 0.692550 0.928276 0.000000
O O5 0.063852 0.560585 0.500000
O O6 0.063494 0.500000 0.219768
O O7 0.050108 0.620158 0.231066
O O8 0.804719 0.288368 0.500000
O O9 0.750000 0.250000 0.240760
O O10 0.851904 0.230290 0.257977
O O11 0.444910 0.679338 0.724360
O O12 0.500000 0.774882 0.776817
O O13 0.500000 0.691918 0.000000
O O14 0.647803 0.383771 0.729003
O O15 0.613829 0.329811 0.000000
O O16 0.500000 0.834732 0.500000
O O17 0.828147 0.000000 0.261613
O O18 0.811822 0.932089 0.000000
#
# Coordination Sequence:
#
# PCOD9490783 Si02
#       7
#    16  16  16   8  16   8  16
#     4  11  21  34  55  82 113 147 186 225 273 331
#     4  10  21  37  56  79 110 148 189 231 274 323
#     4  11  22  35  54  82 114 143 182 230 277 329
#     4  10  22  37  56  83 110 140 181 234 281 326
#     4  10  20  37  58  81 112 146 183 224 276 330
#     4  10  21  38  58  77 103 145 191 228 273 332
#     4   9  18  33  54  79 108 143 180 218 265 326
#
# _framework density 21.466768999999999
#
# number of rings (size 3 to 8) (size 9 to 14) (size 15 to 20)
#    0.000    1.833    1.667    2.750    0.000    6.667 
#    0.000    0.417    0.000    5.500    0.000    0.000 
#    0.000    2.000    0.000    0.000    0.000    0.000 
#
# Total GULP energy -268213.479194 kJ/mol
# GULP energy per Si atom -5587.780817 kJ/mol
# Density = 2.141791 g / cm^3
# Si number density = 21.466769 Si / 1000 Ang^3
#
#
#
# Elastic Constant Matrix: (Units=GPa)
#
#
# Indices 1 2 3 4 5 6 
#
# 1 164.8925 55.4234 4.6329 0.0000 0.0000 0.0000
# 2 55.4234 130.6804 -2.5121 0.0000 0.0000 0.0000
# 3 4.6329 -2.5121 35.8908 0.0000 0.0000 0.0000
# 4 0.0000 0.0000 0.0000 -3.9622 0.0000 0.0000
# 5 0.0000 0.0000 0.0000 0.0000 9.0714 0.0000
# 6 0.0000 0.0000 0.0000 0.0000 0.0000 -6.8882
#
#
#
# Elastic Compliance Matrix: (Units=1/GPa)
#
#
# Indices 1 2 3 4 5 6 
#
# 1 0.007118 -0.003041 -0.001132 0.000000 0.000000 0.000000
# 2 -0.003041 0.008961 0.001020 0.000000 0.000000 0.000000
# 3 -0.001132 0.001020 0.028080 0.000000 0.000000 0.000000
# 4 0.000000 0.000000 0.000000 -0.252386 0.000000 0.000000
# 5 0.000000 0.000000 0.000000 0.000000 0.110237 0.000000
# 6 0.000000 0.000000 0.000000 0.000000 0.000000 -0.145176
#
#
# Mechanical properties :
#
#
# Convention : Reuss Voigt Hill
#
# Bulk Modulus (GPa) = 26.41713 49.61690 38.01702
# Shear Modulus (GPa) = -22.29728 17.90550 -2.19589
#
# Velocity S-wave (km/s) = -3.22636 2.89122 -1.01249
# Velocity P-wave (km/s) = 1.24357 5.85739 4.04738
#
# Compressibility (1/GPa) = 0.03785422
#
# Stress axis : x y z
#
# Youngs Moduli (GPa) = 140.48072 111.58852 35.61282
#
# Poissons Ratio (x) = 0.33932 0.04030
# Poissons Ratio (y) = 0.42717 -0.03632
# Poissons Ratio (z) = 0.15898 -0.11379
#
# Static dielectric constant tensor:
#      x y z
#    x 1.780710 0.000000 0.000000 
#    y 0.000000 1.778210 0.000000 
#    z 0.000000 0.000000 1.802780 
# 
# From -- ./inp_files/14349.got.cif
#   From: 2010.05.17/outbox.cif.g08.bks.cpg/sg65_8_cif.got.tgz:14349.got - 2010.06.03 17:01:31.
