data_PCOD9490613
_publ_section_title
;
Structure prediction by ZEFSAII (Michael W. Deem and Ramdas Pophale) SiO2 
 PCOD9490613
Probable space group: C M M M
;
_chemical_formula_sum "Si O2"
_cell_formula_units_Z 88
_cell_length_a 8.397168
_cell_length_b 31.894180
_cell_length_c 17.736093
_cell_angle_alpha 90.000000
_cell_angle_beta 90.000000
_cell_angle_gamma 90.000000
_cell_volume 4750.094398
_symmetry_space_group_name_H-M "C M M M"
_symmetry_group_IT_number 65
_symmetry_cell_setting 'orthorhombic'
loop_
_space_group_symop_operation_xyz
x,y,z
-x,-y,z
x,-y,-z
-x,y,-z
-x,-y,-z
x,y,-z
-x,y,z
x,-y,z
1/2+x,1/2+y,z
1/2-x,1/2-y,z
1/2+x,1/2-y,-z
1/2-x,1/2+y,-z
1/2-x,1/2-y,-z
1/2+x,1/2+y,-z
1/2-x,1/2+y,z
1/2+x,1/2-y,z
loop_
_atom_site_type_symbol
_atom_site_label
_atom_site_fract_x
_atom_site_fract_y
_atom_site_fract_z
Si Si1 0.809628 0.885210 0.705258
Si Si2 0.187850 0.205714 0.752143
Si Si3 0.500000 0.450536 0.917382
Si Si4 0.177383 0.411695 0.138399
Si Si5 0.691570 0.952480 0.410750
Si Si6 0.314605 0.182798 0.916740
O O1 0.766976 0.835669 0.704165
O O2 0.701943 0.901945 0.773666
O O3 0.773403 0.914999 0.634824
O O4 0.000000 0.887822 0.723203
O O5 0.250000 0.250000 0.723388
O O6 0.238683 0.199931 0.839902
O O7 0.000000 0.207537 0.751837
O O8 0.500000 0.500000 0.922039
O O9 0.666996 0.437864 0.881259
O O10 0.500000 0.430597 0.000000
O O11 0.189507 0.367582 0.093966
O O12 0.000000 0.429298 0.124135
O O13 0.724878 0.949322 0.500000
O O14 0.500000 0.949531 0.401192
O O15 0.739112 0.000000 0.386150
O O16 0.500000 0.195515 0.915890
O O17 0.247905 0.193768 0.000000
#
# Coordination Sequence:
#
# PCOD9490613 Si02
#       6
#    16  16   8  16  16  16
#     4  10  20  36  58  85 114 148 190 233 283 341
#     4  10  21  35  52  76 107 144 186 234 284 337
#     4  11  24  38  52  74 105 141 187 245 298 344
#     4  10  20  37  57  77 104 143 191 239 289 347
#     4   9  19  36  58  87 121 153 185 223 274 339
#     4   9  18  32  52  76 100 134 181 231 286 346
#
# _framework density 18.525946999999999
#
# number of rings (size 3 to 8) (size 9 to 14) (size 15 to 20)
#    0.000    2.273    0.909    2.182    1.273    5.818 
#    0.000    1.818    0.000    0.545    0.000    0.000 
#    0.000    0.000    0.000    0.000    0.000    0.000 
#
# Total GULP energy -245162.329197 kJ/mol
# GULP energy per Si atom -5571.871118 kJ/mol
# Density = 1.848378 g / cm^3
# Si number density = 18.525947 Si / 1000 Ang^3
#
#
#
# Elastic Constant Matrix: (Units=GPa)
#
#
# Indices 1 2 3 4 5 6 
#
# 1 91.9368 53.8596 19.5487 0.0000 0.0000 0.0000
# 2 53.8596 117.5646 50.9614 0.0000 0.0000 0.0000
# 3 19.5487 50.9614 58.7496 0.0000 0.0000 0.0000
# 4 0.0000 0.0000 0.0000 23.5600 0.0000 0.0000
# 5 0.0000 0.0000 0.0000 0.0000 24.9438 0.0000
# 6 0.0000 0.0000 0.0000 0.0000 0.0000 18.4869
#
#
#
# Elastic Compliance Matrix: (Units=1/GPa)
#
#
# Indices 1 2 3 4 5 6 
#
# 1 0.014955 -0.007523 0.001549 0.000000 0.000000 0.000000
# 2 -0.007523 0.017416 -0.012604 0.000000 0.000000 0.000000
# 3 0.001549 -0.012604 0.027439 0.000000 0.000000 0.000000
# 4 0.000000 0.000000 0.000000 0.042445 0.000000 0.000000
# 5 0.000000 0.000000 0.000000 0.000000 0.040090 0.000000
# 6 0.000000 0.000000 0.000000 0.000000 0.000000 0.054092
#
#
# Mechanical properties :
#
#
# Convention : Reuss Voigt Hill
#
# Bulk Modulus (GPa) = 44.14071 57.44339 50.79205
# Shear Modulus (GPa) = 20.73460 22.99023 21.86241
#
# Velocity S-wave (km/s) = 3.34910 3.52657 3.43898
# Velocity P-wave (km/s) = 6.23165 6.90337 6.57609
#
# Compressibility (1/GPa) = 0.02265482
#
# Stress axis : x y z
#
# Youngs Moduli (GPa) = 66.86878 57.41898 36.44458
#
# Poissons Ratio (x) = 0.43195 -0.05647
# Poissons Ratio (y) = 0.50304 0.45934
# Poissons Ratio (z) = -0.10361 0.72370
#
# Static dielectric constant tensor:
#      x y z
#    x 0.588960 0.000000 0.000000 
#    y 0.000000 1.670360 0.000000 
#    z 0.000000 0.000000 1.648570 
# 
# From -- ./inp_files/50311.got.cif
#   From: 2010.05.17/outbox.cif.g08.bks.cpg/sg65_26_cif.got.tgz:50311.got - 2010.06.03 17:01:31.
