data_PCOD9490082
_publ_section_title
;
Structure prediction by ZEFSAII (Michael W. Deem and Ramdas Pophale) SiO2 
 PCOD9490082
Probable space group: C M M M
;
_chemical_formula_sum "Si O2"
_cell_formula_units_Z 64
_cell_length_a 15.932549
_cell_length_b 8.447269
_cell_length_c 24.535874
_cell_angle_alpha 90.000000
_cell_angle_beta 90.000000
_cell_angle_gamma 90.000000
_cell_volume 3302.198075
_symmetry_space_group_name_H-M "C M M M"
_symmetry_group_IT_number 65
_symmetry_cell_setting 'orthorhombic'
loop_
_space_group_symop_operation_xyz
x,y,z
-x,-y,z
x,-y,-z
-x,y,-z
-x,-y,-z
x,y,-z
-x,y,z
x,-y,z
1/2+x,1/2+y,z
1/2-x,1/2-y,z
1/2+x,1/2-y,-z
1/2-x,1/2+y,-z
1/2-x,1/2-y,-z
1/2+x,1/2+y,-z
1/2-x,1/2+y,z
1/2+x,1/2-y,z
loop_
_atom_site_type_symbol
_atom_site_label
_atom_site_fract_x
_atom_site_fract_y
_atom_site_fract_z
Si Si1 0.500000 0.808389 0.245935
Si Si2 0.658292 0.810325 0.436850
Si Si3 0.099117 0.692284 0.940401
Si Si4 0.160592 0.691203 0.824262
Si Si5 0.000000 0.812005 0.369085
O O1 0.582824 0.757106 0.212973
O O2 0.500000 0.748403 0.307266
O O3 0.500000 0.000000 0.246519
O O4 0.646140 0.758997 0.500000
O O5 0.750000 0.750000 0.419198
O O6 0.582688 0.748666 0.400235
O O7 0.658136 0.000000 0.435611
O O8 0.104155 0.500000 0.940657
O O9 0.145793 0.749054 0.886425
O O10 0.000000 0.730046 0.935396
O O11 0.128775 0.748767 0.000000
O O12 0.160145 0.500000 0.825169
O O13 0.250000 0.750000 0.803918
O O14 0.000000 0.000000 0.369664
#
# Coordination Sequence:
#
# PCOD9490082 Si02
#       5
#     8  16  16  16   8
#     4  10  22  41  58  74 106 149 195 240 283 336
#     4  10  21  39  64  94 127 160 194 235 285 340
#     4   8  13  25  49  78 105 135 175 220 268 333
#     4  10  20  35  56  80 105 140 183 229 283 339
#     4  12  25  39  60  88 119 157 201 244 291 344
#
# _framework density 19.381029000000002
#
# number of rings (size 3 to 8) (size 9 to 14) (size 15 to 20)
#    0.000    2.250    1.250    3.000    0.000    5.500 
#    0.000    2.500    0.000    0.000    0.000    1.750 
#    0.000    0.000    0.000    0.000    0.000    0.000 
#
# Total GULP energy -178657.477913 kJ/mol
# GULP energy per Si atom -5583.046185 kJ/mol
# Density = 1.933692 g / cm^3
# Si number density = 19.381029 Si / 1000 Ang^3
#
#
#
# Elastic Constant Matrix: (Units=GPa)
#
#
# Indices 1 2 3 4 5 6 
#
# 1 183.7156 32.3743 109.9821 0.0000 0.0000 0.0000
# 2 32.3743 24.6706 29.9128 0.0000 0.0000 0.0000
# 3 109.9821 29.9128 139.2139 0.0000 0.0000 0.0000
# 4 0.0000 0.0000 0.0000 13.6788 0.0000 0.0000
# 5 0.0000 0.0000 0.0000 0.0000 -7.1681 0.0000
# 6 0.0000 0.0000 0.0000 0.0000 0.0000 27.9525
#
#
#
# Elastic Compliance Matrix: (Units=1/GPa)
#
#
# Indices 1 2 3 4 5 6 
#
# 1 0.010795 -0.005173 -0.007417 0.000000 0.000000 0.000000
# 2 -0.005173 0.057294 -0.008224 0.000000 0.000000 0.000000
# 3 -0.007417 -0.008224 0.014809 0.000000 0.000000 0.000000
# 4 0.000000 0.000000 0.000000 0.073106 0.000000 0.000000
# 5 0.000000 0.000000 0.000000 0.000000 -0.139507 0.000000
# 6 0.000000 0.000000 0.000000 0.000000 0.000000 0.035775
#
#
# Mechanical properties :
#
#
# Convention : Reuss Voigt Hill
#
# Bulk Modulus (GPa) = 24.22998 76.90429 50.56714
# Shear Modulus (GPa) = 46.44419 18.58136 32.51278
#
# Velocity S-wave (km/s) = 4.90059 3.09971 4.10024
# Velocity P-wave (km/s) = 6.67458 7.25102 6.96876
#
# Compressibility (1/GPa) = 0.04127119
#
# Stress axis : x y z
#
# Youngs Moduli (GPa) = 92.63769 17.45385 67.52428
#
# Poissons Ratio (x) = 0.09029 0.50080
# Poissons Ratio (y) = 0.47922 0.55531
# Poissons Ratio (z) = 0.68705 0.14354
#
# Static dielectric constant tensor:
#      x y z
#    x 1.671110 0.000000 0.000000 
#    y 0.000000 1.658560 0.000000 
#    z 0.000000 0.000000 1.678380 
# 
# From -- ./inp_files/69510.got.cif
#   From: 2010.05.17/outbox.cif.g08.bks.cpg/sg65_35_cif.got.tgz:69510.got - 2010.06.03 17:01:31.
