data_PCOD9490618
_publ_section_title
;
Structure prediction by ZEFSAII (Michael W. Deem and Ramdas Pophale) SiO2 
 PCOD9490618
Probable space group: C M M M
;
_chemical_formula_sum "Si O2"
_cell_formula_units_Z 88
_cell_length_a 26.229860
_cell_length_b 15.590239
_cell_length_c 12.163569
_cell_angle_alpha 90.000000
_cell_angle_beta 90.000000
_cell_angle_gamma 90.000000
_cell_volume 4974.045672
_symmetry_space_group_name_H-M "C M M M"
_symmetry_group_IT_number 65
_symmetry_cell_setting 'orthorhombic'
loop_
_space_group_symop_operation_xyz
x,y,z
-x,-y,z
x,-y,-z
-x,y,-z
-x,-y,-z
x,y,-z
-x,y,z
x,-y,z
1/2+x,1/2+y,z
1/2-x,1/2-y,z
1/2+x,1/2-y,-z
1/2-x,1/2+y,-z
1/2-x,1/2-y,-z
1/2+x,1/2+y,-z
1/2-x,1/2+y,z
1/2+x,1/2-y,z
loop_
_atom_site_type_symbol
_atom_site_label
_atom_site_fract_x
_atom_site_fract_y
_atom_site_fract_z
Si Si1 0.061719 0.403940 0.000000
Si Si2 0.723035 0.658190 0.631889
Si Si3 0.556164 0.601433 0.500000
Si Si4 0.911985 0.500000 0.632903
Si Si5 0.059729 0.669627 0.765007
Si Si6 0.793824 0.500000 0.632463
Si Si7 0.438559 0.500000 0.132841
Si Si8 0.111369 0.150629 0.723030
O O1 0.075315 0.358862 0.112753
O O2 0.082112 0.500000 0.000000
O O3 0.000000 0.408563 0.000000
O O4 0.711154 0.649040 0.500000
O O5 0.750000 0.750000 0.645733
O O6 0.762816 0.584385 0.664377
O O7 0.671917 0.647699 0.702918
O O8 0.550875 0.500000 0.500000
O O9 0.500000 0.642178 0.500000
O O10 0.586137 0.624745 0.608261
O O11 0.917418 0.500000 0.500000
O O12 0.934480 0.412861 0.685322
O O13 0.852412 0.500000 0.666001
O O14 0.093566 0.751773 0.739027
O O15 0.000000 0.694566 0.764833
O O16 0.795155 0.500000 0.500000
O O17 0.500000 0.500000 0.158485
O O18 0.411518 0.583969 0.187087
O O19 0.433582 0.500000 0.000000
#
# Coordination Sequence:
#
# PCOD9490618 Si02
#       8
#     8  16   8   8  16   8   8  16
#     4   9  18  38  60  79 104 146 206 249 265 313
#     4  10  20  36  58  88 118 149 196 245 290 348
#     4  11  22  36  55  85 129 163 190 236 292 363
#     4  11  23  38  54  87 126 154 186 232 297 356
#     4  11  23  37  58  85 117 157 195 234 282 342
#     4   9  19  34  56  78 110 149 190 236 280 334
#     4  11  25  43  61  87 123 161 207 256 302 365
#     4  12  23  38  61  90 120 158 200 242 302 360
#
# _framework density 17.691835999999999
#
# number of rings (size 3 to 8) (size 9 to 14) (size 15 to 20)
#    0.000    1.364    2.727    3.545    2.545    2.182 
#    0.000    0.000    0.000    0.545   14.182    0.000 
#    0.000    0.000    0.000    0.000    0.000    0.000 
#
# Total GULP energy -245540.737113 kJ/mol
# GULP energy per Si atom -5580.471298 kJ/mol
# Density = 1.765157 g / cm^3
# Si number density = 17.691836 Si / 1000 Ang^3
#
#
#
# Elastic Constant Matrix: (Units=GPa)
#
#
# Indices 1 2 3 4 5 6 
#
# 1 87.8995 9.2298 16.5194 0.0000 0.0000 0.0000
# 2 9.2298 92.4480 28.5427 0.0000 0.0000 0.0000
# 3 16.5194 28.5427 97.3101 0.0000 0.0000 0.0000
# 4 0.0000 0.0000 0.0000 13.2734 0.0000 0.0000
# 5 0.0000 0.0000 0.0000 0.0000 -0.6000 0.0000
# 6 0.0000 0.0000 0.0000 0.0000 0.0000 29.3039
#
#
#
# Elastic Compliance Matrix: (Units=1/GPa)
#
#
# Indices 1 2 3 4 5 6 
#
# 1 0.011783 -0.000614 -0.001820 0.000000 0.000000 0.000000
# 2 -0.000614 0.011926 -0.003394 0.000000 0.000000 0.000000
# 3 -0.001820 -0.003394 0.011581 0.000000 0.000000 0.000000
# 4 0.000000 0.000000 0.000000 0.075339 0.000000 0.000000
# 5 0.000000 0.000000 0.000000 0.000000 -1.666760 0.000000
# 6 0.000000 0.000000 0.000000 0.000000 0.000000 0.034125
#
#
# Mechanical properties :
#
#
# Convention : Reuss Voigt Hill
#
# Bulk Modulus (GPa) = 42.31296 42.91569 42.61433
# Shear Modulus (GPa) = -3.32785 23.28651 9.97933
#
# Velocity S-wave (km/s) = -1.37299 3.63192 2.37758
# Velocity P-wave (km/s) = 4.63197 6.47285 5.62819
#
# Compressibility (1/GPa) = 0.02363342
#
# Stress axis : x y z
#
# Youngs Moduli (GPa) = 84.86650 83.85011 86.34939
#
# Poissons Ratio (x) = 0.05152 0.15716
# Poissons Ratio (y) = 0.05215 0.29305
# Poissons Ratio (z) = 0.15446 0.28457
#
# Static dielectric constant tensor:
#      x y z
#    x 1.610400 0.000000 0.000000 
#    y 0.000000 1.522980 0.000000 
#    z 0.000000 0.000000 1.589660 
# 
# From -- ./inp_files/32314.got.cif
#   From: 2010.05.17/outbox.cif.g08.bks.cpg/sg65_17_cif.got.tgz:32314.got - 2010.06.03 17:01:31.
