data_PCOD9490829
_publ_section_title
;
Structure prediction by ZEFSAII (Michael W. Deem and Ramdas Pophale) SiO2 
 PCOD9490829
Probable space group: C M M M
;
_chemical_formula_sum "Si O2"
_cell_formula_units_Z 128
_cell_length_a 24.253139
_cell_length_b 18.464045
_cell_length_c 15.842819
_cell_angle_alpha 90.000000
_cell_angle_beta 90.000000
_cell_angle_gamma 90.000000
_cell_volume 7094.589410
_symmetry_space_group_name_H-M "C M M M"
_symmetry_group_IT_number 65
_symmetry_cell_setting 'orthorhombic'
loop_
_space_group_symop_operation_xyz
x,y,z
-x,-y,z
x,-y,-z
-x,y,-z
-x,-y,-z
x,y,-z
-x,y,z
x,-y,z
1/2+x,1/2+y,z
1/2-x,1/2-y,z
1/2+x,1/2-y,-z
1/2-x,1/2+y,-z
1/2-x,1/2-y,-z
1/2+x,1/2+y,-z
1/2-x,1/2+y,z
1/2+x,1/2-y,z
loop_
_atom_site_type_symbol
_atom_site_label
_atom_site_fract_x
_atom_site_fract_y
_atom_site_fract_z
Si Si1 0.269848 0.329441 0.666072
Si Si2 0.232721 0.914212 0.832746
Si Si3 0.389256 0.669880 0.597156
Si Si4 0.305295 0.200739 0.097579
Si Si5 0.629608 0.338335 0.902102
Si Si6 0.561999 0.171376 0.602011
Si Si7 0.434011 0.416531 0.754646
Si Si8 0.333785 0.081873 0.398524
O O1 0.250000 0.250000 0.695221
O O2 0.286231 0.380682 0.743780
O O3 0.323388 0.321233 0.607868
O O4 0.218021 0.368208 0.623294
O O5 0.289520 0.871602 0.852867
O O6 0.185281 0.887262 0.896687
O O7 0.238091 0.000000 0.832018
O O8 0.401838 0.650226 0.500000
O O9 0.417980 0.746723 0.616822
O O10 0.410478 0.613987 0.666795
O O11 0.250000 0.250000 0.100823
O O12 0.352637 0.256652 0.124851
O O13 0.315187 0.182173 0.000000
O O14 0.588176 0.371241 0.834293
O O15 0.611388 0.337267 0.000000
O O16 0.560112 0.163272 0.500000
O O17 0.500000 0.159136 0.634125
O O18 0.609425 0.117369 0.633534
O O19 0.500000 0.413092 0.751697
O O20 0.416633 0.500000 0.765720
O O21 0.337364 0.078987 0.500000
O O22 0.325889 0.000000 0.366766
#
# Coordination Sequence:
#
# PCOD9490829 Si02
#       8
#    16  16  16  16  16  16  16  16
#     4  12  22  35  56  79 111 152 193 238 293 342
#     4  11  21  32  51  83 117 149 186 227 279 345
#     4  11  23  39  61  83 108 149 201 247 289 343
#     4   8  16  31  52  79 109 145 184 218 265 330
#     4  10  20  37  60  83 112 150 190 232 282 341
#     4   9  18  34  56  80 104 137 184 232 283 347
#     4  11  25  42  58  82 114 147 192 246 296 344
#     4  10  21  35  51  77 110 140 177 231 293 356
#
# _framework density 18.041917999999999
#
# number of rings (size 3 to 8) (size 9 to 14) (size 15 to 20)
#    0.000    1.750    2.500    3.750    0.000    4.250 
#    0.000    2.500    0.000    0.000    0.000    0.000 
#    0.000    0.500    0.000    2.750    0.000    0.000 
#
# Total GULP energy -357078.124680 kJ/mol
# GULP energy per Si atom -5579.345698 kJ/mol
# Density = 1.800085 g / cm^3
# Si number density = 18.041918 Si / 1000 Ang^3
#
#
#
# Elastic Constant Matrix: (Units=GPa)
#
#
# Indices 1 2 3 4 5 6 
#
# 1 83.3765 28.4068 13.7213 0.0000 0.0000 0.0000
# 2 28.4068 103.4998 25.3845 0.0000 0.0000 0.0000
# 3 13.7213 25.3845 63.5421 0.0000 0.0000 0.0000
# 4 0.0000 0.0000 0.0000 16.0151 0.0000 0.0000
# 5 0.0000 0.0000 0.0000 0.0000 11.1026 0.0000
# 6 0.0000 0.0000 0.0000 0.0000 0.0000 24.5540
#
#
#
# Elastic Compliance Matrix: (Units=1/GPa)
#
#
# Indices 1 2 3 4 5 6 
#
# 1 0.013372 -0.003284 -0.001576 0.000000 0.000000 0.000000
# 2 -0.003284 0.011518 -0.003892 0.000000 0.000000 0.000000
# 3 -0.001576 -0.003892 0.017633 0.000000 0.000000 0.000000
# 4 0.000000 0.000000 0.000000 0.062441 0.000000 0.000000
# 5 0.000000 0.000000 0.000000 0.000000 0.090069 0.000000
# 6 0.000000 0.000000 0.000000 0.000000 0.000000 0.040727
#
#
# Mechanical properties :
#
#
# Convention : Reuss Voigt Hill
#
# Bulk Modulus (GPa) = 39.96919 42.82706 41.39812
# Shear Modulus (GPa) = 19.11302 22.52805 20.82054
#
# Velocity S-wave (km/s) = 3.25832 3.53746 3.40076
# Velocity P-wave (km/s) = 6.02969 6.36191 6.19803
#
# Compressibility (1/GPa) = 0.02501927
#
# Stress axis : x y z
#
# Youngs Moduli (GPa) = 74.78399 86.82316 56.71271
#
# Poissons Ratio (x) = 0.28509 0.08937
# Poissons Ratio (y) = 0.24556 0.22073
# Poissons Ratio (z) = 0.11784 0.33793
#
# Static dielectric constant tensor:
#      x y z
#    x 1.630870 0.000000 0.000000 
#    y 0.000000 1.622110 0.000000 
#    z 0.000000 0.000000 1.639180 
# 
# From -- ./inp_files/57025.got.cif
#   From: 2010.05.17/outbox.cif.g08.bks.cpg/sg65_29_cif.got.tgz:57025.got - 2010.06.03 17:01:31.
