data_PCOD9490788
_publ_section_title
;
Structure prediction by ZEFSAII (Michael W. Deem and Ramdas Pophale) SiO2 
 PCOD9490788
Probable space group: C M M M
;
_chemical_formula_sum "Si O2"
_cell_formula_units_Z 88
_cell_length_a 23.957946
_cell_length_b 8.791315
_cell_length_c 23.161247
_cell_angle_alpha 90.000000
_cell_angle_beta 90.000000
_cell_angle_gamma 90.000000
_cell_volume 4878.264692
_symmetry_space_group_name_H-M "C M M M"
_symmetry_group_IT_number 65
_symmetry_cell_setting 'orthorhombic'
loop_
_space_group_symop_operation_xyz
x,y,z
-x,-y,z
x,-y,-z
-x,y,-z
-x,-y,-z
x,y,-z
-x,y,z
x,-y,z
1/2+x,1/2+y,z
1/2-x,1/2-y,z
1/2+x,1/2-y,-z
1/2-x,1/2+y,-z
1/2-x,1/2-y,-z
1/2+x,1/2+y,-z
1/2-x,1/2+y,z
1/2+x,1/2-y,z
loop_
_atom_site_type_symbol
_atom_site_label
_atom_site_fract_x
_atom_site_fract_y
_atom_site_fract_z
Si Si1 0.187605 0.315984 0.000000
Si Si2 0.189698 0.681607 0.432160
Si Si3 0.878199 0.315904 0.115508
Si Si4 0.500000 0.817258 0.287404
Si Si5 0.311464 0.318651 0.223417
Si Si6 0.000000 0.315179 0.847722
Si Si7 0.113714 0.818508 0.664660
O O1 0.250000 0.250000 0.000000
O O2 0.153077 0.269522 0.943078
O O3 0.191472 0.500000 0.000000
O O4 0.181040 0.716188 0.500000
O O5 0.191384 0.500000 0.425118
O O6 0.250000 0.750000 0.415420
O O7 0.141746 0.751568 0.392583
O O8 0.877341 0.500000 0.117789
O O9 0.844993 0.252019 0.170096
O O10 0.942756 0.266375 0.121510
O O11 0.500000 0.768076 0.219746
O O12 0.554850 0.754898 0.318732
O O13 0.500000 0.000000 0.288250
O O14 0.308305 0.500000 0.216485
O O15 0.250000 0.250000 0.225620
O O16 0.344501 0.284886 0.282249
O O17 0.000000 0.500000 0.847875
O O18 0.107816 0.000000 0.659763
#
# Coordination Sequence:
#
# PCOD9490788 Si02
#       7
#     8  16  16   8  16   8  16
#     4  10  22  37  57  81 113 150 189 238 287 344
#     4  10  21  38  61  89 121 157 197 241 290 346
#     4  10  20  37  58  83 112 147 189 234 286 343
#     4  11  21  37  61  86 115 154 193 239 293 350
#     4  11  23  36  54  82 113 147 187 236 286 339
#     4   9  18  34  59  85 110 145 188 233 285 340
#     4  11  23  38  58  86 118 153 194 241 292 346
#
# _framework density 18.039202
#
# number of rings (size 3 to 8) (size 9 to 14) (size 15 to 20)
#    0.000    1.636    1.818    3.000    0.000    7.273 
#    0.000    2.727    0.000    2.727    0.000    1.909 
#    0.000    0.000    0.000    0.000    0.000    0.000 
#
# Total GULP energy -245854.540567 kJ/mol
# GULP energy per Si atom -5587.603195 kJ/mol
# Density = 1.799814 g / cm^3
# Si number density = 18.039202 Si / 1000 Ang^3
#
#
#
# Elastic Constant Matrix: (Units=GPa)
#
#
# Indices 1 2 3 4 5 6 
#
# 1 200.5149 53.6402 87.2047 0.0000 0.0000 0.0000
# 2 53.6402 31.8353 47.7332 0.0000 0.0000 0.0000
# 3 87.2047 47.7332 112.6979 0.0000 0.0000 0.0000
# 4 0.0000 0.0000 0.0000 44.1237 0.0000 0.0000
# 5 0.0000 0.0000 0.0000 0.0000 28.2065 0.0000
# 6 0.0000 0.0000 0.0000 0.0000 0.0000 23.1798
#
#
#
# Elastic Compliance Matrix: (Units=1/GPa)
#
#
# Indices 1 2 3 4 5 6 
#
# 1 0.009173 -0.013189 -0.001512 0.000000 0.000000 0.000000
# 2 -0.013189 0.105038 -0.034283 0.000000 0.000000 0.000000
# 3 -0.001512 -0.034283 0.024564 0.000000 0.000000 0.000000
# 4 0.000000 0.000000 0.000000 0.022664 0.000000 0.000000
# 5 0.000000 0.000000 0.000000 0.000000 0.035453 0.000000
# 6 0.000000 0.000000 0.000000 0.000000 0.000000 0.043141
#
#
# Mechanical properties :
#
#
# Convention : Reuss Voigt Hill
#
# Bulk Modulus (GPa) = 24.50591 80.24492 52.37542
# Shear Modulus (GPa) = 14.22064 29.53332 21.87698
#
# Velocity S-wave (km/s) = 2.81075 4.05059 3.48623
# Velocity P-wave (km/s) = 4.91406 8.15209 6.73070
#
# Compressibility (1/GPa) = 0.04080648
#
# Stress axis : x y z
#
# Youngs Moduli (GPa) = 109.01814 9.52038 40.71052
#
# Poissons Ratio (x) = 0.12556 0.06154
# Poissons Ratio (y) = 1.43784 1.39569
# Poissons Ratio (z) = 0.16479 0.32639
#
# Static dielectric constant tensor:
#      x y z
#    x 1.590960 0.000000 0.000000 
#    y 0.000000 1.607020 0.000000 
#    z 0.000000 0.000000 1.599620 
# 
# From -- ./inp_files/59858.got.cif
#   From: 2010.05.17/outbox.cif.g08.bks.cpg/sg65_30_cif.got.tgz:59858.got - 2010.06.03 17:01:31.
