data_PCOD9490913
_publ_section_title
;
Structure prediction by ZEFSAII (Michael W. Deem and Ramdas Pophale) SiO2 
 PCOD9490913
Probable space group: C M M M
;
_chemical_formula_sum "Si O2"
_cell_formula_units_Z 64
_cell_length_a 21.479029
_cell_length_b 10.324513
_cell_length_c 15.931658
_cell_angle_alpha 90.000000
_cell_angle_beta 90.000000
_cell_angle_gamma 90.000000
_cell_volume 3533.012669
_symmetry_space_group_name_H-M "C M M M"
_symmetry_group_IT_number 65
_symmetry_cell_setting 'orthorhombic'
loop_
_space_group_symop_operation_xyz
x,y,z
-x,-y,z
x,-y,-z
-x,y,-z
-x,-y,-z
x,y,-z
-x,y,z
x,-y,z
1/2+x,1/2+y,z
1/2-x,1/2-y,z
1/2+x,1/2-y,-z
1/2-x,1/2+y,-z
1/2-x,1/2-y,-z
1/2+x,1/2+y,-z
1/2-x,1/2+y,z
1/2+x,1/2-y,z
loop_
_atom_site_type_symbol
_atom_site_label
_atom_site_fract_x
_atom_site_fract_y
_atom_site_fract_z
Si Si1 0.000000 0.225225 0.899435
Si Si2 0.636753 0.155643 0.317731
Si Si3 0.193387 0.649340 0.500000
Si Si4 0.500000 0.851862 0.733741
Si Si5 0.750000 0.750000 0.208793
Si Si6 0.263199 0.500000 0.901931
Si Si7 0.589357 0.500000 0.097606
O O1 0.058003 0.132940 0.873852
O O2 0.000000 0.342458 0.835080
O O3 0.000000 0.254201 0.000000
O O4 0.653269 0.166563 0.415781
O O5 0.566320 0.200731 0.298504
O O6 0.688659 0.237955 0.267118
O O7 0.642116 0.000000 0.295842
O O8 0.216693 0.500000 0.500000
O O9 0.250000 0.750000 0.500000
O O10 0.500000 0.000000 0.705450
O O11 0.756217 0.627064 0.147955
O O12 0.337811 0.500000 0.896336
O O13 0.244524 0.500000 0.000000
O O14 0.571851 0.500000 0.000000
#
# Coordination Sequence:
#
# PCOD9490913 Si02
#       7
#     8  16   8   8   8   8   8
#     4   9  16  31  52  76 104 145 196 236 278 339
#     4  10  21  38  59  89 116 152 193 240 291 350
#     4  10  20  37  63  91 117 149 192 232 294 356
#     4  10  21  35  54  80 120 151 186 237 286 336
#     4  12  21  37  60  82 116 150 200 241 289 344
#     4  11  23  36  53  80 114 154 194 244 294 339
#     4   8  16  31  52  72  97 138 191 237 276 331
#
# _framework density 18.114851999999999
#
# number of rings (size 3 to 8) (size 9 to 14) (size 15 to 20)
#    0.000    2.000    2.500    2.625    0.000    0.750 
#    0.000    3.750    0.000    0.000    0.000    0.875 
#    0.000    0.000    0.000    0.000    0.000    0.000 
#
# Total GULP energy -178169.700786 kJ/mol
# GULP energy per Si atom -5567.803150 kJ/mol
# Density = 1.807362 g / cm^3
# Si number density = 18.114852 Si / 1000 Ang^3
#
#
#
# Elastic Constant Matrix: (Units=GPa)
#
#
# Indices 1 2 3 4 5 6 
#
# 1 118.6590 19.1833 56.3581 0.0000 0.0000 0.0000
# 2 19.1833 64.3537 45.8981 0.0000 0.0000 0.0000
# 3 56.3581 45.8981 128.7184 0.0000 0.0000 0.0000
# 4 0.0000 0.0000 0.0000 15.5559 0.0000 0.0000
# 5 0.0000 0.0000 0.0000 0.0000 24.4598 0.0000
# 6 0.0000 0.0000 0.0000 0.0000 0.0000 36.8693
#
#
#
# Elastic Compliance Matrix: (Units=1/GPa)
#
#
# Indices 1 2 3 4 5 6 
#
# 1 0.010642 0.000202 -0.004732 0.000000 0.000000 0.000000
# 2 0.000202 0.020843 -0.007521 0.000000 0.000000 0.000000
# 3 -0.004732 -0.007521 0.012522 0.000000 0.000000 0.000000
# 4 0.000000 0.000000 0.000000 0.064284 0.000000 0.000000
# 5 0.000000 0.000000 0.000000 0.000000 0.040883 0.000000
# 6 0.000000 0.000000 0.000000 0.000000 0.000000 0.027123
#
#
# Mechanical properties :
#
#
# Convention : Reuss Voigt Hill
#
# Bulk Modulus (GPa) = 50.23308 61.62333 55.92820
# Shear Modulus (GPa) = 24.15069 28.06309 26.10689
#
# Velocity S-wave (km/s) = 3.65526 3.94023 3.80042
# Velocity P-wave (km/s) = 6.75315 7.40220 7.08511
#
# Compressibility (1/GPa) = 0.01990720
#
# Stress axis : x y z
#
# Youngs Moduli (GPa) = 93.96576 47.97858 79.85722
#
# Poissons Ratio (x) = -0.00971 0.37786
# Poissons Ratio (y) = -0.01902 0.60058
# Poissons Ratio (z) = 0.44462 0.36083
#
# Static dielectric constant tensor:
#      x y z
#    x 1.618150 0.000000 0.000000 
#    y 0.000000 1.668440 0.000000 
#    z 0.000000 0.000000 1.609260 
# 
# From -- ./inp_files/45179.got.cif
#   From: 2010.05.17/outbox.cif.g08.bks.cpg/sg65_23_cif.got.tgz:45179.got - 2010.06.03 17:01:31.
