data_PCOD9490006
_publ_section_title
;
Structure prediction by ZEFSAII (Michael W. Deem and Ramdas Pophale) SiO2 
 PCOD9490006
Probable space group: C M M M
;
_chemical_formula_sum "Si O2"
_cell_formula_units_Z 88
_cell_length_a 19.822009
_cell_length_b 24.826498
_cell_length_c 7.435832
_cell_angle_alpha 90.000000
_cell_angle_beta 90.000000
_cell_angle_gamma 90.000000
_cell_volume 3659.255218
_symmetry_space_group_name_H-M "C M M M"
_symmetry_group_IT_number 65
_symmetry_cell_setting 'orthorhombic'
loop_
_space_group_symop_operation_xyz
x,y,z
-x,-y,z
x,-y,-z
-x,y,-z
-x,-y,-z
x,y,-z
-x,y,z
x,-y,z
1/2+x,1/2+y,z
1/2-x,1/2-y,z
1/2+x,1/2-y,-z
1/2-x,1/2+y,-z
1/2-x,1/2-y,-z
1/2+x,1/2+y,-z
1/2-x,1/2+y,z
1/2+x,1/2-y,z
loop_
_atom_site_type_symbol
_atom_site_label
_atom_site_fract_x
_atom_site_fract_y
_atom_site_fract_z
Si Si1 0.210402 0.668462 0.791284
Si Si2 0.426258 0.221993 0.780486
Si Si3 0.647305 0.938291 0.718278
Si Si4 0.642452 0.327472 0.787002
Si Si5 0.500000 0.065628 0.291573
Si Si6 0.422550 0.440785 0.716063
O O1 0.140655 0.691483 0.714377
O O2 0.202269 0.604066 0.780384
O O3 0.282703 0.683911 0.712043
O O4 0.210788 0.685275 0.000000
O O5 0.500000 0.203235 0.718313
O O6 0.412674 0.284095 0.726658
O O7 0.427684 0.218151 0.000000
O O8 0.645308 0.938008 0.500000
O O9 0.572843 0.919647 0.785968
O O10 0.658686 0.000000 0.773738
O O11 0.620728 0.388810 0.761770
O O12 0.647755 0.319121 0.000000
O O13 0.500000 0.082140 0.500000
O O14 0.500000 0.000000 0.289949
O O15 0.424373 0.442681 0.500000
O O16 0.500000 0.433634 0.778831
O O17 0.398625 0.500000 0.778151
#
# Coordination Sequence:
#
# PCOD9490006 Si02
#       6
#    16  16  16  16   8  16
#     4  10  21  34  51  78 110 139 172 219 268 314
#     4   9  18  34  56  78 101 135 178 220 265 317
#     4   9  18  33  52  73 100 137 177 214 257 310
#     4  10  20  35  55  79 108 142 177 215 261 314
#     4   7  12  26  47  67  89 123 167 211 250 291
#     4   9  19  36  57  82 112 143 175 215 263 312
#
# _framework density 24.04861
#
# number of rings (size 3 to 8) (size 9 to 14) (size 15 to 20)
#    0.000    2.818    0.000    2.727    1.273    5.455 
#    0.000    5.455    0.000    4.909    0.000    0.000 
#    0.000    0.000    0.000    0.000    0.000    0.000 
#
# Total GULP energy -245705.011890 kJ/mol
# GULP energy per Si atom -5584.204816 kJ/mol
# Density = 2.399387 g / cm^3
# Si number density = 24.048610 Si / 1000 Ang^3
#
#
#
# Elastic Constant Matrix: (Units=GPa)
#
#
# Indices 1 2 3 4 5 6 
#
# 1 124.2983 39.9871 5.5549 0.0000 0.0000 0.0000
# 2 39.9871 99.6898 -4.9218 0.0000 0.0000 0.0000
# 3 5.5549 -4.9218 77.1853 0.0000 0.0000 0.0000
# 4 0.0000 0.0000 0.0000 19.6032 0.0000 0.0000
# 5 0.0000 0.0000 0.0000 0.0000 9.1975 0.0000
# 6 0.0000 0.0000 0.0000 0.0000 0.0000 33.5319
#
#
#
# Elastic Compliance Matrix: (Units=1/GPa)
#
#
# Indices 1 2 3 4 5 6 
#
# 1 0.009300 -0.003775 -0.000910 0.000000 0.000000 0.000000
# 2 -0.003775 0.011595 0.001011 0.000000 0.000000 0.000000
# 3 -0.000910 0.001011 0.013086 0.000000 0.000000 0.000000
# 4 0.000000 0.000000 0.000000 0.051012 0.000000 0.000000
# 5 0.000000 0.000000 0.000000 0.000000 0.108726 0.000000
# 6 0.000000 0.000000 0.000000 0.000000 0.000000 0.029822
#
#
# Mechanical properties :
#
#
# Convention : Reuss Voigt Hill
#
# Bulk Modulus (GPa) = 37.54773 42.49043 40.01908
# Shear Modulus (GPa) = 20.85347 29.83673 25.34510
#
# Velocity S-wave (km/s) = 2.94792 3.52616 3.24992
# Velocity P-wave (km/s) = 5.21863 5.85536 5.54614
#
# Compressibility (1/GPa) = 0.02663277
#
# Stress axis : x y z
#
# Youngs Moduli (GPa) = 107.52215 86.24084 76.41864
#
# Poissons Ratio (x) = 0.32560 0.06955
# Poissons Ratio (y) = 0.40595 -0.07727
# Poissons Ratio (z) = 0.09785 -0.08720
#
# Static dielectric constant tensor:
#      x y z
#    x 1.920320 0.000000 0.000000 
#    y 0.000000 1.930600 0.000000 
#    z 0.000000 0.000000 1.920420 
# 
# From -- ./inp_files/26799.got.cif
#   From: 2010.05.17/outbox.cif.g08.bks.cpg/sg65_14_cif.got.tgz:26799.got - 2010.06.03 17:01:31.
