data_PCOD9490681
_publ_section_title
;
Structure prediction by ZEFSAII (Michael W. Deem and Ramdas Pophale) SiO2 
 PCOD9490681
Probable space group: C M M M
;
_chemical_formula_sum "Si O2"
_cell_formula_units_Z 72
_cell_length_a 16.407630
_cell_length_b 9.132777
_cell_length_c 24.844947
_cell_angle_alpha 90.000000
_cell_angle_beta 90.000000
_cell_angle_gamma 90.000000
_cell_volume 3722.946385
_symmetry_space_group_name_H-M "C M M M"
_symmetry_group_IT_number 65
_symmetry_cell_setting 'orthorhombic'
loop_
_space_group_symop_operation_xyz
x,y,z
-x,-y,z
x,-y,-z
-x,y,-z
-x,-y,-z
x,y,-z
-x,y,z
x,-y,z
1/2+x,1/2+y,z
1/2-x,1/2-y,z
1/2+x,1/2-y,-z
1/2-x,1/2+y,-z
1/2-x,1/2-y,-z
1/2+x,1/2+y,-z
1/2-x,1/2+y,z
1/2+x,1/2-y,z
loop_
_atom_site_type_symbol
_atom_site_label
_atom_site_fract_x
_atom_site_fract_y
_atom_site_fract_z
Si Si1 0.164353 0.326740 0.834962
Si Si2 0.665723 0.676550 0.377141
Si Si3 0.593765 0.330631 0.263671
Si Si4 0.000000 0.178061 0.437584
Si Si5 0.098322 0.170309 0.938931
O O1 0.171483 0.500000 0.834127
O O2 0.250000 0.250000 0.823337
O O3 0.105427 0.269655 0.788026
O O4 0.134825 0.271067 0.893025
O O5 0.671881 0.500000 0.381772
O O6 0.750000 0.750000 0.395035
O O7 0.649332 0.711024 0.314214
O O8 0.584293 0.724637 0.409069
O O9 0.500000 0.325839 0.282267
O O10 0.611309 0.500000 0.248606
O O11 0.000000 0.220976 0.500000
O O12 0.000000 0.000000 0.434748
O O13 0.000000 0.177863 0.936635
O O14 0.121044 0.000000 0.929257
O O15 0.123095 0.209007 0.000000
#
# Coordination Sequence:
#
# PCOD9490681 Si02
#       5
#    16  16  16   8  16
#     4  12  25  38  54  80 113 148 188 235 288 345
#     4  10  20  36  59  88 119 157 201 246 297 353
#     4  10  20  37  60  83 113 151 191 236 291 355
#     4   9  18  36  61  87 119 161 206 245 290 355
#     4   9  19  38  62  84 108 142 183 227 281 345
#
# _framework density 19.339521999999999
#
# number of rings (size 3 to 8) (size 9 to 14) (size 15 to 20)
#    0.000    1.889    1.111    4.000    0.000    7.556 
#    0.000    1.667    0.000    0.667    0.000    0.000 
#    0.000    0.000    0.000    0.000    0.000    0.000 
#
# Total GULP energy -201059.938819 kJ/mol
# GULP energy per Si atom -5584.998301 kJ/mol
# Density = 1.929550 g / cm^3
# Si number density = 19.339522 Si / 1000 Ang^3
#
#
#
# Elastic Constant Matrix: (Units=GPa)
#
#
# Indices 1 2 3 4 5 6 
#
# 1 104.1161 32.9188 43.5627 0.0000 0.0000 0.0000
# 2 32.9188 66.4150 50.9965 0.0000 0.0000 0.0000
# 3 43.5627 50.9965 95.9425 0.0000 0.0000 0.0000
# 4 0.0000 0.0000 0.0000 9.2085 0.0000 0.0000
# 5 0.0000 0.0000 0.0000 0.0000 10.6175 0.0000
# 6 0.0000 0.0000 0.0000 0.0000 0.0000 29.3719
#
#
#
# Elastic Compliance Matrix: (Units=1/GPa)
#
#
# Indices 1 2 3 4 5 6 
#
# 1 0.012208 -0.003032 -0.003931 0.000000 0.000000 0.000000
# 2 -0.003032 0.026193 -0.012545 0.000000 0.000000 0.000000
# 3 -0.003931 -0.012545 0.018876 0.000000 0.000000 0.000000
# 4 0.000000 0.000000 0.000000 0.108595 0.000000 0.000000
# 5 0.000000 0.000000 0.000000 0.000000 0.094185 0.000000
# 6 0.000000 0.000000 0.000000 0.000000 0.000000 0.034046
#
#
# Mechanical properties :
#
#
# Convention : Reuss Voigt Hill
#
# Bulk Modulus (GPa) = 54.76770 57.93665 56.35217
# Shear Modulus (GPa) = 14.74022 19.10595 16.92308
#
# Velocity S-wave (km/s) = 2.76376 3.14653 2.96134
# Velocity P-wave (km/s) = 6.21007 6.57446 6.39486
#
# Compressibility (1/GPa) = 0.01825894
#
# Stress axis : x y z
#
# Youngs Moduli (GPa) = 81.91123 38.17834 52.97653
#
# Poissons Ratio (x) = 0.11577 0.20827
# Poissons Ratio (y) = 0.24839 0.66462
# Poissons Ratio (z) = 0.32202 0.47897
#
# Static dielectric constant tensor:
#      x y z
#    x 1.699340 0.000000 0.000000 
#    y 0.000000 1.642800 0.000000 
#    z 0.000000 0.000000 1.667490 
# 
# From -- ./inp_files/72479.got.cif
#   From: 2010.05.17/outbox.cif.g08.bks.cpg/sg65_37_cif.got.tgz:72479.got - 2010.06.03 17:01:31.
