data_PCOD9490619
_publ_section_title
;
Structure prediction by ZEFSAII (Michael W. Deem and Ramdas Pophale) SiO2 
 PCOD9490619
Probable space group: C M M M
;
_chemical_formula_sum "Si O2"
_cell_formula_units_Z 66
_cell_length_a 8.887279
_cell_length_b 15.804504
_cell_length_c 26.178242
_cell_angle_alpha 90.000000
_cell_angle_beta 90.000000
_cell_angle_gamma 90.000000
_cell_volume 3676.970649
_symmetry_space_group_name_H-M "C M M M"
_symmetry_group_IT_number 65
_symmetry_cell_setting 'orthorhombic'
loop_
_space_group_symop_operation_xyz
x,y,z
-x,-y,z
x,-y,-z
-x,y,-z
-x,-y,-z
x,y,-z
-x,y,z
x,-y,z
1/2+x,1/2+y,z
1/2-x,1/2-y,z
1/2+x,1/2-y,-z
1/2-x,1/2+y,-z
1/2-x,1/2-y,-z
1/2+x,1/2+y,-z
1/2-x,1/2+y,z
1/2+x,1/2-y,z
loop_
_atom_site_type_symbol
_atom_site_label
_atom_site_fract_x
_atom_site_fract_y
_atom_site_fract_z
Si Si1 0.500000 0.500000 0.500000
Si Si2 0.666297 0.500000 0.394214
Si Si3 0.683328 0.500000 0.058587
Si Si4 0.820874 0.600742 0.770341
Si Si5 0.320062 0.338784 0.125156
Si Si6 0.319742 0.160109 0.656441
O O1 0.628632 0.500000 0.454191
O O2 0.500000 0.500000 0.368496
O O3 0.753921 0.416677 0.376569
O O4 0.500000 0.500000 0.058406
O O5 0.730486 0.583577 0.089325
O O6 0.734059 0.500000 0.000000
O O7 0.792260 0.500000 0.768238
O O8 0.732641 0.640810 0.817354
O O9 0.781325 0.640693 0.715727
O O10 0.000000 0.612789 0.778470
O O11 0.500000 0.333750 0.123627
O O12 0.250000 0.250000 0.108763
O O13 0.500000 0.162080 0.652165
O O14 0.250000 0.250000 0.641496
#
# Coordination Sequence:
#
# PCOD9490619 Si02
#       6
#     2   8   8  16  16  16
#     4   8  24  44  70  88 124 154 218 248 314 340
#     4  10  21  42  66  87 122 157 202 254 298 350
#     4   9  20  39  59  79 108 149 198 250 300 354
#     4  10  20  36  58  88 124 159 193 237 294 358
#     4  11  22  37  58  85 116 153 197 241 297 358
#     4  11  22  38  62  95 127 162 201 244 300 362
#
# _framework density 17.949556999999999
#
# number of rings (size 3 to 8) (size 9 to 14) (size 15 to 20)
#    0.364    1.333    2.424    2.545    0.000    4.364 
#    0.000    1.818    0.000    5.091    0.000    0.000 
#    0.000    0.000    0.000    0.000    0.000    0.000 
#
# Total GULP energy -183997.424411 kJ/mol
# GULP energy per Si atom -5575.679528 kJ/mol
# Density = 1.790870 g / cm^3
# Si number density = 17.949557 Si / 1000 Ang^3
#
#
#
# Elastic Constant Matrix: (Units=GPa)
#
#
# Indices 1 2 3 4 5 6 
#
# 1 55.0081 60.0438 48.1002 0.0000 0.0000 0.0000
# 2 60.0438 181.3764 80.1493 0.0000 0.0000 0.0000
# 3 48.1002 80.1493 137.4506 0.0000 0.0000 0.0000
# 4 0.0000 0.0000 0.0000 -1.0547 0.0000 0.0000
# 5 0.0000 0.0000 0.0000 0.0000 -7.9870 0.0000
# 6 0.0000 0.0000 0.0000 0.0000 0.0000 25.0017
#
#
#
# Elastic Compliance Matrix: (Units=1/GPa)
#
#
# Indices 1 2 3 4 5 6 
#
# 1 0.032710 -0.007773 -0.006914 0.000000 0.000000 0.000000
# 2 -0.007773 0.009274 -0.002688 0.000000 0.000000 0.000000
# 3 -0.006914 -0.002688 0.011262 0.000000 0.000000 0.000000
# 4 0.000000 0.000000 0.000000 -0.948165 0.000000 0.000000
# 5 0.000000 0.000000 0.000000 0.000000 -0.125204 0.000000
# 6 0.000000 0.000000 0.000000 0.000000 0.000000 0.039997
#
#
# Mechanical properties :
#
#
# Convention : Reuss Voigt Hill
#
# Bulk Modulus (GPa) = 54.06490 83.38018 68.72254
# Shear Modulus (GPa) = -5.32362 15.56146 5.11892
#
# Velocity S-wave (km/s) = -1.72404 2.94760 1.69057
# Velocity P-wave (km/s) = 5.12082 7.62482 6.49464
#
# Compressibility (1/GPa) = 0.01849629
#
# Stress axis : x y z
#
# Youngs Moduli (GPa) = 30.57212 107.82367 88.79276
#
# Poissons Ratio (x) = 0.83812 0.61391
# Poissons Ratio (y) = 0.23764 0.23866
# Poissons Ratio (z) = 0.21137 0.28982
#
# Static dielectric constant tensor:
#      x y z
#    x 1.607830 0.000000 0.000000 
#    y 0.000000 1.611010 0.000000 
#    z 0.000000 0.000000 1.584710 
# 
# From -- ./inp_files/72416.got.cif
#   From: 2010.05.17/outbox.cif.g08.bks.cpg/sg65_37_cif.got.tgz:72416.got - 2010.06.03 17:01:31.
