data_PCOD9490431
_publ_section_title
;
Structure prediction by ZEFSAII (Michael W. Deem and Ramdas Pophale) SiO2 
 PCOD9490431
Probable space group: C M M M
;
_chemical_formula_sum "Si O2"
_cell_formula_units_Z 88
_cell_length_a 27.869946
_cell_length_b 9.548129
_cell_length_c 17.569627
_cell_angle_alpha 90.000000
_cell_angle_beta 90.000000
_cell_angle_gamma 90.000000
_cell_volume 4675.380345
_symmetry_space_group_name_H-M "C M M M"
_symmetry_group_IT_number 65
_symmetry_cell_setting 'orthorhombic'
loop_
_space_group_symop_operation_xyz
x,y,z
-x,-y,z
x,-y,-z
-x,y,-z
-x,-y,-z
x,y,-z
-x,y,z
x,-y,z
1/2+x,1/2+y,z
1/2-x,1/2-y,z
1/2+x,1/2-y,-z
1/2-x,1/2+y,-z
1/2-x,1/2-y,-z
1/2+x,1/2+y,-z
1/2-x,1/2+y,z
1/2+x,1/2-y,z
loop_
_atom_site_type_symbol
_atom_site_label
_atom_site_fract_x
_atom_site_fract_y
_atom_site_fract_z
Si Si1 0.701696 0.664904 0.591535
Si Si2 0.557276 0.245639 0.196397
Si Si3 0.058062 0.500000 0.915578
Si Si4 0.058385 0.000000 0.088306
Si Si5 0.301377 0.329789 0.166862
Si Si6 0.638692 0.169797 0.296648
Si Si7 0.798997 0.836267 0.000000
O O1 0.698952 0.666352 0.500000
O O2 0.703058 0.500000 0.615432
O O3 0.750000 0.750000 0.614093
O O4 0.658591 0.753159 0.628481
O O5 0.500000 0.248404 0.208417
O O6 0.571008 0.126789 0.136994
O O7 0.571488 0.375885 0.144768
O O8 0.584786 0.214093 0.274109
O O9 0.000000 0.500000 0.922577
O O10 0.078394 0.500000 0.000000
O O11 0.000000 0.000000 0.081000
O O12 0.076392 0.000000 0.000000
O O13 0.297681 0.500000 0.180610
O O14 0.250000 0.250000 0.166951
O O15 0.331399 0.246489 0.229507
O O16 0.322843 0.310213 0.081580
O O17 0.644099 0.000000 0.298447
O O18 0.750000 0.750000 0.000000
O O19 0.786104 0.000000 0.000000
#
# Coordination Sequence:
#
# PCOD9490431 Si02
#       7
#    16  16   8   8  16  16   8
#     4  10  22  42  69  97 123 149 180 225 283 347
#     4  10  21  37  55  81 115 156 202 249 299 347
#     4   9  16  32  56  76 106 151 202 256 302 339
#     4   9  18  34  56  80 108 149 202 260 314 353
#     4  10  20  36  55  76 107 145 188 237 284 336
#     4  12  24  37  56  86 117 152 191 232 284 344
#     4   8  16  32  52  70  95 140 187 231 279 324
#
# _framework density 18.821997
#
# number of rings (size 3 to 8) (size 9 to 14) (size 15 to 20)
#    0.000    2.000    0.909    2.727    2.545    4.000 
#    3.273    0.000    0.000    0.545    0.000    2.545 
#    0.000    0.000    0.000    0.000    0.000    0.000 
#
# Total GULP energy -245085.704063 kJ/mol
# GULP energy per Si atom -5570.129638 kJ/mol
# Density = 1.877916 g / cm^3
# Si number density = 18.821997 Si / 1000 Ang^3
#
#
#
# Elastic Constant Matrix: (Units=GPa)
#
#
# Indices 1 2 3 4 5 6 
#
# 1 72.5167 36.9380 26.4679 0.0000 0.0000 0.0000
# 2 36.9380 176.2386 39.0859 0.0000 0.0000 0.0000
# 3 26.4679 39.0859 56.6076 0.0000 0.0000 0.0000
# 4 0.0000 0.0000 0.0000 31.3091 0.0000 0.0000
# 5 0.0000 0.0000 0.0000 0.0000 28.7660 0.0000
# 6 0.0000 0.0000 0.0000 0.0000 0.0000 20.3631
#
#
#
# Elastic Compliance Matrix: (Units=1/GPa)
#
#
# Indices 1 2 3 4 5 6 
#
# 1 0.017299 -0.002163 -0.006595 0.000000 0.000000 0.000000
# 2 -0.002163 0.006971 -0.003802 0.000000 0.000000 0.000000
# 3 -0.006595 -0.003802 0.023374 0.000000 0.000000 0.000000
# 4 0.000000 0.000000 0.000000 0.031940 0.000000 0.000000
# 5 0.000000 0.000000 0.000000 0.000000 0.034763 0.000000
# 6 0.000000 0.000000 0.000000 0.000000 0.000000 0.049108
#
#
# Mechanical properties :
#
#
# Convention : Reuss Voigt Hill
#
# Bulk Modulus (GPa) = 44.39657 56.70517 50.55087
# Shear Modulus (GPa) = 25.49958 29.61238 27.55598
#
# Velocity S-wave (km/s) = 3.68472 3.97077 3.83042
# Velocity P-wave (km/s) = 6.46078 7.15648 6.81751
#
# Compressibility (1/GPa) = 0.02252426
#
# Stress axis : x y z
#
# Youngs Moduli (GPa) = 57.80752 143.45967 42.78280
#
# Poissons Ratio (x) = 0.31031 0.28214
# Poissons Ratio (y) = 0.12504 0.16264
# Poissons Ratio (z) = 0.38123 0.54538
#
# Static dielectric constant tensor:
#      x y z
#    x 1.712410 0.000000 0.000000 
#    y 0.000000 1.587100 0.000000 
#    z 0.000000 0.000000 1.698340 
# 
# From -- ./inp_files/58102.got.cif
#   From: 2010.05.17/outbox.cif.g08.bks.cpg/sg65_30_cif.got.tgz:58102.got - 2010.06.03 17:01:31.
