data_PCOD9490322
_publ_section_title
;
Structure prediction by ZEFSAII (Michael W. Deem and Ramdas Pophale) SiO2 
 PCOD9490322
Probable space group: C M M M
;
_chemical_formula_sum "Si O2"
_cell_formula_units_Z 56
_cell_length_a 19.434771
_cell_length_b 15.216761
_cell_length_c 8.358348
_cell_angle_alpha 90.000000
_cell_angle_beta 90.000000
_cell_angle_gamma 90.000000
_cell_volume 2471.849906
_symmetry_space_group_name_H-M "C M M M"
_symmetry_group_IT_number 65
_symmetry_cell_setting 'orthorhombic'
loop_
_space_group_symop_operation_xyz
x,y,z
-x,-y,z
x,-y,-z
-x,y,-z
-x,-y,-z
x,y,-z
-x,y,z
x,-y,z
1/2+x,1/2+y,z
1/2-x,1/2-y,z
1/2+x,1/2-y,-z
1/2-x,1/2+y,-z
1/2-x,1/2-y,-z
1/2+x,1/2+y,-z
1/2-x,1/2+y,z
1/2+x,1/2-y,z
loop_
_atom_site_type_symbol
_atom_site_label
_atom_site_fract_x
_atom_site_fract_y
_atom_site_fract_z
Si Si1 0.721389 0.848694 0.320482
Si Si2 0.080747 0.893735 0.500000
Si Si3 0.575878 0.894622 0.190964
Si Si4 0.145739 0.101416 0.827351
O O1 0.730152 0.884806 0.500000
O O2 0.750000 0.750000 0.318751
O O3 0.642275 0.853412 0.272381
O O4 0.772282 0.897710 0.199561
O O5 0.113509 0.859643 0.334725
O O6 0.000000 0.877714 0.500000
O O7 0.092172 0.000000 0.500000
O O8 0.500000 0.864352 0.246284
O O9 0.579314 0.000000 0.217598
O O10 0.579689 0.880621 0.000000
O O11 0.122326 0.000000 0.833871
O O12 0.128893 0.142875 0.000000
#
# Coordination Sequence:
#
# PCOD9490322 Si02
#       4
#    16   8  16  16
#     4  11  23  37  55  82 118 159 199 241 295 358
#     4   9  18  34  55  80 111 143 181 236 288 332
#     4   9  19  37  61  89 119 151 193 249 308 362
#     4  10  20  35  58  85 111 147 195 242 294 356
#
# _framework density 22.655097000000001
#
# number of rings (size 3 to 8) (size 9 to 14) (size 15 to 20)
#    0.000    2.143    1.429    2.571    0.000    7.429 
#    0.000    5.714    0.000    0.000    0.000    0.000 
#    0.000    0.000    0.000    0.000    0.000    0.000 
#
# Total GULP energy -156397.019617 kJ/mol
# GULP energy per Si atom -5585.607843 kJ/mol
# Density = 2.260353 g / cm^3
# Si number density = 22.655097 Si / 1000 Ang^3
#
#
#
# Elastic Constant Matrix: (Units=GPa)
#
#
# Indices 1 2 3 4 5 6 
#
# 1 140.5995 12.6884 82.0358 0.0000 0.0000 0.0000
# 2 12.6884 38.0789 15.7110 0.0000 0.0000 0.0000
# 3 82.0358 15.7110 176.7927 0.0000 0.0000 0.0000
# 4 0.0000 0.0000 0.0000 5.6908 0.0000 0.0000
# 5 0.0000 0.0000 0.0000 0.0000 15.9115 0.0000
# 6 0.0000 0.0000 0.0000 0.0000 0.0000 21.7684
#
#
#
# Elastic Compliance Matrix: (Units=1/GPa)
#
#
# Indices 1 2 3 4 5 6 
#
# 1 0.009829 -0.001446 -0.004432 0.000000 0.000000 0.000000
# 2 -0.001446 0.027474 -0.001770 0.000000 0.000000 0.000000
# 3 -0.004432 -0.001770 0.007870 0.000000 0.000000 0.000000
# 4 0.000000 0.000000 0.000000 0.175723 0.000000 0.000000
# 5 0.000000 0.000000 0.000000 0.000000 0.062848 0.000000
# 6 0.000000 0.000000 0.000000 0.000000 0.000000 0.045938
#
#
# Mechanical properties :
#
#
# Convention : Reuss Voigt Hill
#
# Bulk Modulus (GPa) = 33.47291 64.03793 48.75542
# Shear Modulus (GPa) = 14.08697 25.00986 19.54841
#
# Velocity S-wave (km/s) = 2.49630 3.32616 2.94065
# Velocity P-wave (km/s) = 4.80788 6.56346 5.75303
#
# Compressibility (1/GPa) = 0.02987491
#
# Stress axis : x y z
#
# Youngs Moduli (GPa) = 101.73864 36.39848 127.05843
#
# Poissons Ratio (x) = 0.05265 0.56317
# Poissons Ratio (y) = 0.14716 0.22494
# Poissons Ratio (z) = 0.45095 0.06444
#
# Static dielectric constant tensor:
#      x y z
#    x 1.817640 0.000000 0.000000 
#    y 0.000000 1.856030 0.000000 
#    z 0.000000 0.000000 1.860360 
# 
# From -- ./inp_files/8698.got.cif
#   From: 2010.05.17/outbox.cif.g08.bks.cpg/sg65_5_cif.got.tgz:8698.got - 2010.06.03 17:01:31.
