data_PCOD9490095
_publ_section_title
;
Structure prediction by ZEFSAII (Michael W. Deem and Ramdas Pophale) SiO2 
 PCOD9490095
Probable space group: C M M M
;
_chemical_formula_sum "Si O2"
_cell_formula_units_Z 88
_cell_length_a 20.549491
_cell_length_b 24.878966
_cell_length_c 8.491847
_cell_angle_alpha 90.000000
_cell_angle_beta 90.000000
_cell_angle_gamma 90.000000
_cell_volume 4341.457525
_symmetry_space_group_name_H-M "C M M M"
_symmetry_group_IT_number 65
_symmetry_cell_setting 'orthorhombic'
loop_
_space_group_symop_operation_xyz
x,y,z
-x,-y,z
x,-y,-z
-x,y,-z
-x,-y,-z
x,y,-z
-x,y,z
x,-y,z
1/2+x,1/2+y,z
1/2-x,1/2-y,z
1/2+x,1/2-y,-z
1/2-x,1/2+y,-z
1/2-x,1/2-y,-z
1/2+x,1/2+y,-z
1/2-x,1/2+y,z
1/2+x,1/2-y,z
loop_
_atom_site_type_symbol
_atom_site_label
_atom_site_fract_x
_atom_site_fract_y
_atom_site_fract_z
Si Si1 0.070241 0.094472 0.684360
Si Si2 0.201179 0.939046 0.821235
Si Si3 0.164667 0.603446 0.809576
Si Si4 0.926633 0.212077 0.817386
Si Si5 0.923229 0.500000 0.192011
Si Si6 0.184287 0.279859 0.316996
O O1 0.072050 0.108398 0.500000
O O2 0.134534 0.062825 0.727810
O O3 0.072667 0.148684 0.785376
O O4 0.000000 0.067770 0.714931
O O5 0.261839 0.907806 0.750452
O O6 0.224533 0.000000 0.831668
O O7 0.188481 0.919684 0.000000
O O8 0.115308 0.555177 0.758734
O O9 0.156712 0.665518 0.762010
O O10 0.165695 0.600204 0.000000
O O11 0.873444 0.237673 0.705906
O O12 0.000000 0.232119 0.786795
O O13 0.910608 0.222836 0.000000
O O14 0.000000 0.500000 0.239747
O O15 0.922647 0.500000 0.000000
O O16 0.196780 0.291923 0.500000
O O17 0.250000 0.250000 0.253379
#
# Coordination Sequence:
#
# PCOD9490095 Si02
#       6
#    16  16  16  16   8  16
#     4  10  21  36  54  79 113 150 186 230 285 341
#     4  10  20  35  56  80 109 147 191 238 285 333
#     4  10  20  37  60  86 117 151 195 247 297 351
#     4  10  21  38  60  84 110 145 191 237 285 343
#     4   9  18  36  63  91 118 151 194 248 305 359
#     4  11  24  39  57  86 123 159 197 241 296 361
#
# _framework density 20.269690000000001
#
# number of rings (size 3 to 8) (size 9 to 14) (size 15 to 20)
#    0.000    1.909    0.909    2.727    0.000    8.727 
#    0.000    4.091    0.000    0.545    0.000    0.000 
#    0.000    0.000    0.000    0.000    0.000    0.000 
#
# Total GULP energy -245202.706552 kJ/mol
# GULP energy per Si atom -5572.788785 kJ/mol
# Density = 2.022356 g / cm^3
# Si number density = 20.269690 Si / 1000 Ang^3
#
#
#
# Elastic Constant Matrix: (Units=GPa)
#
#
# Indices 1 2 3 4 5 6 
#
# 1 88.9487 27.8012 18.5297 0.0000 0.0000 0.0000
# 2 27.8012 77.0048 0.5817 0.0000 0.0000 0.0000
# 3 18.5297 0.5817 20.0625 0.0000 0.0000 0.0000
# 4 0.0000 0.0000 0.0000 -9.0359 0.0000 0.0000
# 5 0.0000 0.0000 0.0000 0.0000 18.3897 0.0000
# 6 0.0000 0.0000 0.0000 0.0000 0.0000 30.3818
#
#
#
# Elastic Compliance Matrix: (Units=1/GPa)
#
#
# Indices 1 2 3 4 5 6 
#
# 1 0.016082 -0.005695 -0.014689 0.000000 0.000000 0.000000
# 2 -0.005695 0.015006 0.004825 0.000000 0.000000 0.000000
# 3 -0.014689 0.004825 0.063271 0.000000 0.000000 0.000000
# 4 0.000000 0.000000 0.000000 -0.110669 0.000000 0.000000
# 5 0.000000 0.000000 0.000000 0.000000 0.054378 0.000000
# 6 0.000000 0.000000 0.000000 0.000000 0.000000 0.032914
#
#
# Mechanical properties :
#
#
# Convention : Reuss Voigt Hill
#
# Bulk Modulus (GPa) = 15.81240 31.09345 23.45293
# Shear Modulus (GPa) = 40.59087 17.22069 28.90578
#
# Velocity S-wave (km/s) = 4.47983 2.91791 3.78042
# Velocity P-wave (km/s) = 5.88017 5.16967 5.53633
#
# Compressibility (1/GPa) = 0.06324150
#
# Stress axis : x y z
#
# Youngs Moduli (GPa) = 62.17967 66.64022 15.80512
#
# Poissons Ratio (x) = 0.37954 0.23215
# Poissons Ratio (y) = 0.35413 -0.07626
# Poissons Ratio (z) = 0.91333 -0.32155
#
# Static dielectric constant tensor:
#      x y z
#    x 1.745280 0.000000 0.000000 
#    y 0.000000 1.731450 0.000000 
#    z 0.000000 0.000000 1.709860 
# 
# From -- ./inp_files/11793.got.cif
#   From: 2010.05.17/outbox.cif.g08.bks.cpg/sg65_6_cif.got.tgz:11793.got - 2010.06.03 17:01:31.
