data_PCOD9490602
_publ_section_title
;
Structure prediction by ZEFSAII (Michael W. Deem and Ramdas Pophale) SiO2 
 PCOD9490602
Probable space group: C M M M
;
_chemical_formula_sum "Si O2"
_cell_formula_units_Z 88
_cell_length_a 22.628277
_cell_length_b 22.723192
_cell_length_c 9.240708
_cell_angle_alpha 90.000000
_cell_angle_beta 90.000000
_cell_angle_gamma 90.000000
_cell_volume 4751.448994
_symmetry_space_group_name_H-M "C M M M"
_symmetry_group_IT_number 65
_symmetry_cell_setting 'orthorhombic'
loop_
_space_group_symop_operation_xyz
x,y,z
-x,-y,z
x,-y,-z
-x,y,-z
-x,-y,-z
x,y,-z
-x,y,z
x,-y,z
1/2+x,1/2+y,z
1/2-x,1/2-y,z
1/2+x,1/2-y,-z
1/2-x,1/2+y,-z
1/2-x,1/2-y,-z
1/2+x,1/2+y,-z
1/2-x,1/2+y,z
1/2+x,1/2-y,z
loop_
_atom_site_type_symbol
_atom_site_label
_atom_site_fract_x
_atom_site_fract_y
_atom_site_fract_z
Si Si1 0.339183 0.600574 0.170388
Si Si2 0.068783 0.000000 0.176002
Si Si3 0.380220 0.292175 0.672218
Si Si4 0.500000 0.707011 0.836259
Si Si5 0.620806 0.154402 0.327376
Si Si6 0.205047 0.566182 0.169576
Si Si7 0.500000 0.849330 0.835457
O O1 0.392233 0.557131 0.218612
O O2 0.336179 0.660673 0.260300
O O3 0.275827 0.569609 0.183953
O O4 0.348553 0.613887 0.000000
O O5 0.000000 0.000000 0.223814
O O6 0.068229 0.000000 0.000000
O O7 0.384102 0.297578 0.500000
O O8 0.441955 0.308971 0.748144
O O9 0.368031 0.223645 0.706242
O O10 0.500000 0.778035 0.843967
O O11 0.500000 0.683181 0.000000
O O12 0.614847 0.149455 0.500000
O O13 0.672565 0.114037 0.266329
O O14 0.559586 0.135694 0.250425
O O15 0.185490 0.500000 0.206000
O O16 0.191446 0.577303 0.000000
O O17 0.500000 0.872098 0.000000
#
# Coordination Sequence:
#
# PCOD9490602 Si02
#       7
#    16   8  16   8  16  16   8
#     4  10  20  36  58  83 112 149 194 239 285 339
#     4   9  18  34  57  85 115 148 192 241 284 328
#     4  10  21  35  52  81 118 150 182 231 288 338
#     4   9  17  31  53  79 109 147 189 224 269 336
#     4  10  21  37  58  84 117 153 187 228 282 343
#     4  10  21  39  60  81 110 148 192 241 289 337
#     4   9  17  33  58  86 114 144 181 227 278 330
#
# _framework density 18.520665999999999
#
# number of rings (size 3 to 8) (size 9 to 14) (size 15 to 20)
#    0.000    2.273    0.909    1.636    1.273    6.182 
#    0.000    4.545    0.000    3.273    0.000    0.000 
#    0.000    0.000    0.000    0.000    0.000    0.000 
#
# Total GULP energy -245440.834445 kJ/mol
# GULP energy per Si atom -5578.200783 kJ/mol
# Density = 1.847851 g / cm^3
# Si number density = 18.520666 Si / 1000 Ang^3
#
#
#
# Elastic Constant Matrix: (Units=GPa)
#
#
# Indices 1 2 3 4 5 6 
#
# 1 71.3615 43.1466 37.2991 0.0000 0.0000 0.0000
# 2 43.1466 95.6171 61.9756 0.0000 0.0000 0.0000
# 3 37.2991 61.9756 75.5710 0.0000 0.0000 0.0000
# 4 0.0000 0.0000 0.0000 20.1516 0.0000 0.0000
# 5 0.0000 0.0000 0.0000 0.0000 17.2376 0.0000
# 6 0.0000 0.0000 0.0000 0.0000 0.0000 24.9671
#
#
#
# Elastic Compliance Matrix: (Units=1/GPa)
#
#
# Indices 1 2 3 4 5 6 
#
# 1 0.020230 -0.005672 -0.005333 0.000000 0.000000 0.000000
# 2 -0.005672 0.023916 -0.016814 0.000000 0.000000 0.000000
# 3 -0.005333 -0.016814 0.029654 0.000000 0.000000 0.000000
# 4 0.000000 0.000000 0.000000 0.049624 0.000000 0.000000
# 5 0.000000 0.000000 0.000000 0.000000 0.058013 0.000000
# 6 0.000000 0.000000 0.000000 0.000000 0.000000 0.040053
#
#
# Mechanical properties :
#
#
# Convention : Reuss Voigt Hill
#
# Bulk Modulus (GPa) = 55.06091 58.59911 56.83001
# Shear Modulus (GPa) = 17.65649 19.14648 18.40149
#
# Velocity S-wave (km/s) = 3.09097 3.21875 3.15551
# Velocity P-wave (km/s) = 6.52172 6.74702 6.63533
#
# Compressibility (1/GPa) = 0.01816171
#
# Stress axis : x y z
#
# Youngs Moduli (GPa) = 49.43138 41.81304 33.72211
#
# Poissons Ratio (x) = 0.23715 0.17985
# Poissons Ratio (y) = 0.28036 0.56701
# Poissons Ratio (z) = 0.26364 0.70305
#
# Static dielectric constant tensor:
#      x y z
#    x 1.645950 0.000000 0.000000 
#    y 0.000000 1.634950 0.000000 
#    z 0.000000 0.000000 1.616080 
# 
# From -- ./inp_files/11893.got.cif
#   From: 2010.05.17/outbox.cif.g08.bks.cpg/sg65_6_cif.got.tgz:11893.got - 2010.06.03 17:01:31.
