data_PCOD9490745
_publ_section_title
;
Structure prediction by ZEFSAII (Michael W. Deem and Ramdas Pophale) SiO2 
 PCOD9490745
Probable space group: C M M M
;
_chemical_formula_sum "Si O2"
_cell_formula_units_Z 66
_cell_length_a 8.206288
_cell_length_b 15.911710
_cell_length_c 26.040477
_cell_angle_alpha 90.000000
_cell_angle_beta 90.000000
_cell_angle_gamma 90.000000
_cell_volume 3400.263273
_symmetry_space_group_name_H-M "C M M M"
_symmetry_group_IT_number 65
_symmetry_cell_setting 'orthorhombic'
loop_
_space_group_symop_operation_xyz
x,y,z
-x,-y,z
x,-y,-z
-x,y,-z
-x,-y,-z
x,y,-z
-x,y,z
x,-y,z
1/2+x,1/2+y,z
1/2-x,1/2-y,z
1/2+x,1/2-y,-z
1/2-x,1/2+y,-z
1/2-x,1/2-y,-z
1/2+x,1/2+y,-z
1/2-x,1/2+y,z
1/2+x,1/2-y,z
loop_
_atom_site_type_symbol
_atom_site_label
_atom_site_fract_x
_atom_site_fract_y
_atom_site_fract_z
Si Si1 0.805478 0.341668 0.374886
Si Si2 0.500000 0.000000 0.000000
Si Si3 0.805190 0.000000 0.441487
Si Si4 0.195183 0.595948 0.734752
Si Si5 0.808636 0.839508 0.156889
Si Si6 0.698324 0.500000 0.083869
O O1 0.750000 0.250000 0.392341
O O2 0.750471 0.417358 0.411096
O O3 0.742097 0.359708 0.316889
O O4 0.000000 0.342319 0.373319
O O5 0.650736 0.000000 0.956087
O O6 0.743069 0.000000 0.500000
O O7 0.000000 0.000000 0.442777
O O8 0.258304 0.500000 0.737433
O O9 0.232343 0.642521 0.787574
O O10 0.000000 0.591479 0.730124
O O11 0.750000 0.750000 0.135866
O O12 0.000000 0.834178 0.165054
O O13 0.778736 0.917065 0.118831
O O14 0.500000 0.500000 0.067587
#
# Coordination Sequence:
#
# PCOD9490745 Si02
#       6
#    16   2   8  16  16   8
#     4  11  23  41  63  93 128 166 210 262 319 383
#     4  12  26  44  84  90 128 182 218 272 346 354
#     4  11  25  44  65  89 117 160 215 272 328 382
#     4  10  20  36  61  94 130 168 209 251 312 390
#     4  11  23  39  64  96 134 169 212 263 316 383
#     4  10  25  46  68 100 131 168 224 272 322 392
#
# _framework density 19.410261999999999
#
# number of rings (size 3 to 8) (size 9 to 14) (size 15 to 20)
#    0.000    1.333    2.424    2.727    3.394    5.333 
#    0.000    0.606    0.000    0.000    0.000    0.000 
#    0.000    0.000    0.000    0.000    0.000    0.000 
#
# Total GULP energy -183996.415889 kJ/mol
# GULP energy per Si atom -5575.648966 kJ/mol
# Density = 1.936608 g / cm^3
# Si number density = 19.410262 Si / 1000 Ang^3
#
#
#
# Elastic Constant Matrix: (Units=GPa)
#
#
# Indices 1 2 3 4 5 6 
#
# 1 74.2661 41.9098 54.2382 0.0000 0.0000 0.0000
# 2 41.9098 175.4851 60.8089 0.0000 0.0000 0.0000
# 3 54.2382 60.8089 118.2553 0.0000 0.0000 0.0000
# 4 0.0000 0.0000 0.0000 -0.0511 0.0000 0.0000
# 5 0.0000 0.0000 0.0000 0.0000 5.6857 0.0000
# 6 0.0000 0.0000 0.0000 0.0000 0.0000 29.6546
#
#
#
# Elastic Compliance Matrix: (Units=1/GPa)
#
#
# Indices 1 2 3 4 5 6 
#
# 1 0.020822 -0.002024 -0.008509 0.000000 0.000000 0.000000
# 2 -0.002024 0.007131 -0.002738 0.000000 0.000000 0.000000
# 3 -0.008509 -0.002738 0.013767 0.000000 0.000000 0.000000
# 4 0.000000 0.000000 0.000000-19.551882 0.000000 0.000000
# 5 0.000000 0.000000 0.000000 0.000000 0.175880 0.000000
# 6 0.000000 0.000000 0.000000 0.000000 0.000000 0.033722
#
#
# Mechanical properties :
#
#
# Convention : Reuss Voigt Hill
#
# Bulk Modulus (GPa) = 65.89183 75.76893 70.83038
# Shear Modulus (GPa) = -0.25948 21.12781 10.43416
#
# Velocity S-wave (km/s) = -0.36603 3.30280 2.32105
# Velocity P-wave (km/s) = 5.81738 7.32563 6.61464
#
# Compressibility (1/GPa) = 0.01517639
#
# Stress axis : x y z
#
# Youngs Moduli (GPa) = 48.02668 140.23654 72.63667
#
# Poissons Ratio (x) = 0.28386 0.61807
# Poissons Ratio (y) = 0.09721 0.19891
# Poissons Ratio (z) = 0.40866 0.38402
#
# Static dielectric constant tensor:
#      x y z
#    x 1.681530 0.000000 0.000000 
#    y 0.000000 1.657290 0.000000 
#    z 0.000000 0.000000 1.670380 
# 
# From -- ./inp_files/72439.got.cif
#   From: 2010.05.17/outbox.cif.g08.bks.cpg/sg65_37_cif.got.tgz:72439.got - 2010.06.03 17:01:31.
