data_PCOD9490623
_publ_section_title
;
Structure prediction by ZEFSAII (Michael W. Deem and Ramdas Pophale) SiO2 
 PCOD9490623
Probable space group: C M M M
;
_chemical_formula_sum "Si O2"
_cell_formula_units_Z 82
_cell_length_a 9.362751
_cell_length_b 24.108832
_cell_length_c 20.873553
_cell_angle_alpha 90.000000
_cell_angle_beta 90.000000
_cell_angle_gamma 90.000000
_cell_volume 4711.682561
_symmetry_space_group_name_H-M "C M M M"
_symmetry_group_IT_number 65
_symmetry_cell_setting 'orthorhombic'
loop_
_space_group_symop_operation_xyz
x,y,z
-x,-y,z
x,-y,-z
-x,y,-z
-x,-y,-z
x,y,-z
-x,y,z
x,-y,z
1/2+x,1/2+y,z
1/2-x,1/2-y,z
1/2+x,1/2-y,-z
1/2-x,1/2+y,-z
1/2-x,1/2-y,-z
1/2+x,1/2+y,-z
1/2-x,1/2+y,z
1/2+x,1/2-y,z
loop_
_atom_site_type_symbol
_atom_site_label
_atom_site_fract_x
_atom_site_fract_y
_atom_site_fract_z
Si Si1 0.172350 0.808680 0.195371
Si Si2 0.835125 0.122681 0.071458
Si Si3 0.669486 0.065701 0.424618
Si Si4 0.252724 0.500000 0.102057
Si Si5 0.828989 0.105342 0.692313
Si Si6 0.668570 0.000000 0.248890
Si Si7 0.000000 0.500000 0.000000
O O1 0.250000 0.750000 0.196380
O O2 0.223442 0.843368 0.132384
O O3 0.200396 0.843060 0.260577
O O4 0.000000 0.802291 0.191268
O O5 0.000000 0.139670 0.066539
O O6 0.832849 0.057534 0.088407
O O7 0.769048 0.130707 0.000000
O O8 0.693950 0.075626 0.500000
O O9 0.500000 0.073015 0.412070
O O10 0.763022 0.104631 0.378892
O O11 0.701783 0.000000 0.412759
O O12 0.194779 0.500000 0.173546
O O13 0.122078 0.500000 0.054655
O O14 0.748053 0.053566 0.723940
O O15 0.000000 0.096983 0.690538
O O16 0.500000 0.000000 0.264133
#
# Coordination Sequence:
#
# PCOD9490623 Si02
#       7
#    16  16  16   8  16   8   2
#     4  10  23  41  57  80 107 143 192 242 287 334
#     4  10  20  36  59  80 106 142 183 227 281 341
#     4   9  18  33  54  85 124 158 185 216 265 332
#     4  12  21  35  53  79 116 144 179 225 281 342
#     4  11  22  36  57  84 117 148 188 235 276 330
#     4  12  23  33  52  84 113 149 186 223 283 341
#     4  12  24  36  46  80 128 144 182 230 280 346
#
# _framework density 17.403549000000002
#
# number of rings (size 3 to 8) (size 9 to 14) (size 15 to 20)
#    0.000    1.561    4.390    1.756    0.000    3.902 
#    1.756    0.976    0.000    0.585    0.000    0.000 
#    0.000    0.000    0.000    0.000    0.000    0.000 
#
# Total GULP energy -228299.871239 kJ/mol
# GULP energy per Si atom -5568.289542 kJ/mol
# Density = 1.736394 g / cm^3
# Si number density = 17.403549 Si / 1000 Ang^3
#
#
#
# Elastic Constant Matrix: (Units=GPa)
#
#
# Indices 1 2 3 4 5 6 
#
# 1 57.1152 38.4196 53.7976 0.0000 0.0000 0.0000
# 2 38.4196 102.7199 61.9999 0.0000 0.0000 0.0000
# 3 53.7976 61.9999 157.3589 0.0000 0.0000 0.0000
# 4 0.0000 0.0000 0.0000 20.3136 0.0000 0.0000
# 5 0.0000 0.0000 0.0000 0.0000 32.8542 0.0000
# 6 0.0000 0.0000 0.0000 0.0000 0.0000 29.6518
#
#
#
# Elastic Compliance Matrix: (Units=1/GPa)
#
#
# Indices 1 2 3 4 5 6 
#
# 1 0.028625 -0.006297 -0.007305 0.000000 0.000000 0.000000
# 2 -0.006297 0.014158 -0.003425 0.000000 0.000000 0.000000
# 3 -0.007305 -0.003425 0.010202 0.000000 0.000000 0.000000
# 4 0.000000 0.000000 0.000000 0.049228 0.000000 0.000000
# 5 0.000000 0.000000 0.000000 0.000000 0.030438 0.000000
# 6 0.000000 0.000000 0.000000 0.000000 0.000000 0.033725
#
#
# Mechanical properties :
#
#
# Convention : Reuss Voigt Hill
#
# Bulk Modulus (GPa) = 52.82724 69.51422 61.17073
# Shear Modulus (GPa) = 24.18478 27.42903 25.80691
#
# Velocity S-wave (km/s) = 3.73184 3.97427 3.85496
# Velocity P-wave (km/s) = 6.99922 7.81595 7.41883
#
# Compressibility (1/GPa) = 0.01892963
#
# Stress axis : x y z
#
# Youngs Moduli (GPa) = 34.93407 70.63120 98.01956
#
# Poissons Ratio (x) = 0.44478 0.71606
# Poissons Ratio (y) = 0.21999 0.33576
# Poissons Ratio (z) = 0.25520 0.24194
#
# Static dielectric constant tensor:
#      x y z
#    x 1.582780 0.000000 0.000000 
#    y 0.000000 1.570410 0.000000 
#    z 0.000000 0.000000 1.675100 
# 
# From -- ./inp_files/59721.got.cif
#   From: 2010.05.17/outbox.cif.g08.bks.cpg/sg65_30_cif.got.tgz:59721.got - 2010.06.03 17:01:31.
