data_PCOD9490658
_publ_section_title
;
Structure prediction by ZEFSAII (Michael W. Deem and Ramdas Pophale) SiO2 
 PCOD9490658
Probable space group: C M M M
;
_chemical_formula_sum "Si O2"
_cell_formula_units_Z 72
_cell_length_a 15.305377
_cell_length_b 11.465096
_cell_length_c 18.600866
_cell_angle_alpha 90.000000
_cell_angle_beta 90.000000
_cell_angle_gamma 90.000000
_cell_volume 3264.035633
_symmetry_space_group_name_H-M "C M M M"
_symmetry_group_IT_number 65
_symmetry_cell_setting 'orthorhombic'
loop_
_space_group_symop_operation_xyz
x,y,z
-x,-y,z
x,-y,-z
-x,y,-z
-x,-y,-z
x,y,-z
-x,y,z
x,-y,z
1/2+x,1/2+y,z
1/2-x,1/2-y,z
1/2+x,1/2-y,-z
1/2-x,1/2+y,-z
1/2-x,1/2-y,-z
1/2+x,1/2+y,-z
1/2-x,1/2+y,z
1/2+x,1/2-y,z
loop_
_atom_site_type_symbol
_atom_site_label
_atom_site_fract_x
_atom_site_fract_y
_atom_site_fract_z
Si Si1 0.656219 0.700964 0.191721
Si Si2 0.605826 0.128654 0.414768
Si Si3 0.102677 0.870509 0.346704
Si Si4 0.106969 0.000000 0.914490
Si Si5 0.896304 0.370634 0.923681
O O1 0.750000 0.750000 0.213693
O O2 0.610993 0.647087 0.261063
O O3 0.649787 0.608670 0.126773
O O4 0.615766 0.811387 0.152330
O O5 0.622742 0.132521 0.500000
O O6 0.500000 0.128334 0.405108
O O7 0.638874 0.250073 0.380675
O O8 0.636394 0.000000 0.387595
O O9 0.000000 0.873893 0.366099
O O10 0.138926 0.000000 0.365863
O O11 0.000000 0.000000 0.903468
O O12 0.120857 0.000000 0.000000
O O13 0.858131 0.500000 0.921593
O O14 0.000000 0.377674 0.930486
O O15 0.865279 0.314733 0.000000
#
# Coordination Sequence:
#
# PCOD9490658 Si02
#       5
#    16  16  16   8  16
#     4  12  25  38  57  85 119 155 199 254 313 366
#     4   8  15  30  54  88 125 157 198 255 313 368
#     4  10  20  36  59  85 120 165 210 255 306 374
#     4  11  24  44  68  88 114 162 214 257 314 388
#     4   9  19  36  57  80 107 141 185 240 300 366
#
# _framework density 22.058582000000001
#
# number of rings (size 3 to 8) (size 9 to 14) (size 15 to 20)
#    0.000    2.111    1.111    4.000    1.556    4.889 
#    0.000    4.444    0.000    0.667    0.000    0.000 
#    0.000    0.000    0.000    0.000    0.000    0.000 
#
# Total GULP energy -200462.608835 kJ/mol
# GULP energy per Si atom -5568.405801 kJ/mol
# Density = 2.200838 g / cm^3
# Si number density = 22.058582 Si / 1000 Ang^3
#
#
#
# Elastic Constant Matrix: (Units=GPa)
#
#
# Indices 1 2 3 4 5 6 
#
# 1 31.4906 6.3501 -7.2153 0.0000 0.0000 0.0000
# 2 6.3501 180.8376 61.7136 0.0000 0.0000 0.0000
# 3 -7.2153 61.7136 57.0683 0.0000 0.0000 0.0000
# 4 0.0000 0.0000 0.0000 96.3346 0.0000 0.0000
# 5 0.0000 0.0000 0.0000 0.0000 5.4597 0.0000
# 6 0.0000 0.0000 0.0000 0.0000 0.0000 12.2176
#
#
#
# Elastic Compliance Matrix: (Units=1/GPa)
#
#
# Indices 1 2 3 4 5 6 
#
# 1 0.034695 -0.004303 0.009040 0.000000 0.000000 0.000000
# 2 -0.004303 0.009298 -0.010599 0.000000 0.000000 0.000000
# 3 0.009040 -0.010599 0.030128 0.000000 0.000000 0.000000
# 4 0.000000 0.000000 0.000000 0.010380 0.000000 0.000000
# 5 0.000000 0.000000 0.000000 0.000000 0.183160 0.000000
# 6 0.000000 0.000000 0.000000 0.000000 0.000000 0.081849
#
#
# Mechanical properties :
#
#
# Convention : Reuss Voigt Hill
#
# Bulk Modulus (GPa) = 16.02668 43.45481 29.74074
# Shear Modulus (GPa) = 13.08791 36.70559 24.89675
#
# Velocity S-wave (km/s) = 2.43847 4.08365 3.36321
# Velocity P-wave (km/s) = 3.89993 6.47900 5.34728
#
# Compressibility (1/GPa) = 0.06239596
#
# Stress axis : x y z
#
# Youngs Moduli (GPa) = 28.82288 107.55026 33.19225
#
# Poissons Ratio (x) = 0.46283 -0.30007
# Poissons Ratio (y) = 0.12404 0.35180
# Poissons Ratio (z) = -0.26057 1.13992
#
# Static dielectric constant tensor:
#      x y z
#    x 1.810340 0.000000 0.000000 
#    y 0.000000 1.937690 0.000000 
#    z 0.000000 0.000000 1.776350 
# 
# From -- ./inp_files/54104.got.cif
#   From: 2010.05.17/outbox.cif.g08.bks.cpg/sg65_28_cif.got.tgz:54104.got - 2010.06.03 17:01:31.
