data_PCOD9490641
_publ_section_title
;
Structure prediction by ZEFSAII (Michael W. Deem and Ramdas Pophale) SiO2 
 PCOD9490641
Probable space group: C M M M
;
_chemical_formula_sum "Si O2"
_cell_formula_units_Z 72
_cell_length_a 16.307470
_cell_length_b 8.274765
_cell_length_c 26.696193
_cell_angle_alpha 90.000000
_cell_angle_beta 90.000000
_cell_angle_gamma 90.000000
_cell_volume 3602.397151
_symmetry_space_group_name_H-M "C M M M"
_symmetry_group_IT_number 65
_symmetry_cell_setting 'orthorhombic'
loop_
_space_group_symop_operation_xyz
x,y,z
-x,-y,z
x,-y,-z
-x,y,-z
-x,-y,-z
x,y,-z
-x,y,z
x,-y,z
1/2+x,1/2+y,z
1/2-x,1/2-y,z
1/2+x,1/2-y,-z
1/2-x,1/2+y,-z
1/2-x,1/2-y,-z
1/2+x,1/2+y,-z
1/2-x,1/2+y,z
1/2+x,1/2-y,z
loop_
_atom_site_type_symbol
_atom_site_label
_atom_site_fract_x
_atom_site_fract_y
_atom_site_fract_z
Si Si1 0.500000 0.195889 0.381129
Si Si2 0.407409 0.804753 0.107581
Si Si3 0.160331 0.694991 0.442086
Si Si4 0.162073 0.807857 0.790939
Si Si5 0.000000 0.804494 0.733245
Si Si6 0.843384 0.695227 0.000000
O O1 0.582657 0.250531 0.409680
O O2 0.500000 0.253657 0.324270
O O3 0.500000 0.000000 0.381952
O O4 0.500000 0.751945 0.119417
O O5 0.349128 0.743599 0.151333
O O6 0.384269 0.748943 0.051780
O O7 0.405079 0.000000 0.107638
O O8 0.151640 0.749568 0.500000
O O9 0.159483 0.500000 0.442163
O O10 0.250000 0.750000 0.423818
O O11 0.250000 0.750000 0.771633
O O12 0.082724 0.744916 0.760757
O O13 0.160840 0.000000 0.788438
O O14 0.000000 0.000000 0.736241
O O15 0.750000 0.750000 0.000000
O O16 0.847979 0.500000 0.000000
#
# Coordination Sequence:
#
# PCOD9490641 Si02
#       6
#     8  16  16  16   8   8
#     4  10  21  36  58  84 113 151 194 235 281 337
#     4  10  20  36  59  84 112 147 186 230 281 339
#     4   9  18  34  56  84 118 154 191 232 278 331
#     4  11  23  41  62  85 112 147 190 238 290 344
#     4  10  24  43  59  80 115 150 187 241 292 337
#     4  10  21  35  51  79 115 148 183 225 275 337
#
# _framework density 19.986691
#
# number of rings (size 3 to 8) (size 9 to 14) (size 15 to 20)
#    0.000    2.000    1.111    2.000    0.000    8.889 
#    0.000    4.444    0.000    5.333    0.000    0.000 
#    0.000    0.000    0.000    0.000    0.000    0.000 
#
# Total GULP energy -201051.036081 kJ/mol
# GULP energy per Si atom -5584.751002 kJ/mol
# Density = 1.994120 g / cm^3
# Si number density = 19.986691 Si / 1000 Ang^3
#
#
#
# Elastic Constant Matrix: (Units=GPa)
#
#
# Indices 1 2 3 4 5 6 
#
# 1 191.0346 19.6042 84.4067 0.0000 0.0000 0.0000
# 2 19.6042 9.7118 10.2636 0.0000 0.0000 0.0000
# 3 84.4067 10.2636 117.0775 0.0000 0.0000 0.0000
# 4 0.0000 0.0000 0.0000 26.8328 0.0000 0.0000
# 5 0.0000 0.0000 0.0000 0.0000 8.6857 0.0000
# 6 0.0000 0.0000 0.0000 0.0000 0.0000 30.9035
#
#
#
# Elastic Compliance Matrix: (Units=1/GPa)
#
#
# Indices 1 2 3 4 5 6 
#
# 1 0.008828 -0.012227 -0.005293 0.000000 0.000000 0.000000
# 2 -0.012227 0.130415 -0.002618 0.000000 0.000000 0.000000
# 3 -0.005293 -0.002618 0.012587 0.000000 0.000000 0.000000
# 4 0.000000 0.000000 0.000000 0.037268 0.000000 0.000000
# 5 0.000000 0.000000 0.000000 0.000000 0.115132 0.000000
# 6 0.000000 0.000000 0.000000 0.000000 0.000000 0.032359
#
#
# Mechanical properties :
#
#
# Convention : Reuss Voigt Hill
#
# Bulk Modulus (GPa) = 8.96419 60.70809 34.83614
# Shear Modulus (GPa) = 12.07592 26.85437 19.46515
#
# Velocity S-wave (km/s) = 2.46071 3.66951 3.12413
# Velocity P-wave (km/s) = 3.54518 6.95657 5.52097
#
# Compressibility (1/GPa) = 0.11155496
#
# Stress axis : x y z
#
# Youngs Moduli (GPa) = 113.27831 7.66783 79.45007
#
# Poissons Ratio (x) = 0.09375 0.42049
# Poissons Ratio (y) = 1.38500 0.20801
# Poissons Ratio (z) = 0.59953 0.02008
#
# Static dielectric constant tensor:
#      x y z
#    x 1.714110 0.000000 0.000000 
#    y 0.000000 1.694650 0.000000 
#    z 0.000000 0.000000 1.686730 
# 
# From -- ./inp_files/72573.got.cif
#   From: 2010.05.17/outbox.cif.g08.bks.cpg/sg65_37_cif.got.tgz:72573.got - 2010.06.03 17:01:31.
