data_PCOD9490807
_publ_section_title
;
Structure prediction by ZEFSAII (Michael W. Deem and Ramdas Pophale) SiO2 
 PCOD9490807
Probable space group: C M M M
;
_chemical_formula_sum "Si O2"
_cell_formula_units_Z 72
_cell_length_a 19.463260
_cell_length_b 22.725533
_cell_length_c 9.236132
_cell_angle_alpha 90.000000
_cell_angle_beta 90.000000
_cell_angle_gamma 90.000000
_cell_volume 4085.260860
_symmetry_space_group_name_H-M "C M M M"
_symmetry_group_IT_number 65
_symmetry_cell_setting 'orthorhombic'
loop_
_space_group_symop_operation_xyz
x,y,z
-x,-y,z
x,-y,-z
-x,y,-z
-x,-y,-z
x,y,-z
-x,y,z
x,-y,z
1/2+x,1/2+y,z
1/2-x,1/2-y,z
1/2+x,1/2-y,-z
1/2-x,1/2+y,-z
1/2-x,1/2-y,-z
1/2+x,1/2+y,-z
1/2-x,1/2+y,z
1/2+x,1/2-y,z
loop_
_atom_site_type_symbol
_atom_site_label
_atom_site_fract_x
_atom_site_fract_y
_atom_site_fract_z
Si Si1 0.419218 0.727654 0.328180
Si Si2 0.418348 0.500000 0.171715
Si Si3 0.156731 0.107664 0.326308
Si Si4 0.580415 0.149984 0.172575
Si Si5 0.689568 0.930572 0.672630
O O1 0.410684 0.739139 0.500000
O O2 0.500000 0.713552 0.303815
O O3 0.373014 0.671685 0.288975
O O4 0.402332 0.786376 0.240322
O O5 0.500000 0.500000 0.195374
O O6 0.385083 0.442755 0.244594
O O7 0.405207 0.500000 0.000000
O O8 0.148199 0.099599 0.500000
O O9 0.237110 0.099208 0.293579
O O10 0.500000 0.138593 0.206218
O O11 0.629149 0.101309 0.242137
O O12 0.588177 0.151456 0.000000
O O13 0.678051 0.924655 0.500000
O O14 0.693970 0.000000 0.705822
#
# Coordination Sequence:
#
# PCOD9490807 Si02
#       5
#    16   8  16  16  16
#     4   9  18  34  58  85 111 144 187 233 277 323
#     4  11  23  35  51  81 118 155 192 229 273 324
#     4  10  20  37  59  83 112 148 191 233 276 329
#     4  10  22  39  58  81 111 147 185 229 283 342
#     4  10  21  38  59  83 112 145 185 234 284 332
#
# _framework density 17.624333
#
# number of rings (size 3 to 8) (size 9 to 14) (size 15 to 20)
#    0.000    2.111    1.111    1.667    0.000    6.667 
#    0.000    8.889    0.000    0.000    0.000    0.000 
#    0.000    0.000    0.000    0.000    0.000    0.000 
#
# Total GULP energy -201022.913331 kJ/mol
# GULP energy per Si atom -5583.969815 kJ/mol
# Density = 1.758422 g / cm^3
# Si number density = 17.624333 Si / 1000 Ang^3
#
#
#
# Elastic Constant Matrix: (Units=GPa)
#
#
# Indices 1 2 3 4 5 6 
#
# 1 101.5411 79.6150 57.5002 0.0000 0.0000 0.0000
# 2 79.6150 106.8602 48.4517 0.0000 0.0000 0.0000
# 3 57.5002 48.4517 38.7724 0.0000 0.0000 0.0000
# 4 0.0000 0.0000 0.0000 -6.1148 0.0000 0.0000
# 5 0.0000 0.0000 0.0000 0.0000 26.2472 0.0000
# 6 0.0000 0.0000 0.0000 0.0000 0.0000 69.4906
#
#
#
# Elastic Compliance Matrix: (Units=1/GPa)
#
#
# Indices 1 2 3 4 5 6 
#
# 1 0.066814 -0.011195 -0.085096 0.000000 0.000000 0.000000
# 2 -0.011195 0.023468 -0.012724 0.000000 0.000000 0.000000
# 3 -0.085096 -0.012724 0.167891 0.000000 0.000000 0.000000
# 4 0.000000 0.000000 0.000000 -0.163537 0.000000 0.000000
# 5 0.000000 0.000000 0.000000 0.000000 0.038099 0.000000
# 6 0.000000 0.000000 0.000000 0.000000 0.000000 0.014390
#
#
# Mechanical properties :
#
#
# Convention : Reuss Voigt Hill
#
# Bulk Modulus (GPa) = 24.91132 68.70083 46.80608
# Shear Modulus (GPa) = 13.20871 22.03170 17.62020
#
# Velocity S-wave (km/s) = 2.74059 3.53947 3.16534
# Velocity P-wave (km/s) = 4.91729 7.46787 6.32253
#
# Compressibility (1/GPa) = 0.04014239
#
# Stress axis : x y z
#
# Youngs Moduli (GPa) = 14.96690 42.61083 5.95624
#
# Poissons Ratio (x) = 0.47705 0.50685
# Poissons Ratio (y) = 0.16756 0.07579
# Poissons Ratio (z) = 1.27363 0.54217
#
# Static dielectric constant tensor:
#      x y z
#    x 1.586500 0.000000 0.000000 
#    y 0.000000 1.568210 0.000000 
#    z 0.000000 0.000000 1.582080 
# 
# From -- ./inp_files/9232.got.cif
#   From: 2010.05.17/outbox.cif.g08.bks.cpg/sg65_5_cif.got.tgz:9232.got - 2010.06.03 17:01:31.
