data_PCOD9490655
_publ_section_title
;
Structure prediction by ZEFSAII (Michael W. Deem and Ramdas Pophale) SiO2 
 PCOD9490655
Probable space group: C M M M
;
_chemical_formula_sum "Si O2"
_cell_formula_units_Z 72
_cell_length_a 15.852240
_cell_length_b 8.961991
_cell_length_c 25.697502
_cell_angle_alpha 90.000000
_cell_angle_beta 90.000000
_cell_angle_gamma 90.000000
_cell_volume 3650.783263
_symmetry_space_group_name_H-M "C M M M"
_symmetry_group_IT_number 65
_symmetry_cell_setting 'orthorhombic'
loop_
_space_group_symop_operation_xyz
x,y,z
-x,-y,z
x,-y,-z
-x,y,-z
-x,-y,-z
x,y,-z
-x,y,z
x,-y,z
1/2+x,1/2+y,z
1/2-x,1/2-y,z
1/2+x,1/2-y,-z
1/2-x,1/2+y,-z
1/2-x,1/2-y,-z
1/2+x,1/2+y,-z
1/2-x,1/2+y,z
1/2+x,1/2-y,z
loop_
_atom_site_type_symbol
_atom_site_label
_atom_site_fract_x
_atom_site_fract_y
_atom_site_fract_z
Si Si1 0.899790 0.167692 0.838700
Si Si2 0.657210 0.178532 0.942893
Si Si3 0.397421 0.826188 0.266422
Si Si4 0.661546 0.679050 0.627555
Si Si5 0.500000 0.681531 0.440402
O O1 0.886420 0.252040 0.892785
O O2 0.868175 0.258240 0.788631
O O3 0.000000 0.155502 0.831224
O O4 0.863769 0.000000 0.840935
O O5 0.750000 0.250000 0.943302
O O6 0.661909 0.000000 0.938020
O O7 0.618436 0.212100 0.000000
O O8 0.500000 0.816706 0.269063
O O9 0.359830 0.735474 0.314485
O O10 0.374299 0.000000 0.270206
O O11 0.667024 0.500000 0.627076
O O12 0.750000 0.750000 0.610888
O O13 0.583914 0.726830 0.590679
O O14 0.500000 0.500000 0.440830
O O15 0.500000 0.732986 0.500000
#
# Coordination Sequence:
#
# PCOD9490655 Si02
#       5
#    16  16  16  16   8
#     4  10  21  36  56  83 114 148 188 234 288 349
#     4  10  21  37  56  77 105 143 187 236 291 349
#     4  10  20  36  59  85 117 153 193 243 300 358
#     4  11  22  38  62  92 125 163 208 253 302 361
#     4   9  20  40  65  91 125 169 208 249 304 359
#
# _framework density 19.721793999999999
#
# number of rings (size 3 to 8) (size 9 to 14) (size 15 to 20)
#    0.000    1.889    1.111    2.667    0.000    5.333 
#    0.000    6.667    0.000    4.667    0.000    0.000 
#    0.000    0.000    0.000    0.000    0.000    0.000 
#
# Total GULP energy -201055.298969 kJ/mol
# GULP energy per Si atom -5584.869416 kJ/mol
# Density = 1.967691 g / cm^3
# Si number density = 19.721794 Si / 1000 Ang^3
#
#
#
# Elastic Constant Matrix: (Units=GPa)
#
#
# Indices 1 2 3 4 5 6 
#
# 1 77.0607 41.8342 58.6899 0.0000 0.0000 0.0000
# 2 41.8342 107.4610 59.8756 0.0000 0.0000 0.0000
# 3 58.6899 59.8756 170.1094 0.0000 0.0000 0.0000
# 4 0.0000 0.0000 0.0000 16.7227 0.0000 0.0000
# 5 0.0000 0.0000 0.0000 0.0000 -21.9960 0.0000
# 6 0.0000 0.0000 0.0000 0.0000 0.0000 29.6522
#
#
#
# Elastic Compliance Matrix: (Units=1/GPa)
#
#
# Indices 1 2 3 4 5 6 
#
# 1 0.019372 -0.004749 -0.005012 0.000000 0.000000 0.000000
# 2 -0.004749 0.012740 -0.002846 0.000000 0.000000 0.000000
# 3 -0.005012 -0.002846 0.008610 0.000000 0.000000 0.000000
# 4 0.000000 0.000000 0.000000 0.059799 0.000000 0.000000
# 5 0.000000 0.000000 0.000000 0.000000 -0.045463 0.000000
# 6 0.000000 0.000000 0.000000 0.000000 0.000000 0.033724
#
#
# Mechanical properties :
#
#
# Convention : Reuss Voigt Hill
#
# Bulk Modulus (GPa) = 64.48271 75.04785 69.76528
# Shear Modulus (GPa) = 41.95853 17.82452 29.89153
#
# Velocity S-wave (km/s) = 4.61751 3.00958 3.89737
# Velocity P-wave (km/s) = 7.82277 7.08609 7.46352
#
# Compressibility (1/GPa) = 0.01550803
#
# Stress axis : x y z
#
# Youngs Moduli (GPa) = 51.62080 78.49237 116.15057
#
# Poissons Ratio (x) = 0.37275 0.58216
# Poissons Ratio (y) = 0.24514 0.33055
# Poissons Ratio (z) = 0.25873 0.22338
#
# Static dielectric constant tensor:
#      x y z
#    x 1.718490 0.000000 0.000000 
#    y 0.000000 1.673500 0.000000 
#    z 0.000000 0.000000 1.676980 
# 
# From -- ./inp_files/72478.got.cif
#   From: 2010.05.17/outbox.cif.g08.bks.cpg/sg65_37_cif.got.tgz:72478.got - 2010.06.03 17:01:31.
