data_PCOD9490335
_publ_section_title
;
Structure prediction by ZEFSAII (Michael W. Deem and Ramdas Pophale) SiO2 
 PCOD9490335
Probable space group: C M M M
;
_chemical_formula_sum "Si O2"
_cell_formula_units_Z 72
_cell_length_a 14.998840
_cell_length_b 8.843150
_cell_length_c 29.249919
_cell_angle_alpha 90.000000
_cell_angle_beta 90.000000
_cell_angle_gamma 90.000000
_cell_volume 3879.621271
_symmetry_space_group_name_H-M "C M M M"
_symmetry_group_IT_number 65
_symmetry_cell_setting 'orthorhombic'
loop_
_space_group_symop_operation_xyz
x,y,z
-x,-y,z
x,-y,-z
-x,y,-z
-x,-y,-z
x,y,-z
-x,y,z
x,-y,z
1/2+x,1/2+y,z
1/2-x,1/2-y,z
1/2+x,1/2-y,-z
1/2-x,1/2+y,-z
1/2-x,1/2-y,-z
1/2+x,1/2+y,-z
1/2-x,1/2+y,z
1/2+x,1/2-y,z
loop_
_atom_site_type_symbol
_atom_site_label
_atom_site_fract_x
_atom_site_fract_y
_atom_site_fract_z
Si Si1 0.000000 0.316812 0.448085
Si Si2 0.000000 0.181669 0.689067
Si Si3 0.657790 0.178474 0.854662
Si Si4 0.149877 0.682926 0.375406
Si Si5 0.500000 0.679904 0.796857
Si Si6 0.107835 0.175743 0.948850
O O1 0.910829 0.274769 0.419811
O O2 0.000000 0.500000 0.449307
O O3 0.000000 0.260109 0.500000
O O4 0.911914 0.253159 0.665631
O O5 0.000000 0.212609 0.743047
O O6 0.000000 0.000000 0.681907
O O7 0.750000 0.250000 0.839868
O O8 0.583253 0.250253 0.822946
O O9 0.642084 0.224986 0.907409
O O10 0.657531 0.000000 0.850674
O O11 0.154493 0.500000 0.372720
O O12 0.250000 0.750000 0.376141
O O13 0.500000 0.500000 0.803022
O O14 0.000000 0.179552 0.947659
O O15 0.134371 0.000000 0.942040
O O16 0.135504 0.222982 0.000000
#
# Coordination Sequence:
#
# PCOD9490335 Si02
#       6
#     8   8  16  16   8  16
#     4   8  16  32  53  81 119 162 205 246 290 339
#     4  10  22  40  63  86 111 147 190 240 297 352
#     4  12  25  40  61  88 117 152 189 231 281 340
#     4  10  20  35  58  86 119 157 197 245 293 343
#     4  11  24  44  65  86 115 147 184 238 295 348
#     4   9  18  35  60  86 115 151 187 228 278 332
#
# _framework density 18.558510999999999
#
# number of rings (size 3 to 8) (size 9 to 14) (size 15 to 20)
#    0.000    1.889    1.111    4.667    0.000    4.000 
#    0.000    1.111    0.000   11.333    0.000    0.000 
#    0.000    0.000    0.000    0.000    0.000    0.000 
#
# Total GULP energy -201024.227800 kJ/mol
# GULP energy per Si atom -5584.006328 kJ/mol
# Density = 1.851627 g / cm^3
# Si number density = 18.558511 Si / 1000 Ang^3
#
#
#
# Elastic Constant Matrix: (Units=GPa)
#
#
# Indices 1 2 3 4 5 6 
#
# 1 183.8483 73.9817 95.2238 0.0000 0.0000 0.0000
# 2 73.9817 102.8740 90.0572 0.0000 0.0000 0.0000
# 3 95.2238 90.0572 152.2630 0.0000 0.0000 0.0000
# 4 0.0000 0.0000 0.0000 26.2189 0.0000 0.0000
# 5 0.0000 0.0000 0.0000 0.0000 27.2311 0.0000
# 6 0.0000 0.0000 0.0000 0.0000 0.0000 32.6600
#
#
#
# Elastic Compliance Matrix: (Units=1/GPa)
#
#
# Indices 1 2 3 4 5 6 
#
# 1 0.008474 -0.003017 -0.003515 0.000000 0.000000 0.000000
# 2 -0.003017 0.021232 -0.010671 0.000000 0.000000 0.000000
# 3 -0.003515 -0.010671 0.015077 0.000000 0.000000 0.000000
# 4 0.000000 0.000000 0.000000 0.038140 0.000000 0.000000
# 5 0.000000 0.000000 0.000000 0.000000 0.036723 0.000000
# 6 0.000000 0.000000 0.000000 0.000000 0.000000 0.030619
#
#
# Mechanical properties :
#
#
# Convention : Reuss Voigt Hill
#
# Bulk Modulus (GPa) = 96.36635 106.39006 101.37821
# Shear Modulus (GPa) = 26.57743 29.20350 27.89047
#
# Velocity S-wave (km/s) = 3.78840 3.97115 3.88085
# Velocity P-wave (km/s) = 8.43649 8.85878 8.65021
#
# Compressibility (1/GPa) = 0.01037707
#
# Stress axis : x y z
#
# Youngs Moduli (GPa) = 118.00901 47.09958 66.32433
#
# Poissons Ratio (x) = 0.14209 0.23315
# Poissons Ratio (y) = 0.35600 0.70775
# Poissons Ratio (z) = 0.41483 0.50260
#
# Static dielectric constant tensor:
#      x y z
#    x 1.628570 0.000000 0.000000 
#    y 0.000000 1.617200 0.000000 
#    z 0.000000 0.000000 1.635300 
# 
# From -- ./inp_files/74646.got.cif
#   From: 2010.05.17/outbox.cif.g08.bks.cpg/sg65_38_cif.got.tgz:74646.got - 2010.06.03 17:01:31.
