data_PCOD9490420
_publ_section_title
;
Structure prediction by ZEFSAII (Michael W. Deem and Ramdas Pophale) SiO2 
 PCOD9490420
Probable space group: C M M M
;
_chemical_formula_sum "Si O2"
_cell_formula_units_Z 88
_cell_length_a 28.479882
_cell_length_b 8.793126
_cell_length_c 21.916763
_cell_angle_alpha 90.000000
_cell_angle_beta 90.000000
_cell_angle_gamma 90.000000
_cell_volume 5488.553392
_symmetry_space_group_name_H-M "C M M M"
_symmetry_group_IT_number 65
_symmetry_cell_setting 'orthorhombic'
loop_
_space_group_symop_operation_xyz
x,y,z
-x,-y,z
x,-y,-z
-x,y,-z
-x,-y,-z
x,y,-z
-x,y,z
x,-y,z
1/2+x,1/2+y,z
1/2-x,1/2-y,z
1/2+x,1/2-y,-z
1/2-x,1/2+y,-z
1/2-x,1/2-y,-z
1/2+x,1/2+y,-z
1/2-x,1/2+y,z
1/2+x,1/2-y,z
loop_
_atom_site_type_symbol
_atom_site_label
_atom_site_fract_x
_atom_site_fract_y
_atom_site_fract_z
Si Si1 0.444026 0.683005 0.699360
Si Si2 0.697772 0.682510 0.000000
Si Si3 0.608285 0.819708 0.815026
Si Si4 0.197763 0.182426 0.134252
Si Si5 0.556646 0.679650 0.931165
Si Si6 0.443795 0.316726 0.565599
O O1 0.500000 0.711630 0.703562
O O2 0.437946 0.500000 0.703185
O O3 0.417984 0.760729 0.755062
O O4 0.426969 0.736317 0.632036
O O5 0.750000 0.750000 0.000000
O O6 0.678560 0.726574 0.933849
O O7 0.699713 0.500000 0.000000
O O8 0.660065 0.747669 0.819331
O O9 0.579798 0.765401 0.874955
O O10 0.611452 0.000000 0.814870
O O11 0.250000 0.250000 0.140978
O O12 0.200131 0.000000 0.137651
O O13 0.500000 0.691878 0.927393
O O14 0.568648 0.500000 0.926202
O O15 0.570453 0.729138 0.000000
O O16 0.425335 0.258761 0.500000
O O17 0.500000 0.290528 0.565504
O O18 0.437791 0.500000 0.565491
#
# Coordination Sequence:
#
# PCOD9490420 Si02
#       6
#    16   8  16  16  16  16
#     4   9  17  30  48  69  95 129 165 198 234 276
#     4   8  16  30  50  70  85 104 131 172 226 281
#     4  12  24  33  45  68  96 127 159 193 234 281
#     4  10  20  36  54  72  92 116 148 190 240 292
#     4   9  19  36  54  68  85 115 157 202 244 284
#     4   7  10  19  39  67  94 119 152 194 234 271
#
# _framework density 16.033367999999999
#
# number of rings (size 3 to 8) (size 9 to 14) (size 15 to 20)
#    0.000    2.727    0.000    4.909    1.273    4.000 
#    0.000    0.909    0.000    0.545    0.000    2.545 
#    0.000    0.727    0.000    2.000    0.000    2.909 
#
# Total GULP energy -245102.751873 kJ/mol
# GULP energy per Si atom -5570.517088 kJ/mol
# Density = 1.599688 g / cm^3
# Si number density = 16.033368 Si / 1000 Ang^3
#
#
#
# Elastic Constant Matrix: (Units=GPa)
#
#
# Indices 1 2 3 4 5 6 
#
# 1 50.8294 37.4731 52.7685 0.0000 0.0000 0.0000
# 2 37.4731 47.5515 53.9879 0.0000 0.0000 0.0000
# 3 52.7685 53.9879 151.9737 0.0000 0.0000 0.0000
# 4 0.0000 0.0000 0.0000 1.8654 0.0000 0.0000
# 5 0.0000 0.0000 0.0000 0.0000 10.3028 0.0000
# 6 0.0000 0.0000 0.0000 0.0000 0.0000 19.3077
#
#
#
# Elastic Compliance Matrix: (Units=1/GPa)
#
#
# Indices 1 2 3 4 5 6 
#
# 1 0.049637 -0.032763 -0.005596 0.000000 0.000000 0.000000
# 2 -0.032763 0.056871 -0.008827 0.000000 0.000000 0.000000
# 3 -0.005596 -0.008827 0.011659 0.000000 0.000000 0.000000
# 4 0.000000 0.000000 0.000000 0.536075 0.000000 0.000000
# 5 0.000000 0.000000 0.000000 0.000000 0.097061 0.000000
# 6 0.000000 0.000000 0.000000 0.000000 0.000000 0.051793
#
#
# Mechanical properties :
#
#
# Convention : Reuss Voigt Hill
#
# Bulk Modulus (GPa) = 42.02680 59.86817 50.94748
# Shear Modulus (GPa) = 5.52242 13.37019 9.44630
#
# Velocity S-wave (km/s) = 1.85790 2.89086 2.42991
# Velocity P-wave (km/s) = 5.55620 6.96876 6.30218
#
# Compressibility (1/GPa) = 0.02379434
#
# Stress axis : x y z
#
# Youngs Moduli (GPa) = 20.14609 17.58377 85.77106
#
# Poissons Ratio (x) = 0.57610 0.47999
# Poissons Ratio (y) = 0.66005 0.75710
# Poissons Ratio (z) = 0.11274 0.15521
#
# Static dielectric constant tensor:
#      x y z
#    x 1.526490 0.000000 0.000000 
#    y 0.000000 1.526080 0.000000 
#    z 0.000000 0.000000 1.578260 
# 
# From -- ./inp_files/66208.got.cif
#   From: 2010.05.17/outbox.cif.g08.bks.cpg/sg65_34_cif.got.tgz:66208.got - 2010.06.03 17:01:31.
