data_PCOD9490556
_publ_section_title
;
Structure prediction by ZEFSAII (Michael W. Deem and Ramdas Pophale) SiO2 
 PCOD9490556
Probable space group: C M M M
;
_chemical_formula_sum "Si O2"
_cell_formula_units_Z 80
_cell_length_a 19.607919
_cell_length_b 8.448758
_cell_length_c 26.376028
_cell_angle_alpha 90.000000
_cell_angle_beta 90.000000
_cell_angle_gamma 90.000000
_cell_volume 4369.520387
_symmetry_space_group_name_H-M "C M M M"
_symmetry_group_IT_number 65
_symmetry_cell_setting 'orthorhombic'
loop_
_space_group_symop_operation_xyz
x,y,z
-x,-y,z
x,-y,-z
-x,y,-z
-x,-y,-z
x,y,-z
-x,y,z
x,-y,z
1/2+x,1/2+y,z
1/2-x,1/2-y,z
1/2+x,1/2-y,-z
1/2-x,1/2+y,-z
1/2-x,1/2-y,-z
1/2+x,1/2+y,-z
1/2-x,1/2+y,z
1/2+x,1/2-y,z
loop_
_atom_site_type_symbol
_atom_site_label
_atom_site_fract_x
_atom_site_fract_y
_atom_site_fract_z
Si Si1 0.921442 0.808786 0.204149
Si Si2 0.173442 0.810105 0.589443
Si Si3 0.078360 0.310491 0.500000
Si Si4 0.578815 0.809065 0.093594
Si Si5 0.827528 0.308249 0.000000
Si Si6 0.326047 0.691131 0.704645
O O1 0.898954 0.747510 0.149191
O O2 0.876341 0.752984 0.251278
O O3 0.000000 0.759354 0.210947
O O4 0.919442 0.000000 0.203187
O O5 0.250000 0.750000 0.577969
O O6 0.119627 0.747588 0.549073
O O7 0.156222 0.758973 0.647149
O O8 0.174285 0.000000 0.587579
O O9 0.078010 0.500000 0.500000
O O10 0.000000 0.253793 0.500000
O O11 0.500000 0.756049 0.085157
O O12 0.629777 0.755668 0.049477
O O13 0.577972 0.000000 0.093031
O O14 0.750000 0.250000 0.000000
O O15 0.826783 0.500000 0.000000
O O16 0.326514 0.500000 0.704952
O O17 0.250000 0.750000 0.715069
#
# Coordination Sequence:
#
# PCOD9490556 Si02
#       6
#    16  16   8  16   8  16
#     4   9  18  33  52  75 103 133 166 206 251 296
#     4  10  20  36  58  80 104 138 178 215 254 307
#     4  11  24  39  54  77 109 139 170 215 266 309
#     4   9  18  34  54  73  95 129 171 208 245 294
#     4  10  21  35  51  73 101 130 162 206 254 298
#     4   9  19  34  53  77 104 135 169 207 250 297
#
# _framework density 18.308644999999999
#
# number of rings (size 3 to 8) (size 9 to 14) (size 15 to 20)
#    0.000    2.500    0.000    1.500    0.000    6.000 
#    0.000    6.000    0.000    5.400    0.000    0.000 
#    0.000    0.000    0.000    0.000    0.000    0.000 
#
# Total GULP energy -223181.104770 kJ/mol
# GULP energy per Si atom -5579.527619 kJ/mol
# Density = 1.826697 g / cm^3
# Si number density = 18.308645 Si / 1000 Ang^3
#
#
#
# Elastic Constant Matrix: (Units=GPa)
#
#
# Indices 1 2 3 4 5 6 
#
# 1 133.2924 23.7465 136.2381 0.0000 0.0000 0.0000
# 2 23.7465 15.5992 27.4309 0.0000 0.0000 0.0000
# 3 136.2381 27.4309 193.2326 0.0000 0.0000 0.0000
# 4 0.0000 0.0000 0.0000 12.2178 0.0000 0.0000
# 5 0.0000 0.0000 0.0000 0.0000 39.8502 0.0000
# 6 0.0000 0.0000 0.0000 0.0000 0.0000 26.5235
#
#
#
# Elastic Compliance Matrix: (Units=1/GPa)
#
#
# Indices 1 2 3 4 5 6 
#
# 1 0.028106 -0.010581 -0.018314 0.000000 0.000000 0.000000
# 2 -0.010581 0.089415 -0.005233 0.000000 0.000000 0.000000
# 3 -0.018314 -0.005233 0.018830 0.000000 0.000000 0.000000
# 4 0.000000 0.000000 0.000000 0.081848 0.000000 0.000000
# 5 0.000000 0.000000 0.000000 0.000000 0.025094 0.000000
# 6 0.000000 0.000000 0.000000 0.000000 0.000000 0.037702
#
#
# Mechanical properties :
#
#
# Convention : Reuss Voigt Hill
#
# Bulk Modulus (GPa) = 14.68525 79.66170 47.17347
# Shear Modulus (GPa) = 13.44262 26.03219 19.73740
#
# Velocity S-wave (km/s) = 2.71259 3.77484 3.28691
# Velocity P-wave (km/s) = 4.22484 7.91227 6.34245
#
# Compressibility (1/GPa) = 0.06809554
#
# Stress axis : x y z
#
# Youngs Moduli (GPa) = 35.57934 11.18376 53.10562
#
# Poissons Ratio (x) = 0.11833 0.97259
# Poissons Ratio (y) = 0.37645 0.27792
# Poissons Ratio (z) = 0.65161 0.05853
#
# Static dielectric constant tensor:
#      x y z
#    x 1.603670 0.000000 0.000000 
#    y 0.000000 1.631350 0.000000 
#    z 0.000000 0.000000 1.628190 
# 
# From -- ./inp_files/70810.got.cif
#   From: 2010.05.17/outbox.cif.g08.bks.cpg/sg65_36_cif.got.tgz:70810.got - 2010.06.03 17:01:31.
