data_PCOD9490251
_publ_section_title
;
Structure prediction by ZEFSAII (Michael W. Deem and Ramdas Pophale) SiO2 
 PCOD9490251
Probable space group: C M M M
;
_chemical_formula_sum "Si O2"
_cell_formula_units_Z 112
_cell_length_a 26.750438
_cell_length_b 13.663693
_cell_length_c 13.165758
_cell_angle_alpha 90.000000
_cell_angle_beta 90.000000
_cell_angle_gamma 90.000000
_cell_volume 4812.213211
_symmetry_space_group_name_H-M "C M M M"
_symmetry_group_IT_number 65
_symmetry_cell_setting 'orthorhombic'
loop_
_space_group_symop_operation_xyz
x,y,z
-x,-y,z
x,-y,-z
-x,y,-z
-x,-y,-z
x,y,-z
-x,y,z
x,-y,z
1/2+x,1/2+y,z
1/2-x,1/2-y,z
1/2+x,1/2-y,-z
1/2-x,1/2+y,-z
1/2-x,1/2-y,-z
1/2+x,1/2+y,-z
1/2-x,1/2+y,z
1/2+x,1/2-y,z
loop_
_atom_site_type_symbol
_atom_site_label
_atom_site_fract_x
_atom_site_fract_y
_atom_site_fract_z
Si Si1 0.186793 0.328558 0.330255
Si Si2 0.799354 0.890267 0.339975
Si Si3 0.442681 0.325502 0.381542
Si Si4 0.654475 0.886798 0.881661
Si Si5 0.617373 0.604968 0.802309
Si Si6 0.443299 0.210406 0.879795
Si Si7 0.420540 0.894887 0.618947
O O1 0.183181 0.218470 0.375671
O O2 0.239871 0.377589 0.349895
O O3 0.181797 0.327516 0.207145
O O4 0.139354 0.387781 0.369849
O O5 0.824025 0.889954 0.226399
O O6 0.811659 0.000000 0.380012
O O7 0.428857 0.330745 0.500000
O O8 0.500000 0.357110 0.371703
O O9 0.407564 0.388183 0.309803
O O10 0.438753 0.211871 0.345415
O O11 0.595578 0.875688 0.853520
O O12 0.669190 0.000000 0.873858
O O13 0.661376 0.856141 0.000000
O O14 0.606754 0.500000 0.850032
O O15 0.589382 0.692278 0.858183
O O16 0.500000 0.211364 0.839563
O O17 0.448583 0.203567 0.000000
O O18 0.434066 0.895101 0.500000
O O19 0.438055 0.000000 0.660247
#
# Coordination Sequence:
#
# PCOD9490251 Si02
#       7
#    16  16  16  16  16  16  16
#     4  11  20  38  61  80 114 148 178 226 274 322
#     4  10  21  36  59  86 110 145 185 223 274 327
#     4  10  21  37  56  81 112 144 183 229 276 325
#     4  10  20  35  57  84 112 145 184 223 272 330
#     4  11  22  39  58  78 110 147 185 228 274 324
#     4  10  21  37  56  81 112 144 183 229 276 325
#     4  10  20  35  57  84 112 145 184 223 272 330
#
# _framework density 23.274113
#
# number of rings (size 3 to 8) (size 9 to 14) (size 15 to 20)
#    0.000    1.714    2.857    1.714    0.000    2.286 
#    0.000    8.571    0.000    7.714    0.000    0.000 
#    0.000    0.000    0.000    0.000    0.000    0.000 
#
# Total GULP energy -312166.342353 kJ/mol
# GULP energy per Si atom -5574.398971 kJ/mol
# Density = 2.322114 g / cm^3
# Si number density = 23.274113 Si / 1000 Ang^3
#
#
#
# Elastic Constant Matrix: (Units=GPa)
#
#
# Indices 1 2 3 4 5 6 
#
# 1 75.1278 3.1660 -6.9495 0.0000 0.0000 0.0000
# 2 3.1660 137.7502 5.9448 0.0000 0.0000 0.0000
# 3 -6.9495 5.9448 57.5088 0.0000 0.0000 0.0000
# 4 0.0000 0.0000 0.0000 15.4869 0.0000 0.0000
# 5 0.0000 0.0000 0.0000 0.0000 4.8565 0.0000
# 6 0.0000 0.0000 0.0000 0.0000 0.0000 -13.2812
#
#
#
# Elastic Compliance Matrix: (Units=1/GPa)
#
#
# Indices 1 2 3 4 5 6 
#
# 1 0.013481 -0.000382 0.001669 0.000000 0.000000 0.000000
# 2 -0.000382 0.007303 -0.000801 0.000000 0.000000 0.000000
# 3 0.001669 -0.000801 0.017673 0.000000 0.000000 0.000000
# 4 0.000000 0.000000 0.000000 0.064571 0.000000 0.000000
# 5 0.000000 0.000000 0.000000 0.000000 0.205909 0.000000
# 6 0.000000 0.000000 0.000000 0.000000 0.000000 -0.075294
#
#
# Mechanical properties :
#
#
# Convention : Reuss Voigt Hill
#
# Bulk Modulus (GPa) = 25.36247 30.52328 27.94287
# Shear Modulus (GPa) = 20.34060 19.29414 19.81737
#
# Velocity S-wave (km/s) = 2.95949 2.88235 2.92117
# Velocity P-wave (km/s) = 4.75384 4.92143 4.83836
#
# Compressibility (1/GPa) = 0.03942833
#
# Stress axis : x y z
#
# Youngs Moduli (GPa) = 74.17794 136.93257 56.58321
#
# Poissons Ratio (x) = 0.05229 -0.09441
# Poissons Ratio (y) = 0.02833 0.04533
# Poissons Ratio (z) = -0.12377 0.10969
#
# Static dielectric constant tensor:
#      x y z
#    x 1.876880 0.000000 0.000000 
#    y 0.000000 1.870760 0.000000 
#    z 0.000000 0.000000 1.911950 
# 
# From -- ./inp_files/47965.got.cif
#   From: 2010.05.17/outbox.cif.g08.bks.cpg/sg65_24_cif.got.tgz:47965.got - 2010.06.03 17:01:31.
