data_PCOD9490657
_publ_section_title
;
Structure prediction by ZEFSAII (Michael W. Deem and Ramdas Pophale) SiO2 
 PCOD9490657
Probable space group: C M M M
;
_chemical_formula_sum "Si O2"
_cell_formula_units_Z 72
_cell_length_a 8.899492
_cell_length_b 15.803745
_cell_length_c 25.499289
_cell_angle_alpha 90.000000
_cell_angle_beta 90.000000
_cell_angle_gamma 90.000000
_cell_volume 3586.355207
_symmetry_space_group_name_H-M "C M M M"
_symmetry_group_IT_number 65
_symmetry_cell_setting 'orthorhombic'
loop_
_space_group_symop_operation_xyz
x,y,z
-x,-y,z
x,-y,-z
-x,y,-z
-x,-y,-z
x,y,-z
-x,y,z
x,-y,z
1/2+x,1/2+y,z
1/2-x,1/2-y,z
1/2+x,1/2-y,-z
1/2-x,1/2+y,-z
1/2-x,1/2-y,-z
1/2+x,1/2+y,-z
1/2-x,1/2+y,z
1/2+x,1/2-y,z
loop_
_atom_site_type_symbol
_atom_site_label
_atom_site_fract_x
_atom_site_fract_y
_atom_site_fract_z
Si Si1 0.824973 0.000000 0.437256
Si Si2 0.326575 0.602904 0.723840
Si Si3 0.329151 0.100866 0.829445
Si Si4 0.818126 0.343506 0.943476
Si Si5 0.678237 0.839291 0.618577
O O1 0.746479 0.916769 0.414302
O O2 0.817251 0.000000 0.500000
O O3 0.000000 0.000000 0.420824
O O4 0.500000 0.625888 0.714814
O O5 0.315728 0.500000 0.720640
O O6 0.272676 0.630996 0.781483
O O7 0.224231 0.642138 0.678764
O O8 0.500000 0.134865 0.824795
O O9 0.270717 0.117137 0.888167
O O10 0.338391 0.000000 0.823802
O O11 0.750000 0.250000 0.943901
O O12 0.000000 0.341271 0.942528
O O13 0.775858 0.383827 0.000000
O O14 0.500000 0.836691 0.613079
O O15 0.750000 0.750000 0.602602
#
# Coordination Sequence:
#
# PCOD9490657 Si02
#       5
#     8  16  16  16  16
#     4  11  25  47  73 101 137 177 216 263 316 369
#     4  10  20  36  59  85 120 159 199 249 309 373
#     4   9  18  32  51  76 106 141 186 236 290 355
#     4   9  18  32  49  69  96 134 178 229 289 352
#     4  12  25  42  68  99 133 173 219 267 317 376
#
# _framework density 20.076091999999999
#
# number of rings (size 3 to 8) (size 9 to 14) (size 15 to 20)
#    0.000    1.889    1.111    3.000    0.000    4.444 
#    0.000    4.444    0.000    0.000    0.000    6.222 
#    0.000    0.000    0.000    0.000    0.000    0.000 
#
# Total GULP energy -200988.822590 kJ/mol
# GULP energy per Si atom -5583.022850 kJ/mol
# Density = 2.003040 g / cm^3
# Si number density = 20.076092 Si / 1000 Ang^3
#
#
#
# Elastic Constant Matrix: (Units=GPa)
#
#
# Indices 1 2 3 4 5 6 
#
# 1 128.9488 58.4802 57.3418 0.0000 0.0000 0.0000
# 2 58.4802 83.1254 44.5091 0.0000 0.0000 0.0000
# 3 57.3418 44.5091 109.4279 0.0000 0.0000 0.0000
# 4 0.0000 0.0000 0.0000 -64.7458 0.0000 0.0000
# 5 0.0000 0.0000 0.0000 0.0000 26.1762 0.0000
# 6 0.0000 0.0000 0.0000 0.0000 0.0000 27.1020
#
#
#
# Elastic Compliance Matrix: (Units=1/GPa)
#
#
# Indices 1 2 3 4 5 6 
#
# 1 0.012517 -0.006768 -0.003806 0.000000 0.000000 0.000000
# 2 -0.006768 0.019039 -0.004197 0.000000 0.000000 0.000000
# 3 -0.003806 -0.004197 0.012840 0.000000 0.000000 0.000000
# 4 0.000000 0.000000 0.000000 -0.015445 0.000000 0.000000
# 5 0.000000 0.000000 0.000000 0.000000 0.038203 0.000000
# 6 0.000000 0.000000 0.000000 0.000000 0.000000 0.036898
#
#
# Mechanical properties :
#
#
# Convention : Reuss Voigt Hill
#
# Bulk Modulus (GPa) = 67.32713 71.35160 69.33936
# Shear Modulus (GPa) = 36.08923 8.45120 22.27021
#
# Velocity S-wave (km/s) = 4.24444 2.05395 3.33421
# Velocity P-wave (km/s) = 7.59138 6.42205 7.03107
#
# Compressibility (1/GPa) = 0.01485285
#
# Stress axis : x y z
#
# Youngs Moduli (GPa) = 79.89185 52.52425 77.87987
#
# Poissons Ratio (x) = 0.35547 0.29643
# Poissons Ratio (y) = 0.54069 0.32690
# Poissons Ratio (z) = 0.30409 0.22047
#
# Static dielectric constant tensor:
#      x y z
#    x 1.696540 0.000000 0.000000 
#    y 0.000000 1.708450 0.000000 
#    z 0.000000 0.000000 1.732040 
# 
# From -- ./inp_files/72528.got.cif
#   From: 2010.05.17/outbox.cif.g08.bks.cpg/sg65_37_cif.got.tgz:72528.got - 2010.06.03 17:01:31.
