data_PCOD9490400
_publ_section_title
;
Structure prediction by ZEFSAII (Michael W. Deem and Ramdas Pophale) SiO2 
 PCOD9490400
Probable space group: C M M M
;
_chemical_formula_sum "Si O2"
_cell_formula_units_Z 64
_cell_length_a 30.420074
_cell_length_b 8.429593
_cell_length_c 12.266285
_cell_angle_alpha 90.000000
_cell_angle_beta 90.000000
_cell_angle_gamma 90.000000
_cell_volume 3145.429269
_symmetry_space_group_name_H-M "C M M M"
_symmetry_group_IT_number 65
_symmetry_cell_setting 'orthorhombic'
loop_
_space_group_symop_operation_xyz
x,y,z
-x,-y,z
x,-y,-z
-x,y,-z
-x,-y,-z
x,y,-z
-x,y,z
x,-y,z
1/2+x,1/2+y,z
1/2-x,1/2-y,z
1/2+x,1/2-y,-z
1/2-x,1/2+y,-z
1/2-x,1/2-y,-z
1/2+x,1/2+y,-z
1/2-x,1/2+y,z
1/2+x,1/2-y,z
loop_
_atom_site_type_symbol
_atom_site_label
_atom_site_fract_x
_atom_site_fract_y
_atom_site_fract_z
Si Si1 0.047656 0.180973 0.248392
Si Si2 0.630796 0.810136 0.877347
Si Si3 0.356172 0.310512 0.500000
Si Si4 0.549194 0.756512 0.500000
Si Si5 0.200160 0.308449 0.702878
O O1 0.088799 0.266987 0.196010
O O2 0.049001 0.177688 0.380234
O O3 0.000000 0.251787 0.218250
O O4 0.049031 0.000000 0.210311
O O5 0.674646 0.761088 0.813265
O O6 0.632112 0.000000 0.884212
O O7 0.627396 0.745314 0.000000
O O8 0.368334 0.500000 0.500000
O O9 0.399205 0.195609 0.500000
O O10 0.327094 0.270720 0.605003
O O11 0.500000 0.835247 0.500000
O O12 0.198857 0.500000 0.691109
O O13 0.250000 0.250000 0.701640
#
# Coordination Sequence:
#
# PCOD9490400 Si02
#       5
#    16  16   8   8  16
#     4  10  20  36  60  90 122 156 196 241 288 344
#     4  10  23  42  61  83 116 157 198 244 297 349
#     4  12  22  37  65  94 124 158 194 234 290 352
#     4  10  20  35  60  94 128 158 190 234 290 348
#     4  11  24  42  63  88 119 152 195 245 298 353
#
# _framework density 20.346985
#
# number of rings (size 3 to 8) (size 9 to 14) (size 15 to 20)
#    0.000    1.500    2.500    2.625    0.000    5.750 
#    0.000    3.125    0.000    3.750    0.000    0.000 
#    0.000    0.000    0.000    0.000    0.000    0.000 
#
# Total GULP energy -178275.591814 kJ/mol
# GULP energy per Si atom -5571.112244 kJ/mol
# Density = 2.030067 g / cm^3
# Si number density = 20.346985 Si / 1000 Ang^3
#
#
#
# Elastic Constant Matrix: (Units=GPa)
#
#
# Indices 1 2 3 4 5 6 
#
# 1 196.7614 23.5514 67.3406 0.0000 0.0000 0.0000
# 2 23.5514 41.0791 26.9931 0.0000 0.0000 0.0000
# 3 67.3406 26.9931 127.5458 0.0000 0.0000 0.0000
# 4 0.0000 0.0000 0.0000 -21.1828 0.0000 0.0000
# 5 0.0000 0.0000 0.0000 0.0000 9.1537 0.0000
# 6 0.0000 0.0000 0.0000 0.0000 0.0000 6.8035
#
#
#
# Elastic Compliance Matrix: (Units=1/GPa)
#
#
# Indices 1 2 3 4 5 6 
#
# 1 0.006299 -0.001656 -0.002975 0.000000 0.000000 0.000000
# 2 -0.001656 0.028711 -0.005202 0.000000 0.000000 0.000000
# 3 -0.002975 -0.005202 0.010512 0.000000 0.000000 0.000000
# 4 0.000000 0.000000 0.000000 -0.047208 0.000000 0.000000
# 5 0.000000 0.000000 0.000000 0.000000 0.109245 0.000000
# 6 0.000000 0.000000 0.000000 0.000000 0.000000 0.146982
#
#
# Mechanical properties :
#
#
# Convention : Reuss Voigt Hill
#
# Bulk Modulus (GPa) = 38.67654 66.79517 52.73586
# Shear Modulus (GPa) = 17.67872 15.45496 16.56684
#
# Velocity S-wave (km/s) = 2.95084 2.75902 2.85654
# Velocity P-wave (km/s) = 5.53712 6.56117 6.07078
#
# Compressibility (1/GPa) = 0.02585546
#
# Stress axis : x y z
#
# Youngs Moduli (GPa) = 158.76192 34.82993 95.13009
#
# Poissons Ratio (x) = 0.05769 0.28301
# Poissons Ratio (y) = 0.26296 0.49484
# Poissons Ratio (z) = 0.47232 0.18118
#
# Static dielectric constant tensor:
#      x y z
#    x 1.723470 0.000000 0.000000 
#    y 0.000000 1.718980 0.000000 
#    z 0.000000 0.000000 1.716550 
# 
# From -- ./inp_files/33248.got.cif
#   From: 2010.05.17/outbox.cif.g08.bks.cpg/sg65_17_cif.got.tgz:33248.got - 2010.06.03 17:01:31.
