data_PCOD9490055
_publ_section_title
;
Structure prediction by ZEFSAII (Michael W. Deem and Ramdas Pophale) SiO2 
 PCOD9490055
Probable space group: C M M M
;
_chemical_formula_sum "Si O2"
_cell_formula_units_Z 80
_cell_length_a 7.933260
_cell_length_b 19.885970
_cell_length_c 28.318968
_cell_angle_alpha 90.000000
_cell_angle_beta 90.000000
_cell_angle_gamma 90.000000
_cell_volume 4467.616544
_symmetry_space_group_name_H-M "C M M M"
_symmetry_group_IT_number 65
_symmetry_cell_setting 'orthorhombic'
loop_
_space_group_symop_operation_xyz
x,y,z
-x,-y,z
x,-y,-z
-x,y,-z
-x,-y,-z
x,y,-z
-x,y,z
x,-y,z
1/2+x,1/2+y,z
1/2-x,1/2-y,z
1/2+x,1/2-y,-z
1/2-x,1/2+y,-z
1/2-x,1/2-y,-z
1/2+x,1/2+y,-z
1/2-x,1/2+y,z
1/2+x,1/2-y,z
loop_
_atom_site_type_symbol
_atom_site_label
_atom_site_fract_x
_atom_site_fract_y
_atom_site_fract_z
Si Si1 0.300135 0.075797 0.500000
Si Si2 0.193862 0.081955 0.120699
Si Si3 0.299495 0.673838 0.416001
Si Si4 0.000000 0.582055 0.054366
Si Si5 0.794352 0.076950 0.226582
Si Si6 0.796583 0.826421 0.690484
O O1 0.500000 0.070170 0.500000
O O2 0.252674 0.119011 0.545907
O O3 0.227572 0.000000 0.500000
O O4 0.331950 0.103325 0.082527
O O5 0.248319 0.101560 0.173846
O O6 0.000000 0.103503 0.111788
O O7 0.191057 0.000000 0.121063
O O8 0.500000 0.672808 0.413508
O O9 0.250000 0.750000 0.429739
O O10 0.233007 0.660296 0.362889
O O11 0.000000 0.500000 0.054553
O O12 0.000000 0.603797 0.000000
O O13 0.734133 0.123260 0.269260
O O14 0.000000 0.075898 0.227476
O O15 0.736984 0.000000 0.232224
O O16 0.750000 0.750000 0.702134
O O17 0.000000 0.831805 0.689501
#
# Coordination Sequence:
#
# PCOD9490055 Si02
#       6
#     8  16  16   8  16  16
#     4  11  24  39  54  73 101 131 160 207 256 293
#     4   8  14  25  40  58  85 122 160 198 242 292
#     4  10  20  35  56  77  99 130 167 202 245 301
#     4   9  16  24  36  58  90 124 160 201 242 292
#     4   8  14  27  47  67  90 126 163 193 234 289
#     4   9  18  32  50  73 100 127 155 198 245 287
#
# _framework density 17.906641
#
# number of rings (size 3 to 8) (size 9 to 14) (size 15 to 20)
#    0.000    3.000    0.000    2.400    0.000    2.800 
#    1.800    4.000    0.000    0.000    0.000    0.000 
#    0.000    0.800    0.400    0.000    0.000    0.000 
#
# Total GULP energy -222877.170742 kJ/mol
# GULP energy per Si atom -5571.929269 kJ/mol
# Density = 1.786588 g / cm^3
# Si number density = 17.906641 Si / 1000 Ang^3
#
#
#
# Elastic Constant Matrix: (Units=GPa)
#
#
# Indices 1 2 3 4 5 6 
#
# 1 55.0785 25.9786 49.6521 0.0000 0.0000 0.0000
# 2 25.9786 76.0571 92.5009 0.0000 0.0000 0.0000
# 3 49.6521 92.5009 169.7412 0.0000 0.0000 0.0000
# 4 0.0000 0.0000 0.0000 -28.9820 0.0000 0.0000
# 5 0.0000 0.0000 0.0000 0.0000 -123.4439 0.0000
# 6 0.0000 0.0000 0.0000 0.0000 0.0000 13.2765
#
#
#
# Elastic Compliance Matrix: (Units=1/GPa)
#
#
# Indices 1 2 3 4 5 6 
#
# 1 0.024686 0.001039 -0.007787 0.000000 0.000000 0.000000
# 2 0.001039 0.039032 -0.021575 0.000000 0.000000 0.000000
# 3 -0.007787 -0.021575 0.019926 0.000000 0.000000 0.000000
# 4 0.000000 0.000000 0.000000 -0.034504 0.000000 0.000000
# 5 0.000000 0.000000 0.000000 0.000000 -0.008101 0.000000
# 6 0.000000 0.000000 0.000000 0.000000 0.000000 0.075321
#
#
# Mechanical properties :
#
#
# Convention : Reuss Voigt Hill
#
# Bulk Modulus (GPa) = 37.03874 70.79333 53.91603
# Shear Modulus (GPa) = 27.47162 -18.98018 4.24572
#
# Velocity S-wave (km/s) = 3.92108 -3.25922 1.54149
# Velocity P-wave (km/s) = 6.42099 5.04551 5.77435
#
# Compressibility (1/GPa) = 0.02699876
#
# Stress axis : x y z
#
# Youngs Moduli (GPa) = 40.50894 25.61974 50.18463
#
# Poissons Ratio (x) = -0.02662 0.39080
# Poissons Ratio (y) = -0.04209 1.08272
# Poissons Ratio (z) = 0.31545 0.55274
#
# Static dielectric constant tensor:
#      x y z
#    x 1.633640 0.000000 0.000000 
#    y 0.000000 1.607480 0.000000 
#    z 0.000000 0.000000 1.640770 
# 
# From -- ./inp_files/72891.got.cif
#   From: 2010.05.17/outbox.cif.g08.bks.cpg/sg65_37_cif.got.tgz:72891.got - 2010.06.03 17:01:31.
