data_PCOD9490576
_publ_section_title
;
Structure prediction by ZEFSAII (Michael W. Deem and Ramdas Pophale) SiO2 
 PCOD9490576
Probable space group: C M M M
;
_chemical_formula_sum "Si O2"
_cell_formula_units_Z 104
_cell_length_a 31.185767
_cell_length_b 7.627370
_cell_length_c 20.864302
_cell_angle_alpha 90.000000
_cell_angle_beta 90.000000
_cell_angle_gamma 90.000000
_cell_volume 4962.895200
_symmetry_space_group_name_H-M "C M M M"
_symmetry_group_IT_number 65
_symmetry_cell_setting 'orthorhombic'
loop_
_space_group_symop_operation_xyz
x,y,z
-x,-y,z
x,-y,-z
-x,y,-z
-x,-y,-z
x,y,-z
-x,y,z
x,-y,z
1/2+x,1/2+y,z
1/2-x,1/2-y,z
1/2+x,1/2-y,-z
1/2-x,1/2+y,-z
1/2-x,1/2-y,-z
1/2+x,1/2+y,-z
1/2-x,1/2+y,z
1/2+x,1/2-y,z
loop_
_atom_site_type_symbol
_atom_site_label
_atom_site_fract_x
_atom_site_fract_y
_atom_site_fract_z
Si Si1 0.797143 0.789155 0.706555
Si Si2 0.637545 0.292485 0.814446
Si Si3 0.584542 0.788695 0.642660
Si Si4 0.000000 0.713693 0.570949
Si Si5 0.701282 0.791505 0.072519
Si Si6 0.450790 0.294220 0.217486
Si Si7 0.172924 0.205415 0.573218
O O1 0.750000 0.750000 0.732923
O O2 0.834747 0.721057 0.753600
O O3 0.800142 0.718748 0.633335
O O4 0.801963 0.000000 0.703526
O O5 0.632831 0.500000 0.802225
O O6 0.667052 0.273473 0.876507
O O7 0.589090 0.221000 0.824420
O O8 0.542901 0.730870 0.604395
O O9 0.572256 0.725474 0.713432
O O10 0.625489 0.720362 0.604054
O O11 0.587902 0.000000 0.644275
O O12 0.000000 0.500000 0.571527
O O13 0.000000 0.778058 0.500000
O O14 0.750000 0.750000 0.092521
O O15 0.697258 0.000000 0.070197
O O16 0.695464 0.721600 0.000000
O O17 0.500000 0.221132 0.217251
O O18 0.455775 0.500000 0.203045
O O19 0.175563 0.277746 0.500000
O O20 0.183851 0.000000 0.567747
#
# Coordination Sequence:
#
# PCOD9490576 Si02
#       7
#    16  16  16   8  16  16  16
#     4  10  21  36  53  77 106 138 180 228 277 329
#     4  10  20  36  58  84 115 149 186 230 276 323
#     4  11  20  32  51  74 102 135 174 225 282 336
#     4   9  18  30  43  65  99 131 162 213 278 333
#     4  10  21  37  59  90 125 157 189 224 266 322
#     4  10  20  36  58  81 110 146 185 228 274 326
#     4  10  21  38  55  70  97 138 181 228 282 337
#
# _framework density 20.955511000000001
#
# number of rings (size 3 to 8) (size 9 to 14) (size 15 to 20)
#    0.000    1.923    2.308    1.846    0.000    5.231 
#    0.000    0.000    0.000    2.308    0.000    3.231 
#    0.000    0.000    0.000    0.000    0.000    0.000 
#
# Total GULP energy -289859.205414 kJ/mol
# GULP energy per Si atom -5574.215489 kJ/mol
# Density = 2.090782 g / cm^3
# Si number density = 20.955511 Si / 1000 Ang^3
#
#
#
# Elastic Constant Matrix: (Units=GPa)
#
#
# Indices 1 2 3 4 5 6 
#
# 1 161.8366 -1.6717 64.4235 0.0000 0.0000 0.0000
# 2 -1.6717 49.8458 1.7851 0.0000 0.0000 0.0000
# 3 64.4235 1.7851 98.3636 0.0000 0.0000 0.0000
# 4 0.0000 0.0000 0.0000 -3.0501 0.0000 0.0000
# 5 0.0000 0.0000 0.0000 0.0000 34.4397 0.0000
# 6 0.0000 0.0000 0.0000 0.0000 0.0000 18.1120
#
#
#
# Elastic Compliance Matrix: (Units=1/GPa)
#
#
# Indices 1 2 3 4 5 6 
#
# 1 0.008370 0.000477 -0.005490 0.000000 0.000000 0.000000
# 2 0.000477 0.020102 -0.000677 0.000000 0.000000 0.000000
# 3 -0.005490 -0.000677 0.013775 0.000000 0.000000 0.000000
# 4 0.000000 0.000000 0.000000 -0.327856 0.000000 0.000000
# 5 0.000000 0.000000 0.000000 0.000000 0.029036 0.000000
# 6 0.000000 0.000000 0.000000 0.000000 0.000000 0.055212
#
#
# Mechanical properties :
#
#
# Convention : Reuss Voigt Hill
#
# Bulk Modulus (GPa) = 32.39878 48.79110 40.59494
# Shear Modulus (GPa) = -27.82538 26.26759 -0.77890
#
# Velocity S-wave (km/s) = -3.64790 3.54431 -0.61033
# Velocity P-wave (km/s) = 1.49952 6.33113 4.34941
#
# Compressibility (1/GPa) = 0.03086536
#
# Stress axis : x y z
#
# Youngs Moduli (GPa) = 119.48022 49.74598 72.59756
#
# Poissons Ratio (x) = -0.02374 0.39859
# Poissons Ratio (y) = -0.05703 0.04918
# Poissons Ratio (z) = 0.65599 0.03370
#
# Static dielectric constant tensor:
#      x y z
#    x 1.803540 0.000000 0.000000 
#    y 0.000000 1.820800 0.000000 
#    z 0.000000 0.000000 1.793610 
# 
# From -- ./inp_files/66383.got.cif
#   From: 2010.05.17/outbox.cif.g08.bks.cpg/sg65_34_cif.got.tgz:66383.got - 2010.06.03 17:01:31.
