data_PCOD9490182
_publ_section_title
;
Structure prediction by ZEFSAII (Michael W. Deem and Ramdas Pophale) SiO2 
 PCOD9490182
Probable space group: C M M M
;
_chemical_formula_sum "Si O2"
_cell_formula_units_Z 88
_cell_length_a 17.164215
_cell_length_b 28.615552
_cell_length_c 9.535396
_cell_angle_alpha 90.000000
_cell_angle_beta 90.000000
_cell_angle_gamma 90.000000
_cell_volume 4683.438348
_symmetry_space_group_name_H-M "C M M M"
_symmetry_group_IT_number 65
_symmetry_cell_setting 'orthorhombic'
loop_
_space_group_symop_operation_xyz
x,y,z
-x,-y,z
x,-y,-z
-x,y,-z
-x,-y,-z
x,y,-z
-x,y,z
x,-y,z
1/2+x,1/2+y,z
1/2-x,1/2-y,z
1/2+x,1/2-y,-z
1/2-x,1/2+y,-z
1/2-x,1/2-y,-z
1/2+x,1/2+y,-z
1/2-x,1/2+y,z
1/2+x,1/2-y,z
loop_
_atom_site_type_symbol
_atom_site_label
_atom_site_fract_x
_atom_site_fract_y
_atom_site_fract_z
Si Si1 0.352571 0.652010 0.165591
Si Si2 0.404705 0.000000 0.339551
Si Si3 0.088951 0.763436 0.665138
Si Si4 0.906244 0.588541 0.160792
Si Si5 0.825191 0.314810 0.835631
Si Si6 0.908437 0.051513 0.169813
O O1 0.403262 0.686786 0.258792
O O2 0.264396 0.670373 0.178649
O O3 0.362519 0.598132 0.211583
O O4 0.374200 0.655027 0.000000
O O5 0.379166 0.046501 0.258798
O O6 0.500000 0.000000 0.336979
O O7 0.379922 0.000000 0.500000
O O8 0.105474 0.767376 0.500000
O O9 0.147454 0.727728 0.740385
O O10 0.000000 0.746218 0.682302
O O11 0.874516 0.639062 0.200925
O O12 0.000000 0.589441 0.163557
O O13 0.881446 0.579498 0.000000
O O14 0.839193 0.303005 0.000000
O O15 0.000000 0.056942 0.206346
O O16 0.882106 0.000000 0.220179
O O17 0.904569 0.050172 0.000000
#
# Coordination Sequence:
#
# PCOD9490182 Si02
#       6
#    16   8  16  16  16  16
#     4  10  20  35  56  84 113 142 178 222 274 328
#     4   9  17  29  47  71  97 129 174 225 268 309
#     4  11  24  39  56  79 106 142 187 228 270 325
#     4   9  17  31  50  71  99 136 177 220 269 323
#     4  10  21  36  54  81 111 141 178 223 276 331
#     4   8  14  27  50  80 111 141 175 216 261 310
#
# _framework density 18.789614
#
# number of rings (size 3 to 8) (size 9 to 14) (size 15 to 20)
#    0.000    2.455    0.000    3.000    0.000    7.636 
#    1.636    1.818    0.000    0.545    0.000    2.545 
#    0.000    0.000    0.000    0.000    0.000    0.000 
#
# Total GULP energy -245469.928327 kJ/mol
# GULP energy per Si atom -5578.862007 kJ/mol
# Density = 1.874685 g / cm^3
# Si number density = 18.789614 Si / 1000 Ang^3
#
#
#
# Elastic Constant Matrix: (Units=GPa)
#
#
# Indices 1 2 3 4 5 6 
#
# 1 30.5013 44.6811 27.7694 0.0000 0.0000 0.0000
# 2 44.6811 151.5629 70.5378 0.0000 0.0000 0.0000
# 3 27.7694 70.5378 57.2215 0.0000 0.0000 0.0000
# 4 0.0000 0.0000 0.0000 -8.0485 0.0000 0.0000
# 5 0.0000 0.0000 0.0000 0.0000 13.4035 0.0000
# 6 0.0000 0.0000 0.0000 0.0000 0.0000 -27.2435
#
#
#
# Elastic Compliance Matrix: (Units=1/GPa)
#
#
# Indices 1 2 3 4 5 6 
#
# 1 0.065211 -0.010546 -0.018646 0.000000 0.000000 0.000000
# 2 -0.010546 0.017183 -0.016064 0.000000 0.000000 0.000000
# 3 -0.018646 -0.016064 0.046327 0.000000 0.000000 0.000000
# 4 0.000000 0.000000 0.000000 -0.124247 0.000000 0.000000
# 5 0.000000 0.000000 0.000000 0.000000 0.074607 0.000000
# 6 0.000000 0.000000 0.000000 0.000000 0.000000 -0.036706
#
#
# Mechanical properties :
#
#
# Convention : Reuss Voigt Hill
#
# Bulk Modulus (GPa) = 26.17212 58.36247 42.26729
# Shear Modulus (GPa) = 34.33536 2.04215 18.18876
#
# Velocity S-wave (km/s) = 4.27940 1.04365 3.11468
# Velocity P-wave (km/s) = 6.19491 5.70795 5.95641
#
# Compressibility (1/GPa) = 0.03820860
#
# Stress axis : x y z
#
# Youngs Moduli (GPa) = 15.33490 58.19648 21.58582
#
# Poissons Ratio (x) = 0.61377 0.40248
# Poissons Ratio (y) = 0.16173 0.34675
# Poissons Ratio (z) = 0.28593 0.93486
#
# Static dielectric constant tensor:
#      x y z
#    x 1.663430 0.000000 0.000000 
#    y 0.000000 1.654600 0.000000 
#    z 0.000000 0.000000 1.624650 
# 
# From -- ./inp_files/10157.got.cif
#   From: 2010.05.17/outbox.cif.g08.bks.cpg/sg65_6_cif.got.tgz:10157.got - 2010.06.03 17:01:31.
