data_PCOD9490151
_publ_section_title
;
Structure prediction by ZEFSAII (Michael W. Deem and Ramdas Pophale) SiO2 
 PCOD9490151
Probable space group: C M M M
;
_chemical_formula_sum "Si O2"
_cell_formula_units_Z 64
_cell_length_a 27.049610
_cell_length_b 15.244610
_cell_length_c 7.668195
_cell_angle_alpha 90.000000
_cell_angle_beta 90.000000
_cell_angle_gamma 90.000000
_cell_volume 3162.062680
_symmetry_space_group_name_H-M "C M M M"
_symmetry_group_IT_number 65
_symmetry_cell_setting 'orthorhombic'
loop_
_space_group_symop_operation_xyz
x,y,z
-x,-y,z
x,-y,-z
-x,y,-z
-x,-y,-z
x,y,-z
-x,y,z
x,-y,z
1/2+x,1/2+y,z
1/2-x,1/2-y,z
1/2+x,1/2-y,-z
1/2-x,1/2+y,-z
1/2-x,1/2-y,-z
1/2+x,1/2+y,-z
1/2-x,1/2+y,z
1/2+x,1/2-y,z
loop_
_atom_site_type_symbol
_atom_site_label
_atom_site_fract_x
_atom_site_fract_y
_atom_site_fract_z
Si Si1 0.443591 0.252796 0.293922
Si Si2 0.255410 0.147357 0.309626
Si Si3 0.572216 0.603167 0.000000
Si Si4 0.689312 0.597281 0.000000
Si Si5 0.633259 0.900109 0.712079
O O1 0.433992 0.273350 0.500000
O O2 0.500000 0.218371 0.283027
O O3 0.441636 0.338547 0.170004
O O4 0.404540 0.177548 0.235473
O O5 0.249301 0.104433 0.500000
O O6 0.250000 0.250000 0.333635
O O7 0.211943 0.132439 0.175686
O O8 0.309866 0.121885 0.240018
O O9 0.631209 0.601256 0.000000
O O10 0.555945 0.500000 0.000000
O O11 0.708535 0.500000 0.000000
O O12 0.631990 0.899844 0.500000
O O13 0.621025 0.000000 0.768937
#
# Coordination Sequence:
#
# PCOD9490151 Si02
#       5
#    16  16   8   8  16
#     4  10  22  41  64  88 116 153 196 244 301 360
#     4  10  20  35  56  82 117 158 197 239 282 331
#     4  11  25  43  62  87 119 151 192 251 306 356
#     4  11  23  36  54  81 111 148 190 230 282 345
#     4   9  18  34  58  89 124 161 200 242 290 345
#
# _framework density 20.239954999999998
#
# number of rings (size 3 to 8) (size 9 to 14) (size 15 to 20)
#    0.000    2.000    0.000    3.000    0.000    7.500 
#    0.000    8.125    0.000    1.500    0.000    0.000 
#    0.000    0.000    0.000    0.000    0.000    0.000 
#
# Total GULP energy -178298.506855 kJ/mol
# GULP energy per Si atom -5571.828339 kJ/mol
# Density = 2.019389 g / cm^3
# Si number density = 20.239955 Si / 1000 Ang^3
#
#
#
# Elastic Constant Matrix: (Units=GPa)
#
#
# Indices 1 2 3 4 5 6 
#
# 1 91.1361 29.3846 27.5974 0.0000 0.0000 0.0000
# 2 29.3846 130.5465 29.3534 0.0000 0.0000 0.0000
# 3 27.5974 29.3534 74.9058 0.0000 0.0000 0.0000
# 4 0.0000 0.0000 0.0000 70.5335 0.0000 0.0000
# 5 0.0000 0.0000 0.0000 0.0000 29.9649 0.0000
# 6 0.0000 0.0000 0.0000 0.0000 0.0000 -15.3781
#
#
#
# Elastic Compliance Matrix: (Units=1/GPa)
#
#
# Indices 1 2 3 4 5 6 
#
# 1 0.012809 -0.001998 -0.003936 0.000000 0.000000 0.000000
# 2 -0.001998 0.008712 -0.002678 0.000000 0.000000 0.000000
# 3 -0.003936 -0.002678 0.015850 0.000000 0.000000 0.000000
# 4 0.000000 0.000000 0.000000 0.014178 0.000000 0.000000
# 5 0.000000 0.000000 0.000000 0.000000 0.033372 0.000000
# 6 0.000000 0.000000 0.000000 0.000000 0.000000 -0.065027
#
#
# Mechanical properties :
#
#
# Convention : Reuss Voigt Hill
#
# Bulk Modulus (GPa) = 49.63682 52.13990 50.88836
# Shear Modulus (GPa) = 114.07089 31.04093 72.55591
#
# Velocity S-wave (km/s) = 7.51543 3.92043 5.99380
# Velocity P-wave (km/s) = 9.99431 6.80513 8.54974
#
# Compressibility (1/GPa) = 0.02014633
#
# Stress axis : x y z
#
# Youngs Moduli (GPa) = 78.07168 114.78476 63.09297
#
# Poissons Ratio (x) = 0.22935 0.24834
# Poissons Ratio (y) = 0.15599 0.16895
# Poissons Ratio (z) = 0.30730 0.30737
#
# Static dielectric constant tensor:
#      x y z
#    x 1.701370 0.000000 0.000000 
#    y 0.000000 1.681600 0.000000 
#    z 0.000000 0.000000 1.589640 
# 
# From -- ./inp_files/13377.got.cif
#   From: 2010.05.17/outbox.cif.g08.bks.cpg/sg65_7_cif.got.tgz:13377.got - 2010.06.03 17:01:31.
