data_PCOD9490293
_publ_section_title
;
Structure prediction by ZEFSAII (Michael W. Deem and Ramdas Pophale) SiO2 
 PCOD9490293
Probable space group: C M M M
;
_chemical_formula_sum "Si O2"
_cell_formula_units_Z 88
_cell_length_a 22.620997
_cell_length_b 8.763121
_cell_length_c 25.394522
_cell_angle_alpha 90.000000
_cell_angle_beta 90.000000
_cell_angle_gamma 90.000000
_cell_volume 5033.969653
_symmetry_space_group_name_H-M "C M M M"
_symmetry_group_IT_number 65
_symmetry_cell_setting 'orthorhombic'
loop_
_space_group_symop_operation_xyz
x,y,z
-x,-y,z
x,-y,-z
-x,y,-z
-x,-y,-z
x,y,-z
-x,y,z
x,-y,z
1/2+x,1/2+y,z
1/2-x,1/2-y,z
1/2+x,1/2-y,-z
1/2-x,1/2+y,-z
1/2-x,1/2-y,-z
1/2+x,1/2+y,-z
1/2-x,1/2+y,z
1/2+x,1/2-y,z
loop_
_atom_site_type_symbol
_atom_site_label
_atom_site_fract_x
_atom_site_fract_y
_atom_site_fract_z
Si Si1 0.000000 0.817427 0.438625
Si Si2 0.617898 0.817223 0.605395
Si Si3 0.813354 0.181774 0.700750
Si Si4 0.814055 0.683189 0.500000
Si Si5 0.184200 0.183552 0.175396
Si Si6 0.929184 0.172886 0.000000
Si Si7 0.429753 0.183292 0.113100
O O1 0.055168 0.750058 0.408549
O O2 0.000000 0.767718 0.500000
O O3 0.000000 0.000000 0.437903
O O4 0.640897 0.752940 0.660280
O O5 0.656016 0.767492 0.554523
O O6 0.617483 0.000000 0.607331
O O7 0.750000 0.250000 0.685847
O O8 0.823144 0.218116 0.762257
O O9 0.812617 0.000000 0.695336
O O10 0.814215 0.500000 0.500000
O O11 0.750000 0.750000 0.500000
O O12 0.250000 0.250000 0.160070
O O13 0.124820 0.248432 0.147300
O O14 0.186134 0.000000 0.168257
O O15 0.915599 0.261915 0.946396
O O16 0.000000 0.159848 0.000000
O O17 0.904478 0.000000 0.000000
O O18 0.500000 0.228353 0.124599
O O19 0.428158 0.000000 0.116707
#
# Coordination Sequence:
#
# PCOD9490293 Si02
#       7
#     8  16  16   8  16   8  16
#     4  11  23  39  59  81 107 143 179 218 269 330
#     4  11  22  38  58  80 108 143 180 222 271 328
#     4  10  21  38  59  84 111 144 185 230 277 331
#     4  10  22  35  52  79 107 134 170 216 267 320
#     4  10  21  38  60  84 115 154 193 238 289 344
#     4   9  17  31  54  83 116 155 196 237 287 341
#     4  10  20  35  57  86 119 154 196 242 286 338
#
# _framework density 17.481234000000001
#
# number of rings (size 3 to 8) (size 9 to 14) (size 15 to 20)
#    0.000    1.818    0.909    3.273    0.000    7.636 
#    1.636    0.455    0.000    0.000    0.000    0.000 
#    0.000    0.000    0.000    0.000    0.000    0.000 
#
# Total GULP energy -245262.015718 kJ/mol
# GULP energy per Si atom -5574.136721 kJ/mol
# Density = 1.744145 g / cm^3
# Si number density = 17.481234 Si / 1000 Ang^3
#
#
#
# Elastic Constant Matrix: (Units=GPa)
#
#
# Indices 1 2 3 4 5 6 
#
# 1 163.2669 53.6380 85.5938 0.0000 0.0000 0.0000
# 2 53.6380 55.9382 49.2233 0.0000 0.0000 0.0000
# 3 85.5938 49.2233 102.2710 0.0000 0.0000 0.0000
# 4 0.0000 0.0000 0.0000 34.1301 0.0000 0.0000
# 5 0.0000 0.0000 0.0000 0.0000 37.4959 0.0000
# 6 0.0000 0.0000 0.0000 0.0000 0.0000 35.2087
#
#
#
# Elastic Compliance Matrix: (Units=1/GPa)
#
#
# Indices 1 2 3 4 5 6 
#
# 1 0.011517 -0.004443 -0.007500 0.000000 0.000000 0.000000
# 2 -0.004443 0.032725 -0.012032 0.000000 0.000000 0.000000
# 3 -0.007500 -0.012032 0.021846 0.000000 0.000000 0.000000
# 4 0.000000 0.000000 0.000000 0.029300 0.000000 0.000000
# 5 0.000000 0.000000 0.000000 0.000000 0.026670 0.000000
# 6 0.000000 0.000000 0.000000 0.000000 0.000000 0.028402
#
#
# Mechanical properties :
#
#
# Convention : Reuss Voigt Hill
#
# Bulk Modulus (GPa) = 55.13563 77.59850 66.36706
# Shear Modulus (GPa) = 24.45523 30.23501 27.34512
#
# Velocity S-wave (km/s) = 3.74430 4.16332 3.95936
# Velocity P-wave (km/s) = 7.09235 8.22174 7.67784
#
# Compressibility (1/GPa) = 0.01813709
#
# Stress axis : x y z
#
# Youngs Moduli (GPa) = 86.83054 30.55763 45.77507
#
# Poissons Ratio (x) = 0.13578 0.34332
# Poissons Ratio (y) = 0.38582 0.55076
# Poissons Ratio (z) = 0.65124 0.36767
#
# Static dielectric constant tensor:
#      x y z
#    x 1.571400 0.000000 0.000000 
#    y 0.000000 1.595260 0.000000 
#    z 0.000000 0.000000 1.586760 
# 
# From -- ./inp_files/71050.got.cif
#   From: 2010.05.17/outbox.cif.g08.bks.cpg/sg65_36_cif.got.tgz:71050.got - 2010.06.03 17:01:31.
