data_PCOD9490847
_publ_section_title
;
Structure prediction by ZEFSAII (Michael W. Deem and Ramdas Pophale) SiO2 
 PCOD9490847
Probable space group: C M M M
;
_chemical_formula_sum "Si O2"
_cell_formula_units_Z 72
_cell_length_a 10.310056
_cell_length_b 23.820882
_cell_length_c 16.460442
_cell_angle_alpha 90.000000
_cell_angle_beta 90.000000
_cell_angle_gamma 90.000000
_cell_volume 4042.596120
_symmetry_space_group_name_H-M "C M M M"
_symmetry_group_IT_number 65
_symmetry_cell_setting 'orthorhombic'
loop_
_space_group_symop_operation_xyz
x,y,z
-x,-y,z
x,-y,-z
-x,y,-z
-x,-y,-z
x,y,-z
-x,y,z
x,-y,z
1/2+x,1/2+y,z
1/2-x,1/2-y,z
1/2+x,1/2-y,-z
1/2-x,1/2+y,-z
1/2-x,1/2-y,-z
1/2+x,1/2+y,-z
1/2-x,1/2+y,z
1/2+x,1/2-y,z
loop_
_atom_site_type_symbol
_atom_site_label
_atom_site_fract_x
_atom_site_fract_y
_atom_site_fract_z
Si Si1 0.153349 0.301409 0.000000
Si Si2 0.226118 0.436695 0.711564
Si Si3 0.500000 0.300985 0.405677
Si Si4 0.846490 0.343997 0.179314
Si Si5 0.000000 0.568472 0.592434
Si Si6 0.500000 0.435434 0.625049
Si Si7 0.250000 0.250000 0.693262
O O1 0.250000 0.250000 0.000000
O O2 0.179501 0.331803 0.085296
O O3 0.000000 0.285895 0.000000
O O4 0.184220 0.500000 0.728219
O O5 0.219582 0.400540 0.791506
O O6 0.368683 0.436355 0.675724
O O7 0.126499 0.414036 0.643035
O O8 0.500000 0.282351 0.500000
O O9 0.500000 0.370308 0.408491
O O10 0.629878 0.276461 0.359725
O O11 0.801754 0.297320 0.244243
O O12 0.000000 0.350086 0.188132
O O13 0.000000 0.500000 0.587692
O O14 0.000000 0.589384 0.500000
O O15 0.500000 0.500000 0.585294
#
# Coordination Sequence:
#
# PCOD9490847 Si02
#       7
#     8  16   8  16   8   8   8
#     4  10  22  38  61  93 120 148 195 256 298 361
#     4  10  20  37  60  86 120 158 198 244 299 363
#     4  12  26  42  60  88 123 163 206 255 304 356
#     4  11  21  38  63  91 120 153 199 245 302 359
#     4   9  18  33  55  82 111 151 202 245 283 337
#     4  10  22  39  61  89 117 158 203 249 306 360
#     4  12  23  41  62  84 116 162 202 245 303 358
#
# _framework density 17.810337000000001
#
# number of rings (size 3 to 8) (size 9 to 14) (size 15 to 20)
#    0.000    1.444    5.556    0.333    0.000    1.111 
#    2.000    3.889    0.000    2.000    0.000    2.333 
#    0.000    0.000    0.000    0.000    0.000    0.000 
#
# Total GULP energy -200433.300274 kJ/mol
# GULP energy per Si atom -5567.591674 kJ/mol
# Density = 1.776980 g / cm^3
# Si number density = 17.810337 Si / 1000 Ang^3
#
#
#
# Elastic Constant Matrix: (Units=GPa)
#
#
# Indices 1 2 3 4 5 6 
#
# 1 110.2206 33.7962 66.3581 0.0000 0.0000 0.0000
# 2 33.7962 86.3764 57.4274 0.0000 0.0000 0.0000
# 3 66.3581 57.4274 139.0531 0.0000 0.0000 0.0000
# 4 0.0000 0.0000 0.0000 331.7572 0.0000 0.0000
# 5 0.0000 0.0000 0.0000 0.0000 18.0141 0.0000
# 6 0.0000 0.0000 0.0000 0.0000 0.0000 41.4896
#
#
#
# Elastic Compliance Matrix: (Units=1/GPa)
#
#
# Indices 1 2 3 4 5 6 
#
# 1 0.012837 -0.001309 -0.005585 0.000000 0.000000 0.000000
# 2 -0.001309 0.016093 -0.006021 0.000000 0.000000 0.000000
# 3 -0.005585 -0.006021 0.012344 0.000000 0.000000 0.000000
# 4 0.000000 0.000000 0.000000 0.003014 0.000000 0.000000
# 5 0.000000 0.000000 0.000000 0.000000 0.055512 0.000000
# 6 0.000000 0.000000 0.000000 0.000000 0.000000 0.024102
#
#
# Mechanical properties :
#
#
# Convention : Reuss Voigt Hill
#
# Bulk Modulus (GPa) = 64.76042 72.31261 68.53652
# Shear Modulus (GPa) = 32.28292 90.12340 61.20316
#
# Velocity S-wave (km/s) = 4.26208 7.12121 5.86843
# Velocity P-wave (km/s) = 7.78848 10.40697 9.19145
#
# Compressibility (1/GPa) = 0.01544153
#
# Stress axis : x y z
#
# Youngs Moduli (GPa) = 77.90165 62.13954 81.01400
#
# Poissons Ratio (x) = 0.08136 0.45247
# Poissons Ratio (y) = 0.10200 0.48781
# Poissons Ratio (z) = 0.43509 0.37416
#
# Static dielectric constant tensor:
#      x y z
#    x 1.605450 0.000000 0.000000 
#    y 0.000000 5.526350 0.000000 
#    z 0.000000 0.000000 1.343540 
# 
# From -- ./inp_files/36743.got.cif
#   From: 2010.05.17/outbox.cif.g08.bks.cpg/sg65_19_cif.got.tgz:36743.got - 2010.06.03 17:01:31.
