data_PCOD9490649
_publ_section_title
;
Structure prediction by ZEFSAII (Michael W. Deem and Ramdas Pophale) SiO2 
 PCOD9490649
Probable space group: C M M M
;
_chemical_formula_sum "Si O2"
_cell_formula_units_Z 96
_cell_length_a 24.679081
_cell_length_b 14.784607
_cell_length_c 13.516404
_cell_angle_alpha 90.000000
_cell_angle_beta 90.000000
_cell_angle_gamma 90.000000
_cell_volume 4931.737271
_symmetry_space_group_name_H-M "C M M M"
_symmetry_group_IT_number 65
_symmetry_cell_setting 'orthorhombic'
loop_
_space_group_symop_operation_xyz
x,y,z
-x,-y,z
x,-y,-z
-x,y,-z
-x,-y,-z
x,y,-z
-x,y,z
x,-y,z
1/2+x,1/2+y,z
1/2-x,1/2-y,z
1/2+x,1/2-y,-z
1/2-x,1/2+y,-z
1/2-x,1/2-y,-z
1/2+x,1/2+y,-z
1/2-x,1/2+y,z
1/2+x,1/2-y,z
loop_
_atom_site_type_symbol
_atom_site_label
_atom_site_fract_x
_atom_site_fract_y
_atom_site_fract_z
Si Si1 0.098482 0.795426 0.191217
Si Si2 0.500000 0.101526 0.618428
Si Si3 0.000000 0.894340 0.109916
Si Si4 0.199750 0.398306 0.256211
Si Si5 0.704166 0.609581 0.113805
Si Si6 0.113974 0.295115 0.382859
Si Si7 0.903437 0.400841 0.117711
O O1 0.151403 0.829362 0.132971
O O2 0.110642 0.788477 0.307697
O O3 0.076582 0.696929 0.154763
O O4 0.052288 0.865094 0.168335
O O5 0.500000 0.095778 0.500000
O O6 0.557773 0.149627 0.639319
O O7 0.500000 0.000000 0.658898
O O8 0.000000 0.000000 0.098864
O O9 0.000000 0.851982 0.000000
O O10 0.210889 0.500000 0.291304
O O11 0.253003 0.364466 0.199512
O O12 0.167670 0.346737 0.343011
O O13 0.155423 0.402725 0.168384
O O14 0.693849 0.500000 0.122561
O O15 0.723207 0.623712 0.000000
O O16 0.116282 0.278366 0.500000
O O17 0.928754 0.500000 0.143039
O O18 0.900856 0.397323 0.000000
#
# Coordination Sequence:
#
# PCOD9490649 Si02
#       7
#    16   8   8  16  16  16  16
#     4  11  22  37  57  83 114 154 198 241 295 356
#     4   9  17  32  56  80 101 135 186 234 274 321
#     4  11  23  40  64  92 119 147 186 244 308 360
#     4   9  18  32  52  81 113 145 186 238 293 343
#     4  10  20  36  59  85 112 145 192 250 305 359
#     4  10  21  36  55  81 115 155 196 239 283 329
#     4   9  17  30  48  74 111 149 182 221 274 343
#
# _framework density 19.465758000000001
#
# number of rings (size 3 to 8) (size 9 to 14) (size 15 to 20)
#    0.000    2.167    0.000    3.500    0.000    7.667 
#    0.000    6.250    0.000    5.000    0.000    0.000 
#    0.000   10.000    0.000    0.000    0.000    0.000 
#
# Total GULP energy -267294.148853 kJ/mol
# GULP energy per Si atom -5568.628101 kJ/mol
# Density = 1.942145 g / cm^3
# Si number density = 19.465758 Si / 1000 Ang^3
#
#
#
# Elastic Constant Matrix: (Units=GPa)
#
#
# Indices 1 2 3 4 5 6 
#
# 1 45.2133 17.5224 13.8368 0.0000 0.0000 0.0000
# 2 17.5224 75.4882 32.4628 0.0000 0.0000 0.0000
# 3 13.8368 32.4628 126.0871 0.0000 0.0000 0.0000
# 4 0.0000 0.0000 0.0000 11.2560 0.0000 0.0000
# 5 0.0000 0.0000 0.0000 0.0000 7.7390 0.0000
# 6 0.0000 0.0000 0.0000 0.0000 0.0000 8.9823
#
#
#
# Elastic Compliance Matrix: (Units=1/GPa)
#
#
# Indices 1 2 3 4 5 6 
#
# 1 0.024515 -0.005098 -0.001378 0.000000 0.000000 0.000000
# 2 -0.005098 0.015957 -0.003549 0.000000 0.000000 0.000000
# 3 -0.001378 -0.003549 0.008996 0.000000 0.000000 0.000000
# 4 0.000000 0.000000 0.000000 0.088841 0.000000 0.000000
# 5 0.000000 0.000000 0.000000 0.000000 0.129216 0.000000
# 6 0.000000 0.000000 0.000000 0.000000 0.000000 0.111330
#
#
# Mechanical properties :
#
#
# Convention : Reuss Voigt Hill
#
# Bulk Modulus (GPa) = 33.99241 41.60361 37.79801
# Shear Modulus (GPa) = 12.23365 17.79325 15.01345
#
# Velocity S-wave (km/s) = 2.50965 3.02665 2.78020
# Velocity P-wave (km/s) = 5.08904 5.79942 5.45581
#
# Compressibility (1/GPa) = 0.02941833
#
# Stress axis : x y z
#
# Youngs Moduli (GPa) = 40.79190 62.67023 111.16177
#
# Poissons Ratio (x) = 0.31949 0.15315
# Poissons Ratio (y) = 0.20795 0.39449
# Poissons Ratio (z) = 0.05620 0.22240
#
# Static dielectric constant tensor:
#      x y z
#    x 1.690300 0.000000 0.000000 
#    y 0.000000 1.756430 0.000000 
#    z 0.000000 0.000000 1.663080 
# 
# From -- ./inp_files/45663.got.cif
#   From: 2010.05.17/outbox.cif.g08.bks.cpg/sg65_23_cif.got.tgz:45663.got - 2010.06.03 17:01:31.
