data_PCOD9490312
_publ_section_title
;
Structure prediction by ZEFSAII (Michael W. Deem and Ramdas Pophale) SiO2 
 PCOD9490312
Probable space group: C M M M
;
_chemical_formula_sum "Si O2"
_cell_formula_units_Z 72
_cell_length_a 8.501778
_cell_length_b 24.206163
_cell_length_c 18.033735
_cell_angle_alpha 90.000000
_cell_angle_beta 90.000000
_cell_angle_gamma 90.000000
_cell_volume 3711.260142
_symmetry_space_group_name_H-M "C M M M"
_symmetry_group_IT_number 65
_symmetry_cell_setting 'orthorhombic'
loop_
_space_group_symop_operation_xyz
x,y,z
-x,-y,z
x,-y,-z
-x,y,-z
-x,-y,-z
x,y,-z
-x,y,z
x,-y,z
1/2+x,1/2+y,z
1/2-x,1/2-y,z
1/2+x,1/2-y,-z
1/2-x,1/2+y,-z
1/2-x,1/2-y,-z
1/2+x,1/2+y,-z
1/2-x,1/2+y,z
1/2+x,1/2-y,z
loop_
_atom_site_type_symbol
_atom_site_label
_atom_site_fract_x
_atom_site_fract_y
_atom_site_fract_z
Si Si1 0.811922 0.500000 0.913745
Si Si2 0.309864 0.615924 0.858469
Si Si3 0.311701 0.688796 0.719821
Si Si4 0.689547 0.312109 0.000000
Si Si5 0.309221 0.120809 0.585742
Si Si6 0.318702 0.000000 0.590220
O O1 0.753286 0.445112 0.872874
O O2 0.000000 0.500000 0.915029
O O3 0.755406 0.500000 0.000000
O O4 0.500000 0.613583 0.858550
O O5 0.258311 0.645512 0.782846
O O6 0.259185 0.654427 0.927249
O O7 0.500000 0.690132 0.720045
O O8 0.250000 0.750000 0.735891
O O9 0.251675 0.666921 0.640981
O O10 0.750000 0.250000 0.000000
O O11 0.500000 0.310816 0.000000
O O12 0.262910 0.129659 0.500000
O O13 0.500000 0.119339 0.587384
O O14 0.249732 0.059601 0.610686
O O15 0.500000 0.000000 0.616140
O O16 0.322682 0.000000 0.500000
#
# Coordination Sequence:
#
# PCOD9490312 Si02
#       6
#     8  16  16   8  16   8
#     4  11  23  38  61  94 123 151 192 241 286 336
#     4  10  22  40  61  84 115 156 193 232 290 351
#     4  11  24  40  58  83 115 152 197 246 296 349
#     4  10  20  35  58  83 109 148 192 232 279 336
#     4   9  18  35  60  87 116 154 197 241 293 351
#     4   7  12  27  53  82 108 136 177 226 275 334
#
# _framework density 19.400418999999999
#
# number of rings (size 3 to 8) (size 9 to 14) (size 15 to 20)
#    0.000    2.222    1.111    3.000    0.000    4.889 
#    0.000    2.778    0.000    2.000    0.000    0.000 
#    0.000    0.000    0.000    0.000    0.000    0.000 
#
# Total GULP energy -200947.005299 kJ/mol
# GULP energy per Si atom -5581.861258 kJ/mol
# Density = 1.935626 g / cm^3
# Si number density = 19.400419 Si / 1000 Ang^3
#
#
#
# Elastic Constant Matrix: (Units=GPa)
#
#
# Indices 1 2 3 4 5 6 
#
# 1 17.7880 28.0482 27.4712 0.0000 0.0000 0.0000
# 2 28.0482 179.0135 77.0511 0.0000 0.0000 0.0000
# 3 27.4712 77.0511 113.8496 0.0000 0.0000 0.0000
# 4 0.0000 0.0000 0.0000 35.3541 0.0000 0.0000
# 5 0.0000 0.0000 0.0000 0.0000 24.4633 0.0000
# 6 0.0000 0.0000 0.0000 0.0000 0.0000 19.6353
#
#
#
# Elastic Compliance Matrix: (Units=1/GPa)
#
#
# Indices 1 2 3 4 5 6 
#
# 1 0.095652 -0.007130 -0.018255 0.000000 0.000000 0.000000
# 2 -0.007130 0.008414 -0.003974 0.000000 0.000000 0.000000
# 3 -0.018255 -0.003974 0.015878 0.000000 0.000000 0.000000
# 4 0.000000 0.000000 0.000000 0.028285 0.000000 0.000000
# 5 0.000000 0.000000 0.000000 0.000000 0.040878 0.000000
# 6 0.000000 0.000000 0.000000 0.000000 0.000000 0.050929
#
#
# Mechanical properties :
#
#
# Convention : Reuss Voigt Hill
#
# Bulk Modulus (GPa) = 16.33283 63.97690 40.15487
# Shear Modulus (GPa) = 15.66608 27.76258 21.71433
#
# Velocity S-wave (km/s) = 2.84476 3.78700 3.34918
# Velocity P-wave (km/s) = 4.38489 7.22291 5.97485
#
# Compressibility (1/GPa) = 0.06122636
#
# Stress axis : x y z
#
# Youngs Moduli (GPa) = 10.45457 118.85379 62.98112
#
# Poissons Ratio (x) = 0.84738 1.14972
# Poissons Ratio (y) = 0.07454 0.25028
# Poissons Ratio (z) = 0.19085 0.47231
#
# Static dielectric constant tensor:
#      x y z
#    x 1.667110 0.000000 0.000000 
#    y 0.000000 1.667190 0.000000 
#    z 0.000000 0.000000 1.674410 
# 
# From -- ./inp_files/49577.got.cif
#   From: 2010.05.17/outbox.cif.g08.bks.cpg/sg65_25_cif.got.tgz:49577.got - 2010.06.03 17:01:31.
