data_PCOD9490424
_publ_section_title
;
Structure prediction by ZEFSAII (Michael W. Deem and Ramdas Pophale) SiO2 
 PCOD9490424
Probable space group: C M M M
;
_chemical_formula_sum "Si O2"
_cell_formula_units_Z 116
_cell_length_a 30.639838
_cell_length_b 24.608054
_cell_length_c 7.845943
_cell_angle_alpha 90.000000
_cell_angle_beta 90.000000
_cell_angle_gamma 90.000000
_cell_volume 5915.737362
_symmetry_space_group_name_H-M "C M M M"
_symmetry_group_IT_number 65
_symmetry_cell_setting 'orthorhombic'
loop_
_space_group_symop_operation_xyz
x,y,z
-x,-y,z
x,-y,-z
-x,y,-z
-x,-y,-z
x,y,-z
-x,y,z
x,-y,z
1/2+x,1/2+y,z
1/2-x,1/2-y,z
1/2+x,1/2-y,-z
1/2-x,1/2+y,-z
1/2-x,1/2-y,-z
1/2+x,1/2+y,-z
1/2-x,1/2+y,z
1/2+x,1/2-y,z
loop_
_atom_site_type_symbol
_atom_site_label
_atom_site_fract_x
_atom_site_fract_y
_atom_site_fract_z
Si Si1 0.165706 0.145061 0.805441
Si Si2 0.872747 0.332298 0.298245
Si Si3 0.165036 0.561010 0.799061
Si Si4 0.432442 0.627390 0.793786
Si Si5 0.000000 0.094562 0.500000
Si Si6 0.702057 0.243548 0.697010
Si Si7 0.548427 0.754730 0.796211
Si Si8 0.737976 0.562366 0.300499
O O1 0.119080 0.118904 0.761725
O O2 0.178061 0.198431 0.700285
O O3 0.204820 0.102420 0.790546
O O4 0.161280 0.164406 0.000000
O O5 0.867648 0.334880 0.500000
O O6 0.871139 0.393695 0.233868
O O7 0.830866 0.300010 0.223876
O O8 0.915174 0.296454 0.263633
O O9 0.154460 0.500000 0.737056
O O10 0.211333 0.578220 0.718466
O O11 0.172605 0.558286 0.000000
O O12 0.462159 0.597231 0.654524
O O13 0.440627 0.691796 0.759654
O O14 0.441388 0.617797 0.000000
O O15 0.709187 0.226923 0.500000
O O16 0.750000 0.250000 0.776609
O O17 0.500000 0.766217 0.727323
O O18 0.547158 0.758819 0.000000
O O19 0.726899 0.563706 0.500000
O O20 0.734500 0.500000 0.238761
#
# Coordination Sequence:
#
# PCOD9490424 Si02
#       8
#    16  16  16  16   4  16  16  16
#     4  11  22  35  54  80 115 149 183 233 280 335
#     4  11  22  33  54  83 112 146 188 232 281 339
#     4  10  21  38  59  81 108 146 190 233 282 337
#     4  10  22  36  53  85 116 148 193 237 286 347
#     4  12  22  32  64  78 111 162 183 240 288 348
#     4  10  21  34  49  74 112 152 188 223 270 339
#     4  10  20  36  54  75 113 150 185 234 281 337
#     4  10  21  37  58  82 111 146 190 238 279 329
#
# _framework density 19.608713999999999
#
# number of rings (size 3 to 8) (size 9 to 14) (size 15 to 20)
#    0.000    1.655    2.069    2.690    2.897    3.862 
#    0.000    0.000    0.000    0.414    0.000    3.862 
#    0.000    2.207    0.000    0.000    0.000    0.000 
#
# Total GULP energy -323174.790153 kJ/mol
# GULP energy per Si atom -5571.979141 kJ/mol
# Density = 1.956408 g / cm^3
# Si number density = 19.608714 Si / 1000 Ang^3
#
#
#
# Elastic Constant Matrix: (Units=GPa)
#
#
# Indices 1 2 3 4 5 6 
#
# 1 39.0140 -6.5043 0.9571 0.0000 0.0000 0.0000
# 2 -6.5043 30.6070 -9.3500 0.0000 0.0000 0.0000
# 3 0.9571 -9.3500 48.1884 0.0000 0.0000 0.0000
# 4 0.0000 0.0000 0.0000 14.9710 0.0000 0.0000
# 5 0.0000 0.0000 0.0000 0.0000 28.0156 0.0000
# 6 0.0000 0.0000 0.0000 0.0000 0.0000 13.9239
#
#
#
# Elastic Compliance Matrix: (Units=1/GPa)
#
#
# Indices 1 2 3 4 5 6 
#
# 1 0.026590 0.005835 0.000604 0.000000 0.000000 0.000000
# 2 0.005835 0.036011 0.006871 0.000000 0.000000 0.000000
# 3 0.000604 0.006871 0.022073 0.000000 0.000000 0.000000
# 4 0.000000 0.000000 0.000000 0.066796 0.000000 0.000000
# 5 0.000000 0.000000 0.000000 0.000000 0.035694 0.000000
# 6 0.000000 0.000000 0.000000 0.000000 0.000000 0.071819
#
#
# Mechanical properties :
#
#
# Convention : Reuss Voigt Hill
#
# Bulk Modulus (GPa) = 8.98509 9.77946 9.38228
# Shear Modulus (GPa) = 18.55559 20.22921 19.39240
#
# Velocity S-wave (km/s) = 3.07953 3.21541 3.14820
# Velocity P-wave (km/s) = 4.15172 4.33396 4.24382
#
# Compressibility (1/GPa) = 0.11129544
#
# Stress axis : x y z
#
# Youngs Moduli (GPa) = 37.60842 27.76899 45.30393
#
# Poissons Ratio (x) = -0.16203 -0.02737
# Poissons Ratio (y) = -0.21945 -0.31130
# Poissons Ratio (z) = -0.02272 -0.19081
#
# Static dielectric constant tensor:
#      x y z
#    x 1.734780 0.000000 0.000000 
#    y 0.000000 1.704200 0.000000 
#    z 0.000000 0.000000 1.718240 
# 
# From -- ./inp_files/18969.got.cif
#   From: 2010.05.17/outbox.cif.g08.bks.cpg/sg65_10_cif.got.tgz:18969.got - 2010.06.03 17:01:31.
