data_PCOD9490062
_publ_section_title
;
Structure prediction by ZEFSAII (Michael W. Deem and Ramdas Pophale) SiO2 
 PCOD9490062
Probable space group: C M M M
;
_chemical_formula_sum "Si O2"
_cell_formula_units_Z 112
_cell_length_a 13.850371
_cell_length_b 15.170655
_cell_length_c 27.411256
_cell_angle_alpha 90.000000
_cell_angle_beta 90.000000
_cell_angle_gamma 90.000000
_cell_volume 5759.631183
_symmetry_space_group_name_H-M "C M M M"
_symmetry_group_IT_number 65
_symmetry_cell_setting 'orthorhombic'
loop_
_space_group_symop_operation_xyz
x,y,z
-x,-y,z
x,-y,-z
-x,y,-z
-x,-y,-z
x,y,-z
-x,y,z
x,-y,z
1/2+x,1/2+y,z
1/2-x,1/2-y,z
1/2+x,1/2-y,-z
1/2-x,1/2+y,-z
1/2-x,1/2-y,-z
1/2+x,1/2+y,-z
1/2-x,1/2+y,z
1/2+x,1/2-y,z
loop_
_atom_site_type_symbol
_atom_site_label
_atom_site_fract_x
_atom_site_fract_y
_atom_site_fract_z
Si Si1 0.786529 0.656595 0.290805
Si Si2 0.612432 0.730915 0.942600
Si Si3 0.108488 0.603448 0.805998
Si Si4 0.275358 0.891711 0.098040
Si Si5 0.105723 0.896651 0.352284
Si Si6 0.281557 0.649303 0.553798
Si Si7 0.391082 0.100003 0.617986
O O1 0.750000 0.750000 0.272749
O O2 0.845987 0.614344 0.247349
O O3 0.689399 0.613121 0.312127
O O4 0.854215 0.662739 0.338767
O O5 0.500000 0.728027 0.929501
O O6 0.652627 0.830577 0.934420
O O7 0.674018 0.657537 0.913041
O O8 0.623363 0.710326 0.000000
O O9 0.097056 0.500000 0.814512
O O10 0.184369 0.629939 0.847762
O O11 0.000000 0.643514 0.809458
O O12 0.274275 0.000000 0.090673
O O13 0.139602 0.856320 0.403640
O O14 0.000000 0.863879 0.336980
O O15 0.099775 0.000000 0.362163
O O16 0.310721 0.617665 0.500000
O O17 0.250000 0.750000 0.550192
O O18 0.185974 0.602418 0.574720
O O19 0.500000 0.120141 0.602728
O O20 0.389178 0.000000 0.638514
#
# Coordination Sequence:
#
# PCOD9490062 Si02
#       7
#    16  16  16  16  16  16  16
#     4  11  22  34  55  83 108 140 179 222 275 330
#     4  10  22  39  61  91 128 168 210 258 309 364
#     4  10  21  38  60  84 112 148 190 236 287 343
#     4  10  21  38  61  89 123 164 209 259 311 364
#     4  10  21  37  55  74 102 140 179 220 263 317
#     4  10  21  35  52  76 104 134 170 215 268 324
#     4  10  20  35  56  78 103 136 173 218 271 327
#
# _framework density 19.445689000000002
#
# number of rings (size 3 to 8) (size 9 to 14) (size 15 to 20)
#    0.000    1.857    0.000    6.000    2.000    8.000 
#    0.000    5.000    0.000    0.857    0.000    0.000 
#    0.000    0.000    0.000    0.000    0.000    0.000 
#
# Total GULP energy -311974.113813 kJ/mol
# GULP energy per Si atom -5570.966318 kJ/mol
# Density = 1.940143 g / cm^3
# Si number density = 19.445689 Si / 1000 Ang^3
#
#
#
# Elastic Constant Matrix: (Units=GPa)
#
#
# Indices 1 2 3 4 5 6 
#
# 1 139.6674 34.1957 44.5888 0.0000 0.0000 0.0000
# 2 34.1957 69.0820 16.1009 0.0000 0.0000 0.0000
# 3 44.5888 16.1009 92.1069 0.0000 0.0000 0.0000
# 4 0.0000 0.0000 0.0000 30.8922 0.0000 0.0000
# 5 0.0000 0.0000 0.0000 0.0000 3.3635 0.0000
# 6 0.0000 0.0000 0.0000 0.0000 0.0000 65.1196
#
#
#
# Elastic Compliance Matrix: (Units=1/GPa)
#
#
# Indices 1 2 3 4 5 6 
#
# 1 0.009297 -0.003704 -0.003853 0.000000 0.000000 0.000000
# 2 -0.003704 0.016566 -0.001103 0.000000 0.000000 0.000000
# 3 -0.003853 -0.001103 0.012915 0.000000 0.000000 0.000000
# 4 0.000000 0.000000 0.000000 0.032371 0.000000 0.000000
# 5 0.000000 0.000000 0.000000 0.000000 0.297311 0.000000
# 6 0.000000 0.000000 0.000000 0.000000 0.000000 0.015356
#
#
# Mechanical properties :
#
#
# Convention : Reuss Voigt Hill
#
# Bulk Modulus (GPa) = 46.60214 54.51411 50.55812
# Shear Modulus (GPa) = 12.24625 33.60646 22.92636
#
# Velocity S-wave (km/s) = 2.51224 4.16170 3.43737
# Velocity P-wave (km/s) = 5.69495 7.15457 6.46608
#
# Compressibility (1/GPa) = 0.02145824
#
# Stress axis : x y z
#
# Youngs Moduli (GPa) = 107.56367 60.36451 77.42932
#
# Poissons Ratio (x) = 0.22358 0.29834
# Poissons Ratio (y) = 0.39841 0.08539
# Poissons Ratio (z) = 0.41445 0.06657
#
# Static dielectric constant tensor:
#      x y z
#    x 1.713390 0.000000 0.000000 
#    y 0.000000 1.728030 0.000000 
#    z 0.000000 0.000000 1.677630 
# 
# From -- ./inp_files/74867.got.cif
#   From: 2010.05.17/outbox.cif.g08.bks.cpg/sg65_38_cif.got.tgz:74867.got - 2010.06.03 17:01:31.
