data_PCOD9490373
_publ_section_title
;
Structure prediction by ZEFSAII (Michael W. Deem and Ramdas Pophale) SiO2 
 PCOD9490373
Probable space group: C M M M
;
_chemical_formula_sum "Si O2"
_cell_formula_units_Z 100
_cell_length_a 13.742402
_cell_length_b 19.591537
_cell_length_c 16.162065
_cell_angle_alpha 90.000000
_cell_angle_beta 90.000000
_cell_angle_gamma 90.000000
_cell_volume 4351.389970
_symmetry_space_group_name_H-M "C M M M"
_symmetry_group_IT_number 65
_symmetry_cell_setting 'orthorhombic'
loop_
_space_group_symop_operation_xyz
x,y,z
-x,-y,z
x,-y,-z
-x,y,-z
-x,-y,-z
x,y,-z
-x,y,z
x,-y,z
1/2+x,1/2+y,z
1/2-x,1/2-y,z
1/2+x,1/2-y,-z
1/2-x,1/2+y,-z
1/2-x,1/2-y,-z
1/2+x,1/2+y,-z
1/2-x,1/2+y,z
1/2+x,1/2-y,z
loop_
_atom_site_type_symbol
_atom_site_label
_atom_site_fract_x
_atom_site_fract_y
_atom_site_fract_z
Si Si1 0.799601 0.918916 0.500000
Si Si2 0.390772 0.819529 0.680475
Si Si3 0.205647 0.919440 0.320850
Si Si4 0.892739 0.396760 0.095921
Si Si5 0.818833 0.898007 0.141666
Si Si6 0.609822 0.256684 0.153140
Si Si7 0.877671 0.000000 0.000000
Si Si8 0.841661 0.700405 0.500000
O O1 0.843957 0.901820 0.590283
O O2 0.698416 0.877405 0.500000
O O3 0.785517 0.000000 0.500000
O O4 0.500000 0.846344 0.698557
O O5 0.304417 0.874679 0.684034
O O6 0.369331 0.764388 0.751754
O O7 0.391979 0.789831 0.587945
O O8 0.147446 0.906254 0.236342
O O9 0.228069 0.000000 0.322507
O O10 0.794460 0.421316 0.138763
O O11 0.890634 0.314658 0.104794
O O12 0.000000 0.418912 0.125506
O O13 0.884432 0.416046 0.000000
O O14 0.822981 0.817462 0.122816
O O15 0.873366 0.941078 0.072913
O O16 0.500000 0.284211 0.148873
O O17 0.750000 0.750000 0.500000
#
# Coordination Sequence:
#
# PCOD9490373 Si02
#       8
#     8  16  16  16  16  16   4   8
#     4   8  18  35  52  80 118 156 210 242 288 355
#     4  10  21  37  56  87 127 162 204 254 307 364
#     4  10  20  35  59  88 120 164 204 248 290 369
#     4  10  21  37  59  88 116 147 192 242 297 368
#     4  12  23  40  62  82 123 159 200 249 317 359
#     4  10  23  39  60  88 116 155 207 256 305 366
#     4  12  28  44  60  94 116 162 210 250 308 398
#     4  10  21  31  56  90 126 164 208 250 313 363
#
# _framework density 22.981162000000001
#
# number of rings (size 3 to 8) (size 9 to 14) (size 15 to 20)
#    0.000    1.760    3.200    0.720    5.600    0.960 
#    0.000    1.600    0.000    4.800    0.000    0.000 
#    0.000    2.560    0.000    0.000    0.000    0.000 
#
# Total GULP energy -278503.430757 kJ/mol
# GULP energy per Si atom -5570.068615 kJ/mol
# Density = 2.292886 g / cm^3
# Si number density = 22.981162 Si / 1000 Ang^3
#
#
#
# Elastic Constant Matrix: (Units=GPa)
#
#
# Indices 1 2 3 4 5 6 
#
# 1 49.0170 -2.9135 7.0710 0.0000 0.0000 0.0000
# 2 -2.9135 95.5274 22.4841 0.0000 0.0000 0.0000
# 3 7.0710 22.4841 170.0162 0.0000 0.0000 0.0000
# 4 0.0000 0.0000 0.0000 42.7131 0.0000 0.0000
# 5 0.0000 0.0000 0.0000 0.0000 -30.9661 0.0000
# 6 0.0000 0.0000 0.0000 0.0000 0.0000 -52.0550
#
#
#
# Elastic Compliance Matrix: (Units=1/GPa)
#
#
# Indices 1 2 3 4 5 6 
#
# 1 0.020592 0.000856 -0.000970 0.000000 0.000000 0.000000
# 2 0.000856 0.010840 -0.001469 0.000000 0.000000 0.000000
# 3 -0.000970 -0.001469 0.006116 0.000000 0.000000 0.000000
# 4 0.000000 0.000000 0.000000 0.023412 0.000000 0.000000
# 5 0.000000 0.000000 0.000000 0.000000 -0.032293 0.000000
# 6 0.000000 0.000000 0.000000 0.000000 0.000000 -0.019210
#
#
# Mechanical properties :
#
#
# Convention : Reuss Voigt Hill
#
# Bulk Modulus (GPa) = 29.08394 40.87153 34.97773
# Shear Modulus (GPa) = 207.61691 11.13301 109.37496
#
# Velocity S-wave (km/s) = 9.51516 2.20339 6.90627
# Velocity P-wave (km/s) = 11.54993 4.92916 8.87968
#
# Compressibility (1/GPa) = 0.03438324
#
# Stress axis : x y z
#
# Youngs Moduli (GPa) = 48.56286 92.24993 163.49440
#
# Poissons Ratio (x) = -0.07899 0.15853
# Poissons Ratio (y) = -0.04158 0.24020
# Poissons Ratio (z) = 0.04709 0.13553
#
# Static dielectric constant tensor:
#      x y z
#    x 1.904500 0.000000 0.000000 
#    y 0.000000 1.842660 0.000000 
#    z 0.000000 0.000000 1.912690 
# 
# From -- ./inp_files/53383.got.cif
#   From: 2010.05.17/outbox.cif.g08.bks.cpg/sg65_27_cif.got.tgz:53383.got - 2010.06.03 17:01:31.
