data_PCOD9490723
_publ_section_title
;
Structure prediction by ZEFSAII (Michael W. Deem and Ramdas Pophale) SiO2 
 PCOD9490723
Probable space group: C M M M
;
_chemical_formula_sum "Si O2"
_cell_formula_units_Z 72
_cell_length_a 10.306452
_cell_length_b 15.961210
_cell_length_c 23.910639
_cell_angle_alpha 90.000000
_cell_angle_beta 90.000000
_cell_angle_gamma 90.000000
_cell_volume 3933.382481
_symmetry_space_group_name_H-M "C M M M"
_symmetry_group_IT_number 65
_symmetry_cell_setting 'orthorhombic'
loop_
_space_group_symop_operation_xyz
x,y,z
-x,-y,z
x,-y,-z
-x,y,-z
-x,-y,-z
x,y,-z
-x,y,z
x,-y,z
1/2+x,1/2+y,z
1/2-x,1/2-y,z
1/2+x,1/2-y,-z
1/2-x,1/2+y,-z
1/2-x,1/2-y,-z
1/2+x,1/2+y,-z
1/2-x,1/2+y,z
1/2+x,1/2-y,z
loop_
_atom_site_type_symbol
_atom_site_label
_atom_site_fract_x
_atom_site_fract_y
_atom_site_fract_z
Si Si1 0.000000 0.347165 0.937067
Si Si2 0.155656 0.672360 0.372234
Si Si3 0.657100 0.000000 0.564157
Si Si4 0.500000 0.352171 0.063617
Si Si5 0.847245 0.400635 0.750307
Si Si6 0.748258 0.099324 0.866822
O O1 0.000000 0.247462 0.941103
O O2 0.126114 0.373126 0.903143
O O3 0.000000 0.382548 0.000000
O O4 0.250000 0.750000 0.386654
O O5 0.192822 0.586862 0.405190
O O6 0.171965 0.649759 0.306674
O O7 0.000000 0.688757 0.381738
O O8 0.500000 0.000000 0.564628
O O9 0.701748 0.000000 0.500000
O O10 0.375288 0.377365 0.099143
O O11 0.500000 0.386839 0.000000
O O12 0.821283 0.500000 0.739661
O O13 0.764957 0.368678 0.803173
O O14 0.000000 0.395208 0.765850
O O15 0.742614 0.000000 0.861198
#
# Coordination Sequence:
#
# PCOD9490723 Si02
#       6
#     8  16   8   8  16  16
#     4  11  23  39  57  79 107 145 187 232 283 344
#     4  10  20  36  60  89 122 161 203 247 296 349
#     4   9  18  36  63  91 123 169 212 245 283 343
#     4  11  25  41  55  77 117 151 177 228 303 360
#     4   9  17  35  59  81 110 147 191 243 293 343
#     4  11  22  38  60  83 106 141 189 240 284 347
#
# _framework density 18.304855
#
# number of rings (size 3 to 8) (size 9 to 14) (size 15 to 20)
#    0.000    1.889    2.222    2.000    0.000    6.667 
#    2.000    0.556    0.000    0.667    0.000    0.000 
#    0.000    0.000    0.000    0.000    0.000    0.000 
#
# Total GULP energy -200851.700443 kJ/mol
# GULP energy per Si atom -5579.213901 kJ/mol
# Density = 1.826319 g / cm^3
# Si number density = 18.304855 Si / 1000 Ang^3
#
#
#
# Elastic Constant Matrix: (Units=GPa)
#
#
# Indices 1 2 3 4 5 6 
#
# 1 110.4341 45.4188 56.5734 0.0000 0.0000 0.0000
# 2 45.4188 101.8365 54.1696 0.0000 0.0000 0.0000
# 3 56.5734 54.1696 134.4100 0.0000 0.0000 0.0000
# 4 0.0000 0.0000 0.0000 -120.3530 0.0000 0.0000
# 5 0.0000 0.0000 0.0000 0.0000 19.1829 0.0000
# 6 0.0000 0.0000 0.0000 0.0000 0.0000 37.6370
#
#
#
# Elastic Compliance Matrix: (Units=1/GPa)
#
#
# Indices 1 2 3 4 5 6 
#
# 1 0.012465 -0.003524 -0.003826 0.000000 0.000000 0.000000
# 2 -0.003524 0.013495 -0.003956 0.000000 0.000000 0.000000
# 3 -0.003826 -0.003956 0.010645 0.000000 0.000000 0.000000
# 4 0.000000 0.000000 0.000000 -0.008309 0.000000 0.000000
# 5 0.000000 0.000000 0.000000 0.000000 0.052130 0.000000
# 6 0.000000 0.000000 0.000000 0.000000 0.000000 0.026570
#
#
# Mechanical properties :
#
#
# Convention : Reuss Voigt Hill
#
# Bulk Modulus (GPa) = 71.46397 73.22269 72.34333
# Shear Modulus (GPa) = 37.23818 -0.00535 18.61641
#
# Velocity S-wave (km/s) = 4.51525 -0.05413 3.19254
# Velocity P-wave (km/s) = 8.14304 6.33125 7.29362
#
# Compressibility (1/GPa) = 0.01399306
#
# Stress axis : x y z
#
# Youngs Moduli (GPa) = 80.22764 74.09907 93.94472
#
# Poissons Ratio (x) = 0.26112 0.35945
# Poissons Ratio (y) = 0.28272 0.37162
# Poissons Ratio (z) = 0.30696 0.29311
#
# Static dielectric constant tensor:
#      x y z
#    x 1.634950 0.000000 0.000000 
#    y 0.000000 1.636360 0.000000 
#    z 0.000000 0.000000 1.652160 
# 
# From -- ./inp_files/67164.got.cif
#   From: 2010.05.17/outbox.cif.g08.bks.cpg/sg65_34_cif.got.tgz:67164.got - 2010.06.03 17:01:31.
