data_PCOD9490974
_publ_section_title
;
Structure prediction by ZEFSAII (Michael W. Deem and Ramdas Pophale) SiO2 
 PCOD9490974
Probable space group: C M M M
;
_chemical_formula_sum "Si O2"
_cell_formula_units_Z 64
_cell_length_a 18.319638
_cell_length_b 14.355910
_cell_length_c 11.750681
_cell_angle_alpha 90.000000
_cell_angle_beta 90.000000
_cell_angle_gamma 90.000000
_cell_volume 3090.371223
_symmetry_space_group_name_H-M "C M M M"
_symmetry_group_IT_number 65
_symmetry_cell_setting 'orthorhombic'
loop_
_space_group_symop_operation_xyz
x,y,z
-x,-y,z
x,-y,-z
-x,y,-z
-x,-y,-z
x,y,-z
-x,y,z
x,-y,z
1/2+x,1/2+y,z
1/2-x,1/2-y,z
1/2+x,1/2-y,-z
1/2-x,1/2+y,-z
1/2-x,1/2-y,-z
1/2+x,1/2+y,-z
1/2-x,1/2+y,z
1/2+x,1/2-y,z
loop_
_atom_site_type_symbol
_atom_site_label
_atom_site_fract_x
_atom_site_fract_y
_atom_site_fract_z
Si Si1 0.623276 0.396383 0.244341
Si Si2 0.913749 0.812154 0.000000
Si Si3 0.641567 0.899577 0.000000
Si Si4 0.280790 0.146692 0.771878
Si Si5 0.919250 0.709754 0.635697
O O1 0.591894 0.500000 0.252954
O O2 0.617714 0.359303 0.114043
O O3 0.708802 0.400622 0.276984
O O4 0.587238 0.316078 0.320184
O O5 0.900111 0.700144 0.000000
O O6 0.000000 0.828022 0.000000
O O7 0.691821 0.896225 0.888739
O O8 0.601306 0.000000 0.000000
O O9 0.250000 0.250000 0.795766
O O10 0.351414 0.155856 0.691687
O O11 0.913791 0.706671 0.500000
O O12 0.000000 0.674499 0.670187
#
# Coordination Sequence:
#
# PCOD9490974 Si02
#       5
#    16   8   8  16  16
#     4  11  23  38  63  95 127 165 207 254 308 367
#     4  12  24  40  60  93 135 170 201 245 311 384
#     4  12  22  36  62  93 122 158 201 253 305 362
#     4  10  20  38  62  90 124 165 204 251 307 370
#     4  10  22  40  63  89 122 166 212 257 311 369
#
# _framework density 20.709485999999998
#
# number of rings (size 3 to 8) (size 9 to 14) (size 15 to 20)
#    0.000    1.250    5.000    3.000    0.000    7.750 
#    0.000    1.250    0.000    4.500    0.000    7.000 
#    0.000    0.000    0.000    0.000    0.000    0.000 
#
# Total GULP energy -178610.323685 kJ/mol
# GULP energy per Si atom -5581.572615 kJ/mol
# Density = 2.066235 g / cm^3
# Si number density = 20.709486 Si / 1000 Ang^3
#
#
#
# Elastic Constant Matrix: (Units=GPa)
#
#
# Indices 1 2 3 4 5 6 
#
# 1 158.6657 9.8727 45.2184 0.0000 0.0000 0.0000
# 2 9.8727 71.2167 1.4523 0.0000 0.0000 0.0000
# 3 45.2184 1.4523 78.2129 0.0000 0.0000 0.0000
# 4 0.0000 0.0000 0.0000 14.9914 0.0000 0.0000
# 5 0.0000 0.0000 0.0000 0.0000 28.5110 0.0000
# 6 0.0000 0.0000 0.0000 0.0000 0.0000 -15.5116
#
#
#
# Elastic Compliance Matrix: (Units=1/GPa)
#
#
# Indices 1 2 3 4 5 6 
#
# 1 0.007612 -0.000966 -0.004383 0.000000 0.000000 0.000000
# 2 -0.000966 0.014170 0.000295 0.000000 0.000000 0.000000
# 3 -0.004383 0.000295 0.015314 0.000000 0.000000 0.000000
# 4 0.000000 0.000000 0.000000 0.066705 0.000000 0.000000
# 5 0.000000 0.000000 0.000000 0.000000 0.035074 0.000000
# 6 0.000000 0.000000 0.000000 0.000000 0.000000 -0.064468
#
#
# Mechanical properties :
#
#
# Convention : Reuss Voigt Hill
#
# Bulk Modulus (GPa) = 37.05263 46.79802 41.92532
# Shear Modulus (GPa) = 53.47060 22.36828 37.91944
#
# Velocity S-wave (km/s) = 5.08679 3.29005 4.28368
# Velocity P-wave (km/s) = 7.24093 6.08925 6.68992
#
# Compressibility (1/GPa) = 0.02698864
#
# Stress axis : x y z
#
# Youngs Moduli (GPa) = 131.37680 70.57401 65.29982
#
# Poissons Ratio (x) = 0.06816 0.28619
# Poissons Ratio (y) = 0.12689 -0.01928
# Poissons Ratio (z) = 0.57579 -0.02084
#
# Static dielectric constant tensor:
#      x y z
#    x 1.763040 0.000000 0.000000 
#    y 0.000000 1.794480 0.000000 
#    z 0.000000 0.000000 1.699220 
# 
# From -- ./inp_files/26128.got.cif
#   From: 2010.05.17/outbox.cif.g08.bks.cpg/sg65_14_cif.got.tgz:26128.got - 2010.06.03 17:01:31.
