data_PCOD9490650
_publ_section_title
;
Structure prediction by ZEFSAII (Michael W. Deem and Ramdas Pophale) SiO2 
 PCOD9490650
Probable space group: C M M M
;
_chemical_formula_sum "Si O2"
_cell_formula_units_Z 72
_cell_length_a 14.618061
_cell_length_b 7.632235
_cell_length_c 27.587847
_cell_angle_alpha 90.000000
_cell_angle_beta 90.000000
_cell_angle_gamma 90.000000
_cell_volume 3077.934068
_symmetry_space_group_name_H-M "C M M M"
_symmetry_group_IT_number 65
_symmetry_cell_setting 'orthorhombic'
loop_
_space_group_symop_operation_xyz
x,y,z
-x,-y,z
x,-y,-z
-x,y,-z
-x,-y,-z
x,y,-z
-x,y,z
x,-y,z
1/2+x,1/2+y,z
1/2-x,1/2-y,z
1/2+x,1/2-y,-z
1/2-x,1/2+y,-z
1/2-x,1/2-y,-z
1/2+x,1/2+y,-z
1/2-x,1/2+y,z
1/2+x,1/2-y,z
loop_
_atom_site_type_symbol
_atom_site_label
_atom_site_fract_x
_atom_site_fract_y
_atom_site_fract_z
Si Si1 0.143568 0.293249 0.365559
Si Si2 0.500000 0.294528 0.553812
Si Si3 0.858846 0.710888 0.260940
Si Si4 0.141082 0.710956 0.052198
Si Si5 0.641060 0.789004 0.843405
O O1 0.135043 0.500000 0.360727
O O2 0.250000 0.250000 0.371279
O O3 0.109389 0.220183 0.313367
O O4 0.086738 0.245634 0.412634
O O5 0.500000 0.500000 0.547552
O O6 0.500000 0.212808 0.500000
O O7 0.872329 0.500000 0.260124
O O8 0.750000 0.750000 0.261319
O O9 0.893714 0.777135 0.208783
O O10 0.128784 0.500000 0.052179
O O11 0.250000 0.750000 0.052215
O O12 0.106215 0.776599 0.104394
O O13 0.106203 0.776542 0.000000
O O14 0.750000 0.750000 0.843306
O O15 0.628788 0.000000 0.843536
#
# Coordination Sequence:
#
# PCOD9490650 Si02
#       5
#    16   8  16  16  16
#     4  10  20  36  59  85 113 145 181 221 266 316
#     4  11  25  43  61  83 111 143 180 219 260 310
#     4   8  14  24  40  63  89 119 156 198 245 296
#     4   8  12  16  22  34  56  91 135 180 225 273
#     4   8  12  18  28  44  69 101 140 186 232 280
#
# _framework density 23.392313999999999
#
# number of rings (size 3 to 8) (size 9 to 14) (size 15 to 20)
#    0.000    3.222    0.000    1.000    0.000    2.222 
#    0.000    0.000    0.000    0.000    0.000    0.000 
#    0.000    0.000    0.000    1.000    0.000   29.556 
#
# Total GULP energy -200562.598514 kJ/mol
# GULP energy per Si atom -5571.183292 kJ/mol
# Density = 2.333907 g / cm^3
# Si number density = 23.392314 Si / 1000 Ang^3
#
#
#
# Elastic Constant Matrix: (Units=GPa)
#
#
# Indices 1 2 3 4 5 6 
#
# 1 95.9618 -4.8036 68.5451 0.0000 0.0000 0.0000
# 2 -4.8036 56.6941 19.7262 0.0000 0.0000 0.0000
# 3 68.5451 19.7262 352.0831 0.0000 0.0000 0.0000
# 4 0.0000 0.0000 0.0000 9.7222 0.0000 0.0000
# 5 0.0000 0.0000 0.0000 0.0000 29.0182 0.0000
# 6 0.0000 0.0000 0.0000 0.0000 0.0000 -0.4312
#
#
#
# Elastic Compliance Matrix: (Units=1/GPa)
#
#
# Indices 1 2 3 4 5 6 
#
# 1 0.012304 0.001913 -0.002503 0.000000 0.000000 0.000000
# 2 0.001913 0.018287 -0.001397 0.000000 0.000000 0.000000
# 3 -0.002503 -0.001397 0.003406 0.000000 0.000000 0.000000
# 4 0.000000 0.000000 0.000000 0.102857 0.000000 0.000000
# 5 0.000000 0.000000 0.000000 0.000000 0.034461 0.000000
# 6 0.000000 0.000000 0.000000 0.000000 0.000000 -2.319338
#
#
# Mechanical properties :
#
#
# Convention : Reuss Voigt Hill
#
# Bulk Modulus (GPa) = 33.30681 74.63047 53.96864
# Shear Modulus (GPa) = -2.34297 35.74661 16.70182
#
# Velocity S-wave (km/s) = -1.00188 3.91338 2.67495
# Velocity P-wave (km/s) = 3.59596 7.23826 5.71504
#
# Compressibility (1/GPa) = 0.03002389
#
# Stress axis : x y z
#
# Youngs Moduli (GPa) = 81.27302 54.68448 293.62246
#
# Poissons Ratio (x) = -0.10463 0.73483
# Poissons Ratio (y) = -0.15550 0.41020
# Poissons Ratio (z) = 0.20340 0.07640
#
# Static dielectric constant tensor:
#      x y z
#    x 1.626820 0.000000 0.000000 
#    y 0.000000 1.859650 0.000000 
#    z 0.000000 0.000000 2.031400 
# 
# From -- ./inp_files/72495.got.cif
#   From: 2010.05.17/outbox.cif.g08.bks.cpg/sg65_37_cif.got.tgz:72495.got - 2010.06.03 17:01:31.
