data_PCOD9490832
_publ_section_title
;
Structure prediction by ZEFSAII (Michael W. Deem and Ramdas Pophale) SiO2 
 PCOD9490832
Probable space group: C M M M
;
_chemical_formula_sum "Si O2"
_cell_formula_units_Z 68
_cell_length_a 16.868256
_cell_length_b 25.007056
_cell_length_c 8.068677
_cell_angle_alpha 90.000000
_cell_angle_beta 90.000000
_cell_angle_gamma 90.000000
_cell_volume 3403.573084
_symmetry_space_group_name_H-M "C M M M"
_symmetry_group_IT_number 65
_symmetry_cell_setting 'orthorhombic'
loop_
_space_group_symop_operation_xyz
x,y,z
-x,-y,z
x,-y,-z
-x,y,-z
-x,-y,-z
x,y,-z
-x,y,z
x,-y,z
1/2+x,1/2+y,z
1/2-x,1/2-y,z
1/2+x,1/2-y,-z
1/2-x,1/2+y,-z
1/2-x,1/2-y,-z
1/2+x,1/2+y,-z
1/2-x,1/2+y,z
1/2+x,1/2-y,z
loop_
_atom_site_type_symbol
_atom_site_label
_atom_site_fract_x
_atom_site_fract_y
_atom_site_fract_z
Si Si1 0.174091 0.717991 0.696892
Si Si2 0.845685 0.500000 0.186324
Si Si3 0.096865 0.109777 0.000000
Si Si4 0.906940 0.174858 0.318098
Si Si5 0.310570 0.500000 0.000000
Si Si6 0.409483 0.886941 0.698469
O O1 0.190151 0.709881 0.500000
O O2 0.250000 0.750000 0.766644
O O3 0.105276 0.762159 0.709816
O O4 0.145714 0.661200 0.765743
O O5 0.874202 0.554552 0.269079
O O6 0.880191 0.500000 0.000000
O O7 0.750874 0.500000 0.154812
O O8 0.124456 0.141318 0.835840
O O9 0.134975 0.051792 0.000000
O O10 0.000000 0.107579 0.000000
O O11 0.871681 0.162014 0.500000
O O12 0.000000 0.163711 0.325862
O O13 0.413468 0.879500 0.500000
O O14 0.500000 0.883390 0.761822
#
# Coordination Sequence:
#
# PCOD9490832 Si02
#       6
#    16   8   8  16   4  16
#     4   9  18  31  54  86 120 152 189 241 298 356
#     4  10  24  39  55  78 112 151 191 250 298 347
#     4  10  21  40  64  86 116 159 202 243 298 364
#     4   9  18  35  59  87 119 153 191 239 294 358
#     4  10  25  42  57  80 120 154 188 254 307 344
#     4  10  20  37  60  84 113 155 203 246 296 358
#
# _framework density 19.979002999999999
#
# number of rings (size 3 to 8) (size 9 to 14) (size 15 to 20)
#    0.353    2.118    0.000    1.588    3.294    4.706 
#    2.118    2.353    0.000    2.824    0.000    0.000 
#    0.000    0.000    0.000    0.000    0.000    0.000 
#
# Total GULP energy -189434.577355 kJ/mol
# GULP energy per Si atom -5571.605216 kJ/mol
# Density = 1.993353 g / cm^3
# Si number density = 19.979003 Si / 1000 Ang^3
#
#
#
# Elastic Constant Matrix: (Units=GPa)
#
#
# Indices 1 2 3 4 5 6 
#
# 1 63.7173 56.9135 21.4334 0.0000 0.0000 0.0000
# 2 56.9135 177.8940 46.6648 0.0000 0.0000 0.0000
# 3 21.4334 46.6648 58.7380 0.0000 0.0000 0.0000
# 4 0.0000 0.0000 0.0000 25.1722 0.0000 0.0000
# 5 0.0000 0.0000 0.0000 0.0000 2.1966 0.0000
# 6 0.0000 0.0000 0.0000 0.0000 0.0000 22.1790
#
#
#
# Elastic Compliance Matrix: (Units=1/GPa)
#
#
# Indices 1 2 3 4 5 6 
#
# 1 0.022422 -0.006351 -0.003136 0.000000 0.000000 0.000000
# 2 -0.006351 0.008900 -0.004753 0.000000 0.000000 0.000000
# 3 -0.003136 -0.004753 0.021945 0.000000 0.000000 0.000000
# 4 0.000000 0.000000 0.000000 0.039726 0.000000 0.000000
# 5 0.000000 0.000000 0.000000 0.000000 0.455243 0.000000
# 6 0.000000 0.000000 0.000000 0.000000 0.000000 0.045088
#
#
# Mechanical properties :
#
#
# Convention : Reuss Voigt Hill
#
# Bulk Modulus (GPa) = 40.34425 61.15252 50.74839
# Shear Modulus (GPa) = 7.93566 21.59874 14.76720
#
# Velocity S-wave (km/s) = 1.99515 3.29153 2.72165
# Velocity P-wave (km/s) = 5.05417 6.71717 5.94412
#
# Compressibility (1/GPa) = 0.02478668
#
# Stress axis : x y z
#
# Youngs Moduli (GPa) = 44.59926 112.35986 45.56751
#
# Poissons Ratio (x) = 0.71356 0.14292
# Poissons Ratio (y) = 0.28324 0.21660
# Poissons Ratio (z) = 0.13988 0.53408
#
# Static dielectric constant tensor:
#      x y z
#    x 1.744040 0.000000 0.000000 
#    y 0.000000 1.670360 0.000000 
#    z 0.000000 0.000000 1.743360 
# 
# From -- ./inp_files/8967.got.cif
#   From: 2010.05.17/outbox.cif.g08.bks.cpg/sg65_5_cif.got.tgz:8967.got - 2010.06.03 17:01:31.
