data_PCOD9490755
_publ_section_title
;
Structure prediction by ZEFSAII (Michael W. Deem and Ramdas Pophale) SiO2 
 PCOD9490755
Probable space group: C M M M
;
_chemical_formula_sum "Si O2"
_cell_formula_units_Z 66
_cell_length_a 15.917874
_cell_length_b 7.745737
_cell_length_c 26.710098
_cell_angle_alpha 90.000000
_cell_angle_beta 90.000000
_cell_angle_gamma 90.000000
_cell_volume 3293.239311
_symmetry_space_group_name_H-M "C M M M"
_symmetry_group_IT_number 65
_symmetry_cell_setting 'orthorhombic'
loop_
_space_group_symop_operation_xyz
x,y,z
-x,-y,z
x,-y,-z
-x,y,-z
-x,-y,-z
x,y,-z
-x,y,z
x,-y,z
1/2+x,1/2+y,z
1/2-x,1/2-y,z
1/2+x,1/2-y,-z
1/2-x,1/2+y,-z
1/2-x,1/2-y,-z
1/2+x,1/2+y,-z
1/2-x,1/2+y,z
1/2+x,1/2-y,z
loop_
_atom_site_type_symbol
_atom_site_label
_atom_site_fract_x
_atom_site_fract_y
_atom_site_fract_z
Si Si1 0.000000 0.287294 0.089458
Si Si2 0.500000 0.295786 0.443977
Si Si3 0.000000 0.000000 0.000000
Si Si4 0.843456 0.294247 0.839244
Si Si5 0.157357 0.703737 0.624762
Si Si6 0.098596 0.288999 0.268257
O O1 0.082270 0.246771 0.123006
O O2 0.000000 0.500000 0.078901
O O3 0.000000 0.155649 0.043347
O O4 0.500000 0.500000 0.448666
O O5 0.500000 0.219270 0.500000
O O6 0.417301 0.250339 0.412554
O O7 0.848503 0.500000 0.835288
O O8 0.750000 0.250000 0.856697
O O9 0.859836 0.224762 0.783124
O O10 0.154301 0.500000 0.630203
O O11 0.250000 0.750000 0.606569
O O12 0.140537 0.776810 0.680593
O O13 0.102840 0.500000 0.268087
O O14 0.000000 0.244692 0.268542
#
# Coordination Sequence:
#
# PCOD9490755 Si02
#       6
#     8   8   2  16  16  16
#     4  10  23  44  68  93 126 171 209 264 328 367
#     4  11  25  44  63  84 114 156 210 269 319 368
#     4  12  26  44  76  90 128 162 226 276 302 378
#     4  10  20  36  63  92 129 165 204 250 307 376
#     4  11  22  38  63  91 125 162 203 253 310 379
#     4   9  16  32  58  90 125 167 200 240 308 375
#
# _framework density 20.041058
#
# number of rings (size 3 to 8) (size 9 to 14) (size 15 to 20)
#    0.000    1.818    2.424    2.000    1.697    1.455 
#    0.000    1.818    2.667    0.000    0.000    0.000 
#    0.000    0.000    0.000    0.000    0.000    0.000 
#
# Total GULP energy -183952.372024 kJ/mol
# GULP energy per Si atom -5574.314304 kJ/mol
# Density = 1.999544 g / cm^3
# Si number density = 20.041058 Si / 1000 Ang^3
#
#
#
# Elastic Constant Matrix: (Units=GPa)
#
#
# Indices 1 2 3 4 5 6 
#
# 1 191.0947 22.4919 98.6582 0.0000 0.0000 0.0000
# 2 22.4919 58.4098 45.7778 0.0000 0.0000 0.0000
# 3 98.6582 45.7778 175.9266 0.0000 0.0000 0.0000
# 4 0.0000 0.0000 0.0000 27.1563 0.0000 0.0000
# 5 0.0000 0.0000 0.0000 0.0000 -2.4370 0.0000
# 6 0.0000 0.0000 0.0000 0.0000 0.0000 20.4614
#
#
#
# Elastic Compliance Matrix: (Units=1/GPa)
#
#
# Indices 1 2 3 4 5 6 
#
# 1 0.007377 0.000505 -0.004268 0.000000 0.000000 0.000000
# 2 0.000505 0.021541 -0.005888 0.000000 0.000000 0.000000
# 3 -0.004268 -0.005888 0.009610 0.000000 0.000000 0.000000
# 4 0.000000 0.000000 0.000000 0.036824 0.000000 0.000000
# 5 0.000000 0.000000 0.000000 0.000000 -0.410340 0.000000
# 6 0.000000 0.000000 0.000000 0.000000 0.000000 0.048873
#
#
# Mechanical properties :
#
#
# Convention : Reuss Voigt Hill
#
# Bulk Modulus (GPa) = 52.01772 84.36522 68.19147
# Shear Modulus (GPa) = -19.20097 26.26970 3.53436
#
# Velocity S-wave (km/s) = -3.09865 3.62442 1.32943
# Velocity P-wave (km/s) = 3.63452 7.72676 6.03790
#
# Compressibility (1/GPa) = 0.01922422
#
# Stress axis : x y z
#
# Youngs Moduli (GPa) = 135.55052 46.42356 104.05815
#
# Poissons Ratio (x) = -0.02342 0.44416
# Poissons Ratio (y) = -0.06839 0.61270
# Poissons Ratio (z) = 0.57859 0.27334
#
# Static dielectric constant tensor:
#      x y z
#    x 2.392810 0.000000 0.000000 
#    y 0.000000 1.733920 0.000000 
#    z 0.000000 0.000000 1.728860 
# 
# From -- ./inp_files/74538.got.cif
#   From: 2010.05.17/outbox.cif.g08.bks.cpg/sg65_38_cif.got.tgz:74538.got - 2010.06.03 17:01:31.
