data_PCOD9490620
_publ_section_title
;
Structure prediction by ZEFSAII (Michael W. Deem and Ramdas Pophale) SiO2 
 PCOD9490620
Probable space group: C M M M
;
_chemical_formula_sum "Si O2"
_cell_formula_units_Z 120
_cell_length_a 13.638042
_cell_length_b 28.736029
_cell_length_c 14.079632
_cell_angle_alpha 90.000000
_cell_angle_beta 90.000000
_cell_angle_gamma 90.000000
_cell_volume 5517.852419
_symmetry_space_group_name_H-M "C M M M"
_symmetry_group_IT_number 65
_symmetry_cell_setting 'orthorhombic'
loop_
_space_group_symop_operation_xyz
x,y,z
-x,-y,z
x,-y,-z
-x,y,-z
-x,-y,-z
x,y,-z
-x,y,z
x,-y,z
1/2+x,1/2+y,z
1/2-x,1/2-y,z
1/2+x,1/2-y,-z
1/2-x,1/2+y,-z
1/2-x,1/2-y,-z
1/2+x,1/2+y,-z
1/2-x,1/2+y,z
1/2+x,1/2-y,z
loop_
_atom_site_type_symbol
_atom_site_label
_atom_site_fract_x
_atom_site_fract_y
_atom_site_fract_z
Si Si1 0.109987 0.872885 0.666521
Si Si2 0.380013 0.444096 0.500000
Si Si3 0.614655 0.813975 0.601816
Si Si4 0.247562 0.299096 0.761939
Si Si5 0.894380 0.051980 0.169708
Si Si6 0.617055 0.074144 0.390004
Si Si7 0.605301 0.854663 0.111532
Si Si8 0.826798 0.550878 0.178426
O O1 0.149296 0.909980 0.587931
O O2 0.170979 0.828063 0.702410
O O3 0.101666 0.906214 0.757137
O O4 0.000000 0.858481 0.636186
O O5 0.350443 0.500000 0.500000
O O6 0.500000 0.446138 0.500000
O O7 0.658144 0.802369 0.500000
O O8 0.500000 0.804732 0.601348
O O9 0.667106 0.786648 0.683017
O O10 0.625920 0.869671 0.615605
O O11 0.250000 0.250000 0.816002
O O12 0.197670 0.334683 0.833683
O O13 0.782971 0.055114 0.133167
O O14 0.000000 0.054023 0.115566
O O15 0.895009 0.000000 0.215415
O O16 0.644968 0.060528 0.500000
O O17 0.500000 0.063122 0.381260
O O18 0.670921 0.055712 0.294866
O O19 0.500000 0.835453 0.146689
O O20 0.608554 0.908782 0.135817
O O21 0.611796 0.846667 0.000000
O O22 0.864361 0.500000 0.156468
#
# Coordination Sequence:
#
# PCOD9490620 Si02
#       8
#    16   8  16  16  16  16  16  16
#     4  10  20  36  58  88 127 168 216 268 312 364
#     4   9  18  34  59  90 129 177 222 261 300 354
#     4   9  18  35  60  87 119 165 214 256 300 362
#     4  12  25  41  66  92 125 167 213 268 323 385
#     4   9  17  32  56  84 117 159 204 249 303 367
#     4   9  17  31  54  84 123 168 213 258 303 360
#     4  11  25  47  72  95 123 159 204 265 334 398
#     4  11  21  36  62  94 127 167 211 254 311 385
#
# _framework density 21.747592999999998
#
# number of rings (size 3 to 8) (size 9 to 14) (size 15 to 20)
#    0.000    1.933    2.667    2.000    0.933    4.800 
#    1.200    1.333    0.000    1.600    0.000    1.867 
#    0.000    0.000    0.000    0.000    0.000    0.000 
#
# Total GULP energy -334016.736610 kJ/mol
# GULP energy per Si atom -5566.945610 kJ/mol
# Density = 2.169809 g / cm^3
# Si number density = 21.747593 Si / 1000 Ang^3
#
#
#
# Elastic Constant Matrix: (Units=GPa)
#
#
# Indices 1 2 3 4 5 6 
#
# 1 90.7174 27.2285 16.1173 0.0000 0.0000 0.0000
# 2 27.2285 74.9264 0.9658 0.0000 0.0000 0.0000
# 3 16.1173 0.9658 37.6510 0.0000 0.0000 0.0000
# 4 0.0000 0.0000 0.0000 -20.0066 0.0000 0.0000
# 5 0.0000 0.0000 0.0000 0.0000 15.9423 0.0000
# 6 0.0000 0.0000 0.0000 0.0000 0.0000 9.0146
#
#
#
# Elastic Compliance Matrix: (Units=1/GPa)
#
#
# Indices 1 2 3 4 5 6 
#
# 1 0.013474 -0.004824 -0.005644 0.000000 0.000000 0.000000
# 2 -0.004824 0.015078 0.001678 0.000000 0.000000 0.000000
# 3 -0.005644 0.001678 0.028933 0.000000 0.000000 0.000000
# 4 0.000000 0.000000 0.000000 -0.049984 0.000000 0.000000
# 5 0.000000 0.000000 0.000000 0.000000 0.062726 0.000000
# 6 0.000000 0.000000 0.000000 0.000000 0.000000 0.110931
#
#
# Mechanical properties :
#
#
# Convention : Reuss Voigt Hill
#
# Bulk Modulus (GPa) = 25.05948 32.43535 28.74742
# Shear Modulus (GPa) = 23.58065 11.58896 17.58480
#
# Velocity S-wave (km/s) = 3.29642 2.31093 2.84665
# Velocity P-wave (km/s) = 5.10259 4.69759 4.90428
#
# Compressibility (1/GPa) = 0.03990506
#
# Stress axis : x y z
#
# Youngs Moduli (GPa) = 74.21813 66.32292 34.56300
#
# Poissons Ratio (x) = 0.31992 0.19507
# Poissons Ratio (y) = 0.35800 -0.05800
# Poissons Ratio (z) = 0.41889 -0.11130
#
# Static dielectric constant tensor:
#      x y z
#    x 1.904080 0.000000 0.000000 
#    y 0.000000 1.855000 0.000000 
#    z 0.000000 0.000000 1.797070 
# 
# From -- ./inp_files/41434.got.cif
#   From: 2010.05.17/outbox.cif.g08.bks.cpg/sg65_21_cif.got.tgz:41434.got - 2010.06.03 17:01:31.
