data_PCOD9490887
_publ_section_title
;
Structure prediction by ZEFSAII (Michael W. Deem and Ramdas Pophale) SiO2 
 PCOD9490887
Probable space group: C M M M
;
_chemical_formula_sum "Si O2"
_cell_formula_units_Z 112
_cell_length_a 14.358990
_cell_length_b 14.709168
_cell_length_c 27.689614
_cell_angle_alpha 90.000000
_cell_angle_beta 90.000000
_cell_angle_gamma 90.000000
_cell_volume 5848.290041
_symmetry_space_group_name_H-M "C M M M"
_symmetry_group_IT_number 65
_symmetry_cell_setting 'orthorhombic'
loop_
_space_group_symop_operation_xyz
x,y,z
-x,-y,z
x,-y,-z
-x,y,-z
-x,-y,-z
x,y,-z
-x,y,z
x,-y,z
1/2+x,1/2+y,z
1/2-x,1/2-y,z
1/2+x,1/2-y,-z
1/2-x,1/2+y,-z
1/2-x,1/2-y,-z
1/2+x,1/2+y,-z
1/2-x,1/2+y,z
1/2+x,1/2-y,z
loop_
_atom_site_type_symbol
_atom_site_label
_atom_site_fract_x
_atom_site_fract_y
_atom_site_fract_z
Si Si1 0.723910 0.852530 0.147309
Si Si2 0.219899 0.109975 0.404422
Si Si3 0.105856 0.390351 0.054842
Si Si4 0.896897 0.391989 0.760102
Si Si5 0.282253 0.610696 0.707426
Si Si6 0.398638 0.394783 0.797606
Si Si7 0.608224 0.776909 0.442631
O O1 0.750000 0.750000 0.156973
O O2 0.680380 0.862979 0.094742
O O3 0.647970 0.882814 0.186721
O O4 0.823052 0.896597 0.159652
O O5 0.198252 0.129513 0.348052
O O6 0.321981 0.151246 0.417072
O O7 0.148586 0.175233 0.433191
O O8 0.214994 0.000000 0.412733
O O9 0.104285 0.500000 0.054524
O O10 0.000000 0.360173 0.067099
O O11 0.126690 0.360109 0.000000
O O12 0.904170 0.500000 0.751280
O O13 0.820278 0.356051 0.722810
O O14 0.000000 0.352433 0.757084
O O15 0.280577 0.500000 0.711207
O O16 0.352140 0.645345 0.749061
O O17 0.500000 0.355074 0.809659
O O18 0.411368 0.500000 0.785720
O O19 0.613232 0.794164 0.500000
O O20 0.500000 0.784029 0.427438
#
# Coordination Sequence:
#
# PCOD9490887 Si02
#       7
#    16  16  16  16  16  16  16
#     4  11  21  31  47  72 107 138 165 204 256 312
#     4  10  20  37  62  86 113 149 190 236 289 344
#     4   9  18  34  57  80  97 120 163 217 267 313
#     4   9  17  32  54  75  99 135 175 215 258 307
#     4   8  16  31  52  79 105 131 172 221 266 313
#     4   9  18  34  53  70  96 139 183 215 244 292
#     4  10  23  41  58  83 118 150 188 238 288 343
#
# _framework density 19.150897000000001
#
# number of rings (size 3 to 8) (size 9 to 14) (size 15 to 20)
#    0.000    2.571    0.000    3.857    0.000    5.429 
#   10.286    4.286    0.000    0.429    0.000    2.000 
#    0.000    0.000    0.000    0.000    0.000    0.000 
#
# Total GULP energy -311908.870131 kJ/mol
# GULP energy per Si atom -5569.801252 kJ/mol
# Density = 1.910731 g / cm^3
# Si number density = 19.150897 Si / 1000 Ang^3
#
#
#
# Elastic Constant Matrix: (Units=GPa)
#
#
# Indices 1 2 3 4 5 6 
#
# 1 118.6100 -3.0232 29.7005 0.0000 0.0000 0.0000
# 2 -3.0232 57.3912 -11.2173 0.0000 0.0000 0.0000
# 3 29.7005 -11.2173 66.3835 0.0000 0.0000 0.0000
# 4 0.0000 0.0000 0.0000 -27.9849 0.0000 0.0000
# 5 0.0000 0.0000 0.0000 0.0000 16.4901 0.0000
# 6 0.0000 0.0000 0.0000 0.0000 0.0000 -6.9397
#
#
#
# Elastic Compliance Matrix: (Units=1/GPa)
#
#
# Indices 1 2 3 4 5 6 
#
# 1 0.009501 -0.000342 -0.004309 0.000000 0.000000 0.000000
# 2 -0.000342 0.018032 0.003200 0.000000 0.000000 0.000000
# 3 -0.004309 0.003200 0.017532 0.000000 0.000000 0.000000
# 4 0.000000 0.000000 0.000000 -0.035733 0.000000 0.000000
# 5 0.000000 0.000000 0.000000 0.000000 0.060643 0.000000
# 6 0.000000 0.000000 0.000000 0.000000 0.000000 -0.144098
#
#
# Mechanical properties :
#
#
# Convention : Reuss Voigt Hill
#
# Bulk Modulus (GPa) = 23.71675 30.36720 27.04198
# Shear Modulus (GPa) = -87.46148 11.44140 -38.01004
#
# Velocity S-wave (km/s) = -6.76526 2.44690 -4.45990
# Velocity P-wave (km/s) = 6.97238 4.88613 3.51708
#
# Compressibility (1/GPa) = 0.04216429
#
# Stress axis : x y z
#
# Youngs Moduli (GPa) = 105.25003 55.45797 57.03727
#
# Poissons Ratio (x) = 0.01895 0.24575
# Poissons Ratio (y) = 0.03596 -0.18251
# Poissons Ratio (z) = 0.45348 -0.17745
#
# Static dielectric constant tensor:
#      x y z
#    x 1.710770 0.000000 0.000000 
#    y 0.000000 1.693810 0.000000 
#    z 0.000000 0.000000 1.662420 
# 
# From -- ./inp_files/74889.got.cif
#   From: 2010.05.17/outbox.cif.g08.bks.cpg/sg65_38_cif.got.tgz:74889.got - 2010.06.03 17:01:31.
