data_PCOD9490380
_publ_section_title
;
Structure prediction by ZEFSAII (Michael W. Deem and Ramdas Pophale) SiO2 
 PCOD9490380
Probable space group: C M M M
;
_chemical_formula_sum "Si O2"
_cell_formula_units_Z 88
_cell_length_a 22.718639
_cell_length_b 16.131144
_cell_length_c 12.183117
_cell_angle_alpha 90.000000
_cell_angle_beta 90.000000
_cell_angle_gamma 90.000000
_cell_volume 4464.839932
_symmetry_space_group_name_H-M "C M M M"
_symmetry_group_IT_number 65
_symmetry_cell_setting 'orthorhombic'
loop_
_space_group_symop_operation_xyz
x,y,z
-x,-y,z
x,-y,-z
-x,y,-z
-x,-y,-z
x,y,-z
-x,y,z
x,-y,z
1/2+x,1/2+y,z
1/2-x,1/2-y,z
1/2+x,1/2-y,-z
1/2-x,1/2+y,-z
1/2-x,1/2-y,-z
1/2+x,1/2+y,-z
1/2-x,1/2+y,z
1/2+x,1/2-y,z
loop_
_atom_site_type_symbol
_atom_site_label
_atom_site_fract_x
_atom_site_fract_y
_atom_site_fract_z
Si Si1 0.432545 0.819662 0.000000
Si Si2 0.500000 0.596517 0.873085
Si Si3 0.569875 0.175147 0.628766
Si Si4 0.745771 0.500000 0.628574
Si Si5 0.208603 0.337508 0.000000
Si Si6 0.600324 0.297782 0.803604
Si Si7 0.112934 0.500000 0.628492
Si Si8 0.729487 0.342769 0.217911
O O1 0.362897 0.849452 0.000000
O O2 0.428791 0.764843 0.890253
O O3 0.500000 0.858931 0.000000
O O4 0.500000 0.500000 0.881379
O O5 0.443315 0.626052 0.807333
O O6 0.500000 0.628092 0.000000
O O7 0.584246 0.176451 0.500000
O O8 0.500000 0.185662 0.641589
O O9 0.602244 0.248729 0.690382
O O10 0.588399 0.085611 0.675964
O O11 0.727911 0.500000 0.500000
O O12 0.816985 0.500000 0.631554
O O13 0.726972 0.584708 0.691352
O O14 0.250000 0.250000 0.000000
O O15 0.229053 0.371995 0.117697
O O16 0.665120 0.326651 0.832975
O O17 0.093362 0.500000 0.500000
O O18 0.750000 0.250000 0.256624
#
# Coordination Sequence:
#
# PCOD9490380 Si02
#       8
#     8   8  16   8   8  16   8  16
#     4  12  20  36  64 100 128 165 205 262 315 384
#     4  11  24  38  57  90 123 156 207 265 310 374
#     4  10  20  35  59  90 122 161 209 256 310 376
#     4  11  26  44  61  91 124 166 224 272 318 379
#     4  10  20  39  62  96 131 163 210 256 322 391
#     4  12  20  37  63  91 123 166 206 254 319 378
#     4   9  19  36  58  83 116 154 204 262 301 350
#     4  11  23  40  66  93 128 170 212 267 322 385
#
# _framework density 19.709553
#
# number of rings (size 3 to 8) (size 9 to 14) (size 15 to 20)
#    0.000    1.182    6.364    1.364    1.273    2.545 
#    0.000    0.000    0.000    1.091    0.000    3.182 
#    0.000    0.000    0.000    0.000    0.000    0.000 
#
# Total GULP energy -244968.469893 kJ/mol
# GULP energy per Si atom -5567.465225 kJ/mol
# Density = 1.966469 g / cm^3
# Si number density = 19.709553 Si / 1000 Ang^3
#
#
#
# Elastic Constant Matrix: (Units=GPa)
#
#
# Indices 1 2 3 4 5 6 
#
# 1 128.0710 26.6232 19.5900 0.0000 0.0000 0.0000
# 2 26.6232 80.5019 33.8367 0.0000 0.0000 0.0000
# 3 19.5900 33.8367 71.9166 0.0000 0.0000 0.0000
# 4 0.0000 0.0000 0.0000 25.6051 0.0000 0.0000
# 5 0.0000 0.0000 0.0000 0.0000 23.2019 0.0000
# 6 0.0000 0.0000 0.0000 0.0000 0.0000 -11.3645
#
#
#
# Elastic Compliance Matrix: (Units=1/GPa)
#
#
# Indices 1 2 3 4 5 6 
#
# 1 0.008471 -0.002283 -0.001233 0.000000 0.000000 0.000000
# 2 -0.002283 0.016100 -0.006953 0.000000 0.000000 0.000000
# 3 -0.001233 -0.006953 0.017512 0.000000 0.000000 0.000000
# 4 0.000000 0.000000 0.000000 0.039055 0.000000 0.000000
# 5 0.000000 0.000000 0.000000 0.000000 0.043100 0.000000
# 6 0.000000 0.000000 0.000000 0.000000 0.000000 -0.087993
#
#
# Mechanical properties :
#
#
# Convention : Reuss Voigt Hill
#
# Bulk Modulus (GPa) = 47.29389 48.95436 48.12412
# Shear Modulus (GPa) = 77.84259 20.85112 49.34686
#
# Velocity S-wave (km/s) = 6.29131 3.25610 5.00913
# Velocity P-wave (km/s) = 8.76479 6.24724 7.61084
#
# Compressibility (1/GPa) = 0.02114438
#
# Stress axis : x y z
#
# Youngs Moduli (GPa) = 118.04339 62.11326 57.10273
#
# Poissons Ratio (x) = 0.14182 0.07043
# Poissons Ratio (y) = 0.26952 0.39703
# Poissons Ratio (z) = 0.14559 0.43187
#
# Static dielectric constant tensor:
#      x y z
#    x 1.767120 0.000000 0.000000 
#    y 0.000000 1.721170 0.000000 
#    z 0.000000 0.000000 1.721840 
# 
# From -- ./inp_files/28808.got.cif
#   From: 2010.05.17/outbox.cif.g08.bks.cpg/sg65_15_cif.got.tgz:28808.got - 2010.06.03 17:01:31.
