data_PCOD9490733
_publ_section_title
;
Structure prediction by ZEFSAII (Michael W. Deem and Ramdas Pophale) SiO2 
 PCOD9490733
Probable space group: C M M M
;
_chemical_formula_sum "Si O2"
_cell_formula_units_Z 112
_cell_length_a 14.612105
_cell_length_b 14.224142
_cell_length_c 28.140957
_cell_angle_alpha 90.000000
_cell_angle_beta 90.000000
_cell_angle_gamma 90.000000
_cell_volume 5848.947540
_symmetry_space_group_name_H-M "C M M M"
_symmetry_group_IT_number 65
_symmetry_cell_setting 'orthorhombic'
loop_
_space_group_symop_operation_xyz
x,y,z
-x,-y,z
x,-y,-z
-x,y,-z
-x,-y,-z
x,y,-z
-x,y,z
x,-y,z
1/2+x,1/2+y,z
1/2-x,1/2-y,z
1/2+x,1/2-y,-z
1/2-x,1/2+y,-z
1/2-x,1/2-y,-z
1/2+x,1/2+y,-z
1/2-x,1/2+y,z
1/2+x,1/2-y,z
loop_
_atom_site_type_symbol
_atom_site_label
_atom_site_fract_x
_atom_site_fract_y
_atom_site_fract_z
Si Si1 0.500000 0.803044 0.554394
Si Si2 0.103585 0.266269 0.722974
Si Si3 0.630624 0.110321 0.369792
Si Si4 0.673047 0.393790 0.335672
Si Si5 0.500000 0.394157 0.595521
Si Si6 0.392241 0.108228 0.812780
Si Si7 0.392874 0.284214 0.055518
Si Si8 0.216564 0.389690 0.910176
O O1 0.500000 0.833348 0.500000
O O2 0.584982 0.842557 0.584763
O O3 0.500000 0.690452 0.558780
O O4 0.100854 0.338364 0.678641
O O5 0.166395 0.180725 0.706344
O O6 0.129827 0.321317 0.770235
O O7 0.000000 0.229738 0.729594
O O8 0.739246 0.121559 0.368381
O O9 0.608287 0.000000 0.368418
O O10 0.677202 0.500000 0.316958
O O11 0.585957 0.383488 0.369394
O O12 0.500000 0.500000 0.575668
O O13 0.500000 0.122516 0.826704
O O14 0.324265 0.119411 0.856988
O O15 0.385770 0.000000 0.795930
O O16 0.500000 0.288082 0.070702
O O17 0.319686 0.349578 0.083446
O O18 0.350468 0.179314 0.060332
O O19 0.389402 0.311479 0.000000
O O20 0.212639 0.500000 0.923354
#
# Coordination Sequence:
#
# PCOD9490733 Si02
#       8
#     8  16  16  16   8  16  16  16
#     4  12  25  41  64  91 117 154 195 243 308 369
#     4  11  19  34  61  88 118 157 199 245 302 357
#     4  11  22  37  58  86 119 151 188 242 300 352
#     4  10  20  36  61  88 117 152 195 244 293 348
#     4  10  20  40  63  86 118 153 191 237 289 351
#     4   9  19  34  57  92 125 159 207 258 308 368
#     4  10  22  39  61  93 129 166 212 266 327 390
#     4  10  20  38  62  88 125 169 214 266 319 376
#
# _framework density 19.148744000000001
#
# number of rings (size 3 to 8) (size 9 to 14) (size 15 to 20)
#    0.000    1.714    2.857    2.357    0.000    3.571 
#    5.143    2.857    0.000    2.571    0.000    4.000 
#    0.000    0.000    0.000    0.000    0.000    0.000 
#
# Total GULP energy -312561.177489 kJ/mol
# GULP energy per Si atom -5581.449598 kJ/mol
# Density = 1.910516 g / cm^3
# Si number density = 19.148744 Si / 1000 Ang^3
#
#
#
# Elastic Constant Matrix: (Units=GPa)
#
#
# Indices 1 2 3 4 5 6 
#
# 1 157.8407 55.3044 46.2437 0.0000 0.0000 0.0000
# 2 55.3044 128.1741 55.0653 0.0000 0.0000 0.0000
# 3 46.2437 55.0653 89.5105 0.0000 0.0000 0.0000
# 4 0.0000 0.0000 0.0000 16.5118 0.0000 0.0000
# 5 0.0000 0.0000 0.0000 0.0000 7.5756 0.0000
# 6 0.0000 0.0000 0.0000 0.0000 0.0000 26.2419
#
#
#
# Elastic Compliance Matrix: (Units=1/GPa)
#
#
# Indices 1 2 3 4 5 6 
#
# 1 0.007918 -0.002255 -0.002703 0.000000 0.000000 0.000000
# 2 -0.002255 0.011247 -0.005754 0.000000 0.000000 0.000000
# 3 -0.002703 -0.005754 0.016108 0.000000 0.000000 0.000000
# 4 0.000000 0.000000 0.000000 0.060563 0.000000 0.000000
# 5 0.000000 0.000000 0.000000 0.000000 0.132003 0.000000
# 6 0.000000 0.000000 0.000000 0.000000 0.000000 0.038107
#
#
# Mechanical properties :
#
#
# Convention : Reuss Voigt Hill
#
# Bulk Modulus (GPa) = 72.21050 76.52801 74.36926
# Shear Modulus (GPa) = 17.12411 24.65998 20.89205
#
# Velocity S-wave (km/s) = 2.99368 3.59250 3.30667
# Velocity P-wave (km/s) = 7.05277 7.56703 7.31442
#
# Compressibility (1/GPa) = 0.01384840
#
# Stress axis : x y z
#
# Youngs Moduli (GPa) = 126.30137 88.91438 62.08041
#
# Poissons Ratio (x) = 0.20049 0.16782
# Poissons Ratio (y) = 0.28480 0.35720
# Poissons Ratio (z) = 0.34143 0.51160
#
# Static dielectric constant tensor:
#      x y z
#    x 1.682860 0.000000 0.000000 
#    y 0.000000 1.687920 0.000000 
#    z 0.000000 0.000000 1.625000 
# 
# From -- ./inp_files/74929.got.cif
#   From: 2010.05.17/outbox.cif.g08.bks.cpg/sg65_38_cif.got.tgz:74929.got - 2010.06.03 17:01:31.
