data_PCOD9490912
_publ_section_title
;
Structure prediction by ZEFSAII (Michael W. Deem and Ramdas Pophale) SiO2 
 PCOD9490912
Probable space group: C M M M
;
_chemical_formula_sum "Si O2"
_cell_formula_units_Z 104
_cell_length_a 8.723918
_cell_length_b 22.210466
_cell_length_c 27.320564
_cell_angle_alpha 90.000000
_cell_angle_beta 90.000000
_cell_angle_gamma 90.000000
_cell_volume 5293.694884
_symmetry_space_group_name_H-M "C M M M"
_symmetry_group_IT_number 65
_symmetry_cell_setting 'orthorhombic'
loop_
_space_group_symop_operation_xyz
x,y,z
-x,-y,z
x,-y,-z
-x,y,-z
-x,-y,-z
x,y,-z
-x,y,z
x,-y,z
1/2+x,1/2+y,z
1/2-x,1/2-y,z
1/2+x,1/2-y,-z
1/2-x,1/2+y,-z
1/2-x,1/2-y,-z
1/2+x,1/2+y,-z
1/2-x,1/2+y,z
1/2+x,1/2-y,z
loop_
_atom_site_type_symbol
_atom_site_label
_atom_site_fract_x
_atom_site_fract_y
_atom_site_fract_z
Si Si1 0.683103 0.369777 0.734619
Si Si2 0.316347 0.383535 0.556687
Si Si3 0.183911 0.570755 0.105235
Si Si4 0.684527 0.315034 0.835422
Si Si5 0.681191 0.187251 0.641707
Si Si6 0.682288 0.500000 0.280281
Si Si7 0.826175 0.927844 0.000000
Si Si8 0.682638 0.000000 0.610765
O O1 0.500000 0.363707 0.726363
O O2 0.727592 0.325777 0.778344
O O3 0.768551 0.358547 0.683887
O O4 0.716928 0.438964 0.748424
O O5 0.270790 0.379146 0.500000
O O6 0.500000 0.386601 0.559154
O O7 0.256406 0.329554 0.590114
O O8 0.246483 0.442385 0.582054
O O9 0.231275 0.500000 0.115506
O O10 0.254733 0.624850 0.137436
O O11 0.236628 0.585995 0.049789
O O12 0.000000 0.572409 0.109176
O O13 0.500000 0.314048 0.839124
O O14 0.750000 0.250000 0.851738
O O15 0.500000 0.188925 0.637050
O O16 0.750000 0.250000 0.658749
O O17 0.500000 0.500000 0.290208
O O18 0.761737 0.500000 0.333197
O O19 0.000000 0.902802 0.000000
O O20 0.839125 0.000000 0.000000
O O21 0.500000 0.000000 0.609756
#
# Coordination Sequence:
#
# PCOD9490912 Si02
#       8
#    16  16  16  16  16   8   8   8
#     4  10  22  40  64  91 122 160 201 248 303 364
#     4  11  24  42  63  86 115 152 190 233 289 350
#     4  10  21  38  62  94 131 171 215 267 321 373
#     4  11  24  41  63  91 127 170 215 262 315 376
#     4  12  25  41  63  87 115 151 195 243 294 356
#     4  10  20  37  63  90 122 158 195 244 299 360
#     4   9  17  33  60  93 128 169 216 265 315 375
#     4  12  23  37  60  93 122 150 185 231 287 350
#
# _framework density 19.646013
#
# number of rings (size 3 to 8) (size 9 to 14) (size 15 to 20)
#    0.000    1.308    1.538    4.385    1.077    6.769 
#    0.000    0.385    0.000    0.000    0.000    0.000 
#    0.000    0.000    0.000    0.000    0.000    0.000 
#
# Total GULP energy -290376.858754 kJ/mol
# GULP energy per Si atom -5584.170361 kJ/mol
# Density = 1.960130 g / cm^3
# Si number density = 19.646013 Si / 1000 Ang^3
#
#
#
# Elastic Constant Matrix: (Units=GPa)
#
#
# Indices 1 2 3 4 5 6 
#
# 1 56.6478 41.2184 26.0967 0.0000 0.0000 0.0000
# 2 41.2184 110.7844 36.5283 0.0000 0.0000 0.0000
# 3 26.0967 36.5283 87.4788 0.0000 0.0000 0.0000
# 4 0.0000 0.0000 0.0000 18.6681 0.0000 0.0000
# 5 0.0000 0.0000 0.0000 0.0000 15.5643 0.0000
# 6 0.0000 0.0000 0.0000 0.0000 0.0000 30.8363
#
#
#
# Elastic Compliance Matrix: (Units=1/GPa)
#
#
# Indices 1 2 3 4 5 6 
#
# 1 0.025485 -0.008089 -0.004225 0.000000 0.000000 0.000000
# 2 -0.008089 0.013035 -0.003030 0.000000 0.000000 0.000000
# 3 -0.004225 -0.003030 0.013957 0.000000 0.000000 0.000000
# 4 0.000000 0.000000 0.000000 0.053567 0.000000 0.000000
# 5 0.000000 0.000000 0.000000 0.000000 0.064250 0.000000
# 6 0.000000 0.000000 0.000000 0.000000 0.000000 0.032429
#
#
# Mechanical properties :
#
#
# Convention : Reuss Voigt Hill
#
# Bulk Modulus (GPa) = 45.89398 51.39976 48.64687
# Shear Modulus (GPa) = 20.77496 23.08490 21.92993
#
# Velocity S-wave (km/s) = 3.25540 3.43161 3.34466
# Velocity P-wave (km/s) = 6.12710 6.47464 6.30326
#
# Compressibility (1/GPa) = 0.02178935
#
# Stress axis : x y z
#
# Youngs Moduli (GPa) = 39.23881 76.71581 71.64875
#
# Poissons Ratio (x) = 0.62054 0.30272
# Poissons Ratio (y) = 0.31740 0.21709
# Poissons Ratio (z) = 0.16579 0.23245
#
# Static dielectric constant tensor:
#      x y z
#    x 1.660040 0.000000 0.000000 
#    y 0.000000 1.727380 0.000000 
#    z 0.000000 0.000000 1.662370 
# 
# From -- ./inp_files/73437.got.cif
#   From: 2010.05.17/outbox.cif.g08.bks.cpg/sg65_37_cif.got.tgz:73437.got - 2010.06.03 17:01:31.
