data_PCOD9490035
_publ_section_title
;
Structure prediction by ZEFSAII (Michael W. Deem and Ramdas Pophale) SiO2 
 PCOD9490035
Probable space group: C M M M
;
_chemical_formula_sum "Si O2"
_cell_formula_units_Z 80
_cell_length_a 8.577201
_cell_length_b 27.862631
_cell_length_c 18.941108
_cell_angle_alpha 90.000000
_cell_angle_beta 90.000000
_cell_angle_gamma 90.000000
_cell_volume 4526.610133
_symmetry_space_group_name_H-M "C M M M"
_symmetry_group_IT_number 65
_symmetry_cell_setting 'orthorhombic'
loop_
_space_group_symop_operation_xyz
x,y,z
-x,-y,z
x,-y,-z
-x,y,-z
-x,-y,-z
x,y,-z
-x,y,z
x,-y,z
1/2+x,1/2+y,z
1/2-x,1/2-y,z
1/2+x,1/2-y,-z
1/2-x,1/2+y,-z
1/2-x,1/2-y,-z
1/2+x,1/2+y,-z
1/2-x,1/2+y,z
1/2+x,1/2-y,z
loop_
_atom_site_type_symbol
_atom_site_label
_atom_site_fract_x
_atom_site_fract_y
_atom_site_fract_z
Si Si1 0.313809 0.697626 0.786489
Si Si2 0.687375 0.104028 0.141758
Si Si3 0.314055 0.304029 0.500000
Si Si4 0.812096 0.651283 0.356328
Si Si5 0.812882 0.944058 0.000000
Si Si6 0.689303 0.946558 0.287077
O O1 0.500000 0.698010 0.784614
O O2 0.250000 0.750000 0.805254
O O3 0.254343 0.656326 0.839397
O O4 0.249021 0.682895 0.709193
O O5 0.500000 0.106750 0.140183
O O6 0.749637 0.082156 0.069561
O O7 0.732587 0.069972 0.207970
O O8 0.500000 0.302988 0.500000
O O9 0.250000 0.250000 0.500000
O O10 0.253205 0.330180 0.429849
O O11 0.763230 0.596471 0.338880
O O12 0.000000 0.653682 0.356711
O O13 0.000000 0.942373 0.000000
O O14 0.763842 0.000000 0.000000
O O15 0.500000 0.947750 0.288914
O O16 0.746843 0.000000 0.303121
#
# Coordination Sequence:
#
# PCOD9490035 Si02
#       6
#    16  16   8  16   8  16
#     4  11  21  36  57  81 110 143 180 222 270 322
#     4  10  20  35  56  82 110 143 185 227 269 320
#     4  12  24  38  55  76 105 139 176 221 275 326
#     4  10  20  35  55  81 110 140 179 222 265 318
#     4  11  23  37  54  81 116 149 181 223 275 323
#     4   8  15  30  54  81 106 135 175 220 260 304
#
# _framework density 17.673269000000001
#
# number of rings (size 3 to 8) (size 9 to 14) (size 15 to 20)
#    0.000    1.900    0.000    6.600    0.000    1.600 
#    0.000    1.000    0.000   15.000    0.000    0.000 
#    0.000    0.000    0.000    0.000    0.000    0.000 
#
# Total GULP energy -223388.386325 kJ/mol
# GULP energy per Si atom -5584.709658 kJ/mol
# Density = 1.763304 g / cm^3
# Si number density = 17.673269 Si / 1000 Ang^3
#
#
#
# Elastic Constant Matrix: (Units=GPa)
#
#
# Indices 1 2 3 4 5 6 
#
# 1 105.1714 55.3691 53.0142 0.0000 0.0000 0.0000
# 2 55.3691 181.3455 97.7812 0.0000 0.0000 0.0000
# 3 53.0142 97.7812 151.5870 0.0000 0.0000 0.0000
# 4 0.0000 0.0000 0.0000 13.7607 0.0000 0.0000
# 5 0.0000 0.0000 0.0000 0.0000 31.4270 0.0000
# 6 0.0000 0.0000 0.0000 0.0000 0.0000 21.7970
#
#
#
# Elastic Compliance Matrix: (Units=1/GPa)
#
#
# Indices 1 2 3 4 5 6 
#
# 1 0.012071 -0.002161 -0.002828 0.000000 0.000000 0.000000
# 2 -0.002161 0.008842 -0.004948 0.000000 0.000000 0.000000
# 3 -0.002828 -0.004948 0.010777 0.000000 0.000000 0.000000
# 4 0.000000 0.000000 0.000000 0.072670 0.000000 0.000000
# 5 0.000000 0.000000 0.000000 0.000000 0.031820 0.000000
# 6 0.000000 0.000000 0.000000 0.000000 0.000000 0.045878
#
#
# Mechanical properties :
#
#
# Convention : Reuss Voigt Hill
#
# Bulk Modulus (GPa) = 84.61860 94.49254 89.55557
# Shear Modulus (GPa) = 24.28706 28.85958 26.57332
#
# Velocity S-wave (km/s) = 3.71108 4.04536 3.88182
# Velocity P-wave (km/s) = 8.14531 8.68345 8.41869
#
# Compressibility (1/GPa) = 0.01181773
#
# Stress axis : x y z
#
# Youngs Moduli (GPa) = 82.84072 113.09729 92.78704
#
# Poissons Ratio (x) = 0.24440 0.26238
# Poissons Ratio (y) = 0.17901 0.45909
# Poissons Ratio (z) = 0.23425 0.55958
#
# Static dielectric constant tensor:
#      x y z
#    x 1.596840 0.000000 0.000000 
#    y 0.000000 1.592840 0.000000 
#    z 0.000000 0.000000 1.564840 
# 
# From -- ./inp_files/49906.got.cif
#   From: 2010.05.17/outbox.cif.g08.bks.cpg/sg65_25_cif.got.tgz:49906.got - 2010.06.03 17:01:31.
