data_PCOD9490898
_publ_section_title
;
Structure prediction by ZEFSAII (Michael W. Deem and Ramdas Pophale) SiO2 
 PCOD9490898
Probable space group: C M M M
;
_chemical_formula_sum "Si O2"
_cell_formula_units_Z 48
_cell_length_a 7.938317
_cell_length_b 34.918534
_cell_length_c 8.286472
_cell_angle_alpha 90.000000
_cell_angle_beta 90.000000
_cell_angle_gamma 90.000000
_cell_volume 2296.963568
_symmetry_space_group_name_H-M "C M M M"
_symmetry_group_IT_number 65
_symmetry_cell_setting 'orthorhombic'
loop_
_space_group_symop_operation_xyz
x,y,z
-x,-y,z
x,-y,-z
-x,y,-z
-x,-y,-z
x,y,-z
-x,y,z
x,-y,z
1/2+x,1/2+y,z
1/2-x,1/2-y,z
1/2+x,1/2-y,-z
1/2-x,1/2+y,-z
1/2-x,1/2-y,-z
1/2+x,1/2+y,-z
1/2-x,1/2+y,z
1/2+x,1/2-y,z
loop_
_atom_site_type_symbol
_atom_site_label
_atom_site_fract_x
_atom_site_fract_y
_atom_site_fract_z
Si Si1 0.794603 0.500000 0.312293
Si Si2 0.698398 0.705769 0.000000
Si Si3 0.294346 0.081835 0.184170
Si Si4 0.297417 0.160948 0.676269
O O1 0.751865 0.500000 0.500000
O O2 0.735552 0.539655 0.234143
O O3 0.000000 0.500000 0.299352
O O4 0.750000 0.750000 0.000000
O O5 0.757538 0.685464 0.165064
O O6 0.500000 0.703223 0.000000
O O7 0.500000 0.081055 0.191644
O O8 0.237931 0.117299 0.293048
O O9 0.246953 0.089972 0.000000
O O10 0.236213 0.174812 0.500000
O O11 0.500000 0.159752 0.669045
#
# Coordination Sequence:
#
# PCOD9490898 Si02
#       4
#     8   8  16  16
#     4   9  15  21  33  65 111 154 195 237 285 335
#     4  12  26  44  66  89 118 151 189 238 293 354
#     4   9  15  25  44  72 111 154 195 238 287 339
#     4  10  20  37  62  90 121 157 196 241 294 350
#
# _framework density 20.897151999999998
#
# number of rings (size 3 to 8) (size 9 to 14) (size 15 to 20)
#    0.000    2.167    1.667    3.000    0.000    7.333 
#    0.000    0.000    0.000    0.000    0.000    2.333 
#    0.000    4.000    0.000    0.000    0.000    0.000 
#
# Total GULP energy -133945.775905 kJ/mol
# GULP energy per Si atom -5581.073996 kJ/mol
# Density = 2.084959 g / cm^3
# Si number density = 20.897152 Si / 1000 Ang^3
#
#
#
# Elastic Constant Matrix: (Units=GPa)
#
#
# Indices 1 2 3 4 5 6 
#
# 1 28.0288 11.1977 22.4910 0.0000 0.0000 0.0000
# 2 11.1977 143.4784 89.9458 0.0000 0.0000 0.0000
# 3 22.4910 89.9458 191.1178 0.0000 0.0000 0.0000
# 4 0.0000 0.0000 0.0000 20.1741 0.0000 0.0000
# 5 0.0000 0.0000 0.0000 0.0000 2.1863 0.0000
# 6 0.0000 0.0000 0.0000 0.0000 0.0000 2.9810
#
#
#
# Elastic Compliance Matrix: (Units=1/GPa)
#
#
# Indices 1 2 3 4 5 6 
#
# 1 0.039404 -0.000239 -0.004525 0.000000 0.000000 0.000000
# 2 -0.000239 0.009888 -0.004626 0.000000 0.000000 0.000000
# 3 -0.004525 -0.004626 0.007942 0.000000 0.000000 0.000000
# 4 0.000000 0.000000 0.000000 0.049569 0.000000 0.000000
# 5 0.000000 0.000000 0.000000 0.000000 0.457404 0.000000
# 6 0.000000 0.000000 0.000000 0.000000 0.000000 0.335461
#
#
# Mechanical properties :
#
#
# Convention : Reuss Voigt Hill
#
# Bulk Modulus (GPa) = 26.00405 67.76600 46.88503
# Shear Modulus (GPa) = 5.36905 21.00095 13.18500
#
# Velocity S-wave (km/s) = 1.60463 3.17356 2.51459
# Velocity P-wave (km/s) = 3.98798 6.77698 5.56019
#
# Compressibility (1/GPa) = 0.03845554
#
# Stress axis : x y z
#
# Youngs Moduli (GPa) = 25.37835 101.13235 125.91658
#
# Poissons Ratio (x) = 0.02414 0.56974
# Poissons Ratio (y) = 0.00606 0.58243
# Poissons Ratio (z) = 0.11483 0.46779
#
# Static dielectric constant tensor:
#      x y z
#    x 1.781860 0.000000 0.000000 
#    y 0.000000 1.730070 0.000000 
#    z 0.000000 0.000000 1.437910 
# 
# From -- ./inp_files/3067.got.cif
#   From: 2010.05.17/outbox.cif.g08.bks.cpg/sg65_2_cif.got.tgz:3067.got - 2010.06.03 17:01:31.
