data_PCOD9490597
_publ_section_title
;
Structure prediction by ZEFSAII (Michael W. Deem and Ramdas Pophale) SiO2 
 PCOD9490597
Probable space group: C M M M
;
_chemical_formula_sum "Si O2"
_cell_formula_units_Z 72
_cell_length_a 19.556268
_cell_length_b 8.653701
_cell_length_c 23.057884
_cell_angle_alpha 90.000000
_cell_angle_beta 90.000000
_cell_angle_gamma 90.000000
_cell_volume 3902.180153
_symmetry_space_group_name_H-M "C M M M"
_symmetry_group_IT_number 65
_symmetry_cell_setting 'orthorhombic'
loop_
_space_group_symop_operation_xyz
x,y,z
-x,-y,z
x,-y,-z
-x,y,-z
-x,-y,-z
x,y,-z
-x,y,z
x,-y,z
1/2+x,1/2+y,z
1/2-x,1/2-y,z
1/2+x,1/2-y,-z
1/2-x,1/2+y,-z
1/2-x,1/2-y,-z
1/2+x,1/2+y,-z
1/2-x,1/2+y,z
1/2+x,1/2-y,z
loop_
_atom_site_type_symbol
_atom_site_label
_atom_site_fract_x
_atom_site_fract_y
_atom_site_fract_z
Si Si1 0.325197 0.184913 0.899471
Si Si2 0.421428 0.313516 0.665233
Si Si3 0.175585 0.813992 0.228719
Si Si4 0.175542 0.315115 0.432936
Si Si5 0.080156 0.814368 0.000000
O O1 0.250000 0.250000 0.915371
O O2 0.339777 0.244458 0.834459
O O3 0.322911 0.000000 0.900460
O O4 0.380964 0.247506 0.944131
O O5 0.500000 0.262211 0.667094
O O6 0.420405 0.500000 0.661928
O O7 0.380122 0.270267 0.723295
O O8 0.381472 0.247883 0.610127
O O9 0.250000 0.750000 0.246327
O O10 0.178895 0.000000 0.224247
O O11 0.162840 0.269155 0.500000
O O12 0.177657 0.500000 0.430099
O O13 0.250000 0.250000 0.416244
O O14 0.000000 0.773455 0.000000
O O15 0.085897 0.000000 0.000000
#
# Coordination Sequence:
#
# PCOD9490597 Si02
#       5
#    16  16  16  16   8
#     4  11  22  38  61  87 115 147 188 233 277 328
#     4  10  22  38  56  81 114 151 187 226 276 333
#     4  10  20  36  58  83 111 145 188 233 278 328
#     4  10  21  37  58  83 110 143 185 232 280 331
#     4  11  24  41  60  83 115 153 188 227 280 335
#
# _framework density 18.451224
#
# number of rings (size 3 to 8) (size 9 to 14) (size 15 to 20)
#    0.000    1.667    0.000    6.000    0.000    7.556 
#    0.000    4.444    0.000    0.000    0.000    0.000 
#    0.000    0.000    0.000    0.000    0.000    0.000 
#
# Total GULP energy -201229.573867 kJ/mol
# GULP energy per Si atom -5589.710385 kJ/mol
# Density = 1.840923 g / cm^3
# Si number density = 18.451224 Si / 1000 Ang^3
#
#
#
# Elastic Constant Matrix: (Units=GPa)
#
#
# Indices 1 2 3 4 5 6 
#
# 1 197.6901 65.0052 132.1166 0.0000 0.0000 0.0000
# 2 65.0052 77.1339 51.9274 0.0000 0.0000 0.0000
# 3 132.1166 51.9274 124.2379 0.0000 0.0000 0.0000
# 4 0.0000 0.0000 0.0000 25.4585 0.0000 0.0000
# 5 0.0000 0.0000 0.0000 0.0000 -30.0771 0.0000
# 6 0.0000 0.0000 0.0000 0.0000 0.0000 30.7935
#
#
#
# Elastic Compliance Matrix: (Units=1/GPa)
#
#
# Indices 1 2 3 4 5 6 
#
# 1 0.018028 -0.003182 -0.017842 0.000000 0.000000 0.000000
# 2 -0.003182 0.018603 -0.004391 0.000000 0.000000 0.000000
# 3 -0.017842 -0.004391 0.028857 0.000000 0.000000 0.000000
# 4 0.000000 0.000000 0.000000 0.039280 0.000000 0.000000
# 5 0.000000 0.000000 0.000000 0.000000 -0.033248 0.000000
# 6 0.000000 0.000000 0.000000 0.000000 0.000000 0.032474
#
#
# Mechanical properties :
#
#
# Convention : Reuss Voigt Hill
#
# Bulk Modulus (GPa) = 68.22050 99.68448 83.95249
# Shear Modulus (GPa) = 31.30662 15.23585 23.27124
#
# Velocity S-wave (km/s) = 4.12360 2.87668 3.55523
# Velocity P-wave (km/s) = 7.72825 8.07322 7.90262
#
# Compressibility (1/GPa) = 0.01465835
#
# Stress axis : x y z
#
# Youngs Moduli (GPa) = 55.46783 53.75604 34.65316
#
# Poissons Ratio (x) = 0.17108 0.61827
# Poissons Ratio (y) = 0.17652 0.15216
# Poissons Ratio (z) = 0.98963 0.23604
#
# Static dielectric constant tensor:
#      x y z
#    x 1.607650 0.000000 0.000000 
#    y 0.000000 1.621730 0.000000 
#    z 0.000000 0.000000 1.621840 
# 
# From -- ./inp_files/70360.got.cif
#   From: 2010.05.17/outbox.cif.g08.bks.cpg/sg65_36_cif.got.tgz:70360.got - 2010.06.03 17:01:31.
