data_PCOD9490749
_publ_section_title
;
Structure prediction by ZEFSAII (Michael W. Deem and Ramdas Pophale) SiO2 
 PCOD9490749
Probable space group: C M M M
;
_chemical_formula_sum "Si O2"
_cell_formula_units_Z 64
_cell_length_a 22.386215
_cell_length_b 18.067259
_cell_length_c 7.771777
_cell_angle_alpha 90.000000
_cell_angle_beta 90.000000
_cell_angle_gamma 90.000000
_cell_volume 3143.353841
_symmetry_space_group_name_H-M "C M M M"
_symmetry_group_IT_number 65
_symmetry_cell_setting 'orthorhombic'
loop_
_space_group_symop_operation_xyz
x,y,z
-x,-y,z
x,-y,-z
-x,y,-z
-x,-y,-z
x,y,-z
-x,y,z
x,-y,z
1/2+x,1/2+y,z
1/2-x,1/2-y,z
1/2+x,1/2-y,-z
1/2-x,1/2+y,-z
1/2-x,1/2-y,-z
1/2+x,1/2+y,-z
1/2-x,1/2+y,z
1/2+x,1/2-y,z
loop_
_atom_site_type_symbol
_atom_site_label
_atom_site_fract_x
_atom_site_fract_y
_atom_site_fract_z
Si Si1 0.071335 0.585619 0.000000
Si Si2 0.136714 0.667235 0.691623
Si Si3 0.000000 0.914541 0.789687
Si Si4 0.254673 0.414982 0.791476
Si Si5 0.377195 0.336957 0.208807
O O1 0.097513 0.626253 0.165919
O O2 0.090768 0.500000 0.000000
O O3 0.000000 0.588950 0.000000
O O4 0.116511 0.648541 0.500000
O O5 0.204244 0.638563 0.717308
O O6 0.132220 0.754856 0.720688
O O7 0.939806 0.872685 0.735346
O O8 0.000000 0.000000 0.734415
O O9 0.000000 0.914833 0.000000
O O10 0.244700 0.500000 0.739157
O O11 0.320738 0.387676 0.743766
O O12 0.250185 0.411689 0.000000
O O13 0.378157 0.331989 0.000000
#
# Coordination Sequence:
#
# PCOD9490749 Si02
#       5
#     8  16   8  16  16
#     4  11  26  48  71  94 128 169 214 271 329 387
#     4  12  25  41  67  98 130 168 216 267 324 390
#     4   9  18  34  61  97 131 169 219 266 315 382
#     4  10  20  37  62  92 129 173 222 274 326 383
#     4  10  20  36  62  93 132 176 219 266 323 382
#
# _framework density 20.360420000000001
#
# number of rings (size 3 to 8) (size 9 to 14) (size 15 to 20)
#    0.000    1.500    2.500    2.250    1.750    9.500 
#    0.000    1.250    0.000    3.000    0.000    0.000 
#    0.000    0.000    0.000    0.000    0.000    0.000 
#
# Total GULP energy -179025.948313 kJ/mol
# GULP energy per Si atom -5594.560885 kJ/mol
# Density = 2.031408 g / cm^3
# Si number density = 20.360420 Si / 1000 Ang^3
#
#
#
# Elastic Constant Matrix: (Units=GPa)
#
#
# Indices 1 2 3 4 5 6 
#
# 1 144.4627 93.8518 37.1488 0.0000 0.0000 0.0000
# 2 93.8518 177.9593 36.6317 0.0000 0.0000 0.0000
# 3 37.1488 36.6317 86.3254 0.0000 0.0000 0.0000
# 4 0.0000 0.0000 0.0000 -23.9841 0.0000 0.0000
# 5 0.0000 0.0000 0.0000 0.0000 -17.1579 0.0000
# 6 0.0000 0.0000 0.0000 0.0000 0.0000 52.7378
#
#
#
# Elastic Compliance Matrix: (Units=1/GPa)
#
#
# Indices 1 2 3 4 5 6 
#
# 1 0.010997 -0.005287 -0.002489 0.000000 0.000000 0.000000
# 2 -0.005287 0.008699 -0.001416 0.000000 0.000000 0.000000
# 3 -0.002489 -0.001416 0.013256 0.000000 0.000000 0.000000
# 4 0.000000 0.000000 0.000000 -0.041694 0.000000 0.000000
# 5 0.000000 0.000000 0.000000 0.000000 -0.058282 0.000000
# 6 0.000000 0.000000 0.000000 0.000000 0.000000 0.018962
#
#
# Mechanical properties :
#
#
# Convention : Reuss Voigt Hill
#
# Bulk Modulus (GPa) = 68.64442 82.66798 75.65620
# Shear Modulus (GPa) = -201.43570 18.39350 -91.52110
#
# Velocity S-wave (km/s) = -9.95740 3.00891 -6.71179
# Velocity P-wave (km/s) = 9.92027 7.26374 4.77755
#
# Compressibility (1/GPa) = 0.01456783
#
# Stress axis : x y z
#
# Youngs Moduli (GPa) = 90.93217 114.95301 75.43741
#
# Poissons Ratio (x) = 0.60780 0.18775
# Poissons Ratio (y) = 0.48079 0.10683
# Poissons Ratio (z) = 0.22631 0.16279
#
# Static dielectric constant tensor:
#      x y z
#    x 1.691080 0.000000 0.000000 
#    y 0.000000 1.676300 0.000000 
#    z 0.000000 0.000000 1.701030 
# 
# From -- ./inp_files/10844.got.cif
#   From: 2010.05.17/outbox.cif.g08.bks.cpg/sg65_6_cif.got.tgz:10844.got - 2010.06.03 17:01:31.
