data_PCOD9490056
_publ_section_title
;
Structure prediction by ZEFSAII (Michael W. Deem and Ramdas Pophale) SiO2 
 PCOD9490056
Probable space group: C M M M
;
_chemical_formula_sum "Si O2"
_cell_formula_units_Z 88
_cell_length_a 21.894734
_cell_length_b 8.067657
_cell_length_c 27.506860
_cell_angle_alpha 90.000000
_cell_angle_beta 90.000000
_cell_angle_gamma 90.000000
_cell_volume 4858.789855
_symmetry_space_group_name_H-M "C M M M"
_symmetry_group_IT_number 65
_symmetry_cell_setting 'orthorhombic'
loop_
_space_group_symop_operation_xyz
x,y,z
-x,-y,z
x,-y,-z
-x,y,-z
-x,-y,-z
x,y,-z
-x,y,z
x,-y,z
1/2+x,1/2+y,z
1/2-x,1/2-y,z
1/2+x,1/2-y,-z
1/2-x,1/2+y,-z
1/2-x,1/2-y,-z
1/2+x,1/2+y,-z
1/2-x,1/2+y,z
1/2+x,1/2-y,z
loop_
_atom_site_type_symbol
_atom_site_label
_atom_site_fract_x
_atom_site_fract_y
_atom_site_fract_z
Si Si1 0.126714 0.300736 0.900624
Si Si2 0.929900 0.198360 0.273235
Si Si3 0.318521 0.800693 0.000000
Si Si4 0.000000 0.198328 0.942232
Si Si5 0.820149 0.698879 0.201596
Si Si6 0.073459 0.683089 0.382717
Si Si7 0.574655 0.500000 0.443585
O O1 0.133428 0.500000 0.899608
O O2 0.155124 0.232578 0.950175
O O3 0.056805 0.258834 0.910293
O O4 0.159343 0.238287 0.852002
O O5 0.874423 0.243561 0.237515
O O6 0.917424 0.278421 0.325832
O O7 0.000000 0.247523 0.257961
O O8 0.930881 0.000000 0.279181
O O9 0.250000 0.750000 0.000000
O O10 0.327466 0.000000 0.000000
O O11 0.000000 0.000000 0.944827
O O12 0.000000 0.257773 0.000000
O O13 0.821099 0.500000 0.201688
O O14 0.750000 0.750000 0.212672
O O15 0.097447 0.500000 0.395014
O O16 0.000000 0.678963 0.389383
O O17 0.095988 0.835043 0.415518
O O18 0.500000 0.500000 0.441607
O O19 0.592013 0.500000 0.500000
#
# Coordination Sequence:
#
# PCOD9490056 Si02
#       7
#    16  16   8   8  16  16   8
#     4  10  22  39  58  78 107 142 176 217 275 338
#     4  10  20  36  58  82 111 151 194 240 292 348
#     4  10  20  35  56  77  99 134 174 214 265 336
#     4  11  23  37  57  85 109 135 175 225 271 326
#     4  11  24  40  58  83 113 147 185 236 290 345
#     4   9  16  28  47  72 106 149 196 243 289 344
#     4   9  16  26  42  70 112 156 196 239 290 348
#
# _framework density 18.111505000000001
#
# number of rings (size 3 to 8) (size 9 to 14) (size 15 to 20)
#    0.000    2.000    1.818    1.909    1.273    4.000 
#    0.000    1.818    0.000    0.000    0.000    0.000 
#    0.000    0.727    0.364    0.000    0.000    0.000 
#
# Total GULP energy -245182.473106 kJ/mol
# GULP energy per Si atom -5572.328934 kJ/mol
# Density = 1.807028 g / cm^3
# Si number density = 18.111505 Si / 1000 Ang^3
#
#
#
# Elastic Constant Matrix: (Units=GPa)
#
#
# Indices 1 2 3 4 5 6 
#
# 1 104.1584 16.3024 53.4720 0.0000 0.0000 0.0000
# 2 16.3024 83.4651 54.3488 0.0000 0.0000 0.0000
# 3 53.4720 54.3488 114.5457 0.0000 0.0000 0.0000
# 4 0.0000 0.0000 0.0000 18.9298 0.0000 0.0000
# 5 0.0000 0.0000 0.0000 0.0000 -8.0295 0.0000
# 6 0.0000 0.0000 0.0000 0.0000 0.0000 16.5387
#
#
#
# Elastic Compliance Matrix: (Units=1/GPa)
#
#
# Indices 1 2 3 4 5 6 
#
# 1 0.012858 0.002022 -0.006962 0.000000 0.000000 0.000000
# 2 0.002022 0.017655 -0.009321 0.000000 0.000000 0.000000
# 3 -0.006962 -0.009321 0.016402 0.000000 0.000000 0.000000
# 4 0.000000 0.000000 0.000000 0.052827 0.000000 0.000000
# 5 0.000000 0.000000 0.000000 0.000000 -0.124540 0.000000
# 6 0.000000 0.000000 0.000000 0.000000 0.000000 0.060464
#
#
# Mechanical properties :
#
#
# Convention : Reuss Voigt Hill
#
# Bulk Modulus (GPa) = 54.36390 61.15729 57.76060
# Shear Modulus (GPa) = 71.10316 17.35753 44.23034
#
# Velocity S-wave (km/s) = 6.27246 3.09911 4.94714
# Velocity P-wave (km/s) = 9.08514 6.82982 8.03698
#
# Compressibility (1/GPa) = 0.01839456
#
# Stress axis : x y z
#
# Youngs Moduli (GPa) = 77.77089 56.63967 60.96654
#
# Poissons Ratio (x) = -0.11451 0.42443
# Poissons Ratio (y) = -0.15723 0.56826
# Poissons Ratio (z) = 0.54142 0.52793
#
# Static dielectric constant tensor:
#      x y z
#    x 1.365980 0.000000 0.000000 
#    y 0.000000 1.652140 0.000000 
#    z 0.000000 0.000000 1.615410 
# 
# From -- ./inp_files/71088.got.cif
#   From: 2010.05.17/outbox.cif.g08.bks.cpg/sg65_36_cif.got.tgz:71088.got - 2010.06.03 17:01:31.
