data_PCOD9490763
_publ_section_title
;
Structure prediction by ZEFSAII (Michael W. Deem and Ramdas Pophale) SiO2 
 PCOD9490763
Probable space group: C M M M
;
_chemical_formula_sum "Si O2"
_cell_formula_units_Z 72
_cell_length_a 7.747017
_cell_length_b 22.748153
_cell_length_c 19.174684
_cell_angle_alpha 90.000000
_cell_angle_beta 90.000000
_cell_angle_gamma 90.000000
_cell_volume 3379.160851
_symmetry_space_group_name_H-M "C M M M"
_symmetry_group_IT_number 65
_symmetry_cell_setting 'orthorhombic'
loop_
_space_group_symop_operation_xyz
x,y,z
-x,-y,z
x,-y,-z
-x,y,-z
-x,-y,-z
x,y,-z
-x,y,z
x,-y,z
1/2+x,1/2+y,z
1/2-x,1/2-y,z
1/2+x,1/2-y,-z
1/2-x,1/2+y,-z
1/2-x,1/2-y,-z
1/2+x,1/2+y,-z
1/2-x,1/2+y,z
1/2+x,1/2-y,z
loop_
_atom_site_type_symbol
_atom_site_label
_atom_site_fract_x
_atom_site_fract_y
_atom_site_fract_z
Si Si1 0.207900 0.818045 0.574714
Si Si2 0.205164 0.314987 0.079123
Si Si3 0.791344 0.500000 0.580421
Si Si4 0.797786 0.899082 0.686449
Si Si5 0.292333 0.434310 0.161960
O O1 0.271227 0.843996 0.500000
O O2 0.250000 0.750000 0.572604
O O3 0.279539 0.843122 0.647133
O O4 0.000000 0.825805 0.575402
O O5 0.250000 0.250000 0.109487
O O6 0.254967 0.375202 0.118294
O O7 0.000000 0.316023 0.075253
O O8 0.278029 0.316453 0.000000
O O9 0.737161 0.500000 0.500000
O O10 0.720386 0.554202 0.624579
O O11 0.000000 0.500000 0.583042
O O12 0.725279 0.922269 0.759243
O O13 0.000000 0.888365 0.700975
O O14 0.500000 0.438714 0.163779
O O15 0.230669 0.500000 0.138687
#
# Coordination Sequence:
#
# PCOD9490763 Si02
#       5
#    16  16   8  16  16
#     4   9  18  32  51  74 101 137 181 230 282 336
#     4  10  22  41  65  92 122 158 201 247 296 355
#     4  11  23  35  51  79 110 143 188 241 291 334
#     4  10  20  37  57  78 107 146 191 233 281 347
#     4  10  21  38  60  88 123 159 197 246 302 360
#
# _framework density 21.307064
#
# number of rings (size 3 to 8) (size 9 to 14) (size 15 to 20)
#    0.000    2.111    1.111    1.667    0.000    6.667 
#    0.000    6.667    0.000    0.000    0.000    0.000 
#    0.000    0.000    0.000    0.000    0.000    0.000 
#
# Total GULP energy -200513.427653 kJ/mol
# GULP energy per Si atom -5569.817435 kJ/mol
# Density = 2.125857 g / cm^3
# Si number density = 21.307064 Si / 1000 Ang^3
#
#
#
# Elastic Constant Matrix: (Units=GPa)
#
#
# Indices 1 2 3 4 5 6 
#
# 1 45.5433 4.6313 3.7127 0.0000 0.0000 0.0000
# 2 4.6313 169.4492 77.8734 0.0000 0.0000 0.0000
# 3 3.7127 77.8734 95.9223 0.0000 0.0000 0.0000
# 4 0.0000 0.0000 0.0000 49.0348 0.0000 0.0000
# 5 0.0000 0.0000 0.0000 0.0000 16.4829 0.0000
# 6 0.0000 0.0000 0.0000 0.0000 0.0000 30.4233
#
#
#
# Elastic Compliance Matrix: (Units=1/GPa)
#
#
# Indices 1 2 3 4 5 6 
#
# 1 0.022039 -0.000335 -0.000581 0.000000 0.000000 0.000000
# 2 -0.000335 0.009419 -0.007634 0.000000 0.000000 0.000000
# 3 -0.000581 -0.007634 0.016645 0.000000 0.000000 0.000000
# 4 0.000000 0.000000 0.000000 0.020394 0.000000 0.000000
# 5 0.000000 0.000000 0.000000 0.000000 0.060669 0.000000
# 6 0.000000 0.000000 0.000000 0.000000 0.000000 0.032870
#
#
# Mechanical properties :
#
#
# Convention : Reuss Voigt Hill
#
# Bulk Modulus (GPa) = 32.25518 53.70550 42.98034
# Shear Modulus (GPa) = 26.38972 34.16804 30.27888
#
# Velocity S-wave (km/s) = 3.52311 4.00884 3.77380
# Velocity P-wave (km/s) = 5.63213 6.83286 6.26134
#
# Compressibility (1/GPa) = 0.03100277
#
# Stress axis : x y z
#
# Youngs Moduli (GPa) = 45.37499 106.17096 60.07892
#
# Poissons Ratio (x) = 0.03562 0.03488
# Poissons Ratio (y) = 0.01522 0.45861
# Poissons Ratio (z) = 0.02635 0.81046
#
# Static dielectric constant tensor:
#      x y z
#    x 1.773920 0.000000 0.000000 
#    y 0.000000 1.884930 0.000000 
#    z 0.000000 0.000000 1.816920 
# 
# From -- ./inp_files/49527.got.cif
#   From: 2010.05.17/outbox.cif.g08.bks.cpg/sg65_25_cif.got.tgz:49527.got - 2010.06.03 17:01:31.
