data_PCOD9490059
_publ_section_title
;
Structure prediction by ZEFSAII (Michael W. Deem and Ramdas Pophale) SiO2 
 PCOD9490059
Probable space group: C M M M
;
_chemical_formula_sum "Si O2"
_cell_formula_units_Z 104
_cell_length_a 21.584031
_cell_length_b 26.410300
_cell_length_c 9.926024
_cell_angle_alpha 90.000000
_cell_angle_beta 90.000000
_cell_angle_gamma 90.000000
_cell_volume 5658.238006
_symmetry_space_group_name_H-M "C M M M"
_symmetry_group_IT_number 65
_symmetry_cell_setting 'orthorhombic'
loop_
_space_group_symop_operation_xyz
x,y,z
-x,-y,z
x,-y,-z
-x,y,-z
-x,-y,-z
x,y,-z
-x,y,z
x,-y,z
1/2+x,1/2+y,z
1/2-x,1/2-y,z
1/2+x,1/2-y,-z
1/2-x,1/2+y,-z
1/2-x,1/2-y,-z
1/2+x,1/2+y,-z
1/2-x,1/2+y,z
1/2+x,1/2-y,z
loop_
_atom_site_type_symbol
_atom_site_label
_atom_site_fract_x
_atom_site_fract_y
_atom_site_fract_z
Si Si1 0.099629 0.558484 0.850559
Si Si2 0.619964 0.219922 0.144689
Si Si3 0.928416 0.831276 0.843415
Si Si4 0.689640 0.645662 0.660269
Si Si5 0.250908 0.940752 0.155830
Si Si6 0.429434 0.857310 0.650058
Si Si7 0.750000 0.750000 0.241806
O O1 0.082885 0.500000 0.837831
O O2 0.174359 0.562295 0.842425
O O3 0.072203 0.591254 0.732494
O O4 0.080580 0.575644 0.000000
O O5 0.579291 0.270367 0.158360
O O6 0.608981 0.182771 0.266559
O O7 0.691273 0.235435 0.152459
O O8 0.605953 0.195953 0.000000
O O9 0.876836 0.849948 0.737417
O O10 0.000000 0.844774 0.813349
O O11 0.914898 0.846598 0.000000
O O12 0.683452 0.636439 0.500000
O O13 0.724403 0.600135 0.739425
O O14 0.726322 0.699473 0.679705
O O15 0.234566 0.000000 0.184567
O O16 0.231730 0.929715 0.000000
O O17 0.405358 0.863995 0.500000
O O18 0.500000 0.838900 0.644948
#
# Coordination Sequence:
#
# PCOD9490059 Si02
#       7
#    16  16  16  16  16  16   8
#     4   9  19  36  57  78  98 127 173 225 269 310
#     4  10  20  35  56  78 101 134 177 221 261 306
#     4   9  19  36  56  77 103 138 179 219 261 312
#     4  11  22  34  53  82 115 148 180 217 263 320
#     4   9  19  37  59  82 109 140 177 224 275 323
#     4  11  24  37  49  71 105 142 176 214 264 318
#     4  10  22  36  52  82 118 146 174 216 272 330
#
# _framework density 18.380281
#
# number of rings (size 3 to 8) (size 9 to 14) (size 15 to 20)
#    0.000    2.154    0.000    3.692    0.000   11.077 
#    0.000    3.077    0.000    0.462    0.000    3.231 
#    0.000    0.000    0.000    0.000    0.000    0.000 
#
# Total GULP energy -290020.362829 kJ/mol
# GULP energy per Si atom -5577.314670 kJ/mol
# Density = 1.833845 g / cm^3
# Si number density = 18.380281 Si / 1000 Ang^3
#
#
#
# Elastic Constant Matrix: (Units=GPa)
#
#
# Indices 1 2 3 4 5 6 
#
# 1 72.0039 28.2476 37.6491 0.0000 0.0000 0.0000
# 2 28.2476 80.8089 65.7582 0.0000 0.0000 0.0000
# 3 37.6491 65.7582 163.8657 0.0000 0.0000 0.0000
# 4 0.0000 0.0000 0.0000 53.8547 0.0000 0.0000
# 5 0.0000 0.0000 0.0000 0.0000 19.0670 0.0000
# 6 0.0000 0.0000 0.0000 0.0000 0.0000 14.7806
#
#
#
# Elastic Compliance Matrix: (Units=1/GPa)
#
#
# Indices 1 2 3 4 5 6 
#
# 1 0.016616 -0.004012 -0.002208 0.000000 0.000000 0.000000
# 2 -0.004012 0.019344 -0.006841 0.000000 0.000000 0.000000
# 3 -0.002208 -0.006841 0.009355 0.000000 0.000000 0.000000
# 4 0.000000 0.000000 0.000000 0.018568 0.000000 0.000000
# 5 0.000000 0.000000 0.000000 0.000000 0.052447 0.000000
# 6 0.000000 0.000000 0.000000 0.000000 0.000000 0.067656
#
#
# Mechanical properties :
#
#
# Convention : Reuss Voigt Hill
#
# Bulk Modulus (GPa) = 52.09854 64.44314 58.27084
# Shear Modulus (GPa) = 23.09408 29.87539 26.48473
#
# Velocity S-wave (km/s) = 3.54850 4.03600 3.80008
# Velocity P-wave (km/s) = 6.72276 7.54031 7.14324
#
# Compressibility (1/GPa) = 0.01919440
#
# Stress axis : x y z
#
# Youngs Moduli (GPa) = 60.18149 51.69558 106.89470
#
# Poissons Ratio (x) = 0.20740 0.23600
# Poissons Ratio (y) = 0.24144 0.73125
# Poissons Ratio (z) = 0.13287 0.35364
#
# Static dielectric constant tensor:
#      x y z
#    x 1.642960 0.000000 0.000000 
#    y 0.000000 1.639640 0.000000 
#    z 0.000000 0.000000 1.628390 
# 
# From -- ./inp_files/12411.got.cif
#   From: 2010.05.17/outbox.cif.g08.bks.cpg/sg65_7_cif.got.tgz:12411.got - 2010.06.03 17:01:31.
