data_PCOD9490825
_publ_section_title
;
Structure prediction by ZEFSAII (Michael W. Deem and Ramdas Pophale) SiO2 
 PCOD9490825
Probable space group: C M M M
;
_chemical_formula_sum "Si O2"
_cell_formula_units_Z 64
_cell_length_a 10.810712
_cell_length_b 17.784432
_cell_length_c 18.871290
_cell_angle_alpha 90.000000
_cell_angle_beta 90.000000
_cell_angle_gamma 90.000000
_cell_volume 3628.238986
_symmetry_space_group_name_H-M "C M M M"
_symmetry_group_IT_number 65
_symmetry_cell_setting 'orthorhombic'
loop_
_space_group_symop_operation_xyz
x,y,z
-x,-y,z
x,-y,-z
-x,y,-z
-x,-y,-z
x,y,-z
-x,y,z
x,-y,z
1/2+x,1/2+y,z
1/2-x,1/2-y,z
1/2+x,1/2-y,-z
1/2-x,1/2+y,-z
1/2-x,1/2-y,-z
1/2+x,1/2+y,-z
1/2-x,1/2+y,z
1/2+x,1/2-y,z
loop_
_atom_site_type_symbol
_atom_site_label
_atom_site_fract_x
_atom_site_fract_y
_atom_site_fract_z
Si Si1 0.148012 0.084758 0.214052
Si Si2 0.269065 0.408437 0.630966
Si Si3 0.640646 0.312625 0.500000
Si Si4 0.500000 0.090703 0.418271
Si Si5 0.855136 0.186452 0.079263
O O1 0.193384 0.114173 0.289866
O O2 0.175336 0.131892 0.144178
O O3 0.000000 0.081228 0.219001
O O4 0.197202 0.000000 0.206391
O O5 0.284072 0.500000 0.624085
O O6 0.341485 0.365386 0.569169
O O7 0.126149 0.387045 0.618917
O O8 0.500000 0.282784 0.500000
O O9 0.750000 0.250000 0.500000
O O10 0.500000 0.114088 0.500000
O O11 0.500000 0.000000 0.418653
O O12 0.750000 0.250000 0.080691
O O13 0.000000 0.211914 0.087983
O O14 0.849761 0.151652 0.000000
#
# Coordination Sequence:
#
# PCOD9490825 Si02
#       5
#    16  16   8   8  16
#     4   9  18  33  54  81 109 136 175 228 273 312
#     4  10  20  37  60  80 105 142 185 227 272 323
#     4  12  27  39  54  80 110 143 180 225 277 325
#     4   9  16  30  56  82 101 135 179 223 266 315
#     4   9  18  34  56  80 108 144 181 215 260 320
#
# _framework density 17.639410999999999
#
# number of rings (size 3 to 8) (size 9 to 14) (size 15 to 20)
#    0.000    2.375    1.250    1.125    1.750    3.500 
#    2.250    2.500    0.000    0.000    0.000    3.500 
#    0.000    0.000    0.000    0.000    0.000    0.000 
#
# Total GULP energy -178271.465016 kJ/mol
# GULP energy per Si atom -5570.983282 kJ/mol
# Density = 1.759926 g / cm^3
# Si number density = 17.639411 Si / 1000 Ang^3
#
#
#
# Elastic Constant Matrix: (Units=GPa)
#
#
# Indices 1 2 3 4 5 6 
#
# 1 75.7019 34.8791 53.8064 0.0000 0.0000 0.0000
# 2 34.8791 44.2732 63.9341 0.0000 0.0000 0.0000
# 3 53.8064 63.9341 193.3171 0.0000 0.0000 0.0000
# 4 0.0000 0.0000 0.0000 -2.0623 0.0000 0.0000
# 5 0.0000 0.0000 0.0000 0.0000 33.0032 0.0000
# 6 0.0000 0.0000 0.0000 0.0000 0.0000 18.5254
#
#
#
# Elastic Compliance Matrix: (Units=1/GPa)
#
#
# Indices 1 2 3 4 5 6 
#
# 1 0.020787 -0.015354 -0.000708 0.000000 0.000000 0.000000
# 2 -0.015354 0.054578 -0.013776 0.000000 0.000000 0.000000
# 3 -0.000708 -0.013776 0.009926 0.000000 0.000000 0.000000
# 4 0.000000 0.000000 0.000000 -0.484899 0.000000 0.000000
# 5 0.000000 0.000000 0.000000 0.000000 0.030300 0.000000
# 6 0.000000 0.000000 0.000000 0.000000 0.000000 0.053980
#
#
# Mechanical properties :
#
#
# Convention : Reuss Voigt Hill
#
# Bulk Modulus (GPa) = 39.04156 68.72573 53.88364
# Shear Modulus (GPa) = -20.23363 20.60477 0.18557
#
# Velocity S-wave (km/s) = -3.39052 3.42147 0.32470
# Velocity P-wave (km/s) = 2.61796 7.39288 5.54565
#
# Compressibility (1/GPa) = 0.02561373
#
# Stress axis : x y z
#
# Youngs Moduli (GPa) = 48.10655 18.32252 100.74599
#
# Poissons Ratio (x) = 0.28133 0.07130
# Poissons Ratio (y) = 0.73865 1.38791
# Poissons Ratio (z) = 0.03404 0.25242
#
# Static dielectric constant tensor:
#      x y z
#    x 1.610470 0.000000 0.000000 
#    y 0.000000 1.623340 0.000000 
#    z 0.000000 0.000000 1.597640 
# 
# From -- ./inp_files/37770.got.cif
#   From: 2010.05.17/outbox.cif.g08.bks.cpg/sg65_19_cif.got.tgz:37770.got - 2010.06.03 17:01:31.
