data_PCOD9490967
_publ_section_title
;
Structure prediction by ZEFSAII (Michael W. Deem and Ramdas Pophale) SiO2 
 PCOD9490967
Probable space group: C M M M
;
_chemical_formula_sum "Si O2"
_cell_formula_units_Z 48
_cell_length_a 11.271084
_cell_length_b 28.696035
_cell_length_c 7.291106
_cell_angle_alpha 90.000000
_cell_angle_beta 90.000000
_cell_angle_gamma 90.000000
_cell_volume 2358.201938
_symmetry_space_group_name_H-M "C M M M"
_symmetry_group_IT_number 65
_symmetry_cell_setting 'orthorhombic'
loop_
_space_group_symop_operation_xyz
x,y,z
-x,-y,z
x,-y,-z
-x,y,-z
-x,-y,-z
x,y,-z
-x,y,z
x,-y,z
1/2+x,1/2+y,z
1/2-x,1/2-y,z
1/2+x,1/2-y,-z
1/2-x,1/2+y,-z
1/2-x,1/2-y,-z
1/2+x,1/2+y,-z
1/2-x,1/2+y,z
1/2+x,1/2-y,z
loop_
_atom_site_type_symbol
_atom_site_label
_atom_site_fract_x
_atom_site_fract_y
_atom_site_fract_z
Si Si1 0.500000 0.448088 0.778131
Si Si2 0.359975 0.716408 0.222546
Si Si3 0.224986 0.887701 0.780449
Si Si4 0.861348 0.446389 0.500000
O O1 0.500000 0.500000 0.707988
O O2 0.614264 0.419576 0.726994
O O3 0.500000 0.449868 0.000000
O O4 0.500000 0.723919 0.281347
O O5 0.250000 0.750000 0.280709
O O6 0.313671 0.664636 0.269938
O O7 0.364889 0.719332 0.000000
O O8 0.327934 0.913875 0.673016
O O9 0.243662 0.888395 0.000000
O O10 0.809801 0.500000 0.500000
O O11 0.000000 0.452442 0.500000
#
# Coordination Sequence:
#
# PCOD9490967 Si02
#       4
#     8  16  16   8
#     4   9  16  29  55  87 114 145 191 242 295 354
#     4   9  17  32  57  90 126 162 204 255 308 368
#     4  10  20  38  62  87 120 159 199 248 306 364
#     4  11  26  43  58  85 122 158 204 255 303 370
#
# _framework density 20.354490999999999
#
# number of rings (size 3 to 8) (size 9 to 14) (size 15 to 20)
#    0.000    2.333    1.667    1.000    0.000    4.667 
#    0.000    7.500    0.000    0.000    0.000    0.000 
#    0.000    0.000    0.000    0.000    0.000    0.000 
#
# Total GULP energy -133683.255976 kJ/mol
# GULP energy per Si atom -5570.135666 kJ/mol
# Density = 2.030816 g / cm^3
# Si number density = 20.354491 Si / 1000 Ang^3
#
#
#
# Elastic Constant Matrix: (Units=GPa)
#
#
# Indices 1 2 3 4 5 6 
#
# 1 152.2442 99.8636 31.6068 0.0000 0.0000 0.0000
# 2 99.8636 210.3224 32.6051 0.0000 0.0000 0.0000
# 3 31.6068 32.6051 90.3086 0.0000 0.0000 0.0000
# 4 0.0000 0.0000 0.0000 -0.3524 0.0000 0.0000
# 5 0.0000 0.0000 0.0000 0.0000 52.4139 0.0000
# 6 0.0000 0.0000 0.0000 0.0000 0.0000 44.1749
#
#
#
# Elastic Compliance Matrix: (Units=1/GPa)
#
#
# Indices 1 2 3 4 5 6 
#
# 1 0.009825 -0.004377 -0.001858 0.000000 0.000000 0.000000
# 2 -0.004377 0.006986 -0.000990 0.000000 0.000000 0.000000
# 3 -0.001858 -0.000990 0.012081 0.000000 0.000000 0.000000
# 4 0.000000 0.000000 0.000000 -2.837781 0.000000 0.000000
# 5 0.000000 0.000000 0.000000 0.000000 0.019079 0.000000
# 6 0.000000 0.000000 0.000000 0.000000 0.000000 0.022637
#
#
# Mechanical properties :
#
#
# Convention : Reuss Voigt Hill
#
# Bulk Modulus (GPa) = 69.24738 86.78069 78.01404
# Shear Modulus (GPa) = -1.81957 38.50060 18.34052
#
# Velocity S-wave (km/s) = -0.94651 4.35386 3.00501
# Velocity P-wave (km/s) = 5.73586 8.24633 7.10289
#
# Compressibility (1/GPa) = 0.01444098
#
# Stress axis : x y z
#
# Youngs Moduli (GPa) = 101.77770 143.13434 82.77346
#
# Poissons Ratio (x) = 0.62651 0.15383
# Poissons Ratio (y) = 0.44549 0.08198
# Poissons Ratio (z) = 0.18915 0.14177
#
# Static dielectric constant tensor:
#      x y z
#    x 1.704580 0.000000 0.000000 
#    y 0.000000 1.701210 0.000000 
#    z 0.000000 0.000000 1.804390 
# 
# From -- ./inp_files/3120.got.cif
#   From: 2010.05.17/outbox.cif.g08.bks.cpg/sg65_2_cif.got.tgz:3120.got - 2010.06.03 17:01:31.
