data_PCOD9490515
_publ_section_title
;
Structure prediction by ZEFSAII (Michael W. Deem and Ramdas Pophale) SiO2 
 PCOD9490515
Probable space group: C M M M
;
_chemical_formula_sum "Si O2"
_cell_formula_units_Z 80
_cell_length_a 8.746664
_cell_length_b 27.629898
_cell_length_c 18.896316
_cell_angle_alpha 90.000000
_cell_angle_beta 90.000000
_cell_angle_gamma 90.000000
_cell_volume 4566.661995
_symmetry_space_group_name_H-M "C M M M"
_symmetry_group_IT_number 65
_symmetry_cell_setting 'orthorhombic'
loop_
_space_group_symop_operation_xyz
x,y,z
-x,-y,z
x,-y,-z
-x,y,-z
-x,-y,-z
x,y,-z
-x,y,z
x,-y,z
1/2+x,1/2+y,z
1/2-x,1/2-y,z
1/2+x,1/2-y,-z
1/2-x,1/2+y,-z
1/2-x,1/2-y,-z
1/2+x,1/2+y,-z
1/2-x,1/2+y,z
1/2+x,1/2-y,z
loop_
_atom_site_type_symbol
_atom_site_label
_atom_site_fract_x
_atom_site_fract_y
_atom_site_fract_z
Si Si1 0.317218 0.100278 0.641254
Si Si2 0.183455 0.301730 0.718169
Si Si3 0.682496 0.649900 0.858302
Si Si4 0.815910 0.555558 0.791915
Si Si5 0.816909 0.304162 0.000000
Si Si6 0.682462 0.555562 0.500000
O O1 0.500000 0.097107 0.632280
O O2 0.279094 0.155336 0.663201
O O3 0.276800 0.068194 0.710276
O O4 0.239426 0.081954 0.570538
O O5 0.250000 0.250000 0.697388
O O6 0.254462 0.317953 0.793159
O O7 0.000000 0.299654 0.725237
O O8 0.500000 0.653644 0.861732
O O9 0.733644 0.595173 0.840194
O O10 0.756767 0.668620 0.930385
O O11 0.778241 0.500000 0.807861
O O12 0.000000 0.561975 0.798544
O O13 0.750000 0.250000 0.000000
O O14 0.000000 0.302329 0.000000
O O15 0.739084 0.500000 0.500000
O O16 0.500000 0.554907 0.500000
#
# Coordination Sequence:
#
# PCOD9490515 Si02
#       6
#    16  16  16  16   8   8
#     4   9  19  35  55  78 105 139 179 218 259 316
#     4  10  20  36  57  81 107 139 179 220 265 315
#     4  11  22  36  55  82 113 143 178 219 265 317
#     4   9  18  35  58  82 108 141 181 223 267 315
#     4  12  24  40  59  80 109 142 178 221 269 317
#     4  11  23  35  50  77 110 139 172 219 270 315
#
# _framework density 17.518267000000002
#
# number of rings (size 3 to 8) (size 9 to 14) (size 15 to 20)
#    0.000    1.900    0.000    6.000    0.000    6.000 
#    0.000    1.000    0.000    3.000    0.000    0.000 
#    0.000    0.000    0.000    0.000    0.000    0.000 
#
# Total GULP energy -223430.762814 kJ/mol
# GULP energy per Si atom -5585.769070 kJ/mol
# Density = 1.747839 g / cm^3
# Si number density = 17.518267 Si / 1000 Ang^3
#
#
#
# Elastic Constant Matrix: (Units=GPa)
#
#
# Indices 1 2 3 4 5 6 
#
# 1 98.0964 70.4476 67.3133 0.0000 0.0000 0.0000
# 2 70.4476 149.1482 83.2923 0.0000 0.0000 0.0000
# 3 67.3133 83.2923 145.1381 0.0000 0.0000 0.0000
# 4 0.0000 0.0000 0.0000 10.8383 0.0000 0.0000
# 5 0.0000 0.0000 0.0000 0.0000 20.7311 0.0000
# 6 0.0000 0.0000 0.0000 0.0000 0.0000 33.1941
#
#
#
# Elastic Compliance Matrix: (Units=1/GPa)
#
#
# Indices 1 2 3 4 5 6 
#
# 1 0.017578 -0.005519 -0.004986 0.000000 0.000000 0.000000
# 2 -0.005519 0.011600 -0.004097 0.000000 0.000000 0.000000
# 3 -0.004986 -0.004097 0.011554 0.000000 0.000000 0.000000
# 4 0.000000 0.000000 0.000000 0.092265 0.000000 0.000000
# 5 0.000000 0.000000 0.000000 0.000000 0.048237 0.000000
# 6 0.000000 0.000000 0.000000 0.000000 0.000000 0.030126
#
#
# Mechanical properties :
#
#
# Convention : Reuss Voigt Hill
#
# Bulk Modulus (GPa) = 86.74178 92.72102 89.73140
# Shear Modulus (GPa) = 20.45787 24.37467 22.41627
#
# Velocity S-wave (km/s) = 3.42102 3.73418 3.58102
# Velocity P-wave (km/s) = 8.07633 8.46376 8.27231
#
# Compressibility (1/GPa) = 0.01152847
#
# Stress axis : x y z
#
# Youngs Moduli (GPa) = 56.88827 86.21047 86.55296
#
# Poissons Ratio (x) = 0.47576 0.43152
# Poissons Ratio (y) = 0.31394 0.35463
# Poissons Ratio (z) = 0.28362 0.35323
#
# Static dielectric constant tensor:
#      x y z
#    x 1.587440 0.000000 0.000000 
#    y 0.000000 1.594750 0.000000 
#    z 0.000000 0.000000 1.559210 
# 
# From -- ./inp_files/49898.got.cif
#   From: 2010.05.17/outbox.cif.g08.bks.cpg/sg65_25_cif.got.tgz:49898.got - 2010.06.03 17:01:31.
