data_PCOD9490268
_publ_section_title
;
Structure prediction by ZEFSAII (Michael W. Deem and Ramdas Pophale) SiO2 
 PCOD9490268
Probable space group: C M M M
;
_chemical_formula_sum "Si O2"
_cell_formula_units_Z 64
_cell_length_a 7.772240
_cell_length_b 18.587544
_cell_length_c 23.387310
_cell_angle_alpha 90.000000
_cell_angle_beta 90.000000
_cell_angle_gamma 90.000000
_cell_volume 3378.691075
_symmetry_space_group_name_H-M "C M M M"
_symmetry_group_IT_number 65
_symmetry_cell_setting 'orthorhombic'
loop_
_space_group_symop_operation_xyz
x,y,z
-x,-y,z
x,-y,-z
-x,y,-z
-x,-y,-z
x,y,-z
-x,y,z
x,-y,z
1/2+x,1/2+y,z
1/2-x,1/2-y,z
1/2+x,1/2-y,-z
1/2-x,1/2+y,-z
1/2-x,1/2-y,-z
1/2+x,1/2+y,-z
1/2-x,1/2+y,z
1/2+x,1/2-y,z
loop_
_atom_site_type_symbol
_atom_site_label
_atom_site_fract_x
_atom_site_fract_y
_atom_site_fract_z
Si Si1 0.799008 0.087584 0.000000
Si Si2 0.289331 0.416409 0.875673
Si Si3 0.000000 0.912420 0.434770
Si Si4 0.194257 0.585229 0.648343
Si Si5 0.205898 0.833681 0.762701
O O1 0.726493 0.109377 0.061744
O O2 0.000000 0.108868 0.000000
O O3 0.794871 0.000000 0.000000
O O4 0.500000 0.415048 0.877500
O O5 0.240290 0.500000 0.867887
O O6 0.233065 0.369811 0.821823
O O7 0.166890 0.890744 0.398377
O O8 0.000000 0.886619 0.500000
O O9 0.000000 0.000000 0.436842
O O10 0.222304 0.500000 0.659246
O O11 0.218038 0.626907 0.707532
O O12 0.000000 0.594574 0.627196
O O13 0.250000 0.750000 0.761990
O O14 0.000000 0.842805 0.759854
#
# Coordination Sequence:
#
# PCOD9490268 Si02
#       5
#     8  16   8  16  16
#     4   7  10  20  39  66  95 125 168 222 274 326
#     4   8  14  25  45  70  97 131 175 226 277 329
#     4   9  18  34  58  88 118 145 176 218 265 315
#     4  10  20  35  57  85 113 144 182 222 269 322
#     4  11  21  33  49  73 105 144 184 229 276 326
#
# _framework density 18.942246999999998
#
# number of rings (size 3 to 8) (size 9 to 14) (size 15 to 20)
#    0.000    2.750    1.250    3.000    0.000    1.500 
#    0.000    3.125    0.000    0.750    0.000    2.625 
#    0.000   14.000    0.000    0.000    0.000    0.000 
#
# Total GULP energy -178451.383497 kJ/mol
# GULP energy per Si atom -5576.605734 kJ/mol
# Density = 1.889913 g / cm^3
# Si number density = 18.942247 Si / 1000 Ang^3
#
#
#
# Elastic Constant Matrix: (Units=GPa)
#
#
# Indices 1 2 3 4 5 6 
#
# 1 71.4766 31.1644 58.3023 0.0000 0.0000 0.0000
# 2 31.1644 52.2197 64.2184 0.0000 0.0000 0.0000
# 3 58.3023 64.2184 203.3803 0.0000 0.0000 0.0000
# 4 0.0000 0.0000 0.0000 -11.6804 0.0000 0.0000
# 5 0.0000 0.0000 0.0000 0.0000 -4.0093 0.0000
# 6 0.0000 0.0000 0.0000 0.0000 0.0000 12.6746
#
#
#
# Elastic Compliance Matrix: (Units=1/GPa)
#
#
# Indices 1 2 3 4 5 6 
#
# 1 0.020133 -0.008039 -0.003233 0.000000 0.000000 0.000000
# 2 -0.008039 0.034517 -0.008594 0.000000 0.000000 0.000000
# 3 -0.003233 -0.008594 0.008557 0.000000 0.000000 0.000000
# 4 0.000000 0.000000 0.000000 -0.085613 0.000000 0.000000
# 5 0.000000 0.000000 0.000000 0.000000 -0.249421 0.000000
# 6 0.000000 0.000000 0.000000 0.000000 0.000000 0.078898
#
#
# Mechanical properties :
#
#
# Convention : Reuss Voigt Hill
#
# Bulk Modulus (GPa) = 42.60068 70.49409 56.54739
# Shear Modulus (GPa) = -34.39441 10.95642 -11.71900
#
# Velocity S-wave (km/s) = -4.26579 2.40763 -2.49001
# Velocity P-wave (km/s) = 1.31300 6.71006 4.65301
#
# Compressibility (1/GPa) = 0.02347380
#
# Stress axis : x y z
#
# Youngs Moduli (GPa) = 49.66994 28.97158 116.85898
#
# Poissons Ratio (x) = 0.23291 0.37780
# Poissons Ratio (y) = 0.39932 1.00430
# Poissons Ratio (z) = 0.16058 0.24899
#
# Static dielectric constant tensor:
#      x y z
#    x 1.694590 0.000000 0.000000 
#    y 0.000000 1.612180 0.000000 
#    z 0.000000 0.000000 1.656490 
# 
# From -- ./inp_files/66756.got.cif
#   From: 2010.05.17/outbox.cif.g08.bks.cpg/sg65_34_cif.got.tgz:66756.got - 2010.06.03 17:01:31.
