data_PCOD9490093
_publ_section_title
;
Structure prediction by ZEFSAII (Michael W. Deem and Ramdas Pophale) SiO2 
 PCOD9490093
Probable space group: C M M M
;
_chemical_formula_sum "Si O2"
_cell_formula_units_Z 112
_cell_length_a 24.852375
_cell_length_b 13.463003
_cell_length_c 16.564066
_cell_angle_alpha 90.000000
_cell_angle_beta 90.000000
_cell_angle_gamma 90.000000
_cell_volume 5542.131076
_symmetry_space_group_name_H-M "C M M M"
_symmetry_group_IT_number 65
_symmetry_cell_setting 'orthorhombic'
loop_
_space_group_symop_operation_xyz
x,y,z
-x,-y,z
x,-y,-z
-x,y,-z
-x,-y,-z
x,y,-z
-x,y,z
x,-y,z
1/2+x,1/2+y,z
1/2-x,1/2-y,z
1/2+x,1/2-y,-z
1/2-x,1/2+y,-z
1/2-x,1/2-y,-z
1/2+x,1/2+y,-z
1/2-x,1/2+y,z
1/2+x,1/2-y,z
loop_
_atom_site_type_symbol
_atom_site_label
_atom_site_fract_x
_atom_site_fract_y
_atom_site_fract_z
Si Si1 0.441349 0.689391 0.747403
Si Si2 0.330814 0.812445 0.587612
Si Si3 0.061458 0.614988 0.653557
Si Si4 0.329638 0.615970 0.323708
Si Si5 0.187745 0.277968 0.911997
Si Si6 0.280080 0.883951 0.245598
Si Si7 0.403015 0.384107 0.909173
O O1 0.500000 0.658436 0.714182
O O2 0.435379 0.806151 0.726983
O O3 0.389374 0.634650 0.710779
O O4 0.439640 0.664152 0.841281
O O5 0.308829 0.840180 0.500000
O O6 0.393138 0.845571 0.593064
O O7 0.324445 0.694770 0.603859
O O8 0.304811 0.862076 0.666429
O O9 0.072230 0.500000 0.674962
O O10 0.000000 0.620003 0.622498
O O11 0.322306 0.500000 0.343691
O O12 0.282995 0.645013 0.258671
O O13 0.250000 0.250000 0.916692
O O14 0.186275 0.337669 0.828103
O O15 0.151456 0.179905 0.907127
O O16 0.173822 0.326335 0.000000
O O17 0.279794 0.000000 0.230231
O O18 0.393217 0.500000 0.890781
O O19 0.424973 0.378104 0.000000
#
# Coordination Sequence:
#
# PCOD9490093 Si02
#       7
#    16  16  16  16  16  16  16
#     4  10  20  35  58  84 108 141 188 236 282 338
#     4  11  23  38  58  85 116 149 190 237 280 331
#     4   9  19  37  60  84 111 144 182 229 285 338
#     4  10  22  39  57  79 111 149 187 231 285 339
#     4  10  20  35  56  80 108 145 187 229 276 331
#     4  11  23  38  57  82 115 152 190 236 287 339
#     4  10  21  35  51  76 112 150 187 231 284 340
#
# _framework density 20.208834
#
# number of rings (size 3 to 8) (size 9 to 14) (size 15 to 20)
#    0.000    1.857    0.000    4.714    0.000    6.286 
#    0.000    4.286    0.000    2.143    0.000    6.000 
#    0.000    0.000    0.000    0.000    0.000    0.286 
#
# Total GULP energy -312271.251677 kJ/mol
# GULP energy per Si atom -5576.272351 kJ/mol
# Density = 2.016284 g / cm^3
# Si number density = 20.208834 Si / 1000 Ang^3
#
#
#
# Elastic Constant Matrix: (Units=GPa)
#
#
# Indices 1 2 3 4 5 6 
#
# 1 83.9013 18.5191 23.7445 0.0000 0.0000 0.0000
# 2 18.5191 86.3152 30.1469 0.0000 0.0000 0.0000
# 3 23.7445 30.1469 126.7921 0.0000 0.0000 0.0000
# 4 0.0000 0.0000 0.0000 4.3797 0.0000 0.0000
# 5 0.0000 0.0000 0.0000 0.0000 -25.9782 0.0000
# 6 0.0000 0.0000 0.0000 0.0000 0.0000 27.5234
#
#
#
# Elastic Compliance Matrix: (Units=1/GPa)
#
#
# Indices 1 2 3 4 5 6 
#
# 1 0.012926 -0.002103 -0.001921 0.000000 0.000000 0.000000
# 2 -0.002103 0.012977 -0.002692 0.000000 0.000000 0.000000
# 3 -0.001921 -0.002692 0.008887 0.000000 0.000000 0.000000
# 4 0.000000 0.000000 0.000000 0.228326 0.000000 0.000000
# 5 0.000000 0.000000 0.000000 0.000000 -0.038494 0.000000
# 6 0.000000 0.000000 0.000000 0.000000 0.000000 0.036333
#
#
# Mechanical properties :
#
#
# Convention : Reuss Voigt Hill
#
# Bulk Modulus (GPa) = 46.81717 49.09218 47.95468
# Shear Modulus (GPa) = 17.76169 16.15820 16.95994
#
# Velocity S-wave (km/s) = 2.96785 2.83072 2.90010
# Velocity P-wave (km/s) = 5.91280 5.91854 5.91567
#
# Compressibility (1/GPa) = 0.02135968
#
# Stress axis : x y z
#
# Youngs Moduli (GPa) = 77.36077 77.06144 112.52855
#
# Poissons Ratio (x) = 0.16202 0.21615
# Poissons Ratio (y) = 0.16265 0.30289
# Poissons Ratio (z) = 0.14860 0.20742
#
# Static dielectric constant tensor:
#      x y z
#    x 1.777810 0.000000 0.000000 
#    y 0.000000 1.708260 0.000000 
#    z 0.000000 0.000000 1.758570 
# 
# From -- ./inp_files/47047.got.cif
#   From: 2010.05.17/outbox.cif.g08.bks.cpg/sg65_24_cif.got.tgz:47047.got - 2010.06.03 17:01:31.
