data_PCOD9490942
_publ_section_title
;
Structure prediction by ZEFSAII (Michael W. Deem and Ramdas Pophale) SiO2 
 PCOD9490942
Probable space group: C M M M
;
_chemical_formula_sum "Si O2"
_cell_formula_units_Z 58
_cell_length_a 26.309386
_cell_length_b 15.130320
_cell_length_c 7.947253
_cell_angle_alpha 90.000000
_cell_angle_beta 90.000000
_cell_angle_gamma 90.000000
_cell_volume 3163.558465
_symmetry_space_group_name_H-M "C M M M"
_symmetry_group_IT_number 65
_symmetry_cell_setting 'orthorhombic'
loop_
_space_group_symop_operation_xyz
x,y,z
-x,-y,z
x,-y,-z
-x,y,-z
-x,-y,-z
x,y,-z
-x,y,z
x,-y,z
1/2+x,1/2+y,z
1/2-x,1/2-y,z
1/2+x,1/2-y,-z
1/2-x,1/2+y,-z
1/2-x,1/2-y,-z
1/2+x,1/2+y,-z
1/2-x,1/2+y,z
1/2+x,1/2-y,z
loop_
_atom_site_type_symbol
_atom_site_label
_atom_site_fract_x
_atom_site_fract_y
_atom_site_fract_z
Si Si1 0.203783 0.190657 0.303276
Si Si2 0.500000 0.150113 0.798045
Si Si3 0.232665 0.000000 0.803236
Si Si4 0.652081 0.000000 0.794094
Si Si5 0.611969 0.189602 0.199879
Si Si6 0.000000 0.500000 0.500000
O O1 0.213952 0.182952 0.500000
O O2 0.250000 0.250000 0.227854
O O3 0.151130 0.241345 0.276574
O O4 0.204827 0.090928 0.238254
O O5 0.447747 0.203765 0.775223
O O6 0.500000 0.076094 0.652850
O O7 0.500000 0.119419 0.000000
O O8 0.289970 0.000000 0.729840
O O9 0.241150 0.000000 0.000000
O O10 0.625004 0.909903 0.738495
O O11 0.650406 0.000000 0.000000
O O12 0.621827 0.190764 0.000000
#
# Coordination Sequence:
#
# PCOD9490942 Si02
#       6
#    16   8   8   8  16   2
#     4  11  23  37  55  85 120 152 192 245 300 355
#     4  10  23  39  57  89 124 160 210 254 294 361
#     4  11  21  36  57  82 111 151 199 238 287 350
#     4   9  17  29  53  82 112 151 192 233 281 346
#     4  10  20  38  59  82 117 159 200 244 290 348
#     4  12  22  36  64  86 124 174 198 248 312 360
#
# _framework density 18.333783
#
# number of rings (size 3 to 8) (size 9 to 14) (size 15 to 20)
#    0.000    1.655    2.759    2.276    1.931    3.310 
#    0.000    0.000    0.000    0.828    0.000    5.793 
#    0.000    0.000    0.000    0.000    0.000    0.000 
#
# Total GULP energy -161508.046972 kJ/mol
# GULP energy per Si atom -5569.242999 kJ/mol
# Density = 1.829205 g / cm^3
# Si number density = 18.333783 Si / 1000 Ang^3
#
#
#
# Elastic Constant Matrix: (Units=GPa)
#
#
# Indices 1 2 3 4 5 6 
#
# 1 103.9855 59.7560 6.9528 0.0000 0.0000 0.0000
# 2 59.7560 132.5109 12.7923 0.0000 0.0000 0.0000
# 3 6.9528 12.7923 46.1954 0.0000 0.0000 0.0000
# 4 0.0000 0.0000 0.0000 22.5990 0.0000 0.0000
# 5 0.0000 0.0000 0.0000 0.0000 12.9070 0.0000
# 6 0.0000 0.0000 0.0000 0.0000 0.0000 23.7700
#
#
#
# Elastic Compliance Matrix: (Units=1/GPa)
#
#
# Indices 1 2 3 4 5 6 
#
# 1 0.012986 -0.005823 -0.000342 0.000000 0.000000 0.000000
# 2 -0.005823 0.010365 -0.001994 0.000000 0.000000 0.000000
# 3 -0.000342 -0.001994 0.022251 0.000000 0.000000 0.000000
# 4 0.000000 0.000000 0.000000 0.044250 0.000000 0.000000
# 5 0.000000 0.000000 0.000000 0.000000 0.077478 0.000000
# 6 0.000000 0.000000 0.000000 0.000000 0.000000 0.042070
#
#
# Mechanical properties :
#
#
# Convention : Reuss Voigt Hill
#
# Bulk Modulus (GPa) = 34.14842 49.07711 41.61276
# Shear Modulus (GPa) = 21.23345 25.40124 23.31735
#
# Velocity S-wave (km/s) = 3.40687 3.72625 3.57013
# Velocity P-wave (km/s) = 5.84312 6.73350 6.30405
#
# Compressibility (1/GPa) = 0.02928394
#
# Stress axis : x y z
#
# Youngs Moduli (GPa) = 77.00735 96.47963 44.94226
#
# Poissons Ratio (x) = 0.56179 0.01537
# Poissons Ratio (y) = 0.44841 0.08961
# Poissons Ratio (z) = 0.02634 0.19236
#
# Static dielectric constant tensor:
#      x y z
#    x 1.640440 0.000000 0.000000 
#    y 0.000000 1.624430 0.000000 
#    z 0.000000 0.000000 1.667380 
# 
# From -- ./inp_files/6642.got.cif
#   From: 2010.05.17/outbox.cif.g08.bks.cpg/sg65_4_cif.got.tgz:6642.got - 2010.06.03 17:01:31.
