data_PCOD9490860
_publ_section_title
;
Structure prediction by ZEFSAII (Michael W. Deem and Ramdas Pophale) SiO2 
 PCOD9490860
Probable space group: C M M M
;
_chemical_formula_sum "Si O2"
_cell_formula_units_Z 64
_cell_length_a 16.210639
_cell_length_b 11.323577
_cell_length_c 19.218392
_cell_angle_alpha 90.000000
_cell_angle_beta 90.000000
_cell_angle_gamma 90.000000
_cell_volume 3527.774524
_symmetry_space_group_name_H-M "C M M M"
_symmetry_group_IT_number 65
_symmetry_cell_setting 'orthorhombic'
loop_
_space_group_symop_operation_xyz
x,y,z
-x,-y,z
x,-y,-z
-x,y,-z
-x,-y,-z
x,y,-z
-x,y,z
x,-y,z
1/2+x,1/2+y,z
1/2-x,1/2-y,z
1/2+x,1/2-y,-z
1/2-x,1/2+y,-z
1/2-x,1/2-y,-z
1/2+x,1/2+y,-z
1/2-x,1/2+y,z
1/2+x,1/2-y,z
loop_
_atom_site_type_symbol
_atom_site_label
_atom_site_fract_x
_atom_site_fract_y
_atom_site_fract_z
Si Si1 0.098632 0.000000 0.080533
Si Si2 0.500000 0.860108 0.922393
Si Si3 0.654723 0.260494 0.850908
Si Si4 0.690586 0.135565 0.420783
Si Si5 0.597609 0.136009 0.720685
O O1 0.127769 0.111726 0.124000
O O2 0.000000 0.000000 0.077710
O O3 0.128752 0.000000 0.000000
O O4 0.415262 0.821740 0.885884
O O5 0.500000 0.000000 0.925825
O O6 0.500000 0.806997 0.000000
O O7 0.750000 0.250000 0.872042
O O8 0.645612 0.227163 0.769774
O O9 0.657760 0.140789 0.500000
O O10 0.750000 0.250000 0.413509
O O11 0.624392 0.146161 0.359359
O O12 0.726619 0.000000 0.413449
O O13 0.500000 0.154709 0.728537
O O14 0.615959 0.000000 0.742529
#
# Coordination Sequence:
#
# PCOD9490860 Si02
#       5
#     8   8  16  16  16
#     4  11  24  44  64  85 122 162 200 256 314 371
#     4  11  24  43  65  89 120 157 199 252 311 374
#     4  12  25  41  64  91 121 159 205 254 309 372
#     4   9  18  34  57  88 122 158 200 247 300 360
#     4  10  20  37  61  86 119 158 201 255 305 354
#
# _framework density 18.141749000000001
#
# number of rings (size 3 to 8) (size 9 to 14) (size 15 to 20)
#    0.000    1.500    2.500    2.250    3.500    2.500 
#    2.250    2.500    0.000    0.000    0.000    3.500 
#    0.000    0.000    0.000    0.000    0.000    0.000 
#
# Total GULP energy -178319.696710 kJ/mol
# GULP energy per Si atom -5572.490522 kJ/mol
# Density = 1.810046 g / cm^3
# Si number density = 18.141749 Si / 1000 Ang^3
#
#
#
# Elastic Constant Matrix: (Units=GPa)
#
#
# Indices 1 2 3 4 5 6 
#
# 1 104.9570 44.3930 42.4353 0.0000 0.0000 0.0000
# 2 44.3930 122.1901 48.2866 0.0000 0.0000 0.0000
# 3 42.4353 48.2866 106.0000 0.0000 0.0000 0.0000
# 4 0.0000 0.0000 0.0000 45.3052 0.0000 0.0000
# 5 0.0000 0.0000 0.0000 0.0000 -13.2552 0.0000
# 6 0.0000 0.0000 0.0000 0.0000 0.0000 20.9113
#
#
#
# Elastic Compliance Matrix: (Units=1/GPa)
#
#
# Indices 1 2 3 4 5 6 
#
# 1 0.012240 -0.003062 -0.003505 0.000000 0.000000 0.000000
# 2 -0.003062 0.010746 -0.003670 0.000000 0.000000 0.000000
# 3 -0.003505 -0.003670 0.012509 0.000000 0.000000 0.000000
# 4 0.000000 0.000000 0.000000 0.022073 0.000000 0.000000
# 5 0.000000 0.000000 0.000000 0.000000 -0.075442 0.000000
# 6 0.000000 0.000000 0.000000 0.000000 0.000000 0.047821
#
#
# Mechanical properties :
#
#
# Convention : Reuss Voigt Hill
#
# Bulk Modulus (GPa) = 66.56942 67.04188 66.80565
# Shear Modulus (GPa) = 90.20753 23.79440 57.00097
#
# Velocity S-wave (km/s) = 7.05915 3.62551 5.61142
# Velocity P-wave (km/s) = 10.15952 7.38650 8.88190
#
# Compressibility (1/GPa) = 0.01502191
#
# Stress axis : x y z
#
# Youngs Moduli (GPa) = 81.69968 93.05366 79.94282
#
# Poissons Ratio (x) = 0.28490 0.28023
# Poissons Ratio (y) = 0.25014 0.29337
# Poissons Ratio (z) = 0.28639 0.34148
#
# Static dielectric constant tensor:
#      x y z
#    x 1.550730 0.000000 0.000000 
#    y 0.000000 1.592460 0.000000 
#    z 0.000000 0.000000 1.655810 
# 
# From -- ./inp_files/50890.got.cif
#   From: 2010.05.17/outbox.cif.g08.bks.cpg/sg65_26_cif.got.tgz:50890.got - 2010.06.03 17:01:31.
