data_PCOD9490444
_publ_section_title
;
Structure prediction by ZEFSAII (Michael W. Deem and Ramdas Pophale) SiO2 
 PCOD9490444
Probable space group: C M M M
;
_chemical_formula_sum "Si O2"
_cell_formula_units_Z 84
_cell_length_a 14.614228
_cell_length_b 24.856310
_cell_length_c 12.785020
_cell_angle_alpha 90.000000
_cell_angle_beta 90.000000
_cell_angle_gamma 90.000000
_cell_volume 4644.232433
_symmetry_space_group_name_H-M "C M M M"
_symmetry_group_IT_number 65
_symmetry_cell_setting 'orthorhombic'
loop_
_space_group_symop_operation_xyz
x,y,z
-x,-y,z
x,-y,-z
-x,y,-z
-x,-y,-z
x,y,-z
-x,y,z
x,-y,z
1/2+x,1/2+y,z
1/2-x,1/2-y,z
1/2+x,1/2-y,-z
1/2-x,1/2+y,-z
1/2-x,1/2-y,-z
1/2+x,1/2+y,-z
1/2-x,1/2+y,z
1/2+x,1/2-y,z
loop_
_atom_site_type_symbol
_atom_site_label
_atom_site_fract_x
_atom_site_fract_y
_atom_site_fract_z
Si Si1 0.500000 0.251343 0.500000
Si Si2 0.110130 0.000000 0.116645
Si Si3 0.109107 0.889935 0.764134
Si Si4 0.890599 0.220977 0.882189
Si Si5 0.283599 0.892949 0.624737
Si Si6 0.654541 0.775899 0.331176
Si Si7 0.106914 0.500000 0.627516
O O1 0.421505 0.248037 0.407244
O O2 0.131281 0.945604 0.177693
O O3 0.000000 0.000000 0.108011
O O4 0.149231 0.000000 0.000000
O O5 0.127011 0.839487 0.840287
O O6 0.181309 0.887156 0.670250
O O7 0.000000 0.889087 0.735980
O O8 0.858408 0.260249 0.790252
O O9 0.000000 0.226370 0.886923
O O10 0.854953 0.229103 0.000000
O O11 0.278241 0.894978 0.500000
O O12 0.339991 0.839934 0.655807
O O13 0.337091 0.946729 0.660332
O O14 0.750000 0.750000 0.364329
O O15 0.105474 0.500000 0.500000
O O16 0.000000 0.500000 0.660827
#
# Coordination Sequence:
#
# PCOD9490444 Si02
#       7
#     4   8  16  16  16  16   8
#     4  12  26  40  66  87 128 165 206 258 314 368
#     4   9  17  32  57  81 107 149 199 247 295 362
#     4  10  20  36  55  84 120 158 198 248 309 367
#     4  10  21  39  60  86 123 165 207 254 310 372
#     4  11  23  38  58  86 122 153 208 256 304 379
#     4  12  24  41  61  94 124 163 207 256 310 378
#     4   9  21  38  61  83 111 153 201 259 317 356
#
# _framework density 18.086950000000002
#
# number of rings (size 3 to 8) (size 9 to 14) (size 15 to 20)
#    0.000    1.524    3.810    1.429    1.333    3.048 
#    0.000    0.000    0.000    3.429    0.000    0.000 
#    0.000    6.095    0.000    0.000    0.000    0.000 
#
# Total GULP energy -233812.974329 kJ/mol
# GULP energy per Si atom -5566.975579 kJ/mol
# Density = 1.804578 g / cm^3
# Si number density = 18.086950 Si / 1000 Ang^3
#
#
#
# Elastic Constant Matrix: (Units=GPa)
#
#
# Indices 1 2 3 4 5 6 
#
# 1 107.4823 24.0117 53.6979 0.0000 0.0000 0.0000
# 2 24.0117 34.6616 33.1611 0.0000 0.0000 0.0000
# 3 53.6979 33.1611 123.1742 0.0000 0.0000 0.0000
# 4 0.0000 0.0000 0.0000 -33.6685 0.0000 0.0000
# 5 0.0000 0.0000 0.0000 0.0000 -203.9052 0.0000
# 6 0.0000 0.0000 0.0000 0.0000 0.0000 -29.9964
#
#
#
# Elastic Compliance Matrix: (Units=1/GPa)
#
#
# Indices 1 2 3 4 5 6 
#
# 1 0.012419 -0.004611 -0.004172 0.000000 0.000000 0.000000
# 2 -0.004611 0.040571 -0.008912 0.000000 0.000000 0.000000
# 3 -0.004172 -0.008912 0.012337 0.000000 0.000000 0.000000
# 4 0.000000 0.000000 0.000000 -0.029701 0.000000 0.000000
# 5 0.000000 0.000000 0.000000 0.000000 -0.004904 0.000000
# 6 0.000000 0.000000 0.000000 0.000000 0.000000 -0.033337
#
#
# Mechanical properties :
#
#
# Convention : Reuss Voigt Hill
#
# Bulk Modulus (GPa) = 33.40589 54.11771 43.76180
# Shear Modulus (GPa) = 116.94832 -43.21751 36.86540
#
# Velocity S-wave (km/s) = 8.04980 -4.89348 4.51958
# Velocity P-wave (km/s) = 10.24250 1.39371 7.17518
#
# Compressibility (1/GPa) = 0.02993484
#
# Stress axis : x y z
#
# Youngs Moduli (GPa) = 80.52490 24.64804 81.05704
#
# Poissons Ratio (x) = 0.11365 0.33821
# Poissons Ratio (y) = 0.37130 0.72242
# Poissons Ratio (z) = 0.33599 0.21967
#
# Static dielectric constant tensor:
#      x y z
#    x 1.695280 0.000000 0.000000 
#    y 0.000000 1.639050 0.000000 
#    z 0.000000 0.000000 1.623410 
# 
# From -- ./inp_files/24855.got.cif
#   From: 2010.05.17/outbox.cif.g08.bks.cpg/sg65_13_cif.got.tgz:24855.got - 2010.06.03 17:01:31.
