data_PCOD9490994
_publ_section_title
;
Structure prediction by ZEFSAII (Michael W. Deem and Ramdas Pophale) SiO2 
 PCOD9490994
Probable space group: C M M M
;
_chemical_formula_sum "Si O2"
_cell_formula_units_Z 88
_cell_length_a 7.494218
_cell_length_b 18.534184
_cell_length_c 34.469532
_cell_angle_alpha 90.000000
_cell_angle_beta 90.000000
_cell_angle_gamma 90.000000
_cell_volume 4787.790948
_symmetry_space_group_name_H-M "C M M M"
_symmetry_group_IT_number 65
_symmetry_cell_setting 'orthorhombic'
loop_
_space_group_symop_operation_xyz
x,y,z
-x,-y,z
x,-y,-z
-x,y,-z
-x,-y,-z
x,y,-z
-x,y,z
x,-y,z
1/2+x,1/2+y,z
1/2-x,1/2-y,z
1/2+x,1/2-y,-z
1/2-x,1/2+y,-z
1/2-x,1/2-y,-z
1/2+x,1/2+y,-z
1/2-x,1/2+y,z
1/2+x,1/2-y,z
loop_
_atom_site_type_symbol
_atom_site_label
_atom_site_fract_x
_atom_site_fract_y
_atom_site_fract_z
Si Si1 0.787891 0.834990 0.620648
Si Si2 0.716704 0.583108 0.456619
Si Si3 0.289927 0.665010 0.903926
Si Si4 0.000000 0.413761 0.672173
Si Si5 0.290031 0.665087 0.185930
Si Si6 0.000000 0.413844 0.954600
Si Si7 0.500000 0.085658 0.763788
O O1 0.750000 0.750000 0.623269
O O2 0.730638 0.865187 0.578363
O O3 0.672069 0.877986 0.652003
O O4 0.000000 0.847477 0.625326
O O5 0.776578 0.603886 0.500000
O O6 0.500000 0.583086 0.457283
O O7 0.771968 0.500000 0.449389
O O8 0.500000 0.652887 0.909468
O O9 0.250000 0.750000 0.909258
O O10 0.244722 0.647724 0.858989
O O11 0.170611 0.619409 0.932957
O O12 0.000000 0.398818 0.718017
O O13 0.000000 0.500000 0.666141
O O14 0.500000 0.652828 0.191460
O O15 0.250000 0.750000 0.191147
O O16 0.170691 0.620027 0.215162
O O17 0.000000 0.500000 0.951207
O O18 0.000000 0.394555 0.000000
O O19 0.500000 0.000000 0.768962
#
# Coordination Sequence:
#
# PCOD9490994 Si02
#       7
#    16  16  16   8  16   8   8
#     4  11  22  40  62  88 121 158 200 250 299 350
#     4   8  15  30  55  85 115 152 196 240 294 354
#     4  10  20  38  64  91 121 156 205 256 300 362
#     4  11  26  45  63  87 120 161 206 246 290 357
#     4  10  20  38  65  95 122 157 198 244 307 367
#     4  11  25  41  57  85 127 170 210 256 309 357
#     4  11  25  42  61  91 128 157 192 249 303 355
#
# _framework density 18.380084
#
# number of rings (size 3 to 8) (size 9 to 14) (size 15 to 20)
#    0.000    1.909    2.727    1.636    0.000    5.818 
#    0.000    5.000    0.000    1.636    0.000    0.000 
#    0.000    0.000    0.000    0.000    0.000    0.000 
#
# Total GULP energy -245796.007475 kJ/mol
# GULP energy per Si atom -5586.272897 kJ/mol
# Density = 1.833825 g / cm^3
# Si number density = 18.380084 Si / 1000 Ang^3
#
#
#
# Elastic Constant Matrix: (Units=GPa)
#
#
# Indices 1 2 3 4 5 6 
#
# 1 122.6340 57.3768 91.0063 0.0000 0.0000 0.0000
# 2 57.3768 102.3573 110.4163 0.0000 0.0000 0.0000
# 3 91.0063 110.4163 178.0465 0.0000 0.0000 0.0000
# 4 0.0000 0.0000 0.0000 47.4459 0.0000 0.0000
# 5 0.0000 0.0000 0.0000 0.0000 148.3494 0.0000
# 6 0.0000 0.0000 0.0000 0.0000 0.0000 0.9967
#
#
#
# Elastic Compliance Matrix: (Units=1/GPa)
#
#
# Indices 1 2 3 4 5 6 
#
# 1 0.013142 -0.000364 -0.006492 0.000000 0.000000 0.000000
# 2 -0.000364 0.029524 -0.018123 0.000000 0.000000 0.000000
# 3 -0.006492 -0.018123 0.020174 0.000000 0.000000 0.000000
# 4 0.000000 0.000000 0.000000 0.021077 0.000000 0.000000
# 5 0.000000 0.000000 0.000000 0.000000 0.006741 0.000000
# 6 0.000000 0.000000 0.000000 0.000000 0.000000 1.003270
#
#
# Mechanical properties :
#
#
# Convention : Reuss Voigt Hill
#
# Bulk Modulus (GPa) = 77.62839 102.29294 89.96066
# Shear Modulus (GPa) = 4.35472 48.97431 26.66451
#
# Velocity S-wave (km/s) = 1.54091 5.16751 3.81298
# Velocity P-wave (km/s) = 6.74482 9.55925 8.27260
#
# Compressibility (1/GPa) = 0.01288188
#
# Stress axis : x y z
#
# Youngs Moduli (GPa) = 76.09124 33.87057 49.56894
#
# Poissons Ratio (x) = 0.01233 0.32178
# Poissons Ratio (y) = 0.02771 0.89836
# Poissons Ratio (z) = 0.49395 0.61385
#
# Static dielectric constant tensor:
#      x y z
#    x 1.639810 0.000000 0.000000 
#    y 0.000000 1.599040 0.000000 
#    z 0.000000 0.000000 1.614590 
# 
# From -- ./inp_files/76728.got.cif
#   From: 2010.05.17/outbox.cif.g08.bks.cpg/sg65_39_cif.got.tgz:76728.got - 2010.06.03 17:01:31.
