data_PCOD9490144
_publ_section_title
;
Structure prediction by ZEFSAII (Michael W. Deem and Ramdas Pophale) SiO2 
 PCOD9490144
Probable space group: C M M M
;
_chemical_formula_sum "Si O2"
_cell_formula_units_Z 88
_cell_length_a 18.395626
_cell_length_b 29.954839
_cell_length_c 8.402823
_cell_angle_alpha 90.000000
_cell_angle_beta 90.000000
_cell_angle_gamma 90.000000
_cell_volume 4630.274907
_symmetry_space_group_name_H-M "C M M M"
_symmetry_group_IT_number 65
_symmetry_cell_setting 'orthorhombic'
loop_
_space_group_symop_operation_xyz
x,y,z
-x,-y,z
x,-y,-z
-x,y,-z
-x,-y,-z
x,y,-z
-x,y,z
x,-y,z
1/2+x,1/2+y,z
1/2-x,1/2-y,z
1/2+x,1/2-y,-z
1/2-x,1/2+y,-z
1/2-x,1/2-y,-z
1/2+x,1/2+y,-z
1/2-x,1/2+y,z
1/2+x,1/2-y,z
loop_
_atom_site_type_symbol
_atom_site_label
_atom_site_fract_x
_atom_site_fract_y
_atom_site_fract_z
Si Si1 0.341940 0.704510 0.693304
Si Si2 0.141225 0.398650 0.810336
Si Si3 0.211955 0.948273 0.192443
Si Si4 0.917308 0.113936 0.692780
Si Si5 0.500000 0.949489 0.690081
Si Si6 0.671885 0.802743 0.307968
O O1 0.344860 0.704781 0.500000
O O2 0.390295 0.663052 0.747811
O O3 0.360374 0.754968 0.745018
O O4 0.257526 0.696691 0.736387
O O5 0.216432 0.421337 0.751381
O O6 0.072120 0.424815 0.746663
O O7 0.137273 0.347184 0.759799
O O8 0.141930 0.401384 0.000000
O O9 0.140319 0.922553 0.249663
O O10 0.214046 0.000000 0.244448
O O11 0.212358 0.947950 0.000000
O O12 0.916234 0.114124 0.500000
O O13 0.000000 0.105385 0.744573
O O14 0.500000 0.950368 0.500000
O O15 0.500000 0.000000 0.752150
O O16 0.668295 0.804241 0.500000
#
# Coordination Sequence:
#
# PCOD9490144 Si02
#       6
#    16  16  16  16   8  16
#     4   8  15  30  53  81 112 147 188 233 280 328
#     4  11  22  38  60  86 117 149 184 232 289 344
#     4  10  22  39  58  80 108 147 190 229 281 345
#     4  10  20  35  56  82 113 148 190 238 285 332
#     4  11  25  43  63  87 113 147 191 235 284 345
#     4   9  16  31  57  83 110 148 192 233 275 332
#
# _framework density 19.005351000000001
#
# number of rings (size 3 to 8) (size 9 to 14) (size 15 to 20)
#    0.000    2.273    1.818    2.455    0.000    3.273 
#    1.636    4.545    0.000    0.000    0.000    0.000 
#    0.000    0.000    0.000    0.000    0.000    0.000 
#
# Total GULP energy -245546.296744 kJ/mol
# GULP energy per Si atom -5580.597653 kJ/mol
# Density = 1.896209 g / cm^3
# Si number density = 19.005351 Si / 1000 Ang^3
#
#
#
# Elastic Constant Matrix: (Units=GPa)
#
#
# Indices 1 2 3 4 5 6 
#
# 1 100.4955 61.1609 13.4210 0.0000 0.0000 0.0000
# 2 61.1609 163.8090 18.0766 0.0000 0.0000 0.0000
# 3 13.4210 18.0766 12.7635 0.0000 0.0000 0.0000
# 4 0.0000 0.0000 0.0000 -9.2994 0.0000 0.0000
# 5 0.0000 0.0000 0.0000 0.0000 20.7290 0.0000
# 6 0.0000 0.0000 0.0000 0.0000 0.0000 53.1435
#
#
#
# Elastic Compliance Matrix: (Units=1/GPa)
#
#
# Indices 1 2 3 4 5 6 
#
# 1 0.013601 -0.004148 -0.008426 0.000000 0.000000 0.000000
# 2 -0.004148 0.008501 -0.007677 0.000000 0.000000 0.000000
# 3 -0.008426 -0.007677 0.098082 0.000000 0.000000 0.000000
# 4 0.000000 0.000000 0.000000 -0.107533 0.000000 0.000000
# 5 0.000000 0.000000 0.000000 0.000000 0.048242 0.000000
# 6 0.000000 0.000000 0.000000 0.000000 0.000000 0.018817
#
#
# Mechanical properties :
#
#
# Convention : Reuss Voigt Hill
#
# Bulk Modulus (GPa) = 12.55024 51.37612 31.96318
# Shear Modulus (GPa) = 34.06635 25.20856 29.63745
#
# Velocity S-wave (km/s) = 4.23834 3.64592 3.95324
# Velocity P-wave (km/s) = 5.52894 6.69438 6.13938
#
# Compressibility (1/GPa) = 0.07967976
#
# Stress axis : x y z
#
# Youngs Moduli (GPa) = 73.52645 117.63772 10.19552
#
# Poissons Ratio (x) = 0.48798 0.08591
# Poissons Ratio (y) = 0.30500 0.07828
# Poissons Ratio (z) = 0.61955 0.90316
#
# Static dielectric constant tensor:
#      x y z
#    x 1.633280 0.000000 0.000000 
#    y 0.000000 1.662850 0.000000 
#    z 0.000000 0.000000 1.659110 
# 
# From -- ./inp_files/10123.got.cif
#   From: 2010.05.17/outbox.cif.g08.bks.cpg/sg65_6_cif.got.tgz:10123.got - 2010.06.03 17:01:31.
