data_PCOD9490260
_publ_section_title
;
Structure prediction by ZEFSAII (Michael W. Deem and Ramdas Pophale) SiO2 
 PCOD9490260
Probable space group: C M M M
;
_chemical_formula_sum "Si O2"
_cell_formula_units_Z 58
_cell_length_a 31.155655
_cell_length_b 8.063866
_cell_length_c 12.466177
_cell_angle_alpha 90.000000
_cell_angle_beta 90.000000
_cell_angle_gamma 90.000000
_cell_volume 3131.940316
_symmetry_space_group_name_H-M "C M M M"
_symmetry_group_IT_number 65
_symmetry_cell_setting 'orthorhombic'
loop_
_space_group_symop_operation_xyz
x,y,z
-x,-y,z
x,-y,-z
-x,y,-z
-x,-y,-z
x,y,-z
-x,y,z
x,-y,z
1/2+x,1/2+y,z
1/2-x,1/2-y,z
1/2+x,1/2-y,-z
1/2-x,1/2+y,-z
1/2-x,1/2-y,-z
1/2+x,1/2+y,-z
1/2-x,1/2+y,z
1/2+x,1/2-y,z
loop_
_atom_site_type_symbol
_atom_site_label
_atom_site_fract_x
_atom_site_fract_y
_atom_site_fract_z
Si Si1 0.500000 0.000000 0.000000
Si Si2 0.298273 0.698148 0.876312
Si Si3 0.385255 0.808237 0.799900
Si Si4 0.952023 0.200200 0.374382
Si Si5 0.065709 0.184792 0.000000
O O1 0.463700 0.848790 0.000000
O O2 0.300937 0.500000 0.876174
O O3 0.250000 0.750000 0.847770
O O4 0.334871 0.768353 0.798855
O O5 0.306026 0.756648 0.000000
O O6 0.413527 0.772286 0.694994
O O7 0.405277 0.698920 0.894472
O O8 0.390453 0.000000 0.827833
O O9 0.948730 0.244014 0.500000
O O10 0.000000 0.252838 0.335830
O O11 0.950704 0.000000 0.366959
O O12 0.045930 0.000000 0.000000
#
# Coordination Sequence:
#
# PCOD9490260 Si02
#       5
#     2  16  16  16   8
#     4  12  26  44  52  86 118 164 206 240 296 372
#     4  10  20  35  57  84 115 154 193 239 300 355
#     4  12  23  37  57  86 122 156 201 247 290 357
#     4   9  20  39  61  84 111 152 204 252 301 353
#     4  12  25  41  58  83 122 162 200 246 299 354
#
# _framework density 18.518872000000002
#
# number of rings (size 3 to 8) (size 9 to 14) (size 15 to 20)
#    0.000    1.379    2.759    4.345    1.931    2.207 
#    0.000    1.379    0.000    0.828    0.000    0.000 
#    0.000    0.000    0.000    0.000    0.000    0.000 
#
# Total GULP energy -161645.474819 kJ/mol
# GULP energy per Si atom -5573.981890 kJ/mol
# Density = 1.847672 g / cm^3
# Si number density = 18.518872 Si / 1000 Ang^3
#
#
#
# Elastic Constant Matrix: (Units=GPa)
#
#
# Indices 1 2 3 4 5 6 
#
# 1 171.2627 41.0723 59.6893 0.0000 0.0000 0.0000
# 2 41.0723 105.5064 19.1441 0.0000 0.0000 0.0000
# 3 59.6893 19.1441 55.8580 0.0000 0.0000 0.0000
# 4 0.0000 0.0000 0.0000 21.0151 0.0000 0.0000
# 5 0.0000 0.0000 0.0000 0.0000 7.5268 0.0000
# 6 0.0000 0.0000 0.0000 0.0000 0.0000 20.2965
#
#
#
# Elastic Compliance Matrix: (Units=1/GPa)
#
#
# Indices 1 2 3 4 5 6 
#
# 1 0.009691 -0.002019 -0.009664 0.000000 0.000000 0.000000
# 2 -0.002019 0.010527 -0.001450 0.000000 0.000000 0.000000
# 3 -0.009664 -0.001450 0.028727 0.000000 0.000000 0.000000
# 4 0.000000 0.000000 0.000000 0.047585 0.000000 0.000000
# 5 0.000000 0.000000 0.000000 0.000000 0.132859 0.000000
# 6 0.000000 0.000000 0.000000 0.000000 0.000000 0.049270
#
#
# Mechanical properties :
#
#
# Convention : Reuss Voigt Hill
#
# Bulk Modulus (GPa) = 44.09548 63.60427 53.84987
# Shear Modulus (GPa) = 16.00076 23.94911 19.97494
#
# Velocity S-wave (km/s) = 2.94262 3.60005 3.28781
# Velocity P-wave (km/s) = 5.95047 7.19032 6.59958
#
# Compressibility (1/GPa) = 0.02267806
#
# Stress axis : x y z
#
# Youngs Moduli (GPa) = 103.18420 94.99109 34.81099
#
# Poissons Ratio (x) = 0.19181 0.33642
# Poissons Ratio (y) = 0.20835 0.05049
# Poissons Ratio (z) = 0.99718 0.13777
#
# Static dielectric constant tensor:
#      x y z
#    x 1.660500 0.000000 0.000000 
#    y 0.000000 1.647840 0.000000 
#    z 0.000000 0.000000 1.619580 
# 
# From -- ./inp_files/33147.got.cif
#   From: 2010.05.17/outbox.cif.g08.bks.cpg/sg65_17_cif.got.tgz:33147.got - 2010.06.03 17:01:31.
