data_PCOD9490023
_publ_section_title
;
Structure prediction by ZEFSAII (Michael W. Deem and Ramdas Pophale) SiO2 
 PCOD9490023
Probable space group: C M M M
;
_chemical_formula_sum "Si O2"
_cell_formula_units_Z 88
_cell_length_a 13.833269
_cell_length_b 27.413793
_cell_length_c 11.321366
_cell_angle_alpha 90.000000
_cell_angle_beta 90.000000
_cell_angle_gamma 90.000000
_cell_volume 4293.315279
_symmetry_space_group_name_H-M "C M M M"
_symmetry_group_IT_number 65
_symmetry_cell_setting 'orthorhombic'
loop_
_space_group_symop_operation_xyz
x,y,z
-x,-y,z
x,-y,-z
-x,y,-z
-x,-y,-z
x,y,-z
-x,y,z
x,-y,z
1/2+x,1/2+y,z
1/2-x,1/2-y,z
1/2+x,1/2-y,-z
1/2-x,1/2+y,-z
1/2-x,1/2-y,-z
1/2+x,1/2+y,-z
1/2-x,1/2+y,z
1/2+x,1/2-y,z
loop_
_atom_site_type_symbol
_atom_site_label
_atom_site_fract_x
_atom_site_fract_y
_atom_site_fract_z
Si Si1 0.195923 0.057893 0.228244
Si Si2 0.500000 0.558839 0.631005
Si Si3 0.000000 0.723002 0.369192
Si Si4 0.895022 0.441070 0.634969
Si Si5 0.715041 0.806403 0.370312
Si Si6 0.500000 0.713513 0.870053
Si Si7 0.300160 0.655831 0.874461
O O1 0.100114 0.070282 0.304085
O O2 0.296011 0.068260 0.297245
O O3 0.193842 0.097425 0.125981
O O4 0.193056 0.000000 0.199139
O O5 0.500000 0.500000 0.622631
O O6 0.500000 0.580080 0.500000
O O7 0.901107 0.692891 0.367738
O O8 0.000000 0.755267 0.250319
O O9 0.000000 0.748932 0.500000
O O10 0.887948 0.423644 0.500000
O O11 0.899338 0.500000 0.630658
O O12 0.000000 0.424637 0.684053
O O13 0.747561 0.825906 0.500000
O O14 0.750000 0.750000 0.367975
O O15 0.751026 0.828976 0.248267
O O16 0.405381 0.680017 0.868783
O O17 0.500000 0.739546 0.000000
O O18 0.254598 0.672210 0.000000
#
# Coordination Sequence:
#
# PCOD9490023 Si02
#       7
#    16   8   8  16  16   8  16
#     4  10  20  35  55  79 115 161 208 254 300 350
#     4   9  17  30  51  82 117 153 197 254 313 362
#     4  10  20  39  65  93 123 153 187 237 300 366
#     4   8  14  27  49  75 102 137 185 240 295 349
#     4  10  21  39  65  94 123 152 191 242 302 367
#     4  10  21  37  60  89 121 158 200 243 292 354
#     4  11  24  40  59  88 124 161 206 251 296 356
#
# _framework density 20.496981000000002
#
# number of rings (size 3 to 8) (size 9 to 14) (size 15 to 20)
#    0.000    2.273    1.818    1.636    0.000    5.091 
#    1.636    0.909    0.000    3.273    0.000    2.545 
#    0.000    0.000    0.000    0.000    0.000    0.000 
#
# Total GULP energy -245110.676704 kJ/mol
# GULP energy per Si atom -5570.697198 kJ/mol
# Density = 2.045033 g / cm^3
# Si number density = 20.496981 Si / 1000 Ang^3
#
#
#
# Elastic Constant Matrix: (Units=GPa)
#
#
# Indices 1 2 3 4 5 6 
#
# 1 131.0732 11.8693 63.6681 0.0000 0.0000 0.0000
# 2 11.8693 46.4012 55.4361 0.0000 0.0000 0.0000
# 3 63.6681 55.4361 200.2256 0.0000 0.0000 0.0000
# 4 0.0000 0.0000 0.0000 -109.7197 0.0000 0.0000
# 5 0.0000 0.0000 0.0000 0.0000 13.9553 0.0000
# 6 0.0000 0.0000 0.0000 0.0000 0.0000 -15.5002
#
#
#
# Elastic Compliance Matrix: (Units=1/GPa)
#
#
# Indices 1 2 3 4 5 6 
#
# 1 0.009111 0.001689 -0.003365 0.000000 0.000000 0.000000
# 2 0.001689 0.032517 -0.009540 0.000000 0.000000 0.000000
# 3 -0.003365 -0.009540 0.008706 0.000000 0.000000 0.000000
# 4 0.000000 0.000000 0.000000 -0.009114 0.000000 0.000000
# 5 0.000000 0.000000 0.000000 0.000000 0.071657 0.000000
# 6 0.000000 0.000000 0.000000 0.000000 0.000000 -0.064515
#
#
# Mechanical properties :
#
#
# Convention : Reuss Voigt Hill
#
# Bulk Modulus (GPa) = 35.83937 71.07189 53.45563
# Shear Modulus (GPa) = 62.42771 -5.80450 28.31161
#
# Velocity S-wave (km/s) = 5.52478 -1.68464 3.72056
# Velocity P-wave (km/s) = 7.63025 5.56467 6.67781
#
# Compressibility (1/GPa) = 0.02790228
#
# Stress axis : x y z
#
# Youngs Moduli (GPa) = 109.76005 30.75353 114.86797
#
# Poissons Ratio (x) = -0.05196 0.38651
# Poissons Ratio (y) = -0.18544 1.09584
# Poissons Ratio (z) = 0.36932 0.29339
#
# Static dielectric constant tensor:
#      x y z
#    x 1.141760 0.000000 0.000000 
#    y 0.000000 1.761960 0.000000 
#    z 0.000000 0.000000 1.762980 
# 
# From -- ./inp_files/25181.got.cif
#   From: 2010.05.17/outbox.cif.g08.bks.cpg/sg65_13_cif.got.tgz:25181.got - 2010.06.03 17:01:31.
