data_PCOD9490366
_publ_section_title
;
Structure prediction by ZEFSAII (Michael W. Deem and Ramdas Pophale) SiO2 
 PCOD9490366
Probable space group: C M M M
;
_chemical_formula_sum "Si O2"
_cell_formula_units_Z 104
_cell_length_a 14.547996
_cell_length_b 18.678623
_cell_length_c 21.482064
_cell_angle_alpha 90.000000
_cell_angle_beta 90.000000
_cell_angle_gamma 90.000000
_cell_volume 5837.461586
_symmetry_space_group_name_H-M "C M M M"
_symmetry_group_IT_number 65
_symmetry_cell_setting 'orthorhombic'
loop_
_space_group_symop_operation_xyz
x,y,z
-x,-y,z
x,-y,-z
-x,y,-z
-x,-y,-z
x,y,-z
-x,y,z
x,-y,z
1/2+x,1/2+y,z
1/2-x,1/2-y,z
1/2+x,1/2-y,-z
1/2-x,1/2+y,-z
1/2-x,1/2-y,-z
1/2+x,1/2+y,-z
1/2-x,1/2+y,z
1/2+x,1/2-y,z
loop_
_atom_site_type_symbol
_atom_site_label
_atom_site_fract_x
_atom_site_fract_y
_atom_site_fract_z
Si Si1 0.605929 0.147403 0.073787
Si Si2 0.733353 0.421037 0.853939
Si Si3 0.608450 0.217810 0.294361
Si Si4 0.225704 0.578824 0.708223
Si Si5 0.891307 0.862430 0.634747
Si Si6 0.611275 0.582332 0.500000
Si Si7 0.108400 0.784434 0.839512
O O1 0.500000 0.125558 0.086553
O O2 0.680433 0.093568 0.101421
O O3 0.621264 0.222305 0.109664
O O4 0.616428 0.155893 0.000000
O O5 0.693548 0.500000 0.866172
O O6 0.768327 0.420165 0.782826
O O7 0.663169 0.355203 0.857838
O O8 0.500000 0.201551 0.288995
O O9 0.663630 0.146368 0.309819
O O10 0.621058 0.280149 0.344984
O O11 0.637446 0.252062 0.227672
O O12 0.192100 0.500000 0.688693
O O13 0.326794 0.591610 0.679899
O O14 0.862874 0.878769 0.563968
O O15 0.000000 0.879485 0.642323
O O16 0.643804 0.500000 0.500000
O O17 0.500000 0.580443 0.500000
O O18 0.000000 0.800587 0.834457
#
# Coordination Sequence:
#
# PCOD9490366 Si02
#       7
#    16  16  16  16  16   8  16
#     4  10  22  40  62  85 109 146 197 243 285 337
#     4  11  23  35  54  84 116 150 186 232 289 345
#     4  10  20  36  57  80 110 151 194 237 279 333
#     4  11  22  34  53  83 117 151 189 235 286 341
#     4  10  20  35  59  87 115 154 193 230 283 338
#     4   9  18  34  55  84 124 158 189 235 284 334
#     4  10  20  37  59  81 111 148 189 235 281 339
#
# _framework density 17.815964000000001
#
# number of rings (size 3 to 8) (size 9 to 14) (size 15 to 20)
#    0.000    1.769    3.077    1.385    0.000    3.385 
#    0.000    5.385    0.000    0.000    0.000    3.231 
#    0.000    4.923    0.000    0.000    0.000    0.000 
#
# Total GULP energy -290232.699126 kJ/mol
# GULP energy per Si atom -5581.398060 kJ/mol
# Density = 1.777541 g / cm^3
# Si number density = 17.815964 Si / 1000 Ang^3
#
#
#
# Elastic Constant Matrix: (Units=GPa)
#
#
# Indices 1 2 3 4 5 6 
#
# 1 64.7769 55.5420 33.0185 0.0000 0.0000 0.0000
# 2 55.5420 106.6886 42.0298 0.0000 0.0000 0.0000
# 3 33.0185 42.0298 102.6063 0.0000 0.0000 0.0000
# 4 0.0000 0.0000 0.0000 107.3588 0.0000 0.0000
# 5 0.0000 0.0000 0.0000 0.0000 17.9752 0.0000
# 6 0.0000 0.0000 0.0000 0.0000 0.0000 13.9666
#
#
#
# Elastic Compliance Matrix: (Units=1/GPa)
#
#
# Indices 1 2 3 4 5 6 
#
# 1 0.029053 -0.013643 -0.003760 0.000000 0.000000 0.000000
# 2 -0.013643 0.017584 -0.002812 0.000000 0.000000 0.000000
# 3 -0.003760 -0.002812 0.012108 0.000000 0.000000 0.000000
# 4 0.000000 0.000000 0.000000 0.009315 0.000000 0.000000
# 5 0.000000 0.000000 0.000000 0.000000 0.055632 0.000000
# 6 0.000000 0.000000 0.000000 0.000000 0.000000 0.071599
#
#
# Mechanical properties :
#
#
# Convention : Reuss Voigt Hill
#
# Bulk Modulus (GPa) = 54.60826 59.47248 57.04037
# Shear Modulus (GPa) = 20.67595 37.42557 29.05076
#
# Velocity S-wave (km/s) = 3.41035 4.58829 4.04245
# Velocity P-wave (km/s) = 6.79891 7.84371 7.33993
#
# Compressibility (1/GPa) = 0.01831225
#
# Stress axis : x y z
#
# Youngs Moduli (GPa) = 34.42015 56.87090 82.58960
#
# Poissons Ratio (x) = 0.77591 0.31058
# Poissons Ratio (y) = 0.46961 0.23226
# Poissons Ratio (z) = 0.12944 0.15993
#
# Static dielectric constant tensor:
#      x y z
#    x 1.624470 0.000000 0.000000 
#    y 0.000000 1.609500 0.000000 
#    z 0.000000 0.000000 1.593660 
# 
# From -- ./inp_files/62841.got.cif
#   From: 2010.05.17/outbox.cif.g08.bks.cpg/sg65_32_cif.got.tgz:62841.got - 2010.06.03 17:01:31.
