data_PCOD9490964
_publ_section_title
;
Structure prediction by ZEFSAII (Michael W. Deem and Ramdas Pophale) SiO2 
 PCOD9490964
Probable space group: C M M M
;
_chemical_formula_sum "Si O2"
_cell_formula_units_Z 104
_cell_length_a 7.825082
_cell_length_b 29.680921
_cell_length_c 21.692023
_cell_angle_alpha 90.000000
_cell_angle_beta 90.000000
_cell_angle_gamma 90.000000
_cell_volume 5038.094699
_symmetry_space_group_name_H-M "C M M M"
_symmetry_group_IT_number 65
_symmetry_cell_setting 'orthorhombic'
loop_
_space_group_symop_operation_xyz
x,y,z
-x,-y,z
x,-y,-z
-x,y,-z
-x,-y,-z
x,y,-z
-x,y,z
x,-y,z
1/2+x,1/2+y,z
1/2-x,1/2-y,z
1/2+x,1/2-y,-z
1/2-x,1/2+y,-z
1/2-x,1/2-y,-z
1/2+x,1/2+y,-z
1/2-x,1/2+y,z
1/2+x,1/2-y,z
loop_
_atom_site_type_symbol
_atom_site_label
_atom_site_fract_x
_atom_site_fract_y
_atom_site_fract_z
Si Si1 0.200578 0.802630 0.738586
Si Si2 0.698905 0.451349 0.250160
Si Si3 0.798243 0.144739 0.381781
Si Si4 0.692178 0.124985 0.832925
Si Si5 0.208234 0.551085 0.927985
Si Si6 0.703096 0.198487 0.500000
Si Si7 0.301009 0.548318 0.601671
O O1 0.250000 0.750000 0.740080
O O2 0.273891 0.831451 0.680179
O O3 0.233179 0.829970 0.802094
O O4 0.000000 0.802704 0.728167
O O5 0.500000 0.445664 0.231961
O O6 0.762045 0.500000 0.228289
O O7 0.803883 0.410814 0.222976
O O8 0.699853 0.452496 0.323724
O O9 0.781222 0.178064 0.438251
O O10 0.722619 0.097491 0.407769
O O11 0.000000 0.134972 0.369331
O O12 0.500000 0.136119 0.852104
O O13 0.770987 0.093274 0.886884
O O14 0.267029 0.500000 0.911358
O O15 0.000000 0.550582 0.921973
O O16 0.248252 0.557697 0.000000
O O17 0.500000 0.191446 0.500000
O O18 0.750000 0.250000 0.500000
O O19 0.500000 0.548450 0.580579
O O20 0.226778 0.500000 0.580834
#
# Coordination Sequence:
#
# PCOD9490964 Si02
#       7
#    16  16  16  16  16   8  16
#     4  11  23  39  58  81 109 142 180 229 285 337
#     4   9  16  28  47  73 107 144 179 215 259 312
#     4  10  20  38  62  85 110 143 182 223 269 324
#     4  11  20  30  50  80 111 143 183 228 276 330
#     4   8  15  29  49  76 113 154 191 225 264 317
#     4  12  26  42  61  84 109 139 180 231 283 332
#     4   8  14  28  52  80 108 140 177 211 249 308
#
# _framework density 20.642724000000001
#
# number of rings (size 3 to 8) (size 9 to 14) (size 15 to 20)
#    0.000    2.308    1.538    3.923    0.000    3.385 
#    0.000    0.385    0.000    5.077    0.000    5.385 
#    0.000    0.000    0.000    0.000    0.000    0.000 
#
# Total GULP energy -289619.017256 kJ/mol
# GULP energy per Si atom -5569.596486 kJ/mol
# Density = 2.059574 g / cm^3
# Si number density = 20.642724 Si / 1000 Ang^3
#
#
#
# Elastic Constant Matrix: (Units=GPa)
#
#
# Indices 1 2 3 4 5 6 
#
# 1 27.2989 8.3198 -7.8564 0.0000 0.0000 0.0000
# 2 8.3198 198.1334 53.6239 0.0000 0.0000 0.0000
# 3 -7.8564 53.6239 87.7456 0.0000 0.0000 0.0000
# 4 0.0000 0.0000 0.0000 -1.6460 0.0000 0.0000
# 5 0.0000 0.0000 0.0000 0.0000 11.9207 0.0000
# 6 0.0000 0.0000 0.0000 0.0000 0.0000 11.5848
#
#
#
# Elastic Compliance Matrix: (Units=1/GPa)
#
#
# Indices 1 2 3 4 5 6 
#
# 1 0.039132 -0.003105 0.005401 0.000000 0.000000 0.000000
# 2 -0.003105 0.006294 -0.004124 0.000000 0.000000 0.000000
# 3 0.005401 -0.004124 0.014401 0.000000 0.000000 0.000000
# 4 0.000000 0.000000 0.000000 -0.607523 0.000000 0.000000
# 5 0.000000 0.000000 0.000000 0.000000 0.083888 0.000000
# 6 0.000000 0.000000 0.000000 0.000000 0.000000 0.086320
#
#
# Mechanical properties :
#
#
# Convention : Reuss Voigt Hill
#
# Bulk Modulus (GPa) = 17.80286 46.81694 32.30990
# Shear Modulus (GPa) = -14.08018 21.64459 3.78220
#
# Velocity S-wave (km/s) = -2.61452 3.24162 1.35506
# Velocity P-wave (km/s) = 0.68649 6.06133 4.25843
#
# Compressibility (1/GPa) = 0.05617074
#
# Stress axis : x y z
#
# Youngs Moduli (GPa) = 25.55433 158.88884 69.44117
#
# Poissons Ratio (x) = 0.49336 -0.37508
# Poissons Ratio (y) = 0.07935 0.28640
# Poissons Ratio (z) = -0.13803 0.65530
#
# Static dielectric constant tensor:
#      x y z
#    x 1.757430 0.000000 0.000000 
#    y 0.000000 1.798550 0.000000 
#    z 0.000000 0.000000 1.755450 
# 
# From -- ./inp_files/60362.got.cif
#   From: 2010.05.17/outbox.cif.g08.bks.cpg/sg65_31_cif.got.tgz:60362.got - 2010.06.03 17:01:31.
