data_PCOD9490472
_publ_section_title
;
Structure prediction by ZEFSAII (Michael W. Deem and Ramdas Pophale) SiO2 
 PCOD9490472
Probable space group: C M M M
;
_chemical_formula_sum "Si O2"
_cell_formula_units_Z 64
_cell_length_a 15.017290
_cell_length_b 8.514650
_cell_length_c 26.996210
_cell_angle_alpha 90.000000
_cell_angle_beta 90.000000
_cell_angle_gamma 90.000000
_cell_volume 3451.923528
_symmetry_space_group_name_H-M "C M M M"
_symmetry_group_IT_number 65
_symmetry_cell_setting 'orthorhombic'
loop_
_space_group_symop_operation_xyz
x,y,z
-x,-y,z
x,-y,-z
-x,y,-z
-x,-y,-z
x,y,-z
-x,y,z
x,-y,z
1/2+x,1/2+y,z
1/2-x,1/2-y,z
1/2+x,1/2-y,-z
1/2-x,1/2+y,-z
1/2-x,1/2-y,-z
1/2+x,1/2+y,-z
1/2-x,1/2+y,z
1/2+x,1/2-y,z
loop_
_atom_site_type_symbol
_atom_site_label
_atom_site_fract_x
_atom_site_fract_y
_atom_site_fract_z
Si Si1 0.000000 0.313408 0.573324
Si Si2 0.849269 0.310923 0.868338
Si Si3 0.000000 0.307748 0.056714
Si Si4 0.350418 0.810964 0.756372
Si Si5 0.851688 0.187671 0.500000
Si Si6 0.000000 0.814029 0.316183
O O1 0.911744 0.245473 0.546408
O O2 0.000000 0.268843 0.630699
O O3 0.000000 0.500000 0.566583
O O4 0.848165 0.500000 0.869160
O O5 0.750000 0.250000 0.875759
O O6 0.914820 0.256554 0.911415
O O7 0.878663 0.266031 0.812593
O O8 0.000000 0.500000 0.056081
O O9 0.000000 0.254682 0.000000
O O10 0.250000 0.750000 0.749968
O O11 0.415013 0.737857 0.715976
O O12 0.352861 0.000000 0.752739
O O13 0.750000 0.250000 0.500000
O O14 0.848940 0.000000 0.500000
O O15 0.000000 0.000000 0.323534
#
# Coordination Sequence:
#
# PCOD9490472 Si02
#       6
#     8  16   8  16   8   8
#     4  11  23  41  62  89 120 154 194 236 282 332
#     4   9  18  33  53  75 101 135 176 220 267 322
#     4   9  17  30  49  73 101 136 175 214 264 327
#     4  10  20  36  56  80 109 144 185 228 276 333
#     4  11  22  41  66  92 120 155 196 239 282 328
#     4  12  24  38  57  85 118 151 185 229 281 332
#
# _framework density 18.540389000000001
#
# number of rings (size 3 to 8) (size 9 to 14) (size 15 to 20)
#    0.000    1.875    0.000    5.625    0.000    4.500 
#    0.000    5.625    0.000    0.750    0.000    0.000 
#    0.000    0.000    0.000    0.000    0.000    0.000 
#
# Total GULP energy -178714.855305 kJ/mol
# GULP energy per Si atom -5584.839228 kJ/mol
# Density = 1.849819 g / cm^3
# Si number density = 18.540389 Si / 1000 Ang^3
#
#
#
# Elastic Constant Matrix: (Units=GPa)
#
#
# Indices 1 2 3 4 5 6 
#
# 1 133.8476 40.5551 97.0131 0.0000 0.0000 0.0000
# 2 40.5551 90.5159 38.9911 0.0000 0.0000 0.0000
# 3 97.0131 38.9911 173.4154 0.0000 0.0000 0.0000
# 4 0.0000 0.0000 0.0000 20.4639 0.0000 0.0000
# 5 0.0000 0.0000 0.0000 0.0000 44.0956 0.0000
# 6 0.0000 0.0000 0.0000 0.0000 0.0000 32.3645
#
#
#
# Elastic Compliance Matrix: (Units=1/GPa)
#
#
# Indices 1 2 3 4 5 6 
#
# 1 0.013284 -0.003046 -0.006747 0.000000 0.000000 0.000000
# 2 -0.003046 0.012931 -0.001204 0.000000 0.000000 0.000000
# 3 -0.006747 -0.001204 0.009811 0.000000 0.000000 0.000000
# 4 0.000000 0.000000 0.000000 0.048867 0.000000 0.000000
# 5 0.000000 0.000000 0.000000 0.000000 0.022678 0.000000
# 6 0.000000 0.000000 0.000000 0.000000 0.000000 0.030898
#
#
# Mechanical properties :
#
#
# Convention : Reuss Voigt Hill
#
# Bulk Modulus (GPa) = 71.25299 83.43305 77.34302
# Shear Modulus (GPa) = 30.27760 34.13276 32.20518
#
# Velocity S-wave (km/s) = 4.04550 4.29534 4.17229
# Velocity P-wave (km/s) = 7.76763 8.34855 8.06332
#
# Compressibility (1/GPa) = 0.01403450
#
# Stress axis : x y z
#
# Youngs Moduli (GPa) = 75.27885 77.33464 101.92274
#
# Poissons Ratio (x) = 0.23553 0.68763
# Poissons Ratio (y) = 0.22927 0.12268
# Poissons Ratio (z) = 0.50788 0.09308
#
# Static dielectric constant tensor:
#      x y z
#    x 1.626320 0.000000 0.000000 
#    y 0.000000 1.625900 0.000000 
#    z 0.000000 0.000000 1.629250 
# 
# From -- ./inp_files/66867.got.cif
#   From: 2010.05.17/outbox.cif.g08.bks.cpg/sg65_34_cif.got.tgz:66867.got - 2010.06.03 17:01:31.
