data_PCOD9490583
_publ_section_title
;
Structure prediction by ZEFSAII (Michael W. Deem and Ramdas Pophale) SiO2 
 PCOD9490583
Probable space group: C M M M
;
_chemical_formula_sum "Si O2"
_cell_formula_units_Z 104
_cell_length_a 33.656676
_cell_length_b 19.356145
_cell_length_c 9.079272
_cell_angle_alpha 90.000000
_cell_angle_beta 90.000000
_cell_angle_gamma 90.000000
_cell_volume 5914.814323
_symmetry_space_group_name_H-M "C M M M"
_symmetry_group_IT_number 65
_symmetry_cell_setting 'orthorhombic'
loop_
_space_group_symop_operation_xyz
x,y,z
-x,-y,z
x,-y,-z
-x,y,-z
-x,-y,-z
x,y,-z
-x,y,z
x,-y,z
1/2+x,1/2+y,z
1/2-x,1/2-y,z
1/2+x,1/2-y,-z
1/2-x,1/2+y,-z
1/2-x,1/2-y,-z
1/2+x,1/2+y,-z
1/2-x,1/2+y,z
1/2+x,1/2-y,z
loop_
_atom_site_type_symbol
_atom_site_label
_atom_site_fract_x
_atom_site_fract_y
_atom_site_fract_z
Si Si1 0.419756 0.579405 0.324150
Si Si2 0.118616 0.337729 0.822772
Si Si3 0.953878 0.581497 0.322951
Si Si4 0.855383 0.194267 0.322240
Si Si5 0.198728 0.420458 0.177157
Si Si6 0.500000 0.584033 0.831956
Si Si7 0.765385 0.171670 0.327651
O O1 0.425542 0.579075 0.500000
O O2 0.412191 0.500000 0.278032
O O3 0.383942 0.630137 0.289988
O O4 0.460035 0.605392 0.249470
O O5 0.078706 0.371651 0.757211
O O6 0.128191 0.262720 0.755493
O O7 0.156774 0.385175 0.782744
O O8 0.115906 0.334130 0.000000
O O9 0.949984 0.589300 0.500000
O O10 0.947379 0.500000 0.288715
O O11 0.000000 0.597779 0.284903
O O12 0.854541 0.205873 0.500000
O O13 0.810813 0.174605 0.274846
O O14 0.199567 0.500000 0.225807
O O15 0.235376 0.377869 0.242857
O O16 0.201378 0.418767 0.000000
O O17 0.500000 0.500000 0.828634
O O18 0.500000 0.606876 0.000000
O O19 0.765370 0.151673 0.500000
O O20 0.750000 0.250000 0.316827
#
# Coordination Sequence:
#
# PCOD9490583 Si02
#       7
#    16  16  16  16  16   8  16
#     4   9  18  34  56  80 106 140 182 224 270 327
#     4  11  22  36  56  82 115 151 188 229 273 326
#     4   9  19  37  60  84 111 146 187 231 280 331
#     4  10  21  37  57  81 111 146 185 228 278 333
#     4  10  22  38  56  82 114 148 187 228 273 329
#     4   9  17  31  53  79 107 137 170 217 270 319
#     4  10  20  36  58  82 109 142 184 232 277 324
#
# _framework density 17.582968000000001
#
# number of rings (size 3 to 8) (size 9 to 14) (size 15 to 20)
#    0.000    2.231    1.538    1.615    0.000    5.231 
#    1.385    2.308    0.000    1.846    0.000    0.000 
#    0.000    0.000    0.000    0.000    0.000    0.000 
#
# Total GULP energy -290140.466132 kJ/mol
# GULP energy per Si atom -5579.624349 kJ/mol
# Density = 1.754295 g / cm^3
# Si number density = 17.582968 Si / 1000 Ang^3
#
#
#
# Elastic Constant Matrix: (Units=GPa)
#
#
# Indices 1 2 3 4 5 6 
#
# 1 188.3910 83.2839 59.5861 0.0000 0.0000 0.0000
# 2 83.2839 101.0006 46.0440 0.0000 0.0000 0.0000
# 3 59.5861 46.0440 30.6551 0.0000 0.0000 0.0000
# 4 0.0000 0.0000 0.0000 21.5350 0.0000 0.0000
# 5 0.0000 0.0000 0.0000 0.0000 24.9272 0.0000
# 6 0.0000 0.0000 0.0000 0.0000 0.0000 24.6972
#
#
#
# Elastic Compliance Matrix: (Units=1/GPa)
#
#
# Indices 1 2 3 4 5 6 
#
# 1 0.014014 0.002735 -0.031348 0.000000 0.000000 0.000000
# 2 0.002735 0.031938 -0.053288 0.000000 0.000000 0.000000
# 3 -0.031348 -0.053288 0.173592 0.000000 0.000000 0.000000
# 4 0.000000 0.000000 0.000000 0.046436 0.000000 0.000000
# 5 0.000000 0.000000 0.000000 0.000000 0.040117 0.000000
# 6 0.000000 0.000000 0.000000 0.000000 0.000000 0.040490
#
#
# Mechanical properties :
#
#
# Convention : Reuss Voigt Hill
#
# Bulk Modulus (GPa) = 17.93944 77.54161 47.74053
# Shear Modulus (GPa) = 9.45235 22.97408 16.21321
#
# Velocity S-wave (km/s) = 2.32110 3.61863 3.03990
# Velocity P-wave (km/s) = 4.17232 7.85210 6.28744
#
# Compressibility (1/GPa) = 0.05574310
#
# Stress axis : x y z
#
# Youngs Moduli (GPa) = 71.35735 31.31028 5.76065
#
# Poissons Ratio (x) = -0.08563 0.18058
# Poissons Ratio (y) = -0.19516 0.30697
# Poissons Ratio (z) = 2.23689 1.66845
#
# Static dielectric constant tensor:
#      x y z
#    x 1.596450 0.000000 0.000000 
#    y 0.000000 1.577900 0.000000 
#    z 0.000000 0.000000 1.592960 
# 
# From -- ./inp_files/18677.got.cif
#   From: 2010.05.17/outbox.cif.g08.bks.cpg/sg65_10_cif.got.tgz:18677.got - 2010.06.03 17:01:31.
