data_PCOD9490339
_publ_section_title
;
Structure prediction by ZEFSAII (Michael W. Deem and Ramdas Pophale) SiO2 
 PCOD9490339
Probable space group: C M M M
;
_chemical_formula_sum "Si O2"
_cell_formula_units_Z 64
_cell_length_a 18.006636
_cell_length_b 8.022802
_cell_length_c 23.230925
_cell_angle_alpha 90.000000
_cell_angle_beta 90.000000
_cell_angle_gamma 90.000000
_cell_volume 3356.024806
_symmetry_space_group_name_H-M "C M M M"
_symmetry_group_IT_number 65
_symmetry_cell_setting 'orthorhombic'
loop_
_space_group_symop_operation_xyz
x,y,z
-x,-y,z
x,-y,-z
-x,y,-z
-x,-y,-z
x,y,-z
-x,y,z
x,-y,z
1/2+x,1/2+y,z
1/2-x,1/2-y,z
1/2+x,1/2-y,-z
1/2-x,1/2+y,-z
1/2-x,1/2-y,-z
1/2+x,1/2+y,-z
1/2-x,1/2+y,z
1/2+x,1/2-y,z
loop_
_atom_site_type_symbol
_atom_site_label
_atom_site_fract_x
_atom_site_fract_y
_atom_site_fract_z
Si Si1 0.909389 0.500000 0.566157
Si Si2 0.589552 0.686893 0.643196
Si Si3 0.085289 0.801751 0.000000
Si Si4 0.664390 0.799443 0.760331
Si Si5 0.085268 0.700159 0.876860
O O1 0.884911 0.500000 0.500000
O O2 0.885750 0.665799 0.600452
O O3 0.000000 0.500000 0.565947
O O4 0.500000 0.693911 0.646190
O O5 0.610693 0.500000 0.624343
O O6 0.621669 0.722174 0.706284
O O7 0.118412 0.746656 0.060928
O O8 0.000000 0.733573 0.000000
O O9 0.082236 0.000000 0.000000
O O10 0.750000 0.750000 0.757505
O O11 0.629968 0.741755 0.821138
O O12 0.656932 0.000000 0.756882
O O13 0.082539 0.500000 0.874345
O O14 0.000000 0.763559 0.874268
#
# Coordination Sequence:
#
# PCOD9490339 Si02
#       5
#     8  16   8  16  16
#     4   9  18  34  58  88 120 149 182 228 275 325
#     4  10  20  35  58  87 116 149 188 229 277 331
#     4   9  17  29  48  75 104 133 169 223 278 327
#     4  11  22  36  54  79 110 147 186 233 282 334
#     4   9  18  33  54  76 102 138 180 224 275 335
#
# _framework density 19.070181000000002
#
# number of rings (size 3 to 8) (size 9 to 14) (size 15 to 20)
#    0.000    2.250    1.250    1.875    0.000    5.000 
#    0.000    5.625    0.000    0.750    0.000    0.000 
#    0.000    0.000    0.000    0.000    0.000    0.000 
#
# Total GULP energy -178539.892869 kJ/mol
# GULP energy per Si atom -5579.371652 kJ/mol
# Density = 1.902678 g / cm^3
# Si number density = 19.070181 Si / 1000 Ang^3
#
#
#
# Elastic Constant Matrix: (Units=GPa)
#
#
# Indices 1 2 3 4 5 6 
#
# 1 15.1748 25.0143 26.3346 0.0000 0.0000 0.0000
# 2 25.0143 108.8683 73.2729 0.0000 0.0000 0.0000
# 3 26.3346 73.2729 184.0981 0.0000 0.0000 0.0000
# 4 0.0000 0.0000 0.0000 7.4313 0.0000 0.0000
# 5 0.0000 0.0000 0.0000 0.0000 -9.1551 0.0000
# 6 0.0000 0.0000 0.0000 0.0000 0.0000 17.5448
#
#
#
# Elastic Compliance Matrix: (Units=1/GPa)
#
#
# Indices 1 2 3 4 5 6 
#
# 1 0.114182 -0.020819 -0.008047 0.000000 0.000000 0.000000
# 2 -0.020819 0.016342 -0.003526 0.000000 0.000000 0.000000
# 3 -0.008047 -0.003526 0.007986 0.000000 0.000000 0.000000
# 4 0.000000 0.000000 0.000000 0.134567 0.000000 0.000000
# 5 0.000000 0.000000 0.000000 0.000000 -0.109229 0.000000
# 6 0.000000 0.000000 0.000000 0.000000 0.000000 0.056997
#
#
# Mechanical properties :
#
#
# Convention : Reuss Voigt Hill
#
# Bulk Modulus (GPa) = 13.56379 61.93166 37.74772
# Shear Modulus (GPa) = 16.11830 15.39882 15.75856
#
# Velocity S-wave (km/s) = 2.91040 2.84470 2.87774
# Velocity P-wave (km/s) = 4.29208 6.58300 5.55688
#
# Compressibility (1/GPa) = 0.07372570
#
# Stress axis : x y z
#
# Youngs Moduli (GPa) = 8.75794 61.19075 125.21142
#
# Poissons Ratio (x) = 1.27395 1.00758
# Poissons Ratio (y) = 0.18233 0.44153
# Poissons Ratio (z) = 0.07048 0.21578
#
# Static dielectric constant tensor:
#      x y z
#    x 1.634980 0.000000 0.000000 
#    y 0.000000 1.676850 0.000000 
#    z 0.000000 0.000000 1.655030 
# 
# From -- ./inp_files/63265.got.cif
#   From: 2010.05.17/outbox.cif.g08.bks.cpg/sg65_32_cif.got.tgz:63265.got - 2010.06.03 17:01:31.
