data_PCOD9490858
_publ_section_title
;
Structure prediction by ZEFSAII (Michael W. Deem and Ramdas Pophale) SiO2 
 PCOD9490858
Probable space group: C M M M
;
_chemical_formula_sum "Si O2"
_cell_formula_units_Z 88
_cell_length_a 21.942939
_cell_length_b 8.183092
_cell_length_c 26.772582
_cell_angle_alpha 90.000000
_cell_angle_beta 90.000000
_cell_angle_gamma 90.000000
_cell_volume 4807.313968
_symmetry_space_group_name_H-M "C M M M"
_symmetry_group_IT_number 65
_symmetry_cell_setting 'orthorhombic'
loop_
_space_group_symop_operation_xyz
x,y,z
-x,-y,z
x,-y,-z
-x,y,-z
-x,-y,-z
x,y,-z
-x,y,z
x,-y,z
1/2+x,1/2+y,z
1/2-x,1/2-y,z
1/2+x,1/2-y,-z
1/2-x,1/2+y,-z
1/2-x,1/2-y,-z
1/2+x,1/2+y,-z
1/2-x,1/2+y,z
1/2+x,1/2-y,z
loop_
_atom_site_type_symbol
_atom_site_label
_atom_site_fract_x
_atom_site_fract_y
_atom_site_fract_z
Si Si1 0.126224 0.192679 0.896948
Si Si2 0.930368 0.193327 0.271913
Si Si3 0.318614 0.804098 0.000000
Si Si4 0.000000 0.199631 0.940855
Si Si5 0.819276 0.690049 0.204067
Si Si6 0.073232 0.680223 0.382590
Si Si7 0.574396 0.500000 0.558165
O O1 0.154635 0.224118 0.950669
O O2 0.057759 0.250610 0.908012
O O3 0.163450 0.281703 0.853867
O O4 0.125810 0.000000 0.884694
O O5 0.874934 0.227100 0.234324
O O6 0.918101 0.285751 0.323837
O O7 0.000000 0.236864 0.254559
O O8 0.931610 0.000000 0.282698
O O9 0.250000 0.750000 0.000000
O O10 0.327057 0.000000 0.000000
O O11 0.000000 0.000000 0.943374
O O12 0.000000 0.253312 0.000000
O O13 0.821029 0.500000 0.216205
O O14 0.750000 0.750000 0.213474
O O15 0.097123 0.500000 0.396154
O O16 0.095964 0.835200 0.414142
O O17 0.000000 0.676518 0.390074
O O18 0.500000 0.500000 0.561159
O O19 0.590748 0.500000 0.500000
#
# Coordination Sequence:
#
# PCOD9490858 Si02
#       7
#    16  16   8   8  16  16   8
#     4  11  22  40  62  84 111 145 182 226 282 343
#     4  10  20  37  61  86 114 155 199 242 298 359
#     4  12  24  39  58  81 105 140 180 224 275 345
#     4   9  18  36  62  88 110 140 178 218 270 335
#     4  12  26  43  60  85 118 152 191 245 298 351
#     4   9  16  28  47  73 108 152 200 247 295 350
#     4   9  16  26  42  70 112 158 200 245 298 354
#
# _framework density 18.305440999999998
#
# number of rings (size 3 to 8) (size 9 to 14) (size 15 to 20)
#    0.000    1.636    1.818    4.091    1.273    1.455 
#    0.000    3.636    0.000    0.000    0.000    0.000 
#    0.000    0.727    0.364    0.000    0.000    0.000 
#
# Total GULP energy -245369.733704 kJ/mol
# GULP energy per Si atom -5576.584857 kJ/mol
# Density = 1.826378 g / cm^3
# Si number density = 18.305441 Si / 1000 Ang^3
#
#
#
# Elastic Constant Matrix: (Units=GPa)
#
#
# Indices 1 2 3 4 5 6 
#
# 1 102.0356 15.3142 29.7512 0.0000 0.0000 0.0000
# 2 15.3142 87.9282 27.5809 0.0000 0.0000 0.0000
# 3 29.7512 27.5809 75.2607 0.0000 0.0000 0.0000
# 4 0.0000 0.0000 0.0000 -26.7619 0.0000 0.0000
# 5 0.0000 0.0000 0.0000 0.0000 -3.3591 0.0000
# 6 0.0000 0.0000 0.0000 0.0000 0.0000 15.0664
#
#
#
# Elastic Compliance Matrix: (Units=1/GPa)
#
#
# Indices 1 2 3 4 5 6 
#
# 1 0.011108 -0.000630 -0.004160 0.000000 0.000000 0.000000
# 2 -0.000630 0.012886 -0.004473 0.000000 0.000000 0.000000
# 3 -0.004160 -0.004473 0.016571 0.000000 0.000000 0.000000
# 4 0.000000 0.000000 0.000000 -0.037367 0.000000 0.000000
# 5 0.000000 0.000000 0.000000 0.000000 -0.297702 0.000000
# 6 0.000000 0.000000 0.000000 0.000000 0.000000 0.066373
#
#
# Mechanical properties :
#
#
# Convention : Reuss Voigt Hill
#
# Bulk Modulus (GPa) = 45.37576 45.61303 45.49440
# Shear Modulus (GPa) = -24.72088 9.82764 -7.44662
#
# Velocity S-wave (km/s) = -3.67886 2.31956 -2.01911
# Velocity P-wave (km/s) = 2.60704 5.66971 4.41261
#
# Compressibility (1/GPa) = 0.02203820
#
# Stress axis : x y z
#
# Youngs Moduli (GPa) = 90.02468 77.60506 60.34595
#
# Poissons Ratio (x) = 0.04886 0.25106
# Poissons Ratio (y) = 0.05669 0.26995
# Poissons Ratio (z) = 0.37453 0.34716
#
# Static dielectric constant tensor:
#      x y z
#    x 5.903530 0.000000 0.000000 
#    y 0.000000 1.664120 0.000000 
#    z 0.000000 0.000000 1.581840 
# 
# From -- ./inp_files/71089.got.cif
#   From: 2010.05.17/outbox.cif.g08.bks.cpg/sg65_36_cif.got.tgz:71089.got - 2010.06.03 17:01:31.
