data_PCOD9490812
_publ_section_title
;
Structure prediction by ZEFSAII (Michael W. Deem and Ramdas Pophale) SiO2 
 PCOD9490812
Probable space group: C M M M
;
_chemical_formula_sum "Si O2"
_cell_formula_units_Z 72
_cell_length_a 30.596412
_cell_length_b 15.431343
_cell_length_c 8.131165
_cell_angle_alpha 90.000000
_cell_angle_beta 90.000000
_cell_angle_gamma 90.000000
_cell_volume 3839.078557
_symmetry_space_group_name_H-M "C M M M"
_symmetry_group_IT_number 65
_symmetry_cell_setting 'orthorhombic'
loop_
_space_group_symop_operation_xyz
x,y,z
-x,-y,z
x,-y,-z
-x,y,-z
-x,-y,-z
x,y,-z
-x,y,z
x,-y,z
1/2+x,1/2+y,z
1/2-x,1/2-y,z
1/2+x,1/2-y,-z
1/2-x,1/2+y,-z
1/2-x,1/2-y,-z
1/2+x,1/2+y,-z
1/2-x,1/2+y,z
1/2+x,1/2-y,z
loop_
_atom_site_type_symbol
_atom_site_label
_atom_site_fract_x
_atom_site_fract_y
_atom_site_fract_z
Si Si1 0.051500 0.785207 0.809255
Si Si2 0.271687 0.500000 0.195263
Si Si3 0.671460 0.000000 0.201678
Si Si4 0.209416 0.808549 0.694082
Si Si5 0.947086 0.903393 0.500000
Si Si6 0.865532 0.681916 0.195679
O O1 0.063988 0.853993 0.668561
O O2 0.083850 0.705088 0.780683
O O3 0.000000 0.765186 0.791246
O O4 0.057949 0.814712 0.000000
O O5 0.221610 0.500000 0.257798
O O6 0.291955 0.407547 0.244687
O O7 0.270013 0.500000 0.000000
O O8 0.648290 0.912218 0.258126
O O9 0.670905 0.000000 0.000000
O O10 0.215957 0.814213 0.500000
O O11 0.250000 0.750000 0.763117
O O12 0.165442 0.755753 0.730488
O O13 0.000000 0.908205 0.500000
O O14 0.928830 0.000000 0.500000
O O15 0.857329 0.683203 0.000000
#
# Coordination Sequence:
#
# PCOD9490812 Si02
#       6
#    16   8   8  16   8  16
#     4   9  19  36  58  84 117 154 191 237 291 344
#     4  11  21  37  59  80 108 148 192 234 279 334
#     4   9  18  33  58  85 109 143 193 239 276 336
#     4  11  23  37  55  81 115 147 183 233 288 341
#     4   9  18  34  58  83 108 145 193 241 289 341
#     4  10  20  37  59  84 112 149 194 235 282 338
#
# _framework density 18.754501000000001
#
# number of rings (size 3 to 8) (size 9 to 14) (size 15 to 20)
#    0.000    2.111    2.222    1.000    1.556    1.333 
#    2.000    3.333    0.000    3.333    0.000    2.333 
#    0.000    0.000    0.000    0.000    0.000    0.000 
#
# Total GULP energy -200711.604700 kJ/mol
# GULP energy per Si atom -5575.322353 kJ/mol
# Density = 1.871181 g / cm^3
# Si number density = 18.754501 Si / 1000 Ang^3
#
#
#
# Elastic Constant Matrix: (Units=GPa)
#
#
# Indices 1 2 3 4 5 6 
#
# 1 70.4304 60.5259 27.8211 0.0000 0.0000 0.0000
# 2 60.5259 180.2883 47.4718 0.0000 0.0000 0.0000
# 3 27.8211 47.4718 50.4527 0.0000 0.0000 0.0000
# 4 0.0000 0.0000 0.0000 -0.6425 0.0000 0.0000
# 5 0.0000 0.0000 0.0000 0.0000 16.0441 0.0000
# 6 0.0000 0.0000 0.0000 0.0000 0.0000 12.9447
#
#
#
# Elastic Compliance Matrix: (Units=1/GPa)
#
#
# Indices 1 2 3 4 5 6 
#
# 1 0.021557 -0.005460 -0.006750 0.000000 0.000000 0.000000
# 2 -0.005460 0.008756 -0.005228 0.000000 0.000000 0.000000
# 3 -0.006750 -0.005228 0.028462 0.000000 0.000000 0.000000
# 4 0.000000 0.000000 0.000000 -1.556388 0.000000 0.000000
# 5 0.000000 0.000000 0.000000 0.000000 0.062328 0.000000
# 6 0.000000 0.000000 0.000000 0.000000 0.000000 0.077252
#
#
# Mechanical properties :
#
#
# Convention : Reuss Voigt Hill
#
# Bulk Modulus (GPa) = 41.84233 63.64544 52.74388
# Shear Modulus (GPa) = -3.80173 16.69275 6.44551
#
# Velocity S-wave (km/s) = -1.42531 2.98663 1.85587
# Velocity P-wave (km/s) = 4.43287 6.77518 5.72509
#
# Compressibility (1/GPa) = 0.02389924
#
# Stress axis : x y z
#
# Youngs Moduli (GPa) = 46.38961 114.20457 35.13450
#
# Poissons Ratio (x) = 0.62351 0.23715
# Poissons Ratio (y) = 0.25327 0.18369
# Poissons Ratio (z) = 0.31313 0.59710
#
# Static dielectric constant tensor:
#      x y z
#    x 1.647090 0.000000 0.000000 
#    y 0.000000 1.653790 0.000000 
#    z 0.000000 0.000000 1.654170 
# 
# From -- ./inp_files/7736.got.cif
#   From: 2010.05.17/outbox.cif.g08.bks.cpg/sg65_4_cif.got.tgz:7736.got - 2010.06.03 17:01:31.
