data_PCOD9490498
_publ_section_title
;
Structure prediction by ZEFSAII (Michael W. Deem and Ramdas Pophale) SiO2 
 PCOD9490498
Probable space group: C M M M
;
_chemical_formula_sum "Si O2"
_cell_formula_units_Z 80
_cell_length_a 8.207209
_cell_length_b 14.980777
_cell_length_c 29.260215
_cell_angle_alpha 90.000000
_cell_angle_beta 90.000000
_cell_angle_gamma 90.000000
_cell_volume 3597.554197
_symmetry_space_group_name_H-M "C M M M"
_symmetry_group_IT_number 65
_symmetry_cell_setting 'orthorhombic'
loop_
_space_group_symop_operation_xyz
x,y,z
-x,-y,z
x,-y,-z
-x,y,-z
-x,-y,-z
x,y,-z
-x,y,z
x,-y,z
1/2+x,1/2+y,z
1/2-x,1/2-y,z
1/2+x,1/2-y,-z
1/2-x,1/2+y,-z
1/2-x,1/2-y,-z
1/2+x,1/2+y,-z
1/2-x,1/2+y,z
1/2+x,1/2-y,z
loop_
_atom_site_type_symbol
_atom_site_label
_atom_site_fract_x
_atom_site_fract_y
_atom_site_fract_z
Si Si1 0.689352 0.391072 0.500000
Si Si2 0.000000 0.109833 0.760773
Si Si3 0.191019 0.150259 0.099464
Si Si4 0.182059 0.390778 0.598509
Si Si5 0.682552 0.893941 0.000000
Si Si6 0.500000 0.609001 0.345330
Si Si7 0.175954 0.601873 0.808391
O O1 0.687978 0.500000 0.500000
O O2 0.500000 0.362944 0.500000
O O3 0.779103 0.363783 0.453629
O O4 0.164112 0.142594 0.785451
O O5 0.000000 0.133596 0.707685
O O6 0.000000 0.000000 0.764590
O O7 0.250000 0.250000 0.107958
O O8 0.291253 0.097251 0.137351
O O9 0.000000 0.137252 0.107507
O O10 0.229292 0.130905 0.046763
O O11 0.181831 0.500000 0.599607
O O12 0.334397 0.361383 0.629416
O O13 0.000000 0.361628 0.612221
O O14 0.500000 0.853833 0.000000
O O15 0.669542 0.000000 0.000000
O O16 0.500000 0.500000 0.347593
O O17 0.167332 0.500000 0.791211
O O18 0.000000 0.644658 0.799713
#
# Coordination Sequence:
#
# PCOD9490498 Si02
#       7
#     8   8  16  16   8   8  16
#     4   9  13  19  29  40  61  97 138 185 239 293
#     4   9  18  32  49  69  93 125 164 210 263 311
#     4  12  24  39  59  84 114 144 179 220 264 310
#     4   9  15  21  30  45  68 100 140 189 244 297
#     4  11  24  41  60  85 117 151 184 214 254 314
#     4   9  16  25  36  53  77 104 143 196 251 301
#     4  10  20  36  57  79 104 136 175 216 262 318
#
# _framework density 22.237328999999999
#
# number of rings (size 3 to 8) (size 9 to 14) (size 15 to 20)
#    0.000    2.000    2.000    3.300    0.000    5.200 
#    0.000    4.000    0.000    0.000    0.000    0.000 
#    0.000    0.000    0.000    0.000    0.000    0.000 
#
# Total GULP energy -223467.684293 kJ/mol
# GULP energy per Si atom -5586.692107 kJ/mol
# Density = 2.218672 g / cm^3
# Si number density = 22.237329 Si / 1000 Ang^3
#
#
#
# Elastic Constant Matrix: (Units=GPa)
#
#
# Indices 1 2 3 4 5 6 
#
# 1 239.3591 8.9087 88.8552 0.0000 0.0000 0.0000
# 2 8.9087 39.3342 -4.5252 0.0000 0.0000 0.0000
# 3 88.8552 -4.5252 134.1270 0.0000 0.0000 0.0000
# 4 0.0000 0.0000 0.0000 -38.9415 0.0000 0.0000
# 5 0.0000 0.0000 0.0000 0.0000 13.6009 0.0000
# 6 0.0000 0.0000 0.0000 0.0000 0.0000 -8.2546
#
#
#
# Elastic Compliance Matrix: (Units=1/GPa)
#
#
# Indices 1 2 3 4 5 6 
#
# 1 0.005654 -0.001718 -0.003803 0.000000 0.000000 0.000000
# 2 -0.001718 0.026044 0.002017 0.000000 0.000000 0.000000
# 3 -0.003803 0.002017 0.010043 0.000000 0.000000 0.000000
# 4 0.000000 0.000000 0.000000 -0.025680 0.000000 0.000000
# 5 0.000000 0.000000 0.000000 0.000000 0.073525 0.000000
# 6 0.000000 0.000000 0.000000 0.000000 0.000000 -0.121144
#
#
# Mechanical properties :
#
#
# Convention : Reuss Voigt Hill
#
# Bulk Modulus (GPa) = 28.79178 66.58864 47.69021
# Shear Modulus (GPa) = -385.47741 14.58638 -185.44552
#
# Velocity S-wave (km/s) = -13.18041 2.56391 -9.14193
# Velocity P-wave (km/s) = 14.78700 6.22691 9.48370
#
# Compressibility (1/GPa) = 0.03473214
#
# Stress axis : x y z
#
# Youngs Moduli (GPa) = 176.87697 38.39611 99.56925
#
# Poissons Ratio (x) = 0.06597 0.37870
# Poissons Ratio (y) = 0.30388 -0.20081
# Poissons Ratio (z) = 0.67272 -0.07744
#
# Static dielectric constant tensor:
#      x y z
#    x 1.818660 0.000000 0.000000 
#    y 0.000000 1.844930 0.000000 
#    z 0.000000 0.000000 1.842460 
# 
# From -- ./inp_files/72975.got.cif
#   From: 2010.05.17/outbox.cif.g08.bks.cpg/sg65_37_cif.got.tgz:72975.got - 2010.06.03 17:01:31.
