data_PCOD9490929
_publ_section_title
;
Structure prediction by ZEFSAII (Michael W. Deem and Ramdas Pophale) SiO2 
 PCOD9490929
Probable space group: C M M M
;
_chemical_formula_sum "Si O2"
_cell_formula_units_Z 100
_cell_length_a 16.458139
_cell_length_b 21.225520
_cell_length_c 15.356153
_cell_angle_alpha 90.000000
_cell_angle_beta 90.000000
_cell_angle_gamma 90.000000
_cell_volume 5364.404216
_symmetry_space_group_name_H-M "C M M M"
_symmetry_group_IT_number 65
_symmetry_cell_setting 'orthorhombic'
loop_
_space_group_symop_operation_xyz
x,y,z
-x,-y,z
x,-y,-z
-x,y,-z
-x,-y,-z
x,y,-z
-x,y,z
x,-y,z
1/2+x,1/2+y,z
1/2-x,1/2-y,z
1/2+x,1/2-y,-z
1/2-x,1/2+y,-z
1/2-x,1/2-y,-z
1/2+x,1/2+y,-z
1/2-x,1/2+y,z
1/2+x,1/2-y,z
loop_
_atom_site_type_symbol
_atom_site_label
_atom_site_fract_x
_atom_site_fract_y
_atom_site_fract_z
Si Si1 0.593958 0.360177 0.599771
Si Si2 0.869937 0.610729 0.735004
Si Si3 0.335212 0.330428 0.901009
Si Si4 0.500000 0.000000 0.295372
Si Si5 0.361337 0.811646 0.900717
Si Si6 0.341367 0.775104 0.602963
Si Si7 0.317270 0.572940 0.245847
O O1 0.622267 0.367474 0.500000
O O2 0.500000 0.378099 0.605341
O O3 0.603518 0.286005 0.620399
O O4 0.646425 0.401380 0.664476
O O5 0.895666 0.643488 0.826301
O O6 0.862837 0.666104 0.663230
O O7 0.779552 0.583550 0.750207
O O8 0.929620 0.555574 0.707640
O O9 0.373650 0.262274 0.880571
O O10 0.236973 0.320854 0.899788
O O11 0.352978 0.383413 0.830738
O O12 0.357423 0.347381 0.000000
O O13 0.388559 0.824324 0.000000
O O14 0.346408 0.791012 0.500000
O O15 0.250000 0.750000 0.621293
O O16 0.335426 0.500000 0.232243
#
# Coordination Sequence:
#
# PCOD9490929 Si02
#       7
#    16  16  16   4  16  16  16
#     4  10  22  39  60  91 119 140 186 253 310 356
#     4  11  22  39  57  80 124 164 203 247 288 350
#     4   8  15  29  53  86 113 138 191 254 297 343
#     4  12  28  44  54  88 134 184 214 234 290 384
#     4   8  15  30  56  84 108 145 197 252 303 339
#     4  10  20  37  65  92 112 146 198 253 307 355
#     4  11  21  35  57  82 115 163 199 232 295 365
#
# _framework density 18.641400000000001
#
# number of rings (size 3 to 8) (size 9 to 14) (size 15 to 20)
#    0.000    2.240    2.400    1.920    3.360    0.960 
#    0.000    2.800    0.000    0.480    0.000    1.120 
#    0.000    0.000    0.000    0.000    0.000    0.000 
#
# Total GULP energy -278520.628127 kJ/mol
# GULP energy per Si atom -5570.412563 kJ/mol
# Density = 1.859897 g / cm^3
# Si number density = 18.641400 Si / 1000 Ang^3
#
#
#
# Elastic Constant Matrix: (Units=GPa)
#
#
# Indices 1 2 3 4 5 6 
#
# 1 37.6288 24.9105 22.1166 0.0000 0.0000 0.0000
# 2 24.9105 147.7689 89.1795 0.0000 0.0000 0.0000
# 3 22.1166 89.1795 93.1863 0.0000 0.0000 0.0000
# 4 0.0000 0.0000 0.0000 -0.1276 0.0000 0.0000
# 5 0.0000 0.0000 0.0000 0.0000 -25.1768 0.0000
# 6 0.0000 0.0000 0.0000 0.0000 0.0000 36.9784
#
#
#
# Elastic Compliance Matrix: (Units=1/GPa)
#
#
# Indices 1 2 3 4 5 6 
#
# 1 0.031099 -0.001866 -0.005596 0.000000 0.000000 0.000000
# 2 -0.001866 0.016131 -0.014995 0.000000 0.000000 0.000000
# 3 -0.005596 -0.014995 0.026409 0.000000 0.000000 0.000000
# 4 0.000000 0.000000 0.000000 -7.836111 0.000000 0.000000
# 5 0.000000 0.000000 0.000000 0.000000 -0.039719 0.000000
# 6 0.000000 0.000000 0.000000 0.000000 0.000000 0.027043
#
#
# Mechanical properties :
#
#
# Convention : Reuss Voigt Hill
#
# Bulk Modulus (GPa) = 34.80961 61.22191 48.01576
# Shear Modulus (GPa) = -0.64761 11.82664 5.58951
#
# Velocity S-wave (km/s) = -0.59005 2.52152 1.73348
# Velocity P-wave (km/s) = 4.27196 6.43355 5.46078
#
# Compressibility (1/GPa) = 0.02872770
#
# Stress axis : x y z
#
# Youngs Moduli (GPa) = 32.15506 61.99085 37.86519
#
# Poissons Ratio (x) = 0.11566 0.21188
# Poissons Ratio (y) = 0.05999 0.56779
# Poissons Ratio (z) = 0.17993 0.92955
#
# Static dielectric constant tensor:
#      x y z
#    x 1.689090 0.000000 0.000000 
#    y 0.000000 1.613350 0.000000 
#    z 0.000000 0.000000 1.649790 
# 
# From -- ./inp_files/42837.got.cif
#   From: 2010.05.17/outbox.cif.g08.bks.cpg/sg65_22_cif.got.tgz:42837.got - 2010.06.03 17:01:31.
