data_PCOD9490480
_publ_section_title
;
Structure prediction by ZEFSAII (Michael W. Deem and Ramdas Pophale) SiO2 
 PCOD9490480
Probable space group: C M M M
;
_chemical_formula_sum "Si O2"
_cell_formula_units_Z 112
_cell_length_a 14.428420
_cell_length_b 27.062098
_cell_length_c 14.510576
_cell_angle_alpha 90.000000
_cell_angle_beta 90.000000
_cell_angle_gamma 90.000000
_cell_volume 5665.847622
_symmetry_space_group_name_H-M "C M M M"
_symmetry_group_IT_number 65
_symmetry_cell_setting 'orthorhombic'
loop_
_space_group_symop_operation_xyz
x,y,z
-x,-y,z
x,-y,-z
-x,y,-z
-x,-y,-z
x,y,-z
-x,y,z
x,-y,z
1/2+x,1/2+y,z
1/2-x,1/2-y,z
1/2+x,1/2-y,-z
1/2-x,1/2+y,-z
1/2-x,1/2-y,-z
1/2+x,1/2+y,-z
1/2-x,1/2+y,z
1/2+x,1/2-y,z
loop_
_atom_site_type_symbol
_atom_site_label
_atom_site_fract_x
_atom_site_fract_y
_atom_site_fract_z
Si Si1 0.888277 0.643646 0.391974
Si Si2 0.107291 0.162192 0.404581
Si Si3 0.301687 0.056228 0.269403
Si Si4 0.399135 0.446387 0.652295
Si Si5 0.274321 0.125625 0.107986
Si Si6 0.611292 0.680053 0.199423
Si Si7 0.889856 0.294293 0.785027
O O1 0.860271 0.649095 0.500000
O O2 0.844603 0.594691 0.343737
O O3 0.866047 0.688756 0.320659
O O4 0.000000 0.638639 0.391801
O O5 0.148931 0.181352 0.500000
O O6 0.105911 0.102766 0.407093
O O7 0.146002 0.173069 0.304766
O O8 0.000000 0.179556 0.401798
O O9 0.191169 0.054823 0.285656
O O10 0.310062 0.079460 0.168291
O O11 0.336958 0.000000 0.279015
O O12 0.500000 0.443343 0.700406
O O13 0.396902 0.500000 0.604840
O O14 0.170692 0.143666 0.136287
O O15 0.337086 0.170337 0.145308
O O16 0.281115 0.117737 0.000000
O O17 0.500000 0.671073 0.194433
O O18 0.628823 0.738058 0.186054
O O19 0.000000 0.301606 0.792099
#
# Coordination Sequence:
#
# PCOD9490480 Si02
#       7
#    16  16  16  16  16  16  16
#     4   9  19  37  60  86 115 146 182 224 272 330
#     4   9  17  29  47  73 106 144 181 215 255 307
#     4  10  21  37  57  82 111 145 183 227 278 331
#     4   9  17  31  51  73 103 144 185 223 261 306
#     4  11  23  39  59  81 107 140 184 236 285 334
#     4  10  20  36  56  82 115 146 182 226 272 326
#     4   9  20  38  59  82 111 145 180 224 276 329
#
# _framework density 19.767562999999999
#
# number of rings (size 3 to 8) (size 9 to 14) (size 15 to 20)
#    0.000    2.429    1.429    0.429    0.000    4.000 
#    0.000    7.857    0.000    2.571    0.000    7.000 
#    0.000    0.000    0.000    0.000    0.000    0.000 
#
# Total GULP energy -311854.116755 kJ/mol
# GULP energy per Si atom -5568.823513 kJ/mol
# Density = 1.972257 g / cm^3
# Si number density = 19.767563 Si / 1000 Ang^3
#
#
#
# Elastic Constant Matrix: (Units=GPa)
#
#
# Indices 1 2 3 4 5 6 
#
# 1 49.5055 -1.7367 4.6503 0.0000 0.0000 0.0000
# 2 -1.7367 24.9043 -23.1618 0.0000 0.0000 0.0000
# 3 4.6503 -23.1618 92.8436 0.0000 0.0000 0.0000
# 4 0.0000 0.0000 0.0000 16.8858 0.0000 0.0000
# 5 0.0000 0.0000 0.0000 0.0000 28.7998 0.0000
# 6 0.0000 0.0000 0.0000 0.0000 0.0000 22.0064
#
#
#
# Elastic Compliance Matrix: (Units=1/GPa)
#
#
# Indices 1 2 3 4 5 6 
#
# 1 0.020302 0.000612 -0.000864 0.000000 0.000000 0.000000
# 2 0.000612 0.052303 0.013017 0.000000 0.000000 0.000000
# 3 -0.000864 0.013017 0.014062 0.000000 0.000000 0.000000
# 4 0.000000 0.000000 0.000000 0.059222 0.000000 0.000000
# 5 0.000000 0.000000 0.000000 0.000000 0.034722 0.000000
# 6 0.000000 0.000000 0.000000 0.000000 0.000000 0.045441
#
#
# Mechanical properties :
#
#
# Convention : Reuss Voigt Hill
#
# Bulk Modulus (GPa) = 8.91285 14.08411 11.49848
# Shear Modulus (GPa) = 21.01539 26.03850 23.52694
#
# Velocity S-wave (km/s) = 3.26410 3.63331 3.45364
# Velocity P-wave (km/s) = 4.32717 4.97409 4.66186
#
# Compressibility (1/GPa) = 0.11219752
#
# Stress axis : x y z
#
# Youngs Moduli (GPa) = 49.25517 19.11936 71.11584
#
# Poissons Ratio (x) = -0.01170 0.06146
# Poissons Ratio (y) = -0.03015 -0.92575
# Poissons Ratio (z) = 0.04257 -0.24889
#
# Static dielectric constant tensor:
#      x y z
#    x 1.750080 0.000000 0.000000 
#    y 0.000000 1.728840 0.000000 
#    z 0.000000 0.000000 1.697640 
# 
# From -- ./inp_files/41120.got.cif
#   From: 2010.05.17/outbox.cif.g08.bks.cpg/sg65_21_cif.got.tgz:41120.got - 2010.06.03 17:01:31.
