data_PCOD9490941
_publ_section_title
;
Structure prediction by ZEFSAII (Michael W. Deem and Ramdas Pophale) SiO2 
 PCOD9490941
Probable space group: C M M M
;
_chemical_formula_sum "Si O2"
_cell_formula_units_Z 88
_cell_length_a 29.382207
_cell_length_b 9.595126
_cell_length_c 17.641277
_cell_angle_alpha 90.000000
_cell_angle_beta 90.000000
_cell_angle_gamma 90.000000
_cell_volume 4973.534277
_symmetry_space_group_name_H-M "C M M M"
_symmetry_group_IT_number 65
_symmetry_cell_setting 'orthorhombic'
loop_
_space_group_symop_operation_xyz
x,y,z
-x,-y,z
x,-y,-z
-x,y,-z
-x,-y,-z
x,y,-z
-x,y,z
x,-y,z
1/2+x,1/2+y,z
1/2-x,1/2-y,z
1/2+x,1/2-y,-z
1/2-x,1/2+y,-z
1/2-x,1/2-y,-z
1/2+x,1/2+y,-z
1/2-x,1/2+y,z
1/2+x,1/2-y,z
loop_
_atom_site_type_symbol
_atom_site_label
_atom_site_fract_x
_atom_site_fract_y
_atom_site_fract_z
Si Si1 0.705965 0.835822 0.409249
Si Si2 0.894294 0.167868 0.088660
Si Si3 0.947142 0.663335 0.789453
Si Si4 0.895612 0.666310 0.632707
Si Si5 0.792353 0.159702 0.092394
Si Si6 0.445439 0.333727 0.500000
O O1 0.700237 0.813123 0.500000
O O2 0.750000 0.750000 0.383873
O O3 0.657914 0.798367 0.371417
O O4 0.714038 0.000000 0.397604
O O5 0.930043 0.242342 0.142035
O O6 0.842885 0.210562 0.112506
O O7 0.896558 0.000000 0.094809
O O8 0.900605 0.202802 0.000000
O O9 0.942489 0.500000 0.809563
O O10 0.916909 0.688868 0.715142
O O11 0.000000 0.689727 0.771700
O O12 0.899734 0.500000 0.614195
O O13 0.922955 0.758155 0.572248
O O14 0.750000 0.250000 0.119472
O O15 0.787310 0.000000 0.116946
O O16 0.791558 0.159596 0.000000
O O17 0.436349 0.500000 0.500000
O O18 0.500000 0.314035 0.500000
#
# Coordination Sequence:
#
# PCOD9490941 Si02
#       6
#    16  16  16  16  16   8
#     4   9  17  31  53  81 109 141 181 219 258 310
#     4   9  19  36  56  78 106 142 182 223 273 335
#     4  10  22  38  56  79 106 139 181 231 281 324
#     4  10  20  38  59  79 107 146 186 219 262 324
#     4   8  14  26  46  73 102 131 166 207 254 312
#     4  11  23  35  52  83 114 139 176 225 270 313
#
# _framework density 17.693655
#
# number of rings (size 3 to 8) (size 9 to 14) (size 15 to 20)
#    0.000    2.636    0.909    1.909    0.000    4.727 
#    0.000    4.545    0.000    4.364    0.000    0.000 
#    0.000    0.000    0.000    0.000    0.000    0.000 
#
# Total GULP energy -245368.333153 kJ/mol
# GULP energy per Si atom -5576.553026 kJ/mol
# Density = 1.765338 g / cm^3
# Si number density = 17.693655 Si / 1000 Ang^3
#
#
#
# Elastic Constant Matrix: (Units=GPa)
#
#
# Indices 1 2 3 4 5 6 
#
# 1 154.8512 65.1895 60.7838 0.0000 0.0000 0.0000
# 2 65.1895 48.5151 44.3645 0.0000 0.0000 0.0000
# 3 60.7838 44.3645 64.0468 0.0000 0.0000 0.0000
# 4 0.0000 0.0000 0.0000 15.5185 0.0000 0.0000
# 5 0.0000 0.0000 0.0000 0.0000 28.9042 0.0000
# 6 0.0000 0.0000 0.0000 0.0000 0.0000 36.5121
#
#
#
# Elastic Compliance Matrix: (Units=1/GPa)
#
#
# Indices 1 2 3 4 5 6 
#
# 1 0.014881 -0.019317 -0.000743 0.000000 0.000000 0.000000
# 2 -0.019317 0.081304 -0.037986 0.000000 0.000000 0.000000
# 3 -0.000743 -0.037986 0.042631 0.000000 0.000000 0.000000
# 4 0.000000 0.000000 0.000000 0.064439 0.000000 0.000000
# 5 0.000000 0.000000 0.000000 0.000000 0.034597 0.000000
# 6 0.000000 0.000000 0.000000 0.000000 0.000000 0.027388
#
#
# Mechanical properties :
#
#
# Convention : Reuss Voigt Hill
#
# Bulk Modulus (GPa) = 44.00306 67.56541 55.78423
# Shear Modulus (GPa) = 12.85657 22.65866 17.75762
#
# Velocity S-wave (km/s) = 2.69851 3.58244 3.17142
# Velocity P-wave (km/s) = 5.88495 7.44184 6.70871
#
# Compressibility (1/GPa) = 0.02272569
#
# Stress axis : x y z
#
# Youngs Moduli (GPa) = 67.19809 12.29948 23.45735
#
# Poissons Ratio (x) = 0.23759 0.01742
# Poissons Ratio (y) = 1.29807 0.89104
# Poissons Ratio (z) = 0.04989 0.46720
#
# Static dielectric constant tensor:
#      x y z
#    x 1.604750 0.000000 0.000000 
#    y 0.000000 1.590230 0.000000 
#    z 0.000000 0.000000 1.586900 
# 
# From -- ./inp_files/50364.got.cif
#   From: 2010.05.17/outbox.cif.g08.bks.cpg/sg65_26_cif.got.tgz:50364.got - 2010.06.03 17:01:31.
