data_PCOD9490399
_publ_section_title
;
Structure prediction by ZEFSAII (Michael W. Deem and Ramdas Pophale) SiO2 
 PCOD9490399
Probable space group: C M M M
;
_chemical_formula_sum "Si O2"
_cell_formula_units_Z 52
_cell_length_a 19.696441
_cell_length_b 13.904012
_cell_length_c 7.660053
_cell_angle_alpha 90.000000
_cell_angle_beta 90.000000
_cell_angle_gamma 90.000000
_cell_volume 2097.778683
_symmetry_space_group_name_H-M "C M M M"
_symmetry_group_IT_number 65
_symmetry_cell_setting 'orthorhombic'
loop_
_space_group_symop_operation_xyz
x,y,z
-x,-y,z
x,-y,-z
-x,y,-z
-x,-y,-z
x,y,-z
-x,y,z
x,-y,z
1/2+x,1/2+y,z
1/2-x,1/2-y,z
1/2+x,1/2-y,-z
1/2-x,1/2+y,-z
1/2-x,1/2-y,-z
1/2+x,1/2+y,-z
1/2-x,1/2+y,z
1/2+x,1/2-y,z
loop_
_atom_site_type_symbol
_atom_site_label
_atom_site_fract_x
_atom_site_fract_y
_atom_site_fract_z
Si Si1 0.500000 0.626435 0.500000
Si Si2 0.101024 0.184858 0.199467
Si Si3 0.396674 0.106204 0.699399
Si Si4 0.243721 0.890981 0.203177
O O1 0.558336 0.631106 0.345511
O O2 0.080460 0.297277 0.206568
O O3 0.180971 0.176691 0.246974
O O4 0.093410 0.149557 0.000000
O O5 0.420883 0.111997 0.500000
O O6 0.314635 0.111129 0.698494
O O7 0.414472 0.000000 0.770171
O O8 0.216780 0.000000 0.218280
O O9 0.261788 0.873770 0.000000
#
# Coordination Sequence:
#
# PCOD9490399 Si02
#       4
#     4  16  16  16
#     4  12  26  44  60  82 116 156 212 258 276 332
#     4  11  23  41  63  85 116 159 199 242 295 342
#     4  10  20  35  60  94 125 151 186 236 297 362
#     4   9  19  36  60  92 124 151 186 235 295 362
#
# _framework density 24.788125999999998
#
# number of rings (size 3 to 8) (size 9 to 14) (size 15 to 20)
#    0.000    1.846    1.538    2.308    2.154    5.538 
#    0.000    3.077    0.000    5.538    0.000    0.000 
#    0.000    0.000    0.000    0.000    0.000    0.000 
#
# Total GULP energy -144863.332816 kJ/mol
# GULP energy per Si atom -5571.666647 kJ/mol
# Density = 2.473171 g / cm^3
# Si number density = 24.788126 Si / 1000 Ang^3
#
#
#
# Elastic Constant Matrix: (Units=GPa)
#
#
# Indices 1 2 3 4 5 6 
#
# 1 127.5410 -1.7672 44.1064 0.0000 0.0000 0.0000
# 2 -1.7672 89.9471 -2.6456 0.0000 0.0000 0.0000
# 3 44.1064 -2.6456 113.8767 0.0000 0.0000 0.0000
# 4 0.0000 0.0000 0.0000-2284.7322 0.0000 0.0000
# 5 0.0000 0.0000 0.0000 0.0000 78.7702 0.0000
# 6 0.0000 0.0000 0.0000 0.0000 0.0000 -95.7904
#
#
#
# Elastic Compliance Matrix: (Units=1/GPa)
#
#
# Indices 1 2 3 4 5 6 
#
# 1 0.009054 0.000075 -0.003505 0.000000 0.000000 0.000000
# 2 0.000075 0.011126 0.000230 0.000000 0.000000 0.000000
# 3 -0.003505 0.000230 0.010144 0.000000 0.000000 0.000000
# 4 0.000000 0.000000 0.000000 -0.000438 0.000000 0.000000
# 5 0.000000 0.000000 0.000000 0.000000 0.012695 0.000000
# 6 0.000000 0.000000 0.000000 0.000000 0.000000 -0.010439
#
#
# Mechanical properties :
#
#
# Convention : Reuss Voigt Hill
#
# Bulk Modulus (GPa) = 41.80145 45.63911 43.72028
# Shear Modulus (GPa) = 107.48679 -440.90574 -166.70948
#
# Velocity S-wave (km/s) = 6.59214 -13.35125 -8.20974
# Velocity P-wave (km/s) = 8.65112 14.80618 8.49650
#
# Compressibility (1/GPa) = 0.02392262
#
# Stress axis : x y z
#
# Youngs Moduli (GPa) = 110.45168 89.88068 98.57776
#
# Poissons Ratio (x) = -0.00672 0.34551
# Poissons Ratio (y) = -0.00826 -0.02262
# Poissons Ratio (z) = 0.38712 -0.02063
#
# Static dielectric constant tensor:
#      x y z
#    x 1.939350 0.000000 0.000000 
#    y 0.000000 2.041050 0.000000 
#    z 0.000000 0.000000 1.881270 
# 
# From -- ./inp_files/6072.got.cif
#   From: 2010.05.17/outbox.cif.g08.bks.cpg/sg65_4_cif.got.tgz:6072.got - 2010.06.03 17:01:31.
