data_PCOD9490872
_publ_section_title
;
Structure prediction by ZEFSAII (Michael W. Deem and Ramdas Pophale) SiO2 
 PCOD9490872
Probable space group: C M M M
;
_chemical_formula_sum "Si O2"
_cell_formula_units_Z 80
_cell_length_a 18.834080
_cell_length_b 18.749947
_cell_length_c 12.516902
_cell_angle_alpha 90.000000
_cell_angle_beta 90.000000
_cell_angle_gamma 90.000000
_cell_volume 4420.193761
_symmetry_space_group_name_H-M "C M M M"
_symmetry_group_IT_number 65
_symmetry_cell_setting 'orthorhombic'
loop_
_space_group_symop_operation_xyz
x,y,z
-x,-y,z
x,-y,-z
-x,y,-z
-x,-y,-z
x,y,-z
-x,y,z
x,-y,z
1/2+x,1/2+y,z
1/2-x,1/2-y,z
1/2+x,1/2-y,-z
1/2-x,1/2+y,-z
1/2-x,1/2-y,-z
1/2+x,1/2+y,-z
1/2-x,1/2+y,z
1/2+x,1/2-y,z
loop_
_atom_site_type_symbol
_atom_site_label
_atom_site_fract_x
_atom_site_fract_y
_atom_site_fract_z
Si Si1 0.824821 0.085020 0.299476
Si Si2 0.080134 0.153999 0.125084
Si Si3 0.413546 0.917496 0.000000
Si Si4 0.299516 0.820149 0.373962
Si Si5 0.919622 0.913268 0.500000
Si Si6 0.582709 0.182658 0.195873
O O1 0.859381 0.115878 0.192769
O O2 0.748478 0.115684 0.329213
O O3 0.876939 0.109353 0.395561
O O4 0.823928 0.000000 0.296193
O O5 0.085599 0.238826 0.143403
O O6 0.000000 0.132107 0.160322
O O7 0.086393 0.138577 0.000000
O O8 0.392142 0.874375 0.106692
O O9 0.500000 0.916363 0.000000
O O10 0.390546 0.000000 0.000000
O O11 0.314572 0.828503 0.500000
O O12 0.250000 0.750000 0.361166
O O13 0.368859 0.815703 0.300672
O O14 0.000000 0.887042 0.500000
O O15 0.921214 0.000000 0.500000
O O16 0.500000 0.167724 0.220996
#
# Coordination Sequence:
#
# PCOD9490872 Si02
#       6
#    16  16   8  16   8  16
#     4  11  22  38  58  85 121 160 199 243 295 353
#     4  10  20  37  61  88 122 161 196 238 296 359
#     4   9  18  36  63  92 119 151 199 254 297 341
#     4  11  23  40  60  85 120 160 198 244 301 357
#     4   9  18  34  57  84 115 155 201 244 287 341
#     4  10  20  38  64  90 119 155 197 245 299 358
#
# _framework density 18.098752999999999
#
# number of rings (size 3 to 8) (size 9 to 14) (size 15 to 20)
#    0.000    1.800    4.000    0.600    0.000    2.800 
#    1.800    2.500    0.000    0.000    0.000    4.200 
#    0.000    0.000    0.000    0.000    0.000    0.000 
#
# Total GULP energy -223298.800596 kJ/mol
# GULP energy per Si atom -5582.470015 kJ/mol
# Density = 1.805756 g / cm^3
# Si number density = 18.098753 Si / 1000 Ang^3
#
#
#
# Elastic Constant Matrix: (Units=GPa)
#
#
# Indices 1 2 3 4 5 6 
#
# 1 71.4014 19.1205 60.8342 0.0000 0.0000 0.0000
# 2 19.1205 71.6802 35.6600 0.0000 0.0000 0.0000
# 3 60.8342 35.6600 129.1412 0.0000 0.0000 0.0000
# 4 0.0000 0.0000 0.0000 20.1118 0.0000 0.0000
# 5 0.0000 0.0000 0.0000 0.0000 142.6071 0.0000
# 6 0.0000 0.0000 0.0000 0.0000 0.0000 24.6775
#
#
#
# Elastic Compliance Matrix: (Units=1/GPa)
#
#
# Indices 1 2 3 4 5 6 
#
# 1 0.023443 -0.000880 -0.010800 0.000000 0.000000 0.000000
# 2 -0.000880 0.016206 -0.004060 0.000000 0.000000 0.000000
# 3 -0.010800 -0.004060 0.013952 0.000000 0.000000 0.000000
# 4 0.000000 0.000000 0.000000 0.049722 0.000000 0.000000
# 5 0.000000 0.000000 0.000000 0.000000 0.007012 0.000000
# 6 0.000000 0.000000 0.000000 0.000000 0.000000 0.040523
#
#
# Mechanical properties :
#
#
# Convention : Reuss Voigt Hill
#
# Bulk Modulus (GPa) = 45.20937 55.93914 50.57426
# Shear Modulus (GPa) = 26.35577 47.91981 37.13779
#
# Velocity S-wave (km/s) = 3.82019 5.15115 4.53476
# Velocity P-wave (km/s) = 6.67023 8.14579 7.44466
#
# Compressibility (1/GPa) = 0.02211931
#
# Stress axis : x y z
#
# Youngs Moduli (GPa) = 42.65715 61.70713 71.67372
#
# Poissons Ratio (x) = 0.05433 0.77408
# Poissons Ratio (y) = 0.03756 0.29100
# Poissons Ratio (z) = 0.46070 0.25054
#
# Static dielectric constant tensor:
#      x y z
#    x 1.619340 0.000000 0.000000 
#    y 0.000000 1.619620 0.000000 
#    z 0.000000 0.000000 1.603240 
# 
# From -- ./inp_files/28557.got.cif
#   From: 2010.05.17/outbox.cif.g08.bks.cpg/sg65_15_cif.got.tgz:28557.got - 2010.06.03 17:01:31.
