data_PCOD9490073
_publ_section_title
;
Structure prediction by ZEFSAII (Michael W. Deem and Ramdas Pophale) SiO2 
 PCOD9490073
Probable space group: C M M M
;
_chemical_formula_sum "Si O2"
_cell_formula_units_Z 88
_cell_length_a 24.470353
_cell_length_b 20.675440
_cell_length_c 9.084497
_cell_angle_alpha 90.000000
_cell_angle_beta 90.000000
_cell_angle_gamma 90.000000
_cell_volume 4596.167853
_symmetry_space_group_name_H-M "C M M M"
_symmetry_group_IT_number 65
_symmetry_cell_setting 'orthorhombic'
loop_
_space_group_symop_operation_xyz
x,y,z
-x,-y,z
x,-y,-z
-x,y,-z
-x,-y,-z
x,y,-z
-x,y,z
x,-y,z
1/2+x,1/2+y,z
1/2-x,1/2-y,z
1/2+x,1/2-y,-z
1/2-x,1/2+y,-z
1/2-x,1/2-y,-z
1/2+x,1/2+y,-z
1/2-x,1/2+y,z
1/2+x,1/2-y,z
loop_
_atom_site_type_symbol
_atom_site_label
_atom_site_fract_x
_atom_site_fract_y
_atom_site_fract_z
Si Si1 0.599706 0.839491 0.319655
Si Si2 0.000000 0.421934 0.821843
Si Si3 0.285327 0.572090 0.831763
Si Si4 0.724101 0.181807 0.324653
Si Si5 0.083461 0.930085 0.830650
Si Si6 0.563324 0.700613 0.662708
O O1 0.593761 0.843489 0.500000
O O2 0.554392 0.886956 0.247162
O O3 0.663862 0.844557 0.278730
O O4 0.588589 0.765234 0.271641
O O5 0.000000 0.500000 0.791921
O O6 0.000000 0.413568 0.000000
O O7 0.265389 0.500000 0.793949
O O8 0.265261 0.626095 0.722237
O O9 0.350821 0.570091 0.830938
O O10 0.268180 0.586804 0.000000
O O11 0.720067 0.188984 0.500000
O O12 0.750000 0.250000 0.267953
O O13 0.066625 0.866087 0.747711
O O14 0.065678 0.000000 0.768901
O O15 0.065428 0.926870 0.000000
O O16 0.587986 0.691178 0.500000
O O17 0.500000 0.716945 0.648632
#
# Coordination Sequence:
#
# PCOD9490073 Si02
#       6
#    16   8  16  16  16  16
#     4  10  21  40  62  84 115 153 191 234 291 355
#     4  11  25  43  63  89 118 151 198 253 303 352
#     4   9  19  36  55  76 108 148 185 223 272 330
#     4  10  21  36  58  88 118 149 189 237 288 346
#     4   9  19  35  53  76 109 149 188 224 269 326
#     4  10  20  35  56  79 105 140 183 229 276 328
#
# _framework density 19.146386
#
# number of rings (size 3 to 8) (size 9 to 14) (size 15 to 20)
#    0.000    2.273    0.909    2.455    0.000    6.909 
#    0.000    7.273    0.000    0.000    0.000    0.000 
#    0.000    0.000    0.000    0.000    0.000    0.000 
#
# Total GULP energy -245015.444523 kJ/mol
# GULP energy per Si atom -5568.532830 kJ/mol
# Density = 1.910281 g / cm^3
# Si number density = 19.146386 Si / 1000 Ang^3
#
#
#
# Elastic Constant Matrix: (Units=GPa)
#
#
# Indices 1 2 3 4 5 6 
#
# 1 90.0288 28.8213 17.5063 0.0000 0.0000 0.0000
# 2 28.8213 87.4489 17.5199 0.0000 0.0000 0.0000
# 3 17.5063 17.5199 17.7438 0.0000 0.0000 0.0000
# 4 0.0000 0.0000 0.0000 30.1791 0.0000 0.0000
# 5 0.0000 0.0000 0.0000 0.0000 22.0730 0.0000
# 6 0.0000 0.0000 0.0000 0.0000 0.0000 122.9206
#
#
#
# Elastic Compliance Matrix: (Units=1/GPa)
#
#
# Indices 1 2 3 4 5 6 
#
# 1 0.014112 -0.002321 -0.011632 0.000000 0.000000 0.000000
# 2 -0.002321 0.014637 -0.012162 0.000000 0.000000 0.000000
# 3 -0.011632 -0.012162 0.079843 0.000000 0.000000 0.000000
# 4 0.000000 0.000000 0.000000 0.033135 0.000000 0.000000
# 5 0.000000 0.000000 0.000000 0.000000 0.045304 0.000000
# 6 0.000000 0.000000 0.000000 0.000000 0.000000 0.008135
#
#
# Mechanical properties :
#
#
# Convention : Reuss Voigt Hill
#
# Bulk Modulus (GPa) = 17.74252 35.87962 26.81107
# Shear Modulus (GPa) = 18.78395 43.79282 31.28838
#
# Velocity S-wave (km/s) = 3.13560 4.78772 4.04687
# Velocity P-wave (km/s) = 4.73246 7.02448 5.98914
#
# Compressibility (1/GPa) = 0.05636178
#
# Stress axis : x y z
#
# Youngs Moduli (GPa) = 70.85983 68.32098 12.52459
#
# Poissons Ratio (x) = 0.15855 0.14569
# Poissons Ratio (y) = 0.16445 0.15233
# Poissons Ratio (z) = 0.82424 0.83095
#
# Static dielectric constant tensor:
#      x y z
#    x 1.714900 0.000000 0.000000 
#    y 0.000000 1.702350 0.000000 
#    z 0.000000 0.000000 1.679580 
# 
# From -- ./inp_files/11795.got.cif
#   From: 2010.05.17/outbox.cif.g08.bks.cpg/sg65_6_cif.got.tgz:11795.got - 2010.06.03 17:01:31.
