data_PCOD9490051
_publ_section_title
;
Structure prediction by ZEFSAII (Michael W. Deem and Ramdas Pophale) SiO2 
 PCOD9490051
Probable space group: C M M M
;
_chemical_formula_sum "Si O2"
_cell_formula_units_Z 88
_cell_length_a 22.546391
_cell_length_b 24.040675
_cell_length_c 8.070926
_cell_angle_alpha 90.000000
_cell_angle_beta 90.000000
_cell_angle_gamma 90.000000
_cell_volume 4374.687720
_symmetry_space_group_name_H-M "C M M M"
_symmetry_group_IT_number 65
_symmetry_cell_setting 'orthorhombic'
loop_
_space_group_symop_operation_xyz
x,y,z
-x,-y,z
x,-y,-z
-x,y,-z
-x,-y,-z
x,y,-z
-x,y,z
x,-y,z
1/2+x,1/2+y,z
1/2-x,1/2-y,z
1/2+x,1/2-y,-z
1/2-x,1/2+y,-z
1/2-x,1/2-y,-z
1/2+x,1/2+y,-z
1/2-x,1/2+y,z
1/2+x,1/2-y,z
loop_
_atom_site_type_symbol
_atom_site_label
_atom_site_fract_x
_atom_site_fract_y
_atom_site_fract_z
Si Si1 0.350505 0.604566 0.807857
Si Si2 0.069171 0.066996 0.500000
Si Si3 0.369609 0.279046 0.694630
Si Si4 0.500000 0.723168 0.810275
Si Si5 0.628624 0.153795 0.694249
Si Si6 0.220406 0.561212 0.198381
Si Si7 0.500000 0.857460 0.815617
O O1 0.397647 0.588158 0.666309
O O2 0.338403 0.670684 0.789242
O O3 0.289397 0.573086 0.768535
O O4 0.367855 0.592926 0.000000
O O5 0.000000 0.083784 0.500000
O O6 0.071888 0.000000 0.500000
O O7 0.353893 0.281723 0.500000
O O8 0.439760 0.291414 0.717509
O O9 0.361050 0.216405 0.764350
O O10 0.500000 0.790190 0.818854
O O11 0.500000 0.701697 0.000000
O O12 0.627674 0.163264 0.500000
O O13 0.679132 0.110343 0.737769
O O14 0.563731 0.129687 0.738392
O O15 0.203945 0.500000 0.263310
O O16 0.213920 0.560697 0.000000
O O17 0.500000 0.880236 0.000000
#
# Coordination Sequence:
#
# PCOD9490051 Si02
#       7
#    16   8  16   8  16  16   8
#     4  11  24  42  66  95 127 166 211 262 316 376
#     4  11  26  46  68  95 128 169 216 267 320 371
#     4  10  20  35  55  87 128 163 199 251 313 375
#     4   9  17  29  51  82 116 162 206 238 294 371
#     4  10  21  36  60  92 126 163 204 255 312 373
#     4  10  23  43  64  86 116 160 213 261 310 374
#     4   9  17  33  56  84 123 161 200 247 299 364
#
# _framework density 20.115722000000002
#
# number of rings (size 3 to 8) (size 9 to 14) (size 15 to 20)
#    0.000    1.909    0.909    2.182    2.545    6.909 
#    0.000    5.000    0.000    2.727    0.000    0.000 
#    0.000    0.000    0.000    0.000    0.000    0.000 
#
# Total GULP energy -245498.567908 kJ/mol
# GULP energy per Si atom -5579.512907 kJ/mol
# Density = 2.006994 g / cm^3
# Si number density = 20.115722 Si / 1000 Ang^3
#
#
#
# Elastic Constant Matrix: (Units=GPa)
#
#
# Indices 1 2 3 4 5 6 
#
# 1 61.2554 34.4820 43.8951 0.0000 0.0000 0.0000
# 2 34.4820 96.7850 24.2239 0.0000 0.0000 0.0000
# 3 43.8951 24.2239 80.1091 0.0000 0.0000 0.0000
# 4 0.0000 0.0000 0.0000 23.3011 0.0000 0.0000
# 5 0.0000 0.0000 0.0000 0.0000 33.9957 0.0000
# 6 0.0000 0.0000 0.0000 0.0000 0.0000 28.4631
#
#
#
# Elastic Compliance Matrix: (Units=1/GPa)
#
#
# Indices 1 2 3 4 5 6 
#
# 1 0.031080 -0.007368 -0.014802 0.000000 0.000000 0.000000
# 2 -0.007368 0.012925 0.000129 0.000000 0.000000 0.000000
# 3 -0.014802 0.000129 0.020554 0.000000 0.000000 0.000000
# 4 0.000000 0.000000 0.000000 0.042916 0.000000 0.000000
# 5 0.000000 0.000000 0.000000 0.000000 0.029416 0.000000
# 6 0.000000 0.000000 0.000000 0.000000 0.000000 0.035133
#
#
# Mechanical properties :
#
#
# Convention : Reuss Voigt Hill
#
# Bulk Modulus (GPa) = 48.83492 49.26128 49.04810
# Shear Modulus (GPa) = 22.42836 26.18854 24.30845
#
# Velocity S-wave (km/s) = 3.34273 3.61209 3.48002
# Velocity P-wave (km/s) = 6.26324 6.47598 6.37050
#
# Compressibility (1/GPa) = 0.02047715
#
# Stress axis : x y z
#
# Youngs Moduli (GPa) = 32.17539 77.36947 48.65118
#
# Poissons Ratio (x) = 0.57007 0.72012
# Poissons Ratio (y) = 0.23707 -0.00628
# Poissons Ratio (z) = 0.47625 -0.00998
#
# Static dielectric constant tensor:
#      x y z
#    x 1.657600 0.000000 0.000000 
#    y 0.000000 1.824000 0.000000 
#    z 0.000000 0.000000 1.717330 
# 
# From -- ./inp_files/11891.got.cif
#   From: 2010.05.17/outbox.cif.g08.bks.cpg/sg65_6_cif.got.tgz:11891.got - 2010.06.03 17:01:31.
