data_PCOD9490600
_publ_section_title
;
Structure prediction by ZEFSAII (Michael W. Deem and Ramdas Pophale) SiO2 
 PCOD9490600
Probable space group: C M M M
;
_chemical_formula_sum "Si O2"
_cell_formula_units_Z 88
_cell_length_a 14.220875
_cell_length_b 17.589668
_cell_length_c 18.038346
_cell_angle_alpha 90.000000
_cell_angle_beta 90.000000
_cell_angle_gamma 90.000000
_cell_volume 4512.120345
_symmetry_space_group_name_H-M "C M M M"
_symmetry_group_IT_number 65
_symmetry_cell_setting 'orthorhombic'
loop_
_space_group_symop_operation_xyz
x,y,z
-x,-y,z
x,-y,-z
-x,y,-z
-x,-y,-z
x,y,-z
-x,y,z
x,-y,z
1/2+x,1/2+y,z
1/2-x,1/2-y,z
1/2+x,1/2-y,-z
1/2-x,1/2+y,-z
1/2-x,1/2-y,-z
1/2+x,1/2+y,-z
1/2-x,1/2+y,z
1/2+x,1/2-y,z
loop_
_atom_site_type_symbol
_atom_site_label
_atom_site_fract_x
_atom_site_fract_y
_atom_site_fract_z
Si Si1 0.892386 0.183700 0.706474
Si Si2 0.395565 0.589366 0.859232
Si Si3 0.214793 0.663164 0.918143
Si Si4 0.610811 0.146052 0.234583
Si Si5 0.733542 0.087398 0.360314
Si Si6 0.893034 0.407820 0.500000
O O1 0.886413 0.135264 0.782546
O O2 0.871509 0.270106 0.730306
O O3 0.819778 0.144766 0.650920
O O4 0.000000 0.180384 0.679771
O O5 0.500000 0.606819 0.890253
O O6 0.391451 0.500000 0.843746
O O7 0.308900 0.613373 0.909582
O O8 0.250000 0.750000 0.911233
O O9 0.146504 0.646028 0.849750
O O10 0.172920 0.652751 0.000000
O O11 0.500000 0.130346 0.238823
O O12 0.672331 0.090842 0.285165
O O13 0.665304 0.112652 0.426885
O O14 0.764178 0.000000 0.373307
O O15 0.898667 0.500000 0.500000
O O16 0.000000 0.378515 0.500000
#
# Coordination Sequence:
#
# PCOD9490600 Si02
#       6
#    16  16  16  16  16   8
#     4  10  20  36  58  86 117 150 189 234 287 349
#     4  10  20  36  58  83 112 147 189 239 294 348
#     4  11  22  36  55  81 115 152 193 239 288 343
#     4  11  22  38  59  82 114 155 196 237 285 344
#     4  11  21  37  63  89 115 150 192 238 287 339
#     4   9  20  38  58  87 123 155 193 238 280 332
#
# _framework density 19.503025999999998
#
# number of rings (size 3 to 8) (size 9 to 14) (size 15 to 20)
#    0.000    1.545    3.636    1.636    0.000    3.273 
#    0.000    5.000    0.000    3.818    0.000    2.545 
#    0.000    0.000    0.000    0.000    0.000    0.000 
#
# Total GULP energy -245768.128378 kJ/mol
# GULP energy per Si atom -5585.639281 kJ/mol
# Density = 1.945864 g / cm^3
# Si number density = 19.503026 Si / 1000 Ang^3
#
#
#
# Elastic Constant Matrix: (Units=GPa)
#
#
# Indices 1 2 3 4 5 6 
#
# 1 105.9641 20.0204 34.5501 0.0000 0.0000 0.0000
# 2 20.0204 54.1945 0.2744 0.0000 0.0000 0.0000
# 3 34.5501 0.2744 89.6010 0.0000 0.0000 0.0000
# 4 0.0000 0.0000 0.0000 26.5940 0.0000 0.0000
# 5 0.0000 0.0000 0.0000 0.0000 25.8221 0.0000
# 6 0.0000 0.0000 0.0000 0.0000 0.0000 29.3327
#
#
#
# Elastic Compliance Matrix: (Units=1/GPa)
#
#
# Indices 1 2 3 4 5 6 
#
# 1 0.011720 -0.004307 -0.004506 0.000000 0.000000 0.000000
# 2 -0.004307 0.020035 0.001599 0.000000 0.000000 0.000000
# 3 -0.004506 0.001599 0.012893 0.000000 0.000000 0.000000
# 4 0.000000 0.000000 0.000000 0.037602 0.000000 0.000000
# 5 0.000000 0.000000 0.000000 0.000000 0.038727 0.000000
# 6 0.000000 0.000000 0.000000 0.000000 0.000000 0.034092
#
#
# Mechanical properties :
#
#
# Convention : Reuss Voigt Hill
#
# Bulk Modulus (GPa) = 33.08929 39.93881 36.51405
# Shear Modulus (GPa) = 27.84434 29.34407 28.59420
#
# Velocity S-wave (km/s) = 3.78258 3.88311 3.83318
# Velocity P-wave (km/s) = 6.00669 6.37397 6.19305
#
# Compressibility (1/GPa) = 0.03022126
#
# Stress axis : x y z
#
# Youngs Moduli (GPa) = 85.32353 49.91270 77.56009
#
# Poissons Ratio (x) = 0.21496 0.34949
# Poissons Ratio (y) = 0.36747 -0.12405
# Poissons Ratio (z) = 0.38447 -0.07983
#
# Static dielectric constant tensor:
#      x y z
#    x 1.694420 0.000000 0.000000 
#    y 0.000000 1.687880 0.000000 
#    z 0.000000 0.000000 1.673900 
# 
# From -- ./inp_files/53017.got.cif
#   From: 2010.05.17/outbox.cif.g08.bks.cpg/sg65_27_cif.got.tgz:53017.got - 2010.06.03 17:01:31.
