data_PCOD9490089
_publ_section_title
;
Structure prediction by ZEFSAII (Michael W. Deem and Ramdas Pophale) SiO2 
 PCOD9490089
Probable space group: C M M M
;
_chemical_formula_sum "Si O2"
_cell_formula_units_Z 104
_cell_length_a 22.325858
_cell_length_b 14.267498
_cell_length_c 17.619504
_cell_angle_alpha 90.000000
_cell_angle_beta 90.000000
_cell_angle_gamma 90.000000
_cell_volume 5612.413455
_symmetry_space_group_name_H-M "C M M M"
_symmetry_group_IT_number 65
_symmetry_cell_setting 'orthorhombic'
loop_
_space_group_symop_operation_xyz
x,y,z
-x,-y,z
x,-y,-z
-x,y,-z
-x,-y,-z
x,y,-z
-x,y,z
x,-y,z
1/2+x,1/2+y,z
1/2-x,1/2-y,z
1/2+x,1/2-y,-z
1/2-x,1/2+y,-z
1/2-x,1/2-y,-z
1/2+x,1/2+y,-z
1/2-x,1/2+y,z
1/2+x,1/2-y,z
loop_
_atom_site_type_symbol
_atom_site_label
_atom_site_fract_x
_atom_site_fract_y
_atom_site_fract_z
Si Si1 0.131618 0.788725 0.279719
Si Si2 0.313695 0.895261 0.331505
Si Si3 0.662791 0.110438 0.910688
Si Si4 0.194250 0.887265 0.415057
Si Si5 0.271490 0.605500 0.185708
Si Si6 0.068862 0.239070 0.139431
Si Si7 0.927380 0.105982 0.000000
O O1 0.138781 0.684938 0.314152
O O2 0.147733 0.853421 0.351333
O O3 0.182406 0.818646 0.217487
O O4 0.074329 0.797261 0.225975
O O5 0.262429 0.861975 0.390574
O O6 0.276549 0.902432 0.253561
O O7 0.335185 0.000000 0.351546
O O8 0.730942 0.132260 0.885697
O O9 0.613235 0.172942 0.869197
O O10 0.654357 0.000000 0.893500
O O11 0.655381 0.124801 0.000000
O O12 0.180963 0.853997 0.500000
O O13 0.193742 0.000000 0.414160
O O14 0.297896 0.500000 0.175926
O O15 0.088753 0.162929 0.076149
O O16 0.000000 0.263909 0.122472
O O17 0.000000 0.100672 0.000000
O O18 0.903617 0.000000 0.000000
#
# Coordination Sequence:
#
# PCOD9490089 Si02
#       7
#    16  16  16  16  16  16   8
#     4  11  20  32  55  77 106 147 177 215 271 318
#     4   9  17  28  46  73 106 140 168 200 250 314
#     4  10  20  35  56  80 108 139 174 224 280 328
#     4   9  18  32  52  82 112 133 165 216 271 329
#     4   9  17  31  50  76 105 132 168 211 265 329
#     4  11  23  37  54  78 105 140 191 232 262 312
#     4   9  20  40  57  68  93 133 180 240 282 299
#
# _framework density 18.530353000000002
#
# number of rings (size 3 to 8) (size 9 to 14) (size 15 to 20)
#    0.000    2.231    2.308    3.231    0.000    2.769 
#    1.385    1.538    0.000    0.462    0.000    1.077 
#    0.000    0.000    0.000    6.615    0.000    0.000 
#
# Total GULP energy -289678.652783 kJ/mol
# GULP energy per Si atom -5570.743323 kJ/mol
# Density = 1.848818 g / cm^3
# Si number density = 18.530353 Si / 1000 Ang^3
#
#
#
# Elastic Constant Matrix: (Units=GPa)
#
#
# Indices 1 2 3 4 5 6 
#
# 1 30.5847 20.7861 23.4404 0.0000 0.0000 0.0000
# 2 20.7861 84.4629 28.5009 0.0000 0.0000 0.0000
# 3 23.4404 28.5009 108.0523 0.0000 0.0000 0.0000
# 4 0.0000 0.0000 0.0000 24.7352 0.0000 0.0000
# 5 0.0000 0.0000 0.0000 0.0000 19.8839 0.0000
# 6 0.0000 0.0000 0.0000 0.0000 0.0000 11.2874
#
#
#
# Elastic Compliance Matrix: (Units=1/GPa)
#
#
# Indices 1 2 3 4 5 6 
#
# 1 0.043998 -0.008350 -0.007342 0.000000 0.000000 0.000000
# 2 -0.008350 0.014581 -0.002035 0.000000 0.000000 0.000000
# 3 -0.007342 -0.002035 0.011384 0.000000 0.000000 0.000000
# 4 0.000000 0.000000 0.000000 0.040428 0.000000 0.000000
# 5 0.000000 0.000000 0.000000 0.000000 0.050292 0.000000
# 6 0.000000 0.000000 0.000000 0.000000 0.000000 0.088594
#
#
# Mechanical properties :
#
#
# Convention : Reuss Voigt Hill
#
# Bulk Modulus (GPa) = 28.97767 40.95055 34.96411
# Shear Modulus (GPa) = 16.87847 21.20615 19.04231
#
# Velocity S-wave (km/s) = 3.02131 3.38657 3.20914
# Velocity P-wave (km/s) = 5.27665 6.11874 5.71323
#
# Compressibility (1/GPa) = 0.03450933
#
# Stress axis : x y z
#
# Youngs Moduli (GPa) = 22.72814 68.58222 87.84089
#
# Poissons Ratio (x) = 0.57268 0.64495
# Poissons Ratio (y) = 0.18979 0.17872
# Poissons Ratio (z) = 0.16688 0.13953
#
# Static dielectric constant tensor:
#      x y z
#    x 1.651630 0.000000 0.000000 
#    y 0.000000 1.696960 0.000000 
#    z 0.000000 0.000000 1.671830 
# 
# From -- ./inp_files/55901.got.cif
#   From: 2010.05.17/outbox.cif.g08.bks.cpg/sg65_28_cif.got.tgz:55901.got - 2010.06.03 17:01:31.
