data_PCOD9490490
_publ_section_title
;
Structure prediction by ZEFSAII (Michael W. Deem and Ramdas Pophale) SiO2 
 PCOD9490490
Probable space group: C M M M
;
_chemical_formula_sum "Si O2"
_cell_formula_units_Z 64
_cell_length_a 19.485366
_cell_length_b 7.971785
_cell_length_c 22.886129
_cell_angle_alpha 90.000000
_cell_angle_beta 90.000000
_cell_angle_gamma 90.000000
_cell_volume 3554.974472
_symmetry_space_group_name_H-M "C M M M"
_symmetry_group_IT_number 65
_symmetry_cell_setting 'orthorhombic'
loop_
_space_group_symop_operation_xyz
x,y,z
-x,-y,z
x,-y,-z
-x,y,-z
-x,-y,-z
x,y,-z
-x,y,z
x,-y,z
1/2+x,1/2+y,z
1/2-x,1/2-y,z
1/2+x,1/2-y,-z
1/2-x,1/2+y,-z
1/2-x,1/2-y,-z
1/2+x,1/2+y,-z
1/2-x,1/2+y,z
1/2+x,1/2-y,z
loop_
_atom_site_type_symbol
_atom_site_label
_atom_site_fract_x
_atom_site_fract_y
_atom_site_fract_z
Si Si1 0.828111 0.701433 0.237807
Si Si2 0.327850 0.800238 0.893243
Si Si3 0.417573 0.197448 0.348521
Si Si4 0.923157 0.198981 0.000000
Si Si5 0.916659 0.000000 0.566726
O O1 0.831684 0.500000 0.235134
O O2 0.750000 0.750000 0.252312
O O3 0.842890 0.767052 0.172249
O O4 0.880138 0.751345 0.288694
O O5 0.250000 0.750000 0.908671
O O6 0.329641 0.000000 0.890402
O O7 0.380771 0.746773 0.942487
O O8 0.500000 0.206293 0.341479
O O9 0.397059 0.330774 0.398362
O O10 0.400979 0.000000 0.360926
O O11 0.000000 0.272213 0.000000
O O12 0.928494 0.000000 0.000000
O O13 0.891900 0.000000 0.500000
O O14 0.000000 0.000000 0.565159
#
# Coordination Sequence:
#
# PCOD9490490 Si02
#       5
#    16  16  16   8   8
#     4   9  19  33  53  80 104 135 173 214 263 314
#     4  10  20  36  57  78 103 135 177 219 262 319
#     4   9  18  33  52  78 109 139 176 221 268 314
#     4  11  24  39  52  73 105 139 176 219 270 319
#     4   9  18  32  52  80 108 139 180 218 261 317
#
# _framework density 18.002942000000001
#
# number of rings (size 3 to 8) (size 9 to 14) (size 15 to 20)
#    0.000    2.500    0.000    1.500    1.750    3.500 
#    0.000    5.000    0.000    0.750    0.000    0.000 
#    0.000    0.000    0.000    0.000    0.000    0.000 
#
# Total GULP energy -178385.033737 kJ/mol
# GULP energy per Si atom -5574.532304 kJ/mol
# Density = 1.796197 g / cm^3
# Si number density = 18.002942 Si / 1000 Ang^3
#
#
#
# Elastic Constant Matrix: (Units=GPa)
#
#
# Indices 1 2 3 4 5 6 
#
# 1 74.3143 35.2494 89.4201 0.0000 0.0000 0.0000
# 2 35.2494 67.4437 59.5721 0.0000 0.0000 0.0000
# 3 89.4201 59.5721 159.5761 0.0000 0.0000 0.0000
# 4 0.0000 0.0000 0.0000 35.3897 0.0000 0.0000
# 5 0.0000 0.0000 0.0000 0.0000 33.2503 0.0000
# 6 0.0000 0.0000 0.0000 0.0000 0.0000 17.2036
#
#
#
# Elastic Compliance Matrix: (Units=1/GPa)
#
#
# Indices 1 2 3 4 5 6 
#
# 1 0.041443 -0.001712 -0.022584 0.000000 0.000000 0.000000
# 2 -0.001712 0.022192 -0.007325 0.000000 0.000000 0.000000
# 3 -0.022584 -0.007325 0.021656 0.000000 0.000000 0.000000
# 4 0.000000 0.000000 0.000000 0.028257 0.000000 0.000000
# 5 0.000000 0.000000 0.000000 0.000000 0.030075 0.000000
# 6 0.000000 0.000000 0.000000 0.000000 0.000000 0.058127
#
#
# Mechanical properties :
#
#
# Convention : Reuss Voigt Hill
#
# Bulk Modulus (GPa) = 45.35336 74.42413 59.88875
# Shear Modulus (GPa) = 18.35922 24.97488 21.66705
#
# Velocity S-wave (km/s) = 3.19688 3.72864 3.47295
# Velocity P-wave (km/s) = 6.23487 7.74382 7.02995
#
# Compressibility (1/GPa) = 0.02204908
#
# Stress axis : x y z
#
# Youngs Moduli (GPa) = 24.12967 45.06049 46.17594
#
# Poissons Ratio (x) = 0.07715 1.04282
# Poissons Ratio (y) = 0.04131 0.33826
# Poissons Ratio (z) = 0.54494 0.33008
#
# Static dielectric constant tensor:
#      x y z
#    x 1.576600 0.000000 0.000000 
#    y 0.000000 1.629270 0.000000 
#    z 0.000000 0.000000 1.640710 
# 
# From -- ./inp_files/58865.got.cif
#   From: 2010.05.17/outbox.cif.g08.bks.cpg/sg65_30_cif.got.tgz:58865.got - 2010.06.03 17:01:31.
