data_PCOD9490449
_publ_section_title
;
Structure prediction by ZEFSAII (Michael W. Deem and Ramdas Pophale) SiO2 
 PCOD9490449
Probable space group: C M M M
;
_chemical_formula_sum "Si O2"
_cell_formula_units_Z 72
_cell_length_a 8.738451
_cell_length_b 16.054609
_cell_length_c 25.764107
_cell_angle_alpha 90.000000
_cell_angle_beta 90.000000
_cell_angle_gamma 90.000000
_cell_volume 3614.508767
_symmetry_space_group_name_H-M "C M M M"
_symmetry_group_IT_number 65
_symmetry_cell_setting 'orthorhombic'
loop_
_space_group_symop_operation_xyz
x,y,z
-x,-y,z
x,-y,-z
-x,y,-z
-x,-y,-z
x,y,-z
-x,y,z
x,-y,z
1/2+x,1/2+y,z
1/2-x,1/2-y,z
1/2+x,1/2-y,-z
1/2-x,1/2+y,-z
1/2-x,1/2-y,-z
1/2+x,1/2+y,-z
1/2-x,1/2+y,z
1/2+x,1/2-y,z
loop_
_atom_site_type_symbol
_atom_site_label
_atom_site_fract_x
_atom_site_fract_y
_atom_site_fract_z
Si Si1 0.816622 0.844281 0.556611
Si Si2 0.686660 0.500000 0.940238
Si Si3 0.822523 0.902846 0.766220
Si Si4 0.319022 0.843041 0.338309
Si Si5 0.685056 0.337479 0.876159
O O1 0.778096 0.881814 0.500000
O O2 0.750000 0.750000 0.555742
O O3 0.749631 0.882812 0.609093
O O4 0.000000 0.840516 0.560687
O O5 0.500000 0.500000 0.939558
O O6 0.735061 0.416521 0.910232
O O7 0.735846 0.500000 0.000000
O O8 0.728140 0.888769 0.714224
O O9 0.766847 0.852468 0.816315
O O10 0.000000 0.879781 0.755564
O O11 0.820506 0.000000 0.780914
O O12 0.500000 0.837727 0.343550
O O13 0.250000 0.750000 0.333893
O O14 0.500000 0.335655 0.876520
O O15 0.750000 0.250000 0.895106
#
# Coordination Sequence:
#
# PCOD9490449 Si02
#       5
#    16   8  16  16  16
#     4   9  16  27  45  69  98 133 174 221 274 332
#     4   9  18  36  61  87 119 159 200 237 280 341
#     4  10  20  36  56  76 105 143 184 230 284 346
#     4  11  21  32  49  75 106 138 177 225 278 338
#     4  10  20  36  59  87 116 153 196 239 288 342
#
# _framework density 19.919720000000002
#
# number of rings (size 3 to 8) (size 9 to 14) (size 15 to 20)
#    0.000    2.111    1.111    4.667    0.000    4.889 
#    0.000    0.556    0.000    1.333    0.000    4.667 
#    0.000    0.000    0.000    0.000    0.000    0.000 
#
# Total GULP energy -200932.922084 kJ/mol
# GULP energy per Si atom -5581.470058 kJ/mol
# Density = 1.987438 g / cm^3
# Si number density = 19.919720 Si / 1000 Ang^3
#
#
#
# Elastic Constant Matrix: (Units=GPa)
#
#
# Indices 1 2 3 4 5 6 
#
# 1 64.9793 16.2141 39.6467 0.0000 0.0000 0.0000
# 2 16.2141 89.9267 55.0659 0.0000 0.0000 0.0000
# 3 39.6467 55.0659 152.7749 0.0000 0.0000 0.0000
# 4 0.0000 0.0000 0.0000 23.4637 0.0000 0.0000
# 5 0.0000 0.0000 0.0000 0.0000 -9.8754 0.0000
# 6 0.0000 0.0000 0.0000 0.0000 0.0000 20.6995
#
#
#
# Elastic Compliance Matrix: (Units=1/GPa)
#
#
# Indices 1 2 3 4 5 6 
#
# 1 0.018302 -0.000502 -0.004569 0.000000 0.000000 0.000000
# 2 -0.000502 0.014283 -0.005018 0.000000 0.000000 0.000000
# 3 -0.004569 -0.005018 0.009540 0.000000 0.000000 0.000000
# 4 0.000000 0.000000 0.000000 0.042619 0.000000 0.000000
# 5 0.000000 0.000000 0.000000 0.000000 -0.101262 0.000000
# 6 0.000000 0.000000 0.000000 0.000000 0.000000 0.048310
#
#
# Mechanical properties :
#
#
# Convention : Reuss Voigt Hill
#
# Bulk Modulus (GPa) = 45.56269 58.83714 52.19991
# Shear Modulus (GPa) = 84.33580 19.97450 52.15515
#
# Velocity S-wave (km/s) = 6.51381 3.17006 5.12245
# Velocity P-wave (km/s) = 8.91604 6.55746 7.82611
#
# Compressibility (1/GPa) = 0.02194778
#
# Stress axis : x y z
#
# Youngs Moduli (GPa) = 54.63775 70.01115 104.82384
#
# Poissons Ratio (x) = 0.03518 0.47889
# Poissons Ratio (y) = 0.02745 0.52600
# Poissons Ratio (z) = 0.24962 0.35131
#
# Static dielectric constant tensor:
#      x y z
#    x 1.670940 0.000000 0.000000 
#    y 0.000000 1.710550 0.000000 
#    z 0.000000 0.000000 1.734180 
# 
# From -- ./inp_files/72477.got.cif
#   From: 2010.05.17/outbox.cif.g08.bks.cpg/sg65_37_cif.got.tgz:72477.got - 2010.06.03 17:01:31.
