data_PCOD9490927
_publ_section_title
;
Structure prediction by ZEFSAII (Michael W. Deem and Ramdas Pophale) SiO2 
 PCOD9490927
Probable space group: C M M M
;
_chemical_formula_sum "Si O2"
_cell_formula_units_Z 52
_cell_length_a 7.674485
_cell_length_b 30.420131
_cell_length_c 11.656654
_cell_angle_alpha 90.000000
_cell_angle_beta 90.000000
_cell_angle_gamma 90.000000
_cell_volume 2721.348910
_symmetry_space_group_name_H-M "C M M M"
_symmetry_group_IT_number 65
_symmetry_cell_setting 'orthorhombic'
loop_
_space_group_symop_operation_xyz
x,y,z
-x,-y,z
x,-y,-z
-x,y,-z
-x,-y,-z
x,y,-z
-x,y,z
x,-y,z
1/2+x,1/2+y,z
1/2-x,1/2-y,z
1/2+x,1/2-y,-z
1/2-x,1/2+y,-z
1/2-x,1/2-y,-z
1/2+x,1/2+y,-z
1/2-x,1/2+y,z
1/2+x,1/2-y,z
loop_
_atom_site_type_symbol
_atom_site_label
_atom_site_fract_x
_atom_site_fract_y
_atom_site_fract_z
Si Si1 0.806649 0.625260 0.307996
Si Si2 0.208374 0.801092 0.869855
Si Si3 0.500000 0.374197 0.500000
Si Si4 0.710988 0.448909 0.869931
O O1 0.788311 0.667343 0.224620
O O2 0.653265 0.625695 0.400038
O O3 0.785227 0.583093 0.225229
O O4 0.000000 0.624984 0.358951
O O5 0.250000 0.750000 0.848313
O O6 0.000000 0.807064 0.866911
O O7 0.268016 0.811358 0.000000
O O8 0.500000 0.446000 0.865520
O O9 0.757670 0.500000 0.851541
O O10 0.763427 0.436651 0.000000
#
# Coordination Sequence:
#
# PCOD9490927 Si02
#       4
#    16  16   4  16
#     4  12  24  41  66  89 122 165 210 257 309 360
#     4  10  20  37  64  97 130 158 193 249 315 377
#     4  12  26  48  61  82 122 170 220 266 291 352
#     4   9  18  36  64  97 130 162 197 248 319 383
#
# _framework density 19.108172
#
# number of rings (size 3 to 8) (size 9 to 14) (size 15 to 20)
#    0.000    1.538    3.077    3.231    0.000    6.769 
#    0.000    3.846    0.000    1.846    0.000    0.000 
#    0.000    0.000    0.000    0.000    0.000    0.000 
#
# Total GULP energy -144760.412507 kJ/mol
# GULP energy per Si atom -5567.708173 kJ/mol
# Density = 1.906468 g / cm^3
# Si number density = 19.108172 Si / 1000 Ang^3
#
#
#
# Elastic Constant Matrix: (Units=GPa)
#
#
# Indices 1 2 3 4 5 6 
#
# 1 157.5821 35.5143 74.6632 0.0000 0.0000 0.0000
# 2 35.5143 74.8663 73.2831 0.0000 0.0000 0.0000
# 3 74.6632 73.2831 154.5624 0.0000 0.0000 0.0000
# 4 0.0000 0.0000 0.0000 -4.2491 0.0000 0.0000
# 5 0.0000 0.0000 0.0000 0.0000 -1.0577 0.0000
# 6 0.0000 0.0000 0.0000 0.0000 0.0000 25.5682
#
#
#
# Elastic Compliance Matrix: (Units=1/GPa)
#
#
# Indices 1 2 3 4 5 6 
#
# 1 0.008229 -0.000023 -0.003964 0.000000 0.000000 0.000000
# 2 -0.000023 0.024925 -0.011806 0.000000 0.000000 0.000000
# 3 -0.003964 -0.011806 0.013983 0.000000 0.000000 0.000000
# 4 0.000000 0.000000 0.000000 -0.235342 0.000000 0.000000
# 5 0.000000 0.000000 0.000000 0.000000 -0.945433 0.000000
# 6 0.000000 0.000000 0.000000 0.000000 0.000000 0.039111
#
#
# Mechanical properties :
#
#
# Convention : Reuss Voigt Hill
#
# Bulk Modulus (GPa) = 64.31301 83.77021 74.04161
# Shear Modulus (GPa) = -4.72699 17.62229 6.44765
#
# Velocity S-wave (km/s) = -1.57454 3.04013 1.83892
# Velocity P-wave (km/s) = 5.51587 7.50056 6.58343
#
# Compressibility (1/GPa) = 0.01554895
#
# Stress axis : x y z
#
# Youngs Moduli (GPa) = 121.51485 40.12034 71.51707
#
# Poissons Ratio (x) = 0.00094 0.28351
# Poissons Ratio (y) = 0.00284 0.84436
# Poissons Ratio (z) = 0.48171 0.47368
#
# Static dielectric constant tensor:
#      x y z
#    x 1.691150 0.000000 0.000000 
#    y 0.000000 1.652260 0.000000 
#    z 0.000000 0.000000 1.621710 
# 
# From -- ./inp_files/20296.got.cif
#   From: 2010.05.17/outbox.cif.g08.bks.cpg/sg65_11_cif.got.tgz:20296.got - 2010.06.03 17:01:31.
