data_PCOD9490238
_publ_section_title
;
Structure prediction by ZEFSAII (Michael W. Deem and Ramdas Pophale) SiO2 
 PCOD9490238
Probable space group: C M M M
;
_chemical_formula_sum "Si O2"
_cell_formula_units_Z 72
_cell_length_a 15.078906
_cell_length_b 14.016957
_cell_length_c 15.846150
_cell_angle_alpha 90.000000
_cell_angle_beta 90.000000
_cell_angle_gamma 90.000000
_cell_volume 3349.248238
_symmetry_space_group_name_H-M "C M M M"
_symmetry_group_IT_number 65
_symmetry_cell_setting 'orthorhombic'
loop_
_space_group_symop_operation_xyz
x,y,z
-x,-y,z
x,-y,-z
-x,y,-z
-x,-y,-z
x,y,-z
-x,y,z
x,-y,z
1/2+x,1/2+y,z
1/2-x,1/2-y,z
1/2+x,1/2-y,-z
1/2-x,1/2+y,-z
1/2-x,1/2-y,-z
1/2+x,1/2+y,-z
1/2-x,1/2+y,z
1/2+x,1/2-y,z
loop_
_atom_site_type_symbol
_atom_site_label
_atom_site_fract_x
_atom_site_fract_y
_atom_site_fract_z
Si Si1 0.103204 0.883250 0.500000
Si Si2 0.718176 0.384190 0.660832
Si Si3 0.647959 0.216906 0.092419
Si Si4 0.599863 0.115247 0.265500
Si Si5 0.098076 0.892537 0.818497
O O1 0.160128 0.852593 0.581481
O O2 0.000000 0.852062 0.500000
O O3 0.100753 0.000000 0.500000
O O4 0.719776 0.500000 0.656102
O O5 0.820069 0.352786 0.672961
O O6 0.666794 0.361154 0.747150
O O7 0.750000 0.250000 0.095522
O O8 0.622845 0.150462 0.170994
O O9 0.598692 0.316743 0.107573
O O10 0.629137 0.175579 0.000000
O O11 0.500000 0.148257 0.287262
O O12 0.599715 0.000000 0.266086
O O13 0.000000 0.894462 0.779437
O O14 0.119995 0.000000 0.846112
#
# Coordination Sequence:
#
# PCOD9490238 Si02
#       5
#     8  16  16  16  16
#     4   9  16  28  53  88 121 151 186 231 282 341
#     4   9  17  32  53  82 116 148 186 233 281 335
#     4  11  23  38  58  83 112 149 193 245 296 340
#     4  10  21  38  59  81 111 156 202 240 282 334
#     4  10  20  35  57  83 113 148 183 228 293 357
#
# _framework density 21.497361999999999
#
# number of rings (size 3 to 8) (size 9 to 14) (size 15 to 20)
#    0.000    2.111    2.222    1.333    0.000    5.333 
#    0.000    5.000    0.000    6.000    0.000    3.111 
#    0.000    0.000    0.000    0.000    0.000    0.000 
#
# Total GULP energy -200943.371389 kJ/mol
# GULP energy per Si atom -5581.760316 kJ/mol
# Density = 2.144843 g / cm^3
# Si number density = 21.497362 Si / 1000 Ang^3
#
#
#
# Elastic Constant Matrix: (Units=GPa)
#
#
# Indices 1 2 3 4 5 6 
#
# 1 194.1179 10.1827 69.9278 0.0000 0.0000 0.0000
# 2 10.1827 45.3879 8.2559 0.0000 0.0000 0.0000
# 3 69.9278 8.2559 97.5375 0.0000 0.0000 0.0000
# 4 0.0000 0.0000 0.0000 24.5234 0.0000 0.0000
# 5 0.0000 0.0000 0.0000 0.0000 47.4317 0.0000
# 6 0.0000 0.0000 0.0000 0.0000 0.0000 15.0073
#
#
#
# Elastic Compliance Matrix: (Units=1/GPa)
#
#
# Indices 1 2 3 4 5 6 
#
# 1 0.006965 -0.000665 -0.004937 0.000000 0.000000 0.000000
# 2 -0.000665 0.022440 -0.001423 0.000000 0.000000 0.000000
# 3 -0.004937 -0.001423 0.013912 0.000000 0.000000 0.000000
# 4 0.000000 0.000000 0.000000 0.040777 0.000000 0.000000
# 5 0.000000 0.000000 0.000000 0.000000 0.021083 0.000000
# 6 0.000000 0.000000 0.000000 0.000000 0.000000 0.066634
#
#
# Mechanical properties :
#
#
# Convention : Reuss Voigt Hill
#
# Bulk Modulus (GPa) = 34.16661 57.08624 45.62642
# Shear Modulus (GPa) = 25.56007 33.97093 29.76550
#
# Velocity S-wave (km/s) = 3.45191 3.97953 3.72507
# Velocity P-wave (km/s) = 5.64052 6.90856 6.30649
#
# Compressibility (1/GPa) = 0.02926835
#
# Stress axis : x y z
#
# Youngs Moduli (GPa) = 143.57761 44.56286 71.87796
#
# Poissons Ratio (x) = 0.02961 0.35487
# Poissons Ratio (y) = 0.09541 0.10228
# Poissons Ratio (z) = 0.70886 0.06341
#
# Static dielectric constant tensor:
#      x y z
#    x 1.884730 0.000000 0.000000 
#    y 0.000000 1.793980 0.000000 
#    z 0.000000 0.000000 1.760100 
# 
# From -- ./inp_files/39744.got.cif
#   From: 2010.05.17/outbox.cif.g08.bks.cpg/sg65_20_cif.got.tgz:39744.got - 2010.06.03 17:01:31.
