data_PCOD9490052
_publ_section_title
;
Structure prediction by ZEFSAII (Michael W. Deem and Ramdas Pophale) SiO2 
 PCOD9490052
Probable space group: C M M M
;
_chemical_formula_sum "Si O2"
_cell_formula_units_Z 72
_cell_length_a 16.179140
_cell_length_b 8.442345
_cell_length_c 27.710816
_cell_angle_alpha 90.000000
_cell_angle_beta 90.000000
_cell_angle_gamma 90.000000
_cell_volume 3785.017079
_symmetry_space_group_name_H-M "C M M M"
_symmetry_group_IT_number 65
_symmetry_cell_setting 'orthorhombic'
loop_
_space_group_symop_operation_xyz
x,y,z
-x,-y,z
x,-y,-z
-x,y,-z
-x,-y,-z
x,y,-z
-x,y,z
x,-y,z
1/2+x,1/2+y,z
1/2-x,1/2-y,z
1/2+x,1/2-y,-z
1/2-x,1/2+y,-z
1/2-x,1/2-y,-z
1/2+x,1/2+y,-z
1/2-x,1/2+y,z
1/2+x,1/2-y,z
loop_
_atom_site_type_symbol
_atom_site_label
_atom_site_fract_x
_atom_site_fract_y
_atom_site_fract_z
Si Si1 0.845156 0.808326 0.292021
Si Si2 0.839952 0.191211 0.944105
Si Si3 0.500000 0.306447 0.227293
Si Si4 0.500000 0.693668 0.884028
Si Si5 0.842384 0.811306 0.601851
Si Si6 0.093455 0.688535 0.500000
O O1 0.750000 0.750000 0.284610
O O2 0.878085 0.762712 0.345883
O O3 0.915264 0.756111 0.254135
O O4 0.840829 0.000000 0.290817
O O5 0.750000 0.250000 0.927544
O O6 0.917108 0.245054 0.911920
O O7 0.839228 0.000000 0.943521
O O8 0.850965 0.241896 0.000000
O O9 0.500000 0.500000 0.228638
O O10 0.500000 0.256632 0.171599
O O11 0.500000 0.500000 0.884812
O O12 0.750000 0.750000 0.605958
O O13 0.871931 0.746705 0.550787
O O14 0.847061 0.000000 0.599204
O O15 0.099651 0.500000 0.500000
O O16 0.000000 0.742777 0.500000
#
# Coordination Sequence:
#
# PCOD9490052 Si02
#       6
#    16  16   8   8  16   8
#     4   9  19  35  56  78 102 132 170 213 256 306
#     4   9  17  30  49  74 103 137 176 215 256 305
#     4   9  18  33  53  77 103 134 173 216 259 304
#     4   9  17  30  50  74 101 137 176 214 257 306
#     4  10  20  35  56  76  99 130 165 203 248 304
#     4  11  24  37  50  75 107 133 160 201 250 299
#
# _framework density 19.022372000000001
#
# number of rings (size 3 to 8) (size 9 to 14) (size 15 to 20)
#    0.000    2.556    0.000    1.667    1.556    4.000 
#    0.000    1.111    0.000    4.000    0.000    0.000 
#    0.000    0.000    0.000    0.000    0.000    0.000 
#
# Total GULP energy -200530.398472 kJ/mol
# GULP energy per Si atom -5570.288846 kJ/mol
# Density = 1.897908 g / cm^3
# Si number density = 19.022372 Si / 1000 Ang^3
#
#
#
# Elastic Constant Matrix: (Units=GPa)
#
#
# Indices 1 2 3 4 5 6 
#
# 1 145.4115 25.6193 118.8475 0.0000 0.0000 0.0000
# 2 25.6193 47.7701 42.3303 0.0000 0.0000 0.0000
# 3 118.8475 42.3303 180.7003 0.0000 0.0000 0.0000
# 4 0.0000 0.0000 0.0000 17.5979 0.0000 0.0000
# 5 0.0000 0.0000 0.0000 0.0000 25.4947 0.0000
# 6 0.0000 0.0000 0.0000 0.0000 0.0000 8.0890
#
#
#
# Elastic Compliance Matrix: (Units=1/GPa)
#
#
# Indices 1 2 3 4 5 6 
#
# 1 0.014900 0.000874 -0.010005 0.000000 0.000000 0.000000
# 2 0.000874 0.026469 -0.006776 0.000000 0.000000 0.000000
# 3 -0.010005 -0.006776 0.013701 0.000000 0.000000 0.000000
# 4 0.000000 0.000000 0.000000 0.056825 0.000000 0.000000
# 5 0.000000 0.000000 0.000000 0.000000 0.039224 0.000000
# 6 0.000000 0.000000 0.000000 0.000000 0.000000 0.123624
#
#
# Mechanical properties :
#
#
# Convention : Reuss Voigt Hill
#
# Bulk Modulus (GPa) = 42.99520 83.05292 63.02406
# Shear Modulus (GPa) = 15.90802 22.70864 19.30833
#
# Velocity S-wave (km/s) = 2.89499 3.45887 3.18941
# Velocity P-wave (km/s) = 5.81602 7.72704 6.83861
#
# Compressibility (1/GPa) = 0.02325841
#
# Stress axis : x y z
#
# Youngs Moduli (GPa) = 67.11452 37.78051 72.98565
#
# Poissons Ratio (x) = -0.03304 0.73019
# Poissons Ratio (y) = -0.05869 0.49452
# Poissons Ratio (z) = 0.67145 0.25599
#
# Static dielectric constant tensor:
#      x y z
#    x 1.649120 0.000000 0.000000 
#    y 0.000000 1.654390 0.000000 
#    z 0.000000 0.000000 7.252150 
# 
# From -- ./inp_files/72599.got.cif
#   From: 2010.05.17/outbox.cif.g08.bks.cpg/sg65_37_cif.got.tgz:72599.got - 2010.06.03 17:01:31.
