data_PCOD9490702
_publ_section_title
;
Structure prediction by ZEFSAII (Michael W. Deem and Ramdas Pophale) SiO2 
 PCOD9490702
Probable space group: C M M M
;
_chemical_formula_sum "Si O2"
_cell_formula_units_Z 90
_cell_length_a 23.734066
_cell_length_b 17.841700
_cell_length_c 12.176559
_cell_angle_alpha 90.000000
_cell_angle_beta 90.000000
_cell_angle_gamma 90.000000
_cell_volume 5156.238007
_symmetry_space_group_name_H-M "C M M M"
_symmetry_group_IT_number 65
_symmetry_cell_setting 'orthorhombic'
loop_
_space_group_symop_operation_xyz
x,y,z
-x,-y,z
x,-y,-z
-x,y,-z
-x,-y,-z
x,y,-z
-x,y,z
x,-y,z
1/2+x,1/2+y,z
1/2-x,1/2-y,z
1/2+x,1/2-y,-z
1/2-x,1/2+y,-z
1/2-x,1/2-y,-z
1/2+x,1/2+y,-z
1/2-x,1/2+y,z
1/2+x,1/2-y,z
loop_
_atom_site_type_symbol
_atom_site_label
_atom_site_fract_x
_atom_site_fract_y
_atom_site_fract_z
Si Si1 0.435323 0.799756 0.500000
Si Si2 0.903568 0.873101 0.500000
Si Si3 0.431872 0.202676 0.740633
Si Si4 0.067518 0.000000 0.129847
Si Si5 0.872795 0.136329 0.253917
Si Si6 0.860783 0.585841 0.131970
Si Si7 0.000000 0.000000 0.500000
Si Si8 0.242041 0.160495 0.871212
O O1 0.500000 0.824192 0.500000
O O2 0.431568 0.709403 0.500000
O O3 0.411875 0.822127 0.381876
O O4 0.870791 0.878527 0.615312
O O5 0.951255 0.935156 0.500000
O O6 0.500000 0.209323 0.742089
O O7 0.403886 0.283597 0.763217
O O8 0.408524 0.140807 0.822814
O O9 0.091796 0.927680 0.192229
O O10 0.000000 0.000000 0.138853
O O11 0.082388 0.000000 0.000000
O O12 0.811247 0.138210 0.200986
O O13 0.867030 0.500000 0.169241
O O14 0.799571 0.619287 0.162666
O O15 0.862874 0.586640 0.000000
O O16 0.250000 0.250000 0.862865
O O17 0.231192 0.142849 0.000000
#
# Coordination Sequence:
#
# PCOD9490702 Si02
#       8
#     8   8  16   8  16  16   2  16
#     4   8  16  34  54  80 110 143 194 235 273 353
#     4  10  22  32  56  84 113 159 205 232 293 351
#     4  10  20  36  60  85 114 151 189 241 299 354
#     4  11  25  38  53  85 123 157 195 245 301 355
#     4  11  22  38  58  85 119 154 201 250 292 358
#     4  10  22  39  59  85 114 150 197 242 294 358
#     4  12  20  36  56  80 126 172 198 232 286 370
#     4  10  20  38  62  84 110 153 203 246 299 361
#
# _framework density 17.454585999999999
#
# number of rings (size 3 to 8) (size 9 to 14) (size 15 to 20)
#    0.000    1.867    2.222    1.600    4.978    1.422 
#    0.000    2.667    0.000    1.600    0.000    0.000 
#    0.000    0.000    0.000    0.000    0.000    0.000 
#
# Total GULP energy -250723.877951 kJ/mol
# GULP energy per Si atom -5571.641732 kJ/mol
# Density = 1.741486 g / cm^3
# Si number density = 17.454586 Si / 1000 Ang^3
#
#
#
# Elastic Constant Matrix: (Units=GPa)
#
#
# Indices 1 2 3 4 5 6 
#
# 1 69.9334 26.7805 33.7295 0.0000 0.0000 0.0000
# 2 26.7805 90.6752 38.3390 0.0000 0.0000 0.0000
# 3 33.7295 38.3390 76.7000 0.0000 0.0000 0.0000
# 4 0.0000 0.0000 0.0000 10.7135 0.0000 0.0000
# 5 0.0000 0.0000 0.0000 0.0000 7.5251 0.0000
# 6 0.0000 0.0000 0.0000 0.0000 0.0000 28.8976
#
#
#
# Elastic Compliance Matrix: (Units=1/GPa)
#
#
# Indices 1 2 3 4 5 6 
#
# 1 0.018614 -0.002582 -0.006895 0.000000 0.000000 0.000000
# 2 -0.002582 0.014342 -0.006033 0.000000 0.000000 0.000000
# 3 -0.006895 -0.006033 0.019086 0.000000 0.000000 0.000000
# 4 0.000000 0.000000 0.000000 0.093341 0.000000 0.000000
# 5 0.000000 0.000000 0.000000 0.000000 0.132888 0.000000
# 6 0.000000 0.000000 0.000000 0.000000 0.000000 0.034605
#
#
# Mechanical properties :
#
#
# Convention : Reuss Voigt Hill
#
# Bulk Modulus (GPa) = 47.57251 48.33406 47.95329
# Shear Modulus (GPa) = 14.24897 18.65789 16.45343
#
# Velocity S-wave (km/s) = 2.86028 3.27301 3.07358
# Velocity P-wave (km/s) = 6.18243 6.48343 6.33472
#
# Compressibility (1/GPa) = 0.02102054
#
# Stress axis : x y z
#
# Youngs Moduli (GPa) = 53.72435 69.72503 52.39540
#
# Poissons Ratio (x) = 0.18005 0.36125
# Poissons Ratio (y) = 0.13873 0.31612
# Poissons Ratio (z) = 0.37041 0.42068
#
# Static dielectric constant tensor:
#      x y z
#    x 1.569700 0.000000 0.000000 
#    y 0.000000 1.577930 0.000000 
#    z 0.000000 0.000000 1.622100 
# 
# From -- ./inp_files/28802.got.cif
#   From: 2010.05.17/outbox.cif.g08.bks.cpg/sg65_15_cif.got.tgz:28802.got - 2010.06.03 17:01:31.
