data_PCOD9490771
_publ_section_title
;
Structure prediction by ZEFSAII (Michael W. Deem and Ramdas Pophale) SiO2 
 PCOD9490771
Probable space group: C M M M
;
_chemical_formula_sum "Si O2"
_cell_formula_units_Z 48
_cell_length_a 9.048899
_cell_length_b 15.177708
_cell_length_c 21.010244
_cell_angle_alpha 90.000000
_cell_angle_beta 90.000000
_cell_angle_gamma 90.000000
_cell_volume 2885.579408
_symmetry_space_group_name_H-M "C M M M"
_symmetry_group_IT_number 65
_symmetry_cell_setting 'orthorhombic'
loop_
_space_group_symop_operation_xyz
x,y,z
-x,-y,z
x,-y,-z
-x,y,-z
-x,-y,-z
x,y,-z
-x,y,z
x,-y,z
1/2+x,1/2+y,z
1/2-x,1/2-y,z
1/2+x,1/2-y,-z
1/2-x,1/2+y,-z
1/2-x,1/2-y,-z
1/2+x,1/2+y,-z
1/2-x,1/2+y,z
1/2+x,1/2-y,z
loop_
_atom_site_type_symbol
_atom_site_label
_atom_site_fract_x
_atom_site_fract_y
_atom_site_fract_z
Si Si1 0.167973 0.341347 0.689965
Si Si2 0.323803 0.500000 0.761834
Si Si3 0.677644 0.847364 0.000000
Si Si4 0.678097 0.000000 0.899786
Si Si5 0.500000 0.105834 0.572622
O O1 0.250000 0.250000 0.697369
O O2 0.259860 0.416260 0.724435
O O3 0.138570 0.362684 0.615340
O O4 0.000000 0.339159 0.716703
O O5 0.500000 0.500000 0.762344
O O6 0.260016 0.500000 0.833005
O O7 0.750000 0.750000 0.000000
O O8 0.715160 0.911481 0.059823
O O9 0.500000 0.836001 0.000000
O O10 0.500000 0.000000 0.891435
O O11 0.500000 0.136557 0.500000
O O12 0.500000 0.000000 0.573202
#
# Coordination Sequence:
#
# PCOD9490771 Si02
#       5
#    16   8   8   8   8
#     4  10  20  37  57  82 113 149 186 235 290 333
#     4  12  23  37  57  83 114 154 197 236 282 338
#     4   9  19  37  60  84 112 147 181 231 279 334
#     4   9  20  38  58  80 113 151 188 226 284 335
#     4   9  18  36  62  83 111 149 191 229 293 342
#
# _framework density 16.634440999999999
#
# number of rings (size 3 to 8) (size 9 to 14) (size 15 to 20)
#    1.000    1.167    1.667    3.500    0.000    3.333 
#    0.000    5.000    0.000    1.000    0.000    0.000 
#    0.000    0.000    0.000    0.000    0.000    0.000 
#
# Total GULP energy -133634.368852 kJ/mol
# GULP energy per Si atom -5568.098702 kJ/mol
# Density = 1.659658 g / cm^3
# Si number density = 16.634441 Si / 1000 Ang^3
#
#
#
# Elastic Constant Matrix: (Units=GPa)
#
#
# Indices 1 2 3 4 5 6 
#
# 1 109.6947 75.3789 72.0041 0.0000 0.0000 0.0000
# 2 75.3789 180.0243 85.3631 0.0000 0.0000 0.0000
# 3 72.0041 85.3631 149.9842 0.0000 0.0000 0.0000
# 4 0.0000 0.0000 0.0000 -51.7703 0.0000 0.0000
# 5 0.0000 0.0000 0.0000 0.0000 7.1752 0.0000
# 6 0.0000 0.0000 0.0000 0.0000 0.0000 35.6339
#
#
#
# Elastic Compliance Matrix: (Units=1/GPa)
#
#
# Indices 1 2 3 4 5 6 
#
# 1 0.015123 -0.003958 -0.005008 0.000000 0.000000 0.000000
# 2 -0.003958 0.008644 -0.003020 0.000000 0.000000 0.000000
# 3 -0.005008 -0.003020 0.010790 0.000000 0.000000 0.000000
# 4 0.000000 0.000000 0.000000 -0.019316 0.000000 0.000000
# 5 0.000000 0.000000 0.000000 0.000000 0.139368 0.000000
# 6 0.000000 0.000000 0.000000 0.000000 0.000000 0.028063
#
#
# Mechanical properties :
#
#
# Convention : Reuss Voigt Hill
#
# Bulk Modulus (GPa) = 94.45699 100.57725 97.51712
# Shear Modulus (GPa) = 23.79021 12.00490 17.89755
#
# Velocity S-wave (km/s) = 3.78587 2.68934 3.28370
# Velocity P-wave (km/s) = 8.71881 8.38081 8.55148
#
# Compressibility (1/GPa) = 0.01058683
#
# Stress axis : x y z
#
# Youngs Moduli (GPa) = 66.12514 115.69057 92.67828
#
# Poissons Ratio (x) = 0.45786 0.46410
# Poissons Ratio (y) = 0.26170 0.27985
# Poissons Ratio (z) = 0.33113 0.34934
#
# Static dielectric constant tensor:
#      x y z
#    x 1.545180 0.000000 0.000000 
#    y 0.000000 1.518010 0.000000 
#    z 0.000000 0.000000 1.565210 
# 
# From -- ./inp_files/58441.got.cif
#   From: 2010.05.17/outbox.cif.g08.bks.cpg/sg65_30_cif.got.tgz:58441.got - 2010.06.03 17:01:31.
