data_PCOD9490307
_publ_section_title
;
Structure prediction by ZEFSAII (Michael W. Deem and Ramdas Pophale) SiO2 
 PCOD9490307
Probable space group: C M M M
;
_chemical_formula_sum "Si O2"
_cell_formula_units_Z 84
_cell_length_a 20.223779
_cell_length_b 15.316620
_cell_length_c 15.971371
_cell_angle_alpha 90.000000
_cell_angle_beta 90.000000
_cell_angle_gamma 90.000000
_cell_volume 4947.290889
_symmetry_space_group_name_H-M "C M M M"
_symmetry_group_IT_number 65
_symmetry_cell_setting 'orthorhombic'
loop_
_space_group_symop_operation_xyz
x,y,z
-x,-y,z
x,-y,-z
-x,y,-z
-x,-y,-z
x,y,-z
-x,y,z
x,-y,z
1/2+x,1/2+y,z
1/2-x,1/2-y,z
1/2+x,1/2-y,-z
1/2-x,1/2+y,-z
1/2-x,1/2-y,-z
1/2+x,1/2+y,-z
1/2-x,1/2+y,z
1/2+x,1/2-y,z
loop_
_atom_site_type_symbol
_atom_site_label
_atom_site_fract_x
_atom_site_fract_y
_atom_site_fract_z
Si Si1 0.500000 0.500000 0.313937
Si Si2 0.117378 0.144803 0.676400
Si Si3 0.660190 0.895441 0.500000
Si Si4 0.814014 0.105984 0.500000
Si Si5 0.253775 0.649572 0.214424
Si Si6 0.879588 0.655108 0.681330
Si Si7 0.703013 0.000000 0.900647
Si Si8 0.928247 0.500000 0.206465
O O1 0.558289 0.423438 0.315839
O O2 0.149019 0.138177 0.583360
O O3 0.177335 0.126920 0.741074
O O4 0.097885 0.245428 0.693050
O O5 0.737145 0.865650 0.500000
O O6 0.623861 0.864724 0.583388
O O7 0.661942 0.000000 0.500000
O O8 0.816070 0.000000 0.500000
O O9 0.250000 0.750000 0.186105
O O10 0.195457 0.643333 0.283651
O O11 0.238186 0.584120 0.139707
O O12 0.919756 0.584289 0.733998
O O13 0.629380 0.000000 0.861967
O O14 0.703715 0.000000 0.000000
O O15 0.000000 0.500000 0.166728
#
# Coordination Sequence:
#
# PCOD9490307 Si02
#       8
#     4  16   8   8  16  16   8   8
#     4  12  26  37  48  74 117 160 188 232 259 344
#     4  11  22  36  53  78 112 155 195 225 276 321
#     4  11  19  31  55  85 106 141 187 253 293 315
#     4  11  21  31  53  76 111 151 189 243 278 322
#     4   9  19  36  59  85 110 141 185 232 272 327
#     4  10  20  35  58  82 105 143 195 239 278 315
#     4  10  21  36  60  90 112 135 170 226 295 344
#     4  10  22  39  57  78 113 144 176 227 278 350
#
# _framework density 16.97899
#
# number of rings (size 3 to 8) (size 9 to 14) (size 15 to 20)
#    0.000    1.714    3.810    1.143    1.333    2.095 
#    0.000    0.952    0.000    0.000    0.000    5.333 
#    0.000    0.000    0.000    0.000    0.000    0.000 
#
# Total GULP energy -233919.281493 kJ/mol
# GULP energy per Si atom -5569.506702 kJ/mol
# Density = 1.694035 g / cm^3
# Si number density = 16.978990 Si / 1000 Ang^3
#
#
#
# Elastic Constant Matrix: (Units=GPa)
#
#
# Indices 1 2 3 4 5 6 
#
# 1 106.1900 50.6418 39.5958 0.0000 0.0000 0.0000
# 2 50.6418 93.2992 56.2155 0.0000 0.0000 0.0000
# 3 39.5958 56.2155 128.9982 0.0000 0.0000 0.0000
# 4 0.0000 0.0000 0.0000 5.2633 0.0000 0.0000
# 5 0.0000 0.0000 0.0000 0.0000 1.5286 0.0000
# 6 0.0000 0.0000 0.0000 0.0000 0.0000 26.6141
#
#
#
# Elastic Compliance Matrix: (Units=1/GPa)
#
#
# Indices 1 2 3 4 5 6 
#
# 1 0.012848 -0.006234 -0.001227 0.000000 0.000000 0.000000
# 2 -0.006234 0.017560 -0.005739 0.000000 0.000000 0.000000
# 3 -0.001227 -0.005739 0.010629 0.000000 0.000000 0.000000
# 4 0.000000 0.000000 0.000000 0.189995 0.000000 0.000000
# 5 0.000000 0.000000 0.000000 0.000000 0.654191 0.000000
# 6 0.000000 0.000000 0.000000 0.000000 0.000000 0.037574
#
#
# Mechanical properties :
#
#
# Convention : Reuss Voigt Hill
#
# Bulk Modulus (GPa) = 68.31849 69.04375 68.68112
# Shear Modulus (GPa) = 5.24068 18.81683 12.02875
#
# Velocity S-wave (km/s) = 1.75877 3.33264 2.66456
# Velocity P-wave (km/s) = 6.66699 7.45393 7.07142
#
# Compressibility (1/GPa) = 0.01463733
#
# Stress axis : x y z
#
# Youngs Moduli (GPa) = 77.83501 56.94781 94.07857
#
# Poissons Ratio (x) = 0.35504 0.11541
# Poissons Ratio (y) = 0.48526 0.53989
# Poissons Ratio (z) = 0.09548 0.32681
#
# Static dielectric constant tensor:
#      x y z
#    x 1.573440 0.000000 0.000000 
#    y 0.000000 1.602830 0.000000 
#    z 0.000000 0.000000 1.527670 
# 
# From -- ./inp_files/40298.got.cif
#   From: 2010.05.17/outbox.cif.g08.bks.cpg/sg65_21_cif.got.tgz:40298.got - 2010.06.03 17:01:31.
