data_PCOD9490986
_publ_section_title
;
Structure prediction by ZEFSAII (Michael W. Deem and Ramdas Pophale) SiO2 
 PCOD9490986
Probable space group: C M M M
;
_chemical_formula_sum "Si O2"
_cell_formula_units_Z 64
_cell_length_a 24.479353
_cell_length_b 8.357713
_cell_length_c 16.021515
_cell_angle_alpha 90.000000
_cell_angle_beta 90.000000
_cell_angle_gamma 90.000000
_cell_volume 3277.864293
_symmetry_space_group_name_H-M "C M M M"
_symmetry_group_IT_number 65
_symmetry_cell_setting 'orthorhombic'
loop_
_space_group_symop_operation_xyz
x,y,z
-x,-y,z
x,-y,-z
-x,y,-z
-x,-y,-z
x,y,-z
-x,y,z
x,-y,z
1/2+x,1/2+y,z
1/2-x,1/2-y,z
1/2+x,1/2-y,-z
1/2-x,1/2+y,-z
1/2-x,1/2-y,-z
1/2+x,1/2+y,-z
1/2-x,1/2+y,z
1/2+x,1/2-y,z
loop_
_atom_site_type_symbol
_atom_site_label
_atom_site_fract_x
_atom_site_fract_y
_atom_site_fract_z
Si Si1 0.000000 0.691710 0.402640
Si Si2 0.118417 0.806374 0.157053
Si Si3 0.688107 0.189711 0.000000
Si Si4 0.116948 0.193130 0.342345
Si Si5 0.687925 0.306268 0.500000
Si Si6 0.500000 0.694765 0.903113
O O1 0.054948 0.755086 0.360138
O O2 0.000000 0.500000 0.400087
O O3 0.000000 0.743077 0.500000
O O4 0.156549 0.749156 0.082355
O O5 0.134705 0.753287 0.250007
O O6 0.056100 0.752560 0.139518
O O7 0.118695 0.000000 0.155323
O O8 0.750000 0.250000 0.000000
O O9 0.687912 0.000000 0.000000
O O10 0.155485 0.250000 0.417574
O O11 0.118102 0.000000 0.343005
O O12 0.687044 0.500000 0.500000
O O13 0.750000 0.250000 0.500000
O O14 0.500000 0.500000 0.901411
O O15 0.500000 0.743443 0.000000
#
# Coordination Sequence:
#
# PCOD9490986 Si02
#       6
#     8  16   8  16   8   8
#     4  11  22  35  57  90 126 162 198 245 299 346
#     4  10  20  38  63  90 119 154 197 242 292 354
#     4  12  26  43  62  85 117 158 200 250 301 350
#     4  10  21  38  62  88 118 158 200 242 294 359
#     4  10  22  39  58  83 113 150 198 246 295 350
#     4   9  15  28  56  87 114 146 180 224 283 347
#
# _framework density 19.524908
#
# number of rings (size 3 to 8) (size 9 to 14) (size 15 to 20)
#    0.000    1.750    2.500    2.250    0.000    5.500 
#    0.000    3.750    0.000    0.000    0.000    0.000 
#    0.000    0.000    0.000    0.000    0.000    0.000 
#
# Total GULP energy -178780.889553 kJ/mol
# GULP energy per Si atom -5586.902799 kJ/mol
# Density = 1.948047 g / cm^3
# Si number density = 19.524908 Si / 1000 Ang^3
#
#
#
# Elastic Constant Matrix: (Units=GPa)
#
#
# Indices 1 2 3 4 5 6 
#
# 1 166.5299 16.5885 104.9848 0.0000 0.0000 0.0000
# 2 16.5885 12.2298 32.2842 0.0000 0.0000 0.0000
# 3 104.9848 32.2842 221.2730 0.0000 0.0000 0.0000
# 4 0.0000 0.0000 0.0000 15.0599 0.0000 0.0000
# 5 0.0000 0.0000 0.0000 0.0000 -2.0060 0.0000
# 6 0.0000 0.0000 0.0000 0.0000 0.0000 31.1013
#
#
#
# Elastic Compliance Matrix: (Units=1/GPa)
#
#
# Indices 1 2 3 4 5 6 
#
# 1 0.008583 -0.001451 -0.003861 0.000000 0.000000 0.000000
# 2 -0.001451 0.133233 -0.018751 0.000000 0.000000 0.000000
# 3 -0.003861 -0.018751 0.009087 0.000000 0.000000 0.000000
# 4 0.000000 0.000000 0.000000 0.066401 0.000000 0.000000
# 5 0.000000 0.000000 0.000000 0.000000 -0.498505 0.000000
# 6 0.000000 0.000000 0.000000 0.000000 0.000000 0.032153
#
#
# Mechanical properties :
#
#
# Convention : Reuss Voigt Hill
#
# Bulk Modulus (GPa) = 9.72963 78.63864 44.18414
# Shear Modulus (GPa) = -30.00071 25.24272 -2.37900
#
# Velocity S-wave (km/s) = -3.92412 3.59952 -1.10503
# Velocity P-wave (km/s) = 3.94178 7.59203 4.58810
#
# Compressibility (1/GPa) = 0.10277882
#
# Stress axis : x y z
#
# Youngs Moduli (GPa) = 116.50412 7.50564 110.04909
#
# Poissons Ratio (x) = 0.01089 0.42488
# Poissons Ratio (y) = 0.16902 2.06350
# Poissons Ratio (z) = 0.44980 0.14074
#
# Static dielectric constant tensor:
#      x y z
#    x 1.637050 0.000000 0.000000 
#    y 0.000000 1.669990 0.000000 
#    z 0.000000 0.000000 1.699500 
# 
# From -- ./inp_files/45142.got.cif
#   From: 2010.05.17/outbox.cif.g08.bks.cpg/sg65_23_cif.got.tgz:45142.got - 2010.06.03 17:01:31.
