data_PCOD9490592
_publ_section_title
;
Structure prediction by ZEFSAII (Michael W. Deem and Ramdas Pophale) SiO2 
 PCOD9490592
Probable space group: C M M M
;
_chemical_formula_sum "Si O2"
_cell_formula_units_Z 88
_cell_length_a 24.107098
_cell_length_b 8.649988
_cell_length_c 23.337292
_cell_angle_alpha 90.000000
_cell_angle_beta 90.000000
_cell_angle_gamma 90.000000
_cell_volume 4866.434682
_symmetry_space_group_name_H-M "C M M M"
_symmetry_group_IT_number 65
_symmetry_cell_setting 'orthorhombic'
loop_
_space_group_symop_operation_xyz
x,y,z
-x,-y,z
x,-y,-z
-x,y,-z
-x,-y,-z
x,y,-z
-x,y,z
x,-y,z
1/2+x,1/2+y,z
1/2-x,1/2-y,z
1/2+x,1/2-y,-z
1/2-x,1/2+y,-z
1/2-x,1/2-y,-z
1/2+x,1/2+y,-z
1/2-x,1/2+y,z
1/2+x,1/2-y,z
loop_
_atom_site_type_symbol
_atom_site_label
_atom_site_fract_x
_atom_site_fract_y
_atom_site_fract_z
Si Si1 0.687967 0.684659 0.721690
Si Si2 0.396526 0.313274 0.375564
Si Si3 0.500000 0.680789 0.814855
Si Si4 0.880482 0.316400 0.829649
Si Si5 0.687822 0.684980 0.064679
Si Si6 0.435129 0.312921 0.500000
Si Si7 0.000000 0.319266 0.308372
O O1 0.690174 0.500000 0.727369
O O2 0.750000 0.750000 0.726006
O O3 0.658864 0.721689 0.660608
O O4 0.649112 0.747889 0.772869
O O5 0.405522 0.500000 0.371221
O O6 0.402326 0.269907 0.442281
O O7 0.446119 0.224153 0.344471
O O8 0.500000 0.500000 0.827879
O O9 0.443242 0.757360 0.835551
O O10 0.500000 0.711377 0.746965
O O11 0.879692 0.500000 0.824609
O O12 0.847404 0.261205 0.885366
O O13 0.688682 0.500000 0.072036
O O14 0.750000 0.750000 0.068539
O O15 0.667307 0.718833 0.000000
O O16 0.438400 0.500000 0.500000
O O17 0.500000 0.258563 0.500000
O O18 0.000000 0.500000 0.291978
#
# Coordination Sequence:
#
# PCOD9490592 Si02
#       7
#    16  16   8  16  16   8   8
#     4  11  23  38  58  82 114 154 196 242 292 345
#     4  10  20  36  58  82 112 150 193 240 289 347
#     4  12  24  40  60  86 120 156 194 233 289 352
#     4  12  24  39  61  90 122 153 192 241 294 346
#     4  10  21  39  63  90 121 159 202 246 291 340
#     4   9  16  30  57  86 108 142 194 240 285 345
#     4  12  22  33  55  85 118 150 185 234 291 345
#
# _framework density 18.083053
#
# number of rings (size 3 to 8) (size 9 to 14) (size 15 to 20)
#    0.000    1.182    2.727    4.909    0.000    1.818 
#    0.000    1.818    0.000    2.727    0.000    0.000 
#    0.000    0.000    0.000    0.000    0.000    0.000 
#
# Total GULP energy -245782.552466 kJ/mol
# GULP energy per Si atom -5585.967101 kJ/mol
# Density = 1.804190 g / cm^3
# Si number density = 18.083053 Si / 1000 Ang^3
#
#
#
# Elastic Constant Matrix: (Units=GPa)
#
#
# Indices 1 2 3 4 5 6 
#
# 1 129.4027 47.4085 68.2078 0.0000 0.0000 0.0000
# 2 47.4085 82.3739 43.0547 0.0000 0.0000 0.0000
# 3 68.2078 43.0547 129.2953 0.0000 0.0000 0.0000
# 4 0.0000 0.0000 0.0000 13.4938 0.0000 0.0000
# 5 0.0000 0.0000 0.0000 0.0000 38.6777 0.0000
# 6 0.0000 0.0000 0.0000 0.0000 0.0000 26.6874
#
#
#
# Elastic Compliance Matrix: (Units=1/GPa)
#
#
# Indices 1 2 3 4 5 6 
#
# 1 0.011840 -0.004298 -0.004815 0.000000 0.000000 0.000000
# 2 -0.004298 0.016258 -0.003147 0.000000 0.000000 0.000000
# 3 -0.004815 -0.003147 0.011322 0.000000 0.000000 0.000000
# 4 0.000000 0.000000 0.000000 0.074108 0.000000 0.000000
# 5 0.000000 0.000000 0.000000 0.000000 0.025855 0.000000
# 6 0.000000 0.000000 0.000000 0.000000 0.000000 0.037471
#
#
# Mechanical properties :
#
#
# Convention : Reuss Voigt Hill
#
# Bulk Modulus (GPa) = 67.10697 73.15709 70.13203
# Shear Modulus (GPa) = 24.23182 27.93184 26.08183
#
# Velocity S-wave (km/s) = 3.66461 3.93446 3.80193
# Velocity P-wave (km/s) = 7.42272 7.82202 7.62498
#
# Compressibility (1/GPa) = 0.01490158
#
# Stress axis : x y z
#
# Youngs Moduli (GPa) = 84.45690 61.50869 88.32247
#
# Poissons Ratio (x) = 0.26435 0.42528
# Poissons Ratio (y) = 0.36297 0.27791
# Poissons Ratio (z) = 0.40667 0.19354
#
# Static dielectric constant tensor:
#      x y z
#    x 1.605660 0.000000 0.000000 
#    y 0.000000 1.603770 0.000000 
#    z 0.000000 0.000000 1.624810 
# 
# From -- ./inp_files/71072.got.cif
#   From: 2010.05.17/outbox.cif.g08.bks.cpg/sg65_36_cif.got.tgz:71072.got - 2010.06.03 17:01:31.
