data_PCOD9490654
_publ_section_title
;
Structure prediction by ZEFSAII (Michael W. Deem and Ramdas Pophale) SiO2 
 PCOD9490654
Probable space group: C M M M
;
_chemical_formula_sum "Si O2"
_cell_formula_units_Z 112
_cell_length_a 15.954681
_cell_length_b 15.571197
_cell_length_c 23.257946
_cell_angle_alpha 90.000000
_cell_angle_beta 90.000000
_cell_angle_gamma 90.000000
_cell_volume 5778.052484
_symmetry_space_group_name_H-M "C M M M"
_symmetry_group_IT_number 65
_symmetry_cell_setting 'orthorhombic'
loop_
_space_group_symop_operation_xyz
x,y,z
-x,-y,z
x,-y,-z
-x,y,-z
-x,-y,-z
x,y,-z
-x,y,z
x,-y,z
1/2+x,1/2+y,z
1/2-x,1/2-y,z
1/2+x,1/2-y,-z
1/2-x,1/2+y,-z
1/2-x,1/2-y,-z
1/2+x,1/2+y,-z
1/2-x,1/2+y,z
1/2+x,1/2-y,z
loop_
_atom_site_type_symbol
_atom_site_label
_atom_site_fract_x
_atom_site_fract_y
_atom_site_fract_z
Si Si1 0.403029 0.860884 0.345135
Si Si2 0.399780 0.403952 0.065266
Si Si3 0.599208 0.404368 0.247236
Si Si4 0.256643 0.899272 0.434985
Si Si5 0.844069 0.768965 0.159358
Si Si6 0.405783 0.339071 0.627894
Si Si7 0.399764 0.905655 0.784450
O O1 0.500000 0.891202 0.354294
O O2 0.335808 0.888169 0.392803
O O3 0.406142 0.757947 0.348617
O O4 0.373156 0.888791 0.281704
O O5 0.500000 0.409406 0.062804
O O6 0.369611 0.500000 0.083131
O O7 0.381258 0.327395 0.108898
O O8 0.369270 0.387882 0.000000
O O9 0.500000 0.391784 0.233790
O O10 0.623280 0.500000 0.228386
O O11 0.648955 0.329863 0.215426
O O12 0.607378 0.397017 0.315692
O O13 0.278498 0.872618 0.500000
O O14 0.173101 0.851236 0.413486
O O15 0.235327 0.000000 0.435252
O O16 0.750000 0.750000 0.143367
O O17 0.880842 0.676259 0.176084
O O18 0.500000 0.356397 0.604152
O O19 0.500000 0.909965 0.781757
O O20 0.367833 0.000000 0.803155
#
# Coordination Sequence:
#
# PCOD9490654 Si02
#       7
#    16  16  16  16  16  16  16
#     4  10  21  39  62  84 111 149 199 254 305 356
#     4   9  19  39  67  93 119 158 206 253 297 342
#     4  10  20  36  59  85 115 152 194 246 299 350
#     4  11  25  41  58  82 114 153 195 244 303 370
#     4  12  24  34  55  90 127 160 193 238 297 356
#     4  10  21  38  61  86 114 148 191 244 306 372
#     4  10  21  38  58  80 113 158 203 246 290 344
#
# _framework density 19.383693000000001
#
# number of rings (size 3 to 8) (size 9 to 14) (size 15 to 20)
#    0.000    1.714    1.429    3.429    2.000    6.000 
#    0.000    2.857    0.000    0.429    0.000    2.000 
#    0.000    0.000    0.000    0.000    0.000    0.000 
#
# Total GULP energy -312477.218121 kJ/mol
# GULP energy per Si atom -5579.950324 kJ/mol
# Density = 1.933958 g / cm^3
# Si number density = 19.383693 Si / 1000 Ang^3
#
#
#
# Elastic Constant Matrix: (Units=GPa)
#
#
# Indices 1 2 3 4 5 6 
#
# 1 56.2836 25.8075 36.3164 0.0000 0.0000 0.0000
# 2 25.8075 134.3569 55.0405 0.0000 0.0000 0.0000
# 3 36.3164 55.0405 99.7557 0.0000 0.0000 0.0000
# 4 0.0000 0.0000 0.0000 22.5172 0.0000 0.0000
# 5 0.0000 0.0000 0.0000 0.0000 55.8942 0.0000
# 6 0.0000 0.0000 0.0000 0.0000 0.0000 11.6890
#
#
#
# Elastic Compliance Matrix: (Units=1/GPa)
#
#
# Indices 1 2 3 4 5 6 
#
# 1 0.023396 -0.001298 -0.007801 0.000000 0.000000 0.000000
# 2 -0.001298 0.009689 -0.004873 0.000000 0.000000 0.000000
# 3 -0.007801 -0.004873 0.015553 0.000000 0.000000 0.000000
# 4 0.000000 0.000000 0.000000 0.044411 0.000000 0.000000
# 5 0.000000 0.000000 0.000000 0.000000 0.017891 0.000000
# 6 0.000000 0.000000 0.000000 0.000000 0.000000 0.085551
#
#
# Mechanical properties :
#
#
# Convention : Reuss Voigt Hill
#
# Bulk Modulus (GPa) = 48.32536 58.30277 53.31406
# Shear Modulus (GPa) = 21.61393 29.56886 25.59139
#
# Velocity S-wave (km/s) = 3.34287 3.90994 3.63747
# Velocity P-wave (km/s) = 6.31544 7.10824 6.72353
#
# Compressibility (1/GPa) = 0.02069307
#
# Stress axis : x y z
#
# Youngs Moduli (GPa) = 42.74232 103.21506 64.29523
#
# Poissons Ratio (x) = 0.13399 0.50158
# Poissons Ratio (y) = 0.05549 0.31331
# Poissons Ratio (z) = 0.33344 0.50297
#
# Static dielectric constant tensor:
#      x y z
#    x 1.683960 0.000000 0.000000 
#    y 0.000000 1.758060 0.000000 
#    z 0.000000 0.000000 1.677460 
# 
# From -- ./inp_files/70026.got.cif
#   From: 2010.05.17/outbox.cif.g08.bks.cpg/sg65_36_cif.got.tgz:70026.got - 2010.06.03 17:01:31.
