data_PCOD9490554
_publ_section_title
;
Structure prediction by ZEFSAII (Michael W. Deem and Ramdas Pophale) SiO2 
 PCOD9490554
Probable space group: C M M M
;
_chemical_formula_sum "Si O2"
_cell_formula_units_Z 80
_cell_length_a 19.268363
_cell_length_b 9.096394
_cell_length_c 26.491371
_cell_angle_alpha 90.000000
_cell_angle_beta 90.000000
_cell_angle_gamma 90.000000
_cell_volume 4643.212044
_symmetry_space_group_name_H-M "C M M M"
_symmetry_group_IT_number 65
_symmetry_cell_setting 'orthorhombic'
loop_
_space_group_symop_operation_xyz
x,y,z
-x,-y,z
x,-y,-z
-x,y,-z
-x,-y,-z
x,y,-z
-x,y,z
x,-y,z
1/2+x,1/2+y,z
1/2-x,1/2-y,z
1/2+x,1/2-y,-z
1/2-x,1/2+y,-z
1/2-x,1/2-y,-z
1/2+x,1/2+y,-z
1/2-x,1/2+y,z
1/2+x,1/2-y,z
loop_
_atom_site_type_symbol
_atom_site_label
_atom_site_fract_x
_atom_site_fract_y
_atom_site_fract_z
Si Si1 0.823881 0.324109 0.298172
Si Si2 0.825614 0.676967 0.414475
Si Si3 0.081375 0.323606 0.205163
Si Si4 0.915394 0.830290 0.897803
Si Si5 0.584705 0.169518 0.000000
Si Si6 0.082659 0.824183 0.500000
O O1 0.816361 0.500000 0.294846
O O2 0.750000 0.250000 0.289315
O O3 0.844884 0.292266 0.355994
O O4 0.877289 0.277273 0.254987
O O5 0.821652 0.500000 0.421637
O O6 0.750000 0.750000 0.423519
O O7 0.880617 0.749555 0.451898
O O8 0.087178 0.500000 0.199588
O O9 0.107053 0.248149 0.153777
O O10 0.000000 0.288733 0.211293
O O11 0.000000 0.824841 0.897947
O O12 0.894663 0.000000 0.898372
O O13 0.892335 0.749492 0.948812
O O14 0.500000 0.173206 0.000000
O O15 0.605711 0.000000 0.000000
O O16 0.000000 0.799239 0.500000
O O17 0.094979 0.000000 0.500000
#
# Coordination Sequence:
#
# PCOD9490554 Si02
#       6
#    16  16  16  16   8   8
#     4   9  19  34  53  76 100 129 165 205 245 288
#     4  10  20  36  58  80 103 134 172 211 251 298
#     4   9  17  30  47  68  96 128 161 198 242 291
#     4   9  16  25  38  60  90 122 157 198 243 289
#     4   9  15  23  37  57  84 121 160 197 240 289
#     4  11  24  39  54  77 109 139 168 207 254 301
#
# _framework density 17.229451000000001
#
# number of rings (size 3 to 8) (size 9 to 14) (size 15 to 20)
#    0.000    2.600    0.000    2.100    0.000    6.800 
#    0.000    2.000    0.000    2.400    0.000    0.700 
#    0.000    0.000    0.000    0.000    0.000    0.000 
#
# Total GULP energy -223027.627073 kJ/mol
# GULP energy per Si atom -5575.690677 kJ/mol
# Density = 1.719024 g / cm^3
# Si number density = 17.229451 Si / 1000 Ang^3
#
#
#
# Elastic Constant Matrix: (Units=GPa)
#
#
# Indices 1 2 3 4 5 6 
#
# 1 57.4077 50.8004 87.0728 0.0000 0.0000 0.0000
# 2 50.8004 84.3278 87.9885 0.0000 0.0000 0.0000
# 3 87.0728 87.9885 187.5460 0.0000 0.0000 0.0000
# 4 0.0000 0.0000 0.0000 18.1023 0.0000 0.0000
# 5 0.0000 0.0000 0.0000 0.0000 -73.7283 0.0000
# 6 0.0000 0.0000 0.0000 0.0000 0.0000 19.6277
#
#
#
# Elastic Compliance Matrix: (Units=1/GPa)
#
#
# Indices 1 2 3 4 5 6 
#
# 1 0.068109 -0.015742 -0.024236 0.000000 0.000000 0.000000
# 2 -0.015742 0.026869 -0.005297 0.000000 0.000000 0.000000
# 3 -0.024236 -0.005297 0.019069 0.000000 0.000000 0.000000
# 4 0.000000 0.000000 0.000000 0.055241 0.000000 0.000000
# 5 0.000000 0.000000 0.000000 0.000000 -0.013563 0.000000
# 6 0.000000 0.000000 0.000000 0.000000 0.000000 0.050948
#
#
# Mechanical properties :
#
#
# Convention : Reuss Voigt Hill
#
# Bulk Modulus (GPa) = 42.55828 86.77833 64.66831
# Shear Modulus (GPa) = 16.39045 -0.30501 8.04272
#
# Velocity S-wave (km/s) = 3.08767 -0.42120 2.16290
# Velocity P-wave (km/s) = 6.12096 7.08795 6.62213
#
# Compressibility (1/GPa) = 0.02349719
#
# Stress axis : x y z
#
# Youngs Moduli (GPa) = 14.68234 37.21801 52.44064
#
# Poissons Ratio (x) = 0.58589 1.27094
# Poissons Ratio (y) = 0.23113 0.27778
# Poissons Ratio (z) = 0.35584 0.19714
#
# Static dielectric constant tensor:
#      x y z
#    x 1.555760 0.000000 0.000000 
#    y 0.000000 1.575410 0.000000 
#    z 0.000000 0.000000 1.587500 
# 
# From -- ./inp_files/72911.got.cif
#   From: 2010.05.17/outbox.cif.g08.bks.cpg/sg65_37_cif.got.tgz:72911.got - 2010.06.03 17:01:31.
