data_PCOD9490810
_publ_section_title
;
Structure prediction by ZEFSAII (Michael W. Deem and Ramdas Pophale) SiO2 
 PCOD9490810
Probable space group: C M M M
;
_chemical_formula_sum "Si O2"
_cell_formula_units_Z 88
_cell_length_a 8.490004
_cell_length_b 15.505567
_cell_length_c 33.913954
_cell_angle_alpha 90.000000
_cell_angle_beta 90.000000
_cell_angle_gamma 90.000000
_cell_volume 4464.511783
_symmetry_space_group_name_H-M "C M M M"
_symmetry_group_IT_number 65
_symmetry_cell_setting 'orthorhombic'
loop_
_space_group_symop_operation_xyz
x,y,z
-x,-y,z
x,-y,-z
-x,y,-z
-x,-y,-z
x,y,-z
-x,y,z
x,-y,z
1/2+x,1/2+y,z
1/2-x,1/2-y,z
1/2+x,1/2-y,-z
1/2-x,1/2+y,-z
1/2-x,1/2-y,-z
1/2+x,1/2+y,-z
1/2-x,1/2+y,z
1/2+x,1/2-y,z
loop_
_atom_site_type_symbol
_atom_site_label
_atom_site_fract_x
_atom_site_fract_y
_atom_site_fract_z
Si Si1 0.190647 0.348022 0.629045
Si Si2 0.686381 0.653251 0.083127
Si Si3 0.807362 0.500000 0.313586
Si Si4 0.173414 0.601134 0.000000
Si Si5 0.311669 0.848211 0.165514
Si Si6 0.690451 0.848806 0.542276
Si Si7 0.807612 0.500000 0.776923
O O1 0.250000 0.250000 0.634235
O O2 0.242861 0.414782 0.662476
O O3 0.239785 0.381897 0.585331
O O4 0.000000 0.345358 0.629559
O O5 0.500000 0.649952 0.086403
O O6 0.750000 0.750000 0.084268
O O7 0.738385 0.620878 0.040465
O O8 0.759034 0.614215 0.122947
O O9 0.755192 0.500000 0.268328
O O10 0.000000 0.500000 0.313627
O O11 0.153045 0.500000 0.000000
O O12 0.000000 0.644643 0.000000
O O13 0.500000 0.843753 0.165664
O O14 0.250000 0.750000 0.170376
O O15 0.258227 0.914226 0.199380
O O16 0.742224 0.887646 0.500000
O O17 0.500000 0.850121 0.542110
O O18 0.750000 0.750000 0.542010
O O19 0.000000 0.500000 0.777053
#
# Coordination Sequence:
#
# PCOD9490810 Si02
#       7
#    16  16   8   8  16  16   8
#     4   9  17  30  50  72  99 135 173 213 260 313
#     4  11  22  38  59  83 112 145 181 222 266 313
#     4   9  18  34  52  75 103 135 172 212 264 328
#     4  11  24  39  56  81 115 153 188 221 260 309
#     4  10  20  37  59  84 109 141 180 221 270 323
#     4   8  13  22  38  63  93 126 165 208 253 302
#     4   9  20  36  57  79 106 140 174 214 269 332
#
# _framework density 19.711002000000001
#
# number of rings (size 3 to 8) (size 9 to 14) (size 15 to 20)
#    0.000    2.455    0.000    3.818    1.273    1.455 
#    0.000    2.273    0.000    6.000    0.000    0.000 
#    0.000   14.545    0.000    0.000    0.000    0.000 
#
# Total GULP energy -245201.943166 kJ/mol
# GULP energy per Si atom -5572.771436 kJ/mol
# Density = 1.966614 g / cm^3
# Si number density = 19.711002 Si / 1000 Ang^3
#
#
#
# Elastic Constant Matrix: (Units=GPa)
#
#
# Indices 1 2 3 4 5 6 
#
# 1 48.9686 17.3202 32.0311 0.0000 0.0000 0.0000
# 2 17.3202 89.7871 87.5419 0.0000 0.0000 0.0000
# 3 32.0311 87.5419 232.0525 0.0000 0.0000 0.0000
# 4 0.0000 0.0000 0.0000 62.9912 0.0000 0.0000
# 5 0.0000 0.0000 0.0000 0.0000 20.3109 0.0000
# 6 0.0000 0.0000 0.0000 0.0000 0.0000 13.9316
#
#
#
# Elastic Compliance Matrix: (Units=1/GPa)
#
#
# Indices 1 2 3 4 5 6 
#
# 1 0.022694 -0.002094 -0.002343 0.000000 0.000000 0.000000
# 2 -0.002094 0.017811 -0.006430 0.000000 0.000000 0.000000
# 3 -0.002343 -0.006430 0.007058 0.000000 0.000000 0.000000
# 4 0.000000 0.000000 0.000000 0.015875 0.000000 0.000000
# 5 0.000000 0.000000 0.000000 0.000000 0.049235 0.000000
# 6 0.000000 0.000000 0.000000 0.000000 0.000000 0.071779
#
#
# Mechanical properties :
#
#
# Convention : Reuss Voigt Hill
#
# Bulk Modulus (GPa) = 38.71403 71.62163 55.16783
# Shear Modulus (GPa) = 23.27798 35.04109 29.15953
#
# Velocity S-wave (km/s) = 3.44024 4.22090 3.85041
# Velocity P-wave (km/s) = 5.95515 7.75690 6.91496
#
# Compressibility (1/GPa) = 0.02583043
#
# Stress axis : x y z
#
# Youngs Moduli (GPa) = 44.06416 56.14636 141.67325
#
# Poissons Ratio (x) = 0.11755 0.33191
# Poissons Ratio (y) = 0.09225 0.91097
# Poissons Ratio (z) = 0.10323 0.36102
#
# Static dielectric constant tensor:
#      x y z
#    x 1.698040 0.000000 0.000000 
#    y 0.000000 1.639030 0.000000 
#    z 0.000000 0.000000 1.801270 
# 
# From -- ./inp_files/76716.got.cif
#   From: 2010.05.17/outbox.cif.g08.bks.cpg/sg65_39_cif.got.tgz:76716.got - 2010.06.03 17:01:31.
