data_PCOD9490638
_publ_section_title
;
Structure prediction by ZEFSAII (Michael W. Deem and Ramdas Pophale) SiO2 
 PCOD9490638
Probable space group: C M M M
;
_chemical_formula_sum "Si O2"
_cell_formula_units_Z 92
_cell_length_a 19.447416
_cell_length_b 9.472798
_cell_length_c 27.903250
_cell_angle_alpha 90.000000
_cell_angle_beta 90.000000
_cell_angle_gamma 90.000000
_cell_volume 5140.376990
_symmetry_space_group_name_H-M "C M M M"
_symmetry_group_IT_number 65
_symmetry_cell_setting 'orthorhombic'
loop_
_space_group_symop_operation_xyz
x,y,z
-x,-y,z
x,-y,-z
-x,y,-z
-x,-y,-z
x,y,-z
-x,y,z
x,-y,z
1/2+x,1/2+y,z
1/2-x,1/2-y,z
1/2+x,1/2-y,-z
1/2-x,1/2+y,-z
1/2-x,1/2-y,-z
1/2+x,1/2+y,-z
1/2-x,1/2+y,z
1/2+x,1/2-y,z
loop_
_atom_site_type_symbol
_atom_site_label
_atom_site_fract_x
_atom_site_fract_y
_atom_site_fract_z
Si Si1 0.422703 0.829502 0.401133
Si Si2 0.251686 0.500000 0.500000
Si Si3 0.321741 0.168911 0.315290
Si Si4 0.419422 0.833828 0.775359
Si Si5 0.678903 0.833433 0.943193
Si Si6 0.361472 0.751056 0.500000
Si Si7 0.417842 0.334745 0.127726
O O1 0.500000 0.795211 0.384574
O O2 0.365410 0.789179 0.362191
O O3 0.406701 0.761490 0.452115
O O4 0.419245 0.000000 0.406243
O O5 0.311997 0.619245 0.500000
O O6 0.191075 0.619458 0.500000
O O7 0.250000 0.250000 0.312819
O O8 0.369498 0.195579 0.269027
O O9 0.309630 0.000000 0.317742
O O10 0.500000 0.813726 0.762226
O O11 0.403434 0.735243 0.820585
O O12 0.411678 0.000000 0.788442
O O13 0.750000 0.750000 0.934532
O O14 0.621390 0.756028 0.911984
O O15 0.684983 0.000000 0.931335
O O16 0.663808 0.823021 0.000000
O O17 0.500000 0.326369 0.120367
O O18 0.397960 0.500000 0.126351
#
# Coordination Sequence:
#
# PCOD9490638 Si02
#       7
#    16   4  16  16  16   8  16
#     4  10  20  36  59  84 110 144 188 227 269 328
#     4  10  24  34  56  86 116 144 182 224 280 322
#     4  10  22  36  56  82 110 141 180 227 277 330
#     4   9  18  36  58  78 104 141 185 229 275 326
#     4  10  21  37  57  82 113 150 190 233 281 333
#     4  11  21  37  58  83 113 150 180 226 275 330
#     4  10  21  36  57  84 114 149 187 231 280 332
#
# _framework density 17.897521000000001
#
# number of rings (size 3 to 8) (size 9 to 14) (size 15 to 20)
#    0.000    2.087    0.870    1.826    2.435    6.609 
#    0.000    4.348    0.000    1.043    0.000    0.000 
#    0.000    0.000    0.000    0.000    0.000    0.000 
#
# Total GULP energy -256181.611834 kJ/mol
# GULP energy per Si atom -5569.165475 kJ/mol
# Density = 1.785679 g / cm^3
# Si number density = 17.897521 Si / 1000 Ang^3
#
#
#
# Elastic Constant Matrix: (Units=GPa)
#
#
# Indices 1 2 3 4 5 6 
#
# 1 101.1690 58.0154 65.0840 0.0000 0.0000 0.0000
# 2 58.0154 115.6283 64.7887 0.0000 0.0000 0.0000
# 3 65.0840 64.7887 100.8015 0.0000 0.0000 0.0000
# 4 0.0000 0.0000 0.0000 21.5162 0.0000 0.0000
# 5 0.0000 0.0000 0.0000 0.0000 -99.7766 0.0000
# 6 0.0000 0.0000 0.0000 0.0000 0.0000 40.1603
#
#
#
# Elastic Compliance Matrix: (Units=1/GPa)
#
#
# Indices 1 2 3 4 5 6 
#
# 1 0.017983 -0.003934 -0.009083 0.000000 0.000000 0.000000
# 2 -0.003934 0.014376 -0.006700 0.000000 0.000000 0.000000
# 3 -0.009083 -0.006700 0.020092 0.000000 0.000000 0.000000
# 4 0.000000 0.000000 0.000000 0.046477 0.000000 0.000000
# 5 0.000000 0.000000 0.000000 0.000000 -0.010022 0.000000
# 6 0.000000 0.000000 0.000000 0.000000 0.000000 0.024900
#
#
# Mechanical properties :
#
#
# Convention : Reuss Voigt Hill
#
# Bulk Modulus (GPa) = 76.82016 77.04168 76.93092
# Shear Modulus (GPa) = 31.73003 1.02735 16.37869
#
# Velocity S-wave (km/s) = 4.21512 0.75846 3.02841
# Velocity P-wave (km/s) = 8.16732 6.62620 7.43678
#
# Compressibility (1/GPa) = 0.01301742
#
# Stress axis : x y z
#
# Youngs Moduli (GPa) = 55.60662 69.55808 49.77188
#
# Poissons Ratio (x) = 0.27362 0.45208
# Poissons Ratio (y) = 0.21874 0.33349
# Poissons Ratio (z) = 0.50507 0.46607
#
# Static dielectric constant tensor:
#      x y z
#    x 1.588980 0.000000 0.000000 
#    y 0.000000 1.592880 0.000000 
#    z 0.000000 0.000000 1.603350 
# 
# From -- ./inp_files/75428.got.cif
#   From: 2010.05.17/outbox.cif.g08.bks.cpg/sg65_38_cif.got.tgz:75428.got - 2010.06.03 17:01:31.
