data_PCOD9490804
_publ_section_title
;
Structure prediction by ZEFSAII (Michael W. Deem and Ramdas Pophale) SiO2 
 PCOD9490804
Probable space group: C M M M
;
_chemical_formula_sum "Si O2"
_cell_formula_units_Z 68
_cell_length_a 19.019981
_cell_length_b 24.001921
_cell_length_c 7.282476
_cell_angle_alpha 90.000000
_cell_angle_beta 90.000000
_cell_angle_gamma 90.000000
_cell_volume 3324.567406
_symmetry_space_group_name_H-M "C M M M"
_symmetry_group_IT_number 65
_symmetry_cell_setting 'orthorhombic'
loop_
_space_group_symop_operation_xyz
x,y,z
-x,-y,z
x,-y,-z
-x,y,-z
-x,-y,-z
x,y,-z
-x,y,z
x,-y,z
1/2+x,1/2+y,z
1/2-x,1/2-y,z
1/2+x,1/2-y,-z
1/2-x,1/2+y,-z
1/2-x,1/2-y,-z
1/2+x,1/2+y,-z
1/2-x,1/2+y,z
1/2+x,1/2-y,z
loop_
_atom_site_type_symbol
_atom_site_label
_atom_site_fract_x
_atom_site_fract_y
_atom_site_fract_z
Si Si1 0.922305 0.880520 0.000000
Si Si2 0.080686 0.292304 0.723276
Si Si3 0.244792 0.500000 0.722055
Si Si4 0.690051 0.878384 0.277887
Si Si5 0.871466 0.000000 0.000000
Si Si6 0.667978 0.316630 0.720319
O O1 0.918650 0.946122 0.000000
O O2 0.882104 0.860038 0.820132
O O3 0.000000 0.857288 0.000000
O O4 0.078650 0.291607 0.500000
O O5 0.117289 0.350055 0.781095
O O6 0.134762 0.242824 0.775138
O O7 0.000000 0.284779 0.784796
O O8 0.252629 0.500000 0.500000
O O9 0.206359 0.557980 0.776520
O O10 0.319112 0.500000 0.825233
O O11 0.689573 0.879030 0.500000
O O12 0.753748 0.836336 0.225546
O O13 0.665134 0.319376 0.500000
#
# Coordination Sequence:
#
# PCOD9490804 Si02
#       6
#     8  16   8  16   4  16
#     4  12  25  38  56  85 115 147 187 230 281 337
#     4   9  17  31  54  85 118 150 184 229 285 334
#     4  10  20  37  60  83 108 145 193 235 273 323
#     4   9  17  32  56  82 110 148 193 233 273 328
#     4  12  23  40  58  78 113 148 182 238 283 324
#     4  10  20  37  59  82 113 151 187 227 275 333
#
# _framework density 20.453790000000001
#
# number of rings (size 3 to 8) (size 9 to 14) (size 15 to 20)
#    0.000    2.118    2.353    1.588    0.000    4.235 
#    0.000    4.118    0.000    5.647    0.000    0.824 
#    0.000    0.000    0.000    0.000    0.000    0.000 
#
# Total GULP energy -189676.745800 kJ/mol
# GULP energy per Si atom -5578.727818 kJ/mol
# Density = 2.040724 g / cm^3
# Si number density = 20.453790 Si / 1000 Ang^3
#
#
#
# Elastic Constant Matrix: (Units=GPa)
#
#
# Indices 1 2 3 4 5 6 
#
# 1 112.6675 80.2971 7.9936 0.0000 0.0000 0.0000
# 2 80.2971 131.0050 10.5932 0.0000 0.0000 0.0000
# 3 7.9936 10.5932 75.0825 0.0000 0.0000 0.0000
# 4 0.0000 0.0000 0.0000 -127.6189 0.0000 0.0000
# 5 0.0000 0.0000 0.0000 0.0000 -92.7601 0.0000
# 6 0.0000 0.0000 0.0000 0.0000 0.0000 105.1245
#
#
#
# Elastic Compliance Matrix: (Units=1/GPa)
#
#
# Indices 1 2 3 4 5 6 
#
# 1 0.015768 -0.009639 -0.000319 0.000000 0.000000 0.000000
# 2 -0.009639 0.013614 -0.000895 0.000000 0.000000 0.000000
# 3 -0.000319 -0.000895 0.013479 0.000000 0.000000 0.000000
# 4 0.000000 0.000000 0.000000 -0.007836 0.000000 0.000000
# 5 0.000000 0.000000 0.000000 0.000000 -0.010780 0.000000
# 6 0.000000 0.000000 0.000000 0.000000 0.000000 0.009513
#
#
# Mechanical properties :
#
#
# Convention : Reuss Voigt Hill
#
# Bulk Modulus (GPa) = 47.26800 57.39140 52.32970
# Shear Modulus (GPa) = 79.98399 -8.39283 35.79558
#
# Velocity S-wave (km/s) = 6.26016 -2.02786 4.18792
# Velocity P-wave (km/s) = 8.68405 4.75784 7.00177
#
# Compressibility (1/GPa) = 0.02115596
#
# Stress axis : x y z
#
# Youngs Moduli (GPa) = 63.42050 73.45624 74.19047
#
# Poissons Ratio (x) = 0.70803 0.02365
# Poissons Ratio (y) = 0.61130 0.06636
# Poissons Ratio (z) = 0.02022 0.06571
#
# Static dielectric constant tensor:
#      x y z
#    x 1.688820 0.000000 0.000000 
#    y 0.000000 1.733280 0.000000 
#    z 0.000000 0.000000 1.763120 
# 
# From -- ./inp_files/9304.got.cif
#   From: 2010.05.17/outbox.cif.g08.bks.cpg/sg65_5_cif.got.tgz:9304.got - 2010.06.03 17:01:31.
