data_PCOD9490791
_publ_section_title
;
Structure prediction by ZEFSAII (Michael W. Deem and Ramdas Pophale) SiO2 
 PCOD9490791
Probable space group: C M M M
;
_chemical_formula_sum "Si O2"
_cell_formula_units_Z 96
_cell_length_a 22.872932
_cell_length_b 15.451326
_cell_length_c 14.731340
_cell_angle_alpha 90.000000
_cell_angle_beta 90.000000
_cell_angle_gamma 90.000000
_cell_volume 5206.307888
_symmetry_space_group_name_H-M "C M M M"
_symmetry_group_IT_number 65
_symmetry_cell_setting 'orthorhombic'
loop_
_space_group_symop_operation_xyz
x,y,z
-x,-y,z
x,-y,-z
-x,y,-z
-x,-y,-z
x,y,-z
-x,y,z
x,-y,z
1/2+x,1/2+y,z
1/2-x,1/2-y,z
1/2+x,1/2-y,-z
1/2-x,1/2+y,-z
1/2-x,1/2-y,-z
1/2+x,1/2+y,-z
1/2-x,1/2+y,z
1/2+x,1/2-y,z
loop_
_atom_site_type_symbol
_atom_site_label
_atom_site_fract_x
_atom_site_fract_y
_atom_site_fract_z
Si Si1 0.625781 0.599044 0.892277
Si Si2 0.000000 0.130080 0.806976
Si Si3 0.181273 0.254663 0.223440
Si Si4 0.500000 0.835994 0.836741
Si Si5 0.897491 0.270721 0.598860
Si Si6 0.500000 0.368860 0.601231
Si Si7 0.500000 0.901699 0.637682
Si Si8 0.624194 0.899225 0.104132
O O1 0.646641 0.500000 0.877861
O O2 0.558357 0.603467 0.859825
O O3 0.659514 0.670992 0.833570
O O4 0.629429 0.618261 0.000000
O O5 0.000000 0.235668 0.805704
O O6 0.000000 0.094327 0.703725
O O7 0.250000 0.250000 0.238918
O O8 0.145680 0.262402 0.317168
O O9 0.164490 0.339711 0.166036
O O10 0.500000 0.893112 0.746232
O O11 0.440997 0.859206 0.889076
O O12 0.868331 0.273103 0.500000
O O13 0.942125 0.190282 0.601585
O O14 0.941640 0.351849 0.607078
O O15 0.500000 0.410649 0.500000
O O16 0.500000 0.000000 0.608526
O O17 0.622489 0.000000 0.131934
O O18 0.643738 0.895109 0.000000
#
# Coordination Sequence:
#
# PCOD9490791 Si02
#       8
#    16   8  16   8  16   8   8  16
#     4  11  24  41  62  89 120 155 197 247 301 358
#     4  12  18  36  62  91 121 155 189 240 305 361
#     4  12  25  42  62  84 113 160 211 252 294 341
#     4  12  19  32  59  92 125 159 187 231 295 365
#     4  10  20  37  58  86 118 151 191 237 297 361
#     4   9  15  30  60  87 112 143 182 234 297 358
#     4  11  18  31  58  92 127 156 185 231 298 367
#     4  11  23  38  59  89 124 160 195 238 297 362
#
# _framework density 18.439171000000002
#
# number of rings (size 3 to 8) (size 9 to 14) (size 15 to 20)
#    0.000    1.000    6.667    2.750    0.000    5.000 
#    0.000    1.667    0.000    2.500    0.000    2.333 
#    0.000    0.000    0.000    0.000    0.000    0.000 
#
# Total GULP energy -268011.023429 kJ/mol
# GULP energy per Si atom -5583.562988 kJ/mol
# Density = 1.839720 g / cm^3
# Si number density = 18.439171 Si / 1000 Ang^3
#
#
#
# Elastic Constant Matrix: (Units=GPa)
#
#
# Indices 1 2 3 4 5 6 
#
# 1 117.3618 50.1882 58.4058 0.0000 0.0000 0.0000
# 2 50.1882 136.3833 66.0560 0.0000 0.0000 0.0000
# 3 58.4058 66.0560 164.4688 0.0000 0.0000 0.0000
# 4 0.0000 0.0000 0.0000 -26.1955 0.0000 0.0000
# 5 0.0000 0.0000 0.0000 0.0000 -22.2381 0.0000
# 6 0.0000 0.0000 0.0000 0.0000 0.0000 4.3578
#
#
#
# Elastic Compliance Matrix: (Units=1/GPa)
#
#
# Indices 1 2 3 4 5 6 
#
# 1 0.011097 -0.002700 -0.002856 0.000000 0.000000 0.000000
# 2 -0.002700 0.009760 -0.002961 0.000000 0.000000 0.000000
# 3 -0.002856 -0.002961 0.008284 0.000000 0.000000 0.000000
# 4 0.000000 0.000000 0.000000 -0.038175 0.000000 0.000000
# 5 0.000000 0.000000 0.000000 0.000000 -0.044968 0.000000
# 6 0.000000 0.000000 0.000000 0.000000 0.000000 0.229474
#
#
# Mechanical properties :
#
#
# Convention : Reuss Voigt Hill
#
# Bulk Modulus (GPa) = 82.60573 85.27932 83.94252
# Shear Modulus (GPa) = 25.43983 7.42243 16.43113
#
# Velocity S-wave (km/s) = 3.71841 2.00851 2.98837
# Velocity P-wave (km/s) = 7.95812 7.19223 7.58485
#
# Compressibility (1/GPa) = 0.01210570
#
# Stress axis : x y z
#
# Youngs Moduli (GPa) = 90.11656 102.45797 120.71856
#
# Poissons Ratio (x) = 0.27665 0.34479
# Poissons Ratio (y) = 0.24333 0.35746
# Poissons Ratio (z) = 0.25739 0.30339
#
# Static dielectric constant tensor:
#      x y z
#    x 1.614800 0.000000 0.000000 
#    y 0.000000 1.659010 0.000000 
#    z 0.000000 0.000000 1.658710 
# 
# From -- ./inp_files/44207.got.cif
#   From: 2010.05.17/outbox.cif.g08.bks.cpg/sg65_23_cif.got.tgz:44207.got - 2010.06.03 17:01:31.
