data_PCOD9490773
_publ_section_title
;
Structure prediction by ZEFSAII (Michael W. Deem and Ramdas Pophale) SiO2 
 PCOD9490773
Probable space group: C M M M
;
_chemical_formula_sum "Si O2"
_cell_formula_units_Z 88
_cell_length_a 28.471423
_cell_length_b 14.274666
_cell_length_c 11.918111
_cell_angle_alpha 90.000000
_cell_angle_beta 90.000000
_cell_angle_gamma 90.000000
_cell_volume 4843.759315
_symmetry_space_group_name_H-M "C M M M"
_symmetry_group_IT_number 65
_symmetry_cell_setting 'orthorhombic'
loop_
_space_group_symop_operation_xyz
x,y,z
-x,-y,z
x,-y,-z
-x,y,-z
-x,-y,-z
x,y,-z
-x,y,z
x,-y,z
1/2+x,1/2+y,z
1/2-x,1/2-y,z
1/2+x,1/2-y,-z
1/2-x,1/2+y,-z
1/2-x,1/2-y,-z
1/2+x,1/2+y,-z
1/2-x,1/2+y,z
1/2+x,1/2-y,z
loop_
_atom_site_type_symbol
_atom_site_label
_atom_site_fract_x
_atom_site_fract_y
_atom_site_fract_z
Si Si1 0.054657 0.363964 0.000000
Si Si2 0.364208 0.894393 0.174964
Si Si3 0.300048 0.721089 0.872983
Si Si4 0.000000 0.394005 0.634949
Si Si5 0.905246 0.713792 0.633391
Si Si6 0.445419 0.360718 0.000000
Si Si7 0.616344 0.606716 0.222502
O O1 0.086297 0.392695 0.892853
O O2 0.053949 0.251694 0.000000
O O3 0.000000 0.394784 0.000000
O O4 0.331107 0.815510 0.122350
O O5 0.370631 0.856723 0.301428
O O6 0.346125 0.000000 0.169557
O O7 0.250000 0.750000 0.821767
O O8 0.331987 0.644270 0.811759
O O9 0.291474 0.687510 0.000000
O O10 0.044927 0.332582 0.662159
O O11 0.000000 0.500000 0.681894
O O12 0.000000 0.403672 0.500000
O O13 0.898644 0.716506 0.500000
O O14 0.901654 0.816187 0.688775
O O15 0.416577 0.389309 0.111220
O O16 0.500000 0.392114 0.000000
O O17 0.617084 0.500000 0.263161
#
# Coordination Sequence:
#
# PCOD9490773 Si02
#       7
#     8  16  16   8  16   8  16
#     4  11  21  35  55  81 119 156 185 223 276 334
#     4  11  21  35  56  84 115 147 186 228 277 339
#     4  10  20  37  57  83 118 148 178 227 288 345
#     4   9  18  34  55  78 107 148 197 238 277 328
#     4  10  22  38  54  79 114 152 194 239 278 325
#     4  11  21  37  57  81 115 154 194 232 275 331
#     4  11  22  38  60  85 113 150 195 238 285 339
#
# _framework density 18.167708000000001
#
# number of rings (size 3 to 8) (size 9 to 14) (size 15 to 20)
#    0.000    1.545    5.455    1.091    2.545    3.636 
#    0.000    1.818    0.000   10.364    0.000   10.182 
#    0.000    0.000    0.000    0.000    0.000    0.000 
#
# Total GULP energy -245327.128819 kJ/mol
# GULP energy per Si atom -5575.616564 kJ/mol
# Density = 1.812636 g / cm^3
# Si number density = 18.167708 Si / 1000 Ang^3
#
#
#
# Elastic Constant Matrix: (Units=GPa)
#
#
# Indices 1 2 3 4 5 6 
#
# 1 95.6743 14.7379 16.1723 0.0000 0.0000 0.0000
# 2 14.7379 127.7816 12.4981 0.0000 0.0000 0.0000
# 3 16.1723 12.4981 91.1501 0.0000 0.0000 0.0000
# 4 0.0000 0.0000 0.0000 -24.1400 0.0000 0.0000
# 5 0.0000 0.0000 0.0000 0.0000 16.8186 0.0000
# 6 0.0000 0.0000 0.0000 0.0000 0.0000 4.3019
#
#
#
# Elastic Compliance Matrix: (Units=1/GPa)
#
#
# Indices 1 2 3 4 5 6 
#
# 1 0.010922 -0.001085 -0.001789 0.000000 0.000000 0.000000
# 2 -0.001085 0.008040 -0.000910 0.000000 0.000000 0.000000
# 3 -0.001789 -0.000910 0.011413 0.000000 0.000000 0.000000
# 4 0.000000 0.000000 0.000000 -0.041425 0.000000 0.000000
# 5 0.000000 0.000000 0.000000 0.000000 0.059458 0.000000
# 6 0.000000 0.000000 0.000000 0.000000 0.000000 0.232456
#
#
# Mechanical properties :
#
#
# Convention : Reuss Voigt Hill
#
# Bulk Modulus (GPa) = 43.84554 44.60250 44.22402
# Shear Modulus (GPa) = 16.88998 17.47594 17.18296
#
# Velocity S-wave (km/s) = 3.05236 3.10485 3.07872
# Velocity P-wave (km/s) = 6.05051 6.12023 6.08547
#
# Compressibility (1/GPa) = 0.02280734
#
# Stress axis : x y z
#
# Youngs Moduli (GPa) = 91.56149 124.37879 87.61855
#
# Poissons Ratio (x) = 0.13491 0.15675
# Poissons Ratio (y) = 0.09931 0.07973
# Poissons Ratio (z) = 0.16381 0.11318
#
# Static dielectric constant tensor:
#      x y z
#    x 1.658260 0.000000 0.000000 
#    y 0.000000 1.619700 0.000000 
#    z 0.000000 0.000000 1.643510 
# 
# From -- ./inp_files/32258.got.cif
#   From: 2010.05.17/outbox.cif.g08.bks.cpg/sg65_17_cif.got.tgz:32258.got - 2010.06.03 17:01:31.
