data_PCOD9490608
_publ_section_title
;
Structure prediction by ZEFSAII (Michael W. Deem and Ramdas Pophale) SiO2 
 PCOD9490608
Probable space group: C M M M
;
_chemical_formula_sum "Si O2"
_cell_formula_units_Z 64
_cell_length_a 18.203589
_cell_length_b 10.712836
_cell_length_c 18.159152
_cell_angle_alpha 90.000000
_cell_angle_beta 90.000000
_cell_angle_gamma 90.000000
_cell_volume 3541.253704
_symmetry_space_group_name_H-M "C M M M"
_symmetry_group_IT_number 65
_symmetry_cell_setting 'orthorhombic'
loop_
_space_group_symop_operation_xyz
x,y,z
-x,-y,z
x,-y,-z
-x,y,-z
-x,-y,-z
x,y,-z
-x,y,z
x,-y,z
1/2+x,1/2+y,z
1/2-x,1/2-y,z
1/2+x,1/2-y,-z
1/2-x,1/2+y,-z
1/2-x,1/2-y,-z
1/2+x,1/2+y,-z
1/2-x,1/2+y,z
1/2+x,1/2-y,z
loop_
_atom_site_type_symbol
_atom_site_label
_atom_site_fract_x
_atom_site_fract_y
_atom_site_fract_z
Si Si1 0.417042 0.500000 0.088887
Si Si2 0.417628 0.144746 0.778999
Si Si3 0.317756 0.846466 0.357374
Si Si4 0.582975 0.850493 0.500000
Si Si5 0.337344 0.244509 0.086703
O O1 0.500000 0.500000 0.117962
O O2 0.371877 0.377642 0.107795
O O3 0.421883 0.500000 0.000000
O O4 0.500000 0.200734 0.779944
O O5 0.362610 0.191207 0.716199
O O6 0.378924 0.153737 0.858175
O O7 0.426068 0.000000 0.760385
O O8 0.250000 0.750000 0.363058
O O9 0.370666 0.821817 0.427018
O O10 0.301152 0.000000 0.355892
O O11 0.500000 0.798023 0.500000
O O12 0.575941 0.000000 0.500000
O O13 0.250000 0.250000 0.097186
O O14 0.351080 0.218932 0.000000
#
# Coordination Sequence:
#
# PCOD9490608 Si02
#       5
#     8  16  16   8  16
#     4   9  18  34  54  74 101 138 178 222 274 334
#     4  10  21  36  54  77 107 141 179 226 277 328
#     4  10  20  36  58  84 114 146 184 228 274 326
#     4   9  17  32  59  89 114 147 188 224 266 325
#     4  10  21  35  54  78 106 139 181 229 278 333
#
# _framework density 18.072695
#
# number of rings (size 3 to 8) (size 9 to 14) (size 15 to 20)
#    0.000    2.250    0.000    2.625    1.750    5.000 
#    2.250    1.250    0.000    3.000    0.000    0.000 
#    0.000    0.000    0.000    0.000    0.000    0.000 
#
# Total GULP energy -178167.807148 kJ/mol
# GULP energy per Si atom -5567.743973 kJ/mol
# Density = 1.803156 g / cm^3
# Si number density = 18.072695 Si / 1000 Ang^3
#
#
#
# Elastic Constant Matrix: (Units=GPa)
#
#
# Indices 1 2 3 4 5 6 
#
# 1 174.3703 49.4965 71.9715 0.0000 0.0000 0.0000
# 2 49.4965 46.8736 16.0536 0.0000 0.0000 0.0000
# 3 71.9715 16.0536 92.2980 0.0000 0.0000 0.0000
# 4 0.0000 0.0000 0.0000 7.9633 0.0000 0.0000
# 5 0.0000 0.0000 0.0000 0.0000 21.5478 0.0000
# 6 0.0000 0.0000 0.0000 0.0000 0.0000 29.4789
#
#
#
# Elastic Compliance Matrix: (Units=1/GPa)
#
#
# Indices 1 2 3 4 5 6 
#
# 1 0.011464 -0.009617 -0.007267 0.000000 0.000000 0.000000
# 2 -0.009617 0.030753 0.002150 0.000000 0.000000 0.000000
# 3 -0.007267 0.002150 0.016127 0.000000 0.000000 0.000000
# 4 0.000000 0.000000 0.000000 0.125575 0.000000 0.000000
# 5 0.000000 0.000000 0.000000 0.000000 0.046408 0.000000
# 6 0.000000 0.000000 0.000000 0.000000 0.000000 0.033923
#
#
# Mechanical properties :
#
#
# Convention : Reuss Voigt Hill
#
# Bulk Modulus (GPa) = 34.63015 65.39834 50.01424
# Shear Modulus (GPa) = 16.48303 23.53270 20.00787
#
# Velocity S-wave (km/s) = 3.02328 3.61240 3.33089
# Velocity P-wave (km/s) = 5.60269 7.32557 6.52128
#
# Compressibility (1/GPa) = 0.02887657
#
# Stress axis : x y z
#
# Youngs Moduli (GPa) = 87.22922 32.51768 62.00836
#
# Poissons Ratio (x) = 0.31272 0.45059
# Poissons Ratio (y) = 0.83886 -0.13332
# Poissons Ratio (z) = 0.63387 -0.06991
#
# Static dielectric constant tensor:
#      x y z
#    x 1.642820 0.000000 0.000000 
#    y 0.000000 1.561950 0.000000 
#    z 0.000000 0.000000 1.609830 
# 
# From -- ./inp_files/37764.got.cif
#   From: 2010.05.17/outbox.cif.g08.bks.cpg/sg65_19_cif.got.tgz:37764.got - 2010.06.03 17:01:31.
