data_PCOD9490189
_publ_section_title
;
Structure prediction by ZEFSAII (Michael W. Deem and Ramdas Pophale) SiO2 
 PCOD9490189
Probable space group: C M M M
;
_chemical_formula_sum "Si O2"
_cell_formula_units_Z 116
_cell_length_a 19.790598
_cell_length_b 16.718155
_cell_length_c 19.415457
_cell_angle_alpha 90.000000
_cell_angle_beta 90.000000
_cell_angle_gamma 90.000000
_cell_volume 6423.842466
_symmetry_space_group_name_H-M "C M M M"
_symmetry_group_IT_number 65
_symmetry_cell_setting 'orthorhombic'
loop_
_space_group_symop_operation_xyz
x,y,z
-x,-y,z
x,-y,-z
-x,y,-z
-x,-y,-z
x,y,-z
-x,y,z
x,-y,z
1/2+x,1/2+y,z
1/2-x,1/2-y,z
1/2+x,1/2-y,-z
1/2-x,1/2+y,-z
1/2-x,1/2-y,-z
1/2+x,1/2+y,-z
1/2-x,1/2+y,z
1/2+x,1/2-y,z
loop_
_atom_site_type_symbol
_atom_site_label
_atom_site_fract_x
_atom_site_fract_y
_atom_site_fract_z
Si Si1 0.577991 0.647927 0.698545
Si Si2 0.080484 0.642957 0.893296
Si Si3 0.289890 0.903903 0.318018
Si Si4 0.176506 0.791002 0.924008
Si Si5 0.923099 0.335055 0.732093
Si Si6 0.671765 0.596809 0.580288
Si Si7 0.112074 0.500000 0.000000
Si Si8 0.688451 0.591067 0.201295
O O1 0.500000 0.624183 0.696674
O O2 0.582016 0.738820 0.726756
O O3 0.612824 0.638502 0.624163
O O4 0.623418 0.595127 0.749304
O O5 0.120330 0.723065 0.913254
O O6 0.088500 0.635014 0.810552
O O7 0.000000 0.649228 0.906723
O O8 0.107702 0.570239 0.939400
O O9 0.364711 0.870048 0.315694
O O10 0.242331 0.881388 0.382170
O O11 0.249713 0.877021 0.249021
O O12 0.292264 0.000000 0.315946
O O13 0.250000 0.750000 0.921047
O O14 0.174996 0.855723 0.864468
O O15 0.168347 0.826944 0.000000
O O16 0.000000 0.356978 0.712853
O O17 0.671276 0.616870 0.500000
O O18 0.664002 0.500000 0.586884
O O19 0.703560 0.500000 0.182030
#
# Coordination Sequence:
#
# PCOD9490189 Si02
#       8
#    16  16  16  16  16  16   4  16
#     4  10  20  35  56  84 117 151 188 236 289 344
#     4  11  22  39  60  83 114 151 190 242 303 360
#     4   9  19  36  57  81 112 148 189 238 285 342
#     4  11  23  39  55  79 113 151 191 238 299 354
#     4  10  21  35  55  83 112 146 189 236 289 345
#     4   9  19  36  59  87 116 150 190 232 283 342
#     4  12  25  40  62  92 120 150 199 256 313 370
#     4  10  21  36  56  80 108 149 197 238 284 349
#
# _framework density 18.057728000000001
#
# number of rings (size 3 to 8) (size 9 to 14) (size 15 to 20)
#    0.000    1.931    2.069    2.690    0.966    3.586 
#    1.241    2.069    0.000    1.241    0.000    3.862 
#    0.000    0.000    0.000    0.000    0.000    0.000 
#
# Total GULP energy -323160.003221 kJ/mol
# GULP energy per Si atom -5571.724193 kJ/mol
# Density = 1.801663 g / cm^3
# Si number density = 18.057728 Si / 1000 Ang^3
#
#
#
# Elastic Constant Matrix: (Units=GPa)
#
#
# Indices 1 2 3 4 5 6 
#
# 1 79.4521 10.7631 28.1072 0.0000 0.0000 0.0000
# 2 10.7631 48.1250 39.3302 0.0000 0.0000 0.0000
# 3 28.1072 39.3302 114.5860 0.0000 0.0000 0.0000
# 4 0.0000 0.0000 0.0000 19.4453 0.0000 0.0000
# 5 0.0000 0.0000 0.0000 0.0000 0.7460 0.0000
# 6 0.0000 0.0000 0.0000 0.0000 0.0000 0.0668
#
#
#
# Elastic Compliance Matrix: (Units=1/GPa)
#
#
# Indices 1 2 3 4 5 6 
#
# 1 0.013789 -0.000444 -0.003230 0.000000 0.000000 0.000000
# 2 -0.000444 0.028895 -0.009809 0.000000 0.000000 0.000000
# 3 -0.003230 -0.009809 0.012886 0.000000 0.000000 0.000000
# 4 0.000000 0.000000 0.000000 0.051426 0.000000 0.000000
# 5 0.000000 0.000000 0.000000 0.000000 1.340413 0.000000
# 6 0.000000 0.000000 0.000000 0.000000 0.000000 14.965511
#
#
# Mechanical properties :
#
#
# Convention : Reuss Voigt Hill
#
# Bulk Modulus (GPa) = 34.96015 44.28492 39.62253
# Shear Modulus (GPa) = 0.30396 14.98246 7.64321
#
# Velocity S-wave (km/s) = 0.41072 2.88357 2.05957
# Velocity P-wave (km/s) = 4.43026 5.97193 5.25791
#
# Compressibility (1/GPa) = 0.02860400
#
# Stress axis : x y z
#
# Youngs Moduli (GPa) = 72.52166 34.60825 77.60300
#
# Poissons Ratio (x) = 0.01538 0.25065
# Poissons Ratio (y) = 0.03222 0.76119
# Poissons Ratio (z) = 0.23424 0.33947
#
# Static dielectric constant tensor:
#      x y z
#    x 1.623770 0.000000 0.000000 
#    y 0.000000 1.612650 0.000000 
#    z 0.000000 0.000000 1.616530 
# 
# From -- ./inp_files/54674.got.cif
#   From: 2010.05.17/outbox.cif.g08.bks.cpg/sg65_28_cif.got.tgz:54674.got - 2010.06.03 17:01:31.
