data_PCOD9490501
_publ_section_title
;
Structure prediction by ZEFSAII (Michael W. Deem and Ramdas Pophale) SiO2 
 PCOD9490501
Probable space group: C M M M
;
_chemical_formula_sum "Si O2"
_cell_formula_units_Z 72
_cell_length_a 7.823122
_cell_length_b 16.817583
_cell_length_c 25.517735
_cell_angle_alpha 90.000000
_cell_angle_beta 90.000000
_cell_angle_gamma 90.000000
_cell_volume 3357.266414
_symmetry_space_group_name_H-M "C M M M"
_symmetry_group_IT_number 65
_symmetry_cell_setting 'orthorhombic'
loop_
_space_group_symop_operation_xyz
x,y,z
-x,-y,z
x,-y,-z
-x,y,-z
-x,-y,-z
x,y,-z
-x,y,z
x,-y,z
1/2+x,1/2+y,z
1/2-x,1/2-y,z
1/2+x,1/2-y,-z
1/2-x,1/2+y,-z
1/2-x,1/2-y,-z
1/2+x,1/2+y,-z
1/2-x,1/2+y,z
1/2+x,1/2-y,z
loop_
_atom_site_type_symbol
_atom_site_label
_atom_site_fract_x
_atom_site_fract_y
_atom_site_fract_z
Si Si1 0.208847 0.000000 0.439237
Si Si2 0.202919 0.340452 0.833463
Si Si3 0.705487 0.338362 0.380803
Si Si4 0.207783 0.593790 0.056939
Si Si5 0.295448 0.588219 0.276376
O O1 0.265187 0.917174 0.412093
O O2 0.257803 0.000000 0.500000
O O3 0.000000 0.000000 0.436286
O O4 0.250000 0.250000 0.823143
O O5 0.274102 0.365803 0.890269
O O6 0.259412 0.390456 0.783439
O O7 0.000000 0.348735 0.836576
O O8 0.500000 0.341553 0.381628
O O9 0.750000 0.250000 0.400134
O O10 0.767727 0.350900 0.320661
O O11 0.246723 0.500000 0.059717
O O12 0.000000 0.600433 0.056659
O O13 0.268286 0.624286 0.000000
O O14 0.500000 0.586104 0.281705
O O15 0.228917 0.500000 0.288234
#
# Coordination Sequence:
#
# PCOD9490501 Si02
#       5
#     8  16  16  16  16
#     4   9  18  36  61  85 113 153 196 231 272 332
#     4  11  22  34  50  76 107 139 178 222 269 325
#     4  10  20  36  58  85 115 150 190 232 279 333
#     4   8  15  30  51  72  95 127 169 217 268 322
#     4  10  20  36  57  79 108 144 181 224 277 335
#
# _framework density 21.446017999999999
#
# number of rings (size 3 to 8) (size 9 to 14) (size 15 to 20)
#    0.000    2.333    1.111    2.667    0.000    4.889 
#    0.000    0.556    0.000    2.667    0.000    7.778 
#    0.000    0.000    0.000    0.000    0.000    0.000 
#
# Total GULP energy -200846.680269 kJ/mol
# GULP energy per Si atom -5579.074452 kJ/mol
# Density = 2.139721 g / cm^3
# Si number density = 21.446018 Si / 1000 Ang^3
#
#
#
# Elastic Constant Matrix: (Units=GPa)
#
#
# Indices 1 2 3 4 5 6 
#
# 1 24.1669 9.1738 12.2900 0.0000 0.0000 0.0000
# 2 9.1738 133.3229 63.3593 0.0000 0.0000 0.0000
# 3 12.2900 63.3593 133.8582 0.0000 0.0000 0.0000
# 4 0.0000 0.0000 0.0000 19.0272 0.0000 0.0000
# 5 0.0000 0.0000 0.0000 0.0000 20.5411 0.0000
# 6 0.0000 0.0000 0.0000 0.0000 0.0000 8.5844
#
#
#
# Elastic Compliance Matrix: (Units=1/GPa)
#
#
# Indices 1 2 3 4 5 6 
#
# 1 0.043612 -0.001417 -0.003334 0.000000 0.000000 0.000000
# 2 -0.001417 0.009723 -0.004472 0.000000 0.000000 0.000000
# 3 -0.003334 -0.004472 0.009894 0.000000 0.000000 0.000000
# 4 0.000000 0.000000 0.000000 0.052556 0.000000 0.000000
# 5 0.000000 0.000000 0.000000 0.000000 0.048683 0.000000
# 6 0.000000 0.000000 0.000000 0.000000 0.000000 0.116490
#
#
# Mechanical properties :
#
#
# Convention : Reuss Voigt Hill
#
# Bulk Modulus (GPa) = 22.32955 51.22160 36.77558
# Shear Modulus (GPa) = 15.90677 23.39886 19.65281
#
# Velocity S-wave (km/s) = 2.72639 3.30670 3.03047
# Velocity P-wave (km/s) = 4.51060 6.20603 5.42496
#
# Compressibility (1/GPa) = 0.04478370
#
# Stress axis : x y z
#
# Youngs Moduli (GPa) = 22.92951 102.84385 101.07563
#
# Poissons Ratio (x) = 0.14569 0.33695
# Poissons Ratio (y) = 0.03248 0.45205
# Poissons Ratio (z) = 0.07644 0.45996
#
# Static dielectric constant tensor:
#      x y z
#    x 1.798710 0.000000 0.000000 
#    y 0.000000 1.760060 0.000000 
#    z 0.000000 0.000000 1.799480 
# 
# From -- ./inp_files/72470.got.cif
#   From: 2010.05.17/outbox.cif.g08.bks.cpg/sg65_37_cif.got.tgz:72470.got - 2010.06.03 17:01:31.
