data_PCOD9490342
_publ_section_title
;
Structure prediction by ZEFSAII (Michael W. Deem and Ramdas Pophale) SiO2 
 PCOD9490342
Probable space group: C M M M
;
_chemical_formula_sum "Si O2"
_cell_formula_units_Z 104
_cell_length_a 17.155143
_cell_length_b 21.217366
_cell_length_c 14.813056
_cell_angle_alpha 90.000000
_cell_angle_beta 90.000000
_cell_angle_gamma 90.000000
_cell_volume 5391.759041
_symmetry_space_group_name_H-M "C M M M"
_symmetry_group_IT_number 65
_symmetry_cell_setting 'orthorhombic'
loop_
_space_group_symop_operation_xyz
x,y,z
-x,-y,z
x,-y,-z
-x,y,-z
-x,-y,-z
x,y,-z
-x,y,z
x,-y,z
1/2+x,1/2+y,z
1/2-x,1/2-y,z
1/2+x,1/2-y,-z
1/2-x,1/2+y,-z
1/2-x,1/2-y,-z
1/2+x,1/2+y,-z
1/2-x,1/2+y,z
1/2+x,1/2-y,z
loop_
_atom_site_type_symbol
_atom_site_label
_atom_site_fract_x
_atom_site_fract_y
_atom_site_fract_z
Si Si1 0.856983 0.568722 0.799031
Si Si2 0.088136 0.924229 0.000000
Si Si3 0.170865 0.071980 0.186878
Si Si4 0.406726 0.101071 0.600276
Si Si5 0.906371 0.697942 0.103425
Si Si6 0.090194 0.192166 0.238249
Si Si7 0.338430 0.760106 0.602225
O O1 0.882886 0.500000 0.836470
O O2 0.763760 0.571948 0.809603
O O3 0.880117 0.569347 0.693302
O O4 0.888418 0.631382 0.847887
O O5 0.136620 0.909148 0.911012
O O6 0.000000 0.897523 0.000000
O O7 0.081089 0.000000 0.000000
O O8 0.136898 0.127332 0.247231
O O9 0.144804 0.000000 0.206757
O O10 0.392680 0.072313 0.500000
O O11 0.500000 0.110918 0.606593
O O12 0.361136 0.166966 0.600472
O O13 0.879118 0.758038 0.162738
O O14 0.000000 0.703172 0.101002
O O15 0.877227 0.698883 0.000000
O O16 0.100752 0.227605 0.332242
O O17 0.000000 0.178263 0.218380
O O18 0.341718 0.735296 0.500000
O O19 0.250000 0.750000 0.635951
#
# Coordination Sequence:
#
# PCOD9490342 Si02
#       7
#    16   8  16  16  16  16  16
#     4  11  23  39  59  83 120 162 199 244 297 357
#     4   9  18  36  60  83 111 147 194 251 298 340
#     4  10  23  39  58  87 119 154 197 245 299 358
#     4  10  20  36  59  86 117 153 199 255 305 349
#     4  10  23  40  57  84 120 157 199 240 285 349
#     4  11  22  37  62  88 116 154 193 240 292 347
#     4  10  20  35  58  87 118 152 191 240 298 356
#
# _framework density 19.288696000000002
#
# number of rings (size 3 to 8) (size 9 to 14) (size 15 to 20)
#    0.000    1.769    1.538    2.308    2.154    3.692 
#    0.000    2.308    0.000    1.385    0.000    1.077 
#    0.000    0.000    0.000    0.000    0.000    0.000 
#
# Total GULP energy -289982.641313 kJ/mol
# GULP energy per Si atom -5576.589256 kJ/mol
# Density = 1.924479 g / cm^3
# Si number density = 19.288696 Si / 1000 Ang^3
#
#
#
# Elastic Constant Matrix: (Units=GPa)
#
#
# Indices 1 2 3 4 5 6 
#
# 1 65.7352 15.2301 20.1922 0.0000 0.0000 0.0000
# 2 15.2301 110.7135 19.3050 0.0000 0.0000 0.0000
# 3 20.1922 19.3050 74.0201 0.0000 0.0000 0.0000
# 4 0.0000 0.0000 0.0000 12.3483 0.0000 0.0000
# 5 0.0000 0.0000 0.0000 0.0000 23.9322 0.0000
# 6 0.0000 0.0000 0.0000 0.0000 0.0000 27.4156
#
#
#
# Elastic Compliance Matrix: (Units=1/GPa)
#
#
# Indices 1 2 3 4 5 6 
#
# 1 0.016867 -0.001590 -0.004186 0.000000 0.000000 0.000000
# 2 -0.001590 0.009613 -0.002073 0.000000 0.000000 0.000000
# 3 -0.004186 -0.002073 0.015193 0.000000 0.000000 0.000000
# 4 0.000000 0.000000 0.000000 0.080983 0.000000 0.000000
# 5 0.000000 0.000000 0.000000 0.000000 0.041785 0.000000
# 6 0.000000 0.000000 0.000000 0.000000 0.000000 0.036476
#
#
# Mechanical properties :
#
#
# Convention : Reuss Voigt Hill
#
# Bulk Modulus (GPa) = 38.50261 39.99148 39.24705
# Shear Modulus (GPa) = 22.19533 25.78865 23.99199
#
# Velocity S-wave (km/s) = 3.39586 3.66044 3.53063
# Velocity P-wave (km/s) = 5.94814 6.21637 6.08374
#
# Compressibility (1/GPa) = 0.02597227
#
# Stress axis : x y z
#
# Youngs Moduli (GPa) = 59.28751 104.03021 65.82155
#
# Poissons Ratio (x) = 0.16544 0.27556
# Poissons Ratio (y) = 0.09428 0.13646
# Poissons Ratio (z) = 0.24820 0.21568
#
# Static dielectric constant tensor:
#      x y z
#    x 1.647810 0.000000 0.000000 
#    y 0.000000 2.430570 0.000000 
#    z 0.000000 0.000000 1.716050 
# 
# From -- ./inp_files/42841.got.cif
#   From: 2010.05.17/outbox.cif.g08.bks.cpg/sg65_22_cif.got.tgz:42841.got - 2010.06.03 17:01:31.
