data_PCOD9490728
_publ_section_title
;
Structure prediction by ZEFSAII (Michael W. Deem and Ramdas Pophale) SiO2 
 PCOD9490728
Probable space group: C M M M
;
_chemical_formula_sum "Si O2"
_cell_formula_units_Z 112
_cell_length_a 13.704793
_cell_length_b 13.879046
_cell_length_c 28.095221
_cell_angle_alpha 90.000000
_cell_angle_beta 90.000000
_cell_angle_gamma 90.000000
_cell_volume 5343.976603
_symmetry_space_group_name_H-M "C M M M"
_symmetry_group_IT_number 65
_symmetry_cell_setting 'orthorhombic'
loop_
_space_group_symop_operation_xyz
x,y,z
-x,-y,z
x,-y,-z
-x,y,-z
-x,-y,-z
x,y,-z
-x,y,z
x,-y,z
1/2+x,1/2+y,z
1/2-x,1/2-y,z
1/2+x,1/2-y,-z
1/2-x,1/2+y,-z
1/2-x,1/2-y,-z
1/2+x,1/2+y,-z
1/2-x,1/2+y,z
1/2+x,1/2-y,z
loop_
_atom_site_type_symbol
_atom_site_label
_atom_site_fract_x
_atom_site_fract_y
_atom_site_fract_z
Si Si1 0.880908 0.703927 0.299157
Si Si2 0.611476 0.699979 0.943744
Si Si3 0.113780 0.614695 0.799569
Si Si4 0.301168 0.887502 0.098006
Si Si5 0.883557 0.892119 0.346724
Si Si6 0.304790 0.617583 0.551902
Si Si7 0.390085 0.115817 0.599271
O O1 0.849488 0.664006 0.248504
O O2 0.847823 0.812581 0.309890
O O3 0.858834 0.644459 0.347209
O O4 0.000000 0.702287 0.297180
O O5 0.500000 0.678798 0.931092
O O6 0.635846 0.811654 0.932434
O O7 0.689874 0.637062 0.915186
O O8 0.625123 0.683251 0.000000
O O9 0.114862 0.500000 0.791423
O O10 0.174997 0.634297 0.846930
O O11 0.000000 0.642222 0.808368
O O12 0.323183 0.000000 0.089212
O O13 0.862741 0.856432 0.400404
O O14 0.000000 0.897584 0.341613
O O15 0.843227 0.000000 0.340677
O O16 0.338507 0.650289 0.500000
O O17 0.308313 0.500000 0.551039
O O18 0.193031 0.646951 0.562459
O O19 0.500000 0.151883 0.590312
O O20 0.393316 0.000000 0.597121
#
# Coordination Sequence:
#
# PCOD9490728 Si02
#       7
#    16  16  16  16  16  16  16
#     4   9  17  31  52  77 104 135 171 214 268 324
#     4  10  22  39  59  87 125 168 211 253 298 349
#     4   9  17  31  56  89 118 143 177 227 287 346
#     4  10  20  36  60  90 123 158 201 253 303 353
#     4   9  18  33  52  73  98 130 172 219 259 304
#     4   9  18  32  49  70  97 129 164 203 254 315
#     4   9  17  30  49  72  97 124 157 201 253 314
#
# _framework density 20.958175000000001
#
# number of rings (size 3 to 8) (size 9 to 14) (size 15 to 20)
#    0.000    2.714    0.000    1.714    0.000    5.143 
#    0.000    8.571    0.000    9.429    0.000    4.000 
#    0.000    0.000    0.000    0.000    0.000    0.000 
#
# Total GULP energy -312751.958673 kJ/mol
# GULP energy per Si atom -5584.856405 kJ/mol
# Density = 2.091047 g / cm^3
# Si number density = 20.958175 Si / 1000 Ang^3
#
#
#
# Elastic Constant Matrix: (Units=GPa)
#
#
# Indices 1 2 3 4 5 6 
#
# 1 64.0067 5.6557 39.0011 0.0000 0.0000 0.0000
# 2 5.6557 54.3515 31.0572 0.0000 0.0000 0.0000
# 3 39.0011 31.0572 118.7771 0.0000 0.0000 0.0000
# 4 0.0000 0.0000 0.0000 34.7747 0.0000 0.0000
# 5 0.0000 0.0000 0.0000 0.0000 28.3666 0.0000
# 6 0.0000 0.0000 0.0000 0.0000 0.0000 18.0827
#
#
#
# Elastic Compliance Matrix: (Units=1/GPa)
#
#
# Indices 1 2 3 4 5 6 
#
# 1 0.019703 0.001936 -0.006976 0.000000 0.000000 0.000000
# 2 0.001936 0.021821 -0.006341 0.000000 0.000000 0.000000
# 3 -0.006976 -0.006341 0.012368 0.000000 0.000000 0.000000
# 4 0.000000 0.000000 0.000000 0.028757 0.000000 0.000000
# 5 0.000000 0.000000 0.000000 0.000000 0.035253 0.000000
# 6 0.000000 0.000000 0.000000 0.000000 0.000000 0.055302
#
#
# Mechanical properties :
#
#
# Convention : Reuss Voigt Hill
#
# Bulk Modulus (GPa) = 32.12435 43.17370 37.64902
# Shear Modulus (GPa) = 24.23178 27.00622 25.61900
#
# Velocity S-wave (km/s) = 3.40398 3.59357 3.50006
# Velocity P-wave (km/s) = 5.55072 6.15329 5.85976
#
# Compressibility (1/GPa) = 0.03112904
#
# Stress axis : x y z
#
# Youngs Moduli (GPa) = 50.75419 45.82792 80.85588
#
# Poissons Ratio (x) = -0.08871 0.56402
# Poissons Ratio (y) = -0.09825 0.51272
# Poissons Ratio (z) = 0.35404 0.29060
#
# Static dielectric constant tensor:
#      x y z
#    x 1.794150 0.000000 0.000000 
#    y 0.000000 1.788950 0.000000 
#    z 0.000000 0.000000 1.702030 
# 
# From -- ./inp_files/74866.got.cif
#   From: 2010.05.17/outbox.cif.g08.bks.cpg/sg65_38_cif.got.tgz:74866.got - 2010.06.03 17:01:31.
