data_PCOD9490241
_publ_section_title
;
Structure prediction by ZEFSAII (Michael W. Deem and Ramdas Pophale) SiO2 
 PCOD9490241
Probable space group: C M M M
;
_chemical_formula_sum "Si O2"
_cell_formula_units_Z 104
_cell_length_a 8.828059
_cell_length_b 27.415930
_cell_length_c 21.480664
_cell_angle_alpha 90.000000
_cell_angle_beta 90.000000
_cell_angle_gamma 90.000000
_cell_volume 5198.953242
_symmetry_space_group_name_H-M "C M M M"
_symmetry_group_IT_number 65
_symmetry_cell_setting 'orthorhombic'
loop_
_space_group_symop_operation_xyz
x,y,z
-x,-y,z
x,-y,-z
-x,y,-z
-x,-y,-z
x,y,-z
-x,y,z
x,-y,z
1/2+x,1/2+y,z
1/2-x,1/2-y,z
1/2+x,1/2-y,-z
1/2-x,1/2+y,-z
1/2-x,1/2-y,-z
1/2+x,1/2+y,-z
1/2-x,1/2+y,z
1/2+x,1/2-y,z
loop_
_atom_site_type_symbol
_atom_site_label
_atom_site_fract_x
_atom_site_fract_y
_atom_site_fract_z
Si Si1 0.680484 0.599356 0.250241
Si Si2 0.679837 0.100683 0.622485
Si Si3 0.318283 0.554852 0.883101
Si Si4 0.171062 0.942228 0.500000
Si Si5 0.679733 0.697359 0.425896
Si Si6 0.317901 0.801770 0.198792
Si Si7 0.682262 0.153772 0.931819
O O1 0.500000 0.604172 0.256113
O O2 0.749877 0.580049 0.314131
O O3 0.712220 0.566139 0.189838
O O4 0.753246 0.652244 0.236444
O O5 0.500000 0.099092 0.624675
O O6 0.742699 0.073972 0.561703
O O7 0.738347 0.155943 0.613444
O O8 0.500000 0.557628 0.891868
O O9 0.268850 0.500000 0.899424
O O10 0.242317 0.599047 0.920119
O O11 0.000000 0.921008 0.500000
O O12 0.160391 0.000000 0.500000
O O13 0.704523 0.687687 0.500000
O O14 0.500000 0.697078 0.414652
O O15 0.750000 0.750000 0.412492
O O16 0.500000 0.800974 0.203104
O O17 0.250000 0.750000 0.218279
O O18 0.271096 0.813345 0.126934
O O19 0.500000 0.152368 0.930974
O O20 0.733045 0.171039 0.000000
#
# Coordination Sequence:
#
# PCOD9490241 Si02
#       7
#    16  16  16   8  16  16  16
#     4  10  21  38  59  82 111 148 191 234 281 338
#     4  12  24  39  61  88 119 150 186 234 289 343
#     4   9  19  36  57  81 109 143 185 234 284 333
#     4  11  25  45  66  87 114 151 193 235 283 341
#     4  10  20  35  57  83 114 147 183 222 270 329
#     4  10  20  36  57  82 114 151 193 238 283 332
#     4   9  19  35  54  80 115 152 189 230 278 334
#
# _framework density 20.004027000000001
#
# number of rings (size 3 to 8) (size 9 to 14) (size 15 to 20)
#    0.000    1.923    0.769    3.000    0.000    4.923 
#    0.000    6.154    0.000    0.000    0.000    0.000 
#    0.000    0.000    0.000    0.000    0.000    0.000 
#
# Total GULP energy -290587.370931 kJ/mol
# GULP energy per Si atom -5588.218672 kJ/mol
# Density = 1.995850 g / cm^3
# Si number density = 20.004027 Si / 1000 Ang^3
#
#
#
# Elastic Constant Matrix: (Units=GPa)
#
#
# Indices 1 2 3 4 5 6 
#
# 1 68.3027 -1.8249 19.7813 0.0000 0.0000 0.0000
# 2 -1.8249 41.8195 -19.9350 0.0000 0.0000 0.0000
# 3 19.7813 -19.9350 79.5055 0.0000 0.0000 0.0000
# 4 0.0000 0.0000 0.0000 2.4410 0.0000 0.0000
# 5 0.0000 0.0000 0.0000 0.0000 -38.4200 0.0000
# 6 0.0000 0.0000 0.0000 0.0000 0.0000 27.8455
#
#
#
# Elastic Compliance Matrix: (Units=1/GPa)
#
#
# Indices 1 2 3 4 5 6 
#
# 1 0.015844 -0.001349 -0.004280 0.000000 0.000000 0.000000
# 2 -0.001349 0.027273 0.007174 0.000000 0.000000 0.000000
# 3 -0.004280 0.007174 0.015442 0.000000 0.000000 0.000000
# 4 0.000000 0.000000 0.000000 0.409670 0.000000 0.000000
# 5 0.000000 0.000000 0.000000 0.000000 -0.026028 0.000000
# 6 0.000000 0.000000 0.000000 0.000000 0.000000 0.035912
#
#
# Mechanical properties :
#
#
# Convention : Reuss Voigt Hill
#
# Bulk Modulus (GPa) = 16.22102 20.63005 18.42554
# Shear Modulus (GPa) = 10.08933 11.14705 10.61819
#
# Velocity S-wave (km/s) = 2.24824 2.36315 2.30641
# Velocity P-wave (km/s) = 3.85564 4.21679 4.04025
#
# Compressibility (1/GPa) = 0.06164839
#
# Stress axis : x y z
#
# Youngs Moduli (GPa) = 63.11409 36.66601 64.76045
#
# Poissons Ratio (x) = 0.04946 0.27720
# Poissons Ratio (y) = 0.08514 -0.46459
# Poissons Ratio (z) = 0.27015 -0.26304
#
# Static dielectric constant tensor:
#      x y z
#    x 1.666540 0.000000 0.000000 
#    y 0.000000 1.680520 0.000000 
#    z 0.000000 0.000000 1.738770 
# 
# From -- ./inp_files/60451.got.cif
#   From: 2010.05.17/outbox.cif.g08.bks.cpg/sg65_31_cif.got.tgz:60451.got - 2010.06.03 17:01:31.
