data_PCOD9490647
_publ_section_title
;
Structure prediction by ZEFSAII (Michael W. Deem and Ramdas Pophale) SiO2 
 PCOD9490647
Probable space group: C M M M
;
_chemical_formula_sum "Si O2"
_cell_formula_units_Z 104
_cell_length_a 15.058384
_cell_length_b 17.455267
_cell_length_c 21.025132
_cell_angle_alpha 90.000000
_cell_angle_beta 90.000000
_cell_angle_gamma 90.000000
_cell_volume 5526.416278
_symmetry_space_group_name_H-M "C M M M"
_symmetry_group_IT_number 65
_symmetry_cell_setting 'orthorhombic'
loop_
_space_group_symop_operation_xyz
x,y,z
-x,-y,z
x,-y,-z
-x,y,-z
-x,-y,-z
x,y,-z
-x,y,z
x,-y,z
1/2+x,1/2+y,z
1/2-x,1/2-y,z
1/2+x,1/2-y,-z
1/2-x,1/2+y,-z
1/2-x,1/2-y,-z
1/2+x,1/2+y,-z
1/2-x,1/2+y,z
1/2+x,1/2-y,z
loop_
_atom_site_type_symbol
_atom_site_label
_atom_site_fract_x
_atom_site_fract_y
_atom_site_fract_z
Si Si1 0.000000 0.585789 0.576594
Si Si2 0.895767 0.365114 0.195893
Si Si3 0.097230 0.089961 0.100717
Si Si4 0.219454 0.662273 0.071258
Si Si5 0.690257 0.907206 0.428693
Si Si6 0.245345 0.912060 0.708584
Si Si7 0.096020 0.186419 0.229860
O O1 0.092983 0.624835 0.589950
O O2 0.000000 0.500000 0.605681
O O3 0.000000 0.577406 0.500000
O O4 0.844383 0.368171 0.127669
O O5 0.836617 0.405652 0.250500
O O6 0.895061 0.275656 0.215122
O O7 0.000000 0.389295 0.192479
O O8 0.188945 0.114616 0.068798
O O9 0.095132 0.140459 0.163930
O O10 0.000000 0.102827 0.069480
O O11 0.102318 0.000000 0.115163
O O12 0.250000 0.750000 0.085163
O O13 0.178758 0.661340 0.000000
O O14 0.716297 0.881421 0.500000
O O15 0.747199 0.895313 0.366454
O O16 0.679746 0.000000 0.433253
O O17 0.178196 0.849376 0.734357
O O18 0.213737 0.000000 0.716653
O O19 0.000000 0.173683 0.261817
#
# Coordination Sequence:
#
# PCOD9490647 Si02
#       7
#     8  16  16  16  16  16  16
#     4   7  10  20  38  60  96 140 171 203 252 308
#     4  11  23  39  57  78 111 151 187 225 270 329
#     4  10  20  36  59  85 111 138 177 234 289 327
#     4  11  22  37  58  82 111 147 185 225 272 333
#     4   8  15  27  45  74 111 146 179 221 273 323
#     4  11  21  33  57  87 113 142 181 232 280 327
#     4  10  20  37  58  79 106 145 188 227 274 328
#
# _framework density 18.818705000000001
#
# number of rings (size 3 to 8) (size 9 to 14) (size 15 to 20)
#    0.000    2.077    3.077    1.846    1.077    2.154 
#    0.000    2.308    0.000    2.308    0.000    6.462 
#    0.000    0.000    0.000    0.000    0.000    0.000 
#
# Total GULP energy -289495.944790 kJ/mol
# GULP energy per Si atom -5567.229708 kJ/mol
# Density = 1.877587 g / cm^3
# Si number density = 18.818705 Si / 1000 Ang^3
#
#
#
# Elastic Constant Matrix: (Units=GPa)
#
#
# Indices 1 2 3 4 5 6 
#
# 1 89.2185 6.9533 25.9308 0.0000 0.0000 0.0000
# 2 6.9533 44.7544 -3.6935 0.0000 0.0000 0.0000
# 3 25.9308 -3.6935 90.7930 0.0000 0.0000 0.0000
# 4 0.0000 0.0000 0.0000 8.2400 0.0000 0.0000
# 5 0.0000 0.0000 0.0000 0.0000 9.5520 0.0000
# 6 0.0000 0.0000 0.0000 0.0000 0.0000 31.4502
#
#
#
# Elastic Compliance Matrix: (Units=1/GPa)
#
#
# Indices 1 2 3 4 5 6 
#
# 1 0.012442 -0.002234 -0.003644 0.000000 0.000000 0.000000
# 2 -0.002234 0.022821 0.001566 0.000000 0.000000 0.000000
# 3 -0.003644 0.001566 0.012119 0.000000 0.000000 0.000000
# 4 0.000000 0.000000 0.000000 0.121359 0.000000 0.000000
# 5 0.000000 0.000000 0.000000 0.000000 0.104690 0.000000
# 6 0.000000 0.000000 0.000000 0.000000 0.000000 0.031796
#
#
# Mechanical properties :
#
#
# Convention : Reuss Voigt Hill
#
# Bulk Modulus (GPa) = 25.80154 31.46080 28.63117
# Shear Modulus (GPa) = 15.30136 22.88680 19.09408
#
# Velocity S-wave (km/s) = 2.85457 3.49115 3.18879
# Velocity P-wave (km/s) = 4.96035 5.74500 5.36703
#
# Compressibility (1/GPa) = 0.03875738
#
# Stress axis : x y z
#
# Youngs Moduli (GPa) = 80.37475 43.82022 82.51774
#
# Poissons Ratio (x) = 0.09788 0.30072
# Poissons Ratio (y) = 0.17954 -0.12925
# Poissons Ratio (z) = 0.29291 -0.06864
#
# Static dielectric constant tensor:
#      x y z
#    x 1.712030 0.000000 0.000000 
#    y 0.000000 1.638880 0.000000 
#    z 0.000000 0.000000 1.673740 
# 
# From -- ./inp_files/62852.got.cif
#   From: 2010.05.17/outbox.cif.g08.bks.cpg/sg65_32_cif.got.tgz:62852.got - 2010.06.03 17:01:31.
