data_PCOD9490814
_publ_section_title
;
Structure prediction by ZEFSAII (Michael W. Deem and Ramdas Pophale) SiO2 
 PCOD9490814
Probable space group: C M M M
;
_chemical_formula_sum "Si O2"
_cell_formula_units_Z 72
_cell_length_a 27.508667
_cell_length_b 18.315285
_cell_length_c 7.564834
_cell_angle_alpha 90.000000
_cell_angle_beta 90.000000
_cell_angle_gamma 90.000000
_cell_volume 3811.383325
_symmetry_space_group_name_H-M "C M M M"
_symmetry_group_IT_number 65
_symmetry_cell_setting 'orthorhombic'
loop_
_space_group_symop_operation_xyz
x,y,z
-x,-y,z
x,-y,-z
-x,y,-z
-x,-y,-z
x,y,-z
-x,y,z
x,-y,z
1/2+x,1/2+y,z
1/2-x,1/2-y,z
1/2+x,1/2-y,-z
1/2-x,1/2+y,-z
1/2-x,1/2-y,-z
1/2+x,1/2+y,-z
1/2-x,1/2+y,z
1/2+x,1/2-y,z
loop_
_atom_site_type_symbol
_atom_site_label
_atom_site_fract_x
_atom_site_fract_y
_atom_site_fract_z
Si Si1 0.695250 0.231878 0.714964
Si Si2 0.945576 0.650334 0.213543
Si Si3 0.441656 0.586210 0.500000
Si Si4 0.653497 0.920581 0.707227
Si Si5 0.096999 0.807820 0.204681
O O1 0.692892 0.232518 0.500000
O O2 0.750000 0.250000 0.767708
O O3 0.679924 0.151205 0.780160
O O4 0.654023 0.287930 0.778569
O O5 0.903793 0.596508 0.278404
O O6 0.930238 0.732952 0.263102
O O7 0.000000 0.633899 0.274019
O O8 0.944757 0.647791 0.000000
O O9 0.431076 0.500000 0.500000
O O10 0.500000 0.595595 0.500000
O O11 0.419226 0.627080 0.330451
O O12 0.666071 0.923122 0.500000
O O13 0.664617 0.000000 0.784785
O O14 0.084955 0.821662 0.000000
#
# Coordination Sequence:
#
# PCOD9490814 Si02
#       5
#    16  16   8  16  16
#     4   9  17  33  58  82 110 145 192 235 278 335
#     4   9  18  31  49  74 101 136 178 215 258 313
#     4  11  24  40  59  84 113 149 192 237 296 358
#     4   9  18  31  46  70 104 139 174 217 268 317
#     4  10  20  37  59  84 114 145 186 237 284 338
#
# _framework density 18.890778999999998
#
# number of rings (size 3 to 8) (size 9 to 14) (size 15 to 20)
#    0.000    2.556    1.111    0.667    1.556    3.556 
#    0.000    4.444    0.000    0.000    0.000    0.000 
#    0.000    0.000    0.000    0.000    0.000    0.000 
#
# Total GULP energy -200888.054756 kJ/mol
# GULP energy per Si atom -5580.223743 kJ/mol
# Density = 1.884778 g / cm^3
# Si number density = 18.890779 Si / 1000 Ang^3
#
#
#
# Elastic Constant Matrix: (Units=GPa)
#
#
# Indices 1 2 3 4 5 6 
#
# 1 111.1137 52.9986 7.7765 0.0000 0.0000 0.0000
# 2 52.9986 134.9517 37.8357 0.0000 0.0000 0.0000
# 3 7.7765 37.8357 71.4509 0.0000 0.0000 0.0000
# 4 0.0000 0.0000 0.0000 0.1564 0.0000 0.0000
# 5 0.0000 0.0000 0.0000 0.0000 36.9133 0.0000
# 6 0.0000 0.0000 0.0000 0.0000 0.0000 10.1790
#
#
#
# Elastic Compliance Matrix: (Units=1/GPa)
#
#
# Indices 1 2 3 4 5 6 
#
# 1 0.011176 -0.004754 0.001301 0.000000 0.000000 0.000000
# 2 -0.004754 0.010724 -0.005161 0.000000 0.000000 0.000000
# 3 0.001301 -0.005161 0.016587 0.000000 0.000000 0.000000
# 4 0.000000 0.000000 0.000000 6.392158 0.000000 0.000000
# 5 0.000000 0.000000 0.000000 0.000000 0.027090 0.000000
# 6 0.000000 0.000000 0.000000 0.000000 0.000000 0.098241
#
#
# Mechanical properties :
#
#
# Convention : Reuss Voigt Hill
#
# Bulk Modulus (GPa) = 47.03922 57.19311 52.11617
# Shear Modulus (GPa) = 0.75984 24.04346 12.40165
#
# Velocity S-wave (km/s) = 0.63490 3.57145 2.56499
# Velocity P-wave (km/s) = 5.04898 6.88102 6.03492
#
# Compressibility (1/GPa) = 0.02125885
#
# Stress axis : x y z
#
# Youngs Moduli (GPa) = 89.47551 93.24799 60.28762
#
# Poissons Ratio (x) = 0.44329 -0.07843
# Poissons Ratio (y) = 0.42536 0.31117
# Poissons Ratio (z) = -0.11640 0.48129
#
# Static dielectric constant tensor:
#      x y z
#    x 1.640360 0.000000 0.000000 
#    y 0.000000 1.644600 0.000000 
#    z 0.000000 0.000000 1.706360 
# 
# From -- ./inp_files/15779.got.cif
#   From: 2010.05.17/outbox.cif.g08.bks.cpg/sg65_8_cif.got.tgz:15779.got - 2010.06.03 17:01:31.
