data_PCOD9490183
_publ_section_title
;
Structure prediction by ZEFSAII (Michael W. Deem and Ramdas Pophale) SiO2 
 PCOD9490183
Probable space group: C M M M
;
_chemical_formula_sum "Si O2"
_cell_formula_units_Z 104
_cell_length_a 29.794817
_cell_length_b 8.775256
_cell_length_c 20.013564
_cell_angle_alpha 90.000000
_cell_angle_beta 90.000000
_cell_angle_gamma 90.000000
_cell_volume 5232.689338
_symmetry_space_group_name_H-M "C M M M"
_symmetry_group_IT_number 65
_symmetry_cell_setting 'orthorhombic'
loop_
_space_group_symop_operation_xyz
x,y,z
-x,-y,z
x,-y,-z
-x,y,-z
-x,-y,-z
x,y,-z
-x,y,z
x,-y,z
1/2+x,1/2+y,z
1/2-x,1/2-y,z
1/2+x,1/2-y,-z
1/2-x,1/2+y,-z
1/2-x,1/2-y,-z
1/2+x,1/2+y,-z
1/2-x,1/2+y,z
1/2+x,1/2-y,z
loop_
_atom_site_type_symbol
_atom_site_label
_atom_site_fract_x
_atom_site_fract_y
_atom_site_fract_z
Si Si1 0.641977 0.319249 0.119451
Si Si2 0.799848 0.318252 0.000000
Si Si3 0.297564 0.821082 0.610630
Si Si4 0.551275 0.181449 0.844768
Si Si5 0.447485 0.678709 0.699207
Si Si6 0.390826 0.683582 0.427427
Si Si7 0.701909 0.820334 0.771038
O O1 0.644527 0.500000 0.113022
O O2 0.590736 0.263452 0.115163
O O3 0.662721 0.266132 0.190218
O O4 0.672852 0.240201 0.064115
O O5 0.750000 0.250000 0.000000
O O6 0.797318 0.500000 0.000000
O O7 0.250000 0.750000 0.590628
O O8 0.339869 0.738170 0.578947
O O9 0.301864 0.802964 0.691179
O O10 0.298312 0.000000 0.595238
O O11 0.500000 0.225657 0.862600
O O12 0.557965 0.227984 0.767233
O O13 0.555510 0.000000 0.851926
O O14 0.500000 0.684156 0.680620
O O15 0.436324 0.500000 0.712752
O O16 0.418225 0.736985 0.637332
O O17 0.408890 0.732994 0.500000
O O18 0.392374 0.500000 0.425651
O O19 0.750000 0.750000 0.791325
O O20 0.700629 0.000000 0.786957
#
# Coordination Sequence:
#
# PCOD9490183 Si02
#       7
#    16   8  16  16  16  16  16
#     4  12  24  39  61  89 121 157 196 236 282 334
#     4  12  26  46  67  90 125 164 202 239 279 329
#     4  10  21  36  55  77 103 137 180 231 284 339
#     4  10  21  38  61  89 119 151 190 237 289 341
#     4   9  18  34  57  84 113 146 185 231 283 338
#     4  10  21  35  51  74 106 144 185 229 279 338
#     4  10  20  35  56  84 114 145 185 233 287 342
#
# _framework density 19.875057999999999
#
# number of rings (size 3 to 8) (size 9 to 14) (size 15 to 20)
#    0.000    1.692    0.000    4.846    0.000    6.769 
#    0.000    1.923    0.000    2.308    0.000    3.231 
#    0.000    0.000    0.000    0.000    0.000    0.000 
#
# Total GULP energy -290697.136656 kJ/mol
# GULP energy per Si atom -5590.329551 kJ/mol
# Density = 1.982982 g / cm^3
# Si number density = 19.875058 Si / 1000 Ang^3
#
#
#
# Elastic Constant Matrix: (Units=GPa)
#
#
# Indices 1 2 3 4 5 6 
#
# 1 121.6056 44.6659 40.1497 0.0000 0.0000 0.0000
# 2 44.6659 92.0037 29.4482 0.0000 0.0000 0.0000
# 3 40.1497 29.4482 38.8985 0.0000 0.0000 0.0000
# 4 0.0000 0.0000 0.0000 16.1388 0.0000 0.0000
# 5 0.0000 0.0000 0.0000 0.0000 -23.7397 0.0000
# 6 0.0000 0.0000 0.0000 0.0000 0.0000 34.2282
#
#
#
# Elastic Compliance Matrix: (Units=1/GPa)
#
#
# Indices 1 2 3 4 5 6 
#
# 1 0.012946 -0.002650 -0.011356 0.000000 0.000000 0.000000
# 2 -0.002650 0.014888 -0.008535 0.000000 0.000000 0.000000
# 3 -0.011356 -0.008535 0.043891 0.000000 0.000000 0.000000
# 4 0.000000 0.000000 0.000000 0.061963 0.000000 0.000000
# 5 0.000000 0.000000 0.000000 0.000000 -0.042124 0.000000
# 6 0.000000 0.000000 0.000000 0.000000 0.000000 0.029216
#
#
# Mechanical properties :
#
#
# Convention : Reuss Voigt Hill
#
# Bulk Modulus (GPa) = 37.53544 53.44837 45.49191
# Shear Modulus (GPa) = 28.61337 14.54173 21.57755
#
# Velocity S-wave (km/s) = 3.79840 2.70785 3.29851
# Velocity P-wave (km/s) = 6.17769 6.06029 6.11927
#
# Compressibility (1/GPa) = 0.02664149
#
# Stress axis : x y z
#
# Youngs Moduli (GPa) = 77.24310 67.16957 22.78369
#
# Poissons Ratio (x) = 0.17802 0.25874
# Poissons Ratio (y) = 0.20471 0.19446
# Poissons Ratio (z) = 0.87719 0.57331
#
# Static dielectric constant tensor:
#      x y z
#    x 1.686770 0.000000 0.000000 
#    y 0.000000 1.667390 0.000000 
#    z 0.000000 0.000000 1.729940 
# 
# From -- ./inp_files/65913.got.cif
#   From: 2010.05.17/outbox.cif.g08.bks.cpg/sg65_33_cif.got.tgz:65913.got - 2010.06.03 17:01:31.
