data_PCOD9490984
_publ_section_title
;
Structure prediction by ZEFSAII (Michael W. Deem and Ramdas Pophale) SiO2 
 PCOD9490984
Probable space group: C M M M
;
_chemical_formula_sum "Si O2"
_cell_formula_units_Z 58
_cell_length_a 33.924708
_cell_length_b 10.862029
_cell_length_c 7.545966
_cell_angle_alpha 90.000000
_cell_angle_beta 90.000000
_cell_angle_gamma 90.000000
_cell_volume 2780.621781
_symmetry_space_group_name_H-M "C M M M"
_symmetry_group_IT_number 65
_symmetry_cell_setting 'orthorhombic'
loop_
_space_group_symop_operation_xyz
x,y,z
-x,-y,z
x,-y,-z
-x,y,-z
-x,-y,-z
x,y,-z
-x,y,z
x,-y,z
1/2+x,1/2+y,z
1/2-x,1/2-y,z
1/2+x,1/2-y,-z
1/2-x,1/2+y,-z
1/2-x,1/2-y,-z
1/2+x,1/2+y,-z
1/2-x,1/2+y,z
1/2+x,1/2-y,z
loop_
_atom_site_type_symbol
_atom_site_label
_atom_site_fract_x
_atom_site_fract_y
_atom_site_fract_z
Si Si1 0.715668 0.000000 0.703111
Si Si2 0.695886 0.500000 0.797744
Si Si3 0.000000 0.778212 0.214808
Si Si4 0.500000 0.500000 0.500000
Si Si5 0.418892 0.859920 0.785181
Si Si6 0.836038 0.259188 0.214378
O O1 0.690247 0.877688 0.738124
O O2 0.727579 0.000000 0.500000
O O3 0.756896 0.000000 0.804136
O O4 0.680911 0.629139 0.718656
O O5 0.680712 0.500000 0.000000
O O6 0.960608 0.700657 0.255414
O O7 0.000000 0.893981 0.342885
O O8 0.000000 0.805039 0.000000
O O9 0.380736 0.783767 0.725000
O O10 0.416196 0.000000 0.720840
O O11 0.416596 0.864160 0.000000
O O12 0.835651 0.255602 0.000000
#
# Coordination Sequence:
#
# PCOD9490984 Si02
#       6
#     8   8   8   2  16  16
#     4  12  24  38  57  84 121 163 203 251 317 376
#     4  10  22  37  59  87 114 153 209 259 309 373
#     4  10  22  41  67  95 131 170 209 260 308 369
#     4  12  26  44  58  94 128 176 218 250 312 374
#     4   9  17  35  66  96 122 156 203 258 316 369
#     4  10  20  38  63  89 118 157 207 259 307 366
#
# _framework density 20.858644000000002
#
# number of rings (size 3 to 8) (size 9 to 14) (size 15 to 20)
#    0.000    1.931    1.379    2.690    0.000    7.172 
#    2.483    5.517    3.034    0.000    0.000    0.000 
#    0.000    0.000    0.000    0.000    0.000    0.000 
#
# Total GULP energy -161687.568348 kJ/mol
# GULP energy per Si atom -5575.433391 kJ/mol
# Density = 2.081117 g / cm^3
# Si number density = 20.858644 Si / 1000 Ang^3
#
#
#
# Elastic Constant Matrix: (Units=GPa)
#
#
# Indices 1 2 3 4 5 6 
#
# 1 166.2368 107.2291 3.0167 0.0000 0.0000 0.0000
# 2 107.2291 205.0734 19.5565 0.0000 0.0000 0.0000
# 3 3.0167 19.5565 70.4409 0.0000 0.0000 0.0000
# 4 0.0000 0.0000 0.0000 -43.7041 0.0000 0.0000
# 5 0.0000 0.0000 0.0000 0.0000 -26.6326 0.0000
# 6 0.0000 0.0000 0.0000 0.0000 0.0000 -25.5717
#
#
#
# Elastic Compliance Matrix: (Units=1/GPa)
#
#
# Indices 1 2 3 4 5 6 
#
# 1 0.009140 -0.004871 0.000961 0.000000 0.000000 0.000000
# 2 -0.004871 0.007605 -0.001903 0.000000 0.000000 0.000000
# 3 0.000961 -0.001903 0.014683 0.000000 0.000000 0.000000
# 4 0.000000 0.000000 0.000000 -0.022881 0.000000 0.000000
# 5 0.000000 0.000000 0.000000 0.000000 -0.037548 0.000000
# 6 0.000000 0.000000 0.000000 0.000000 0.000000 -0.039106
#
#
# Mechanical properties :
#
#
# Convention : Reuss Voigt Hill
#
# Bulk Modulus (GPa) = 50.49807 77.92840 64.21323
# Shear Modulus (GPa) = -100.23820 1.61492 -49.31164
#
# Velocity S-wave (km/s) = -6.93976 0.88085 -4.86746
# Velocity P-wave (km/s) = 6.32072 6.20289 0.85895
#
# Compressibility (1/GPa) = 0.01980274
#
# Stress axis : x y z
#
# Youngs Moduli (GPa) = 109.41081 131.50032 68.10424
#
# Poissons Ratio (x) = 0.64050 -0.06544
# Poissons Ratio (y) = 0.53291 0.12958
# Poissons Ratio (z) = -0.10512 0.25020
#
# Static dielectric constant tensor:
#      x y z
#    x 1.715750 0.000000 0.000000 
#    y 0.000000 1.722650 0.000000 
#    z 0.000000 0.000000 1.764620 
# 
# From -- ./inp_files/17740.got.cif
#   From: 2010.05.17/outbox.cif.g08.bks.cpg/sg65_9_cif.got.tgz:17740.got - 2010.06.03 17:01:31.
