data_PCOD9490145
_publ_section_title
;
Structure prediction by ZEFSAII (Michael W. Deem and Ramdas Pophale) SiO2 
 PCOD9490145
Probable space group: C M M M
;
_chemical_formula_sum "Si O2"
_cell_formula_units_Z 88
_cell_length_a 32.261384
_cell_length_b 8.181816
_cell_length_c 17.507924
_cell_angle_alpha 90.000000
_cell_angle_beta 90.000000
_cell_angle_gamma 90.000000
_cell_volume 4621.333979
_symmetry_space_group_name_H-M "C M M M"
_symmetry_group_IT_number 65
_symmetry_cell_setting 'orthorhombic'
loop_
_space_group_symop_operation_xyz
x,y,z
-x,-y,z
x,-y,-z
-x,y,-z
-x,-y,-z
x,y,-z
-x,y,z
x,-y,z
1/2+x,1/2+y,z
1/2-x,1/2-y,z
1/2+x,1/2-y,-z
1/2-x,1/2+y,-z
1/2-x,1/2-y,-z
1/2+x,1/2+y,-z
1/2-x,1/2+y,z
1/2+x,1/2-y,z
loop_
_atom_site_type_symbol
_atom_site_label
_atom_site_fract_x
_atom_site_fract_y
_atom_site_fract_z
Si Si1 0.627751 0.196363 0.262716
Si Si2 0.599317 0.315363 0.411482
Si Si3 0.794795 0.305835 0.838104
Si Si4 0.079197 0.199035 0.000000
Si Si5 0.544731 0.000000 0.591637
Si Si6 0.174821 0.805358 0.000000
Si Si7 0.547239 0.301692 0.167046
O O1 0.631795 0.286199 0.344161
O O2 0.665549 0.252987 0.209610
O O3 0.584103 0.237870 0.221246
O O4 0.629819 0.000000 0.273107
O O5 0.612899 0.294558 0.500000
O O6 0.582300 0.500000 0.405338
O O7 0.567627 0.169402 0.392658
O O8 0.795702 0.500000 0.836181
O O9 0.750000 0.250000 0.809629
O O10 0.801829 0.250244 0.924577
O O11 0.057486 0.248604 0.920689
O O12 0.127078 0.255821 0.000000
O O13 0.078967 0.000000 0.000000
O O14 0.500000 0.000000 0.628550
O O15 0.541148 0.000000 0.500000
O O16 0.172762 0.000000 0.000000
O O17 0.500000 0.251878 0.186835
O O18 0.548711 0.500000 0.170193
#
# Coordination Sequence:
#
# PCOD9490145 Si02
#       7
#    16  16  16   8   8   8  16
#     4  11  23  39  59  84 119 156 194 247 304 360
#     4  10  21  38  62  88 115 156 204 246 301 366
#     4  11  24  40  60  87 118 153 195 243 300 361
#     4   9  17  32  55  80 109 151 197 243 293 340
#     4   9  18  34  56  84 120 155 195 251 299 346
#     4  11  20  35  61  84 113 156 196 241 299 353
#     4  10  20  35  56  82 113 153 202 249 292 345
#
# _framework density 19.042121000000002
#
# number of rings (size 3 to 8) (size 9 to 14) (size 15 to 20)
#    0.000    1.727    2.727    1.909    0.000    4.727 
#    0.000    2.273    0.000    1.636    0.000    0.000 
#    0.000    0.000    0.000    0.000    0.000    0.000 
#
# Total GULP energy -245470.717411 kJ/mol
# GULP energy per Si atom -5578.879941 kJ/mol
# Density = 1.899878 g / cm^3
# Si number density = 19.042121 Si / 1000 Ang^3
#
#
#
# Elastic Constant Matrix: (Units=GPa)
#
#
# Indices 1 2 3 4 5 6 
#
# 1 125.9244 26.3881 51.6536 0.0000 0.0000 0.0000
# 2 26.3881 67.2230 32.1446 0.0000 0.0000 0.0000
# 3 51.6536 32.1446 125.0763 0.0000 0.0000 0.0000
# 4 0.0000 0.0000 0.0000 21.2905 0.0000 0.0000
# 5 0.0000 0.0000 0.0000 0.0000 0.0693 0.0000
# 6 0.0000 0.0000 0.0000 0.0000 0.0000 12.9340
#
#
#
# Elastic Compliance Matrix: (Units=1/GPa)
#
#
# Indices 1 2 3 4 5 6 
#
# 1 0.009835 -0.002187 -0.003500 0.000000 0.000000 0.000000
# 2 -0.002187 0.017447 -0.003580 0.000000 0.000000 0.000000
# 3 -0.003500 -0.003580 0.010361 0.000000 0.000000 0.000000
# 4 0.000000 0.000000 0.000000 0.046969 0.000000 0.000000
# 5 0.000000 0.000000 0.000000 0.000000 14.427906 0.000000
# 6 0.000000 0.000000 0.000000 0.000000 0.000000 0.077316
#
#
# Mechanical properties :
#
#
# Convention : Reuss Voigt Hill
#
# Bulk Modulus (GPa) = 52.33520 59.84403 56.08962
# Shear Modulus (GPa) = 0.34212 20.72793 10.53503
#
# Velocity S-wave (km/s) = 0.42433 3.30287 2.35468
# Velocity P-wave (km/s) = 5.27102 6.78533 6.07554
#
# Compressibility (1/GPa) = 0.01910760
#
# Stress axis : x y z
#
# Youngs Moduli (GPa) = 101.67637 57.31776 96.52023
#
# Poissons Ratio (x) = 0.12537 0.33778
# Poissons Ratio (y) = 0.22240 0.34559
# Poissons Ratio (z) = 0.35582 0.20522
#
# Static dielectric constant tensor:
#      x y z
#    x 1.688220 0.000000 0.000000 
#    y 0.000000 1.694220 0.000000 
#    z 0.000000 0.000000 1.667000 
# 
# From -- ./inp_files/58077.got.cif
#   From: 2010.05.17/outbox.cif.g08.bks.cpg/sg65_30_cif.got.tgz:58077.got - 2010.06.03 17:01:31.
