data_PCOD9490808
_publ_section_title
;
Structure prediction by ZEFSAII (Michael W. Deem and Ramdas Pophale) SiO2 
 PCOD9490808
Probable space group: C M M M
;
_chemical_formula_sum "Si O2"
_cell_formula_units_Z 112
_cell_length_a 15.740985
_cell_length_b 29.226020
_cell_length_c 12.897718
_cell_angle_alpha 90.000000
_cell_angle_beta 90.000000
_cell_angle_gamma 90.000000
_cell_volume 5933.547992
_symmetry_space_group_name_H-M "C M M M"
_symmetry_group_IT_number 65
_symmetry_cell_setting 'orthorhombic'
loop_
_space_group_symop_operation_xyz
x,y,z
-x,-y,z
x,-y,-z
-x,y,-z
-x,-y,-z
x,y,-z
-x,y,z
x,-y,z
1/2+x,1/2+y,z
1/2-x,1/2-y,z
1/2+x,1/2-y,-z
1/2-x,1/2+y,-z
1/2-x,1/2-y,-z
1/2+x,1/2+y,-z
1/2-x,1/2+y,z
1/2+x,1/2-y,z
loop_
_atom_site_type_symbol
_atom_site_label
_atom_site_fract_x
_atom_site_fract_y
_atom_site_fract_z
Si Si1 0.363418 0.551162 0.623509
Si Si2 0.150024 0.237700 0.615859
Si Si3 0.600222 0.901128 0.385490
Si Si4 0.098560 0.683197 0.755313
Si Si5 0.798522 0.449977 0.225738
Si Si6 0.903599 0.852633 0.280782
Si Si7 0.748579 0.142620 0.879364
O O1 0.351938 0.555911 0.500000
O O2 0.401757 0.500000 0.640160
O O3 0.276626 0.550623 0.689093
O O4 0.406033 0.596832 0.668294
O O5 0.120846 0.250229 0.500000
O O6 0.250000 0.250000 0.622579
O O7 0.104812 0.267308 0.704090
O O8 0.129889 0.184841 0.637331
O O9 0.637882 0.908735 0.500000
O O10 0.500000 0.899540 0.396154
O O11 0.625783 0.852588 0.335638
O O12 0.622363 0.938088 0.298708
O O13 0.170461 0.674685 0.841482
O O14 0.000000 0.673675 0.785510
O O15 0.803372 0.500000 0.177789
O O16 0.782350 0.409140 0.146043
O O17 0.833574 0.850857 0.189180
O O18 0.000000 0.841336 0.248065
O O19 0.765419 0.148868 0.000000
#
# Coordination Sequence:
#
# PCOD9490808 Si02
#       7
#    16  16  16  16  16  16  16
#     4   9  18  33  54  81 115 154 190 227 278 341
#     4  11  22  37  60  90 124 159 188 222 272 332
#     4   9  17  28  46  75 111 150 186 222 271 336
#     4  10  20  37  59  83 112 148 191 234 279 333
#     4   9  18  32  51  77 107 143 187 236 287 343
#     4  11  23  39  59  86 118 152 194 240 286 339
#     4  10  22  41  61  81 108 144 191 248 299 342
#
# _framework density 18.875720999999999
#
# number of rings (size 3 to 8) (size 9 to 14) (size 15 to 20)
#    0.000    2.143    1.429    1.714    0.000    4.857 
#    0.000    2.857    0.000    1.714    0.000    8.000 
#    0.000    0.000    0.000    0.000    0.000    0.000 
#
# Total GULP energy -312052.030120 kJ/mol
# GULP energy per Si atom -5572.357681 kJ/mol
# Density = 1.883276 g / cm^3
# Si number density = 18.875721 Si / 1000 Ang^3
#
#
#
# Elastic Constant Matrix: (Units=GPa)
#
#
# Indices 1 2 3 4 5 6 
#
# 1 57.9057 22.6157 31.5437 0.0000 0.0000 0.0000
# 2 22.6157 83.1785 24.2281 0.0000 0.0000 0.0000
# 3 31.5437 24.2281 80.1158 0.0000 0.0000 0.0000
# 4 0.0000 0.0000 0.0000 10.4912 0.0000 0.0000
# 5 0.0000 0.0000 0.0000 0.0000 6.3126 0.0000
# 6 0.0000 0.0000 0.0000 0.0000 0.0000 16.9810
#
#
#
# Elastic Compliance Matrix: (Units=1/GPa)
#
#
# Indices 1 2 3 4 5 6 
#
# 1 0.023131 -0.003988 -0.007901 0.000000 0.000000 0.000000
# 2 -0.003988 0.013871 -0.002625 0.000000 0.000000 0.000000
# 3 -0.007901 -0.002625 0.016387 0.000000 0.000000 0.000000
# 4 0.000000 0.000000 0.000000 0.095318 0.000000 0.000000
# 5 0.000000 0.000000 0.000000 0.000000 0.158413 0.000000
# 6 0.000000 0.000000 0.000000 0.000000 0.000000 0.058889
#
#
# Mechanical properties :
#
#
# Convention : Reuss Voigt Hill
#
# Bulk Modulus (GPa) = 41.04886 41.99724 41.52305
# Shear Modulus (GPa) = 12.40212 16.27780 14.33996
#
# Velocity S-wave (km/s) = 2.56606 2.93979 2.75926
# Velocity P-wave (km/s) = 5.52935 5.81557 5.67426
#
# Compressibility (1/GPa) = 0.02436121
#
# Stress axis : x y z
#
# Youngs Moduli (GPa) = 43.23178 72.09235 61.02518
#
# Poissons Ratio (x) = 0.28748 0.48218
# Poissons Ratio (y) = 0.17240 0.16018
# Poissons Ratio (z) = 0.34159 0.18922
#
# Static dielectric constant tensor:
#      x y z
#    x 1.689700 0.000000 0.000000 
#    y 0.000000 1.699410 0.000000 
#    z 0.000000 0.000000 1.622000 
# 
# From -- ./inp_files/25557.got.cif
#   From: 2010.05.17/outbox.cif.g08.bks.cpg/sg65_13_cif.got.tgz:25557.got - 2010.06.03 17:01:31.
