data_PCOD9490972
_publ_section_title
;
Structure prediction by ZEFSAII (Michael W. Deem and Ramdas Pophale) SiO2 
 PCOD9490972
Probable space group: C M M M
;
_chemical_formula_sum "Si O2"
_cell_formula_units_Z 64
_cell_length_a 8.747941
_cell_length_b 15.449177
_cell_length_c 24.855396
_cell_angle_alpha 90.000000
_cell_angle_beta 90.000000
_cell_angle_gamma 90.000000
_cell_volume 3359.169210
_symmetry_space_group_name_H-M "C M M M"
_symmetry_group_IT_number 65
_symmetry_cell_setting 'orthorhombic'
loop_
_space_group_symop_operation_xyz
x,y,z
-x,-y,z
x,-y,-z
-x,y,-z
-x,-y,-z
x,y,-z
-x,y,z
x,-y,z
1/2+x,1/2+y,z
1/2-x,1/2-y,z
1/2+x,1/2-y,-z
1/2-x,1/2+y,-z
1/2-x,1/2-y,-z
1/2+x,1/2+y,-z
1/2-x,1/2+y,z
1/2+x,1/2-y,z
loop_
_atom_site_type_symbol
_atom_site_label
_atom_site_fract_x
_atom_site_fract_y
_atom_site_fract_z
Si Si1 0.317532 0.159293 0.386525
Si Si2 0.315362 0.847879 0.881167
Si Si3 0.182341 0.000000 0.190957
Si Si4 0.821383 0.896017 0.500000
Si Si5 0.684425 0.000000 0.690083
Si Si6 0.816469 0.653498 0.000000
O O1 0.500000 0.163358 0.389114
O O2 0.250000 0.250000 0.367962
O O3 0.255024 0.139153 0.445973
O O4 0.274077 0.083220 0.345669
O O5 0.500000 0.844605 0.877300
O O6 0.250000 0.750000 0.875330
O O7 0.249292 0.914841 0.838321
O O8 0.272694 0.882341 0.941468
O O9 0.235128 0.000000 0.252691
O O10 0.000000 0.000000 0.186878
O O11 0.000000 0.872590 0.500000
O O12 0.807478 0.000000 0.500000
O O13 0.500000 0.000000 0.697642
O O14 0.750000 0.750000 0.000000
O O15 0.000000 0.656750 0.000000
#
# Coordination Sequence:
#
# PCOD9490972 Si02
#       6
#    16  16   8   8   8   8
#     4  11  23  41  65  92 122 157 198 243 296 354
#     4  10  20  38  62  89 122 157 198 247 301 361
#     4  12  26  41  60  87 119 160 206 252 301 358
#     4  11  22  37  62  94 128 162 196 239 291 349
#     4  10  24  45  64  83 115 158 202 254 305 352
#     4   8  16  31  56  87 118 154 192 239 298 357
#
# _framework density 19.052329
#
# number of rings (size 3 to 8) (size 9 to 14) (size 15 to 20)
#    0.000    1.625    1.250    3.375    0.000    5.000 
#    0.000    5.000    0.000    0.000    0.000    0.000 
#    0.000    0.000    0.000    0.000    0.000    0.000 
#
# Total GULP energy -178763.635609 kJ/mol
# GULP energy per Si atom -5586.363613 kJ/mol
# Density = 1.900897 g / cm^3
# Si number density = 19.052329 Si / 1000 Ang^3
#
#
#
# Elastic Constant Matrix: (Units=GPa)
#
#
# Indices 1 2 3 4 5 6 
#
# 1 80.4525 67.4934 71.4945 0.0000 0.0000 0.0000
# 2 67.4934 148.3825 97.6096 0.0000 0.0000 0.0000
# 3 71.4945 97.6096 172.7580 0.0000 0.0000 0.0000
# 4 0.0000 0.0000 0.0000 -20.6431 0.0000 0.0000
# 5 0.0000 0.0000 0.0000 0.0000 23.6139 0.0000
# 6 0.0000 0.0000 0.0000 0.0000 0.0000 30.8297
#
#
#
# Elastic Compliance Matrix: (Units=1/GPa)
#
#
# Indices 1 2 3 4 5 6 
#
# 1 0.023262 -0.006761 -0.005807 0.000000 0.000000 0.000000
# 2 -0.006761 0.012691 -0.004372 0.000000 0.000000 0.000000
# 3 -0.005807 -0.004372 0.010662 0.000000 0.000000 0.000000
# 4 0.000000 0.000000 0.000000 -0.048442 0.000000 0.000000
# 5 0.000000 0.000000 0.000000 0.000000 0.042348 0.000000
# 6 0.000000 0.000000 0.000000 0.000000 0.000000 0.032436
#
#
# Mechanical properties :
#
#
# Convention : Reuss Voigt Hill
#
# Bulk Modulus (GPa) = 78.52793 97.19865 87.86329
# Shear Modulus (GPa) = 45.01178 17.75982 31.38580
#
# Velocity S-wave (km/s) = 4.86586 3.05644 4.06316
# Velocity P-wave (km/s) = 8.53670 7.97391 8.26010
#
# Compressibility (1/GPa) = 0.01273432
#
# Stress axis : x y z
#
# Youngs Moduli (GPa) = 42.98876 78.79553 93.79151
#
# Poissons Ratio (x) = 0.53275 0.54461
# Poissons Ratio (y) = 0.29066 0.41010
# Poissons Ratio (z) = 0.24962 0.34453
#
# Static dielectric constant tensor:
#      x y z
#    x 1.637690 0.000000 0.000000 
#    y 0.000000 1.647970 0.000000 
#    z 0.000000 0.000000 1.651710 
# 
# From -- ./inp_files/66904.got.cif
#   From: 2010.05.17/outbox.cif.g08.bks.cpg/sg65_34_cif.got.tgz:66904.got - 2010.06.03 17:01:31.
