data_PCOD9490253
_publ_section_title
;
Structure prediction by ZEFSAII (Michael W. Deem and Ramdas Pophale) SiO2 
 PCOD9490253
Probable space group: C M M M
;
_chemical_formula_sum "Si O2"
_cell_formula_units_Z 72
_cell_length_a 26.820066
_cell_length_b 9.514701
_cell_length_c 16.010984
_cell_angle_alpha 90.000000
_cell_angle_beta 90.000000
_cell_angle_gamma 90.000000
_cell_volume 4085.761492
_symmetry_space_group_name_H-M "C M M M"
_symmetry_group_IT_number 65
_symmetry_cell_setting 'orthorhombic'
loop_
_space_group_symop_operation_xyz
x,y,z
-x,-y,z
x,-y,-z
-x,y,-z
-x,-y,-z
x,y,-z
-x,y,z
x,-y,z
1/2+x,1/2+y,z
1/2-x,1/2-y,z
1/2+x,1/2-y,-z
1/2-x,1/2+y,-z
1/2-x,1/2-y,-z
1/2+x,1/2+y,-z
1/2-x,1/2+y,z
1/2+x,1/2-y,z
loop_
_atom_site_type_symbol
_atom_site_label
_atom_site_fract_x
_atom_site_fract_y
_atom_site_fract_z
Si Si1 0.385274 0.164770 0.630059
Si Si2 0.298966 0.663086 0.100769
Si Si3 0.058650 0.156116 0.500000
Si Si4 0.607486 0.832064 0.172095
Si Si5 0.000000 0.670372 0.096775
Si Si6 0.300106 0.164965 0.500000
O O1 0.424278 0.259755 0.581335
O O2 0.386479 0.187376 0.728560
O O3 0.333507 0.195150 0.582060
O O4 0.396149 0.000000 0.614774
O O5 0.297639 0.500000 0.129065
O O6 0.250000 0.750000 0.129273
O O7 0.348970 0.742923 0.128898
O O8 0.298040 0.661849 0.000000
O O9 0.000000 0.146228 0.500000
O O10 0.081096 0.000000 0.500000
O O11 0.551955 0.788918 0.141476
O O12 0.613393 0.000000 0.153946
O O13 0.000000 0.500000 0.097174
O O14 0.000000 0.716768 0.000000
O O15 0.250000 0.250000 0.500000
O O16 0.289299 0.000000 0.500000
#
# Coordination Sequence:
#
# PCOD9490253 Si02
#       6
#    16  16   8  16   8   8
#     4   9  20  36  54  79 107 139 183 225 267 327
#     4  10  21  37  57  81 110 147 189 234 287 342
#     4  10  21  35  53  77 106 140 178 222 272 317
#     4  10  20  35  57  84 113 146 188 236 283 336
#     4   9  18  32  53  82 113 146 184 227 279 337
#     4   9  18  34  52  74 103 138 176 218 267 324
#
# _framework density 17.622174000000001
#
# number of rings (size 3 to 8) (size 9 to 14) (size 15 to 20)
#    0.000    2.444    0.000    2.333    1.556    6.667 
#    0.000    2.778    0.000    2.000    0.000    0.000 
#    0.000    0.000    0.000    0.000    0.000    0.000 
#
# Total GULP energy -200715.327234 kJ/mol
# GULP energy per Si atom -5575.425756 kJ/mol
# Density = 1.758207 g / cm^3
# Si number density = 17.622174 Si / 1000 Ang^3
#
#
#
# Elastic Constant Matrix: (Units=GPa)
#
#
# Indices 1 2 3 4 5 6 
#
# 1 166.5951 77.5235 58.1031 0.0000 0.0000 0.0000
# 2 77.5235 79.0857 44.7770 0.0000 0.0000 0.0000
# 3 58.1031 44.7770 81.3200 0.0000 0.0000 0.0000
# 4 0.0000 0.0000 0.0000 4.2971 0.0000 0.0000
# 5 0.0000 0.0000 0.0000 0.0000 -11.1442 0.0000
# 6 0.0000 0.0000 0.0000 0.0000 0.0000 32.7111
#
#
#
# Elastic Compliance Matrix: (Units=1/GPa)
#
#
# Indices 1 2 3 4 5 6 
#
# 1 0.011495 -0.009615 -0.002919 0.000000 0.000000 0.000000
# 2 -0.009615 0.026415 -0.007675 0.000000 0.000000 0.000000
# 3 -0.002919 -0.007675 0.018608 0.000000 0.000000 0.000000
# 4 0.000000 0.000000 0.000000 0.232718 0.000000 0.000000
# 5 0.000000 0.000000 0.000000 0.000000 -0.089733 0.000000
# 6 0.000000 0.000000 0.000000 0.000000 0.000000 0.030571
#
#
# Mechanical properties :
#
#
# Convention : Reuss Voigt Hill
#
# Bulk Modulus (GPa) = 62.10787 76.42310 69.26549
# Shear Modulus (GPa) = 18.12522 14.94594 16.53558
#
# Velocity S-wave (km/s) = 3.21057 2.91543 3.06656
# Velocity P-wave (km/s) = 7.00460 7.40234 7.20622
#
# Compressibility (1/GPa) = 0.01610102
#
# Stress axis : x y z
#
# Youngs Moduli (GPa) = 86.99480 37.85677 53.73915
#
# Poissons Ratio (x) = 0.36401 0.15684
# Poissons Ratio (y) = 0.83649 0.41244
# Poissons Ratio (z) = 0.25390 0.29054
#
# Static dielectric constant tensor:
#      x y z
#    x 1.584640 0.000000 0.000000 
#    y 0.000000 1.614810 0.000000 
#    z 0.000000 0.000000 1.595340 
# 
# From -- ./inp_files/46580.got.cif
#   From: 2010.05.17/outbox.cif.g08.bks.cpg/sg65_24_cif.got.tgz:46580.got - 2010.06.03 17:01:31.
