data_PCOD9490572
_publ_section_title
;
Structure prediction by ZEFSAII (Michael W. Deem and Ramdas Pophale) SiO2 
 PCOD9490572
Probable space group: C M M M
;
_chemical_formula_sum "Si O2"
_cell_formula_units_Z 104
_cell_length_a 8.729078
_cell_length_b 24.481993
_cell_length_c 28.737643
_cell_angle_alpha 90.000000
_cell_angle_beta 90.000000
_cell_angle_gamma 90.000000
_cell_volume 6141.384506
_symmetry_space_group_name_H-M "C M M M"
_symmetry_group_IT_number 65
_symmetry_cell_setting 'orthorhombic'
loop_
_space_group_symop_operation_xyz
x,y,z
-x,-y,z
x,-y,-z
-x,y,-z
-x,-y,-z
x,y,-z
-x,y,z
x,-y,z
1/2+x,1/2+y,z
1/2-x,1/2-y,z
1/2+x,1/2-y,-z
1/2-x,1/2+y,-z
1/2-x,1/2-y,-z
1/2+x,1/2+y,-z
1/2-x,1/2+y,z
1/2+x,1/2-y,z
loop_
_atom_site_type_symbol
_atom_site_label
_atom_site_fract_x
_atom_site_fract_y
_atom_site_fract_z
Si Si1 0.323531 0.433754 0.000000
Si Si2 0.816338 0.389962 0.804846
Si Si3 0.322319 0.500000 0.651936
Si Si4 0.316710 0.189218 0.447129
Si Si5 0.184331 0.436398 0.098121
Si Si6 0.684039 0.310846 0.270662
Si Si7 0.314150 0.620476 0.637407
Si Si8 0.322377 0.500000 0.236554
O O1 0.244808 0.417152 0.048205
O O2 0.315673 0.500000 0.000000
O O3 0.500000 0.417313 0.000000
O O4 0.768953 0.398447 0.858702
O O5 0.742705 0.340835 0.775860
O O6 0.762327 0.446116 0.780865
O O7 0.000000 0.385414 0.802869
O O8 0.500000 0.500000 0.636115
O O9 0.255135 0.558116 0.637071
O O10 0.323440 0.500000 0.707783
O O11 0.280695 0.170909 0.500000
O O12 0.500000 0.191033 0.442134
O O13 0.250000 0.250000 0.441800
O O14 0.244679 0.151847 0.407605
O O15 0.234578 0.500000 0.106052
O O16 0.000000 0.437518 0.096892
O O17 0.500000 0.308758 0.270021
O O18 0.750000 0.250000 0.274843
O O19 0.731589 0.347501 0.315412
O O20 0.500000 0.619338 0.637747
O O21 0.500000 0.500000 0.220820
#
# Coordination Sequence:
#
# PCOD9490572 Si02
#       8
#     8  16   8  16  16  16  16   8
#     4   9  17  27  41  67  98 131 174 217 257 306
#     4  11  21  34  52  78 107 140 182 220 260 318
#     4   9  18  35  54  78 108 141 176 211 252 308
#     4  10  21  37  57  81 107 136 175 222 269 314
#     4   9  17  30  46  67 100 139 173 210 259 311
#     4  11  23  38  55  78 107 141 176 220 269 314
#     4  10  20  36  58  81 108 140 176 214 258 312
#     4  11  19  33  53  75 107 143 178 219 262 309
#
# _framework density 16.934293
#
# number of rings (size 3 to 8) (size 9 to 14) (size 15 to 20)
#    0.000    1.923    2.308    2.308    0.000    5.538 
#    0.000    0.769    0.000    2.308    0.000    0.538 
#    0.000    0.000    0.000    0.000    0.000    0.000 
#
# Total GULP energy -290085.004867 kJ/mol
# GULP energy per Si atom -5578.557786 kJ/mol
# Density = 1.689575 g / cm^3
# Si number density = 16.934293 Si / 1000 Ang^3
#
#
#
# Elastic Constant Matrix: (Units=GPa)
#
#
# Indices 1 2 3 4 5 6 
#
# 1 31.7345 29.5124 34.9957 0.0000 0.0000 0.0000
# 2 29.5124 114.1867 73.9909 0.0000 0.0000 0.0000
# 3 34.9957 73.9909 141.0266 0.0000 0.0000 0.0000
# 4 0.0000 0.0000 0.0000 -21.6308 0.0000 0.0000
# 5 0.0000 0.0000 0.0000 0.0000 23.5159 0.0000
# 6 0.0000 0.0000 0.0000 0.0000 0.0000 20.3295
#
#
#
# Elastic Compliance Matrix: (Units=1/GPa)
#
#
# Indices 1 2 3 4 5 6 
#
# 1 0.046728 -0.006914 -0.007968 0.000000 0.000000 0.000000
# 2 -0.006914 0.014291 -0.005782 0.000000 0.000000 0.000000
# 3 -0.007968 -0.005782 0.012102 0.000000 0.000000 0.000000
# 4 0.000000 0.000000 0.000000 -0.046230 0.000000 0.000000
# 5 0.000000 0.000000 0.000000 0.000000 0.042524 0.000000
# 6 0.000000 0.000000 0.000000 0.000000 0.000000 0.049190
#
#
# Mechanical properties :
#
#
# Convention : Reuss Voigt Hill
#
# Bulk Modulus (GPa) = 31.45390 62.66066 47.05728
# Shear Modulus (GPa) = 29.32000 14.33952 21.82976
#
# Velocity S-wave (km/s) = 4.16552 2.91310 3.59428
# Velocity P-wave (km/s) = 6.46141 6.95682 6.71369
#
# Compressibility (1/GPa) = 0.03179256
#
# Stress axis : x y z
#
# Youngs Moduli (GPa) = 21.40028 69.97171 82.63133
#
# Poissons Ratio (x) = 0.48379 0.65841
# Poissons Ratio (y) = 0.14796 0.47781
# Poissons Ratio (z) = 0.17052 0.40461
#
# Static dielectric constant tensor:
#      x y z
#    x 1.572260 0.000000 0.000000 
#    y 0.000000 1.558600 0.000000 
#    z 0.000000 0.000000 1.572330 
# 
# From -- ./inp_files/73612.got.cif
#   From: 2010.05.17/outbox.cif.g08.bks.cpg/sg65_37_cif.got.tgz:73612.got - 2010.06.03 17:01:31.
