data_PCOD9490007
_publ_section_title
;
Structure prediction by ZEFSAII (Michael W. Deem and Ramdas Pophale) SiO2 
 PCOD9490007
Probable space group: C M M M
;
_chemical_formula_sum "Si O2"
_cell_formula_units_Z 88
_cell_length_a 15.057044
_cell_length_b 10.058847
_cell_length_c 27.456052
_cell_angle_alpha 90.000000
_cell_angle_beta 90.000000
_cell_angle_gamma 90.000000
_cell_volume 4158.397591
_symmetry_space_group_name_H-M "C M M M"
_symmetry_group_IT_number 65
_symmetry_cell_setting 'orthorhombic'
loop_
_space_group_symop_operation_xyz
x,y,z
-x,-y,z
x,-y,-z
-x,y,-z
-x,-y,-z
x,y,-z
-x,y,z
x,-y,z
1/2+x,1/2+y,z
1/2-x,1/2-y,z
1/2+x,1/2-y,-z
1/2-x,1/2+y,-z
1/2-x,1/2-y,-z
1/2+x,1/2+y,-z
1/2-x,1/2+y,z
1/2+x,1/2-y,z
loop_
_atom_site_type_symbol
_atom_site_label
_atom_site_fract_x
_atom_site_fract_y
_atom_site_fract_z
Si Si1 0.608188 0.000000 0.445331
Si Si2 0.109096 0.349544 0.000000
Si Si3 0.896171 0.854905 0.920619
Si Si4 0.391538 0.247616 0.380868
Si Si5 0.334903 0.341187 0.187142
Si Si6 0.893734 0.654064 0.724751
Si Si7 0.391175 0.500000 0.443143
O O1 0.634642 0.873437 0.414918
O O2 0.500000 0.000000 0.447325
O O3 0.641504 0.000000 0.500000
O O4 0.138718 0.266014 0.952772
O O5 0.141296 0.500000 0.000000
O O6 0.000000 0.356493 0.000000
O O7 0.890123 0.835156 0.862753
O O8 0.000000 0.862882 0.933350
O O9 0.855479 0.000000 0.931826
O O10 0.500000 0.253444 0.378423
O O11 0.360527 0.216067 0.326235
O O12 0.362427 0.375848 0.410539
O O13 0.320304 0.500000 0.197251
O O14 0.250000 0.250000 0.175611
O O15 0.374532 0.260179 0.232768
O O16 0.861295 0.500000 0.732193
O O17 0.000000 0.643105 0.721105
O O18 0.500000 0.500000 0.444803
O O19 0.363223 0.500000 0.500000
#
# Coordination Sequence:
#
# PCOD9490007 Si02
#       7
#     8   8  16  16  16  16   8
#     4   9  14  22  38  60  93 135 171 204 251 316
#     4   9  17  29  52  87 120 147 179 221 266 313
#     4   9  18  35  58  84 113 147 185 223 267 320
#     4   9  16  26  40  64  97 134 173 212 259 318
#     4  11  24  40  58  80 109 145 187 233 282 333
#     4  10  20  35  55  79 108 142 182 229 278 327
#     4   9  16  24  36  60  97 137 171 208 259 316
#
# _framework density 21.161998000000001
#
# number of rings (size 3 to 8) (size 9 to 14) (size 15 to 20)
#    0.000    2.455    0.909    1.909    1.273    5.818 
#    0.000    2.273    0.000    0.000    0.000    0.000 
#    0.000    4.364    0.000    0.000    0.000    0.000 
#
# Total GULP energy -245307.593999 kJ/mol
# GULP energy per Si atom -5575.172591 kJ/mol
# Density = 2.111383 g / cm^3
# Si number density = 21.161998 Si / 1000 Ang^3
#
#
#
# Elastic Constant Matrix: (Units=GPa)
#
#
# Indices 1 2 3 4 5 6 
#
# 1 35.6483 10.6529 0.2834 0.0000 0.0000 0.0000
# 2 10.6529 249.0920 123.8562 0.0000 0.0000 0.0000
# 3 0.2834 123.8562 178.5876 0.0000 0.0000 0.0000
# 4 0.0000 0.0000 0.0000 27.5230 0.0000 0.0000
# 5 0.0000 0.0000 0.0000 0.0000 -41.5547 0.0000
# 6 0.0000 0.0000 0.0000 0.0000 0.0000 9.2586
#
#
#
# Elastic Compliance Matrix: (Units=1/GPa)
#
#
# Indices 1 2 3 4 5 6 
#
# 1 0.028589 -0.001832 0.001225 0.000000 0.000000 0.000000
# 2 -0.001832 0.006245 -0.004328 0.000000 0.000000 0.000000
# 3 0.001225 -0.004328 0.008599 0.000000 0.000000 0.000000
# 4 0.000000 0.000000 0.000000 0.036333 0.000000 0.000000
# 5 0.000000 0.000000 0.000000 0.000000 -0.024065 0.000000
# 6 0.000000 0.000000 0.000000 0.000000 0.000000 0.108008
#
#
# Mechanical properties :
#
#
# Convention : Reuss Voigt Hill
#
# Bulk Modulus (GPa) = 29.79397 81.43476 55.61437
# Shear Modulus (GPa) = 27.06088 20.94774 24.00431
#
# Velocity S-wave (km/s) = 3.57984 3.14964 3.37161
# Velocity P-wave (km/s) = 5.58539 7.19668 6.44161
#
# Compressibility (1/GPa) = 0.03356384
#
# Stress axis : x y z
#
# Youngs Moduli (GPa) = 34.97792 160.12679 116.28833
#
# Poissons Ratio (x) = 0.29332 -0.14246
# Poissons Ratio (y) = 0.06407 0.50332
# Poissons Ratio (z) = -0.04285 0.69307
#
# Static dielectric constant tensor:
#      x y z
#    x 1.817430 0.000000 0.000000 
#    y 0.000000 1.718380 0.000000 
#    z 0.000000 0.000000 1.764480 
# 
# From -- ./inp_files/78020.got.cif
#   From: 2010.05.17/outbox.cif.g08.bks.cpg/sg65_40_cif.got.tgz:78020.got - 2010.06.03 17:01:31.
