data_PCOD9490446
_publ_section_title
;
Structure prediction by ZEFSAII (Michael W. Deem and Ramdas Pophale) SiO2 
 PCOD9490446
Probable space group: C M M M
;
_chemical_formula_sum "Si O2"
_cell_formula_units_Z 104
_cell_length_a 19.894634
_cell_length_b 33.941543
_cell_length_c 7.790905
_cell_angle_alpha 90.000000
_cell_angle_beta 90.000000
_cell_angle_gamma 90.000000
_cell_volume 5260.844248
_symmetry_space_group_name_H-M "C M M M"
_symmetry_group_IT_number 65
_symmetry_cell_setting 'orthorhombic'
loop_
_space_group_symop_operation_xyz
x,y,z
-x,-y,z
x,-y,-z
-x,y,-z
-x,-y,-z
x,y,-z
-x,y,z
x,-y,z
1/2+x,1/2+y,z
1/2-x,1/2-y,z
1/2+x,1/2-y,-z
1/2-x,1/2+y,-z
1/2-x,1/2-y,-z
1/2+x,1/2+y,-z
1/2-x,1/2+y,z
1/2+x,1/2-y,z
loop_
_atom_site_type_symbol
_atom_site_label
_atom_site_fract_x
_atom_site_fract_y
_atom_site_fract_z
Si Si1 0.190746 0.855336 0.793626
Si Si2 0.677826 0.264783 0.293026
Si Si3 0.924368 0.698733 0.294338
Si Si4 0.422934 0.585400 0.788829
Si Si5 0.577033 0.955262 0.293291
Si Si6 0.339366 0.121909 0.204181
Si Si7 0.418470 0.500000 0.195893
O O1 0.173433 0.810396 0.752174
O O2 0.130545 0.882834 0.730674
O O3 0.264064 0.869086 0.727628
O O4 0.192663 0.859071 0.000000
O O5 0.678012 0.261822 0.500000
O O6 0.750000 0.250000 0.228802
O O7 0.620315 0.235218 0.228216
O O8 0.928453 0.703292 0.500000
O O9 0.887427 0.657410 0.262830
O O10 0.000000 0.698544 0.224902
O O11 0.500000 0.593222 0.737359
O O12 0.401055 0.541985 0.726446
O O13 0.423364 0.584128 0.000000
O O14 0.575122 0.956288 0.500000
O O15 0.500000 0.946670 0.234679
O O16 0.628132 0.920442 0.246331
O O17 0.594422 0.000000 0.234861
O O18 0.335527 0.124231 0.000000
O O19 0.500000 0.500000 0.187159
O O20 0.392598 0.500000 0.000000
#
# Coordination Sequence:
#
# PCOD9490446 Si02
#       7
#    16  16  16  16  16  16   8
#     4  10  21  34  50  77 109 140 169 207 261 314
#     4  10  20  36  56  74  95 132 174 211 256 310
#     4  10  21  37  57  79 101 131 177 224 259 302
#     4   8  14  27  47  72 101 133 171 210 248 293
#     4   9  19  37  59  79 101 136 181 222 259 304
#     4  11  22  34  50  78 114 143 170 208 260 317
#     4   7  10  20  42  68  93 125 164 203 238 280
#
# _framework density 19.768689999999999
#
# number of rings (size 3 to 8) (size 9 to 14) (size 15 to 20)
#    0.000    2.538    1.538    2.308    0.000    4.923 
#    1.385    0.769    0.000    0.000    0.000    0.000 
#    0.000    1.846    0.000    0.000    0.000    0.000 
#
# Total GULP energy -289996.023471 kJ/mol
# GULP energy per Si atom -5576.846605 kJ/mol
# Density = 1.972370 g / cm^3
# Si number density = 19.768690 Si / 1000 Ang^3
#
#
#
# Elastic Constant Matrix: (Units=GPa)
#
#
# Indices 1 2 3 4 5 6 
#
# 1 168.8189 123.4386 10.2746 0.0000 0.0000 0.0000
# 2 123.4386 204.0860 -2.3993 0.0000 0.0000 0.0000
# 3 10.2746 -2.3993 24.7209 0.0000 0.0000 0.0000
# 4 0.0000 0.0000 0.0000 16.0466 0.0000 0.0000
# 5 0.0000 0.0000 0.0000 0.0000 9.2956 0.0000
# 6 0.0000 0.0000 0.0000 0.0000 0.0000 41.2818
#
#
#
# Elastic Compliance Matrix: (Units=1/GPa)
#
#
# Indices 1 2 3 4 5 6 
#
# 1 0.011288 -0.006890 -0.005360 0.000000 0.000000 0.000000
# 2 -0.006890 0.009111 0.003748 0.000000 0.000000 0.000000
# 3 -0.005360 0.003748 0.043043 0.000000 0.000000 0.000000
# 4 0.000000 0.000000 0.000000 0.062318 0.000000 0.000000
# 5 0.000000 0.000000 0.000000 0.000000 0.107578 0.000000
# 6 0.000000 0.000000 0.000000 0.000000 0.000000 0.024224
#
#
# Mechanical properties :
#
#
# Convention : Reuss Voigt Hill
#
# Bulk Modulus (GPa) = 21.53427 73.36150 47.44788
# Shear Modulus (GPa) = 17.23862 31.07895 24.15879
#
# Velocity S-wave (km/s) = 2.95620 3.96931 3.49961
# Velocity P-wave (km/s) = 4.75067 7.62874 6.35479
#
# Compressibility (1/GPa) = 0.04643762
#
# Stress axis : x y z
#
# Youngs Moduli (GPa) = 88.59066 109.75169 23.23247
#
# Poissons Ratio (x) = 0.75623 0.12453
# Poissons Ratio (y) = 0.61042 -0.08708
# Poissons Ratio (z) = 0.47487 -0.41136
#
# Static dielectric constant tensor:
#      x y z
#    x 1.694910 0.000000 0.000000 
#    y 0.000000 1.732200 0.000000 
#    z 0.000000 0.000000 1.739620 
# 
# From -- ./inp_files/12830.got.cif
#   From: 2010.05.17/outbox.cif.g08.bks.cpg/sg65_7_cif.got.tgz:12830.got - 2010.06.03 17:01:31.
