data_PCOD9490786
_publ_section_title
;
Structure prediction by ZEFSAII (Michael W. Deem and Ramdas Pophale) SiO2 
 PCOD9490786
Probable space group: C M M M
;
_chemical_formula_sum "Si O2"
_cell_formula_units_Z 116
_cell_length_a 30.040331
_cell_length_b 24.757906
_cell_length_c 7.453107
_cell_angle_alpha 90.000000
_cell_angle_beta 90.000000
_cell_angle_gamma 90.000000
_cell_volume 5543.141686
_symmetry_space_group_name_H-M "C M M M"
_symmetry_group_IT_number 65
_symmetry_cell_setting 'orthorhombic'
loop_
_space_group_symop_operation_xyz
x,y,z
-x,-y,z
x,-y,-z
-x,y,-z
-x,-y,-z
x,y,-z
-x,y,z
x,-y,z
1/2+x,1/2+y,z
1/2-x,1/2-y,z
1/2+x,1/2-y,-z
1/2-x,1/2+y,-z
1/2-x,1/2-y,-z
1/2+x,1/2+y,-z
1/2-x,1/2+y,z
1/2+x,1/2-y,z
loop_
_atom_site_type_symbol
_atom_site_label
_atom_site_fract_x
_atom_site_fract_y
_atom_site_fract_z
Si Si1 0.739801 0.500000 0.500000
Si Si2 0.721978 0.592763 0.206303
Si Si3 0.623295 0.939100 0.286338
Si Si4 0.306953 0.150551 0.285218
Si Si5 0.120447 0.735929 0.787471
Si Si6 0.949358 0.646935 0.784037
Si Si7 0.550603 0.561362 0.218599
Si Si8 0.872750 0.857917 0.219050
O O1 0.738362 0.547110 0.342450
O O2 0.758079 0.640815 0.211508
O O3 0.674109 0.615123 0.267073
O O4 0.718082 0.573454 0.000000
O O5 0.630319 0.942701 0.500000
O O6 0.661588 0.898841 0.217701
O O7 0.576772 0.908359 0.257319
O O8 0.624680 0.000000 0.214837
O O9 0.304968 0.147945 0.500000
O O10 0.333025 0.204925 0.237765
O O11 0.081823 0.695995 0.715777
O O12 0.121934 0.796581 0.716357
O O13 0.112339 0.740146 0.000000
O O14 0.000000 0.648277 0.718031
O O15 0.950800 0.651073 0.000000
O O16 0.500000 0.573423 0.274457
O O17 0.561639 0.500000 0.273516
O O18 0.586736 0.604299 0.279144
O O19 0.550818 0.561727 0.000000
O O20 0.873348 0.856723 0.000000
#
# Coordination Sequence:
#
# PCOD9490786 Si02
#       8
#     4  16  16  16  16  16  16  16
#     4  12  26  44  60  92 129 158 203 246 288 360
#     4  11  24  41  63  91 123 162 199 243 299 350
#     4   9  19  33  52  74 103 143 186 239 291 347
#     4  10  20  37  58  82 116 150 197 249 296 353
#     4   9  18  35  56  79 111 151 196 246 298 355
#     4   9  18  32  50  75 108 145 186 236 295 352
#     4   8  14  26  47  78 115 150 188 242 302 361
#     4   9  19  34  55  85 117 152 198 245 294 358
#
# _framework density 20.926760999999999
#
# number of rings (size 3 to 8) (size 9 to 14) (size 15 to 20)
#    0.000    2.621    0.690    1.034    1.931    2.483 
#    1.241    6.897    0.000    0.000    0.000    0.966 
#    0.000    0.000    0.000    0.000    0.000    0.000 
#
# Total GULP energy -323292.324835 kJ/mol
# GULP energy per Si atom -5574.005601 kJ/mol
# Density = 2.087913 g / cm^3
# Si number density = 20.926761 Si / 1000 Ang^3
#
#
#
# Elastic Constant Matrix: (Units=GPa)
#
#
# Indices 1 2 3 4 5 6 
#
# 1 115.2340 65.7368 -10.4769 0.0000 0.0000 0.0000
# 2 65.7368 126.0485 -1.4981 0.0000 0.0000 0.0000
# 3 -10.4769 -1.4981 73.3558 0.0000 0.0000 0.0000
# 4 0.0000 0.0000 0.0000 4.4955 0.0000 0.0000
# 5 0.0000 0.0000 0.0000 0.0000 -447.5621 0.0000
# 6 0.0000 0.0000 0.0000 0.0000 0.0000 19.8551
#
#
#
# Elastic Compliance Matrix: (Units=1/GPa)
#
#
# Indices 1 2 3 4 5 6 
#
# 1 0.012552 -0.006526 0.001659 0.000000 0.000000 0.000000
# 2 -0.006526 0.011329 -0.000701 0.000000 0.000000 0.000000
# 3 0.001659 -0.000701 0.013855 0.000000 0.000000 0.000000
# 4 0.000000 0.000000 0.000000 0.222446 0.000000 0.000000
# 5 0.000000 0.000000 0.000000 0.000000 -0.002234 0.000000
# 6 0.000000 0.000000 0.000000 0.000000 0.000000 0.050365
#
#
# Mechanical properties :
#
#
# Convention : Reuss Voigt Hill
#
# Bulk Modulus (GPa) = 37.59375 46.90688 42.25031
# Shear Modulus (GPa) = 15.22931 -67.25055 -26.01062
#
# Velocity S-wave (km/s) = 2.70060 -5.67503 -3.52935
# Velocity P-wave (km/s) = 5.26571 4.52524 1.90394
#
# Compressibility (1/GPa) = 0.02660017
#
# Stress axis : x y z
#
# Youngs Moduli (GPa) = 79.66913 88.27099 72.17675
#
# Poissons Ratio (x) = 0.57609 -0.11977
# Poissons Ratio (y) = 0.51995 0.05058
# Poissons Ratio (z) = -0.13220 0.06186
#
# Static dielectric constant tensor:
#      x y z
#    x 1.737820 0.000000 0.000000 
#    y 0.000000 1.730710 0.000000 
#    z 0.000000 0.000000 1.834370 
# 
# From -- ./inp_files/16880.got.cif
#   From: 2010.05.17/outbox.cif.g08.bks.cpg/sg65_9_cif.got.tgz:16880.got - 2010.06.03 17:01:31.
