data_PCOD9490324
_publ_section_title
;
Structure prediction by ZEFSAII (Michael W. Deem and Ramdas Pophale) SiO2 
 PCOD9490324
Probable space group: C M M M
;
_chemical_formula_sum "Si O2"
_cell_formula_units_Z 88
_cell_length_a 30.566869
_cell_length_b 8.771601
_cell_length_c 17.374876
_cell_angle_alpha 90.000000
_cell_angle_beta 90.000000
_cell_angle_gamma 90.000000
_cell_volume 4658.558333
_symmetry_space_group_name_H-M "C M M M"
_symmetry_group_IT_number 65
_symmetry_cell_setting 'orthorhombic'
loop_
_space_group_symop_operation_xyz
x,y,z
-x,-y,z
x,-y,-z
-x,y,-z
-x,-y,-z
x,y,-z
-x,y,z
x,-y,z
1/2+x,1/2+y,z
1/2-x,1/2-y,z
1/2+x,1/2-y,-z
1/2-x,1/2+y,-z
1/2-x,1/2-y,-z
1/2+x,1/2+y,-z
1/2-x,1/2+y,z
1/2+x,1/2-y,z
loop_
_atom_site_type_symbol
_atom_site_label
_atom_site_fract_x
_atom_site_fract_y
_atom_site_fract_z
Si Si1 0.201758 0.815702 0.911821
Si Si2 0.113884 0.182591 0.369283
Si Si3 0.448554 0.816806 0.500000
Si Si4 0.623267 0.681894 0.195057
Si Si5 0.205911 0.672322 0.592049
Si Si6 0.050427 0.319410 0.090495
O O1 0.250000 0.750000 0.898714
O O2 0.167126 0.761075 0.847922
O O3 0.203574 0.000000 0.909147
O O4 0.188357 0.773902 0.000000
O O5 0.077947 0.255801 0.425627
O O6 0.112391 0.237433 0.280797
O O7 0.162630 0.229495 0.394923
O O8 0.108889 0.000000 0.373054
O O9 0.500000 0.771720 0.500000
O O10 0.446488 0.000000 0.500000
O O11 0.628187 0.500000 0.201355
O O12 0.583411 0.723108 0.140218
O O13 0.211197 0.661156 0.500000
O O14 0.200495 0.500000 0.622080
O O15 0.250000 0.750000 0.623565
O O16 0.057796 0.500000 0.102958
O O17 0.000000 0.286562 0.109667
O O18 0.056560 0.289589 0.000000
#
# Coordination Sequence:
#
# PCOD9490324 Si02
#       6
#    16  16   8  16  16  16
#     4   9  18  34  55  79 112 153 194 232 270 319
#     4  11  23  39  60  86 118 150 188 240 293 346
#     4  11  25  45  66  85 108 145 193 239 291 359
#     4  10  22  37  55  84 117 150 188 233 285 340
#     4  10  20  35  58  85 114 148 187 229 278 335
#     4   9  19  36  57  82 112 146 186 232 282 337
#
# _framework density 18.889963999999999
#
# number of rings (size 3 to 8) (size 9 to 14) (size 15 to 20)
#    0.000    2.091    0.909    2.455    0.000    6.545 
#    0.000    8.182    0.000    0.000    0.000    0.000 
#    0.000    0.000    0.000    0.000    0.000    0.000 
#
# Total GULP energy -245497.040574 kJ/mol
# GULP energy per Si atom -5579.478195 kJ/mol
# Density = 1.884697 g / cm^3
# Si number density = 18.889964 Si / 1000 Ang^3
#
#
#
# Elastic Constant Matrix: (Units=GPa)
#
#
# Indices 1 2 3 4 5 6 
#
# 1 107.2024 19.2956 61.8527 0.0000 0.0000 0.0000
# 2 19.2956 20.1264 18.2515 0.0000 0.0000 0.0000
# 3 61.8527 18.2515 80.6677 0.0000 0.0000 0.0000
# 4 0.0000 0.0000 0.0000 15.7971 0.0000 0.0000
# 5 0.0000 0.0000 0.0000 0.0000 -36.1139 0.0000
# 6 0.0000 0.0000 0.0000 0.0000 0.0000 31.9331
#
#
#
# Elastic Compliance Matrix: (Units=1/GPa)
#
#
# Indices 1 2 3 4 5 6 
#
# 1 0.017236 -0.005712 -0.011923 0.000000 0.000000 0.000000
# 2 -0.005712 0.064405 -0.010193 0.000000 0.000000 0.000000
# 3 -0.011923 -0.010193 0.023845 0.000000 0.000000 0.000000
# 4 0.000000 0.000000 0.000000 0.063303 0.000000 0.000000
# 5 0.000000 0.000000 0.000000 0.000000 -0.027690 0.000000
# 6 0.000000 0.000000 0.000000 0.000000 0.000000 0.031316
#
#
# Mechanical properties :
#
#
# Convention : Reuss Voigt Hill
#
# Bulk Modulus (GPa) = 20.06804 45.19956 32.63380
# Shear Modulus (GPa) = 20.43502 9.56303 14.99903
#
# Velocity S-wave (km/s) = 3.29263 2.25244 2.82089
# Velocity P-wave (km/s) = 5.01018 5.54476 5.28424
#
# Compressibility (1/GPa) = 0.04983048
#
# Stress axis : x y z
#
# Youngs Moduli (GPa) = 58.01964 15.52682 41.93766
#
# Poissons Ratio (x) = 0.08868 0.50003
# Poissons Ratio (y) = 0.33138 0.42745
# Poissons Ratio (z) = 0.69178 0.15826
#
# Static dielectric constant tensor:
#      x y z
#    x 1.627200 0.000000 0.000000 
#    y 0.000000 1.653970 0.000000 
#    z 0.000000 0.000000 1.653950 
# 
# From -- ./inp_files/58032.got.cif
#   From: 2010.05.17/outbox.cif.g08.bks.cpg/sg65_30_cif.got.tgz:58032.got - 2010.06.03 17:01:31.
