data_PCOD9490800
_publ_section_title
;
Structure prediction by ZEFSAII (Michael W. Deem and Ramdas Pophale) SiO2 
 PCOD9490800
Probable space group: C M M M
;
_chemical_formula_sum "Si O2"
_cell_formula_units_Z 72
_cell_length_a 8.642895
_cell_length_b 14.644584
_cell_length_c 31.708289
_cell_angle_alpha 90.000000
_cell_angle_beta 90.000000
_cell_angle_gamma 90.000000
_cell_volume 4013.368930
_symmetry_space_group_name_H-M "C M M M"
_symmetry_group_IT_number 65
_symmetry_cell_setting 'orthorhombic'
loop_
_space_group_symop_operation_xyz
x,y,z
-x,-y,z
x,-y,-z
-x,y,-z
-x,-y,-z
x,y,-z
-x,y,z
x,-y,z
1/2+x,1/2+y,z
1/2-x,1/2-y,z
1/2+x,1/2-y,-z
1/2-x,1/2+y,-z
1/2-x,1/2-y,-z
1/2+x,1/2+y,-z
1/2-x,1/2+y,z
1/2+x,1/2-y,z
loop_
_atom_site_type_symbol
_atom_site_label
_atom_site_fract_x
_atom_site_fract_y
_atom_site_fract_z
Si Si1 0.685973 0.147867 0.774600
Si Si2 0.686040 0.500000 0.063552
Si Si3 0.187875 0.500000 0.293668
Si Si4 0.685389 0.000000 0.390011
Si Si5 0.314655 0.648167 0.547421
Si Si6 0.185482 0.000000 0.162289
Si Si7 0.814568 0.352673 0.000000
O O1 0.500000 0.149948 0.775984
O O2 0.750000 0.250000 0.774151
O O3 0.734286 0.089079 0.733300
O O4 0.747150 0.088519 0.813921
O O5 0.500000 0.500000 0.058700
O O6 0.724349 0.500000 0.112913
O O7 0.753859 0.588661 0.039887
O O8 0.242290 0.500000 0.341726
O O9 0.000000 0.500000 0.294435
O O10 0.744820 0.913770 0.416272
O O11 0.500000 0.000000 0.389477
O O12 0.273837 0.614821 0.500000
O O13 0.500000 0.648272 0.550448
O O14 0.250000 0.750000 0.551047
O O15 0.000000 0.000000 0.166538
O O16 0.750000 0.250000 0.000000
O O17 0.000000 0.351332 0.000000
#
# Coordination Sequence:
#
# PCOD9490800 Si02
#       7
#    16   8   8   8  16   8   8
#     4  10  20  37  59  81 109 143 179 221 270 322
#     4  10  21  38  58  82 114 146 183 232 278 322
#     4   8  19  37  54  77 108 141 177 219 264 316
#     4  11  21  35  56  81 109 139 175 217 265 320
#     4  10  21  37  55  77 106 139 177 219 263 313
#     4  10  21  37  58  85 113 143 182 227 274 324
#     4  11  22  37  58  82 112 151 192 229 272 324
#
# _framework density 17.94004
#
# number of rings (size 3 to 8) (size 9 to 14) (size 15 to 20)
#    0.000    2.000    0.000    5.000    0.000    6.222 
#    0.000    8.889    0.000    0.000    0.000    0.000 
#    0.000    0.000    0.000    0.000    0.000    0.000 
#
# Total GULP energy -201015.099513 kJ/mol
# GULP energy per Si atom -5583.752764 kJ/mol
# Density = 1.789921 g / cm^3
# Si number density = 17.940040 Si / 1000 Ang^3
#
#
#
# Elastic Constant Matrix: (Units=GPa)
#
#
# Indices 1 2 3 4 5 6 
#
# 1 82.8985 55.6109 68.2819 0.0000 0.0000 0.0000
# 2 55.6109 180.4170 108.6644 0.0000 0.0000 0.0000
# 3 68.2819 108.6644 199.5272 0.0000 0.0000 0.0000
# 4 0.0000 0.0000 0.0000 10.0320 0.0000 0.0000
# 5 0.0000 0.0000 0.0000 0.0000 27.3094 0.0000
# 6 0.0000 0.0000 0.0000 0.0000 0.0000 35.2238
#
#
#
# Elastic Compliance Matrix: (Units=1/GPa)
#
#
# Indices 1 2 3 4 5 6 
#
# 1 0.017627 -0.002679 -0.004573 0.000000 0.000000 0.000000
# 2 -0.002679 0.008655 -0.003797 0.000000 0.000000 0.000000
# 3 -0.004573 -0.003797 0.008645 0.000000 0.000000 0.000000
# 4 0.000000 0.000000 0.000000 0.099681 0.000000 0.000000
# 5 0.000000 0.000000 0.000000 0.000000 0.036617 0.000000
# 6 0.000000 0.000000 0.000000 0.000000 0.000000 0.028390
#
#
# Mechanical properties :
#
#
# Convention : Reuss Voigt Hill
#
# Bulk Modulus (GPa) = 77.94978 103.10634 90.52806
# Shear Modulus (GPa) = 22.12489 29.86540 25.99514
#
# Velocity S-wave (km/s) = 3.51560 4.08454 3.81070
# Velocity P-wave (km/s) = 7.74750 8.93544 8.36259
#
# Compressibility (1/GPa) = 0.01282877
#
# Stress axis : x y z
#
# Youngs Moduli (GPa) = 56.73129 115.53544 115.67527
#
# Poissons Ratio (x) = 0.30948 0.52903
# Poissons Ratio (y) = 0.15197 0.43923
# Poissons Ratio (z) = 0.25946 0.43870
#
# Static dielectric constant tensor:
#      x y z
#    x 1.603360 0.000000 0.000000 
#    y 0.000000 1.582770 0.000000 
#    z 0.000000 0.000000 1.606570 
# 
# From -- ./inp_files/76392.got.cif
#   From: 2010.05.17/outbox.cif.g08.bks.cpg/sg65_39_cif.got.tgz:76392.got - 2010.06.03 17:01:31.
