data_PCOD9490845
_publ_section_title
;
Structure prediction by ZEFSAII (Michael W. Deem and Ramdas Pophale) SiO2 
 PCOD9490845
Probable space group: C M M M
;
_chemical_formula_sum "Si O2"
_cell_formula_units_Z 116
_cell_length_a 22.811930
_cell_length_b 17.548921
_cell_length_c 15.508374
_cell_angle_alpha 90.000000
_cell_angle_beta 90.000000
_cell_angle_gamma 90.000000
_cell_volume 6208.386060
_symmetry_space_group_name_H-M "C M M M"
_symmetry_group_IT_number 65
_symmetry_cell_setting 'orthorhombic'
loop_
_space_group_symop_operation_xyz
x,y,z
-x,-y,z
x,-y,-z
-x,y,-z
-x,-y,-z
x,y,-z
-x,y,z
x,-y,z
1/2+x,1/2+y,z
1/2-x,1/2-y,z
1/2+x,1/2-y,-z
1/2-x,1/2+y,-z
1/2-x,1/2-y,-z
1/2+x,1/2+y,-z
1/2-x,1/2+y,z
1/2+x,1/2-y,z
loop_
_atom_site_type_symbol
_atom_site_label
_atom_site_fract_x
_atom_site_fract_y
_atom_site_fract_z
Si Si1 0.713678 0.324028 0.902879
Si Si2 0.564395 0.308386 0.276935
Si Si3 0.232804 0.661564 0.399300
Si Si4 0.410667 0.756958 0.906563
Si Si5 0.429337 0.914151 0.834506
Si Si6 0.404080 0.146990 0.645571
Si Si7 0.500000 0.888648 0.500000
Si Si8 0.680672 0.410867 0.736618
O O1 0.750000 0.250000 0.874215
O O2 0.648956 0.289868 0.910144
O O3 0.710017 0.385678 0.827621
O O4 0.732811 0.347602 0.000000
O O5 0.500000 0.340608 0.299300
O O6 0.560462 0.274612 0.180015
O O7 0.577704 0.235137 0.336606
O O8 0.619776 0.364824 0.277973
O O9 0.244165 0.646265 0.500000
O O10 0.250000 0.750000 0.382426
O O11 0.164110 0.647621 0.380641
O O12 0.273755 0.611765 0.337819
O O13 0.401375 0.846754 0.890356
O O14 0.438906 0.747130 0.000000
O O15 0.500000 0.906727 0.842677
O O16 0.412595 0.897350 0.735511
O O17 0.412874 0.000000 0.858799
O O18 0.448288 0.114015 0.575038
O O19 0.668649 0.500000 0.737164
#
# Coordination Sequence:
#
# PCOD9490845 Si02
#       8
#    16  16  16  16  16  16   4  16
#     4   9  19  37  61  85 112 151 199 247 295 346
#     4  10  20  37  60  86 118 151 193 246 295 349
#     4  11  23  39  63  88 115 155 199 242 289 345
#     4   9  18  33  56  83 110 145 194 243 285 343
#     4  10  21  35  49  74 117 155 184 229 288 346
#     4  11  20  37  61  87 113 147 195 246 291 344
#     4  12  20  36  67  96 107 142 206 252 286 342
#     4  11  24  39  59  88 124 161 197 242 299 362
#
# _framework density 18.684405000000002
#
# number of rings (size 3 to 8) (size 9 to 14) (size 15 to 20)
#    0.000    1.793    3.448    1.655    3.862    2.759 
#    0.000    1.379    0.000    2.483    0.000    5.310 
#    0.000    0.000    0.000    0.000    0.000    0.000 
#
# Total GULP energy -322948.051922 kJ/mol
# GULP energy per Si atom -5568.069861 kJ/mol
# Density = 1.864188 g / cm^3
# Si number density = 18.684405 Si / 1000 Ang^3
#
#
#
# Elastic Constant Matrix: (Units=GPa)
#
#
# Indices 1 2 3 4 5 6 
#
# 1 80.7904 5.3095 18.6409 0.0000 0.0000 0.0000
# 2 5.3095 59.0083 14.5507 0.0000 0.0000 0.0000
# 3 18.6409 14.5507 67.9523 0.0000 0.0000 0.0000
# 4 0.0000 0.0000 0.0000 1.1260 0.0000 0.0000
# 5 0.0000 0.0000 0.0000 0.0000 2388.7056 0.0000
# 6 0.0000 0.0000 0.0000 0.0000 0.0000 -46.9249
#
#
#
# Elastic Compliance Matrix: (Units=1/GPa)
#
#
# Indices 1 2 3 4 5 6 
#
# 1 0.013220 -0.000312 -0.003560 0.000000 0.000000 0.000000
# 2 -0.000312 0.017899 -0.003747 0.000000 0.000000 0.000000
# 3 -0.003560 -0.003747 0.016495 0.000000 0.000000 0.000000
# 4 0.000000 0.000000 0.000000 0.888104 0.000000 0.000000
# 5 0.000000 0.000000 0.000000 0.000000 0.000419 0.000000
# 6 0.000000 0.000000 0.000000 0.000000 0.000000 -0.021311
#
#
# Mechanical properties :
#
#
# Convention : Reuss Voigt Hill
#
# Bulk Modulus (GPa) = 30.88679 31.63924 31.26301
# Shear Modulus (GPa) = 5.31431 479.86466 242.58949
#
# Velocity S-wave (km/s) = 1.68832 16.04319 11.40689
# Velocity P-wave (km/s) = 4.51301 18.97759 13.79340
#
# Compressibility (1/GPa) = 0.03237630
#
# Stress axis : x y z
#
# Youngs Moduli (GPa) = 75.64575 55.86962 60.62415
#
# Poissons Ratio (x) = 0.01742 0.21580
# Poissons Ratio (y) = 0.02358 0.22717
# Poissons Ratio (z) = 0.26927 0.20935
#
# Static dielectric constant tensor:
#      x y z
#    x 1.767700 0.000000 0.000000 
#    y 0.000000 1.629060 0.000000 
#    z 0.000000 0.000000 1.664450 
# 
# From -- ./inp_files/46006.got.cif
#   From: 2010.05.17/outbox.cif.g08.bks.cpg/sg65_24_cif.got.tgz:46006.got - 2010.06.03 17:01:31.
