data_PCOD9490667
_publ_section_title
;
Structure prediction by ZEFSAII (Michael W. Deem and Ramdas Pophale) SiO2 
 PCOD9490667
Probable space group: C M M M
;
_chemical_formula_sum "Si O2"
_cell_formula_units_Z 108
_cell_length_a 23.700645
_cell_length_b 16.085023
_cell_length_c 14.206609
_cell_angle_alpha 90.000000
_cell_angle_beta 90.000000
_cell_angle_gamma 90.000000
_cell_volume 5415.920482
_symmetry_space_group_name_H-M "C M M M"
_symmetry_group_IT_number 65
_symmetry_cell_setting 'orthorhombic'
loop_
_space_group_symop_operation_xyz
x,y,z
-x,-y,z
x,-y,-z
-x,y,-z
-x,-y,-z
x,y,-z
-x,y,z
x,-y,z
1/2+x,1/2+y,z
1/2-x,1/2-y,z
1/2+x,1/2-y,-z
1/2-x,1/2+y,-z
1/2-x,1/2-y,-z
1/2+x,1/2+y,-z
1/2-x,1/2+y,z
1/2+x,1/2-y,z
loop_
_atom_site_type_symbol
_atom_site_label
_atom_site_fract_x
_atom_site_fract_y
_atom_site_fract_z
Si Si1 0.910351 0.346146 0.735708
Si Si2 0.894763 0.792877 0.112888
Si Si3 0.500000 0.406032 0.114719
Si Si4 0.326191 0.597020 0.613216
Si Si5 0.000000 0.500000 0.250774
Si Si6 0.229701 0.845675 0.106680
Si Si7 0.285413 0.904230 0.289093
Si Si8 0.438893 0.692481 0.613065
O O1 0.902608 0.293126 0.831825
O O2 0.847028 0.366147 0.700745
O O3 0.936337 0.282112 0.661043
O O4 0.950082 0.426152 0.748080
O O5 0.945276 0.853556 0.140977
O O6 0.835852 0.838615 0.133811
O O7 0.895877 0.778511 0.000000
O O8 0.500000 0.500000 0.150140
O O9 0.500000 0.409779 0.000000
O O10 0.323383 0.600251 0.500000
O O11 0.329929 0.500000 0.641484
O O12 0.267895 0.633184 0.654547
O O13 0.383119 0.643135 0.643789
O O14 0.250000 0.750000 0.108109
O O15 0.266207 0.895946 0.180770
O O16 0.234711 0.877095 0.000000
O O17 0.289882 0.000000 0.317900
O O18 0.436132 0.699806 0.500000
O O19 0.500000 0.653136 0.635994
#
# Coordination Sequence:
#
# PCOD9490667 Si02
#       8
#    16  16   8  16   4  16  16  16
#     4  12  23  42  64  85 119 159 206 258 302 357
#     4  10  21  38  63  89 118 158 200 247 302 358
#     4   9  19  36  57  84 116 151 190 236 296 358
#     4   9  20  39  63  95 129 157 193 240 297 367
#     4  12  26  44  64  86 118 164 208 252 312 356
#     4  10  20  36  59  86 116 155 199 243 299 360
#     4  11  23  38  60  88 120 160 201 252 309 351
#     4  10  22  40  64  91 120 157 200 245 296 357
#
# _framework density 19.941209000000001
#
# number of rings (size 3 to 8) (size 9 to 14) (size 15 to 20)
#    0.000    1.704    2.963    1.333    0.000    1.778 
#    0.000    6.667    0.000    0.000    0.000    0.000 
#    0.000    0.000    0.000    0.000    0.000    0.000 
#
# Total GULP energy -300975.997852 kJ/mol
# GULP energy per Si atom -5573.629590 kJ/mol
# Density = 1.989582 g / cm^3
# Si number density = 19.941209 Si / 1000 Ang^3
#
#
#
# Elastic Constant Matrix: (Units=GPa)
#
#
# Indices 1 2 3 4 5 6 
#
# 1 191.2109 44.1718 23.2909 0.0000 0.0000 0.0000
# 2 44.1718 69.3621 0.9884 0.0000 0.0000 0.0000
# 3 23.2909 0.9884 37.0763 0.0000 0.0000 0.0000
# 4 0.0000 0.0000 0.0000 10.6448 0.0000 0.0000
# 5 0.0000 0.0000 0.0000 0.0000 -21.5565 0.0000
# 6 0.0000 0.0000 0.0000 0.0000 0.0000 32.6161
#
#
#
# Elastic Compliance Matrix: (Units=1/GPa)
#
#
# Indices 1 2 3 4 5 6 
#
# 1 0.006701 -0.004209 -0.004097 0.000000 0.000000 0.000000
# 2 -0.004209 0.017066 0.002189 0.000000 0.000000 0.000000
# 3 -0.004097 0.002189 0.029487 0.000000 0.000000 0.000000
# 4 0.000000 0.000000 0.000000 0.093943 0.000000 0.000000
# 5 0.000000 0.000000 0.000000 0.000000 -0.046390 0.000000
# 6 0.000000 0.000000 0.000000 0.000000 0.000000 0.030660
#
#
# Mechanical properties :
#
#
# Convention : Reuss Voigt Hill
#
# Bulk Modulus (GPa) = 24.37848 48.28350 36.33099
# Shear Modulus (GPa) = 31.77111 19.62075 25.69593
#
# Velocity S-wave (km/s) = 3.99587 3.14017 3.59358
# Velocity P-wave (km/s) = 5.79146 6.11662 5.95626
#
# Compressibility (1/GPa) = 0.04101978
#
# Stress axis : x y z
#
# Youngs Moduli (GPa) = 149.22492 58.59457 33.91327
#
# Poissons Ratio (x) = 0.24664 0.13896
# Poissons Ratio (y) = 0.62812 -0.07424
# Poissons Ratio (z) = 0.61144 -0.12827
#
# Static dielectric constant tensor:
#      x y z
#    x 1.734910 0.000000 0.000000 
#    y 0.000000 1.681350 0.000000 
#    z 0.000000 0.000000 1.726250 
# 
# From -- ./inp_files/45812.got.cif
#   From: 2010.05.17/outbox.cif.g08.bks.cpg/sg65_23_cif.got.tgz:45812.got - 2010.06.03 17:01:31.
