data_PCOD9490332
_publ_section_title
;
Structure prediction by ZEFSAII (Michael W. Deem and Ramdas Pophale) SiO2 
 PCOD9490332
Probable space group: C M M M
;
_chemical_formula_sum "Si O2"
_cell_formula_units_Z 96
_cell_length_a 11.427314
_cell_length_b 17.669810
_cell_length_c 26.349411
_cell_angle_alpha 90.000000
_cell_angle_beta 90.000000
_cell_angle_gamma 90.000000
_cell_volume 5320.432680
_symmetry_space_group_name_H-M "C M M M"
_symmetry_group_IT_number 65
_symmetry_cell_setting 'orthorhombic'
loop_
_space_group_symop_operation_xyz
x,y,z
-x,-y,z
x,-y,-z
-x,y,-z
-x,-y,-z
x,y,-z
-x,y,z
x,-y,z
1/2+x,1/2+y,z
1/2-x,1/2-y,z
1/2+x,1/2-y,-z
1/2-x,1/2+y,-z
1/2-x,1/2-y,-z
1/2+x,1/2+y,-z
1/2-x,1/2+y,z
1/2+x,1/2-y,z
loop_
_atom_site_type_symbol
_atom_site_label
_atom_site_fract_x
_atom_site_fract_y
_atom_site_fract_z
Si Si1 0.862091 0.585504 0.160526
Si Si2 0.743490 0.907186 0.054918
Si Si3 0.363924 0.410971 0.653301
Si Si4 0.268233 0.339141 0.750997
Si Si5 0.500000 0.589922 0.799458
Si Si6 0.134807 0.197435 0.441023
Si Si7 0.500000 0.411126 0.078679
O O1 0.812005 0.500000 0.165995
O O2 0.814723 0.618244 0.107440
O O3 0.829936 0.629695 0.211149
O O4 0.000000 0.580711 0.155493
O O5 0.878057 0.881150 0.057911
O O6 0.739513 0.000000 0.056229
O O7 0.692909 0.884794 0.000000
O O8 0.500000 0.399872 0.670044
O O9 0.343586 0.500000 0.649146
O O10 0.278847 0.375245 0.695257
O O11 0.353413 0.369597 0.599480
O O12 0.250000 0.250000 0.746396
O O13 0.386739 0.367099 0.778623
O O14 0.500000 0.500000 0.785114
O O15 0.500000 0.593564 0.860423
O O16 0.139046 0.173152 0.500000
O O17 0.250000 0.250000 0.433305
O O18 0.000000 0.229340 0.433571
O O19 0.500000 0.500000 0.065175
#
# Coordination Sequence:
#
# PCOD9490332 Si02
#       7
#    16  16  16  16   8  16   8
#     4  10  21  36  53  75 108 148 184 224 283 354
#     4   9  16  27  47  77 107 134 173 230 285 334
#     4  10  20  35  58  86 115 152 198 246 294 347
#     4  12  24  36  57  82 112 144 189 241 292 349
#     4  11  20  37  62  83 106 147 192 235 288 348
#     4   9  18  34  57  87 123 162 201 247 300 352
#     4   9  15  26  49  80 106 130 173 232 286 331
#
# _framework density 18.043645000000001
#
# number of rings (size 3 to 8) (size 9 to 14) (size 15 to 20)
#    0.000    2.000    2.500    2.250    1.167    1.667 
#    0.000    4.167    0.000    2.000    0.000    2.333 
#    0.000    0.000    0.000    0.000    0.000    0.000 
#
# Total GULP energy -267425.035875 kJ/mol
# GULP energy per Si atom -5571.354914 kJ/mol
# Density = 1.800258 g / cm^3
# Si number density = 18.043645 Si / 1000 Ang^3
#
#
#
# Elastic Constant Matrix: (Units=GPa)
#
#
# Indices 1 2 3 4 5 6 
#
# 1 75.4176 33.0753 43.7340 0.0000 0.0000 0.0000
# 2 33.0753 79.1588 62.1820 0.0000 0.0000 0.0000
# 3 43.7340 62.1820 130.8138 0.0000 0.0000 0.0000
# 4 0.0000 0.0000 0.0000 395.9583 0.0000 0.0000
# 5 0.0000 0.0000 0.0000 0.0000 -19.8000 0.0000
# 6 0.0000 0.0000 0.0000 0.0000 0.0000 18.8627
#
#
#
# Elastic Compliance Matrix: (Units=1/GPa)
#
#
# Indices 1 2 3 4 5 6 
#
# 1 0.017315 -0.004289 -0.003750 0.000000 0.000000 0.000000
# 2 -0.004289 0.021223 -0.008655 0.000000 0.000000 0.000000
# 3 -0.003750 -0.008655 0.013012 0.000000 0.000000 0.000000
# 4 0.000000 0.000000 0.000000 0.002526 0.000000 0.000000
# 5 0.000000 0.000000 0.000000 0.000000 -0.050505 0.000000
# 6 0.000000 0.000000 0.000000 0.000000 0.000000 0.053015
#
#
# Mechanical properties :
#
#
# Convention : Reuss Voigt Hill
#
# Bulk Modulus (GPa) = 55.05605 62.59696 58.82650
# Shear Modulus (GPa) = 52.06833 88.76412 70.41623
#
# Velocity S-wave (km/s) = 5.37769 7.02146 6.25382
# Velocity P-wave (km/s) = 8.31495 10.02506 9.20978
#
# Compressibility (1/GPa) = 0.01816331
#
# Stress axis : x y z
#
# Youngs Moduli (GPa) = 57.75288 47.11776 76.85150
#
# Poissons Ratio (x) = 0.20209 0.28820
# Poissons Ratio (y) = 0.24771 0.66512
# Poissons Ratio (z) = 0.21658 0.40778
#
# Static dielectric constant tensor:
#      x y z
#    x 1.651050 0.000000 0.000000 
#    y 0.000000 1.627760 0.000000 
#    z 0.000000 0.000000 1.630820 
# 
# From -- ./inp_files/69056.got.cif
#   From: 2010.05.17/outbox.cif.g08.bks.cpg/sg65_35_cif.got.tgz:69056.got - 2010.06.03 17:01:31.
