data_PCOD9490203
_publ_section_title
;
Structure prediction by ZEFSAII (Michael W. Deem and Ramdas Pophale) SiO2 
 PCOD9490203
Probable space group: C M M M
;
_chemical_formula_sum "Si O2"
_cell_formula_units_Z 72
_cell_length_a 15.120111
_cell_length_b 13.911085
_cell_length_c 19.729526
_cell_angle_alpha 90.000000
_cell_angle_beta 90.000000
_cell_angle_gamma 90.000000
_cell_volume 4149.852256
_symmetry_space_group_name_H-M "C M M M"
_symmetry_group_IT_number 65
_symmetry_cell_setting 'orthorhombic'
loop_
_space_group_symop_operation_xyz
x,y,z
-x,-y,z
x,-y,-z
-x,y,-z
-x,-y,-z
x,y,-z
-x,y,z
x,-y,z
1/2+x,1/2+y,z
1/2-x,1/2-y,z
1/2+x,1/2-y,-z
1/2-x,1/2+y,-z
1/2-x,1/2-y,-z
1/2+x,1/2+y,-z
1/2-x,1/2+y,z
1/2+x,1/2-y,z
loop_
_atom_site_type_symbol
_atom_site_label
_atom_site_fract_x
_atom_site_fract_y
_atom_site_fract_z
Si Si1 0.288187 0.885202 0.294727
Si Si2 0.096735 0.113199 0.250878
Si Si3 0.000000 0.386944 0.918969
Si Si4 0.153865 0.723520 0.842222
Si Si5 0.397402 0.882943 0.575596
O O1 0.182897 0.867221 0.296374
O O2 0.325340 0.836631 0.226614
O O3 0.337459 0.850899 0.362061
O O4 0.301491 0.000000 0.289007
O O5 0.109429 0.178546 0.184689
O O6 0.000000 0.134168 0.281053
O O7 0.099814 0.000000 0.234242
O O8 0.913329 0.335517 0.888203
O O9 0.000000 0.500000 0.900612
O O10 0.000000 0.378982 0.000000
O O11 0.250000 0.750000 0.872563
O O12 0.370379 0.850971 0.500000
O O13 0.500000 0.856256 0.586344
O O14 0.394478 0.000000 0.575120
#
# Coordination Sequence:
#
# PCOD9490203 Si02
#       5
#    16  16   8  16  16
#     4   9  17  28  48  78 104 132 174 223 271 322
#     4   9  17  31  51  73  98 130 175 227 267 303
#     4  11  24  40  59  87 120 148 175 218 279 337
#     4  10  20  35  57  81 107 143 183 222 268 323
#     4   8  14  24  39  65 104 144 176 213 268 327
#
# _framework density 17.350014999999999
#
# number of rings (size 3 to 8) (size 9 to 14) (size 15 to 20)
#    0.000    2.778    1.111    1.333    1.556    1.333 
#    0.000    0.000    0.000    8.000    0.000    4.667 
#    0.000    0.000    0.000    0.000    0.000    0.000 
#
# Total GULP energy -200543.432332 kJ/mol
# GULP energy per Si atom -5570.650898 kJ/mol
# Density = 1.731053 g / cm^3
# Si number density = 17.350015 Si / 1000 Ang^3
#
#
#
# Elastic Constant Matrix: (Units=GPa)
#
#
# Indices 1 2 3 4 5 6 
#
# 1 144.2298 43.5327 74.8682 0.0000 0.0000 0.0000
# 2 43.5327 64.1367 36.5837 0.0000 0.0000 0.0000
# 3 74.8682 36.5837 80.0419 0.0000 0.0000 0.0000
# 4 0.0000 0.0000 0.0000 13.0707 0.0000 0.0000
# 5 0.0000 0.0000 0.0000 0.0000 12.8071 0.0000
# 6 0.0000 0.0000 0.0000 0.0000 0.0000 22.2332
#
#
#
# Elastic Compliance Matrix: (Units=1/GPa)
#
#
# Indices 1 2 3 4 5 6 
#
# 1 0.013818 -0.002714 -0.011684 0.000000 0.000000 0.000000
# 2 -0.002714 0.021623 -0.007344 0.000000 0.000000 0.000000
# 3 -0.011684 -0.007344 0.026779 0.000000 0.000000 0.000000
# 4 0.000000 0.000000 0.000000 0.076507 0.000000 0.000000
# 5 0.000000 0.000000 0.000000 0.000000 0.078082 0.000000
# 6 0.000000 0.000000 0.000000 0.000000 0.000000 0.044978
#
#
# Mechanical properties :
#
#
# Convention : Reuss Voigt Hill
#
# Bulk Modulus (GPa) = 53.37630 66.48639 59.93134
# Shear Modulus (GPa) = 16.05053 18.51712 17.28382
#
# Velocity S-wave (km/s) = 3.04485 3.27045 3.15966
# Velocity P-wave (km/s) = 6.57211 7.25706 6.92306
#
# Compressibility (1/GPa) = 0.01873491
#
# Stress axis : x y z
#
# Youngs Moduli (GPa) = 72.37155 46.24680 37.34279
#
# Poissons Ratio (x) = 0.12552 0.43631
# Poissons Ratio (y) = 0.19643 0.27426
# Poissons Ratio (z) = 0.84558 0.33965
#
# Static dielectric constant tensor:
#      x y z
#    x 1.616840 0.000000 0.000000 
#    y 0.000000 1.613620 0.000000 
#    z 0.000000 0.000000 1.553850 
# 
# From -- ./inp_files/52718.got.cif
#   From: 2010.05.17/outbox.cif.g08.bks.cpg/sg65_27_cif.got.tgz:52718.got - 2010.06.03 17:01:31.
