data_PCOD9490854
_publ_section_title
;
Structure prediction by ZEFSAII (Michael W. Deem and Ramdas Pophale) SiO2 
 PCOD9490854
Probable space group: C M M M
;
_chemical_formula_sum "Si O2"
_cell_formula_units_Z 80
_cell_length_a 21.530036
_cell_length_b 8.203832
_cell_length_c 24.117608
_cell_angle_alpha 90.000000
_cell_angle_beta 90.000000
_cell_angle_gamma 90.000000
_cell_volume 4259.864119
_symmetry_space_group_name_H-M "C M M M"
_symmetry_group_IT_number 65
_symmetry_cell_setting 'orthorhombic'
loop_
_space_group_symop_operation_xyz
x,y,z
-x,-y,z
x,-y,-z
-x,y,-z
-x,-y,-z
x,y,-z
-x,y,z
x,-y,z
1/2+x,1/2+y,z
1/2-x,1/2-y,z
1/2+x,1/2-y,-z
1/2-x,1/2+y,-z
1/2-x,1/2-y,-z
1/2+x,1/2+y,-z
1/2-x,1/2+y,z
1/2+x,1/2-y,z
loop_
_atom_site_type_symbol
_atom_site_label
_atom_site_fract_x
_atom_site_fract_y
_atom_site_fract_z
Si Si1 0.000000 0.316118 0.067096
Si Si2 0.574797 0.320064 0.369983
Si Si3 0.424188 0.000000 0.564582
Si Si4 0.316461 0.308597 0.175640
Si Si5 0.070341 0.692107 0.247911
Si Si6 0.863664 0.301557 0.936480
O O1 0.066608 0.240919 0.079292
O O2 0.000000 0.500000 0.091126
O O3 0.000000 0.331253 0.000000
O O4 0.500000 0.323152 0.377554
O O5 0.598683 0.500000 0.385444
O O6 0.597677 0.164875 0.404874
O O7 0.584332 0.286800 0.304783
O O8 0.500000 0.000000 0.567976
O O9 0.407574 0.000000 0.500000
O O10 0.322021 0.500000 0.183437
O O11 0.250000 0.250000 0.197982
O O12 0.375464 0.224848 0.204418
O O13 0.319613 0.265172 0.110581
O O14 0.069203 0.500000 0.261076
O O15 0.000000 0.736177 0.228748
O O16 0.864807 0.500000 0.935017
O O17 0.849715 0.254292 0.000000
#
# Coordination Sequence:
#
# PCOD9490854 Si02
#       6
#     8  16   8  16  16  16
#     4   7  12  26  51  79 103 129 165 209 255 318
#     4   9  16  28  47  73 107 148 194 238 281 334
#     4   9  16  26  42  70 112 156 193 233 284 338
#     4  12  26  41  56  79 112 145 183 235 287 340
#     4  10  20  37  61  84 109 147 190 234 288 346
#     4   9  18  35  58  81 106 139 178 220 276 342
#
# _framework density 18.779941999999998
#
# number of rings (size 3 to 8) (size 9 to 14) (size 15 to 20)
#    0.000    2.400    1.000    3.600    1.400    2.400 
#    0.000    2.000    0.000    1.800    0.000    0.000 
#    0.000    0.800    0.400    0.000    0.000    0.000 
#
# Total GULP energy -223036.434600 kJ/mol
# GULP energy per Si atom -5575.910865 kJ/mol
# Density = 1.873720 g / cm^3
# Si number density = 18.779942 Si / 1000 Ang^3
#
#
#
# Elastic Constant Matrix: (Units=GPa)
#
#
# Indices 1 2 3 4 5 6 
#
# 1 71.4990 13.3890 30.0850 0.0000 0.0000 0.0000
# 2 13.3890 95.6561 34.7201 0.0000 0.0000 0.0000
# 3 30.0850 34.7201 64.8678 0.0000 0.0000 0.0000
# 4 0.0000 0.0000 0.0000 4.4155 0.0000 0.0000
# 5 0.0000 0.0000 0.0000 0.0000 0.9793 0.0000
# 6 0.0000 0.0000 0.0000 0.0000 0.0000 17.3957
#
#
#
# Elastic Compliance Matrix: (Units=1/GPa)
#
#
# Indices 1 2 3 4 5 6 
#
# 1 0.017406 0.000613 -0.008401 0.000000 0.000000 0.000000
# 2 0.000613 0.012996 -0.007241 0.000000 0.000000 0.000000
# 3 -0.008401 -0.007241 0.023188 0.000000 0.000000 0.000000
# 4 0.000000 0.000000 0.000000 0.226476 0.000000 0.000000
# 5 0.000000 0.000000 0.000000 0.000000 1.021137 0.000000
# 6 0.000000 0.000000 0.000000 0.000000 0.000000 0.057485
#
#
# Mechanical properties :
#
#
# Convention : Reuss Voigt Hill
#
# Bulk Modulus (GPa) = 42.49291 43.15680 42.82486
# Shear Modulus (GPa) = 3.58015 14.81335 9.19675
#
# Velocity S-wave (km/s) = 1.38221 2.81158 2.21534
# Velocity P-wave (km/s) = 5.02227 5.79397 5.42187
#
# Compressibility (1/GPa) = 0.02353334
#
# Stress axis : x y z
#
# Youngs Moduli (GPa) = 57.45029 76.94434 43.12630
#
# Poissons Ratio (x) = -0.04716 0.36230
# Poissons Ratio (y) = -0.03521 0.31226
# Poissons Ratio (z) = 0.48264 0.55712
#
# Static dielectric constant tensor:
#      x y z
#    x 1.657190 0.000000 0.000000 
#    y 0.000000 1.672620 0.000000 
#    z 0.000000 0.000000 1.644170 
# 
# From -- ./inp_files/71346.got.cif
#   From: 2010.05.17/outbox.cif.g08.bks.cpg/sg65_36_cif.got.tgz:71346.got - 2010.06.03 17:01:31.
