data_PCOD9490337
_publ_section_title
;
Structure prediction by ZEFSAII (Michael W. Deem and Ramdas Pophale) SiO2 
 PCOD9490337
Probable space group: C M M M
;
_chemical_formula_sum "Si O2"
_cell_formula_units_Z 70
_cell_length_a 15.718808
_cell_length_b 14.570585
_cell_length_c 15.128628
_cell_angle_alpha 90.000000
_cell_angle_beta 90.000000
_cell_angle_gamma 90.000000
_cell_volume 3464.943378
_symmetry_space_group_name_H-M "C M M M"
_symmetry_group_IT_number 65
_symmetry_cell_setting 'orthorhombic'
loop_
_space_group_symop_operation_xyz
x,y,z
-x,-y,z
x,-y,-z
-x,y,-z
-x,-y,-z
x,y,-z
-x,y,z
x,-y,z
1/2+x,1/2+y,z
1/2-x,1/2-y,z
1/2+x,1/2-y,-z
1/2-x,1/2+y,-z
1/2-x,1/2-y,-z
1/2+x,1/2+y,-z
1/2-x,1/2+y,z
1/2+x,1/2-y,z
loop_
_atom_site_type_symbol
_atom_site_label
_atom_site_fract_x
_atom_site_fract_y
_atom_site_fract_z
Si Si1 0.000000 0.500000 0.000000
Si Si2 0.721664 0.345268 0.854934
Si Si3 0.831478 0.805025 0.654049
Si Si4 0.500000 0.000000 0.313146
Si Si5 0.500000 0.802313 0.604445
Si Si6 0.899885 0.000000 0.350931
Si Si7 0.863298 0.500000 0.159955
Si Si8 0.402158 0.500000 0.133908
O O1 0.073788 0.500000 0.922527
O O2 0.750000 0.250000 0.898409
O O3 0.687018 0.318394 0.757997
O O4 0.802629 0.411386 0.843645
O O5 0.648725 0.409508 0.895874
O O6 0.750000 0.750000 0.616671
O O7 0.916036 0.745730 0.642405
O O8 0.852539 0.907250 0.619011
O O9 0.500000 0.908516 0.370344
O O10 0.418030 0.000000 0.249170
O O11 0.500000 0.789445 0.500000
O O12 0.898603 0.000000 0.242506
O O13 0.000000 0.000000 0.376482
O O14 0.500000 0.500000 0.108180
#
# Coordination Sequence:
#
# PCOD9490337 Si02
#       8
#     2  16  16   4   8   8   8   8
#     4  10  24  44  66  96 148 166 194 260 336 398
#     4   9  17  32  57  90 121 153 211 262 311 376
#     4  10  20  35  58  86 120 164 220 280 334 392
#     4  11  21  39  63  82 122 166 229 269 325 407
#     4  12  26  40  57  88 132 179 230 290 351 400
#     4   9  15  31  54  77 112 153 200 264 330 391
#     4  10  21  41  65  98 124 169 209 261 330 405
#     4   8  15  25  44  79 116 146 188 255 311 347
#
# _framework density 20.202351
#
# number of rings (size 3 to 8) (size 9 to 14) (size 15 to 20)
#    0.000    2.286    1.143    3.600    1.600    1.371 
#    4.114    1.714    0.000    0.000    0.000    1.600 
#    0.000    0.000    0.000    0.000    0.000    0.000 
#
# Total GULP energy -195125.866861 kJ/mol
# GULP energy per Si atom -5575.024767 kJ/mol
# Density = 2.015637 g / cm^3
# Si number density = 20.202351 Si / 1000 Ang^3
#
#
#
# Elastic Constant Matrix: (Units=GPa)
#
#
# Indices 1 2 3 4 5 6 
#
# 1 196.7338 104.3481 37.9114 0.0000 0.0000 0.0000
# 2 104.3481 209.1758 16.1708 0.0000 0.0000 0.0000
# 3 37.9114 16.1708 73.0317 0.0000 0.0000 0.0000
# 4 0.0000 0.0000 0.0000 -15.1161 0.0000 0.0000
# 5 0.0000 0.0000 0.0000 0.0000 -5.5202 0.0000
# 6 0.0000 0.0000 0.0000 0.0000 0.0000 22.0794
#
#
#
# Elastic Compliance Matrix: (Units=1/GPa)
#
#
# Indices 1 2 3 4 5 6 
#
# 1 0.007560 -0.003528 -0.003143 0.000000 0.000000 0.000000
# 2 -0.003528 0.006511 0.000390 0.000000 0.000000 0.000000
# 3 -0.003143 0.000390 0.015238 0.000000 0.000000 0.000000
# 4 0.000000 0.000000 0.000000 -0.066155 0.000000 0.000000
# 5 0.000000 0.000000 0.000000 0.000000 -0.181152 0.000000
# 6 0.000000 0.000000 0.000000 0.000000 0.000000 0.045291
#
#
# Mechanical properties :
#
#
# Convention : Reuss Voigt Hill
#
# Bulk Modulus (GPa) = 59.71745 88.42243 74.06994
# Shear Modulus (GPa) = -32.34961 21.65602 -5.34679
#
# Velocity S-wave (km/s) = -4.00594 3.27763 -1.62861
# Velocity P-wave (km/s) = 2.86829 7.62805 5.76256
#
# Compressibility (1/GPa) = 0.01674552
#
# Stress axis : x y z
#
# Youngs Moduli (GPa) = 132.27106 153.59348 65.62529
#
# Poissons Ratio (x) = 0.54195 0.20628
# Poissons Ratio (y) = 0.46671 -0.02560
# Poissons Ratio (z) = 0.41577 -0.05991
#
# Static dielectric constant tensor:
#      x y z
#    x 1.682090 0.000000 0.000000 
#    y 0.000000 1.728070 0.000000 
#    z 0.000000 0.000000 1.684560 
# 
# From -- ./inp_files/52803.got.cif
#   From: 2010.05.17/outbox.cif.g08.bks.cpg/sg65_27_cif.got.tgz:52803.got - 2010.06.03 17:01:31.
