data_PCOD9490083
_publ_section_title
;
Structure prediction by ZEFSAII (Michael W. Deem and Ramdas Pophale) SiO2 
 PCOD9490083
Probable space group: C M M M
;
_chemical_formula_sum "Si O2"
_cell_formula_units_Z 104
_cell_length_a 28.392636
_cell_length_b 8.121784
_cell_length_c 22.291207
_cell_angle_alpha 90.000000
_cell_angle_beta 90.000000
_cell_angle_gamma 90.000000
_cell_volume 5140.326851
_symmetry_space_group_name_H-M "C M M M"
_symmetry_group_IT_number 65
_symmetry_cell_setting 'orthorhombic'
loop_
_space_group_symop_operation_xyz
x,y,z
-x,-y,z
x,-y,-z
-x,y,-z
-x,-y,-z
x,y,-z
-x,y,z
x,-y,z
1/2+x,1/2+y,z
1/2-x,1/2-y,z
1/2+x,1/2-y,-z
1/2-x,1/2+y,-z
1/2-x,1/2-y,-z
1/2+x,1/2+y,-z
1/2-x,1/2+y,z
1/2+x,1/2-y,z
loop_
_atom_site_type_symbol
_atom_site_label
_atom_site_fract_x
_atom_site_fract_y
_atom_site_fract_z
Si Si1 0.695754 0.800672 0.433466
Si Si2 0.943757 0.692235 0.000000
Si Si3 0.601460 0.309235 0.877319
Si Si4 0.446311 0.805339 0.758742
Si Si5 0.302875 0.196938 0.930721
Si Si6 0.623865 0.186036 0.339591
Si Si7 0.445804 0.309942 0.570972
O O1 0.677923 0.745626 0.500000
O O2 0.750000 0.750000 0.430293
O O3 0.668019 0.736619 0.374941
O O4 0.692083 0.000000 0.432640
O O5 0.923366 0.773899 0.059392
O O6 0.929344 0.500000 0.000000
O O7 0.000000 0.701605 0.000000
O O8 0.598224 0.500000 0.862056
O O9 0.573751 0.213389 0.825604
O O10 0.655935 0.261461 0.887919
O O11 0.500000 0.739003 0.753325
O O12 0.406024 0.734170 0.714399
O O13 0.449223 0.000000 0.744372
O O14 0.250000 0.250000 0.913937
O O15 0.305183 0.000000 0.931090
O O16 0.310939 0.254937 0.000000
O O17 0.586054 0.185957 0.393159
O O18 0.637219 0.000000 0.320928
O O19 0.443074 0.285212 0.500000
O O20 0.500000 0.291907 0.589290
O O21 0.431709 0.500000 0.583397
#
# Coordination Sequence:
#
# PCOD9490083 Si02
#       7
#    16   8  16  16  16  16  16
#     4   9  18  33  54  82 114 145 182 232 287 342
#     4  11  23  39  60  85 114 149 189 239 301 359
#     4  12  24  38  59  87 118 152 194 241 291 349
#     4  10  22  40  59  79 110 153 196 238 291 353
#     4  10  20  36  61  90 122 154 186 228 282 340
#     4  10  20  35  56  80 105 141 189 238 285 335
#     4   9  18  31  47  72 107 142 175 217 273 335
#
# _framework density 20.232175000000002
#
# number of rings (size 3 to 8) (size 9 to 14) (size 15 to 20)
#    0.000    1.923    0.769    3.923    0.000    6.462 
#    0.000    3.077    0.000    1.846    0.000    0.000 
#    0.000    0.000    0.000    0.000    0.000    0.000 
#
# Total GULP energy -290097.620616 kJ/mol
# GULP energy per Si atom -5578.800396 kJ/mol
# Density = 2.018613 g / cm^3
# Si number density = 20.232175 Si / 1000 Ang^3
#
#
#
# Elastic Constant Matrix: (Units=GPa)
#
#
# Indices 1 2 3 4 5 6 
#
# 1 97.7588 -1.0448 52.2791 0.0000 0.0000 0.0000
# 2 -1.0448 21.3681 -12.4925 0.0000 0.0000 0.0000
# 3 52.2791 -12.4925 86.7813 0.0000 0.0000 0.0000
# 4 0.0000 0.0000 0.0000 8.8036 0.0000 0.0000
# 5 0.0000 0.0000 0.0000 0.0000 46.3042 0.0000
# 6 0.0000 0.0000 0.0000 0.0000 0.0000 25.6750
#
#
#
# Elastic Compliance Matrix: (Units=1/GPa)
#
#
# Indices 1 2 3 4 5 6 
#
# 1 0.015596 -0.005165 -0.010139 0.000000 0.000000 0.000000
# 2 -0.005165 0.052810 0.010714 0.000000 0.000000 0.000000
# 3 -0.010139 0.010714 0.019173 0.000000 0.000000 0.000000
# 4 0.000000 0.000000 0.000000 0.113590 0.000000 0.000000
# 5 0.000000 0.000000 0.000000 0.000000 0.021596 0.000000
# 6 0.000000 0.000000 0.000000 0.000000 0.000000 0.038948
#
#
# Mechanical properties :
#
#
# Convention : Reuss Voigt Hill
#
# Bulk Modulus (GPa) = 12.75533 31.48799 22.12166
# Shear Modulus (GPa) = 16.83344 27.30098 22.06721
#
# Velocity S-wave (km/s) = 2.88759 3.67738 3.30616
# Velocity P-wave (km/s) = 4.17561 5.79896 5.05291
#
# Compressibility (1/GPa) = 0.07839862
#
# Stress axis : x y z
#
# Youngs Moduli (GPa) = 64.11830 18.93591 52.15533
#
# Poissons Ratio (x) = 0.09781 0.52880
# Poissons Ratio (y) = 0.33117 -0.55878
# Poissons Ratio (z) = 0.65010 -0.20287
#
# Static dielectric constant tensor:
#      x y z
#    x 1.733590 0.000000 0.000000 
#    y 0.000000 1.738460 0.000000 
#    z 0.000000 0.000000 1.645120 
# 
# From -- ./inp_files/65891.got.cif
#   From: 2010.05.17/outbox.cif.g08.bks.cpg/sg65_33_cif.got.tgz:65891.got - 2010.06.03 17:01:31.
