data_PCOD9490558
_publ_section_title
;
Structure prediction by ZEFSAII (Michael W. Deem and Ramdas Pophale) SiO2 
 PCOD9490558
Probable space group: C M M M
;
_chemical_formula_sum "Si O2"
_cell_formula_units_Z 72
_cell_length_a 36.753152
_cell_length_b 13.936512
_cell_length_c 7.651795
_cell_angle_alpha 90.000000
_cell_angle_beta 90.000000
_cell_angle_gamma 90.000000
_cell_volume 3919.331609
_symmetry_space_group_name_H-M "C M M M"
_symmetry_group_IT_number 65
_symmetry_cell_setting 'orthorhombic'
loop_
_space_group_symop_operation_xyz
x,y,z
-x,-y,z
x,-y,-z
-x,y,-z
-x,-y,-z
x,y,-z
-x,y,z
x,-y,z
1/2+x,1/2+y,z
1/2-x,1/2-y,z
1/2+x,1/2-y,-z
1/2-x,1/2+y,-z
1/2-x,1/2-y,-z
1/2+x,1/2+y,-z
1/2-x,1/2+y,z
1/2+x,1/2-y,z
loop_
_atom_site_type_symbol
_atom_site_label
_atom_site_fract_x
_atom_site_fract_y
_atom_site_fract_z
Si Si1 0.171575 0.384280 0.300687
Si Si2 0.809460 0.884007 0.000000
Si Si3 0.866377 0.111735 0.704638
Si Si4 0.956925 0.385582 0.000000
Si Si5 0.226614 0.617498 0.000000
Si Si6 0.592592 0.203289 0.293872
O O1 0.179171 0.354216 0.500000
O O2 0.169894 0.500000 0.296081
O O3 0.131623 0.345862 0.253251
O O4 0.203022 0.353919 0.168353
O O5 0.833157 0.859113 0.829725
O O6 0.768197 0.848715 0.000000
O O7 0.807281 0.000000 0.000000
O O8 0.856433 0.121373 0.500000
O O9 0.899613 0.183966 0.736541
O O10 0.874981 0.000000 0.738206
O O11 0.937678 0.339830 0.169122
O O12 0.950689 0.500000 0.000000
O O13 0.000000 0.368274 0.000000
O O14 0.227676 0.500000 0.000000
O O15 0.585147 0.187661 0.500000
#
# Coordination Sequence:
#
# PCOD9490558 Si02
#       6
#    16   8  16   8   8  16
#     4   9  17  29  46  68  94 129 174 218 260 310
#     4   9  17  29  46  69  99 136 175 220 277 325
#     4   9  18  33  54  78 102 134 180 228 267 304
#     4  11  24  39  58  87 117 141 165 197 245 308
#     4   9  17  28  43  65  96 135 174 216 269 319
#     4  10  20  36  58  80 105 139 177 216 258 306
#
# _framework density 18.370480000000001
#
# number of rings (size 3 to 8) (size 9 to 14) (size 15 to 20)
#    0.000    2.556    0.000    2.000    0.000    3.556 
#    0.000    7.778    0.000    5.333    0.000    3.111 
#    0.000    0.000    0.000    0.000    0.000    0.000 
#
# Total GULP energy -200981.647615 kJ/mol
# GULP energy per Si atom -5582.823545 kJ/mol
# Density = 1.832867 g / cm^3
# Si number density = 18.370480 Si / 1000 Ang^3
#
#
#
# Elastic Constant Matrix: (Units=GPa)
#
#
# Indices 1 2 3 4 5 6 
#
# 1 136.2217 66.4526 97.1488 0.0000 0.0000 0.0000
# 2 66.4526 91.7682 53.8737 0.0000 0.0000 0.0000
# 3 97.1488 53.8737 108.9525 0.0000 0.0000 0.0000
# 4 0.0000 0.0000 0.0000 18.0048 0.0000 0.0000
# 5 0.0000 0.0000 0.0000 0.0000 15.8724 0.0000
# 6 0.0000 0.0000 0.0000 0.0000 0.0000 26.8153
#
#
#
# Elastic Compliance Matrix: (Units=1/GPa)
#
#
# Indices 1 2 3 4 5 6 
#
# 1 0.022527 -0.006370 -0.016937 0.000000 0.000000 0.000000
# 2 -0.006370 0.017155 -0.002803 0.000000 0.000000 0.000000
# 3 -0.016937 -0.002803 0.025666 0.000000 0.000000 0.000000
# 4 0.000000 0.000000 0.000000 0.055541 0.000000 0.000000
# 5 0.000000 0.000000 0.000000 0.000000 0.063003 0.000000
# 6 0.000000 0.000000 0.000000 0.000000 0.000000 0.037292
#
#
# Mechanical properties :
#
#
# Convention : Reuss Voigt Hill
#
# Bulk Modulus (GPa) = 76.16621 85.76586 80.96604
# Shear Modulus (GPa) = 17.99983 20.10296 19.05140
#
# Velocity S-wave (km/s) = 3.13361 3.31162 3.22384
# Velocity P-wave (km/s) = 7.39215 7.83649 7.61756
#
# Compressibility (1/GPa) = 0.01312918
#
# Stress axis : x y z
#
# Youngs Moduli (GPa) = 44.39085 58.29171 38.96133
#
# Poissons Ratio (x) = 0.37130 0.65989
# Poissons Ratio (y) = 0.28275 0.10921
# Poissons Ratio (z) = 0.75185 0.16340
#
# Static dielectric constant tensor:
#      x y z
#    x 1.572380 0.000000 0.000000 
#    y 0.000000 1.687800 0.000000 
#    z 0.000000 0.000000 1.639430 
# 
# From -- ./inp_files/15810.got.cif
#   From: 2010.05.17/outbox.cif.g08.bks.cpg/sg65_8_cif.got.tgz:15810.got - 2010.06.03 17:01:31.
