data_PCOD9490434
_publ_section_title
;
Structure prediction by ZEFSAII (Michael W. Deem and Ramdas Pophale) SiO2 
 PCOD9490434
Probable space group: C M M M
;
_chemical_formula_sum "Si O2"
_cell_formula_units_Z 88
_cell_length_a 21.708448
_cell_length_b 13.954961
_cell_length_c 14.077385
_cell_angle_alpha 90.000000
_cell_angle_beta 90.000000
_cell_angle_gamma 90.000000
_cell_volume 4264.610687
_symmetry_space_group_name_H-M "C M M M"
_symmetry_group_IT_number 65
_symmetry_cell_setting 'orthorhombic'
loop_
_space_group_symop_operation_xyz
x,y,z
-x,-y,z
x,-y,-z
-x,y,-z
-x,-y,-z
x,y,-z
-x,y,z
x,-y,z
1/2+x,1/2+y,z
1/2-x,1/2-y,z
1/2+x,1/2-y,-z
1/2-x,1/2+y,-z
1/2-x,1/2-y,-z
1/2+x,1/2+y,-z
1/2-x,1/2+y,z
1/2+x,1/2-y,z
loop_
_atom_site_type_symbol
_atom_site_label
_atom_site_fract_x
_atom_site_fract_y
_atom_site_fract_z
Si Si1 0.072282 0.702444 0.695852
Si Si2 0.255418 0.884754 0.799824
Si Si3 0.380465 0.116336 0.107376
Si Si4 0.117791 0.886094 0.230860
Si Si5 0.684598 0.114392 0.603749
Si Si6 0.000000 0.885586 0.897591
O O1 0.083789 0.662121 0.803381
O O2 0.101456 0.809356 0.688386
O O3 0.113768 0.637456 0.627853
O O4 0.000000 0.703269 0.676237
O O5 0.308430 0.857336 0.873941
O O6 0.184101 0.860609 0.813168
O O7 0.277077 0.851573 0.695316
O O8 0.256965 0.000000 0.799479
O O9 0.386079 0.000000 0.114409
O O10 0.398737 0.143579 0.000000
O O11 0.062237 0.866678 0.158520
O O12 0.117612 0.000000 0.255928
O O13 0.701814 0.152491 0.500000
O O14 0.692529 0.000000 0.601674
O O15 0.000000 0.000000 0.907387
O O16 0.000000 0.838937 0.000000
#
# Coordination Sequence:
#
# PCOD9490434 Si02
#       6
#    16  16  16  16  16   8
#     4  11  22  35  53  80 109 145 187 225 266 324
#     4   8  16  33  57  81 107 141 180 223 276 335
#     4   9  19  35  53  77 110 143 177 222 276 335
#     4  10  20  36  55  77 108 147 183 225 276 316
#     4   9  19  37  60  86 113 137 171 226 284 336
#     4   9  18  32  50  74 104 143 192 232 262 303
#
# _framework density 20.634944000000001
#
# number of rings (size 3 to 8) (size 9 to 14) (size 15 to 20)
#    0.000    2.636    0.909    1.636    0.000    6.545 
#    0.000    8.182    0.000    1.636    0.000    1.273 
#    0.000    0.000    0.000    0.000    0.000    0.000 
#
# Total GULP energy -245216.164590 kJ/mol
# GULP energy per Si atom -5573.094650 kJ/mol
# Density = 2.058798 g / cm^3
# Si number density = 20.634944 Si / 1000 Ang^3
#
#
#
# Elastic Constant Matrix: (Units=GPa)
#
#
# Indices 1 2 3 4 5 6 
#
# 1 81.1789 7.3197 -19.7713 0.0000 0.0000 0.0000
# 2 7.3197 75.1895 14.0275 0.0000 0.0000 0.0000
# 3 -19.7713 14.0275 58.0144 0.0000 0.0000 0.0000
# 4 0.0000 0.0000 0.0000 7.2488 0.0000 0.0000
# 5 0.0000 0.0000 0.0000 0.0000 -67.9297 0.0000
# 6 0.0000 0.0000 0.0000 0.0000 0.0000 426.8368
#
#
#
# Elastic Compliance Matrix: (Units=1/GPa)
#
#
# Indices 1 2 3 4 5 6 
#
# 1 0.013812 -0.002328 0.005270 0.000000 0.000000 0.000000
# 2 -0.002328 0.014320 -0.004256 0.000000 0.000000 0.000000
# 3 0.005270 -0.004256 0.020062 0.000000 0.000000 0.000000
# 4 0.000000 0.000000 0.000000 0.137953 0.000000 0.000000
# 5 0.000000 0.000000 0.000000 0.000000 -0.014721 0.000000
# 6 0.000000 0.000000 0.000000 0.000000 0.000000 0.002343
#
#
# Mechanical properties :
#
#
# Convention : Reuss Voigt Hill
#
# Bulk Modulus (GPa) = 21.94574 24.17050 23.05812
# Shear Modulus (GPa) = 26.09803 87.41831 56.75817
#
# Velocity S-wave (km/s) = 3.56019 6.51584 5.25029
# Velocity P-wave (km/s) = 5.24960 8.26723 6.92479
#
# Compressibility (1/GPa) = 0.04556692
#
# Stress axis : x y z
#
# Youngs Moduli (GPa) = 72.40152 69.83084 49.84520
#
# Poissons Ratio (x) = 0.16255 -0.26268
# Poissons Ratio (y) = 0.16853 0.21213
# Poissons Ratio (z) = -0.38155 0.29719
#
# Static dielectric constant tensor:
#      x y z
#    x 1.483640 0.000000 0.000000 
#    y 0.000000 1.794290 0.000000 
#    z 0.000000 0.000000 1.755200 
# 
# From -- ./inp_files/44032.got.cif
#   From: 2010.05.17/outbox.cif.g08.bks.cpg/sg65_23_cif.got.tgz:44032.got - 2010.06.03 17:01:31.
