data_PCOD9490736
_publ_section_title
;
Structure prediction by ZEFSAII (Michael W. Deem and Ramdas Pophale) SiO2 
 PCOD9490736
Probable space group: C M M M
;
_chemical_formula_sum "Si O2"
_cell_formula_units_Z 56
_cell_length_a 9.845853
_cell_length_b 17.141863
_cell_length_c 17.301755
_cell_angle_alpha 90.000000
_cell_angle_beta 90.000000
_cell_angle_gamma 90.000000
_cell_volume 2920.125556
_symmetry_space_group_name_H-M "C M M M"
_symmetry_group_IT_number 65
_symmetry_cell_setting 'orthorhombic'
loop_
_space_group_symop_operation_xyz
x,y,z
-x,-y,z
x,-y,-z
-x,y,-z
-x,-y,-z
x,y,-z
-x,y,z
x,-y,z
1/2+x,1/2+y,z
1/2-x,1/2-y,z
1/2+x,1/2-y,-z
1/2-x,1/2+y,-z
1/2-x,1/2-y,-z
1/2+x,1/2+y,-z
1/2-x,1/2+y,z
1/2+x,1/2-y,z
loop_
_atom_site_type_symbol
_atom_site_label
_atom_site_fract_x
_atom_site_fract_y
_atom_site_fract_z
Si Si1 0.500000 0.377061 0.591725
Si Si2 0.220819 0.587765 0.326576
Si Si3 0.336649 0.169482 0.170383
Si Si4 0.000000 0.309540 0.409555
Si Si5 0.658421 0.173303 0.000000
O O1 0.500000 0.395652 0.500000
O O2 0.367801 0.408148 0.634868
O O3 0.500000 0.283153 0.599708
O O4 0.167046 0.500000 0.335214
O O5 0.215936 0.612960 0.237254
O O6 0.129209 0.650890 0.370365
O O7 0.500000 0.183281 0.181525
O O8 0.250000 0.250000 0.175433
O O9 0.317903 0.135086 0.083655
O O10 0.000000 0.327364 0.500000
O O11 0.750000 0.250000 0.000000
O O12 0.500000 0.196504 0.000000
#
# Coordination Sequence:
#
# PCOD9490736 Si02
#       5
#     8  16  16   8   8
#     4  11  25  45  65  86 113 156 207 249 294 355
#     4  12  25  39  59  89 125 157 193 243 300 358
#     4  10  20  36  61  89 121 159 202 245 291 350
#     4  11  23  41  65  88 113 150 199 249 298 351
#     4   8  16  32  55  87 118 152 198 246 288 338
#
# _framework density 19.177258999999999
#
# number of rings (size 3 to 8) (size 9 to 14) (size 15 to 20)
#    0.000    1.429    1.429    4.286    2.000    5.714 
#    0.000    0.714    0.000    2.571    0.000    2.000 
#    0.000    0.000    0.000    0.000    0.000    0.000 
#
# Total GULP energy -156299.666268 kJ/mol
# GULP energy per Si atom -5582.130938 kJ/mol
# Density = 1.913361 g / cm^3
# Si number density = 19.177259 Si / 1000 Ang^3
#
#
#
# Elastic Constant Matrix: (Units=GPa)
#
#
# Indices 1 2 3 4 5 6 
#
# 1 99.8624 12.8261 49.8171 0.0000 0.0000 0.0000
# 2 12.8261 61.6278 49.0243 0.0000 0.0000 0.0000
# 3 49.8171 49.0243 168.1522 0.0000 0.0000 0.0000
# 4 0.0000 0.0000 0.0000 -29.7473 0.0000 0.0000
# 5 0.0000 0.0000 0.0000 0.0000 32.6789 0.0000
# 6 0.0000 0.0000 0.0000 0.0000 0.0000 12.2658
#
#
#
# Elastic Compliance Matrix: (Units=1/GPa)
#
#
# Indices 1 2 3 4 5 6 
#
# 1 0.011759 0.000422 -0.003607 0.000000 0.000000 0.000000
# 2 0.000422 0.021141 -0.006289 0.000000 0.000000 0.000000
# 3 -0.003607 -0.006289 0.008849 0.000000 0.000000 0.000000
# 4 0.000000 0.000000 0.000000 -0.033617 0.000000 0.000000
# 5 0.000000 0.000000 0.000000 0.000000 0.030601 0.000000
# 6 0.000000 0.000000 0.000000 0.000000 0.000000 0.081528
#
#
# Mechanical properties :
#
#
# Convention : Reuss Voigt Hill
#
# Bulk Modulus (GPa) = 43.85583 61.44194 52.64888
# Shear Modulus (GPa) = 34.05794 17.57114 25.81454
#
# Velocity S-wave (km/s) = 4.21878 3.03024 3.67291
# Velocity P-wave (km/s) = 6.83002 6.65971 6.74540
#
# Compressibility (1/GPa) = 0.02280199
#
# Stress axis : x y z
#
# Youngs Moduli (GPa) = 85.04256 47.30103 113.00779
#
# Poissons Ratio (x) = -0.01995 0.40758
# Poissons Ratio (y) = -0.03587 0.71066
# Poissons Ratio (z) = 0.30672 0.29746
#
# Static dielectric constant tensor:
#      x y z
#    x 1.704020 0.000000 0.000000 
#    y 0.000000 1.624370 0.000000 
#    z 0.000000 0.000000 1.699970 
# 
# From -- ./inp_files/48805.got.cif
#   From: 2010.05.17/outbox.cif.g08.bks.cpg/sg65_25_cif.got.tgz:48805.got - 2010.06.03 17:01:31.
