data_PCOD9490481
_publ_section_title
;
Structure prediction by ZEFSAII (Michael W. Deem and Ramdas Pophale) SiO2 
 PCOD9490481
Probable space group: C M M M
;
_chemical_formula_sum "Si O2"
_cell_formula_units_Z 92
_cell_length_a 22.232014
_cell_length_b 28.424748
_cell_length_c 7.699203
_cell_angle_alpha 90.000000
_cell_angle_beta 90.000000
_cell_angle_gamma 90.000000
_cell_volume 4865.429690
_symmetry_space_group_name_H-M "C M M M"
_symmetry_group_IT_number 65
_symmetry_cell_setting 'orthorhombic'
loop_
_space_group_symop_operation_xyz
x,y,z
-x,-y,z
x,-y,-z
-x,y,-z
-x,-y,-z
x,y,-z
-x,y,z
x,-y,z
1/2+x,1/2+y,z
1/2-x,1/2-y,z
1/2+x,1/2-y,-z
1/2-x,1/2+y,-z
1/2-x,1/2-y,-z
1/2+x,1/2+y,-z
1/2-x,1/2+y,z
1/2+x,1/2-y,z
loop_
_atom_site_type_symbol
_atom_site_label
_atom_site_fract_x
_atom_site_fract_y
_atom_site_fract_z
Si Si1 0.194806 0.149861 0.705474
Si Si2 0.400904 0.719165 0.191474
Si Si3 0.818100 0.697310 0.702321
Si Si4 0.000000 0.226927 0.500000
Si Si5 0.000000 0.445861 0.212384
Si Si6 0.751924 0.552621 0.209663
Si Si7 0.124311 0.399320 0.210752
O O1 0.190724 0.158378 0.500000
O O2 0.134743 0.170021 0.788636
O O3 0.253905 0.178455 0.770462
O O4 0.208742 0.094940 0.733627
O O5 0.349185 0.758965 0.207538
O O6 0.447501 0.726158 0.346715
O O7 0.428029 0.722575 0.000000
O O8 0.810389 0.709373 0.500000
O O9 0.861985 0.652417 0.719343
O O10 0.939298 0.419910 0.268094
O O11 0.000000 0.500000 0.267807
O O12 0.000000 0.445814 0.000000
O O13 0.737548 0.500000 0.271401
O O14 0.819542 0.567784 0.263084
O O15 0.751396 0.551992 0.000000
O O16 0.124276 0.396973 0.000000
#
# Coordination Sequence:
#
# PCOD9490481 Si02
#       7
#    16  16  16   4   8  16  16
#     4  10  20  36  59  87 119 153 193 242 297 351
#     4  12  24  41  65  88 117 157 195 239 292 348
#     4  10  20  36  56  82 117 153 191 245 300 345
#     4  12  26  46  58  86 121 152 195 238 276 348
#     4   9  16  27  45  67  95 140 197 249 291 333
#     4   9  17  30  50  79 114 148 188 242 298 352
#     4   9  17  29  46  72 105 146 197 246 293 344
#
# _framework density 18.908913999999999
#
# number of rings (size 3 to 8) (size 9 to 14) (size 15 to 20)
#    0.000    2.000    1.739    2.348    0.000    7.304 
#    0.000    1.739    0.000    2.087    0.000    1.217 
#    0.000    2.783    0.000    0.000    0.000    0.000 
#
# Total GULP energy -256365.051551 kJ/mol
# GULP energy per Si atom -5573.153295 kJ/mol
# Density = 1.886588 g / cm^3
# Si number density = 18.908914 Si / 1000 Ang^3
#
#
#
# Elastic Constant Matrix: (Units=GPa)
#
#
# Indices 1 2 3 4 5 6 
#
# 1 37.2794 35.2933 16.9958 0.0000 0.0000 0.0000
# 2 35.2933 96.1242 16.1663 0.0000 0.0000 0.0000
# 3 16.9958 16.1663 95.4790 0.0000 0.0000 0.0000
# 4 0.0000 0.0000 0.0000 69.8707 0.0000 0.0000
# 5 0.0000 0.0000 0.0000 0.0000 15.7873 0.0000
# 6 0.0000 0.0000 0.0000 0.0000 0.0000 10.0775
#
#
#
# Elastic Compliance Matrix: (Units=1/GPa)
#
#
# Indices 1 2 3 4 5 6 
#
# 1 0.043474 -0.015090 -0.005184 0.000000 0.000000 0.000000
# 2 -0.015090 0.015946 -0.000014 0.000000 0.000000 0.000000
# 3 -0.005184 -0.000014 0.011399 0.000000 0.000000 0.000000
# 4 0.000000 0.000000 0.000000 0.014312 0.000000 0.000000
# 5 0.000000 0.000000 0.000000 0.000000 0.063342 0.000000
# 6 0.000000 0.000000 0.000000 0.000000 0.000000 0.099231
#
#
# Mechanical properties :
#
#
# Convention : Reuss Voigt Hill
#
# Bulk Modulus (GPa) = 33.06511 40.64373 36.85442
# Shear Modulus (GPa) = 16.75826 29.84224 23.30025
#
# Velocity S-wave (km/s) = 2.98025 3.97698 3.51413
# Velocity P-wave (km/s) = 5.41913 6.52914 5.99986
#
# Compressibility (1/GPa) = 0.03024336
#
# Stress axis : x y z
#
# Youngs Moduli (GPa) = 23.00220 62.71104 87.73043
#
# Poissons Ratio (x) = 0.94633 0.45476
# Poissons Ratio (y) = 0.34711 0.00121
# Poissons Ratio (z) = 0.11923 0.00087
#
# Static dielectric constant tensor:
#      x y z
#    x 1.637630 0.000000 0.000000 
#    y 0.000000 1.656330 0.000000 
#    z 0.000000 0.000000 1.692560 
# 
# From -- ./inp_files/12339.got.cif
#   From: 2010.05.17/outbox.cif.g08.bks.cpg/sg65_7_cif.got.tgz:12339.got - 2010.06.03 17:01:31.
