data_PCOD9490934
_publ_section_title
;
Structure prediction by ZEFSAII (Michael W. Deem and Ramdas Pophale) SiO2 
 PCOD9490934
Probable space group: C M M M
;
_chemical_formula_sum "Si O2"
_cell_formula_units_Z 64
_cell_length_a 15.181838
_cell_length_b 15.361273
_cell_length_c 14.557861
_cell_angle_alpha 90.000000
_cell_angle_beta 90.000000
_cell_angle_gamma 90.000000
_cell_volume 3395.073094
_symmetry_space_group_name_H-M "C M M M"
_symmetry_group_IT_number 65
_symmetry_cell_setting 'orthorhombic'
loop_
_space_group_symop_operation_xyz
x,y,z
-x,-y,z
x,-y,-z
-x,y,-z
-x,-y,-z
x,y,-z
-x,y,z
x,-y,z
1/2+x,1/2+y,z
1/2-x,1/2-y,z
1/2+x,1/2-y,-z
1/2-x,1/2+y,-z
1/2-x,1/2-y,-z
1/2+x,1/2+y,-z
1/2-x,1/2+y,z
1/2+x,1/2-y,z
loop_
_atom_site_type_symbol
_atom_site_label
_atom_site_fract_x
_atom_site_fract_y
_atom_site_fract_z
Si Si1 0.155321 0.135300 0.254292
Si Si2 0.000000 0.866676 0.393848
Si Si3 0.000000 0.345237 0.396671
Si Si4 0.000000 0.603436 0.896495
Si Si5 0.357425 0.844746 0.748781
Si Si6 0.604639 0.500000 0.897214
O O1 0.087246 0.107996 0.335280
O O2 0.259445 0.119420 0.264826
O O3 0.145951 0.239544 0.247208
O O4 0.129621 0.084267 0.162379
O O5 0.000000 0.760817 0.397654
O O6 0.000000 0.896537 0.500000
O O7 0.084521 0.372079 0.338387
O O8 0.000000 0.376930 0.500000
O O9 0.913160 0.628653 0.838401
O O10 0.000000 0.500000 0.902606
O O11 0.000000 0.640337 0.000000
O O12 0.500000 0.500000 0.904397
O O13 0.643044 0.500000 0.000000
#
# Coordination Sequence:
#
# PCOD9490934 Si02
#       6
#    16   8   8   8  16   8
#     4  10  20  38  56  83 114 145 186 225 274 329
#     4   9  17  32  56  84 114 146 181 223 269 323
#     4   8  15  31  56  86 112 140 181 224 269 325
#     4  10  22  38  56  81 108 141 187 234 281 331
#     4   9  20  36  59  82 111 147 181 228 277 325
#     4  11  24  38  56  79 108 147 187 230 277 325
#
# _framework density 18.850845
#
# number of rings (size 3 to 8) (size 9 to 14) (size 15 to 20)
#    0.000    2.500    1.250    0.750    1.750    3.000 
#    0.000    8.750    0.000    6.000    0.000    0.000 
#    0.000    0.000    0.000    0.000    0.000    0.000 
#
# Total GULP energy -178375.393412 kJ/mol
# GULP energy per Si atom -5574.231044 kJ/mol
# Density = 1.880794 g / cm^3
# Si number density = 18.850845 Si / 1000 Ang^3
#
#
#
# Elastic Constant Matrix: (Units=GPa)
#
#
# Indices 1 2 3 4 5 6 
#
# 1 188.2775 26.3328 106.2821 0.0000 0.0000 0.0000
# 2 26.3328 29.5581 22.7445 0.0000 0.0000 0.0000
# 3 106.2821 22.7445 204.7098 0.0000 0.0000 0.0000
# 4 0.0000 0.0000 0.0000 20.4054 0.0000 0.0000
# 5 0.0000 0.0000 0.0000 0.0000 4.7064 0.0000
# 6 0.0000 0.0000 0.0000 0.0000 0.0000 -11.2794
#
#
#
# Elastic Compliance Matrix: (Units=1/GPa)
#
#
# Indices 1 2 3 4 5 6 
#
# 1 0.007981 -0.004288 -0.003667 0.000000 0.000000 0.000000
# 2 -0.004288 0.039299 -0.002140 0.000000 0.000000 0.000000
# 3 -0.003667 -0.002140 0.007027 0.000000 0.000000 0.000000
# 4 0.000000 0.000000 0.000000 0.049007 0.000000 0.000000
# 5 0.000000 0.000000 0.000000 0.000000 0.212477 0.000000
# 6 0.000000 0.000000 0.000000 0.000000 0.000000 -0.088657
#
#
# Mechanical properties :
#
#
# Convention : Reuss Voigt Hill
#
# Bulk Modulus (GPa) = 29.31212 81.47381 55.39297
# Shear Modulus (GPa) = 19.32765 20.57887 19.95326
#
# Velocity S-wave (km/s) = 3.20549 3.30762 3.25696
# Velocity P-wave (km/s) = 5.41142 7.60929 6.60245
#
# Compressibility (1/GPa) = 0.03411558
#
# Stress axis : x y z
#
# Youngs Moduli (GPa) = 125.29344 25.44611 142.31429
#
# Poissons Ratio (x) = 0.10912 0.52191
# Poissons Ratio (y) = 0.53732 0.30453
# Poissons Ratio (z) = 0.45949 0.05445
#
# Static dielectric constant tensor:
#      x y z
#    x 1.671770 0.000000 0.000000 
#    y 0.000000 1.665690 0.000000 
#    z 0.000000 0.000000 1.642030 
# 
# From -- ./inp_files/39717.got.cif
#   From: 2010.05.17/outbox.cif.g08.bks.cpg/sg65_20_cif.got.tgz:39717.got - 2010.06.03 17:01:31.
