data_PCOD9490542
_publ_section_title
;
Structure prediction by ZEFSAII (Michael W. Deem and Ramdas Pophale) SiO2 
 PCOD9490542
Probable space group: C M M M
;
_chemical_formula_sum "Si O2"
_cell_formula_units_Z 88
_cell_length_a 25.965277
_cell_length_b 10.165812
_cell_length_c 18.853596
_cell_angle_alpha 90.000000
_cell_angle_beta 90.000000
_cell_angle_gamma 90.000000
_cell_volume 4976.559840
_symmetry_space_group_name_H-M "C M M M"
_symmetry_group_IT_number 65
_symmetry_cell_setting 'orthorhombic'
loop_
_space_group_symop_operation_xyz
x,y,z
-x,-y,z
x,-y,-z
-x,y,-z
-x,-y,-z
x,y,-z
-x,y,z
x,-y,z
1/2+x,1/2+y,z
1/2-x,1/2-y,z
1/2+x,1/2-y,-z
1/2-x,1/2+y,-z
1/2-x,1/2-y,-z
1/2+x,1/2+y,-z
1/2-x,1/2+y,z
1/2+x,1/2-y,z
loop_
_atom_site_type_symbol
_atom_site_label
_atom_site_fract_x
_atom_site_fract_y
_atom_site_fract_z
Si Si1 0.289057 0.500000 0.914280
Si Si2 0.797141 0.346412 0.583632
Si Si3 0.500000 0.841128 0.580025
Si Si4 0.060537 0.152324 0.209891
Si Si5 0.172260 0.500000 0.914028
Si Si6 0.371501 0.719067 0.915014
Si Si7 0.400391 0.843208 0.326710
O O1 0.230946 0.500000 0.886488
O O2 0.322714 0.627306 0.895630
O O3 0.285417 0.500000 0.000000
O O4 0.810213 0.328390 0.500000
O O5 0.782376 0.500000 0.592583
O O6 0.750000 0.250000 0.600688
O O7 0.847148 0.321847 0.631643
O O8 0.500000 0.788893 0.500000
O O9 0.551574 0.806584 0.622410
O O10 0.500000 0.000000 0.575795
O O11 0.080216 0.170204 0.129685
O O12 0.092819 0.251745 0.258516
O O13 0.000000 0.182683 0.216060
O O14 0.068425 0.000000 0.230752
O O15 0.142603 0.632162 0.895069
O O16 0.175536 0.500000 0.000000
O O17 0.379038 0.709644 0.000000
O O18 0.404216 0.000000 0.310238
#
# Coordination Sequence:
#
# PCOD9490542 Si02
#       7
#     8  16   8  16   8  16  16
#     4   9  16  32  57  81 109 141 178 223 280 337
#     4   9  18  34  58  88 120 153 188 227 273 329
#     4   9  16  30  57  91 114 135 180 236 278 322
#     4  11  24  40  57  77 108 150 188 234 288 338
#     4   9  18  32  55  85 113 137 170 231 290 331
#     4  10  20  36  57  84 111 144 188 233 281 334
#     4  10  20  36  59  85 112 149 190 231 281 334
#
# _framework density 17.682897000000001
#
# number of rings (size 3 to 8) (size 9 to 14) (size 15 to 20)
#    0.000    2.273    1.818    1.091    1.273    5.455 
#    0.000    2.727    0.000    3.818    0.000    0.000 
#    0.000    0.000    0.000    0.000    0.000    0.000 
#
# Total GULP energy -245363.007408 kJ/mol
# GULP energy per Si atom -5576.431987 kJ/mol
# Density = 1.764265 g / cm^3
# Si number density = 17.682897 Si / 1000 Ang^3
#
#
#
# Elastic Constant Matrix: (Units=GPa)
#
#
# Indices 1 2 3 4 5 6 
#
# 1 101.2670 56.6748 44.5540 0.0000 0.0000 0.0000
# 2 56.6748 97.6491 38.4777 0.0000 0.0000 0.0000
# 3 44.5540 38.4777 66.9921 0.0000 0.0000 0.0000
# 4 0.0000 0.0000 0.0000 19.1477 0.0000 0.0000
# 5 0.0000 0.0000 0.0000 0.0000 23.5814 0.0000
# 6 0.0000 0.0000 0.0000 0.0000 0.0000 24.4567
#
#
#
# Elastic Compliance Matrix: (Units=1/GPa)
#
#
# Indices 1 2 3 4 5 6 
#
# 1 0.016994 -0.006992 -0.007286 0.000000 0.000000 0.000000
# 2 -0.006992 0.016113 -0.004605 0.000000 0.000000 0.000000
# 3 -0.007286 -0.004605 0.022417 0.000000 0.000000 0.000000
# 4 0.000000 0.000000 0.000000 0.052226 0.000000 0.000000
# 5 0.000000 0.000000 0.000000 0.000000 0.042406 0.000000
# 6 0.000000 0.000000 0.000000 0.000000 0.000000 0.040889
#
#
# Mechanical properties :
#
#
# Convention : Reuss Voigt Hill
#
# Bulk Modulus (GPa) = 56.30905 60.59125 58.45015
# Shear Modulus (GPa) = 21.30110 21.85061 21.57585
#
# Velocity S-wave (km/s) = 3.47452 3.51905 3.49686
# Velocity P-wave (km/s) = 6.92888 7.13102 7.03068
#
# Compressibility (1/GPa) = 0.01775913
#
# Stress axis : x y z
#
# Youngs Moduli (GPa) = 58.84590 62.06044 44.60811
#
# Poissons Ratio (x) = 0.43393 0.32501
# Poissons Ratio (y) = 0.41145 0.20541
# Poissons Ratio (z) = 0.42874 0.28577
#
# Static dielectric constant tensor:
#      x y z
#    x 1.583840 0.000000 0.000000 
#    y 0.000000 1.598440 0.000000 
#    z 0.000000 0.000000 1.612250 
# 
# From -- ./inp_files/65207.got.cif
#   From: 2010.05.17/outbox.cif.g08.bks.cpg/sg65_33_cif.got.tgz:65207.got - 2010.06.03 17:01:31.
