data_PCOD9490787
_publ_section_title
;
Structure prediction by ZEFSAII (Michael W. Deem and Ramdas Pophale) SiO2 
 PCOD9490787
Probable space group: C M M M
;
_chemical_formula_sum "Si O2"
_cell_formula_units_Z 88
_cell_length_a 8.732901
_cell_length_b 24.308934
_cell_length_c 23.224381
_cell_angle_alpha 90.000000
_cell_angle_beta 90.000000
_cell_angle_gamma 90.000000
_cell_volume 4930.246108
_symmetry_space_group_name_H-M "C M M M"
_symmetry_group_IT_number 65
_symmetry_cell_setting 'orthorhombic'
loop_
_space_group_symop_operation_xyz
x,y,z
-x,-y,z
x,-y,-z
-x,y,-z
-x,-y,-z
x,y,-z
-x,y,z
x,-y,z
1/2+x,1/2+y,z
1/2-x,1/2-y,z
1/2+x,1/2-y,-z
1/2-x,1/2+y,-z
1/2-x,1/2-y,-z
1/2+x,1/2+y,-z
1/2-x,1/2+y,z
1/2+x,1/2-y,z
loop_
_atom_site_type_symbol
_atom_site_label
_atom_site_fract_x
_atom_site_fract_y
_atom_site_fract_z
Si Si1 0.321910 0.500000 0.872754
Si Si2 0.315901 0.811149 0.777970
Si Si3 0.817256 0.391436 0.322045
Si Si4 0.322430 0.500000 0.734448
Si Si5 0.184170 0.189085 0.000000
Si Si6 0.686455 0.378073 0.113794
Si Si7 0.684386 0.436255 0.565771
O O1 0.500000 0.500000 0.891519
O O2 0.317921 0.500000 0.803407
O O3 0.257679 0.441144 0.891739
O O4 0.500000 0.809587 0.781595
O O5 0.250000 0.750000 0.783063
O O6 0.271515 0.839621 0.717317
O O7 0.252171 0.849010 0.829507
O O8 0.757173 0.445654 0.289383
O O9 0.751095 0.396302 0.386138
O O10 0.000000 0.392926 0.324729
O O11 0.500000 0.500000 0.715782
O O12 0.250000 0.250000 0.000000
O O13 0.229617 0.156497 0.057508
O O14 0.000000 0.192138 0.000000
O O15 0.500000 0.378953 0.118716
O O16 0.730637 0.423912 0.500000
O O17 0.500000 0.434709 0.568195
O O18 0.730238 0.500000 0.578164
#
# Coordination Sequence:
#
# PCOD9490787 Si02
#       7
#     8  16  16   8   8  16  16
#     4   9  18  32  55  83 110 141 178 215 267 330
#     4  11  24  39  56  80 108 141 182 229 272 319
#     4  11  22  34  52  81 113 142 177 225 275 319
#     4  11  19  31  53  80 109 146 181 213 263 332
#     4  10  22  37  57  79 107 144 187 234 273 316
#     4  10  20  37  58  83 111 143 180 223 273 326
#     4   9  18  32  51  78 111 146 183 218 259 319
#
# _framework density 17.849007
#
# number of rings (size 3 to 8) (size 9 to 14) (size 15 to 20)
#    0.000    1.818    2.727    2.455    0.000    5.091 
#    0.000    3.182    0.000    0.545    0.000    1.909 
#    0.000    0.000    0.000    0.000    0.000    0.000 
#
# Total GULP energy -245612.706992 kJ/mol
# GULP energy per Si atom -5582.106977 kJ/mol
# Density = 1.780838 g / cm^3
# Si number density = 17.849007 Si / 1000 Ang^3
#
#
#
# Elastic Constant Matrix: (Units=GPa)
#
#
# Indices 1 2 3 4 5 6 
#
# 1 24.3846 26.7615 33.6189 0.0000 0.0000 0.0000
# 2 26.7615 153.2627 73.1205 0.0000 0.0000 0.0000
# 3 33.6189 73.1205 129.2468 0.0000 0.0000 0.0000
# 4 0.0000 0.0000 0.0000 6.9991 0.0000 0.0000
# 5 0.0000 0.0000 0.0000 0.0000 20.6544 0.0000
# 6 0.0000 0.0000 0.0000 0.0000 0.0000 14.0359
#
#
#
# Elastic Compliance Matrix: (Units=1/GPa)
#
#
# Indices 1 2 3 4 5 6 
#
# 1 0.066207 -0.004581 -0.014630 0.000000 0.000000 0.000000
# 2 -0.004581 0.009254 -0.004044 0.000000 0.000000 0.000000
# 3 -0.014630 -0.004044 0.013830 0.000000 0.000000 0.000000
# 4 0.000000 0.000000 0.000000 0.142876 0.000000 0.000000
# 5 0.000000 0.000000 0.000000 0.000000 0.048416 0.000000
# 6 0.000000 0.000000 0.000000 0.000000 0.000000 0.071246
#
#
# Mechanical properties :
#
#
# Convention : Reuss Voigt Hill
#
# Bulk Modulus (GPa) = 23.37412 63.76621 43.57016
# Shear Modulus (GPa) = 12.11832 19.89740 16.00786
#
# Velocity S-wave (km/s) = 2.60847 3.34243 2.99799
# Velocity P-wave (km/s) = 4.71127 7.12030 6.03716
#
# Compressibility (1/GPa) = 0.04278236
#
# Stress axis : x y z
#
# Youngs Moduli (GPa) = 15.10417 108.06290 72.30506
#
# Poissons Ratio (x) = 0.49501 1.05781
# Poissons Ratio (y) = 0.06919 0.29239
# Poissons Ratio (z) = 0.22097 0.43698
#
# Static dielectric constant tensor:
#      x y z
#    x 1.607040 0.000000 0.000000 
#    y 0.000000 1.582170 0.000000 
#    z 0.000000 0.000000 1.613370 
# 
# From -- ./inp_files/67658.got.cif
#   From: 2010.05.17/outbox.cif.g08.bks.cpg/sg65_34_cif.got.tgz:67658.got - 2010.06.03 17:01:31.
