data_PCOD9490451
_publ_section_title
;
Structure prediction by ZEFSAII (Michael W. Deem and Ramdas Pophale) SiO2 
 PCOD9490451
Probable space group: C M M M
;
_chemical_formula_sum "Si O2"
_cell_formula_units_Z 72
_cell_length_a 8.235378
_cell_length_b 15.897319
_cell_length_c 28.993664
_cell_angle_alpha 90.000000
_cell_angle_beta 90.000000
_cell_angle_gamma 90.000000
_cell_volume 3795.862992
_symmetry_space_group_name_H-M "C M M M"
_symmetry_group_IT_number 65
_symmetry_cell_setting 'orthorhombic'
loop_
_space_group_symop_operation_xyz
x,y,z
-x,-y,z
x,-y,-z
-x,y,-z
-x,-y,-z
x,y,-z
-x,y,z
x,-y,z
1/2+x,1/2+y,z
1/2-x,1/2-y,z
1/2+x,1/2-y,-z
1/2-x,1/2+y,-z
1/2-x,1/2-y,-z
1/2+x,1/2+y,-z
1/2-x,1/2+y,z
1/2+x,1/2-y,z
loop_
_atom_site_type_symbol
_atom_site_label
_atom_site_fract_x
_atom_site_fract_y
_atom_site_fract_z
Si Si1 0.806353 0.500000 0.280210
Si Si2 0.695878 0.843110 0.552936
Si Si3 0.301152 0.500000 0.053020
Si Si4 0.695949 0.657077 0.114234
Si Si5 0.194046 0.842968 0.220024
Si Si6 0.199097 0.500000 0.614366
O O1 0.752206 0.417155 0.252817
O O2 0.745072 0.500000 0.332845
O O3 0.000000 0.500000 0.282014
O O4 0.751607 0.857000 0.500000
O O5 0.500000 0.844914 0.552407
O O6 0.750000 0.750000 0.567266
O O7 0.751797 0.916986 0.586621
O O8 0.500000 0.500000 0.053102
O O9 0.248042 0.417045 0.080714
O O10 0.248400 0.500000 0.000000
O O11 0.500000 0.655207 0.114832
O O12 0.750000 0.750000 0.099592
O O13 0.752711 0.643712 0.167124
O O14 0.250000 0.750000 0.234701
O O15 0.000000 0.844222 0.219109
O O16 0.000000 0.500000 0.614385
#
# Coordination Sequence:
#
# PCOD9490451 Si02
#       6
#     8  16   8  16  16   8
#     4  11  22  35  52  77 108 139 172 211 258 309
#     4   9  17  32  54  76  98 128 166 205 245 291
#     4   9  17  30  49  73 102 135 165 195 242 303
#     4   9  18  33  53  75  98 128 167 209 250 295
#     4  10  20  36  56  77 102 134 175 218 259 304
#     4   9  19  34  51  73 102 135 167 200 244 301
#
# _framework density 18.968019000000002
#
# number of rings (size 3 to 8) (size 9 to 14) (size 15 to 20)
#    0.000    2.556    0.000    2.000    0.000    5.333 
#    0.000    5.556    0.000    3.333    0.000    0.000 
#    0.000    0.000    0.000    0.000    0.000    0.000 
#
# Total GULP energy -200915.320172 kJ/mol
# GULP energy per Si atom -5580.981116 kJ/mol
# Density = 1.892485 g / cm^3
# Si number density = 18.968019 Si / 1000 Ang^3
#
#
#
# Elastic Constant Matrix: (Units=GPa)
#
#
# Indices 1 2 3 4 5 6 
#
# 1 14.2631 19.2380 17.0069 0.0000 0.0000 0.0000
# 2 19.2380 222.3372 147.1253 0.0000 0.0000 0.0000
# 3 17.0069 147.1253 139.7316 0.0000 0.0000 0.0000
# 4 0.0000 0.0000 0.0000 -6.0417 0.0000 0.0000
# 5 0.0000 0.0000 0.0000 0.0000 14.4153 0.0000
# 6 0.0000 0.0000 0.0000 0.0000 0.0000 32.3956
#
#
#
# Elastic Compliance Matrix: (Units=1/GPa)
#
#
# Indices 1 2 3 4 5 6 
#
# 1 0.082190 -0.001623 -0.008295 0.000000 0.000000 0.000000
# 2 -0.001623 0.014863 -0.015452 0.000000 0.000000 0.000000
# 3 -0.008295 -0.015452 0.024436 0.000000 0.000000 0.000000
# 4 0.000000 0.000000 0.000000 -0.165515 0.000000 0.000000
# 5 0.000000 0.000000 0.000000 0.000000 0.069371 0.000000
# 6 0.000000 0.000000 0.000000 0.000000 0.000000 0.030868
#
#
# Mechanical properties :
#
#
# Convention : Reuss Voigt Hill
#
# Bulk Modulus (GPa) = 14.13430 82.56360 48.34895
# Shear Modulus (GPa) = 38.30391 21.01793 29.66092
#
# Velocity S-wave (km/s) = 4.49864 3.33238 3.95870
# Velocity P-wave (km/s) = 5.86954 7.64386 6.81470
#
# Compressibility (1/GPa) = 0.07074988
#
# Stress axis : x y z
#
# Youngs Moduli (GPa) = 12.16688 67.28170 40.92389
#
# Poissons Ratio (x) = 0.10918 0.33946
# Poissons Ratio (y) = 0.01974 0.63235
# Poissons Ratio (z) = 0.10092 1.03963
#
# Static dielectric constant tensor:
#      x y z
#    x 1.665030 0.000000 0.000000 
#    y 0.000000 1.621990 0.000000 
#    z 0.000000 0.000000 1.654640 
# 
# From -- ./inp_files/72591.got.cif
#   From: 2010.05.17/outbox.cif.g08.bks.cpg/sg65_37_cif.got.tgz:72591.got - 2010.06.03 17:01:31.
