data_PCOD9490441
_publ_section_title
;
Structure prediction by ZEFSAII (Michael W. Deem and Ramdas Pophale) SiO2 
 PCOD9490441
Probable space group: C M M M
;
_chemical_formula_sum "Si O2"
_cell_formula_units_Z 96
_cell_length_a 29.242308
_cell_length_b 14.142794
_cell_length_c 11.684071
_cell_angle_alpha 90.000000
_cell_angle_beta 90.000000
_cell_angle_gamma 90.000000
_cell_volume 4832.157152
_symmetry_space_group_name_H-M "C M M M"
_symmetry_group_IT_number 65
_symmetry_cell_setting 'orthorhombic'
loop_
_space_group_symop_operation_xyz
x,y,z
-x,-y,z
x,-y,-z
-x,y,-z
-x,-y,-z
x,y,-z
-x,y,z
x,-y,z
1/2+x,1/2+y,z
1/2-x,1/2-y,z
1/2+x,1/2-y,-z
1/2-x,1/2+y,-z
1/2-x,1/2-y,-z
1/2+x,1/2+y,-z
1/2-x,1/2+y,z
1/2+x,1/2-y,z
loop_
_atom_site_type_symbol
_atom_site_label
_atom_site_fract_x
_atom_site_fract_y
_atom_site_fract_z
Si Si1 0.750000 0.250000 0.219550
Si Si2 0.858194 0.887975 0.000000
Si Si3 0.077887 0.699898 0.233922
Si Si4 0.414171 0.394660 0.635429
Si Si5 0.682586 0.394858 0.249786
Si Si6 0.500000 0.110593 0.376305
Si Si7 0.049424 0.229989 0.000000
Si Si8 0.829786 0.386010 0.865202
O O1 0.717249 0.316957 0.291302
O O2 0.783129 0.325058 0.153489
O O3 0.832601 0.865996 0.119442
O O4 0.907212 0.839214 0.000000
O O5 0.864557 0.000000 0.000000
O O6 0.071987 0.804883 0.288917
O O7 0.054851 0.706392 0.110808
O O8 0.129376 0.660880 0.211304
O O9 0.046515 0.636173 0.312391
O O10 0.421297 0.379942 0.500000
O O11 0.433138 0.500000 0.665255
O O12 0.360717 0.399352 0.668110
O O13 0.702460 0.500000 0.240732
O O14 0.500000 0.159378 0.500000
O O15 0.500000 0.000000 0.388389
O O16 0.000000 0.181546 0.000000
O O17 0.824867 0.500000 0.842885
O O18 0.842097 0.375939 0.000000
#
# Coordination Sequence:
#
# PCOD9490441 Si02
#       8
#     8   8  16  16  16   8   8  16
#     4  12  21  36  57  88 126 170 213 263 322 374
#     4  10  20  36  55  82 119 160 202 249 306 371
#     4  12  22  43  66  95 130 168 210 267 327 389
#     4  10  21  39  64  90 119 162 212 260 313 375
#     4  10  21  35  57  85 117 159 208 255 311 379
#     4  11  26  47  72  98 125 169 225 272 321 385
#     4  12  22  35  59  92 127 163 200 246 321 394
#     4  11  24  38  59  93 132 172 216 266 324 388
#
# _framework density 19.866903000000001
#
# number of rings (size 3 to 8) (size 9 to 14) (size 15 to 20)
#    0.000    1.083    5.000    1.750    2.333    0.167 
#    0.000    1.250    0.000    1.500    0.000    0.000 
#    0.000    0.000    0.000    0.000    0.000    0.000 
#
# Total GULP energy -267592.583737 kJ/mol
# GULP energy per Si atom -5574.845495 kJ/mol
# Density = 1.982169 g / cm^3
# Si number density = 19.866903 Si / 1000 Ang^3
#
#
#
# Elastic Constant Matrix: (Units=GPa)
#
#
# Indices 1 2 3 4 5 6 
#
# 1 78.8228 37.7251 16.3244 0.0000 0.0000 0.0000
# 2 37.7251 116.9604 29.9219 0.0000 0.0000 0.0000
# 3 16.3244 29.9219 84.3768 0.0000 0.0000 0.0000
# 4 0.0000 0.0000 0.0000 84.6643 0.0000 0.0000
# 5 0.0000 0.0000 0.0000 0.0000 -40.5856 0.0000
# 6 0.0000 0.0000 0.0000 0.0000 0.0000 32.2757
#
#
#
# Elastic Compliance Matrix: (Units=1/GPa)
#
#
# Indices 1 2 3 4 5 6 
#
# 1 0.015134 -0.004545 -0.001316 0.000000 0.000000 0.000000
# 2 -0.004545 0.010768 -0.002939 0.000000 0.000000 0.000000
# 3 -0.001316 -0.002939 0.013149 0.000000 0.000000 0.000000
# 4 0.000000 0.000000 0.000000 0.011811 0.000000 0.000000
# 5 0.000000 0.000000 0.000000 0.000000 -0.024639 0.000000
# 6 0.000000 0.000000 0.000000 0.000000 0.000000 0.030983
#
#
# Mechanical properties :
#
#
# Convention : Reuss Voigt Hill
#
# Bulk Modulus (GPa) = 46.61994 49.78919 48.20457
# Shear Modulus (GPa) = 61.00780 28.35012 44.67896
#
# Velocity S-wave (km/s) = 5.54752 3.78167 4.74742
# Velocity P-wave (km/s) = 8.03432 6.64709 7.37340
#
# Compressibility (1/GPa) = 0.02145005
#
# Stress axis : x y z
#
# Youngs Moduli (GPa) = 66.07423 92.86993 76.05385
#
# Poissons Ratio (x) = 0.42208 0.10012
# Poissons Ratio (y) = 0.30029 0.22354
# Poissons Ratio (z) = 0.08698 0.27296
#
# Static dielectric constant tensor:
#      x y z
#    x 1.722370 0.000000 0.000000 
#    y 0.000000 1.750320 0.000000 
#    z 0.000000 0.000000 1.713970 
# 
# From -- ./inp_files/33934.got.cif
#   From: 2010.05.17/outbox.cif.g08.bks.cpg/sg65_17_cif.got.tgz:33934.got - 2010.06.03 17:01:31.
