data_PCOD9490104
_publ_section_title
;
Structure prediction by ZEFSAII (Michael W. Deem and Ramdas Pophale) SiO2 
 PCOD9490104
Probable space group: C M M M
;
_chemical_formula_sum "Si O2"
_cell_formula_units_Z 64
_cell_length_a 8.669390
_cell_length_b 18.873274
_cell_length_c 21.594134
_cell_angle_alpha 90.000000
_cell_angle_beta 90.000000
_cell_angle_gamma 90.000000
_cell_volume 3533.227301
_symmetry_space_group_name_H-M "C M M M"
_symmetry_group_IT_number 65
_symmetry_cell_setting 'orthorhombic'
loop_
_space_group_symop_operation_xyz
x,y,z
-x,-y,z
x,-y,-z
-x,y,-z
-x,-y,-z
x,y,-z
-x,y,z
x,-y,z
1/2+x,1/2+y,z
1/2-x,1/2-y,z
1/2+x,1/2-y,-z
1/2-x,1/2+y,-z
1/2-x,1/2-y,-z
1/2+x,1/2+y,-z
1/2-x,1/2+y,z
1/2+x,1/2-y,z
loop_
_atom_site_type_symbol
_atom_site_label
_atom_site_fract_x
_atom_site_fract_y
_atom_site_fract_z
Si Si1 0.678261 0.413948 0.000000
Si Si2 0.311374 0.417900 0.634932
Si Si3 0.685104 0.328913 0.754330
Si Si4 0.684295 0.916819 0.131204
Si Si5 0.821310 0.913747 0.500000
O O1 0.759162 0.391677 0.936360
O O2 0.684540 0.500000 0.000000
O O3 0.500000 0.392397 0.000000
O O4 0.500000 0.417460 0.632668
O O5 0.266011 0.500000 0.644722
O O6 0.262814 0.369546 0.691948
O O7 0.254476 0.393408 0.566885
O O8 0.500000 0.327109 0.754359
O O9 0.750000 0.250000 0.755559
O O10 0.741774 0.372133 0.813923
O O11 0.500000 0.912048 0.134053
O O12 0.727811 0.000000 0.137965
O O13 0.000000 0.890315 0.500000
O O14 0.822617 0.000000 0.500000
#
# Coordination Sequence:
#
# PCOD9490104 Si02
#       5
#     8  16  16  16   8
#     4   9  17  31  54  83 110 135 166 205 249 299
#     4   8  14  26  47  73  98 127 166 212 259 307
#     4  11  22  35  50  71 103 140 178 217 258 305
#     4  10  20  35  56  81 107 135 169 210 256 305
#     4   7  10  20  41  70  99 123 156 207 260 305
#
# _framework density 18.11375
#
# number of rings (size 3 to 8) (size 9 to 14) (size 15 to 20)
#    0.000    2.750    0.000    4.125    0.000    4.000 
#    0.000    1.250    0.000    0.000    0.000    2.625 
#    0.000   14.000    0.000    0.000    0.000    0.000 
#
# Total GULP energy -178377.423899 kJ/mol
# GULP energy per Si atom -5574.294497 kJ/mol
# Density = 1.807252 g / cm^3
# Si number density = 18.113750 Si / 1000 Ang^3
#
#
#
# Elastic Constant Matrix: (Units=GPa)
#
#
# Indices 1 2 3 4 5 6 
#
# 1 35.5786 31.8935 47.9950 0.0000 0.0000 0.0000
# 2 31.8935 83.7023 93.0546 0.0000 0.0000 0.0000
# 3 47.9950 93.0546 224.0729 0.0000 0.0000 0.0000
# 4 0.0000 0.0000 0.0000 -7.6289 0.0000 0.0000
# 5 0.0000 0.0000 0.0000 0.0000 5.9515 0.0000
# 6 0.0000 0.0000 0.0000 0.0000 0.0000 13.3884
#
#
#
# Elastic Compliance Matrix: (Units=1/GPa)
#
#
# Indices 1 2 3 4 5 6 
#
# 1 0.045202 -0.012000 -0.004699 0.000000 0.000000 0.000000
# 2 -0.012000 0.025379 -0.007969 0.000000 0.000000 0.000000
# 3 -0.004699 -0.007969 0.008779 0.000000 0.000000 0.000000
# 4 0.000000 0.000000 0.000000 -0.131080 0.000000 0.000000
# 5 0.000000 0.000000 0.000000 0.000000 0.168026 0.000000
# 6 0.000000 0.000000 0.000000 0.000000 0.000000 0.074692
#
#
# Mechanical properties :
#
#
# Convention : Reuss Voigt Hill
#
# Bulk Modulus (GPa) = 33.30625 76.58220 54.94422
# Shear Modulus (GPa) = 19.97264 13.70289 16.83777
#
# Velocity S-wave (km/s) = 3.32418 2.75342 3.05217
# Velocity P-wave (km/s) = 5.75854 7.24422 6.54368
#
# Compressibility (1/GPa) = 0.03002440
#
# Stress axis : x y z
#
# Youngs Moduli (GPa) = 22.12280 39.40205 113.91052
#
# Poissons Ratio (x) = 0.47283 0.53522
# Poissons Ratio (y) = 0.26548 0.90780
# Poissons Ratio (z) = 0.10395 0.31401
#
# Static dielectric constant tensor:
#      x y z
#    x 1.607590 0.000000 0.000000 
#    y 0.000000 1.590380 0.000000 
#    z 0.000000 0.000000 1.640380 
# 
# From -- ./inp_files/55290.got.cif
#   From: 2010.05.17/outbox.cif.g08.bks.cpg/sg65_28_cif.got.tgz:55290.got - 2010.06.03 17:01:31.
