data_PCOD9490465
_publ_section_title
;
Structure prediction by ZEFSAII (Michael W. Deem and Ramdas Pophale) SiO2 
 PCOD9490465
Probable space group: C M M M
;
_chemical_formula_sum "Si O2"
_cell_formula_units_Z 72
_cell_length_a 24.331027
_cell_length_b 7.543447
_cell_length_c 18.269003
_cell_angle_alpha 90.000000
_cell_angle_beta 90.000000
_cell_angle_gamma 90.000000
_cell_volume 3353.089388
_symmetry_space_group_name_H-M "C M M M"
_symmetry_group_IT_number 65
_symmetry_cell_setting 'orthorhombic'
loop_
_space_group_symop_operation_xyz
x,y,z
-x,-y,z
x,-y,-z
-x,y,-z
-x,-y,-z
x,y,-z
-x,y,z
x,-y,z
1/2+x,1/2+y,z
1/2-x,1/2-y,z
1/2+x,1/2-y,-z
1/2-x,1/2+y,-z
1/2-x,1/2-y,-z
1/2+x,1/2+y,-z
1/2-x,1/2+y,z
1/2+x,1/2-y,z
loop_
_atom_site_type_symbol
_atom_site_label
_atom_site_fract_x
_atom_site_fract_y
_atom_site_fract_z
Si Si1 0.685236 0.709604 0.500000
Si Si2 0.879481 0.717542 0.083688
Si Si3 0.616020 0.207763 0.356723
Si Si4 0.186381 0.287298 0.221833
Si Si5 0.500000 0.797476 0.088982
Si Si6 0.500000 0.217674 0.414766
O O1 0.678316 0.500000 0.500000
O O2 0.750000 0.750000 0.500000
O O3 0.654896 0.779775 0.572214
O O4 0.881379 0.500000 0.082458
O O5 0.835085 0.775353 0.142924
O O6 0.940588 0.779250 0.107955
O O7 0.869013 0.773249 0.000000
O O8 0.648119 0.283656 0.287097
O O9 0.555973 0.280187 0.376514
O O10 0.607188 0.000000 0.341293
O O11 0.180882 0.500000 0.221413
O O12 0.250000 0.250000 0.234797
O O13 0.500000 0.000000 0.116875
O O14 0.500000 0.803733 0.000000
O O15 0.500000 0.269889 0.500000
O O16 0.500000 0.000000 0.414532
#
# Coordination Sequence:
#
# PCOD9490465 Si02
#       6
#     8  16  16  16   8   8
#     4  12  24  37  56  79 103 136 176 212 253 306
#     4   8  14  26  45  71 102 134 168 210 259 306
#     4  10  20  36  56  79 106 136 170 210 260 312
#     4  10  21  34  50  73 103 138 176 216 255 301
#     4   7  10  19  39  67  98 126 155 202 259 305
#     4   9  16  31  57  81 104 133 165 208 260 313
#
# _framework density 21.472735
#
# number of rings (size 3 to 8) (size 9 to 14) (size 15 to 20)
#    0.000    2.667    1.111    3.000    0.000    4.000 
#    0.000    5.556    0.000    0.000    0.000    2.333 
#    0.000    2.667    0.000    0.000    0.000    0.000 
#
# Total GULP energy -200902.916470 kJ/mol
# GULP energy per Si atom -5580.636569 kJ/mol
# Density = 2.142386 g / cm^3
# Si number density = 21.472735 Si / 1000 Ang^3
#
#
#
# Elastic Constant Matrix: (Units=GPa)
#
#
# Indices 1 2 3 4 5 6 
#
# 1 205.2737 -1.3074 103.7037 0.0000 0.0000 0.0000
# 2 -1.3074 53.5923 0.4984 0.0000 0.0000 0.0000
# 3 103.7037 0.4984 149.7117 0.0000 0.0000 0.0000
# 4 0.0000 0.0000 0.0000 153.5685 0.0000 0.0000
# 5 0.0000 0.0000 0.0000 0.0000 478.7640 0.0000
# 6 0.0000 0.0000 0.0000 0.0000 0.0000 10.7401
#
#
#
# Elastic Compliance Matrix: (Units=1/GPa)
#
#
# Indices 1 2 3 4 5 6 
#
# 1 0.007497 0.000231 -0.005194 0.000000 0.000000 0.000000
# 2 0.000231 0.018667 -0.000222 0.000000 0.000000 0.000000
# 3 -0.005194 -0.000222 0.010278 0.000000 0.000000 0.000000
# 4 0.000000 0.000000 0.000000 0.006512 0.000000 0.000000
# 5 0.000000 0.000000 0.000000 0.000000 0.002089 0.000000
# 6 0.000000 0.000000 0.000000 0.000000 0.000000 0.093109
#
#
# Mechanical properties :
#
#
# Convention : Reuss Voigt Hill
#
# Bulk Modulus (GPa) = 38.35509 68.26301 53.30905
# Shear Modulus (GPa) = 31.80423 148.99339 90.39881
#
# Velocity S-wave (km/s) = 3.85274 8.33894 6.49544
# Velocity P-wave (km/s) = 6.13942 11.16139 9.00747
#
# Compressibility (1/GPa) = 0.02607216
#
# Stress axis : x y z
#
# Youngs Moduli (GPa) = 133.38832 53.57018 97.29586
#
# Poissons Ratio (x) = -0.01238 0.50533
# Poissons Ratio (y) = -0.03084 0.02163
# Poissons Ratio (z) = 0.69279 0.01191
#
# Static dielectric constant tensor:
#      x y z
#    x 1.775010 0.000000 0.000000 
#    y 0.000000 1.852730 0.000000 
#    z 0.000000 0.000000 1.634880 
# 
# From -- ./inp_files/64456.got.cif
#   From: 2010.05.17/outbox.cif.g08.bks.cpg/sg65_33_cif.got.tgz:64456.got - 2010.06.03 17:01:31.
