data_PCOD9490011
_publ_section_title
;
Structure prediction by ZEFSAII (Michael W. Deem and Ramdas Pophale) SiO2 
 PCOD9490011
Probable space group: C M M M
;
_chemical_formula_sum "Si O2"
_cell_formula_units_Z 112
_cell_length_a 14.031479
_cell_length_b 15.166598
_cell_length_c 27.671563
_cell_angle_alpha 90.000000
_cell_angle_beta 90.000000
_cell_angle_gamma 90.000000
_cell_volume 5888.779825
_symmetry_space_group_name_H-M "C M M M"
_symmetry_group_IT_number 65
_symmetry_cell_setting 'orthorhombic'
loop_
_space_group_symop_operation_xyz
x,y,z
-x,-y,z
x,-y,-z
-x,y,-z
-x,-y,-z
x,y,-z
-x,y,z
x,-y,z
1/2+x,1/2+y,z
1/2-x,1/2-y,z
1/2+x,1/2-y,-z
1/2-x,1/2+y,-z
1/2-x,1/2-y,-z
1/2+x,1/2+y,-z
1/2-x,1/2+y,z
1/2+x,1/2-y,z
loop_
_atom_site_type_symbol
_atom_site_label
_atom_site_fract_x
_atom_site_fract_y
_atom_site_fract_z
Si Si1 0.224603 0.396034 0.942675
Si Si2 0.274330 0.851279 0.648229
Si Si3 0.114465 0.773637 0.904668
Si Si4 0.391085 0.893657 0.445270
Si Si5 0.115306 0.227284 0.793615
Si Si6 0.385306 0.097148 0.257210
Si Si7 0.892083 0.900669 0.291799
O O1 0.221121 0.500000 0.926715
O O2 0.151647 0.324868 0.918669
O O3 0.326776 0.348066 0.933735
O O4 0.205635 0.396030 0.000000
O O5 0.250000 0.750000 0.655454
O O6 0.318380 0.864956 0.595811
O O7 0.348294 0.883059 0.689010
O O8 0.175736 0.898087 0.661967
O O9 0.140953 0.791363 0.848544
O O10 0.000000 0.778722 0.910732
O O11 0.367605 0.864765 0.500000
O O12 0.500000 0.864853 0.434322
O O13 0.391808 0.000000 0.445263
O O14 0.145289 0.325258 0.778353
O O15 0.145554 0.161725 0.750853
O O16 0.000000 0.224064 0.792522
O O17 0.500000 0.097173 0.258099
O O18 0.351694 0.000000 0.242645
O O19 0.000000 0.873489 0.304245
O O20 0.894314 0.000000 0.272982
#
# Coordination Sequence:
#
# PCOD9490011 Si02
#       7
#    16  16  16  16  16  16  16
#     4  10  23  41  59  85 120 153 192 245 300 355
#     4  12  22  32  54  80 109 143 183 229 271 327
#     4  10  21  38  63  88 116 154 197 244 295 352
#     4   9  19  37  59  82 108 136 173 229 290 340
#     4   9  19  36  55  82 115 146 188 232 277 332
#     4  10  20  35  55  79 110 144 181 229 279 328
#     4  10  21  37  54  74 109 153 191 226 264 316
#
# _framework density 19.019221000000002
#
# number of rings (size 3 to 8) (size 9 to 14) (size 15 to 20)
#    0.000    2.000    1.429    3.000    0.000    7.143 
#    0.000    4.286    0.000    0.429    0.000    2.000 
#    0.000    0.000    0.000    0.000    0.000    0.000 
#
# Total GULP energy -312317.188787 kJ/mol
# GULP energy per Si atom -5577.092657 kJ/mol
# Density = 1.897593 g / cm^3
# Si number density = 19.019221 Si / 1000 Ang^3
#
#
#
# Elastic Constant Matrix: (Units=GPa)
#
#
# Indices 1 2 3 4 5 6 
#
# 1 84.0694 7.1444 22.7714 0.0000 0.0000 0.0000
# 2 7.1444 99.4133 16.1433 0.0000 0.0000 0.0000
# 3 22.7714 16.1433 87.1578 0.0000 0.0000 0.0000
# 4 0.0000 0.0000 0.0000 15.7038 0.0000 0.0000
# 5 0.0000 0.0000 0.0000 0.0000 25.5649 0.0000
# 6 0.0000 0.0000 0.0000 0.0000 0.0000 13.1086
#
#
#
# Elastic Compliance Matrix: (Units=1/GPa)
#
#
# Indices 1 2 3 4 5 6 
#
# 1 0.012815 -0.000389 -0.003276 0.000000 0.000000 0.000000
# 2 -0.000389 0.010383 -0.001821 0.000000 0.000000 0.000000
# 3 -0.003276 -0.001821 0.012667 0.000000 0.000000 0.000000
# 4 0.000000 0.000000 0.000000 0.063679 0.000000 0.000000
# 5 0.000000 0.000000 0.000000 0.000000 0.039116 0.000000
# 6 0.000000 0.000000 0.000000 0.000000 0.000000 0.076286
#
#
# Mechanical properties :
#
#
# Convention : Reuss Voigt Hill
#
# Bulk Modulus (GPa) = 40.17409 40.30652 40.24030
# Shear Modulus (GPa) = 21.34779 25.84755 23.59767
#
# Velocity S-wave (km/s) = 3.35391 3.69049 3.52622
# Velocity P-wave (km/s) = 6.01390 6.27680 6.14675
#
# Compressibility (1/GPa) = 0.02489167
#
# Stress axis : x y z
#
# Youngs Moduli (GPa) = 78.03121 96.31364 78.94678
#
# Poissons Ratio (x) = 0.03746 0.25864
# Poissons Ratio (y) = 0.03035 0.14380
# Poissons Ratio (z) = 0.25564 0.17543
#
# Static dielectric constant tensor:
#      x y z
#    x 1.703680 0.000000 0.000000 
#    y 0.000000 1.643440 0.000000 
#    z 0.000000 0.000000 1.640150 
# 
# From -- ./inp_files/70037.got.cif
#   From: 2010.05.17/outbox.cif.g08.bks.cpg/sg65_36_cif.got.tgz:70037.got - 2010.06.03 17:01:31.
