data_PCOD9490067
_publ_section_title
;
Structure prediction by ZEFSAII (Michael W. Deem and Ramdas Pophale) SiO2 
 PCOD9490067
Probable space group: C M M M
;
_chemical_formula_sum "Si O2"
_cell_formula_units_Z 96
_cell_length_a 26.300147
_cell_length_b 7.677642
_cell_length_c 19.220507
_cell_angle_alpha 90.000000
_cell_angle_beta 90.000000
_cell_angle_gamma 90.000000
_cell_volume 3881.064611
_symmetry_space_group_name_H-M "C M M M"
_symmetry_group_IT_number 65
_symmetry_cell_setting 'orthorhombic'
loop_
_space_group_symop_operation_xyz
x,y,z
-x,-y,z
x,-y,-z
-x,y,-z
-x,-y,-z
x,y,-z
-x,y,z
x,-y,z
1/2+x,1/2+y,z
1/2-x,1/2-y,z
1/2+x,1/2-y,-z
1/2-x,1/2+y,-z
1/2-x,1/2-y,-z
1/2+x,1/2+y,-z
1/2-x,1/2+y,z
1/2+x,1/2-y,z
loop_
_atom_site_type_symbol
_atom_site_label
_atom_site_fract_x
_atom_site_fract_y
_atom_site_fract_z
Si Si1 0.445720 0.794933 0.227616
Si Si2 0.195304 0.205264 0.123035
Si Si3 0.168927 0.300439 0.577919
Si Si4 0.445134 0.700352 0.416743
Si Si5 0.413554 0.711832 0.075641
Si Si6 0.163575 0.290560 0.276084
O O1 0.500000 0.715970 0.247485
O O2 0.440715 0.777510 0.144548
O O3 0.393931 0.722149 0.260799
O O4 0.446284 0.000000 0.244692
O O5 0.250000 0.250000 0.093072
O O6 0.145048 0.272852 0.084879
O O7 0.192441 0.257975 0.204157
O O8 0.190563 0.000000 0.120993
O O9 0.177577 0.222922 0.500000
O O10 0.186718 0.500000 0.573569
O O11 0.107823 0.299333 0.592307
O O12 0.186950 0.220286 0.651401
O O13 0.448549 0.691334 0.500000
O O14 0.500000 0.774451 0.393494
O O15 0.440454 0.500000 0.392285
O O16 0.415545 0.500000 0.077773
O O17 0.432924 0.766223 0.000000
O O18 0.161195 0.500000 0.283643
#
# Coordination Sequence:
#
# PCOD9490067 Si02
#       6
#    16  16  16  16  16  16
#     4   9  18  32  49  70  99 138 180 214 244 283
#     4  10  20  35  56  79 102 129 162 199 243 297
#     4   9  17  28  44  67  92 120 157 203 255 304
#     4   8  14  24  36  52  79 115 152 190 234 285
#     4   9  19  35  53  76 106 135 164 201 244 291
#     4   9  18  33  51  71  99 133 168 208 252 298
#
# _framework density 24.735482000000001
#
# number of rings (size 3 to 8) (size 9 to 14) (size 15 to 20)
#    0.000    3.000    0.000    1.000    0.000    3.667 
#    0.000    5.000    0.000    0.500    0.000    0.000 
#    0.000    0.000    0.000    0.000    0.000    0.000 
#
# Total GULP energy -267717.685228 kJ/mol
# GULP energy per Si atom -5577.451776 kJ/mol
# Density = 2.467918 g / cm^3
# Si number density = 24.735482 Si / 1000 Ang^3
#
#
#
# Elastic Constant Matrix: (Units=GPa)
#
#
# Indices 1 2 3 4 5 6 
#
# 1 77.3368 -3.1541 3.9641 0.0000 0.0000 0.0000
# 2 -3.1541 50.2331 -4.1096 0.0000 0.0000 0.0000
# 3 3.9641 -4.1096 144.8295 0.0000 0.0000 0.0000
# 4 0.0000 0.0000 0.0000 -26.5489 0.0000 0.0000
# 5 0.0000 0.0000 0.0000 0.0000 -19.7357 0.0000
# 6 0.0000 0.0000 0.0000 0.0000 0.0000 11.4640
#
#
#
# Elastic Compliance Matrix: (Units=1/GPa)
#
#
# Indices 1 2 3 4 5 6 
#
# 1 0.012980 0.000788 -0.000333 0.000000 0.000000 0.000000
# 2 0.000788 0.020001 0.000546 0.000000 0.000000 0.000000
# 3 -0.000333 0.000546 0.006929 0.000000 0.000000 0.000000
# 4 0.000000 0.000000 0.000000 -0.037666 0.000000 0.000000
# 5 0.000000 0.000000 0.000000 0.000000 -0.050670 0.000000
# 6 0.000000 0.000000 0.000000 0.000000 0.000000 0.087230
#
#
# Mechanical properties :
#
#
# Convention : Reuss Voigt Hill
#
# Bulk Modulus (GPa) = 23.85959 29.53337 26.69648
# Shear Modulus (GPa) = 98.47743 11.41580 54.94661
#
# Velocity S-wave (km/s) = 6.31654 2.15062 4.71825
# Velocity P-wave (km/s) = 7.92875 4.25823 6.36386
#
# Compressibility (1/GPa) = 0.04191188
#
# Stress axis : x y z
#
# Youngs Moduli (GPa) = 77.04367 49.99667 144.31524
#
# Poissons Ratio (x) = -0.03938 0.04804
# Poissons Ratio (y) = -0.06069 -0.07879
# Poissons Ratio (z) = 0.02565 -0.02730
#
# Static dielectric constant tensor:
#      x y z
#    x 2.028740 0.000000 0.000000 
#    y 0.000000 1.917560 0.000000 
#    z 0.000000 0.000000 1.999000 
# 
# From -- ./inp_files/60253.got.cif
#   From: 2010.05.17/outbox.cif.g08.bks.cpg/sg65_31_cif.got.tgz:60253.got - 2010.06.03 17:01:31.
