data_PCOD9490348
_publ_section_title
;
Structure prediction by ZEFSAII (Michael W. Deem and Ramdas Pophale) SiO2 
 PCOD9490348
Probable space group: C M M M
;
_chemical_formula_sum "Si O2"
_cell_formula_units_Z 104
_cell_length_a 11.542646
_cell_length_b 28.472301
_cell_length_c 17.204415
_cell_angle_alpha 90.000000
_cell_angle_beta 90.000000
_cell_angle_gamma 90.000000
_cell_volume 5654.156860
_symmetry_space_group_name_H-M "C M M M"
_symmetry_group_IT_number 65
_symmetry_cell_setting 'orthorhombic'
loop_
_space_group_symop_operation_xyz
x,y,z
-x,-y,z
x,-y,-z
-x,y,-z
-x,-y,-z
x,y,-z
-x,y,z
x,-y,z
1/2+x,1/2+y,z
1/2-x,1/2-y,z
1/2+x,1/2-y,-z
1/2-x,1/2+y,-z
1/2-x,1/2-y,-z
1/2+x,1/2+y,-z
1/2-x,1/2+y,z
1/2+x,1/2-y,z
loop_
_atom_site_type_symbol
_atom_site_label
_atom_site_fract_x
_atom_site_fract_y
_atom_site_fract_z
Si Si1 0.245588 0.055688 0.592584
Si Si2 0.868463 0.696378 0.911977
Si Si3 0.370421 0.226844 0.259487
Si Si4 0.369256 0.115423 0.715601
Si Si5 0.000000 0.943213 0.847892
Si Si6 0.500000 0.443964 0.337972
Si Si7 0.363912 0.949133 0.000000
Si Si8 0.761745 0.894304 0.129971
O O1 0.254047 0.059440 0.500000
O O2 0.335993 0.088549 0.637331
O O3 0.118256 0.072008 0.621360
O O4 0.260371 0.000000 0.613009
O O5 0.868312 0.728585 0.835386
O O6 0.766509 0.658924 0.896226
O O7 0.000000 0.674427 0.909434
O O8 0.857386 0.715503 0.000000
O O9 0.500000 0.244885 0.282739
O O10 0.250000 0.250000 0.286942
O O11 0.365732 0.172152 0.285202
O O12 0.500000 0.102655 0.739212
O O13 0.278196 0.100636 0.781370
O O14 0.000000 0.935670 0.754272
O O15 0.112405 0.916453 0.880112
O O16 0.000000 0.000000 0.861786
O O17 0.500000 0.500000 0.348911
O O18 0.323680 0.922991 0.075999
O O19 0.500000 0.952195 0.000000
O O20 0.308109 0.000000 0.000000
#
# Coordination Sequence:
#
# PCOD9490348 Si02
#       8
#    16  16  16  16   8   8   8  16
#     4  10  20  35  58  88 119 151 188 230 278 337
#     4   9  17  33  57  78 103 138 177 227 290 347
#     4   9  19  37  58  84 112 148 188 234 286 342
#     4  10  21  37  58  83 115 150 186 228 286 340
#     4  11  22  34  50  70 105 151 193 239 286 326
#     4   9  17  34  54  76 110 151 189 228 276 330
#     4  11  22  33  49  71  96 134 189 240 276 321
#     4  11  20  35  52  71 100 141 192 231 276 332
#
# _framework density 18.393547999999999
#
# number of rings (size 3 to 8) (size 9 to 14) (size 15 to 20)
#    0.000    2.077    2.308    3.000    0.000    2.769 
#    6.923    1.538    0.000    0.462    0.000    0.000 
#    0.000    0.000    0.000    0.000    0.000    0.000 
#
# Total GULP energy -289590.502694 kJ/mol
# GULP energy per Si atom -5569.048129 kJ/mol
# Density = 1.835168 g / cm^3
# Si number density = 18.393548 Si / 1000 Ang^3
#
#
#
# Elastic Constant Matrix: (Units=GPa)
#
#
# Indices 1 2 3 4 5 6 
#
# 1 137.1165 37.4034 10.6314 0.0000 0.0000 0.0000
# 2 37.4034 27.1773 9.3138 0.0000 0.0000 0.0000
# 3 10.6314 9.3138 40.4062 0.0000 0.0000 0.0000
# 4 0.0000 0.0000 0.0000 15.4377 0.0000 0.0000
# 5 0.0000 0.0000 0.0000 0.0000 28.3990 0.0000
# 6 0.0000 0.0000 0.0000 0.0000 0.0000 25.2350
#
#
#
# Elastic Compliance Matrix: (Units=1/GPa)
#
#
# Indices 1 2 3 4 5 6 
#
# 1 0.011694 -0.016330 0.000687 0.000000 0.000000 0.000000
# 2 -0.016330 0.062755 -0.010169 0.000000 0.000000 0.000000
# 3 0.000687 -0.010169 0.026912 0.000000 0.000000 0.000000
# 4 0.000000 0.000000 0.000000 0.064776 0.000000 0.000000
# 5 0.000000 0.000000 0.000000 0.000000 0.035213 0.000000
# 6 0.000000 0.000000 0.000000 0.000000 0.000000 0.039628
#
#
# Mechanical properties :
#
#
# Convention : Reuss Voigt Hill
#
# Bulk Modulus (GPa) = 20.10535 35.48859 27.79697
# Shear Modulus (GPa) = 16.17180 23.63777 19.90478
#
# Velocity S-wave (km/s) = 2.96836 3.58873 3.29319
# Velocity P-wave (km/s) = 4.76473 6.04218 5.44107
#
# Compressibility (1/GPa) = 0.04973801
#
# Stress axis : x y z
#
# Youngs Moduli (GPa) = 85.51077 15.93497 37.15849
#
# Poissons Ratio (x) = 0.26022 -0.02554
# Poissons Ratio (y) = 1.39641 0.37785
# Poissons Ratio (z) = -0.05877 0.16204
#
# Static dielectric constant tensor:
#      x y z
#    x 1.673730 0.000000 0.000000 
#    y 0.000000 1.656390 0.000000 
#    z 0.000000 0.000000 1.630730 
# 
# From -- ./inp_files/51982.got.cif
#   From: 2010.05.17/outbox.cif.g08.bks.cpg/sg65_26_cif.got.tgz:51982.got - 2010.06.03 17:01:31.
