data_PCOD9490903
_publ_section_title
;
Structure prediction by ZEFSAII (Michael W. Deem and Ramdas Pophale) SiO2 
 PCOD9490903
Probable space group: C M M M
;
_chemical_formula_sum "Si O2"
_cell_formula_units_Z 116
_cell_length_a 17.555428
_cell_length_b 13.963521
_cell_length_c 23.135824
_cell_angle_alpha 90.000000
_cell_angle_beta 90.000000
_cell_angle_gamma 90.000000
_cell_volume 5671.413810
_symmetry_space_group_name_H-M "C M M M"
_symmetry_group_IT_number 65
_symmetry_cell_setting 'orthorhombic'
loop_
_space_group_symop_operation_xyz
x,y,z
-x,-y,z
x,-y,-z
-x,y,-z
-x,-y,-z
x,y,-z
-x,y,z
x,-y,z
1/2+x,1/2+y,z
1/2-x,1/2-y,z
1/2+x,1/2-y,-z
1/2-x,1/2+y,-z
1/2-x,1/2-y,-z
1/2+x,1/2+y,-z
1/2-x,1/2+y,z
1/2+x,1/2-y,z
loop_
_atom_site_type_symbol
_atom_site_label
_atom_site_fract_x
_atom_site_fract_y
_atom_site_fract_z
Si Si1 0.411193 0.106836 0.388108
Si Si2 0.129771 0.807716 0.097363
Si Si3 0.836854 0.786534 0.563809
Si Si4 0.794718 0.391409 0.930229
Si Si5 0.641184 0.388009 0.683669
Si Si6 0.500000 0.340158 0.000000
Si Si7 0.916253 0.241165 0.219603
Si Si8 0.188116 0.390829 0.271432
O O1 0.500000 0.113110 0.373385
O O2 0.387842 0.191657 0.430088
O O3 0.361487 0.117368 0.330099
O O4 0.396082 0.000000 0.411725
O O5 0.149766 0.694431 0.089145
O O6 0.209170 0.863673 0.088950
O O7 0.099544 0.819371 0.162240
O O8 0.067202 0.837391 0.050527
O O9 0.845325 0.829826 0.500000
O O10 0.750000 0.750000 0.570232
O O11 0.856822 0.854001 0.617469
O O12 0.814130 0.500000 0.911629
O O13 0.795326 0.389419 0.000000
O O14 0.624204 0.500000 0.687194
O O15 0.587464 0.324475 0.723548
O O16 0.725446 0.370666 0.710529
O O17 0.849485 0.318686 0.226864
O O18 0.000000 0.286506 0.215392
O O19 0.183807 0.500000 0.250842
#
# Coordination Sequence:
#
# PCOD9490903 Si02
#       8
#    16  16  16  16  16   4  16  16
#     4  10  20  37  62  91 125 162 199 254 323 382
#     4  11  23  41  67  91 129 169 208 262 314 371
#     4  11  22  38  63  92 124 166 213 259 311 377
#     4  10  21  41  66  92 122 167 214 254 308 371
#     4  11  24  43  64  88 125 169 212 263 311 368
#     4  12  20  46  66  96 136 168 210 262 320 370
#     4  12  25  40  63  93 125 167 207 254 320 378
#     4  10  21  39  63  91 121 160 208 255 315 380
#
# _framework density 20.453454000000001
#
# number of rings (size 3 to 8) (size 9 to 14) (size 15 to 20)
#    0.000    1.241    4.828    1.241    3.862    3.034 
#    0.000    3.448    0.000    0.000    0.000    1.931 
#    0.000    0.000    0.000    0.000    0.000    0.000 
#
# Total GULP energy -323618.594095 kJ/mol
# GULP energy per Si atom -5579.630933 kJ/mol
# Density = 2.040690 g / cm^3
# Si number density = 20.453454 Si / 1000 Ang^3
#
#
#
# Elastic Constant Matrix: (Units=GPa)
#
#
# Indices 1 2 3 4 5 6 
#
# 1 56.3415 -7.9341 -4.1276 0.0000 0.0000 0.0000
# 2 -7.9341 50.0541 -1.3910 0.0000 0.0000 0.0000
# 3 -4.1276 -1.3910 102.6402 0.0000 0.0000 0.0000
# 4 0.0000 0.0000 0.0000 8.4130 0.0000 0.0000
# 5 0.0000 0.0000 0.0000 0.0000 22.0370 0.0000
# 6 0.0000 0.0000 0.0000 0.0000 0.0000 16.6310
#
#
#
# Elastic Compliance Matrix: (Units=1/GPa)
#
#
# Indices 1 2 3 4 5 6 
#
# 1 0.018215 0.002909 0.000772 0.000000 0.000000 0.000000
# 2 0.002909 0.020450 0.000394 0.000000 0.000000 0.000000
# 3 0.000772 0.000394 0.009779 0.000000 0.000000 0.000000
# 4 0.000000 0.000000 0.000000 0.118864 0.000000 0.000000
# 5 0.000000 0.000000 0.000000 0.000000 0.045378 0.000000
# 6 0.000000 0.000000 0.000000 0.000000 0.000000 0.060129
#
#
# Mechanical properties :
#
#
# Convention : Reuss Voigt Hill
#
# Bulk Modulus (GPa) = 17.66967 20.23672 18.95320
# Shear Modulus (GPa) = 17.63479 24.24878 20.94179
#
# Velocity S-wave (km/s) = 2.93950 3.44693 3.20328
# Velocity P-wave (km/s) = 4.49206 5.07516 4.79249
#
# Compressibility (1/GPa) = 0.05659415
#
# Stress axis : x y z
#
# Youngs Moduli (GPa) = 54.89961 48.89885 102.25836
#
# Poissons Ratio (x) = -0.14223 -0.07894
# Poissons Ratio (y) = -0.15969 -0.04030
# Poissons Ratio (z) = -0.04238 -0.01927
#
# Static dielectric constant tensor:
#      x y z
#    x 1.713740 0.000000 0.000000 
#    y 0.000000 1.743370 0.000000 
#    z 0.000000 0.000000 1.735260 
# 
# From -- ./inp_files/70599.got.cif
#   From: 2010.05.17/outbox.cif.g08.bks.cpg/sg65_36_cif.got.tgz:70599.got - 2010.06.03 17:01:31.
