data_PCOD9490906
_publ_section_title
;
Structure prediction by ZEFSAII (Michael W. Deem and Ramdas Pophale) SiO2 
 PCOD9490906
Probable space group: C M M M
;
_chemical_formula_sum "Si O2"
_cell_formula_units_Z 58
_cell_length_a 16.469735
_cell_length_b 10.195244
_cell_length_c 18.090011
_cell_angle_alpha 90.000000
_cell_angle_beta 90.000000
_cell_angle_gamma 90.000000
_cell_volume 3037.547419
_symmetry_space_group_name_H-M "C M M M"
_symmetry_group_IT_number 65
_symmetry_cell_setting 'orthorhombic'
loop_
_space_group_symop_operation_xyz
x,y,z
-x,-y,z
x,-y,-z
-x,y,-z
-x,-y,-z
x,y,-z
-x,y,z
x,-y,z
1/2+x,1/2+y,z
1/2-x,1/2-y,z
1/2+x,1/2-y,-z
1/2-x,1/2+y,-z
1/2-x,1/2-y,-z
1/2+x,1/2+y,-z
1/2-x,1/2+y,z
1/2+x,1/2-y,z
loop_
_atom_site_type_symbol
_atom_site_label
_atom_site_fract_x
_atom_site_fract_y
_atom_site_fract_z
Si Si1 0.858043 0.000000 0.625281
Si Si2 0.000000 0.000000 0.500000
Si Si3 0.404098 0.774677 0.686607
Si Si4 0.671312 0.000000 0.414437
Si Si5 0.673126 0.152515 0.161587
Si Si6 0.173915 0.652351 0.000000
O O1 0.868781 0.130542 0.673407
O O2 0.768529 0.000000 0.590786
O O3 0.928511 0.000000 0.564166
O O4 0.500000 0.774258 0.673296
O O5 0.384471 0.820115 0.769437
O O6 0.362714 0.873872 0.628810
O O7 0.645882 0.000000 0.500000
O O8 0.750000 0.250000 0.167005
O O9 0.633248 0.171960 0.080147
O O10 0.699479 0.000000 0.166341
O O11 0.250000 0.750000 0.000000
O O12 0.201048 0.500000 0.000000
#
# Coordination Sequence:
#
# PCOD9490906 Si02
#       6
#     8   2  16   8  16   8
#     4  12  26  47  68  91 121 171 210 261 315 382
#     4  12  24  48  72  94 126 154 228 266 320 372
#     4  12  26  43  62  93 131 169 208 262 316 373
#     4  12  27  42  68  95 124 160 211 261 321 380
#     4  10  20  37  62  92 127 166 213 262 314 379
#     4   8  16  32  57  89 122 162 208 258 312 370
#
# _framework density 19.094352000000001
#
# number of rings (size 3 to 8) (size 9 to 14) (size 15 to 20)
#    0.000    1.103    3.448    2.897    3.862    2.207 
#    0.000    0.690    0.000    2.483    0.000    1.931 
#    0.000    0.000    0.000    0.000    0.000    0.000 
#
# Total GULP energy -161640.086431 kJ/mol
# GULP energy per Si atom -5573.796084 kJ/mol
# Density = 1.905089 g / cm^3
# Si number density = 19.094352 Si / 1000 Ang^3
#
#
#
# Elastic Constant Matrix: (Units=GPa)
#
#
# Indices 1 2 3 4 5 6 
#
# 1 48.6668 27.3645 29.0751 0.0000 0.0000 0.0000
# 2 27.3645 132.9235 60.3823 0.0000 0.0000 0.0000
# 3 29.0751 60.3823 175.7054 0.0000 0.0000 0.0000
# 4 0.0000 0.0000 0.0000 -26.4912 0.0000 0.0000
# 5 0.0000 0.0000 0.0000 0.0000 11.8718 0.0000
# 6 0.0000 0.0000 0.0000 0.0000 0.0000 16.2573
#
#
#
# Elastic Compliance Matrix: (Units=1/GPa)
#
#
# Indices 1 2 3 4 5 6 
#
# 1 0.024293 -0.003762 -0.002727 0.000000 0.000000 0.000000
# 2 -0.003762 0.009498 -0.002641 0.000000 0.000000 0.000000
# 3 -0.002727 -0.002641 0.007050 0.000000 0.000000 0.000000
# 4 0.000000 0.000000 0.000000 -0.037748 0.000000 0.000000
# 5 0.000000 0.000000 0.000000 0.000000 0.084234 0.000000
# 6 0.000000 0.000000 0.000000 0.000000 0.000000 0.061511
#
#
# Mechanical properties :
#
#
# Convention : Reuss Voigt Hill
#
# Bulk Modulus (GPa) = 44.28836 65.65995 54.97415
# Shear Modulus (GPa) = 28.63299 16.35915 22.49607
#
# Velocity S-wave (km/s) = 3.87661 2.93021 3.43615
# Velocity P-wave (km/s) = 6.57893 6.77569 6.67803
#
# Compressibility (1/GPa) = 0.02257930
#
# Stress axis : x y z
#
# Youngs Moduli (GPa) = 41.16496 105.29085 141.83825
#
# Poissons Ratio (x) = 0.39613 0.38678
# Poissons Ratio (y) = 0.15487 0.37464
# Poissons Ratio (z) = 0.11225 0.27811
#
# Static dielectric constant tensor:
#      x y z
#    x 1.619620 0.000000 0.000000 
#    y 0.000000 1.657800 0.000000 
#    z 0.000000 0.000000 1.697920 
# 
# From -- ./inp_files/52488.got.cif
#   From: 2010.05.17/outbox.cif.g08.bks.cpg/sg65_27_cif.got.tgz:52488.got - 2010.06.03 17:01:31.
