data_PCOD9490223
_publ_section_title
;
Structure prediction by ZEFSAII (Michael W. Deem and Ramdas Pophale) SiO2 
 PCOD9490223
Probable space group: C M M M
;
_chemical_formula_sum "Si O2"
_cell_formula_units_Z 64
_cell_length_a 21.526918
_cell_length_b 16.029233
_cell_length_c 9.324631
_cell_angle_alpha 90.000000
_cell_angle_beta 90.000000
_cell_angle_gamma 90.000000
_cell_volume 3217.557027
_symmetry_space_group_name_H-M "C M M M"
_symmetry_group_IT_number 65
_symmetry_cell_setting 'orthorhombic'
loop_
_space_group_symop_operation_xyz
x,y,z
-x,-y,z
x,-y,-z
-x,y,-z
-x,-y,-z
x,y,-z
-x,y,z
x,-y,z
1/2+x,1/2+y,z
1/2-x,1/2-y,z
1/2+x,1/2-y,-z
1/2-x,1/2+y,-z
1/2-x,1/2-y,-z
1/2+x,1/2+y,-z
1/2-x,1/2+y,z
1/2+x,1/2-y,z
loop_
_atom_site_type_symbol
_atom_site_label
_atom_site_fract_x
_atom_site_fract_y
_atom_site_fract_z
Si Si1 0.865846 0.899548 0.663635
Si Si2 0.245253 0.650591 0.162429
Si Si3 0.500000 0.101995 0.834412
Si Si4 0.877155 0.399137 0.335705
Si Si5 0.000000 0.903478 0.674807
O O1 0.854369 0.870141 0.500000
O O2 0.808294 0.879850 0.763616
O O3 0.933161 0.866268 0.715624
O O4 0.871749 0.000000 0.656569
O O5 0.250000 0.750000 0.156976
O O6 0.185605 0.626196 0.255694
O O7 0.238990 0.617959 0.000000
O O8 0.438060 0.129049 0.750984
O O9 0.500000 0.000000 0.834140
O O10 0.500000 0.128697 0.000000
O O11 0.878161 0.369041 0.500000
O O12 0.878895 0.500000 0.339425
O O13 0.000000 0.904961 0.500000
O O14 0.000000 0.000000 0.724748
#
# Coordination Sequence:
#
# PCOD9490223 Si02
#       5
#    16  16   8  16   8
#     4   9  17  32  56  82 104 130 167 210 257 311
#     4  11  24  38  50  70 104 144 181 217 262 313
#     4   9  17  31  54  83 112 139 167 207 262 317
#     4  10  20  35  57  83 107 134 174 221 264 311
#     4   7  12  26  50  79 106 127 153 197 252 307
#
# _framework density 19.890867
#
# number of rings (size 3 to 8) (size 9 to 14) (size 15 to 20)
#    0.000    2.500    0.000    4.125    0.000    8.500 
#    0.000    1.875    0.000    8.250    0.000    0.000 
#    0.000    0.000    0.000    0.000    0.000    0.000 
#
# Total GULP energy -178551.209059 kJ/mol
# GULP energy per Si atom -5579.725283 kJ/mol
# Density = 1.984559 g / cm^3
# Si number density = 19.890867 Si / 1000 Ang^3
#
#
#
# Elastic Constant Matrix: (Units=GPa)
#
#
# Indices 1 2 3 4 5 6 
#
# 1 232.3107 10.4369 124.0635 0.0000 0.0000 0.0000
# 2 10.4369 14.7815 11.7480 0.0000 0.0000 0.0000
# 3 124.0635 11.7480 173.3830 0.0000 0.0000 0.0000
# 4 0.0000 0.0000 0.0000 20.4389 0.0000 0.0000
# 5 0.0000 0.0000 0.0000 0.0000 -39.1388 0.0000
# 6 0.0000 0.0000 0.0000 0.0000 0.0000 -50.2548
#
#
#
# Elastic Compliance Matrix: (Units=1/GPa)
#
#
# Indices 1 2 3 4 5 6 
#
# 1 0.006981 -0.001014 -0.004927 0.000000 0.000000 0.000000
# 2 -0.001014 0.071650 -0.004129 0.000000 0.000000 0.000000
# 3 -0.004927 -0.004129 0.009573 0.000000 0.000000 0.000000
# 4 0.000000 0.000000 0.000000 0.048926 0.000000 0.000000
# 5 0.000000 0.000000 0.000000 0.000000 -0.025550 0.000000
# 6 0.000000 0.000000 0.000000 0.000000 0.000000 -0.019899
#
#
# Mechanical properties :
#
#
# Convention : Reuss Voigt Hill
#
# Bulk Modulus (GPa) = 14.69208 79.21911 46.95559
# Shear Modulus (GPa) = 37.17231 4.49084 20.83158
#
# Velocity S-wave (km/s) = 4.32767 1.50421 3.23970
# Velocity P-wave (km/s) = 5.68981 6.55211 6.13613
#
# Compressibility (1/GPa) = 0.06806388
#
# Stress axis : x y z
#
# Youngs Moduli (GPa) = 143.24280 13.95680 104.46455
#
# Poissons Ratio (x) = 0.01415 0.51466
# Poissons Ratio (y) = 0.14520 0.43139
# Poissons Ratio (z) = 0.70571 0.05763
#
# Static dielectric constant tensor:
#      x y z
#    x 1.700310 0.000000 0.000000 
#    y 0.000000 1.706150 0.000000 
#    z 0.000000 0.000000 1.687110 
# 
# From -- ./inp_files/10850.got.cif
#   From: 2010.05.17/outbox.cif.g08.bks.cpg/sg65_6_cif.got.tgz:10850.got - 2010.06.03 17:01:31.
