data_PCOD9490135
_publ_section_title
;
Structure prediction by ZEFSAII (Michael W. Deem and Ramdas Pophale) SiO2 
 PCOD9490135
Probable space group: C M M M
;
_chemical_formula_sum "Si O2"
_cell_formula_units_Z 80
_cell_length_a 27.680982
_cell_length_b 8.740707
_cell_length_c 18.896740
_cell_angle_alpha 90.000000
_cell_angle_beta 90.000000
_cell_angle_gamma 90.000000
_cell_volume 4572.091813
_symmetry_space_group_name_H-M "C M M M"
_symmetry_group_IT_number 65
_symmetry_cell_setting 'orthorhombic'
loop_
_space_group_symop_operation_xyz
x,y,z
-x,-y,z
x,-y,-z
-x,y,-z
-x,-y,-z
x,y,-z
-x,y,z
x,-y,z
1/2+x,1/2+y,z
1/2-x,1/2-y,z
1/2+x,1/2-y,-z
1/2-x,1/2+y,-z
1/2-x,1/2-y,-z
1/2+x,1/2+y,-z
1/2-x,1/2+y,z
1/2+x,1/2-y,z
loop_
_atom_site_type_symbol
_atom_site_label
_atom_site_fract_x
_atom_site_fract_y
_atom_site_fract_z
Si Si1 0.195984 0.182818 0.500000
Si Si2 0.901714 0.684162 0.144801
Si Si3 0.557165 0.682941 0.000000
Si Si4 0.148061 0.316052 0.359676
Si Si5 0.555415 0.683350 0.712409
Si Si6 0.198174 0.683150 0.213028
O O1 0.250000 0.250000 0.500000
O O2 0.168457 0.242122 0.430465
O O3 0.198168 0.000000 0.500000
O O4 0.905461 0.500000 0.147149
O O5 0.932744 0.753701 0.209205
O O6 0.846077 0.727177 0.161872
O O7 0.919423 0.746849 0.070258
O O8 0.563220 0.500000 0.000000
O O9 0.500000 0.716710 0.000000
O O10 0.148312 0.500000 0.365217
O O11 0.094611 0.258694 0.339416
O O12 0.181534 0.271620 0.292362
O O13 0.500000 0.719230 0.694059
O O14 0.561387 0.500000 0.712149
O O15 0.201358 0.500000 0.212155
O O16 0.250000 0.750000 0.194909
#
# Coordination Sequence:
#
# PCOD9490135 Si02
#       6
#     8  16   8  16  16  16
#     4  12  24  38  57  82 113 146 180 223 275 325
#     4  10  21  36  54  79 109 141 180 221 264 320
#     4  11  23  37  54  79 108 137 174 221 272 323
#     4  10  21  37  56  81 111 143 183 226 269 321
#     4  10  20  35  56  82 111 143 180 223 270 320
#     4   9  19  34  54  79 105 136 175 218 261 310
#
# _framework density 17.49746
#
# number of rings (size 3 to 8) (size 9 to 14) (size 15 to 20)
#    0.000    1.900    0.000    5.400    0.000   11.200 
#    0.000    1.000    0.000    3.000    0.000    0.000 
#    0.000    0.000    0.000    0.000    0.000    0.000 
#
# Total GULP energy -223415.359383 kJ/mol
# GULP energy per Si atom -5585.383985 kJ/mol
# Density = 1.745764 g / cm^3
# Si number density = 17.497460 Si / 1000 Ang^3
#
#
#
# Elastic Constant Matrix: (Units=GPa)
#
#
# Indices 1 2 3 4 5 6 
#
# 1 142.8480 59.6003 78.7994 0.0000 0.0000 0.0000
# 2 59.6003 77.5791 56.0430 0.0000 0.0000 0.0000
# 3 78.7994 56.0430 140.5014 0.0000 0.0000 0.0000
# 4 0.0000 0.0000 0.0000 29.8048 0.0000 0.0000
# 5 0.0000 0.0000 0.0000 0.0000 11.3980 0.0000
# 6 0.0000 0.0000 0.0000 0.0000 0.0000 34.8807
#
#
#
# Elastic Compliance Matrix: (Units=1/GPa)
#
#
# Indices 1 2 3 4 5 6 
#
# 1 0.011864 -0.006052 -0.004240 0.000000 0.000000 0.000000
# 2 -0.006052 0.021195 -0.005060 0.000000 0.000000 0.000000
# 3 -0.004240 -0.005060 0.011514 0.000000 0.000000 0.000000
# 4 0.000000 0.000000 0.000000 0.033552 0.000000 0.000000
# 5 0.000000 0.000000 0.000000 0.000000 0.087735 0.000000
# 6 0.000000 0.000000 0.000000 0.000000 0.000000 0.028669
#
#
# Mechanical properties :
#
#
# Convention : Reuss Voigt Hill
#
# Bulk Modulus (GPa) = 72.10332 83.31266 77.70799
# Shear Modulus (GPa) = 21.75278 26.31575 24.03426
#
# Velocity S-wave (km/s) = 3.52972 3.88232 3.71021
# Velocity P-wave (km/s) = 7.60981 8.23493 7.92853
#
# Compressibility (1/GPa) = 0.01386899
#
# Stress axis : x y z
#
# Youngs Moduli (GPa) = 84.28554 47.18156 86.85249
#
# Poissons Ratio (x) = 0.28553 0.36827
# Poissons Ratio (y) = 0.51008 0.43948
# Poissons Ratio (z) = 0.35738 0.23874
#
# Static dielectric constant tensor:
#      x y z
#    x 1.587420 0.000000 0.000000 
#    y 0.000000 1.586380 0.000000 
#    z 0.000000 0.000000 1.563350 
# 
# From -- ./inp_files/57312.got.cif
#   From: 2010.05.17/outbox.cif.g08.bks.cpg/sg65_29_cif.got.tgz:57312.got - 2010.06.03 17:01:31.
