data_PCOD9490129
_publ_section_title
;
Structure prediction by ZEFSAII (Michael W. Deem and Ramdas Pophale) SiO2 
 PCOD9490129
Probable space group: C M M M
;
_chemical_formula_sum "Si O2"
_cell_formula_units_Z 96
_cell_length_a 20.723674
_cell_length_b 14.069898
_cell_length_c 17.424021
_cell_angle_alpha 90.000000
_cell_angle_beta 90.000000
_cell_angle_gamma 90.000000
_cell_volume 5080.495684
_symmetry_space_group_name_H-M "C M M M"
_symmetry_group_IT_number 65
_symmetry_cell_setting 'orthorhombic'
loop_
_space_group_symop_operation_xyz
x,y,z
-x,-y,z
x,-y,-z
-x,y,-z
-x,-y,-z
x,y,-z
-x,y,z
x,-y,z
1/2+x,1/2+y,z
1/2-x,1/2-y,z
1/2+x,1/2-y,-z
1/2-x,1/2+y,-z
1/2-x,1/2-y,-z
1/2+x,1/2+y,-z
1/2-x,1/2+y,z
1/2+x,1/2-y,z
loop_
_atom_site_type_symbol
_atom_site_label
_atom_site_fract_x
_atom_site_fract_y
_atom_site_fract_z
Si Si1 0.273238 0.887415 0.163461
Si Si2 0.806104 0.613721 0.332890
Si Si3 0.923914 0.755067 0.331864
Si Si4 0.702180 0.112593 0.500000
Si Si5 0.923474 0.106058 0.801717
Si Si6 0.427244 0.225783 0.500000
Si Si7 0.345683 0.725271 0.090909
O O1 0.267034 0.868165 0.254683
O O2 0.333354 0.826617 0.131248
O O3 0.213251 0.842563 0.118134
O O4 0.279224 0.000000 0.151637
O O5 0.816847 0.500000 0.336262
O O6 0.874433 0.667748 0.323869
O O7 0.774622 0.643737 0.414871
O O8 0.902384 0.837364 0.274158
O O9 0.919994 0.783587 0.421422
O O10 0.000000 0.732074 0.316614
O O11 0.627261 0.145094 0.500000
O O12 0.709225 0.000000 0.500000
O O13 0.906255 0.170894 0.874050
O O14 0.000000 0.097492 0.796282
O O15 0.895070 0.000000 0.806911
O O16 0.500000 0.185247 0.500000
O O17 0.346321 0.734819 0.000000
#
# Coordination Sequence:
#
# PCOD9490129 Si02
#       7
#    16  16  16   8  16   8  16
#     4  10  20  35  56  82 110 140 172 208 257 311
#     4   9  16  28  48  75 107 142 174 209 252 302
#     4   9  16  29  47  71 104 139 177 217 256 303
#     4   8  14  23  40  69 103 139 176 206 244 295
#     4  10  21  37  56  77 103 136 174 219 269 318
#     4   8  14  23  41  67  97 135 175 216 255 293
#     4  11  23  38  58  81 105 133 170 221 269 313
#
# _framework density 18.895793999999999
#
# number of rings (size 3 to 8) (size 9 to 14) (size 15 to 20)
#    0.000    2.500    1.667    1.500    0.000    3.167 
#    0.000    4.583    0.000    6.000    0.000    3.500 
#    0.000    0.000    0.000    0.000    0.000    0.000 
#
# Total GULP energy -267314.796522 kJ/mol
# GULP energy per Si atom -5569.058261 kJ/mol
# Density = 1.885279 g / cm^3
# Si number density = 18.895794 Si / 1000 Ang^3
#
#
#
# Elastic Constant Matrix: (Units=GPa)
#
#
# Indices 1 2 3 4 5 6 
#
# 1 8.8625 13.3139 10.6288 0.0000 0.0000 0.0000
# 2 13.3139 110.2006 48.3120 0.0000 0.0000 0.0000
# 3 10.6288 48.3120 130.4507 0.0000 0.0000 0.0000
# 4 0.0000 0.0000 0.0000 19.3170 0.0000 0.0000
# 5 0.0000 0.0000 0.0000 0.0000 29.3548 0.0000
# 6 0.0000 0.0000 0.0000 0.0000 0.0000 20.0946
#
#
#
# Elastic Compliance Matrix: (Units=1/GPa)
#
#
# Indices 1 2 3 4 5 6 
#
# 1 0.141968 -0.014422 -0.006226 0.000000 0.000000 0.000000
# 2 -0.014422 0.012298 -0.003380 0.000000 0.000000 0.000000
# 3 -0.006226 -0.003380 0.009425 0.000000 0.000000 0.000000
# 4 0.000000 0.000000 0.000000 0.051768 0.000000 0.000000
# 5 0.000000 0.000000 0.000000 0.000000 0.034066 0.000000
# 6 0.000000 0.000000 0.000000 0.000000 0.000000 0.049765
#
#
# Mechanical properties :
#
#
# Convention : Reuss Voigt Hill
#
# Bulk Modulus (GPa) = 8.64790 43.78036 26.21413
# Shear Modulus (GPa) = 12.95706 25.57055 19.26380
#
# Velocity S-wave (km/s) = 2.62145 3.68263 3.19639
# Velocity P-wave (km/s) = 3.70799 6.42667 5.24649
#
# Compressibility (1/GPa) = 0.11563503
#
# Stress axis : x y z
#
# Youngs Moduli (GPa) = 7.04385 81.31124 106.10515
#
# Poissons Ratio (x) = 1.17271 0.66059
# Poissons Ratio (y) = 0.10159 0.35859
# Poissons Ratio (z) = 0.04385 0.27480
#
# Static dielectric constant tensor:
#      x y z
#    x 1.727060 0.000000 0.000000 
#    y 0.000000 1.646700 0.000000 
#    z 0.000000 0.000000 1.691060 
# 
# From -- ./inp_files/45690.got.cif
#   From: 2010.05.17/outbox.cif.g08.bks.cpg/sg65_23_cif.got.tgz:45690.got - 2010.06.03 17:01:31.
