data_PCOD9490522
_publ_section_title
;
Structure prediction by ZEFSAII (Michael W. Deem and Ramdas Pophale) SiO2 
 PCOD9490522
Probable space group: C M M M
;
_chemical_formula_sum "Si O2"
_cell_formula_units_Z 82
_cell_length_a 25.642863
_cell_length_b 19.965397
_cell_length_c 9.302517
_cell_angle_alpha 90.000000
_cell_angle_beta 90.000000
_cell_angle_gamma 90.000000
_cell_volume 4762.609070
_symmetry_space_group_name_H-M "C M M M"
_symmetry_group_IT_number 65
_symmetry_cell_setting 'orthorhombic'
loop_
_space_group_symop_operation_xyz
x,y,z
-x,-y,z
x,-y,-z
-x,y,-z
-x,-y,-z
x,y,-z
-x,y,z
x,-y,z
1/2+x,1/2+y,z
1/2-x,1/2-y,z
1/2+x,1/2-y,-z
1/2-x,1/2+y,-z
1/2-x,1/2-y,-z
1/2+x,1/2+y,-z
1/2-x,1/2+y,z
1/2+x,1/2-y,z
loop_
_atom_site_type_symbol
_atom_site_label
_atom_site_fract_x
_atom_site_fract_y
_atom_site_fract_z
Si Si1 0.301869 0.421183 0.670221
Si Si2 0.400927 0.361121 0.168409
Si Si3 0.893660 0.701087 0.830688
Si Si4 0.000000 0.919697 0.332515
Si Si5 0.000000 0.639041 0.159914
Si Si6 0.714795 0.814026 0.671410
Si Si7 0.500000 0.000000 0.000000
O O1 0.314056 0.412546 0.500000
O O2 0.296378 0.500000 0.698414
O O3 0.348233 0.389927 0.762794
O O4 0.249288 0.379849 0.698751
O O5 0.401703 0.280768 0.181418
O O6 0.449274 0.391734 0.253558
O O7 0.403988 0.378266 0.000000
O O8 0.945514 0.663426 0.773929
O O9 0.840440 0.683971 0.749440
O O10 0.887337 0.683876 0.000000
O O11 0.000000 0.900112 0.500000
O O12 0.000000 0.000000 0.325050
O O13 0.000000 0.673627 0.000000
O O14 0.000000 0.560418 0.123029
O O15 0.706467 0.807432 0.500000
O O16 0.750000 0.750000 0.717055
#
# Coordination Sequence:
#
# PCOD9490522 Si02
#       7
#    16  16  16   8   8  16   2
#     4  10  21  38  56  77 110 152 191 231 280 339
#     4  11  22  35  56  81 111 145 181 231 284 325
#     4  10  20  36  58  84 114 142 182 236 282 333
#     4  11  24  39  54  77 108 147 189 226 271 335
#     4   8  17  35  56  82 111 141 181 223 282 339
#     4  10  20  36  57  81 111 148 191 230 278 338
#     4   8  16  36  64  80 114 152 182 220 294 358
#
# _framework density 17.217452999999999
#
# number of rings (size 3 to 8) (size 9 to 14) (size 15 to 20)
#    0.293    1.659    1.951    2.049    0.000    7.024 
#    1.756    0.488    0.000    0.000    0.000    0.683 
#    0.000    0.000    0.000    0.000    0.000    0.000 
#
# Total GULP energy -228458.463186 kJ/mol
# GULP energy per Si atom -5572.157639 kJ/mol
# Density = 1.717826 g / cm^3
# Si number density = 17.217453 Si / 1000 Ang^3
#
#
#
# Elastic Constant Matrix: (Units=GPa)
#
#
# Indices 1 2 3 4 5 6 
#
# 1 179.3762 69.5321 81.6238 0.0000 0.0000 0.0000
# 2 69.5321 106.3584 55.1690 0.0000 0.0000 0.0000
# 3 81.6238 55.1690 75.2444 0.0000 0.0000 0.0000
# 4 0.0000 0.0000 0.0000 21.2224 0.0000 0.0000
# 5 0.0000 0.0000 0.0000 0.0000 32.1118 0.0000
# 6 0.0000 0.0000 0.0000 0.0000 0.0000 -12.9644
#
#
#
# Elastic Compliance Matrix: (Units=1/GPa)
#
#
# Indices 1 2 3 4 5 6 
#
# 1 0.011185 -0.001644 -0.010928 0.000000 0.000000 0.000000
# 2 -0.001644 0.015414 -0.009519 0.000000 0.000000 0.000000
# 3 -0.010928 -0.009519 0.032123 0.000000 0.000000 0.000000
# 4 0.000000 0.000000 0.000000 0.047120 0.000000 0.000000
# 5 0.000000 0.000000 0.000000 0.000000 0.031141 0.000000
# 6 0.000000 0.000000 0.000000 0.000000 0.000000 -0.077134
#
#
# Mechanical properties :
#
#
# Convention : Reuss Voigt Hill
#
# Bulk Modulus (GPa) = 68.76630 85.95876 77.36253
# Shear Modulus (GPa) = 45.92371 18.38421 32.15396
#
# Velocity S-wave (km/s) = 5.17017 3.27121 4.32617
# Velocity P-wave (km/s) = 8.69871 8.01882 8.36567
#
# Compressibility (1/GPa) = 0.01454201
#
# Stress axis : x y z
#
# Youngs Moduli (GPa) = 89.40875 64.87576 31.13018
#
# Poissons Ratio (x) = 0.10663 0.34018
# Poissons Ratio (y) = 0.14696 0.29631
# Poissons Ratio (z) = 0.97703 0.61752
#
# Static dielectric constant tensor:
#      x y z
#    x 1.578000 0.000000 0.000000 
#    y 0.000000 1.570400 0.000000 
#    z 0.000000 0.000000 1.585470 
# 
# From -- ./inp_files/13880.got.cif
#   From: 2010.05.17/outbox.cif.g08.bks.cpg/sg65_7_cif.got.tgz:13880.got - 2010.06.03 17:01:31.
