data_PCOD9490175
_publ_section_title
;
Structure prediction by ZEFSAII (Michael W. Deem and Ramdas Pophale) SiO2 
 PCOD9490175
Probable space group: C M M M
;
_chemical_formula_sum "Si O2"
_cell_formula_units_Z 88
_cell_length_a 28.510750
_cell_length_b 18.619368
_cell_length_c 9.104080
_cell_angle_alpha 90.000000
_cell_angle_beta 90.000000
_cell_angle_gamma 90.000000
_cell_volume 4832.920407
_symmetry_space_group_name_H-M "C M M M"
_symmetry_group_IT_number 65
_symmetry_cell_setting 'orthorhombic'
loop_
_space_group_symop_operation_xyz
x,y,z
-x,-y,z
x,-y,-z
-x,y,-z
-x,-y,-z
x,y,-z
-x,y,z
x,-y,z
1/2+x,1/2+y,z
1/2-x,1/2-y,z
1/2+x,1/2-y,-z
1/2-x,1/2+y,-z
1/2-x,1/2-y,-z
1/2+x,1/2+y,-z
1/2-x,1/2+y,z
1/2+x,1/2-y,z
loop_
_atom_site_type_symbol
_atom_site_label
_atom_site_fract_x
_atom_site_fract_y
_atom_site_fract_z
Si Si1 0.389933 0.131205 0.675702
Si Si2 0.944270 0.080996 0.175389
Si Si3 0.704252 0.085465 0.828205
Si Si4 0.286582 0.684636 0.172017
Si Si5 0.885472 0.793901 0.324691
Si Si6 0.443937 0.000000 0.826319
O O1 0.392779 0.122871 0.500000
O O2 0.336730 0.118485 0.730111
O O3 0.402505 0.213300 0.715360
O O4 0.421333 0.070646 0.753149
O O5 0.916802 0.143726 0.255697
O O6 0.000000 0.087117 0.201803
O O7 0.929693 0.000000 0.220095
O O8 0.936873 0.086690 0.000000
O O9 0.755472 0.115241 0.788860
O O10 0.702035 0.000000 0.816942
O O11 0.696149 0.105745 0.000000
O O12 0.250000 0.750000 0.188346
O O13 0.332623 0.696332 0.266420
O O14 0.300109 0.680395 0.000000
O O15 0.886091 0.798711 0.500000
O O16 0.500000 0.000000 0.807935
O O17 0.432789 0.000000 0.000000
#
# Coordination Sequence:
#
# PCOD9490175 Si02
#       6
#    16  16  16  16  16   8
#     4  11  23  38  58  85 118 157 196 239 297 358
#     4   9  20  41  67  91 116 151 197 249 301 353
#     4  10  20  35  57  83 111 150 202 249 288 341
#     4  10  20  35  56  83 115 155 199 243 290 338
#     4  11  24  38  58  91 128 161 195 241 296 358
#     4  11  25  43  63  87 115 151 201 257 304 351
#
# _framework density 18.208454
#
# number of rings (size 3 to 8) (size 9 to 14) (size 15 to 20)
#    0.000    1.727    2.727    1.909    0.000    6.182 
#    0.000    6.364    0.000    0.000    0.000    0.000 
#    0.000    0.000    0.000    0.000    0.000    0.000 
#
# Total GULP energy -245727.065640 kJ/mol
# GULP energy per Si atom -5584.706037 kJ/mol
# Density = 1.816701 g / cm^3
# Si number density = 18.208454 Si / 1000 Ang^3
#
#
#
# Elastic Constant Matrix: (Units=GPa)
#
#
# Indices 1 2 3 4 5 6 
#
# 1 77.0551 76.9832 54.8251 0.0000 0.0000 0.0000
# 2 76.9832 167.7493 78.4491 0.0000 0.0000 0.0000
# 3 54.8251 78.4491 69.8861 0.0000 0.0000 0.0000
# 4 0.0000 0.0000 0.0000 30.8093 0.0000 0.0000
# 5 0.0000 0.0000 0.0000 0.0000 -163.2037 0.0000
# 6 0.0000 0.0000 0.0000 0.0000 0.0000 31.4782
#
#
#
# Elastic Compliance Matrix: (Units=1/GPa)
#
#
# Indices 1 2 3 4 5 6 
#
# 1 0.032203 -0.006240 -0.018258 0.000000 0.000000 0.000000
# 2 -0.006240 0.013758 -0.010549 0.000000 0.000000 0.000000
# 3 -0.018258 -0.010549 0.040474 0.000000 0.000000 0.000000
# 4 0.000000 0.000000 0.000000 0.032458 0.000000 0.000000
# 5 0.000000 0.000000 0.000000 0.000000 -0.006127 0.000000
# 6 0.000000 0.000000 0.000000 0.000000 0.000000 0.031768
#
#
# Mechanical properties :
#
#
# Convention : Reuss Voigt Hill
#
# Bulk Modulus (GPa) = 61.19698 81.68947 71.44323
# Shear Modulus (GPa) = 22.71969 -13.22104 4.74932
#
# Velocity S-wave (km/s) = 3.53619 -2.69754 1.61678
# Velocity P-wave (km/s) = 7.09612 5.93790 6.54269
#
# Compressibility (1/GPa) = 0.01634068
#
# Stress axis : x y z
#
# Youngs Moduli (GPa) = 31.05342 72.68524 24.70730
#
# Poissons Ratio (x) = 0.45353 0.45112
# Poissons Ratio (y) = 0.19376 0.26063
# Poissons Ratio (z) = 0.56699 0.76674
#
# Static dielectric constant tensor:
#      x y z
#    x 1.597180 0.000000 0.000000 
#    y 0.000000 1.641940 0.000000 
#    z 0.000000 0.000000 1.609070 
# 
# From -- ./inp_files/18326.got.cif
#   From: 2010.05.17/outbox.cif.g08.bks.cpg/sg65_10_cif.got.tgz:18326.got - 2010.06.03 17:01:31.
