data_PCOD9490823
_publ_section_title
;
Structure prediction by ZEFSAII (Michael W. Deem and Ramdas Pophale) SiO2 
 PCOD9490823
Probable space group: C M M M
;
_chemical_formula_sum "Si O2"
_cell_formula_units_Z 64
_cell_length_a 10.175886
_cell_length_b 32.085624
_cell_length_c 10.518393
_cell_angle_alpha 90.000000
_cell_angle_beta 90.000000
_cell_angle_gamma 90.000000
_cell_volume 3434.251655
_symmetry_space_group_name_H-M "C M M M"
_symmetry_group_IT_number 65
_symmetry_cell_setting 'orthorhombic'
loop_
_space_group_symop_operation_xyz
x,y,z
-x,-y,z
x,-y,-z
-x,y,-z
-x,-y,-z
x,y,-z
-x,y,z
x,-y,z
1/2+x,1/2+y,z
1/2-x,1/2-y,z
1/2+x,1/2-y,-z
1/2-x,1/2+y,-z
1/2-x,1/2-y,-z
1/2+x,1/2+y,-z
1/2-x,1/2+y,z
1/2+x,1/2-y,z
loop_
_atom_site_type_symbol
_atom_site_label
_atom_site_fract_x
_atom_site_fract_y
_atom_site_fract_z
Si Si1 0.500000 0.809902 0.644065
Si Si2 0.253906 0.337914 0.239115
Si Si3 0.160123 0.000000 0.349256
Si Si4 0.348228 0.212011 0.000000
Si Si5 0.000000 0.785646 0.654069
Si Si6 0.341721 0.428871 0.147846
O O1 0.500000 0.797738 0.500000
O O2 0.369692 0.836649 0.667385
O O3 0.500000 0.762581 0.702940
O O4 0.372326 0.309919 0.293586
O O5 0.302783 0.382895 0.194682
O O6 0.188435 0.315586 0.119655
O O7 0.200662 0.960884 0.259448
O O8 0.202159 0.000000 0.500000
O O9 0.000000 0.000000 0.354254
O O10 0.250000 0.250000 0.000000
O O11 0.500000 0.224253 0.000000
O O12 0.000000 0.788514 0.500000
O O13 0.500000 0.431590 0.142800
O O14 0.296552 0.436526 0.000000
#
# Coordination Sequence:
#
# PCOD9490823 Si02
#       6
#     8  16   8   8   8  16
#     4  11  24  41  57  82 121 169 211 257 318 371
#     4  12  23  39  61  89 122 163 212 260 311 373
#     4   9  19  35  59  90 123 158 201 256 314 372
#     4  12  26  40  62  91 126 169 219 270 313 360
#     4  11  24  41  61  86 121 167 219 265 312 373
#     4  10  20  37  59  89 125 160 202 251 315 385
#
# _framework density 18.635793
#
# number of rings (size 3 to 8) (size 9 to 14) (size 15 to 20)
#    0.000    1.125    3.750    3.375    1.750    5.500 
#    0.000    0.000    0.000    0.750    0.000    4.375 
#    0.000    0.000    0.000    0.000    0.000    0.000 
#
# Total GULP energy -178324.332204 kJ/mol
# GULP energy per Si atom -5572.635381 kJ/mol
# Density = 1.859338 g / cm^3
# Si number density = 18.635793 Si / 1000 Ang^3
#
#
#
# Elastic Constant Matrix: (Units=GPa)
#
#
# Indices 1 2 3 4 5 6 
#
# 1 83.7833 3.4057 30.2910 0.0000 0.0000 0.0000
# 2 3.4057 89.5158 54.7502 0.0000 0.0000 0.0000
# 3 30.2910 54.7502 135.7515 0.0000 0.0000 0.0000
# 4 0.0000 0.0000 0.0000 -50.7416 0.0000 0.0000
# 5 0.0000 0.0000 0.0000 0.0000 31.0223 0.0000
# 6 0.0000 0.0000 0.0000 0.0000 0.0000 23.9209
#
#
#
# Elastic Compliance Matrix: (Units=1/GPa)
#
#
# Indices 1 2 3 4 5 6 
#
# 1 0.013180 0.001722 -0.003635 0.000000 0.000000 0.000000
# 2 0.001722 0.015054 -0.006456 0.000000 0.000000 0.000000
# 3 -0.003635 -0.006456 0.010781 0.000000 0.000000 0.000000
# 4 0.000000 0.000000 0.000000 -0.019708 0.000000 0.000000
# 5 0.000000 0.000000 0.000000 0.000000 0.032235 0.000000
# 6 0.000000 0.000000 0.000000 0.000000 0.000000 0.041805
#
#
# Mechanical properties :
#
#
# Convention : Reuss Voigt Hill
#
# Bulk Modulus (GPa) = 44.88910 53.99381 49.44146
# Shear Modulus (GPa) = 42.54915 15.54723 29.04819
#
# Velocity S-wave (km/s) = 4.78346 2.89150 3.95236
# Velocity P-wave (km/s) = 7.39247 6.33907 6.88594
#
# Compressibility (1/GPa) = 0.02227712
#
# Stress axis : x y z
#
# Youngs Moduli (GPa) = 75.87298 66.42646 92.75311
#
# Poissons Ratio (x) = -0.11439 0.33720
# Poissons Ratio (y) = -0.13066 0.59880
# Poissons Ratio (z) = 0.27583 0.42884
#
# Static dielectric constant tensor:
#      x y z
#    x 1.653660 0.000000 0.000000 
#    y 0.000000 1.634460 0.000000 
#    z 0.000000 0.000000 1.787360 
# 
# From -- ./inp_files/21052.got.cif
#   From: 2010.05.17/outbox.cif.g08.bks.cpg/sg65_11_cif.got.tgz:21052.got - 2010.06.03 17:01:31.
