data_PCOD9490270
_publ_section_title
;
Structure prediction by ZEFSAII (Michael W. Deem and Ramdas Pophale) SiO2 
 PCOD9490270
Probable space group: C M M M
;
_chemical_formula_sum "Si O2"
_cell_formula_units_Z 64
_cell_length_a 19.047486
_cell_length_b 10.923027
_cell_length_c 16.320843
_cell_angle_alpha 90.000000
_cell_angle_beta 90.000000
_cell_angle_gamma 90.000000
_cell_volume 3395.652638
_symmetry_space_group_name_H-M "C M M M"
_symmetry_group_IT_number 65
_symmetry_cell_setting 'orthorhombic'
loop_
_space_group_symop_operation_xyz
x,y,z
-x,-y,z
x,-y,-z
-x,y,-z
-x,-y,-z
x,y,-z
-x,y,z
x,-y,z
1/2+x,1/2+y,z
1/2-x,1/2-y,z
1/2+x,1/2-y,-z
1/2-x,1/2+y,-z
1/2-x,1/2-y,-z
1/2+x,1/2+y,-z
1/2-x,1/2+y,z
1/2+x,1/2-y,z
loop_
_atom_site_type_symbol
_atom_site_label
_atom_site_fract_x
_atom_site_fract_y
_atom_site_fract_z
Si Si1 0.210058 0.131134 0.901677
Si Si2 0.082542 0.757488 0.174383
Si Si3 0.419227 0.356131 0.351792
Si Si4 0.810667 0.854048 0.500000
Si Si5 0.584992 0.000000 0.906662
O O1 0.250000 0.250000 0.868930
O O2 0.130314 0.147055 0.873662
O O3 0.238256 0.000000 0.873411
O O4 0.213735 0.133818 0.000000
O O5 0.093795 0.775964 0.271047
O O6 0.102985 0.623768 0.140668
O O7 0.000000 0.775813 0.158777
O O8 0.500000 0.334199 0.380215
O O9 0.415919 0.500000 0.327969
O O10 0.361532 0.336533 0.421478
O O11 0.750000 0.750000 0.500000
O O12 0.787986 0.000000 0.500000
O O13 0.500000 0.000000 0.912287
O O14 0.613255 0.000000 0.000000
#
# Coordination Sequence:
#
# PCOD9490270 Si02
#       5
#    16  16  16   8   8
#     4  10  22  37  53  76 108 147 188 233 288 346
#     4  10  20  35  57  85 113 145 193 247 294 342
#     4   9  18  35  60  85 112 148 192 241 292 348
#     4  10  21  39  61  89 119 154 192 234 286 354
#     4   9  18  32  52  81 117 157 194 235 292 351
#
# _framework density 18.847629000000001
#
# number of rings (size 3 to 8) (size 9 to 14) (size 15 to 20)
#    0.000    2.375    0.000    1.875    1.750    5.500 
#    2.250    1.250    0.000    0.750    0.000    0.000 
#    0.000    0.000    0.000    0.000    0.000    0.000 
#
# Total GULP energy -178486.971523 kJ/mol
# GULP energy per Si atom -5577.717860 kJ/mol
# Density = 1.880473 g / cm^3
# Si number density = 18.847629 Si / 1000 Ang^3
#
#
#
# Elastic Constant Matrix: (Units=GPa)
#
#
# Indices 1 2 3 4 5 6 
#
# 1 81.2344 74.0777 38.3872 0.0000 0.0000 0.0000
# 2 74.0777 148.2399 73.2782 0.0000 0.0000 0.0000
# 3 38.3872 73.2782 64.9610 0.0000 0.0000 0.0000
# 4 0.0000 0.0000 0.0000 28.7586 0.0000 0.0000
# 5 0.0000 0.0000 0.0000 0.0000 18.2067 0.0000
# 6 0.0000 0.0000 0.0000 0.0000 0.0000 33.6252
#
#
#
# Elastic Compliance Matrix: (Units=1/GPa)
#
#
# Indices 1 2 3 4 5 6 
#
# 1 0.022672 -0.010640 -0.001396 0.000000 0.000000 0.000000
# 2 -0.010640 0.020242 -0.016546 0.000000 0.000000 0.000000
# 3 -0.001396 -0.016546 0.034883 0.000000 0.000000 0.000000
# 4 0.000000 0.000000 0.000000 0.034772 0.000000 0.000000
# 5 0.000000 0.000000 0.000000 0.000000 0.054925 0.000000
# 6 0.000000 0.000000 0.000000 0.000000 0.000000 0.029740
#
#
# Mechanical properties :
#
#
# Convention : Reuss Voigt Hill
#
# Bulk Modulus (GPa) = 48.46349 73.99127 61.22738
# Shear Modulus (GPa) = 19.13702 23.36423 21.25063
#
# Velocity S-wave (km/s) = 3.18992 3.52467 3.36146
# Velocity P-wave (km/s) = 6.27189 7.47711 6.90086
#
# Compressibility (1/GPa) = 0.02063409
#
# Stress axis : x y z
#
# Youngs Moduli (GPa) = 44.10781 49.40308 28.66717
#
# Poissons Ratio (x) = 0.52563 0.04001
# Poissons Ratio (y) = 0.46929 0.47433
# Poissons Ratio (z) = 0.06156 0.81743
#
# Static dielectric constant tensor:
#      x y z
#    x 1.680580 0.000000 0.000000 
#    y 0.000000 1.674580 0.000000 
#    z 0.000000 0.000000 1.618070 
# 
# From -- ./inp_files/41905.got.cif
#   From: 2010.05.17/outbox.cif.g08.bks.cpg/sg65_21_cif.got.tgz:41905.got - 2010.06.03 17:01:31.
