data_PCOD9490936
_publ_section_title
;
Structure prediction by ZEFSAII (Michael W. Deem and Ramdas Pophale) SiO2 
 PCOD9490936
Probable space group: C M M M
;
_chemical_formula_sum "Si O2"
_cell_formula_units_Z 42
_cell_length_a 9.873119
_cell_length_b 29.449006
_cell_length_c 7.914585
_cell_angle_alpha 90.000000
_cell_angle_beta 90.000000
_cell_angle_gamma 90.000000
_cell_volume 2301.193612
_symmetry_space_group_name_H-M "C M M M"
_symmetry_group_IT_number 65
_symmetry_cell_setting 'orthorhombic'
loop_
_space_group_symop_operation_xyz
x,y,z
-x,-y,z
x,-y,-z
-x,y,-z
-x,-y,-z
x,y,-z
-x,y,z
x,-y,z
1/2+x,1/2+y,z
1/2-x,1/2-y,z
1/2+x,1/2-y,-z
1/2-x,1/2+y,-z
1/2-x,1/2-y,-z
1/2+x,1/2+y,-z
1/2-x,1/2+y,z
1/2+x,1/2-y,z
loop_
_atom_site_type_symbol
_atom_site_label
_atom_site_fract_x
_atom_site_fract_y
_atom_site_fract_z
Si Si1 0.000000 0.273938 0.703708
Si Si2 0.000000 0.426690 0.810243
Si Si3 0.500000 0.670205 0.195752
Si Si4 0.202836 0.352013 0.698314
Si Si5 0.500000 0.000000 0.500000
O O1 0.870386 0.304854 0.750083
O O2 0.000000 0.267394 0.500000
O O3 0.000000 0.224635 0.783290
O O4 0.129584 0.393279 0.791530
O O5 0.000000 0.460769 0.652196
O O6 0.000000 0.446331 0.000000
O O7 0.362193 0.651436 0.275274
O O8 0.500000 0.658293 0.000000
O O9 0.172902 0.357508 0.500000
#
# Coordination Sequence:
#
# PCOD9490936 Si02
#       5
#     8   8   8  16   2
#     4   9  19  34  53  76 110 159 209 246 282 328
#     4  11  22  40  67  94 118 145 188 238 288 354
#     4  12  23  31  49  83 119 160 206 242 281 334
#     4  10  20  38  57  80 117 158 197 241 290 341
#     4  12  22  44  68  96 116 144 182 234 300 362
#
# _framework density 18.251397999999998
#
# number of rings (size 3 to 8) (size 9 to 14) (size 15 to 20)
#    0.000    1.524    1.905    5.429    0.000    9.143 
#    0.000    0.000    0.000    2.286    0.000    4.000 
#    0.000    0.000    0.000    0.000    0.000    0.000 
#
# Total GULP energy -117015.654978 kJ/mol
# GULP energy per Si atom -5572.174047 kJ/mol
# Density = 1.820986 g / cm^3
# Si number density = 18.251398 Si / 1000 Ang^3
#
#
#
# Elastic Constant Matrix: (Units=GPa)
#
#
# Indices 1 2 3 4 5 6 
#
# 1 141.1843 36.4706 15.5293 0.0000 0.0000 0.0000
# 2 36.4706 93.2071 35.3809 0.0000 0.0000 0.0000
# 3 15.5293 35.3809 111.3423 0.0000 0.0000 0.0000
# 4 0.0000 0.0000 0.0000 -29.8437 0.0000 0.0000
# 5 0.0000 0.0000 0.0000 0.0000 19.9848 0.0000
# 6 0.0000 0.0000 0.0000 0.0000 0.0000 -7.7384
#
#
#
# Elastic Compliance Matrix: (Units=1/GPa)
#
#
# Indices 1 2 3 4 5 6 
#
# 1 0.007881 -0.003032 -0.000136 0.000000 0.000000 0.000000
# 2 -0.003032 0.013367 -0.003825 0.000000 0.000000 0.000000
# 3 -0.000136 -0.003825 0.010216 0.000000 0.000000 0.000000
# 4 0.000000 0.000000 0.000000 -0.033508 0.000000 0.000000
# 5 0.000000 0.000000 0.000000 0.000000 0.050038 0.000000
# 6 0.000000 0.000000 0.000000 0.000000 0.000000 -0.129226
#
#
# Mechanical properties :
#
#
# Convention : Reuss Voigt Hill
#
# Bulk Modulus (GPa) = 57.21287 57.83281 57.52284
# Shear Modulus (GPa) = -81.40594 13.70405 -33.85094
#
# Velocity S-wave (km/s) = -6.68576 2.74314 -4.31130
# Velocity P-wave (km/s) = 5.30886 6.46441 2.60812
#
# Compressibility (1/GPa) = 0.01747859
#
# Stress axis : x y z
#
# Youngs Moduli (GPa) = 126.88481 74.81040 97.88950
#
# Poissons Ratio (x) = 0.22685 0.01328
# Poissons Ratio (y) = 0.38475 0.37440
# Poissons Ratio (z) = 0.01721 0.28613
#
# Static dielectric constant tensor:
#      x y z
#    x 1.662670 0.000000 0.000000 
#    y 0.000000 1.597850 0.000000 
#    z 0.000000 0.000000 1.648140 
# 
# From -- ./inp_files/2747.got.cif
#   From: 2010.05.17/outbox.cif.g08.bks.cpg/sg65_2_cif.got.tgz:2747.got - 2010.06.03 17:01:31.
