data_PCOD9490856
_publ_section_title
;
Structure prediction by ZEFSAII (Michael W. Deem and Ramdas Pophale) SiO2 
 PCOD9490856
Probable space group: C M M M
;
_chemical_formula_sum "Si O2"
_cell_formula_units_Z 88
_cell_length_a 26.010671
_cell_length_b 20.302290
_cell_length_c 7.658566
_cell_angle_alpha 90.000000
_cell_angle_beta 90.000000
_cell_angle_gamma 90.000000
_cell_volume 4044.306321
_symmetry_space_group_name_H-M "C M M M"
_symmetry_group_IT_number 65
_symmetry_cell_setting 'orthorhombic'
loop_
_space_group_symop_operation_xyz
x,y,z
-x,-y,z
x,-y,-z
-x,y,-z
-x,-y,-z
x,y,-z
-x,y,z
x,-y,z
1/2+x,1/2+y,z
1/2-x,1/2-y,z
1/2+x,1/2-y,-z
1/2-x,1/2+y,-z
1/2-x,1/2-y,-z
1/2+x,1/2+y,-z
1/2-x,1/2+y,z
1/2+x,1/2-y,z
loop_
_atom_site_type_symbol
_atom_site_label
_atom_site_fract_x
_atom_site_fract_y
_atom_site_fract_z
Si Si1 0.054900 0.325601 0.712838
Si Si2 0.638674 0.927062 0.289507
Si Si3 0.586970 0.682614 0.710032
Si Si4 0.500000 0.575767 0.206282
Si Si5 0.243531 0.072709 0.201510
Si Si6 0.702376 0.707302 0.303277
O O1 0.056648 0.326908 0.500000
O O2 0.102123 0.369299 0.773853
O O3 0.058438 0.249544 0.763498
O O4 0.000000 0.353449 0.767428
O O5 0.644721 0.921691 0.500000
O O6 0.694965 0.923528 0.209468
O O7 0.617093 0.000000 0.253574
O O8 0.591546 0.680842 0.500000
O O9 0.551266 0.619421 0.751755
O O10 0.645439 0.696593 0.776221
O O11 0.500000 0.500000 0.278943
O O12 0.500000 0.569282 0.000000
O O13 0.222477 0.133027 0.308834
O O14 0.228302 0.000000 0.264853
O O15 0.227014 0.079404 0.000000
O O16 0.695110 0.735526 0.500000
O O17 0.750000 0.750000 0.223730
#
# Coordination Sequence:
#
# PCOD9490856 Si02
#       6
#    16  16  16   8  16  16
#     4   9  16  29  53  80 107 138 175 222 271 318
#     4   9  17  30  51  79 110 145 184 225 267 314
#     4  10  20  37  61  85 111 146 187 232 284 344
#     4  11  25  43  61  83 114 151 192 244 301 351
#     4  10  21  36  53  75 108 149 187 223 270 329
#     4  10  21  37  60  89 117 146 186 237 292 348
#
# _framework density 21.758983000000001
#
# number of rings (size 3 to 8) (size 9 to 14) (size 15 to 20)
#    0.000    2.273    0.909    1.909    0.000    6.909 
#    0.000    8.182    0.000    0.000    0.000    2.545 
#    0.000    0.000    0.000    0.000    0.000    0.000 
#
# Total GULP energy -245232.533493 kJ/mol
# GULP energy per Si atom -5573.466670 kJ/mol
# Density = 2.170946 g / cm^3
# Si number density = 21.758983 Si / 1000 Ang^3
#
#
#
# Elastic Constant Matrix: (Units=GPa)
#
#
# Indices 1 2 3 4 5 6 
#
# 1 122.7271 47.2682 6.1014 0.0000 0.0000 0.0000
# 2 47.2682 95.7205 9.2184 0.0000 0.0000 0.0000
# 3 6.1014 9.2184 43.8869 0.0000 0.0000 0.0000
# 4 0.0000 0.0000 0.0000 -107.0643 0.0000 0.0000
# 5 0.0000 0.0000 0.0000 0.0000 11.0566 0.0000
# 6 0.0000 0.0000 0.0000 0.0000 0.0000 37.4554
#
#
#
# Elastic Compliance Matrix: (Units=1/GPa)
#
#
# Indices 1 2 3 4 5 6 
#
# 1 0.010067 -0.004937 -0.000363 0.000000 0.000000 0.000000
# 2 -0.004937 0.013083 -0.002062 0.000000 0.000000 0.000000
# 3 -0.000363 -0.002062 0.023269 0.000000 0.000000 0.000000
# 4 0.000000 0.000000 0.000000 -0.009340 0.000000 0.000000
# 5 0.000000 0.000000 0.000000 0.000000 0.090443 0.000000
# 6 0.000000 0.000000 0.000000 0.000000 0.000000 0.026698
#
#
# Mechanical properties :
#
#
# Convention : Reuss Voigt Hill
#
# Bulk Modulus (GPa) = 31.54772 43.05674 37.30223
# Shear Modulus (GPa) = 27.85359 1.60598 14.72979
#
# Velocity S-wave (km/s) = 3.58172 0.86005 2.60465
# Velocity P-wave (km/s) = 5.62452 4.56259 5.12115
#
# Compressibility (1/GPa) = 0.03169801
#
# Stress axis : x y z
#
# Youngs Moduli (GPa) = 99.32957 76.43282 42.97494
#
# Poissons Ratio (x) = 0.37731 0.01559
# Poissons Ratio (y) = 0.49034 0.08861
# Poissons Ratio (z) = 0.03603 0.15759
#
# Static dielectric constant tensor:
#      x y z
#    x 1.820120 0.000000 0.000000 
#    y 0.000000 1.784210 0.000000 
#    z 0.000000 0.000000 1.880970 
# 
# From -- ./inp_files/11706.got.cif
#   From: 2010.05.17/outbox.cif.g08.bks.cpg/sg65_6_cif.got.tgz:11706.got - 2010.06.03 17:01:31.
