data_PCOD9490535
_publ_section_title
;
Structure prediction by ZEFSAII (Michael W. Deem and Ramdas Pophale) SiO2 
 PCOD9490535
Probable space group: C M M M
;
_chemical_formula_sum "Si O2"
_cell_formula_units_Z 104
_cell_length_a 20.115001
_cell_length_b 28.891811
_cell_length_c 9.213632
_cell_angle_alpha 90.000000
_cell_angle_beta 90.000000
_cell_angle_gamma 90.000000
_cell_volume 5354.583383
_symmetry_space_group_name_H-M "C M M M"
_symmetry_group_IT_number 65
_symmetry_cell_setting 'orthorhombic'
loop_
_space_group_symop_operation_xyz
x,y,z
-x,-y,z
x,-y,-z
-x,y,-z
-x,-y,-z
x,y,-z
-x,y,z
x,-y,z
1/2+x,1/2+y,z
1/2-x,1/2-y,z
1/2+x,1/2-y,-z
1/2-x,1/2+y,-z
1/2-x,1/2-y,-z
1/2+x,1/2+y,-z
1/2-x,1/2+y,z
1/2+x,1/2-y,z
loop_
_atom_site_type_symbol
_atom_site_label
_atom_site_fract_x
_atom_site_fract_y
_atom_site_fract_z
Si Si1 0.890902 0.868466 0.673923
Si Si2 0.421737 0.725195 0.837072
Si Si3 0.273783 0.592602 0.168566
Si Si4 0.000000 0.945643 0.675881
Si Si5 0.729950 0.500000 0.334371
Si Si6 0.079134 0.313112 0.663485
Si Si7 0.386373 0.093990 0.169165
Si Si8 0.108647 0.500000 0.666066
O O1 0.891886 0.865924 0.500000
O O2 0.917495 0.821536 0.744734
O O3 0.816598 0.872503 0.736505
O O4 0.936358 0.913240 0.716671
O O5 0.500000 0.734879 0.853212
O O6 0.392632 0.769339 0.751941
O O7 0.393724 0.719708 0.000000
O O8 0.290823 0.544126 0.243740
O O9 0.194186 0.596714 0.176047
O O10 0.293090 0.594484 0.000000
O O11 0.000000 0.947870 0.500000
O O12 0.000000 0.000000 0.725903
O O13 0.704571 0.500000 0.500000
O O14 0.810451 0.500000 0.340648
O O15 0.106658 0.316211 0.500000
O O16 0.088737 0.360673 0.749388
O O17 0.000000 0.306055 0.650508
O O18 0.409142 0.046843 0.248558
O O19 0.405676 0.093202 0.000000
O O20 0.084385 0.500000 0.500000
#
# Coordination Sequence:
#
# PCOD9490535 Si02
#       8
#    16  16  16   8   8  16  16   8
#     4  11  21  35  57  81 110 148 191 235 280 331
#     4  10  20  36  58  81 108 143 184 229 279 335
#     4  10  21  35  52  78 112 147 184 229 277 328
#     4   9  20  36  53  79 115 151 188 235 282 325
#     4   9  17  31  51  75 101 141 189 226 265 319
#     4  10  21  37  60  87 113 140 179 229 278 329
#     4  10  20  36  57  82 115 151 185 225 275 330
#     4   9  17  31  54  80 110 146 185 223 264 318
#
# _framework density 19.422612999999998
#
# number of rings (size 3 to 8) (size 9 to 14) (size 15 to 20)
#    0.000    2.077    0.769    2.769    1.077    5.231 
#    0.000    1.154    0.000    8.769    0.000    0.000 
#    0.000    0.000    0.000    0.000    0.000    0.000 
#
# Total GULP energy -289978.815775 kJ/mol
# GULP energy per Si atom -5576.515688 kJ/mol
# Density = 1.937841 g / cm^3
# Si number density = 19.422613 Si / 1000 Ang^3
#
#
#
# Elastic Constant Matrix: (Units=GPa)
#
#
# Indices 1 2 3 4 5 6 
#
# 1 17.8389 6.5011 19.8404 0.0000 0.0000 0.0000
# 2 6.5011 145.8740 77.9727 0.0000 0.0000 0.0000
# 3 19.8404 77.9727 163.6225 0.0000 0.0000 0.0000
# 4 0.0000 0.0000 0.0000 42.2948 0.0000 0.0000
# 5 0.0000 0.0000 0.0000 0.0000 21.0891 0.0000
# 6 0.0000 0.0000 0.0000 0.0000 0.0000 3.3546
#
#
#
# Elastic Compliance Matrix: (Units=1/GPa)
#
#
# Indices 1 2 3 4 5 6 
#
# 1 0.065134 0.001770 -0.008741 0.000000 0.000000 0.000000
# 2 0.001770 0.009246 -0.004621 0.000000 0.000000 0.000000
# 3 -0.008741 -0.004621 0.009374 0.000000 0.000000 0.000000
# 4 0.000000 0.000000 0.000000 0.023644 0.000000 0.000000
# 5 0.000000 0.000000 0.000000 0.000000 0.047418 0.000000
# 6 0.000000 0.000000 0.000000 0.000000 0.000000 0.298098
#
#
# Mechanical properties :
#
#
# Convention : Reuss Voigt Hill
#
# Bulk Modulus (GPa) = 16.51002 59.55154 38.03078
# Shear Modulus (GPa) = 10.07479 28.21577 19.14528
#
# Velocity S-wave (km/s) = 2.28000 3.81560 3.14303
# Velocity P-wave (km/s) = 3.93066 7.08091 5.72666
#
# Compressibility (1/GPa) = 0.06056928
#
# Stress axis : x y z
#
# Youngs Moduli (GPa) = 15.35285 108.15155 106.68293
#
# Poissons Ratio (x) = -0.19138 0.93255
# Poissons Ratio (y) = -0.02717 0.49296
# Poissons Ratio (z) = 0.13420 0.49975
#
# Static dielectric constant tensor:
#      x y z
#    x 1.711200 0.000000 0.000000 
#    y 0.000000 1.615950 0.000000 
#    z 0.000000 0.000000 1.673490 
# 
# From -- ./inp_files/12483.got.cif
#   From: 2010.05.17/outbox.cif.g08.bks.cpg/sg65_7_cif.got.tgz:12483.got - 2010.06.03 17:01:31.
