data_PCOD9490246
_publ_section_title
;
Structure prediction by ZEFSAII (Michael W. Deem and Ramdas Pophale) SiO2 
 PCOD9490246
Probable space group: C M M M
;
_chemical_formula_sum "Si O2"
_cell_formula_units_Z 72
_cell_length_a 20.593722
_cell_length_b 21.291496
_cell_length_c 9.778155
_cell_angle_alpha 90.000000
_cell_angle_beta 90.000000
_cell_angle_gamma 90.000000
_cell_volume 4287.438864
_symmetry_space_group_name_H-M "C M M M"
_symmetry_group_IT_number 65
_symmetry_cell_setting 'orthorhombic'
loop_
_space_group_symop_operation_xyz
x,y,z
-x,-y,z
x,-y,-z
-x,y,-z
-x,-y,-z
x,y,-z
-x,y,z
x,-y,z
1/2+x,1/2+y,z
1/2-x,1/2-y,z
1/2+x,1/2-y,-z
1/2-x,1/2+y,-z
1/2-x,1/2-y,-z
1/2+x,1/2+y,-z
1/2-x,1/2+y,z
1/2+x,1/2-y,z
loop_
_atom_site_type_symbol
_atom_site_label
_atom_site_fract_x
_atom_site_fract_y
_atom_site_fract_z
Si Si1 0.191244 0.702248 0.159238
Si Si2 0.076840 0.253919 0.344101
Si Si3 0.000000 0.926525 0.150411
Si Si4 0.117483 0.890848 0.656353
Si Si5 0.764136 0.927967 0.843573
O O1 0.250000 0.750000 0.204555
O O2 0.125409 0.710172 0.244147
O O3 0.214602 0.630063 0.167038
O O4 0.179403 0.718262 0.000000
O O5 0.079608 0.278471 0.500000
O O6 0.107228 0.184034 0.347317
O O7 0.000000 0.251253 0.305413
O O8 0.061554 0.911855 0.241941
O O9 0.000000 0.000000 0.130601
O O10 0.000000 0.895356 0.000000
O O11 0.111165 0.913702 0.500000
O O12 0.182932 0.913868 0.727793
O O13 0.739960 0.000000 0.828850
O O14 0.791776 0.923811 0.000000
#
# Coordination Sequence:
#
# PCOD9490246 Si02
#       5
#    16  16   8  16  16
#     4  10  20  35  57  84 108 139 186 229 268 321
#     4  10  21  37  55  79 111 145 180 223 278 327
#     4  11  23  35  47  67 101 147 190 223 264 317
#     4  11  21  34  52  76 107 142 182 222 264 320
#     4  10  21  37  55  78 111 144 176 221 275 325
#
# _framework density 16.793243
#
# number of rings (size 3 to 8) (size 9 to 14) (size 15 to 20)
#    0.000    1.667    3.333    1.667    0.000    6.667 
#    0.000    0.000    0.000    0.667    0.000    4.667 
#    0.000    0.000    0.000    0.000    0.000    0.000 
#
# Total GULP energy -200531.344595 kJ/mol
# GULP energy per Si atom -5570.315128 kJ/mol
# Density = 1.675502 g / cm^3
# Si number density = 16.793243 Si / 1000 Ang^3
#
#
#
# Elastic Constant Matrix: (Units=GPa)
#
#
# Indices 1 2 3 4 5 6 
#
# 1 68.5271 40.0531 51.3215 0.0000 0.0000 0.0000
# 2 40.0531 81.3990 42.3927 0.0000 0.0000 0.0000
# 3 51.3215 42.3927 118.1455 0.0000 0.0000 0.0000
# 4 0.0000 0.0000 0.0000 19.8043 0.0000 0.0000
# 5 0.0000 0.0000 0.0000 0.0000 36.0748 0.0000
# 6 0.0000 0.0000 0.0000 0.0000 0.0000 29.5525
#
#
#
# Elastic Compliance Matrix: (Units=1/GPa)
#
#
# Indices 1 2 3 4 5 6 
#
# 1 0.025537 -0.008348 -0.008097 0.000000 0.000000 0.000000
# 2 -0.008348 0.017838 -0.002774 0.000000 0.000000 0.000000
# 3 -0.008097 -0.002774 0.012977 0.000000 0.000000 0.000000
# 4 0.000000 0.000000 0.000000 0.050494 0.000000 0.000000
# 5 0.000000 0.000000 0.000000 0.000000 0.027720 0.000000
# 6 0.000000 0.000000 0.000000 0.000000 0.000000 0.033838
#
#
# Mechanical properties :
#
#
# Convention : Reuss Voigt Hill
#
# Bulk Modulus (GPa) = 55.82927 59.51181 57.67054
# Shear Modulus (GPa) = 23.49471 26.03993 24.76732
#
# Velocity S-wave (km/s) = 3.74446 3.94206 3.84453
# Velocity P-wave (km/s) = 7.21192 7.49898 7.35685
#
# Compressibility (1/GPa) = 0.01791175
#
# Stress axis : x y z
#
# Youngs Moduli (GPa) = 39.15949 56.06075 77.05971
#
# Poissons Ratio (x) = 0.46802 0.62398
# Poissons Ratio (y) = 0.32692 0.21377
# Poissons Ratio (z) = 0.31709 0.15551
#
# Static dielectric constant tensor:
#      x y z
#    x 1.570090 0.000000 0.000000 
#    y 0.000000 1.602300 0.000000 
#    z 0.000000 0.000000 1.616020 
# 
# From -- ./inp_files/9261.got.cif
#   From: 2010.05.17/outbox.cif.g08.bks.cpg/sg65_5_cif.got.tgz:9261.got - 2010.06.03 17:01:31.
