data_PCOD9490415
_publ_section_title
;
Structure prediction by ZEFSAII (Michael W. Deem and Ramdas Pophale) SiO2 
 PCOD9490415
Probable space group: C M M M
;
_chemical_formula_sum "Si O2"
_cell_formula_units_Z 104
_cell_length_a 8.365072
_cell_length_b 29.627341
_cell_length_c 23.651436
_cell_angle_alpha 90.000000
_cell_angle_beta 90.000000
_cell_angle_gamma 90.000000
_cell_volume 5861.649872
_symmetry_space_group_name_H-M "C M M M"
_symmetry_group_IT_number 65
_symmetry_cell_setting 'orthorhombic'
loop_
_space_group_symop_operation_xyz
x,y,z
-x,-y,z
x,-y,-z
-x,y,-z
-x,-y,-z
x,y,-z
-x,y,z
x,-y,z
1/2+x,1/2+y,z
1/2-x,1/2-y,z
1/2+x,1/2-y,-z
1/2-x,1/2+y,-z
1/2-x,1/2-y,-z
1/2+x,1/2+y,-z
1/2-x,1/2+y,z
1/2+x,1/2-y,z
loop_
_atom_site_type_symbol
_atom_site_label
_atom_site_fract_x
_atom_site_fract_y
_atom_site_fract_z
Si Si1 0.191111 0.142437 0.666996
Si Si2 0.808107 0.698662 0.225225
Si Si3 0.806400 0.301467 0.000000
Si Si4 0.193357 0.949596 0.279680
Si Si5 0.804819 0.354170 0.111939
Si Si6 0.690900 0.799739 0.435584
Si Si7 0.192927 0.449884 0.150877
O O1 0.244830 0.173771 0.719113
O O2 0.247463 0.091664 0.681273
O O3 0.253285 0.163292 0.608935
O O4 0.000000 0.142247 0.665070
O O5 0.750000 0.750000 0.223142
O O6 0.755073 0.671874 0.168924
O O7 0.000000 0.697979 0.226793
O O8 0.750000 0.250000 0.000000
O O9 0.751713 0.327730 0.943771
O O10 0.000000 0.301543 0.000000
O O11 0.257380 0.942951 0.216107
O O12 0.000000 0.948535 0.277091
O O13 0.241869 0.000000 0.298259
O O14 0.751777 0.406291 0.115990
O O15 0.000000 0.354241 0.111436
O O16 0.748933 0.807598 0.500000
O O17 0.500000 0.798895 0.436288
O O18 0.750000 0.750000 0.417843
O O19 0.250129 0.500000 0.133526
O O20 0.000000 0.450397 0.148557
#
# Coordination Sequence:
#
# PCOD9490415 Si02
#       7
#    16  16   8  16  16  16  16
#     4  11  21  33  52  78 105 134 168 208 255 303
#     4  11  21  33  48  70 101 132 166 209 258 305
#     4  10  20  36  53  69  95 131 174 214 253 302
#     4   9  18  32  50  75 105 134 166 206 252 301
#     4   9  18  32  50  72  98 130 165 210 256 300
#     4  10  21  37  56  77 104 139 176 212 250 296
#     4   9  16  29  50  74  99 128 163 202 252 311
#
# _framework density 17.742443999999999
#
# number of rings (size 3 to 8) (size 9 to 14) (size 15 to 20)
#    0.000    2.154    1.538    2.308    0.000    1.538 
#    0.000    1.923    0.000    2.769    0.000    3.231 
#    0.000    3.077    0.000    0.000    0.000    0.000 
#
# Total GULP energy -290159.314925 kJ/mol
# GULP energy per Si atom -5579.986825 kJ/mol
# Density = 1.770206 g / cm^3
# Si number density = 17.742444 Si / 1000 Ang^3
#
#
#
# Elastic Constant Matrix: (Units=GPa)
#
#
# Indices 1 2 3 4 5 6 
#
# 1 18.8722 17.7165 12.0705 0.0000 0.0000 0.0000
# 2 17.7165 190.3635 83.2861 0.0000 0.0000 0.0000
# 3 12.0705 83.2861 95.8316 0.0000 0.0000 0.0000
# 4 0.0000 0.0000 0.0000 31.5961 0.0000 0.0000
# 5 0.0000 0.0000 0.0000 0.0000 0.8382 0.0000
# 6 0.0000 0.0000 0.0000 0.0000 0.0000 8.0110
#
#
#
# Elastic Compliance Matrix: (Units=1/GPa)
#
#
# Indices 1 2 3 4 5 6 
#
# 1 0.059139 -0.003622 -0.004301 0.000000 0.000000 0.000000
# 2 -0.003622 0.008698 -0.007103 0.000000 0.000000 0.000000
# 3 -0.004301 -0.007103 0.017150 0.000000 0.000000 0.000000
# 4 0.000000 0.000000 0.000000 0.031649 0.000000 0.000000
# 5 0.000000 0.000000 0.000000 0.000000 1.193051 0.000000
# 6 0.000000 0.000000 0.000000 0.000000 0.000000 0.124828
#
#
# Mechanical properties :
#
#
# Convention : Reuss Voigt Hill
#
# Bulk Modulus (GPa) = 18.20340 59.02370 38.61355
# Shear Modulus (GPa) = 3.37182 20.88868 12.13025
#
# Velocity S-wave (km/s) = 1.38005 3.43494 2.61757
# Velocity P-wave (km/s) = 3.58071 7.00507 5.56293
#
# Compressibility (1/GPa) = 0.05493479
#
# Stress axis : x y z
#
# Youngs Moduli (GPa) = 16.90926 114.97134 58.30989
#
# Poissons Ratio (x) = 0.41645 0.25078
# Poissons Ratio (y) = 0.06125 0.41417
# Poissons Ratio (z) = 0.07272 0.81663
#
# Static dielectric constant tensor:
#      x y z
#    x 1.572220 0.000000 0.000000 
#    y 0.000000 1.620020 0.000000 
#    z 0.000000 0.000000 1.583390 
# 
# From -- ./inp_files/68526.got.cif
#   From: 2010.05.17/outbox.cif.g08.bks.cpg/sg65_35_cif.got.tgz:68526.got - 2010.06.03 17:01:31.
