data_PCOD9490064
_publ_section_title
;
Structure prediction by ZEFSAII (Michael W. Deem and Ramdas Pophale) SiO2 
 PCOD9490064
Probable space group: C M M M
;
_chemical_formula_sum "Si O2"
_cell_formula_units_Z 88
_cell_length_a 16.608253
_cell_length_b 12.067048
_cell_length_c 23.562063
_cell_angle_alpha 90.000000
_cell_angle_beta 90.000000
_cell_angle_gamma 90.000000
_cell_volume 4722.133981
_symmetry_space_group_name_H-M "C M M M"
_symmetry_group_IT_number 65
_symmetry_cell_setting 'orthorhombic'
loop_
_space_group_symop_operation_xyz
x,y,z
-x,-y,z
x,-y,-z
-x,y,-z
-x,-y,-z
x,y,-z
-x,y,z
x,-y,z
1/2+x,1/2+y,z
1/2-x,1/2-y,z
1/2+x,1/2-y,-z
1/2-x,1/2+y,-z
1/2-x,1/2-y,-z
1/2+x,1/2+y,-z
1/2-x,1/2+y,z
1/2+x,1/2-y,z
loop_
_atom_site_type_symbol
_atom_site_label
_atom_site_fract_x
_atom_site_fract_y
_atom_site_fract_z
Si Si1 0.598069 0.129135 0.563927
Si Si2 0.596746 0.000000 0.126637
Si Si3 0.845230 0.258360 0.109517
Si Si4 0.901713 0.724878 0.320560
Si Si5 0.097292 0.874337 0.219272
Si Si6 0.097786 0.500000 0.257500
Si Si7 0.096358 0.126011 0.000000
O O1 0.624557 0.157247 0.500000
O O2 0.500000 0.131096 0.563891
O O3 0.625085 0.210193 0.614379
O O4 0.619623 0.000000 0.575711
O O5 0.628100 0.885318 0.101389
O O6 0.500000 0.000000 0.124513
O O7 0.623520 0.000000 0.192499
O O8 0.750000 0.250000 0.112719
O O9 0.879586 0.206911 0.167924
O O10 0.875422 0.187583 0.056421
O O11 0.874856 0.824526 0.279791
O O12 0.877427 0.611306 0.289203
O O13 0.000000 0.728744 0.321338
O O14 0.000000 0.877217 0.220492
O O15 0.126513 0.000000 0.209824
O O16 0.000000 0.500000 0.257759
O O17 0.000000 0.124086 0.000000
O O18 0.126681 0.000000 0.000000
#
# Coordination Sequence:
#
# PCOD9490064 Si02
#       7
#    16   8  16  16  16   8   8
#     4   8  12  17  29  55  93 134 174 222 285 345
#     4  11  22  39  64  90 118 155 197 237 291 358
#     4  12  26  41  62  91 124 148 183 242 299 338
#     4   9  14  23  41  66  96 134 181 233 279 331
#     4  10  20  35  56  78 106 148 196 233 272 343
#     4   9  14  24  44  72 100 132 177 229 279 333
#     4  11  25  47  71  87 113 159 201 227 265 339
#
# _framework density 18.635643000000002
#
# number of rings (size 3 to 8) (size 9 to 14) (size 15 to 20)
#    0.000    2.091    2.727    3.000    2.545    1.818 
#    0.000    0.909    0.000    0.545    0.000    3.818 
#    0.000    0.727    0.000    1.273    0.000    2.364 
#
# Total GULP energy -245427.247061 kJ/mol
# GULP energy per Si atom -5577.891979 kJ/mol
# Density = 1.859323 g / cm^3
# Si number density = 18.635643 Si / 1000 Ang^3
#
#
#
# Elastic Constant Matrix: (Units=GPa)
#
#
# Indices 1 2 3 4 5 6 
#
# 1 27.7020 21.5960 12.3862 0.0000 0.0000 0.0000
# 2 21.5960 140.0451 60.0270 0.0000 0.0000 0.0000
# 3 12.3862 60.0270 134.5845 0.0000 0.0000 0.0000
# 4 0.0000 0.0000 0.0000 20.1616 0.0000 0.0000
# 5 0.0000 0.0000 0.0000 0.0000 -6.2844 0.0000
# 6 0.0000 0.0000 0.0000 0.0000 0.0000 -9.0776
#
#
#
# Elastic Compliance Matrix: (Units=1/GPa)
#
#
# Indices 1 2 3 4 5 6 
#
# 1 0.041183 -0.005843 -0.001184 0.000000 0.000000 0.000000
# 2 -0.005843 0.009657 -0.003770 0.000000 0.000000 0.000000
# 3 -0.001184 -0.003770 0.009221 0.000000 0.000000 0.000000
# 4 0.000000 0.000000 0.000000 0.049599 0.000000 0.000000
# 5 0.000000 0.000000 0.000000 0.000000 -0.159123 0.000000
# 6 0.000000 0.000000 0.000000 0.000000 0.000000 -0.110161
#
#
# Mechanical properties :
#
#
# Convention : Reuss Voigt Hill
#
# Bulk Modulus (GPa) = 25.99606 54.48332 40.23969
# Shear Modulus (GPa) = -39.93371 14.84806 -12.54282
#
# Velocity S-wave (km/s) = -4.63413 2.82575 -2.59715
# Velocity P-wave (km/s) = 3.82801 6.32029 3.55615
#
# Compressibility (1/GPa) = 0.03846737
#
# Stress axis : x y z
#
# Youngs Moduli (GPa) = 24.28178 103.54783 108.45345
#
# Poissons Ratio (x) = 0.60506 0.12841
# Poissons Ratio (y) = 0.14188 0.40882
# Poissons Ratio (z) = 0.02875 0.39033
#
# Static dielectric constant tensor:
#      x y z
#    x 1.632610 0.000000 0.000000 
#    y 0.000000 1.646160 0.000000 
#    z 0.000000 0.000000 1.695140 
# 
# From -- ./inp_files/69837.got.cif
#   From: 2010.05.17/outbox.cif.g08.bks.cpg/sg65_35_cif.got.tgz:69837.got - 2010.06.03 17:01:31.
