data_PCOD9490910
_publ_section_title
;
Structure prediction by ZEFSAII (Michael W. Deem and Ramdas Pophale) SiO2 
 PCOD9490910
Probable space group: C M M M
;
_chemical_formula_sum "Si O2"
_cell_formula_units_Z 72
_cell_length_a 19.501458
_cell_length_b 24.537288
_cell_length_c 7.353507
_cell_angle_alpha 90.000000
_cell_angle_beta 90.000000
_cell_angle_gamma 90.000000
_cell_volume 3518.747896
_symmetry_space_group_name_H-M "C M M M"
_symmetry_group_IT_number 65
_symmetry_cell_setting 'orthorhombic'
loop_
_space_group_symop_operation_xyz
x,y,z
-x,-y,z
x,-y,-z
-x,y,-z
-x,-y,-z
x,y,-z
-x,y,z
x,-y,z
1/2+x,1/2+y,z
1/2-x,1/2-y,z
1/2+x,1/2-y,-z
1/2-x,1/2+y,-z
1/2-x,1/2-y,-z
1/2+x,1/2+y,-z
1/2-x,1/2+y,z
1/2+x,1/2-y,z
loop_
_atom_site_type_symbol
_atom_site_label
_atom_site_fract_x
_atom_site_fract_y
_atom_site_fract_z
Si Si1 0.832232 0.377316 0.717513
Si Si2 0.580602 0.937770 0.000000
Si Si3 0.809629 0.063301 0.278991
Si Si4 0.420631 0.650699 0.722038
Si Si5 0.328734 0.246667 0.279222
O O1 0.835612 0.381581 0.500000
O O2 0.887664 0.412084 0.820795
O O3 0.757275 0.400848 0.771894
O O4 0.847685 0.314875 0.767953
O O5 0.500000 0.931938 0.000000
O O6 0.600884 0.000000 0.000000
O O7 0.809972 0.061912 0.500000
O O8 0.876879 0.097436 0.222962
O O9 0.806755 0.000000 0.218566
O O10 0.421019 0.651279 0.500000
O O11 0.500000 0.650626 0.780148
O O12 0.378426 0.704675 0.781211
O O13 0.327619 0.250566 0.500000
O O14 0.250000 0.250000 0.218216
#
# Coordination Sequence:
#
# PCOD9490910 Si02
#       5
#    16   8  16  16  16
#     4  10  20  37  63  88 113 148 195 243 289 348
#     4  11  26  44  59  84 121 153 191 246 300 352
#     4   9  16  27  47  75 106 146 192 231 275 338
#     4   9  16  25  41  72 112 149 186 232 285 338
#     4   9  15  28  52  80 111 148 189 236 288 342
#
# _framework density 20.461822999999999
#
# number of rings (size 3 to 8) (size 9 to 14) (size 15 to 20)
#    0.000    2.556    2.222    0.667    0.000    3.111 
#    0.000    6.111    0.000    0.000    0.000    0.778 
#    0.000    2.667    0.000    0.222    0.000    0.000 
#
# Total GULP energy -200916.622569 kJ/mol
# GULP energy per Si atom -5581.017294 kJ/mol
# Density = 2.041525 g / cm^3
# Si number density = 20.461823 Si / 1000 Ang^3
#
#
#
# Elastic Constant Matrix: (Units=GPa)
#
#
# Indices 1 2 3 4 5 6 
#
# 1 217.1452 79.3628 17.4041 0.0000 0.0000 0.0000
# 2 79.3628 165.1953 19.2981 0.0000 0.0000 0.0000
# 3 17.4041 19.2981 63.1633 0.0000 0.0000 0.0000
# 4 0.0000 0.0000 0.0000 -4.6172 0.0000 0.0000
# 5 0.0000 0.0000 0.0000 0.0000 22.2444 0.0000
# 6 0.0000 0.0000 0.0000 0.0000 0.0000 33.9850
#
#
#
# Elastic Compliance Matrix: (Units=1/GPa)
#
#
# Indices 1 2 3 4 5 6 
#
# 1 0.005620 -0.002612 -0.000750 0.000000 0.000000 0.000000
# 2 -0.002612 0.007492 -0.001569 0.000000 0.000000 0.000000
# 3 -0.000750 -0.001569 0.016518 0.000000 0.000000 0.000000
# 4 0.000000 0.000000 0.000000 -0.216579 0.000000 0.000000
# 5 0.000000 0.000000 0.000000 0.000000 0.044955 0.000000
# 6 0.000000 0.000000 0.000000 0.000000 0.000000 0.029425
#
#
# Mechanical properties :
#
#
# Convention : Reuss Voigt Hill
#
# Bulk Modulus (GPa) = 50.59132 75.29265 62.94198
# Shear Modulus (GPa) = -52.02013 32.28501 -9.86756
#
# Velocity S-wave (km/s) = -5.04759 3.97648 -2.19838
# Velocity P-wave (km/s) = 3.03192 7.61313 4.93798
#
# Compressibility (1/GPa) = 0.01976624
#
# Stress axis : x y z
#
# Youngs Moduli (GPa) = 177.93189 133.47993 60.53941
#
# Poissons Ratio (x) = 0.34870 0.04543
# Poissons Ratio (y) = 0.46482 0.09499
# Poissons Ratio (z) = 0.13353 0.20945
#
# Static dielectric constant tensor:
#      x y z
#    x 1.687230 0.000000 0.000000 
#    y 0.000000 1.755790 0.000000 
#    z 0.000000 0.000000 1.750870 
# 
# From -- ./inp_files/9254.got.cif
#   From: 2010.05.17/outbox.cif.g08.bks.cpg/sg65_5_cif.got.tgz:9254.got - 2010.06.03 17:01:31.
