data_PCOD9490350
_publ_section_title
;
Structure prediction by ZEFSAII (Michael W. Deem and Ramdas Pophale) SiO2 
 PCOD9490350
Probable space group: C M M M
;
_chemical_formula_sum "Si O2"
_cell_formula_units_Z 72
_cell_length_a 7.993398
_cell_length_b 18.702320
_cell_length_c 25.438414
_cell_angle_alpha 90.000000
_cell_angle_beta 90.000000
_cell_angle_gamma 90.000000
_cell_volume 3802.917921
_symmetry_space_group_name_H-M "C M M M"
_symmetry_group_IT_number 65
_symmetry_cell_setting 'orthorhombic'
loop_
_space_group_symop_operation_xyz
x,y,z
-x,-y,z
x,-y,-z
-x,y,-z
-x,-y,-z
x,y,-z
-x,y,z
x,-y,z
1/2+x,1/2+y,z
1/2-x,1/2-y,z
1/2+x,1/2-y,-z
1/2-x,1/2+y,-z
1/2-x,1/2-y,-z
1/2+x,1/2+y,-z
1/2-x,1/2+y,z
1/2+x,1/2-y,z
loop_
_atom_site_type_symbol
_atom_site_label
_atom_site_fract_x
_atom_site_fract_y
_atom_site_fract_z
Si Si1 0.700520 0.419262 0.839704
Si Si2 0.500000 0.586872 0.439985
Si Si3 0.800171 0.331798 0.941009
Si Si4 0.798512 0.167139 0.262505
Si Si5 0.809681 0.585558 0.633319
O O1 0.500000 0.422683 0.834700
O O2 0.767100 0.500000 0.836618
O O3 0.738477 0.383265 0.895364
O O4 0.760547 0.370738 0.791275
O O5 0.500000 0.500000 0.441569
O O6 0.500000 0.612597 0.500000
O O7 0.333315 0.607716 0.408060
O O8 0.750000 0.250000 0.929480
O O9 0.000000 0.335422 0.941990
O O10 0.736959 0.349115 0.000000
O O11 0.750000 0.250000 0.262352
O O12 0.722010 0.126715 0.312459
O O13 0.000000 0.161137 0.265884
O O14 0.791483 0.500000 0.642243
O O15 0.000000 0.598379 0.614953
#
# Coordination Sequence:
#
# PCOD9490350 Si02
#       5
#    16   8  16  16  16
#     4  10  22  38  57  82 113 148 186 233 287 344
#     4   9  18  34  58  88 122 158 194 240 290 335
#     4  10  21  37  57  80 108 145 188 236 286 340
#     4  11  22  37  57  83 114 150 189 238 290 347
#     4  10  20  35  58  88 119 155 197 240 289 345
#
# _framework density 18.932831
#
# number of rings (size 3 to 8) (size 9 to 14) (size 15 to 20)
#    0.000    1.889    1.111    2.667    0.000    7.111 
#    0.000    4.444    0.000    0.667    0.000    0.000 
#    0.000    0.000    0.000    0.000    0.000    0.000 
#
# Total GULP energy -201043.937130 kJ/mol
# GULP energy per Si atom -5584.553809 kJ/mol
# Density = 1.888974 g / cm^3
# Si number density = 18.932831 Si / 1000 Ang^3
#
#
#
# Elastic Constant Matrix: (Units=GPa)
#
#
# Indices 1 2 3 4 5 6 
#
# 1 86.8493 41.1870 52.1400 0.0000 0.0000 0.0000
# 2 41.1870 90.9207 81.4974 0.0000 0.0000 0.0000
# 3 52.1400 81.4974 155.9118 0.0000 0.0000 0.0000
# 4 0.0000 0.0000 0.0000 1955.7774 0.0000 0.0000
# 5 0.0000 0.0000 0.0000 0.0000 7.0640 0.0000
# 6 0.0000 0.0000 0.0000 0.0000 0.0000 24.0851
#
#
#
# Elastic Compliance Matrix: (Units=1/GPa)
#
#
# Indices 1 2 3 4 5 6 
#
# 1 0.015292 -0.004409 -0.002809 0.000000 0.000000 0.000000
# 2 -0.004409 0.021966 -0.010008 0.000000 0.000000 0.000000
# 3 -0.002809 -0.010008 0.012584 0.000000 0.000000 0.000000
# 4 0.000000 0.000000 0.000000 0.000511 0.000000 0.000000
# 5 0.000000 0.000000 0.000000 0.000000 0.141563 0.000000
# 6 0.000000 0.000000 0.000000 0.000000 0.000000 0.041520
#
#
# Mechanical properties :
#
#
# Convention : Reuss Voigt Hill
#
# Bulk Modulus (GPa) = 64.97443 75.92559 70.45001
# Shear Modulus (GPa) = 18.31382 407.97578 213.14480
#
# Velocity S-wave (km/s) = 3.11353 14.69536 10.62186
# Velocity P-wave (km/s) = 6.87883 18.11430 13.70121
#
# Compressibility (1/GPa) = 0.01539067
#
# Stress axis : x y z
#
# Youngs Moduli (GPa) = 65.39536 45.52419 79.46325
#
# Poissons Ratio (x) = 0.20072 0.22322
# Poissons Ratio (y) = 0.28834 0.79524
# Poissons Ratio (z) = 0.18370 0.45559
#
# Static dielectric constant tensor:
#      x y z
#    x 1.713520 0.000000 0.000000 
#    y 0.000000 1.620740 0.000000 
#    z 0.000000 0.000000 1.636190 
# 
# From -- ./inp_files/67054.got.cif
#   From: 2010.05.17/outbox.cif.g08.bks.cpg/sg65_34_cif.got.tgz:67054.got - 2010.06.03 17:01:31.
