data_PCOD9490053
_publ_section_title
;
Structure prediction by ZEFSAII (Michael W. Deem and Ramdas Pophale) SiO2 
 PCOD9490053
Probable space group: C M M M
;
_chemical_formula_sum "Si O2"
_cell_formula_units_Z 88
_cell_length_a 15.553905
_cell_length_b 8.151203
_cell_length_c 34.265559
_cell_angle_alpha 90.000000
_cell_angle_beta 90.000000
_cell_angle_gamma 90.000000
_cell_volume 4344.291638
_symmetry_space_group_name_H-M "C M M M"
_symmetry_group_IT_number 65
_symmetry_cell_setting 'orthorhombic'
loop_
_space_group_symop_operation_xyz
x,y,z
-x,-y,z
x,-y,-z
-x,y,-z
-x,-y,-z
x,y,-z
-x,y,z
x,-y,z
1/2+x,1/2+y,z
1/2-x,1/2-y,z
1/2+x,1/2-y,-z
1/2-x,1/2+y,-z
1/2-x,1/2-y,-z
1/2+x,1/2+y,-z
1/2-x,1/2+y,z
1/2+x,1/2-y,z
loop_
_atom_site_type_symbol
_atom_site_label
_atom_site_fract_x
_atom_site_fract_y
_atom_site_fract_z
Si Si1 0.600995 0.824111 0.500000
Si Si2 0.650680 0.698364 0.127559
Si Si3 0.500000 0.299076 0.725891
Si Si4 0.349555 0.301362 0.331186
Si Si5 0.652090 0.306114 0.583876
Si Si6 0.649765 0.301786 0.958167
Si Si7 0.000000 0.799071 0.184522
O O1 0.500000 0.842445 0.500000
O O2 0.619744 0.744465 0.458481
O O3 0.647538 0.000000 0.500000
O O4 0.649644 0.500000 0.127355
O O5 0.750000 0.750000 0.133074
O O6 0.618605 0.754156 0.084393
O O7 0.584913 0.753989 0.160833
O O8 0.500000 0.500000 0.725902
O O9 0.584932 0.245910 0.702208
O O10 0.500000 0.244950 0.770684
O O11 0.350514 0.500000 0.331224
O O12 0.250000 0.250000 0.325848
O O13 0.382506 0.244080 0.374226
O O14 0.644178 0.500000 0.585273
O O15 0.750000 0.250000 0.584737
O O16 0.643885 0.500000 0.958306
O O17 0.750000 0.250000 0.958460
O O18 0.612697 0.244193 0.000000
O O19 0.000000 0.000000 0.184543
#
# Coordination Sequence:
#
# PCOD9490053 Si02
#       7
#     8  16   8  16  16  16   8
#     4  11  24  37  50  75 109 141 172 207 246 289
#     4   9  17  30  48  70  96 130 167 204 249 300
#     4   9  18  34  55  77 102 134 167 205 253 308
#     4   9  19  35  57  81 105 133 170 211 253 302
#     4  10  20  35  56  77 102 134 170 209 248 295
#     4   8  13  22  38  61  89 121 159 201 243 288
#     4   9  18  32  50  73 101 131 164 203 253 310
#
# _framework density 20.256467000000001
#
# number of rings (size 3 to 8) (size 9 to 14) (size 15 to 20)
#    0.000    2.818    0.000    1.091    1.273    2.182 
#    0.000    1.364    0.000    3.818    0.000    0.000 
#    0.000   14.545    0.000    0.000    0.000    0.000 
#
# Total GULP energy -244980.200082 kJ/mol
# GULP energy per Si atom -5567.731820 kJ/mol
# Density = 2.021036 g / cm^3
# Si number density = 20.256467 Si / 1000 Ang^3
#
#
#
# Elastic Constant Matrix: (Units=GPa)
#
#
# Indices 1 2 3 4 5 6 
#
# 1 90.4847 4.5714 100.6657 0.0000 0.0000 0.0000
# 2 4.5714 10.7570 25.3828 0.0000 0.0000 0.0000
# 3 100.6657 25.3828 263.0906 0.0000 0.0000 0.0000
# 4 0.0000 0.0000 0.0000 14.1003 0.0000 0.0000
# 5 0.0000 0.0000 0.0000 0.0000 63.9343 0.0000
# 6 0.0000 0.0000 0.0000 0.0000 0.0000 6.6758
#
#
#
# Elastic Compliance Matrix: (Units=1/GPa)
#
#
# Indices 1 2 3 4 5 6 
#
# 1 0.020498 0.012683 -0.009067 0.000000 0.000000 0.000000
# 2 0.012683 0.128213 -0.017223 0.000000 0.000000 0.000000
# 3 -0.009067 -0.017223 0.008932 0.000000 0.000000 0.000000
# 4 0.000000 0.000000 0.000000 0.070920 0.000000 0.000000
# 5 0.000000 0.000000 0.000000 0.000000 0.015641 0.000000
# 6 0.000000 0.000000 0.000000 0.000000 0.000000 0.149794
#
#
# Mechanical properties :
#
#
# Convention : Reuss Voigt Hill
#
# Bulk Modulus (GPa) = 7.66695 69.50801 38.58748
# Shear Modulus (GPa) = 10.75993 32.52291 21.64142
#
# Velocity S-wave (km/s) = 2.30725 4.01129 3.27214
# Velocity P-wave (km/s) = 3.30015 7.47278 5.77639
#
# Compressibility (1/GPa) = 0.13043002
#
# Stress axis : x y z
#
# Youngs Moduli (GPa) = 48.78624 7.79952 111.96010
#
# Poissons Ratio (x) = -0.09892 1.01510
# Poissons Ratio (y) = -0.61877 1.92827
# Poissons Ratio (z) = 0.44233 0.13433
#
# Static dielectric constant tensor:
#      x y z
#    x 1.667330 0.000000 0.000000 
#    y 0.000000 1.551420 0.000000 
#    z 0.000000 0.000000 1.830020 
# 
# From -- ./inp_files/78026.got.cif
#   From: 2010.05.17/outbox.cif.g08.bks.cpg/sg65_40_cif.got.tgz:78026.got - 2010.06.03 17:01:31.
