data_PCOD9490450
_publ_section_title
;
Structure prediction by ZEFSAII (Michael W. Deem and Ramdas Pophale) SiO2 
 PCOD9490450
Probable space group: C M M M
;
_chemical_formula_sum "Si O2"
_cell_formula_units_Z 88
_cell_length_a 8.329827
_cell_length_b 31.886539
_cell_length_c 17.819115
_cell_angle_alpha 90.000000
_cell_angle_beta 90.000000
_cell_angle_gamma 90.000000
_cell_volume 4732.923615
_symmetry_space_group_name_H-M "C M M M"
_symmetry_group_IT_number 65
_symmetry_cell_setting 'orthorhombic'
loop_
_space_group_symop_operation_xyz
x,y,z
-x,-y,z
x,-y,-z
-x,y,-z
-x,-y,-z
x,y,-z
-x,y,z
x,-y,z
1/2+x,1/2+y,z
1/2-x,1/2-y,z
1/2+x,1/2-y,-z
1/2-x,1/2+y,-z
1/2-x,1/2-y,-z
1/2+x,1/2+y,-z
1/2-x,1/2+y,z
1/2+x,1/2-y,z
loop_
_atom_site_type_symbol
_atom_site_label
_atom_site_fract_x
_atom_site_fract_y
_atom_site_fract_z
Si Si1 0.691675 0.636614 0.621217
Si Si2 0.690057 0.797891 0.500000
Si Si3 0.190326 0.545800 0.385927
Si Si4 0.306046 0.455253 0.785739
Si Si5 0.805876 0.797130 0.915080
Si Si6 0.695517 0.635843 0.205138
O O1 0.500000 0.637532 0.621623
O O2 0.752759 0.674871 0.571316
O O3 0.741452 0.590774 0.589570
O O4 0.747944 0.640501 0.708074
O O5 0.500000 0.796799 0.500000
O O6 0.750000 0.750000 0.500000
O O7 0.250242 0.500000 0.414280
O O8 0.230242 0.545040 0.297137
O O9 0.000000 0.546727 0.398377
O O10 0.500000 0.454425 0.776373
O O11 0.263748 0.500000 0.821973
O O12 0.260051 0.411082 0.821730
O O13 0.750000 0.750000 0.899674
O O14 0.746001 0.828980 0.851804
O O15 0.000000 0.797892 0.914301
O O16 0.754005 0.808252 0.000000
O O17 0.500000 0.638049 0.206119
#
# Coordination Sequence:
#
# PCOD9490450 Si02
#       6
#    16   8  16  16  16  16
#     4  10  20  36  56  77 102 132 170 209 248 297
#     4  12  26  44  61  76  99 130 166 207 255 303
#     4   9  16  27  46  74 106 135 164 202 248 294
#     4   8  13  23  41  64  91 125 163 200 239 287
#     4   9  17  30  47  67  94 126 158 195 242 291
#     4   8  15  28  48  73  97 124 160 200 239 284
#
# _framework density 18.593159
#
# number of rings (size 3 to 8) (size 9 to 14) (size 15 to 20)
#    0.000    2.909    0.000    3.000    0.000    1.818 
#    0.000    6.818    0.000    3.273    0.000    3.818 
#    0.000    0.000    0.000   50.364    0.000   46.909 
#
# Total GULP energy -245011.609543 kJ/mol
# GULP energy per Si atom -5568.445671 kJ/mol
# Density = 1.855084 g / cm^3
# Si number density = 18.593159 Si / 1000 Ang^3
#
#
#
# Elastic Constant Matrix: (Units=GPa)
#
#
# Indices 1 2 3 4 5 6 
#
# 1 31.7996 33.9676 13.9343 0.0000 0.0000 0.0000
# 2 33.9676 209.5090 96.6258 0.0000 0.0000 0.0000
# 3 13.9343 96.6258 91.3868 0.0000 0.0000 0.0000
# 4 0.0000 0.0000 0.0000 -168.7232 0.0000 0.0000
# 5 0.0000 0.0000 0.0000 0.0000 9.5395 0.0000
# 6 0.0000 0.0000 0.0000 0.0000 0.0000 29.9516
#
#
#
# Elastic Compliance Matrix: (Units=1/GPa)
#
#
# Indices 1 2 3 4 5 6 
#
# 1 0.038127 -0.006832 0.001410 0.000000 0.000000 0.000000
# 2 -0.006832 0.010540 -0.010103 0.000000 0.000000 0.000000
# 3 0.001410 -0.010103 0.021409 0.000000 0.000000 0.000000
# 4 0.000000 0.000000 0.000000 -0.005927 0.000000 0.000000
# 5 0.000000 0.000000 0.000000 0.000000 0.104827 0.000000
# 6 0.000000 0.000000 0.000000 0.000000 0.000000 0.033387
#
#
# Mechanical properties :
#
#
# Convention : Reuss Voigt Hill
#
# Bulk Modulus (GPa) = 25.62313 69.08342 47.35327
# Shear Modulus (GPa) = 20.29049 -13.30191 3.49429
#
# Velocity S-wave (km/s) = 3.30705 -2.67763 1.37238
# Velocity P-wave (km/s) = 5.32850 5.26083 5.29477
#
# Compressibility (1/GPa) = 0.03902725
#
# Stress axis : x y z
#
# Youngs Moduli (GPa) = 26.22837 94.87659 46.70887
#
# Poissons Ratio (x) = 0.64817 -0.06586
# Poissons Ratio (y) = 0.17919 0.47188
# Poissons Ratio (z) = -0.03698 0.95850
#
# Static dielectric constant tensor:
#      x y z
#    x 1.644850 0.000000 0.000000 
#    y 0.000000 1.703340 0.000000 
#    z 0.000000 0.000000 1.649790 
# 
# From -- ./inp_files/50375.got.cif
#   From: 2010.05.17/outbox.cif.g08.bks.cpg/sg65_26_cif.got.tgz:50375.got - 2010.06.03 17:01:31.
