data_PCOD9490247
_publ_section_title
;
Structure prediction by ZEFSAII (Michael W. Deem and Ramdas Pophale) SiO2 
 PCOD9490247
Probable space group: C M M M
;
_chemical_formula_sum "Si O2"
_cell_formula_units_Z 80
_cell_length_a 17.691760
_cell_length_b 9.090065
_cell_length_c 27.144313
_cell_angle_alpha 90.000000
_cell_angle_beta 90.000000
_cell_angle_gamma 90.000000
_cell_volume 4365.328014
_symmetry_space_group_name_H-M "C M M M"
_symmetry_group_IT_number 65
_symmetry_cell_setting 'orthorhombic'
loop_
_space_group_symop_operation_xyz
x,y,z
-x,-y,z
x,-y,-z
-x,y,-z
-x,-y,-z
x,y,-z
-x,y,z
x,-y,z
1/2+x,1/2+y,z
1/2-x,1/2-y,z
1/2+x,1/2-y,-z
1/2-x,1/2+y,-z
1/2-x,1/2-y,-z
1/2+x,1/2+y,-z
1/2-x,1/2+y,z
1/2+x,1/2-y,z
loop_
_atom_site_type_symbol
_atom_site_label
_atom_site_fract_x
_atom_site_fract_y
_atom_site_fract_z
Si Si1 0.168457 0.177034 0.691808
Si Si2 0.588680 0.820664 0.000000
Si Si3 0.092252 0.170085 0.500000
Si Si4 0.911905 0.823739 0.793586
Si Si5 0.408824 0.830288 0.399795
Si Si6 0.092149 0.672430 0.893227
O O1 0.250000 0.250000 0.687945
O O2 0.132290 0.219280 0.744461
O O3 0.119289 0.239381 0.646963
O O4 0.172186 0.000000 0.689287
O O5 0.620274 0.772942 0.946884
O O6 0.500000 0.779004 0.000000
O O7 0.590589 0.000000 0.000000
O O8 0.116702 0.253989 0.549401
O O9 0.000000 0.170956 0.500000
O O10 0.116267 0.000000 0.500000
O O11 0.882003 0.755909 0.844489
O O12 0.000000 0.779748 0.788066
O O13 0.909568 0.000000 0.797561
O O14 0.500000 0.830288 0.399995
O O15 0.383305 0.000000 0.397266
O O16 0.110096 0.500000 0.888644
O O17 0.000000 0.684025 0.894597
#
# Coordination Sequence:
#
# PCOD9490247 Si02
#       6
#    16   8   8  16  16  16
#     4  11  23  38  54  73 101 136 173 213 259 307
#     4   7  10  18  33  57  90 123 152 187 235 287
#     4   9  17  31  54  83 112 141 172 205 245 293
#     4   9  18  32  49  70  97 128 162 202 249 300
#     4  10  20  35  57  84 111 138 171 210 249 294
#     4   8  13  22  39  63  91 123 158 195 236 287
#
# _framework density 18.326226999999999
#
# number of rings (size 3 to 8) (size 9 to 14) (size 15 to 20)
#    0.000    2.800    0.000    3.300    0.000    4.800 
#    0.000    3.000    0.000    3.000    0.000    0.700 
#    0.000    0.000    0.000    0.000    0.000    0.000 
#
# Total GULP energy -222918.952110 kJ/mol
# GULP energy per Si atom -5572.973803 kJ/mol
# Density = 1.828452 g / cm^3
# Si number density = 18.326227 Si / 1000 Ang^3
#
#
#
# Elastic Constant Matrix: (Units=GPa)
#
#
# Indices 1 2 3 4 5 6 
#
# 1 12.5021 16.2138 23.3413 0.0000 0.0000 0.0000
# 2 16.2138 67.5380 63.1961 0.0000 0.0000 0.0000
# 3 23.3413 63.1961 194.7858 0.0000 0.0000 0.0000
# 4 0.0000 0.0000 0.0000 26.8119 0.0000 0.0000
# 5 0.0000 0.0000 0.0000 0.0000 -9.5166 0.0000
# 6 0.0000 0.0000 0.0000 0.0000 0.0000 15.7776
#
#
#
# Elastic Compliance Matrix: (Units=1/GPa)
#
#
# Indices 1 2 3 4 5 6 
#
# 1 0.123188 -0.022631 -0.007419 0.000000 0.000000 0.000000
# 2 -0.022631 0.025419 -0.005535 0.000000 0.000000 0.000000
# 3 -0.007419 -0.005535 0.007819 0.000000 0.000000 0.000000
# 4 0.000000 0.000000 0.000000 0.037297 0.000000 0.000000
# 5 0.000000 0.000000 0.000000 0.000000 -0.105079 0.000000
# 6 0.000000 0.000000 0.000000 0.000000 0.000000 0.063381
#
#
# Mechanical properties :
#
#
# Convention : Reuss Voigt Hill
#
# Bulk Modulus (GPa) = 11.72960 53.36980 32.54970
# Shear Modulus (GPa) = 19.87178 18.08621 18.97900
#
# Velocity S-wave (km/s) = 3.29650 3.14491 3.22160
# Velocity P-wave (km/s) = 4.57204 6.50942 5.62477
#
# Compressibility (1/GPa) = 0.08525443
#
# Stress axis : x y z
#
# Youngs Moduli (GPa) = 8.11767 39.34120 127.89992
#
# Poissons Ratio (x) = 0.89035 0.94891
# Poissons Ratio (y) = 0.18371 0.70791
# Poissons Ratio (z) = 0.06023 0.21775
#
# Static dielectric constant tensor:
#      x y z
#    x 1.621350 0.000000 0.000000 
#    y 0.000000 1.614990 0.000000 
#    z 0.000000 0.000000 1.644930 
# 
# From -- ./inp_files/75098.got.cif
#   From: 2010.05.17/outbox.cif.g08.bks.cpg/sg65_38_cif.got.tgz:75098.got - 2010.06.03 17:01:31.
