data_PCOD9490459
_publ_section_title
;
Structure prediction by ZEFSAII (Michael W. Deem and Ramdas Pophale) SiO2 
 PCOD9490459
Probable space group: C M M M
;
_chemical_formula_sum "Si O2"
_cell_formula_units_Z 56
_cell_length_a 11.737397
_cell_length_b 34.463591
_cell_length_c 7.764023
_cell_angle_alpha 90.000000
_cell_angle_beta 90.000000
_cell_angle_gamma 90.000000
_cell_volume 3140.647068
_symmetry_space_group_name_H-M "C M M M"
_symmetry_group_IT_number 65
_symmetry_cell_setting 'orthorhombic'
loop_
_space_group_symop_operation_xyz
x,y,z
-x,-y,z
x,-y,-z
-x,y,-z
-x,-y,-z
x,y,-z
-x,y,z
x,-y,z
1/2+x,1/2+y,z
1/2-x,1/2-y,z
1/2+x,1/2-y,-z
1/2-x,1/2+y,-z
1/2-x,1/2-y,-z
1/2+x,1/2+y,-z
1/2-x,1/2+y,z
1/2+x,1/2-y,z
loop_
_atom_site_type_symbol
_atom_site_label
_atom_site_fract_x
_atom_site_fract_y
_atom_site_fract_z
Si Si1 0.369643 0.661693 0.199856
Si Si2 0.762842 0.415907 0.795695
Si Si3 0.866693 0.224487 0.500000
Si Si4 0.624076 0.454150 0.500000
Si Si5 0.500000 0.045021 0.207887
O O1 0.500000 0.645975 0.217513
O O2 0.276552 0.628361 0.235399
O O3 0.359739 0.696861 0.332235
O O4 0.356861 0.673760 0.000000
O O5 0.684670 0.441134 0.673216
O O6 0.889331 0.429818 0.747037
O O7 0.746756 0.423040 0.000000
O O8 0.750000 0.250000 0.500000
O O9 0.000000 0.240930 0.500000
O O10 0.618558 0.500000 0.500000
O O11 0.500000 0.436037 0.500000
O O12 0.500000 0.000000 0.272631
O O13 0.500000 0.041962 0.000000
#
# Coordination Sequence:
#
# PCOD9490459 Si02
#       5
#    16  16   8   8   8
#     4   9  18  34  58  83 108 142 184 227 275 329
#     4  10  20  36  56  78 106 143 187 232 278 329
#     4  10  21  39  59  84 117 149 179 221 277 339
#     4  11  23  34  48  75 105 136 181 232 280 330
#     4   9  18  33  53  77 110 151 189 230 285 339
#
# _framework density 17.830721
#
# number of rings (size 3 to 8) (size 9 to 14) (size 15 to 20)
#    0.000    2.286    0.000    2.571    0.000    5.714 
#    2.571    2.857    0.000    0.000    0.000    0.000 
#    0.000    0.000    0.000    0.000    0.000    0.000 
#
# Total GULP energy -155929.629737 kJ/mol
# GULP energy per Si atom -5568.915348 kJ/mol
# Density = 1.779014 g / cm^3
# Si number density = 17.830721 Si / 1000 Ang^3
#
#
#
# Elastic Constant Matrix: (Units=GPa)
#
#
# Indices 1 2 3 4 5 6 
#
# 1 174.7598 66.7404 50.6553 0.0000 0.0000 0.0000
# 2 66.7404 74.7883 43.3063 0.0000 0.0000 0.0000
# 3 50.6553 43.3063 55.3337 0.0000 0.0000 0.0000
# 4 0.0000 0.0000 0.0000 12.3813 0.0000 0.0000
# 5 0.0000 0.0000 0.0000 0.0000 21.6992 0.0000
# 6 0.0000 0.0000 0.0000 0.0000 0.0000 36.8581
#
#
#
# Elastic Compliance Matrix: (Units=1/GPa)
#
#
# Indices 1 2 3 4 5 6 
#
# 1 0.009055 -0.006000 -0.003594 0.000000 0.000000 0.000000
# 2 -0.006000 0.028428 -0.016756 0.000000 0.000000 0.000000
# 3 -0.003594 -0.016756 0.034477 0.000000 0.000000 0.000000
# 4 0.000000 0.000000 0.000000 0.080767 0.000000 0.000000
# 5 0.000000 0.000000 0.000000 0.000000 0.046085 0.000000
# 6 0.000000 0.000000 0.000000 0.000000 0.000000 0.027131
#
#
# Mechanical properties :
#
#
# Convention : Reuss Voigt Hill
#
# Bulk Modulus (GPa) = 51.92245 69.58730 60.75488
# Shear Modulus (GPa) = 17.54004 23.79971 20.66987
#
# Velocity S-wave (km/s) = 3.13980 3.65740 3.40844
# Velocity P-wave (km/s) = 6.50594 7.54631 7.04536
#
# Compressibility (1/GPa) = 0.01925949
#
# Stress axis : x y z
#
# Youngs Moduli (GPa) = 110.43489 35.17670 29.00517
#
# Poissons Ratio (x) = 0.21105 0.10424
# Poissons Ratio (y) = 0.66256 0.48602
# Poissons Ratio (z) = 0.39690 0.58944
#
# Static dielectric constant tensor:
#      x y z
#    x 1.665350 0.000000 0.000000 
#    y 0.000000 1.590810 0.000000 
#    z 0.000000 0.000000 1.492940 
# 
# From -- ./inp_files/4468.got.cif
#   From: 2010.05.17/outbox.cif.g08.bks.cpg/sg65_3_cif.got.tgz:4468.got - 2010.06.03 17:01:31.
