data_PCOD9490648
_publ_section_title
;
Structure prediction by ZEFSAII (Michael W. Deem and Ramdas Pophale) SiO2 
 PCOD9490648
Probable space group: C M M M
;
_chemical_formula_sum "Si O2"
_cell_formula_units_Z 64
_cell_length_a 17.637789
_cell_length_b 8.995290
_cell_length_c 21.512193
_cell_angle_alpha 90.000000
_cell_angle_beta 90.000000
_cell_angle_gamma 90.000000
_cell_volume 3413.060586
_symmetry_space_group_name_H-M "C M M M"
_symmetry_group_IT_number 65
_symmetry_cell_setting 'orthorhombic'
loop_
_space_group_symop_operation_xyz
x,y,z
-x,-y,z
x,-y,-z
-x,y,-z
-x,-y,-z
x,y,-z
-x,y,z
x,-y,z
1/2+x,1/2+y,z
1/2-x,1/2-y,z
1/2+x,1/2-y,-z
1/2-x,1/2+y,-z
1/2-x,1/2-y,-z
1/2+x,1/2+y,-z
1/2-x,1/2+y,z
1/2+x,1/2-y,z
loop_
_atom_site_type_symbol
_atom_site_label
_atom_site_fract_x
_atom_site_fract_y
_atom_site_fract_z
Si Si1 0.332523 0.823092 0.746386
Si Si2 0.907567 0.328391 0.500000
Si Si3 0.087942 0.819198 0.000000
Si Si4 0.908371 0.172666 0.627942
Si Si5 0.908211 0.174666 0.135864
O O1 0.250000 0.750000 0.746953
O O2 0.376069 0.761849 0.686076
O O3 0.375416 0.769799 0.808379
O O4 0.327520 0.000000 0.744230
O O5 0.883282 0.500000 0.500000
O O6 0.883540 0.244764 0.562675
O O7 0.000000 0.327194 0.500000
O O8 0.120066 0.775680 0.932800
O O9 0.000000 0.770685 0.000000
O O10 0.087224 0.000000 0.000000
O O11 0.000000 0.178044 0.629997
O O12 0.885496 0.000000 0.631364
O O13 0.000000 0.182677 0.135664
O O14 0.888617 0.000000 0.144791
#
# Coordination Sequence:
#
# PCOD9490648 Si02
#       5
#    16   8   8  16  16
#     4  12  25  39  54  75 107 145 185 227 272 320
#     4   9  17  31  54  85 116 143 176 219 263 309
#     4   7  12  26  52  83 110 137 171 213 262 317
#     4  10  20  36  59  85 112 143 179 219 266 320
#     4   9  17  33  58  85 111 140 176 218 266 321
#
# _framework density 18.751498000000002
#
# number of rings (size 3 to 8) (size 9 to 14) (size 15 to 20)
#    0.000    2.250    0.000    5.625    0.000    6.500 
#    0.000    1.875    0.000    2.250    0.000    0.000 
#    0.000    0.000    0.000    0.000    0.000    0.000 
#
# Total GULP energy -178579.263199 kJ/mol
# GULP energy per Si atom -5580.601975 kJ/mol
# Density = 1.870882 g / cm^3
# Si number density = 18.751498 Si / 1000 Ang^3
#
#
#
# Elastic Constant Matrix: (Units=GPa)
#
#
# Indices 1 2 3 4 5 6 
#
# 1 20.3138 36.0805 36.1362 0.0000 0.0000 0.0000
# 2 36.0805 164.0575 105.0242 0.0000 0.0000 0.0000
# 3 36.1362 105.0242 215.2274 0.0000 0.0000 0.0000
# 4 0.0000 0.0000 0.0000 12.0244 0.0000 0.0000
# 5 0.0000 0.0000 0.0000 0.0000 -17.8543 0.0000
# 6 0.0000 0.0000 0.0000 0.0000 0.0000 21.6142
#
#
#
# Elastic Compliance Matrix: (Units=1/GPa)
#
#
# Indices 1 2 3 4 5 6 
#
# 1 0.089047 -0.014561 -0.007845 0.000000 0.000000 0.000000
# 2 -0.014561 0.011246 -0.003043 0.000000 0.000000 0.000000
# 3 -0.007845 -0.003043 0.007448 0.000000 0.000000 0.000000
# 4 0.000000 0.000000 0.000000 0.083164 0.000000 0.000000
# 5 0.000000 0.000000 0.000000 0.000000 -0.056009 0.000000
# 6 0.000000 0.000000 0.000000 0.000000 0.000000 0.046266
#
#
# Mechanical properties :
#
#
# Convention : Reuss Voigt Hill
#
# Bulk Modulus (GPa) = 17.59261 83.78672 50.68967
# Shear Modulus (GPa) = 19.91963 17.98069 18.95016
#
# Velocity S-wave (km/s) = 3.26282 3.09996 3.18243
# Velocity P-wave (km/s) = 4.85768 7.58898 6.37141
#
# Compressibility (1/GPa) = 0.05684204
#
# Stress axis : x y z
#
# Youngs Moduli (GPa) = 11.23003 88.92274 134.26064
#
# Poissons Ratio (x) = 1.29484 1.05331
# Poissons Ratio (y) = 0.16353 0.40852
# Poissons Ratio (z) = 0.08810 0.27057
#
# Static dielectric constant tensor:
#      x y z
#    x 1.642580 0.000000 0.000000 
#    y 0.000000 1.622210 0.000000 
#    z 0.000000 0.000000 1.656350 
# 
# From -- ./inp_files/63282.got.cif
#   From: 2010.05.17/outbox.cif.g08.bks.cpg/sg65_32_cif.got.tgz:63282.got - 2010.06.03 17:01:31.
