data_PCOD9490242
_publ_section_title
;
Structure prediction by ZEFSAII (Michael W. Deem and Ramdas Pophale) SiO2 
 PCOD9490242
Probable space group: C M M M
;
_chemical_formula_sum "Si O2"
_cell_formula_units_Z 104
_cell_length_a 8.907313
_cell_length_b 27.305064
_cell_length_c 21.336048
_cell_angle_alpha 90.000000
_cell_angle_beta 90.000000
_cell_angle_gamma 90.000000
_cell_volume 5189.241613
_symmetry_space_group_name_H-M "C M M M"
_symmetry_group_IT_number 65
_symmetry_cell_setting 'orthorhombic'
loop_
_space_group_symop_operation_xyz
x,y,z
-x,-y,z
x,-y,-z
-x,y,-z
-x,-y,-z
x,y,-z
-x,y,z
x,-y,z
1/2+x,1/2+y,z
1/2-x,1/2-y,z
1/2+x,1/2-y,-z
1/2-x,1/2+y,-z
1/2-x,1/2-y,-z
1/2+x,1/2+y,-z
1/2-x,1/2+y,z
1/2+x,1/2-y,z
loop_
_atom_site_type_symbol
_atom_site_label
_atom_site_fract_x
_atom_site_fract_y
_atom_site_fract_z
Si Si1 0.169812 0.442015 0.500000
Si Si2 0.178686 0.699861 0.195160
Si Si3 0.680386 0.554117 0.122296
Si Si4 0.822471 0.697372 0.574696
Si Si5 0.319202 0.659355 0.929857
Si Si6 0.179236 0.406810 0.751962
Si Si7 0.821407 0.899047 0.377287
O O1 0.158769 0.500000 0.500000
O O2 0.256374 0.425917 0.438040
O O3 0.000000 0.420801 0.500000
O O4 0.250000 0.750000 0.219860
O O5 0.241389 0.689390 0.125376
O O6 0.215319 0.650472 0.233497
O O7 0.000000 0.704851 0.193343
O O8 0.500000 0.555180 0.129958
O O9 0.721000 0.500000 0.097747
O O10 0.718692 0.601718 0.080871
O O11 0.756545 0.563092 0.189516
O O12 0.802506 0.687004 0.500000
O O13 0.750000 0.750000 0.586636
O O14 0.739361 0.656117 0.614128
O O15 0.000000 0.697493 0.587940
O O16 0.500000 0.664126 0.923896
O O17 0.275518 0.674208 0.000000
O O18 0.254515 0.420540 0.686596
O O19 0.000000 0.411898 0.748587
O O20 0.000000 0.900248 0.376492
#
# Coordination Sequence:
#
# PCOD9490242 Si02
#       7
#     8  16  16  16  16  16  16
#     4  11  25  45  66  87 114 149 189 235 287 343
#     4  10  21  37  58  82 111 150 192 236 281 328
#     4   9  18  34  56  82 112 145 185 234 285 337
#     4  10  20  35  57  83 115 149 183 222 269 327
#     4   9  18  33  54  82 116 152 189 230 278 333
#     4  10  22  39  58  81 111 147 190 235 282 338
#     4  12  24  39  62  88 117 150 187 233 288 344
#
# _framework density 20.041464000000001
#
# number of rings (size 3 to 8) (size 9 to 14) (size 15 to 20)
#    0.000    1.923    0.769    3.000    0.000    5.538 
#    0.000    3.077    0.000    0.000    0.000    4.308 
#    0.000    0.000    0.000    0.000    0.000    0.000 
#
# Total GULP energy -290600.687730 kJ/mol
# GULP energy per Si atom -5588.474764 kJ/mol
# Density = 1.999585 g / cm^3
# Si number density = 20.041464 Si / 1000 Ang^3
#
#
#
# Elastic Constant Matrix: (Units=GPa)
#
#
# Indices 1 2 3 4 5 6 
#
# 1 47.6459 3.8226 16.3479 0.0000 0.0000 0.0000
# 2 3.8226 49.4810 -18.7047 0.0000 0.0000 0.0000
# 3 16.3479 -18.7047 74.2660 0.0000 0.0000 0.0000
# 4 0.0000 0.0000 0.0000 4.7461 0.0000 0.0000
# 5 0.0000 0.0000 0.0000 0.0000 26.1884 0.0000
# 6 0.0000 0.0000 0.0000 0.0000 0.0000 25.5769
#
#
#
# Elastic Compliance Matrix: (Units=1/GPa)
#
#
# Indices 1 2 3 4 5 6 
#
# 1 0.023453 -0.004159 -0.006210 0.000000 0.000000 0.000000
# 2 -0.004159 0.023074 0.006727 0.000000 0.000000 0.000000
# 3 -0.006210 0.006727 0.016526 0.000000 0.000000 0.000000
# 4 0.000000 0.000000 0.000000 0.210698 0.000000 0.000000
# 5 0.000000 0.000000 0.000000 0.000000 0.038185 0.000000
# 6 0.000000 0.000000 0.000000 0.000000 0.000000 0.039098
#
#
# Mechanical properties :
#
#
# Convention : Reuss Voigt Hill
#
# Bulk Modulus (GPa) = 17.93137 19.36939 18.65038
# Shear Modulus (GPa) = 13.26583 22.63076 17.94829
#
# Velocity S-wave (km/s) = 2.57557 3.36400 2.99583
# Velocity P-wave (km/s) = 4.22034 4.97738 4.61441
#
# Compressibility (1/GPa) = 0.05576820
#
# Stress axis : x y z
#
# Youngs Moduli (GPa) = 42.63917 43.33880 60.50933
#
# Poissons Ratio (x) = 0.18026 0.37577
# Poissons Ratio (y) = 0.17735 -0.40705
# Poissons Ratio (z) = 0.26479 -0.29154
#
# Static dielectric constant tensor:
#      x y z
#    x 1.664060 0.000000 0.000000 
#    y 0.000000 1.727570 0.000000 
#    z 0.000000 0.000000 1.694490 
# 
# From -- ./inp_files/60445.got.cif
#   From: 2010.05.17/outbox.cif.g08.bks.cpg/sg65_31_cif.got.tgz:60445.got - 2010.06.03 17:01:31.
