data_PCOD9490979
_publ_section_title
;
Structure prediction by ZEFSAII (Michael W. Deem and Ramdas Pophale) SiO2 
 PCOD9490979
Probable space group: C M M M
;
_chemical_formula_sum "Si O2"
_cell_formula_units_Z 104
_cell_length_a 9.457088
_cell_length_b 27.858373
_cell_length_c 21.799181
_cell_angle_alpha 90.000000
_cell_angle_beta 90.000000
_cell_angle_gamma 90.000000
_cell_volume 5743.192280
_symmetry_space_group_name_H-M "C M M M"
_symmetry_group_IT_number 65
_symmetry_cell_setting 'orthorhombic'
loop_
_space_group_symop_operation_xyz
x,y,z
-x,-y,z
x,-y,-z
-x,y,-z
-x,-y,-z
x,y,-z
-x,y,z
x,-y,z
1/2+x,1/2+y,z
1/2-x,1/2-y,z
1/2+x,1/2-y,-z
1/2-x,1/2+y,-z
1/2-x,1/2-y,-z
1/2+x,1/2+y,-z
1/2-x,1/2+y,z
1/2+x,1/2-y,z
loop_
_atom_site_type_symbol
_atom_site_label
_atom_site_fract_x
_atom_site_fract_y
_atom_site_fract_z
Si Si1 0.331941 0.942237 0.500000
Si Si2 0.000000 0.445191 0.927723
Si Si3 0.662743 0.942651 0.277866
Si Si4 0.332500 0.799356 0.200848
Si Si5 0.500000 0.557938 0.926944
Si Si6 0.828429 0.893855 0.613826
Si Si7 0.831466 0.299924 0.347816
Si Si8 0.759193 0.600577 0.853522
O O1 0.500000 0.928704 0.500000
O O2 0.247533 0.921846 0.441600
O O3 0.326993 0.000000 0.500000
O O4 0.873259 0.414466 0.902881
O O5 0.000000 0.500000 0.902659
O O6 0.000000 0.448868 0.000000
O O7 0.500000 0.926313 0.291388
O O8 0.775006 0.920407 0.324647
O O9 0.702480 0.926597 0.209583
O O10 0.664571 0.000000 0.282751
O O11 0.500000 0.795841 0.186808
O O12 0.250000 0.750000 0.188679
O O13 0.321890 0.809047 0.274201
O O14 0.264753 0.843594 0.164237
O O15 0.500000 0.500000 0.924050
O O16 0.625208 0.580073 0.887532
O O17 0.500000 0.570241 0.000000
O O18 0.755639 0.841526 0.618211
O O19 0.000000 0.892255 0.609151
O O20 0.750000 0.250000 0.359411
O O21 0.000000 0.298472 0.363025
#
# Coordination Sequence:
#
# PCOD9490979 Si02
#       8
#     8   8  16  16   8  16  16  16
#     4  11  25  47  70  91 124 177 225 261 313 377
#     4  11  22  38  63  91 121 164 215 262 312 383
#     4  11  22  37  59  90 126 163 206 264 324 378
#     4  10  21  37  62  93 125 161 208 264 324 384
#     4  11  26  44  61  89 131 174 211 256 322 395
#     4  12  25  40  63  94 131 170 213 262 315 380
#     4  10  20  38  62  92 130 167 210 263 321 380
#     4  12  22  39  63  91 125 164 213 265 322 384
#
# _framework density 18.108395999999999
#
# number of rings (size 3 to 8) (size 9 to 14) (size 15 to 20)
#    0.000    1.000    3.077    4.385    2.154    4.615 
#    0.000    0.385    0.000    2.769    0.000    0.000 
#    0.000    0.000    0.000    0.000    0.000    0.000 
#
# Total GULP energy -290199.937842 kJ/mol
# GULP energy per Si atom -5580.768035 kJ/mol
# Density = 1.806718 g / cm^3
# Si number density = 18.108396 Si / 1000 Ang^3
#
#
#
# Elastic Constant Matrix: (Units=GPa)
#
#
# Indices 1 2 3 4 5 6 
#
# 1 188.8548 67.8843 52.3586 0.0000 0.0000 0.0000
# 2 67.8843 130.0360 40.7803 0.0000 0.0000 0.0000
# 3 52.3586 40.7803 75.3959 0.0000 0.0000 0.0000
# 4 0.0000 0.0000 0.0000 27.3326 0.0000 0.0000
# 5 0.0000 0.0000 0.0000 0.0000 30.2760 0.0000
# 6 0.0000 0.0000 0.0000 0.0000 0.0000 32.3591
#
#
#
# Elastic Compliance Matrix: (Units=1/GPa)
#
#
# Indices 1 2 3 4 5 6 
#
# 1 0.007247 -0.002655 -0.003596 0.000000 0.000000 0.000000
# 2 -0.002655 0.010234 -0.003691 0.000000 0.000000 0.000000
# 3 -0.003596 -0.003691 0.017757 0.000000 0.000000 0.000000
# 4 0.000000 0.000000 0.000000 0.036586 0.000000 0.000000
# 5 0.000000 0.000000 0.000000 0.000000 0.033029 0.000000
# 6 0.000000 0.000000 0.000000 0.000000 0.000000 0.030903
#
#
# Mechanical properties :
#
#
# Convention : Reuss Voigt Hill
#
# Bulk Modulus (GPa) = 65.13761 79.59257 72.36509
# Shear Modulus (GPa) = 31.10226 33.54442 32.32334
#
# Velocity S-wave (km/s) = 4.14884 4.30865 4.22950
# Velocity P-wave (km/s) = 7.68112 8.29466 7.99378
#
# Compressibility (1/GPa) = 0.01535211
#
# Stress axis : x y z
#
# Youngs Moduli (GPa) = 137.99756 97.71379 56.31478
#
# Poissons Ratio (x) = 0.25945 0.20252
# Poissons Ratio (y) = 0.36641 0.20788
# Poissons Ratio (z) = 0.49626 0.36071
#
# Static dielectric constant tensor:
#      x y z
#    x 1.592170 0.000000 0.000000 
#    y 0.000000 1.614930 0.000000 
#    z 0.000000 0.000000 1.328880 
# 
# From -- ./inp_files/60485.got.cif
#   From: 2010.05.17/outbox.cif.g08.bks.cpg/sg65_31_cif.got.tgz:60485.got - 2010.06.03 17:01:31.
