data_PCOD9490731
_publ_section_title
;
Structure prediction by ZEFSAII (Michael W. Deem and Ramdas Pophale) SiO2 
 PCOD9490731
Probable space group: C M M M
;
_chemical_formula_sum "Si O2"
_cell_formula_units_Z 66
_cell_length_a 24.198936
_cell_length_b 9.840470
_cell_length_c 15.404826
_cell_angle_alpha 90.000000
_cell_angle_beta 90.000000
_cell_angle_gamma 90.000000
_cell_volume 3668.334328
_symmetry_space_group_name_H-M "C M M M"
_symmetry_group_IT_number 65
_symmetry_cell_setting 'orthorhombic'
loop_
_space_group_symop_operation_xyz
x,y,z
-x,-y,z
x,-y,-z
-x,y,-z
-x,-y,-z
x,y,-z
-x,y,z
x,-y,z
1/2+x,1/2+y,z
1/2-x,1/2-y,z
1/2+x,1/2-y,-z
1/2-x,1/2+y,-z
1/2-x,1/2-y,-z
1/2+x,1/2+y,-z
1/2-x,1/2+y,z
1/2+x,1/2-y,z
loop_
_atom_site_type_symbol
_atom_site_label
_atom_site_fract_x
_atom_site_fract_y
_atom_site_fract_z
Si Si1 0.882989 0.838432 0.097970
Si Si2 0.396772 0.343257 0.400083
Si Si3 0.500000 0.000000 0.000000
Si Si4 0.500000 0.227667 0.849406
Si Si5 0.500000 0.157743 0.351416
Si Si6 0.195160 0.837436 0.746666
O O1 0.836933 0.790720 0.165997
O O2 0.943652 0.810700 0.136110
O O3 0.876412 0.000000 0.092400
O O4 0.878444 0.781233 0.000000
O O5 0.378302 0.333011 0.500000
O O6 0.416014 0.500000 0.385760
O O7 0.446362 0.238959 0.384201
O O8 0.347311 0.318374 0.332906
O O9 0.500000 0.883762 0.075958
O O10 0.500000 0.167706 0.753071
O O11 0.500000 0.000000 0.377884
O O12 0.250000 0.750000 0.735036
O O13 0.206743 0.000000 0.752647
#
# Coordination Sequence:
#
# PCOD9490731 Si02
#       6
#    16  16   2   8   8  16
#     4  10  20  36  61  86 112 147 196 243 287 345
#     4  10  22  41  64  87 117 157 198 241 294 357
#     4  12  24  36  50  88 134 156 192 226 296 366
#     4  12  21  36  56  85 121 156 189 232 290 354
#     4  12  24  36  58  93 126 153 186 237 299 352
#     4  10  22  40  59  85 115 152 200 247 291 346
#
# _framework density 17.991817000000001
#
# number of rings (size 3 to 8) (size 9 to 14) (size 15 to 20)
#    0.000    1.455    4.242    1.091    0.000    5.818 
#    2.182    0.000    0.000    0.000    0.000    0.000 
#    0.000    0.000    0.000    0.000    0.000    0.000 
#
# Total GULP energy -183914.870637 kJ/mol
# GULP energy per Si atom -5573.177898 kJ/mol
# Density = 1.795087 g / cm^3
# Si number density = 17.991817 Si / 1000 Ang^3
#
#
#
# Elastic Constant Matrix: (Units=GPa)
#
#
# Indices 1 2 3 4 5 6 
#
# 1 131.2231 69.6241 52.6004 0.0000 0.0000 0.0000
# 2 69.6241 72.0555 43.6473 0.0000 0.0000 0.0000
# 3 52.6004 43.6473 108.1540 0.0000 0.0000 0.0000
# 4 0.0000 0.0000 0.0000 51.1995 0.0000 0.0000
# 5 0.0000 0.0000 0.0000 0.0000 -16.0407 0.0000
# 6 0.0000 0.0000 0.0000 0.0000 0.0000 45.6314
#
#
#
# Elastic Compliance Matrix: (Units=1/GPa)
#
#
# Indices 1 2 3 4 5 6 
#
# 1 0.015970 -0.014197 -0.002038 0.000000 0.000000 0.000000
# 2 -0.014197 0.030989 -0.005602 0.000000 0.000000 0.000000
# 3 -0.002038 -0.005602 0.012498 0.000000 0.000000 0.000000
# 4 0.000000 0.000000 0.000000 0.019531 0.000000 0.000000
# 5 0.000000 0.000000 0.000000 0.000000 -0.062341 0.000000
# 6 0.000000 0.000000 0.000000 0.000000 0.000000 0.021915
#
#
# Mechanical properties :
#
#
# Convention : Reuss Voigt Hill
#
# Bulk Modulus (GPa) = 63.35224 71.46400 67.40812
# Shear Modulus (GPa) = 57.14645 25.86208 41.50426
#
# Velocity S-wave (km/s) = 5.64193 3.79547 4.80817
# Velocity P-wave (km/s) = 8.81646 7.68205 8.26874
#
# Compressibility (1/GPa) = 0.01578476
#
# Stress axis : x y z
#
# Youngs Moduli (GPa) = 62.61818 32.26959 80.01501
#
# Poissons Ratio (x) = 0.45812 0.16304
# Poissons Ratio (y) = 0.88897 0.44821
# Poissons Ratio (z) = 0.12759 0.18076
#
# Static dielectric constant tensor:
#      x y z
#    x 1.582800 0.000000 0.000000 
#    y 0.000000 1.605690 0.000000 
#    z 0.000000 0.000000 1.640360 
# 
# From -- ./inp_files/45136.got.cif
#   From: 2010.05.17/outbox.cif.g08.bks.cpg/sg65_23_cif.got.tgz:45136.got - 2010.06.03 17:01:31.
