data_PCOD9490482
_publ_section_title
;
Structure prediction by ZEFSAII (Michael W. Deem and Ramdas Pophale) SiO2 
 PCOD9490482
Probable space group: C M M M
;
_chemical_formula_sum "Si O2"
_cell_formula_units_Z 88
_cell_length_a 13.791486
_cell_length_b 23.121536
_cell_length_c 12.750774
_cell_angle_alpha 90.000000
_cell_angle_beta 90.000000
_cell_angle_gamma 90.000000
_cell_volume 4065.971149
_symmetry_space_group_name_H-M "C M M M"
_symmetry_group_IT_number 65
_symmetry_cell_setting 'orthorhombic'
loop_
_space_group_symop_operation_xyz
x,y,z
-x,-y,z
x,-y,-z
-x,y,-z
-x,-y,-z
x,y,-z
-x,y,z
x,-y,z
1/2+x,1/2+y,z
1/2-x,1/2-y,z
1/2+x,1/2-y,-z
1/2-x,1/2+y,-z
1/2-x,1/2-y,-z
1/2+x,1/2+y,-z
1/2-x,1/2+y,z
1/2+x,1/2-y,z
loop_
_atom_site_type_symbol
_atom_site_label
_atom_site_fract_x
_atom_site_fract_y
_atom_site_fract_z
Si Si1 0.882419 0.934349 0.119949
Si Si2 0.383793 0.114937 0.225300
Si Si3 0.617487 0.779396 0.377842
Si Si4 0.883898 0.150302 0.307071
Si Si5 0.758467 0.562434 0.389902
Si Si6 0.618055 0.932022 0.000000
O O1 0.857876 0.880924 0.196144
O O2 0.000000 0.935858 0.119179
O O3 0.851768 0.000000 0.152161
O O4 0.850446 0.925470 0.000000
O O5 0.500000 0.112005 0.227979
O O6 0.354648 0.172717 0.290627
O O7 0.333344 0.067068 0.296116
O O8 0.353857 0.102478 0.105583
O O9 0.650644 0.787199 0.500000
O O10 0.500000 0.781574 0.382875
O O11 0.643002 0.716335 0.331940
O O12 0.824201 0.109928 0.384033
O O13 0.000000 0.146024 0.319460
O O14 0.813134 0.568927 0.500000
O O15 0.710528 0.500000 0.387597
O O16 0.500000 0.933561 0.000000
O O17 0.648528 0.000000 0.000000
#
# Coordination Sequence:
#
# PCOD9490482 Si02
#       6
#    16  16  16  16  16   8
#     4   8  14  27  48  73 103 145 196 243 287 336
#     4  10  21  40  63  88 117 149 187 242 298 352
#     4   9  18  34  58  86 115 156 204 238 283 352
#     4  10  20  36  56  82 119 161 201 246 289 336
#     4  11  24  38  56  87 119 152 201 247 292 356
#     4   9  18  36  64  91 115 149 190 233 295 367
#
# _framework density 21.643045000000001
#
# number of rings (size 3 to 8) (size 9 to 14) (size 15 to 20)
#    0.000    2.455    0.000    2.727    0.000    5.091 
#    3.273    3.636    0.000    1.091    0.000    0.000 
#    0.000    0.000    0.000    0.000    0.000    0.000 
#
# Total GULP energy -245447.563508 kJ/mol
# GULP energy per Si atom -5578.353716 kJ/mol
# Density = 2.159378 g / cm^3
# Si number density = 21.643045 Si / 1000 Ang^3
#
#
#
# Elastic Constant Matrix: (Units=GPa)
#
#
# Indices 1 2 3 4 5 6 
#
# 1 64.8140 28.2232 37.0127 0.0000 0.0000 0.0000
# 2 28.2232 195.7278 96.6740 0.0000 0.0000 0.0000
# 3 37.0127 96.6740 226.4712 0.0000 0.0000 0.0000
# 4 0.0000 0.0000 0.0000 32.8020 0.0000 0.0000
# 5 0.0000 0.0000 0.0000 0.0000 19.1876 0.0000
# 6 0.0000 0.0000 0.0000 0.0000 0.0000 20.3374
#
#
#
# Elastic Compliance Matrix: (Units=1/GPa)
#
#
# Indices 1 2 3 4 5 6 
#
# 1 0.017311 -0.001392 -0.002235 0.000000 0.000000 0.000000
# 2 -0.001392 0.006586 -0.002584 0.000000 0.000000 0.000000
# 3 -0.002235 -0.002584 0.005884 0.000000 0.000000 0.000000
# 4 0.000000 0.000000 0.000000 0.030486 0.000000 0.000000
# 5 0.000000 0.000000 0.000000 0.000000 0.052117 0.000000
# 6 0.000000 0.000000 0.000000 0.000000 0.000000 0.049171
#
#
# Mechanical properties :
#
#
# Convention : Reuss Voigt Hill
#
# Bulk Modulus (GPa) = 57.60694 90.09254 73.84974
# Shear Modulus (GPa) = 27.81434 36.13892 31.97663
#
# Velocity S-wave (km/s) = 3.58877 4.09072 3.84794
# Velocity P-wave (km/s) = 6.62171 8.00180 7.34425
#
# Compressibility (1/GPa) = 0.01735902
#
# Stress axis : x y z
#
# Youngs Moduli (GPa) = 57.76572 151.83395 169.95812
#
# Poissons Ratio (x) = 0.21141 0.37983
# Poissons Ratio (y) = 0.08043 0.43915
# Poissons Ratio (z) = 0.12910 0.39232
#
# Static dielectric constant tensor:
#      x y z
#    x 1.810890 0.000000 0.000000 
#    y 0.000000 1.773370 0.000000 
#    z 0.000000 0.000000 1.816310 
# 
# From -- ./inp_files/24783.got.cif
#   From: 2010.05.17/outbox.cif.g08.bks.cpg/sg65_13_cif.got.tgz:24783.got - 2010.06.03 17:01:31.
