data_PCOD9490716
_publ_section_title
;
Structure prediction by ZEFSAII (Michael W. Deem and Ramdas Pophale) SiO2 
 PCOD9490716
Probable space group: C M M M
;
_chemical_formula_sum "Si O2"
_cell_formula_units_Z 64
_cell_length_a 33.979804
_cell_length_b 9.373663
_cell_length_c 10.341682
_cell_angle_alpha 90.000000
_cell_angle_beta 90.000000
_cell_angle_gamma 90.000000
_cell_volume 3293.983236
_symmetry_space_group_name_H-M "C M M M"
_symmetry_group_IT_number 65
_symmetry_cell_setting 'orthorhombic'
loop_
_space_group_symop_operation_xyz
x,y,z
-x,-y,z
x,-y,-z
-x,y,-z
-x,-y,-z
x,y,-z
-x,y,z
x,-y,z
1/2+x,1/2+y,z
1/2-x,1/2-y,z
1/2+x,1/2-y,-z
1/2-x,1/2+y,-z
1/2-x,1/2-y,-z
1/2+x,1/2+y,-z
1/2-x,1/2+y,z
1/2+x,1/2-y,z
loop_
_atom_site_type_symbol
_atom_site_label
_atom_site_fract_x
_atom_site_fract_y
_atom_site_fract_z
Si Si1 0.070145 0.328396 0.151246
Si Si2 0.350673 0.667936 0.232171
Si Si3 0.786871 0.658927 0.349008
Si Si4 0.710794 0.338395 0.000000
Si Si5 0.000000 0.672582 0.651333
O O1 0.076711 0.500000 0.160479
O O2 0.109331 0.241369 0.185782
O O3 0.037492 0.288771 0.258977
O O4 0.058751 0.300747 0.000000
O O5 0.356030 0.500000 0.261370
O O6 0.328150 0.758158 0.340529
O O7 0.318334 0.682666 0.119671
O O8 0.778214 0.641402 0.500000
O O9 0.789139 0.500000 0.289790
O O10 0.750000 0.750000 0.295999
O O11 0.750000 0.250000 0.000000
O O12 0.724080 0.500000 0.000000
O O13 0.000000 0.500000 0.644369
O O14 0.000000 0.722962 0.500000
#
# Coordination Sequence:
#
# PCOD9490716 Si02
#       5
#    16  16  16   8   8
#     4  10  20  36  60  88 118 155 198 245 299 365
#     4  11  22  37  56  82 116 153 196 243 294 351
#     4  10  21  37  56  80 112 152 199 247 297 354
#     4  10  22  36  52  77 112 151 191 238 287 336
#     4   9  19  37  62  91 120 150 192 249 308 363
#
# _framework density 19.429364
#
# number of rings (size 3 to 8) (size 9 to 14) (size 15 to 20)
#    0.000    1.875    1.250    2.625    0.000    8.000 
#    0.000    3.125    0.000    2.250    0.000    0.000 
#    0.000    0.000    0.000    0.000    0.000    0.000 
#
# Total GULP energy -178354.325655 kJ/mol
# GULP energy per Si atom -5573.572677 kJ/mol
# Density = 1.938514 g / cm^3
# Si number density = 19.429364 Si / 1000 Ang^3
#
#
#
# Elastic Constant Matrix: (Units=GPa)
#
#
# Indices 1 2 3 4 5 6 
#
# 1 154.0240 83.6931 61.9767 0.0000 0.0000 0.0000
# 2 83.6931 96.9644 49.7836 0.0000 0.0000 0.0000
# 3 61.9767 49.7836 98.7993 0.0000 0.0000 0.0000
# 4 0.0000 0.0000 0.0000 10.4671 0.0000 0.0000
# 5 0.0000 0.0000 0.0000 0.0000 36.8721 0.0000
# 6 0.0000 0.0000 0.0000 0.0000 0.0000 33.2875
#
#
#
# Elastic Compliance Matrix: (Units=1/GPa)
#
#
# Indices 1 2 3 4 5 6 
#
# 1 0.013012 -0.009497 -0.003377 0.000000 0.000000 0.000000
# 2 -0.009497 0.020844 -0.004545 0.000000 0.000000 0.000000
# 3 -0.003377 -0.004545 0.014530 0.000000 0.000000 0.000000
# 4 0.000000 0.000000 0.000000 0.095537 0.000000 0.000000
# 5 0.000000 0.000000 0.000000 0.000000 0.027121 0.000000
# 6 0.000000 0.000000 0.000000 0.000000 0.000000 0.030041
#
#
# Mechanical properties :
#
#
# Convention : Reuss Voigt Hill
#
# Bulk Modulus (GPa) = 73.81601 82.29937 78.05769
# Shear Modulus (GPa) = 20.79521 26.41431 23.60476
#
# Velocity S-wave (km/s) = 3.27509 3.69115 3.48932
# Velocity P-wave (km/s) = 7.23713 7.78565 7.51639
#
# Compressibility (1/GPa) = 0.01354720
#
# Stress axis : x y z
#
# Youngs Moduli (GPa) = 76.85322 47.97508 68.82222
#
# Poissons Ratio (x) = 0.45563 0.23240
# Poissons Ratio (y) = 0.72989 0.31283
# Poissons Ratio (z) = 0.25952 0.21807
#
# Static dielectric constant tensor:
#      x y z
#    x 1.638480 0.000000 0.000000 
#    y 0.000000 1.687510 0.000000 
#    z 0.000000 0.000000 1.741200 
# 
# From -- ./inp_files/33245.got.cif
#   From: 2010.05.17/outbox.cif.g08.bks.cpg/sg65_17_cif.got.tgz:33245.got - 2010.06.03 17:01:31.
