data_PCOD9490766
_publ_section_title
;
Structure prediction by ZEFSAII (Michael W. Deem and Ramdas Pophale) SiO2 
 PCOD9490766
Probable space group: C M M M
;
_chemical_formula_sum "Si O2"
_cell_formula_units_Z 56
_cell_length_a 9.086834
_cell_length_b 34.469575
_cell_length_c 10.399898
_cell_angle_alpha 90.000000
_cell_angle_beta 90.000000
_cell_angle_gamma 90.000000
_cell_volume 3257.448835
_symmetry_space_group_name_H-M "C M M M"
_symmetry_group_IT_number 65
_symmetry_cell_setting 'orthorhombic'
loop_
_space_group_symop_operation_xyz
x,y,z
-x,-y,z
x,-y,-z
-x,y,-z
-x,-y,-z
x,y,-z
-x,y,z
x,-y,z
1/2+x,1/2+y,z
1/2-x,1/2-y,z
1/2+x,1/2-y,-z
1/2-x,1/2+y,-z
1/2-x,1/2-y,-z
1/2+x,1/2+y,-z
1/2-x,1/2+y,z
1/2+x,1/2-y,z
loop_
_atom_site_type_symbol
_atom_site_label
_atom_site_fract_x
_atom_site_fract_y
_atom_site_fract_z
Si Si1 0.329954 0.000000 0.843693
Si Si2 0.175510 0.921066 0.151259
Si Si3 0.176428 0.707775 0.000000
Si Si4 0.823958 0.207920 0.500000
Si Si5 0.822762 0.836311 0.762887
O O1 0.252944 0.039804 0.802027
O O2 0.500000 0.000000 0.807628
O O3 0.319684 0.000000 0.000000
O O4 0.211944 0.882028 0.228184
O O5 0.000000 0.926840 0.156412
O O6 0.213934 0.914567 0.000000
O O7 0.250000 0.750000 0.000000
O O8 0.235639 0.685219 0.124666
O O9 0.000000 0.710462 0.000000
O O10 0.750000 0.250000 0.500000
O O11 0.786617 0.183519 0.372543
O O12 0.000000 0.213384 0.500000
O O13 0.000000 0.832513 0.785102
#
# Coordination Sequence:
#
# PCOD9490766 Si02
#       5
#     8  16   8   8  16
#     4   9  17  27  43  72 109 138 168 214 259 307
#     4   9  16  29  50  74 103 138 174 212 261 316
#     4  12  24  36  54  79 106 139 176 222 273 322
#     4  10  22  38  58  79 106 141 181 222 269 324
#     4  10  20  37  57  80 108 140 178 224 270 320
#
# _framework density 17.191367
#
# number of rings (size 3 to 8) (size 9 to 14) (size 15 to 20)
#    0.000    2.143    1.429    2.571    0.000    6.286 
#    0.000    0.000    0.000    0.857    0.000    6.000 
#    0.000    0.000    0.000    0.000    0.000    0.000 
#
# Total GULP energy -156232.959302 kJ/mol
# GULP energy per Si atom -5579.748547 kJ/mol
# Density = 1.715224 g / cm^3
# Si number density = 17.191367 Si / 1000 Ang^3
#
#
#
# Elastic Constant Matrix: (Units=GPa)
#
#
# Indices 1 2 3 4 5 6 
#
# 1 59.2029 81.6498 54.5382 0.0000 0.0000 0.0000
# 2 81.6498 211.7371 82.8637 0.0000 0.0000 0.0000
# 3 54.5382 82.8637 111.2020 0.0000 0.0000 0.0000
# 4 0.0000 0.0000 0.0000 14.7251 0.0000 0.0000
# 5 0.0000 0.0000 0.0000 0.0000 2.3097 0.0000
# 6 0.0000 0.0000 0.0000 0.0000 0.0000 32.0500
#
#
#
# Elastic Compliance Matrix: (Units=1/GPa)
#
#
# Indices 1 2 3 4 5 6 
#
# 1 0.047076 -0.012871 -0.013497 0.000000 0.000000 0.000000
# 2 -0.012871 0.010186 -0.001278 0.000000 0.000000 0.000000
# 3 -0.013497 -0.001278 0.016564 0.000000 0.000000 0.000000
# 4 0.000000 0.000000 0.000000 0.067911 0.000000 0.000000
# 5 0.000000 0.000000 0.000000 0.000000 0.432953 0.000000
# 6 0.000000 0.000000 0.000000 0.000000 0.000000 0.031201
#
#
# Mechanical properties :
#
#
# Convention : Reuss Voigt Hill
#
# Bulk Modulus (GPa) = 53.95316 91.13840 72.54578
# Shear Modulus (GPa) = 7.49218 20.68965 14.09091
#
# Velocity S-wave (km/s) = 2.08987 3.47290 2.86606
# Velocity P-wave (km/s) = 6.10536 8.31929 7.29678
#
# Compressibility (1/GPa) = 0.01853460
#
# Stress axis : x y z
#
# Youngs Moduli (GPa) = 21.24221 98.17033 60.37096
#
# Poissons Ratio (x) = 1.26359 0.81482
# Poissons Ratio (y) = 0.27342 0.07714
# Poissons Ratio (z) = 0.28670 0.12544
#
# Static dielectric constant tensor:
#      x y z
#    x 1.575530 0.000000 0.000000 
#    y 0.000000 1.576570 0.000000 
#    z 0.000000 0.000000 1.570900 
# 
# From -- ./inp_files/20831.got.cif
#   From: 2010.05.17/outbox.cif.g08.bks.cpg/sg65_11_cif.got.tgz:20831.got - 2010.06.03 17:01:31.
