data_PCOD9490162
_publ_section_title
;
Structure prediction by ZEFSAII (Michael W. Deem and Ramdas Pophale) SiO2 
 PCOD9490162
Probable space group: C M M M
;
_chemical_formula_sum "Si O2"
_cell_formula_units_Z 104
_cell_length_a 22.006688
_cell_length_b 9.025303
_cell_length_c 27.356557
_cell_angle_alpha 90.000000
_cell_angle_beta 90.000000
_cell_angle_gamma 90.000000
_cell_volume 5433.478026
_symmetry_space_group_name_H-M "C M M M"
_symmetry_group_IT_number 65
_symmetry_cell_setting 'orthorhombic'
loop_
_space_group_symop_operation_xyz
x,y,z
-x,-y,z
x,-y,-z
-x,y,-z
-x,-y,-z
x,y,-z
-x,y,z
x,-y,z
1/2+x,1/2+y,z
1/2-x,1/2-y,z
1/2+x,1/2-y,-z
1/2-x,1/2+y,-z
1/2-x,1/2-y,-z
1/2+x,1/2+y,-z
1/2-x,1/2+y,z
1/2+x,1/2-y,z
loop_
_atom_site_type_symbol
_atom_site_label
_atom_site_fract_x
_atom_site_fract_y
_atom_site_fract_z
Si Si1 0.313388 0.170249 0.737099
Si Si2 0.889020 0.671710 0.359169
Si Si3 0.630112 0.321960 0.827807
Si Si4 0.000000 0.820583 0.809999
Si Si5 0.185276 0.179239 0.928069
Si Si6 0.000000 0.177731 0.303815
Si Si7 0.684524 0.675476 0.557552
Si Si8 0.926487 0.820855 0.000000
O O1 0.250000 0.250000 0.740181
O O2 0.336609 0.175290 0.681820
O O3 0.355451 0.254618 0.775350
O O4 0.309090 0.000000 0.752275
O O5 0.905638 0.500000 0.367668
O O6 0.942868 0.759724 0.333191
O O7 0.864788 0.748149 0.407958
O O8 0.633222 0.500000 0.824561
O O9 0.560795 0.276421 0.837665
O O10 0.674150 0.277037 0.871541
O O11 0.000000 0.771347 0.753068
O O12 0.000000 0.000000 0.808041
O O13 0.250000 0.250000 0.944168
O O14 0.121172 0.218506 0.955551
O O15 0.190776 0.000000 0.932279
O O16 0.000000 0.000000 0.303752
O O17 0.670885 0.695750 0.500000
O O18 0.688044 0.500000 0.567535
O O19 0.750000 0.750000 0.566919
O O20 0.000000 0.771932 0.000000
O O21 0.930960 0.000000 0.000000
#
# Coordination Sequence:
#
# PCOD9490162 Si02
#       8
#    16  16  16   8  16   8  16   8
#     4  11  23  36  53  79 112 148 186 231 280 337
#     4  11  23  38  57  83 114 149 189 234 283 341
#     4  10  20  35  56  83 113 148 191 235 285 342
#     4   9  18  33  55  81 110 148 191 235 281 334
#     4  10  21  36  59  86 117 154 193 243 296 353
#     4  11  21  37  60  82 110 151 191 233 284 339
#     4  10  21  38  61  88 116 147 186 233 286 342
#     4   9  19  36  59  89 116 147 196 250 298 345
#
# _framework density 19.140592999999999
#
# number of rings (size 3 to 8) (size 9 to 14) (size 15 to 20)
#    0.000    1.769    1.538    2.769    1.077    5.846 
#    0.000    0.769    0.000    3.231    0.000    0.000 
#    0.000    0.000    0.000    0.000    0.000    0.000 
#
# Total GULP energy -289896.356948 kJ/mol
# GULP energy per Si atom -5574.929941 kJ/mol
# Density = 1.909703 g / cm^3
# Si number density = 19.140593 Si / 1000 Ang^3
#
#
#
# Elastic Constant Matrix: (Units=GPa)
#
#
# Indices 1 2 3 4 5 6 
#
# 1 120.3219 24.2212 27.4890 0.0000 0.0000 0.0000
# 2 24.2212 44.6278 31.5989 0.0000 0.0000 0.0000
# 3 27.4890 31.5989 74.5796 0.0000 0.0000 0.0000
# 4 0.0000 0.0000 0.0000 7.6685 0.0000 0.0000
# 5 0.0000 0.0000 0.0000 0.0000 29.8867 0.0000
# 6 0.0000 0.0000 0.0000 0.0000 0.0000 26.0222
#
#
#
# Elastic Compliance Matrix: (Units=1/GPa)
#
#
# Indices 1 2 3 4 5 6 
#
# 1 0.009512 -0.003829 -0.001884 0.000000 0.000000 0.000000
# 2 -0.003829 0.033552 -0.012805 0.000000 0.000000 0.000000
# 3 -0.001884 -0.012805 0.019528 0.000000 0.000000 0.000000
# 4 0.000000 0.000000 0.000000 0.130403 0.000000 0.000000
# 5 0.000000 0.000000 0.000000 0.000000 0.033460 0.000000
# 6 0.000000 0.000000 0.000000 0.000000 0.000000 0.038429
#
#
# Mechanical properties :
#
#
# Convention : Reuss Voigt Hill
#
# Bulk Modulus (GPa) = 39.12685 45.12750 42.12717
# Shear Modulus (GPa) = 16.10630 23.13016 19.61823
#
# Velocity S-wave (km/s) = 2.90396 3.48003 3.20496
# Velocity P-wave (km/s) = 5.63296 6.30678 5.97937
#
# Compressibility (1/GPa) = 0.02555790
#
# Stress axis : x y z
#
# Youngs Moduli (GPa) = 105.12853 29.80457 51.20839
#
# Poissons Ratio (x) = 0.11411 0.09647
# Poissons Ratio (y) = 0.40251 0.65570
# Poissons Ratio (z) = 0.19804 0.38163
#
# Static dielectric constant tensor:
#      x y z
#    x 1.709820 0.000000 0.000000 
#    y 0.000000 1.647730 0.000000 
#    z 0.000000 0.000000 1.660030 
# 
# From -- ./inp_files/75577.got.cif
#   From: 2010.05.17/outbox.cif.g08.bks.cpg/sg65_38_cif.got.tgz:75577.got - 2010.06.03 17:01:31.
