data_PCOD9490101
_publ_section_title
;
Structure prediction by ZEFSAII (Michael W. Deem and Ramdas Pophale) SiO2 
 PCOD9490101
Probable space group: C M M M
;
_chemical_formula_sum "Si O2"
_cell_formula_units_Z 116
_cell_length_a 22.331360
_cell_length_b 25.354277
_cell_length_c 9.702873
_cell_angle_alpha 90.000000
_cell_angle_beta 90.000000
_cell_angle_gamma 90.000000
_cell_volume 5493.722906
_symmetry_space_group_name_H-M "C M M M"
_symmetry_group_IT_number 65
_symmetry_cell_setting 'orthorhombic'
loop_
_space_group_symop_operation_xyz
x,y,z
-x,-y,z
x,-y,-z
-x,y,-z
-x,-y,-z
x,y,-z
-x,y,z
x,-y,z
1/2+x,1/2+y,z
1/2-x,1/2-y,z
1/2+x,1/2-y,-z
1/2-x,1/2+y,-z
1/2-x,1/2-y,-z
1/2+x,1/2+y,-z
1/2-x,1/2+y,z
1/2+x,1/2-y,z
loop_
_atom_site_type_symbol
_atom_site_label
_atom_site_fract_x
_atom_site_fract_y
_atom_site_fract_z
Si Si1 0.754422 0.308999 0.341789
Si Si2 0.366024 0.061486 0.844245
Si Si3 0.100031 0.939958 0.847893
Si Si4 0.769697 0.079349 0.237485
Si Si5 0.071361 0.844714 0.344760
Si Si6 0.768658 0.000000 0.500000
Si Si7 0.070483 0.751385 0.154908
Si Si8 0.893533 0.343834 0.342369
O O1 0.732574 0.306197 0.500000
O O2 0.750000 0.250000 0.281785
O O3 0.724010 0.358128 0.266080
O O4 0.824119 0.325770 0.346054
O O5 0.294133 0.069044 0.833360
O O6 0.394618 0.099151 0.729546
O O7 0.379137 0.000000 0.820442
O O8 0.384782 0.075873 0.000000
O O9 0.172081 0.938812 0.844170
O O10 0.080070 0.900358 0.729696
O O11 0.080224 0.000000 0.823627
O O12 0.079102 0.922926 0.000000
O O13 0.768409 0.046174 0.379128
O O14 0.095683 0.844025 0.500000
O O15 0.096811 0.798451 0.247974
O O16 0.000000 0.835795 0.355321
O O17 0.076089 0.698103 0.241960
O O18 0.000000 0.762534 0.140072
O O19 0.096134 0.747739 0.000000
O O20 0.915893 0.343547 0.500000
#
# Coordination Sequence:
#
# PCOD9490101 Si02
#       8
#    16  16  16  16  16   4  16  16
#     4   9  19  33  48  75 114 150 184 227 283 330
#     4  10  20  35  56  80 116 158 196 235 280 338
#     4  11  24  39  57  82 114 150 191 236 290 349
#     4  11  21  33  55  78 114 152 196 241 281 335
#     4  10  23  41  62  85 109 141 186 239 294 347
#     4  12  20  32  52  88 109 150 203 250 284 334
#     4  10  21  40  64  87 115 150 188 233 287 348
#     4  10  21  34  56  87 116 150 191 238 285 335
#
# _framework density 21.115006999999999
#
# number of rings (size 3 to 8) (size 9 to 14) (size 15 to 20)
#    0.000    1.793    2.069    1.655    3.862    3.586 
#    0.000    1.379    0.000    2.897    0.000    2.897 
#    0.000    0.000    0.000    0.000    0.000    0.000 
#
# Total GULP energy -323428.068338 kJ/mol
# GULP energy per Si atom -5576.346006 kJ/mol
# Density = 2.106695 g / cm^3
# Si number density = 21.115007 Si / 1000 Ang^3
#
#
#
# Elastic Constant Matrix: (Units=GPa)
#
#
# Indices 1 2 3 4 5 6 
#
# 1 14.5491 0.7763 9.2806 0.0000 0.0000 0.0000
# 2 0.7763 153.1280 83.7622 0.0000 0.0000 0.0000
# 3 9.2806 83.7622 187.6691 0.0000 0.0000 0.0000
# 4 0.0000 0.0000 0.0000 29.8238 0.0000 0.0000
# 5 0.0000 0.0000 0.0000 0.0000 7.2629 0.0000
# 6 0.0000 0.0000 0.0000 0.0000 0.0000 17.8844
#
#
#
# Elastic Compliance Matrix: (Units=1/GPa)
#
#
# Indices 1 2 3 4 5 6 
#
# 1 0.071468 0.002078 -0.004462 0.000000 0.000000 0.000000
# 2 0.002078 0.008700 -0.003986 0.000000 0.000000 0.000000
# 3 -0.004462 -0.003986 0.007328 0.000000 0.000000 0.000000
# 4 0.000000 0.000000 0.000000 0.033530 0.000000 0.000000
# 5 0.000000 0.000000 0.000000 0.000000 0.137686 0.000000
# 6 0.000000 0.000000 0.000000 0.000000 0.000000 0.055915
#
#
# Mechanical properties :
#
#
# Convention : Reuss Voigt Hill
#
# Bulk Modulus (GPa) = 13.37659 60.33163 36.85411
# Shear Modulus (GPa) = 14.19303 28.42937 21.31120
#
# Velocity S-wave (km/s) = 2.59545 3.67332 3.18038
# Velocity P-wave (km/s) = 3.91544 6.82832 5.56582
#
# Compressibility (1/GPa) = 0.07475744
#
# Stress axis : x y z
#
# Youngs Moduli (GPa) = 13.99230 114.93842 136.45846
#
# Poissons Ratio (x) = -0.23888 0.60886
# Poissons Ratio (y) = -0.02908 0.54392
# Poissons Ratio (z) = 0.06243 0.45814
#
# Static dielectric constant tensor:
#      x y z
#    x 1.804380 0.000000 0.000000 
#    y 0.000000 1.750540 0.000000 
#    z 0.000000 0.000000 1.762090 
# 
# From -- ./inp_files/14891.got.cif
#   From: 2010.05.17/outbox.cif.g08.bks.cpg/sg65_8_cif.got.tgz:14891.got - 2010.06.03 17:01:31.
