data_PCOD9490245
_publ_section_title
;
Structure prediction by ZEFSAII (Michael W. Deem and Ramdas Pophale) SiO2 
 PCOD9490245
Probable space group: C M M M
;
_chemical_formula_sum "Si O2"
_cell_formula_units_Z 72
_cell_length_a 29.376086
_cell_length_b 8.848097
_cell_length_c 14.749437
_cell_angle_alpha 90.000000
_cell_angle_beta 90.000000
_cell_angle_gamma 90.000000
_cell_volume 3833.709925
_symmetry_space_group_name_H-M "C M M M"
_symmetry_group_IT_number 65
_symmetry_cell_setting 'orthorhombic'
loop_
_space_group_symop_operation_xyz
x,y,z
-x,-y,z
x,-y,-z
-x,y,-z
-x,-y,-z
x,y,-z
-x,y,z
x,-y,z
1/2+x,1/2+y,z
1/2-x,1/2-y,z
1/2+x,1/2-y,-z
1/2-x,1/2+y,-z
1/2-x,1/2-y,-z
1/2+x,1/2+y,-z
1/2-x,1/2+y,z
1/2+x,1/2-y,z
loop_
_atom_site_type_symbol
_atom_site_label
_atom_site_fract_x
_atom_site_fract_y
_atom_site_fract_z
Si Si1 0.946506 0.818944 0.500000
Si Si2 0.886297 0.179044 0.841832
Si Si3 0.294224 0.169606 0.892594
Si Si4 0.054234 0.321046 0.000000
Si Si5 0.300845 0.181976 0.500000
Si Si6 0.378852 0.181609 0.357362
O O1 0.920667 0.746577 0.415105
O O2 0.000000 0.785959 0.500000
O O3 0.940501 0.000000 0.500000
O O4 0.837382 0.224215 0.881772
O O5 0.884431 0.251745 0.742402
O O6 0.892325 0.000000 0.836593
O O7 0.923291 0.248726 0.910445
O O8 0.250000 0.250000 0.851680
O O9 0.302044 0.000000 0.855436
O O10 0.286623 0.152965 0.000000
O O11 0.064620 0.500000 0.000000
O O12 0.000000 0.300258 0.000000
O O13 0.250000 0.250000 0.500000
O O14 0.332335 0.224094 0.412340
O O15 0.296844 0.000000 0.500000
O O16 0.380405 0.000000 0.355352
#
# Coordination Sequence:
#
# PCOD9490245 Si02
#       6
#     8  16  16   8   8  16
#     4  10  21  39  63  91 120 148 188 246 308 365
#     4  12  24  39  62  90 123 160 202 253 308 361
#     4  10  20  35  57  83 116 155 198 243 290 345
#     4  11  25  45  66  87 116 159 207 255 311 373
#     4   9  20  38  62  90 121 160 200 244 293 350
#     4  10  22  40  61  88 122 160 204 246 295 363
#
# _framework density 18.780764000000001
#
# number of rings (size 3 to 8) (size 9 to 14) (size 15 to 20)
#    0.000    1.556    1.111    4.667    0.000    7.111 
#    0.000    2.222    0.000    0.000    0.000    0.000 
#    0.000    0.000    0.000    0.000    0.000    0.000 
#
# Total GULP energy -200971.412859 kJ/mol
# GULP energy per Si atom -5582.539246 kJ/mol
# Density = 1.873802 g / cm^3
# Si number density = 18.780764 Si / 1000 Ang^3
#
#
#
# Elastic Constant Matrix: (Units=GPa)
#
#
# Indices 1 2 3 4 5 6 
#
# 1 138.5772 80.8962 63.9751 0.0000 0.0000 0.0000
# 2 80.8962 128.1859 67.0308 0.0000 0.0000 0.0000
# 3 63.9751 67.0308 127.7535 0.0000 0.0000 0.0000
# 4 0.0000 0.0000 0.0000 48.9075 0.0000 0.0000
# 5 0.0000 0.0000 0.0000 0.0000 -7.7841 0.0000
# 6 0.0000 0.0000 0.0000 0.0000 0.0000 28.1680
#
#
#
# Elastic Compliance Matrix: (Units=1/GPa)
#
#
# Indices 1 2 3 4 5 6 
#
# 1 0.012127 -0.006171 -0.002835 0.000000 0.000000 0.000000
# 2 -0.006171 0.013891 -0.004198 0.000000 0.000000 0.000000
# 3 -0.002835 -0.004198 0.011450 0.000000 0.000000 0.000000
# 4 0.000000 0.000000 0.000000 0.020447 0.000000 0.000000
# 5 0.000000 0.000000 0.000000 0.000000 -0.128467 0.000000
# 6 0.000000 0.000000 0.000000 0.000000 0.000000 0.035501
#
#
# Mechanical properties :
#
#
# Convention : Reuss Voigt Hill
#
# Bulk Modulus (GPa) = 90.41772 90.92454 90.67113
# Shear Modulus (GPa) = -1008.96781 26.03259 -491.46761
#
# Velocity S-wave (km/s) = -23.20347 3.72712 -16.19428
# Velocity P-wave (km/s) = 25.87701 8.18783 17.35769
#
# Compressibility (1/GPa) = 0.01105978
#
# Stress axis : x y z
#
# Youngs Moduli (GPa) = 82.45790 71.99028 87.33520
#
# Poissons Ratio (x) = 0.44424 0.24762
# Poissons Ratio (y) = 0.50883 0.36665
# Poissons Ratio (z) = 0.23379 0.30223
#
# Static dielectric constant tensor:
#      x y z
#    x 1.637160 0.000000 0.000000 
#    y 0.000000 1.650500 0.000000 
#    z 0.000000 0.000000 1.788240 
# 
# From -- ./inp_files/36689.got.cif
#   From: 2010.05.17/outbox.cif.g08.bks.cpg/sg65_19_cif.got.tgz:36689.got - 2010.06.03 17:01:31.
