data_PCOD9490948
_publ_section_title
;
Structure prediction by ZEFSAII (Michael W. Deem and Ramdas Pophale) SiO2 
 PCOD9490948
Probable space group: C M M M
;
_chemical_formula_sum "Si O2"
_cell_formula_units_Z 72
_cell_length_a 10.208372
_cell_length_b 27.436841
_cell_length_c 14.380194
_cell_angle_alpha 90.000000
_cell_angle_beta 90.000000
_cell_angle_gamma 90.000000
_cell_volume 4027.683531
_symmetry_space_group_name_H-M "C M M M"
_symmetry_group_IT_number 65
_symmetry_cell_setting 'orthorhombic'
loop_
_space_group_symop_operation_xyz
x,y,z
-x,-y,z
x,-y,-z
-x,y,-z
-x,-y,-z
x,y,-z
-x,y,z
x,-y,z
1/2+x,1/2+y,z
1/2-x,1/2-y,z
1/2+x,1/2-y,-z
1/2-x,1/2+y,-z
1/2-x,1/2-y,-z
1/2+x,1/2+y,-z
1/2-x,1/2+y,z
1/2+x,1/2-y,z
loop_
_atom_site_type_symbol
_atom_site_label
_atom_site_fract_x
_atom_site_fract_y
_atom_site_fract_z
Si Si1 0.237223 0.891812 0.110293
Si Si2 0.653364 0.796745 0.197131
Si Si3 0.000000 0.130177 0.393637
Si Si4 0.766806 0.691508 0.602856
Si Si5 0.000000 0.059321 0.778296
Si Si6 0.500000 0.945998 0.112641
O O1 0.270156 0.836152 0.134859
O O2 0.123033 0.918088 0.166476
O O3 0.370184 0.918522 0.139156
O O4 0.214187 0.897049 0.000000
O O5 0.500000 0.788277 0.169547
O O6 0.750000 0.750000 0.196330
O O7 0.652152 0.816650 0.303466
O O8 0.872254 0.164516 0.382040
O O9 0.000000 0.085527 0.322199
O O10 0.000000 0.112663 0.500000
O O11 0.817054 0.676451 0.500000
O O12 0.750000 0.750000 0.598186
O O13 0.000000 0.000000 0.776362
O O14 0.500000 0.000000 0.150291
O O15 0.500000 0.947807 0.000000
#
# Coordination Sequence:
#
# PCOD9490948 Si02
#       6
#    16  16   8  16   8   8
#     4  11  23  40  60  86 119 154 199 252 304 355
#     4  11  24  38  60  89 123 162 201 242 295 368
#     4  10  20  38  60  89 126 163 199 243 301 363
#     4   9  19  33  57  86 117 153 196 245 297 352
#     4  12  25  41  63  92 121 156 205 258 311 358
#     4   9  18  36  60  80 103 143 194 247 298 343
#
# _framework density 17.876280999999999
#
# number of rings (size 3 to 8) (size 9 to 14) (size 15 to 20)
#    0.000    1.667    3.333    1.000    7.778    2.889 
#    0.000    0.000    0.000    0.000    0.000    0.000 
#    0.000    7.111    0.000    0.000    0.000    0.000 
#
# Total GULP energy -200564.223885 kJ/mol
# GULP energy per Si atom -5571.228441 kJ/mol
# Density = 1.783559 g / cm^3
# Si number density = 17.876281 Si / 1000 Ang^3
#
#
#
# Elastic Constant Matrix: (Units=GPa)
#
#
# Indices 1 2 3 4 5 6 
#
# 1 139.4773 70.9248 48.3342 0.0000 0.0000 0.0000
# 2 70.9248 122.1415 50.0864 0.0000 0.0000 0.0000
# 3 48.3342 50.0864 83.8936 0.0000 0.0000 0.0000
# 4 0.0000 0.0000 0.0000 17.4818 0.0000 0.0000
# 5 0.0000 0.0000 0.0000 0.0000 19.4034 0.0000
# 6 0.0000 0.0000 0.0000 0.0000 0.0000 27.9022
#
#
#
# Elastic Compliance Matrix: (Units=1/GPa)
#
#
# Indices 1 2 3 4 5 6 
#
# 1 0.010817 -0.004934 -0.003287 0.000000 0.000000 0.000000
# 2 -0.004934 0.013092 -0.004974 0.000000 0.000000 0.000000
# 3 -0.003287 -0.004974 0.016783 0.000000 0.000000 0.000000
# 4 0.000000 0.000000 0.000000 0.057202 0.000000 0.000000
# 5 0.000000 0.000000 0.000000 0.000000 0.051537 0.000000
# 6 0.000000 0.000000 0.000000 0.000000 0.000000 0.035840
#
#
# Mechanical properties :
#
#
# Convention : Reuss Voigt Hill
#
# Bulk Modulus (GPa) = 69.91116 76.02259 72.96688
# Shear Modulus (GPa) = 23.10251 24.70195 23.90223
#
# Velocity S-wave (km/s) = 3.59884 3.72133 3.66059
# Velocity P-wave (km/s) = 7.51412 7.81561 7.66635
#
# Compressibility (1/GPa) = 0.01430387
#
# Stress axis : x y z
#
# Youngs Moduli (GPa) = 92.44380 76.38518 59.58470
#
# Poissons Ratio (x) = 0.37685 0.19584
# Poissons Ratio (y) = 0.45608 0.29635
# Poissons Ratio (z) = 0.30385 0.37990
#
# Static dielectric constant tensor:
#      x y z
#    x 1.606860 0.000000 0.000000 
#    y 0.000000 1.684520 0.000000 
#    z 0.000000 0.000000 1.639400 
# 
# From -- ./inp_files/36620.got.cif
#   From: 2010.05.17/outbox.cif.g08.bks.cpg/sg65_19_cif.got.tgz:36620.got - 2010.06.03 17:01:31.
