data_PCOD9490030
_publ_section_title
;
Structure prediction by ZEFSAII (Michael W. Deem and Ramdas Pophale) SiO2 
 PCOD9490030
Probable space group: C M M M
;
_chemical_formula_sum "Si O2"
_cell_formula_units_Z 96
_cell_length_a 24.804580
_cell_length_b 20.194165
_cell_length_c 11.166563
_cell_angle_alpha 90.000000
_cell_angle_beta 90.000000
_cell_angle_gamma 90.000000
_cell_volume 5593.418297
_symmetry_space_group_name_H-M "C M M M"
_symmetry_group_IT_number 65
_symmetry_cell_setting 'orthorhombic'
loop_
_space_group_symop_operation_xyz
x,y,z
-x,-y,z
x,-y,-z
-x,y,-z
-x,-y,-z
x,y,-z
-x,y,z
x,-y,z
1/2+x,1/2+y,z
1/2-x,1/2-y,z
1/2+x,1/2-y,-z
1/2-x,1/2+y,-z
1/2-x,1/2-y,-z
1/2+x,1/2+y,-z
1/2-x,1/2+y,z
1/2+x,1/2-y,z
loop_
_atom_site_type_symbol
_atom_site_label
_atom_site_fract_x
_atom_site_fract_y
_atom_site_fract_z
Si Si1 0.307090 0.710837 0.000000
Si Si2 0.294785 0.924723 0.740329
Si Si3 0.500000 0.178974 0.637581
Si Si4 0.000000 0.218877 0.139919
Si Si5 0.675554 0.577714 0.641825
Si Si6 0.246327 0.072470 0.000000
Si Si7 0.883402 0.194424 0.220089
Si Si8 0.382126 0.829178 0.637163
O O1 0.250000 0.750000 0.000000
O O2 0.294158 0.632862 0.000000
O O3 0.343230 0.721588 0.117234
O O4 0.238353 0.909927 0.673625
O O5 0.340148 0.872495 0.709584
O O6 0.310512 0.000000 0.707580
O O7 0.281564 0.922730 0.880869
O O8 0.500000 0.209783 0.500000
O O9 0.500000 0.225416 0.755457
O O10 0.557069 0.142333 0.644261
O O11 0.057018 0.182735 0.165068
O O12 0.000000 0.240873 0.000000
O O13 0.666801 0.587164 0.500000
O O14 0.665154 0.500000 0.670482
O O15 0.640433 0.628770 0.718788
O O16 0.219528 0.000000 0.000000
O O17 0.885894 0.253938 0.316137
O O18 0.364564 0.829114 0.500000
#
# Coordination Sequence:
#
# PCOD9490030 Si02
#       8
#     8  16   8   8  16   8  16  16
#     4  12  22  33  53  84 114 139 176 230 275 319
#     4  10  20  35  55  80 112 147 182 221 272 336
#     4   8  18  36  55  77 110 147 187 231 278 329
#     4  10  20  38  57  82 111 150 192 229 276 331
#     4  10  21  37  56  81 112 145 181 224 280 339
#     4  10  20  36  55  75 107 149 180 210 271 336
#     4  11  22  36  58  80 113 143 183 229 275 325
#     4  10  20  35  55  80 109 144 184 226 271 325
#
# _framework density 17.163029000000002
#
# number of rings (size 3 to 8) (size 9 to 14) (size 15 to 20)
#    0.000    1.833    2.500    2.000    0.000    1.667 
#    1.500    2.500    0.000    3.000    0.000    1.750 
#    0.000    0.000    0.000    0.000    0.000    0.000 
#
# Total GULP energy -267430.889542 kJ/mol
# GULP energy per Si atom -5571.476865 kJ/mol
# Density = 1.712397 g / cm^3
# Si number density = 17.163029 Si / 1000 Ang^3
#
#
#
# Elastic Constant Matrix: (Units=GPa)
#
#
# Indices 1 2 3 4 5 6 
#
# 1 93.0669 31.4271 21.3958 0.0000 0.0000 0.0000
# 2 31.4271 42.3812 4.8655 0.0000 0.0000 0.0000
# 3 21.3958 4.8655 77.9563 0.0000 0.0000 0.0000
# 4 0.0000 0.0000 0.0000 23.0626 0.0000 0.0000
# 5 0.0000 0.0000 0.0000 0.0000 9.8263 0.0000
# 6 0.0000 0.0000 0.0000 0.0000 0.0000 16.2141
#
#
#
# Elastic Compliance Matrix: (Units=1/GPa)
#
#
# Indices 1 2 3 4 5 6 
#
# 1 0.015227 -0.010889 -0.003499 0.000000 0.000000 0.000000
# 2 -0.010889 0.031553 0.001019 0.000000 0.000000 0.000000
# 3 -0.003499 0.001019 0.013725 0.000000 0.000000 0.000000
# 4 0.000000 0.000000 0.000000 0.043360 0.000000 0.000000
# 5 0.000000 0.000000 0.000000 0.000000 0.101768 0.000000
# 6 0.000000 0.000000 0.000000 0.000000 0.000000 0.061675
#
#
# Mechanical properties :
#
#
# Convention : Reuss Voigt Hill
#
# Bulk Modulus (GPa) = 29.61604 36.53124 33.07364
# Shear Modulus (GPa) = 16.37726 20.20166 18.28946
#
# Velocity S-wave (km/s) = 3.09239 3.43453 3.26794
# Velocity P-wave (km/s) = 5.48121 6.08761 5.79235
#
# Compressibility (1/GPa) = 0.03376549
#
# Stress axis : x y z
#
# Youngs Moduli (GPa) = 65.67457 31.69254 72.86225
#
# Poissons Ratio (x) = 0.34511 0.25498
# Poissons Ratio (y) = 0.71515 -0.07427
# Poissons Ratio (z) = 0.22982 -0.03231
#
# Static dielectric constant tensor:
#      x y z
#    x 1.585940 0.000000 0.000000 
#    y 0.000000 1.575500 0.000000 
#    z 0.000000 0.000000 1.610010 
# 
# From -- ./inp_files/29123.got.cif
#   From: 2010.05.17/outbox.cif.g08.bks.cpg/sg65_15_cif.got.tgz:29123.got - 2010.06.03 17:01:31.
