data_PCOD9490148
_publ_section_title
;
Structure prediction by ZEFSAII (Michael W. Deem and Ramdas Pophale) SiO2 
 PCOD9490148
Probable space group: C M M M
;
_chemical_formula_sum "Si O2"
_cell_formula_units_Z 104
_cell_length_a 28.360887
_cell_length_b 22.790763
_cell_length_c 7.806367
_cell_angle_alpha 90.000000
_cell_angle_beta 90.000000
_cell_angle_gamma 90.000000
_cell_volume 5045.772196
_symmetry_space_group_name_H-M "C M M M"
_symmetry_group_IT_number 65
_symmetry_cell_setting 'orthorhombic'
loop_
_space_group_symop_operation_xyz
x,y,z
-x,-y,z
x,-y,-z
-x,y,-z
-x,-y,-z
x,y,-z
-x,y,z
x,-y,z
1/2+x,1/2+y,z
1/2-x,1/2-y,z
1/2+x,1/2-y,-z
1/2-x,1/2+y,-z
1/2-x,1/2-y,-z
1/2+x,1/2+y,-z
1/2-x,1/2+y,z
1/2+x,1/2-y,z
loop_
_atom_site_type_symbol
_atom_site_label
_atom_site_fract_x
_atom_site_fract_y
_atom_site_fract_z
Si Si1 0.582217 0.158025 0.706245
Si Si2 0.676511 0.500000 0.699767
Si Si3 0.552887 0.291112 0.206471
Si Si4 0.185822 0.624883 0.698488
Si Si5 0.000000 0.431198 0.709642
Si Si6 0.272847 0.306549 0.804269
Si Si7 0.636787 0.625534 0.792086
Si Si8 0.785614 0.500000 0.799936
O O1 0.582967 0.153777 0.500000
O O2 0.567121 0.224208 0.750831
O O3 0.635481 0.146289 0.766350
O O4 0.545305 0.107916 0.764933
O O5 0.687290 0.500000 0.500000
O O6 0.646929 0.558569 0.741587
O O7 0.728311 0.500000 0.786503
O O8 0.500000 0.301663 0.271028
O O9 0.590084 0.340209 0.266637
O O10 0.552316 0.294827 0.000000
O O11 0.190617 0.643525 0.500000
O O12 0.230165 0.648277 0.803358
O O13 0.191451 0.555808 0.710962
O O14 0.000000 0.500000 0.763768
O O15 0.000000 0.432048 0.500000
O O16 0.250000 0.250000 0.717797
O O17 0.318796 0.336112 0.727445
O O18 0.285976 0.290113 0.000000
O O19 0.637286 0.626050 0.000000
O O20 0.797496 0.500000 0.000000
#
# Coordination Sequence:
#
# PCOD9490148 Si02
#       8
#    16   8  16  16   8  16  16   8
#     4  10  21  37  60  87 118 158 202 251 307 356
#     4  12  24  40  63  91 121 156 200 254 306 363
#     4  10  21  39  64  92 121 156 202 255 305 358
#     4  11  23  36  55  86 118 150 193 245 288 342
#     4   9  18  34  57  81 111 158 207 244 293 361
#     4  10  20  35  56  82 114 156 198 236 288 356
#     4  10  21  38  61  87 120 162 202 244 304 373
#     4  12  24  40  60  82 116 162 199 236 294 364
#
# _framework density 20.611314
#
# number of rings (size 3 to 8) (size 9 to 14) (size 15 to 20)
#    0.000    1.615    2.308    2.769    1.077    3.385 
#    0.000    0.385    0.000    2.769    0.000    0.000 
#    0.000    0.000    0.000    0.000    0.000    0.000 
#
# Total GULP energy -290316.564151 kJ/mol
# GULP energy per Si atom -5583.010849 kJ/mol
# Density = 2.056440 g / cm^3
# Si number density = 20.611314 Si / 1000 Ang^3
#
#
#
# Elastic Constant Matrix: (Units=GPa)
#
#
# Indices 1 2 3 4 5 6 
#
# 1 172.4379 72.0121 4.1481 0.0000 0.0000 0.0000
# 2 72.0121 133.6205 -4.3390 0.0000 0.0000 0.0000
# 3 4.1481 -4.3390 41.8951 0.0000 0.0000 0.0000
# 4 0.0000 0.0000 0.0000 23.6377 0.0000 0.0000
# 5 0.0000 0.0000 0.0000 0.0000 791.1080 0.0000
# 6 0.0000 0.0000 0.0000 0.0000 0.0000 37.9828
#
#
#
# Elastic Compliance Matrix: (Units=1/GPa)
#
#
# Indices 1 2 3 4 5 6 
#
# 1 0.007540 -0.004102 -0.001171 0.000000 0.000000 0.000000
# 2 -0.004102 0.009740 0.001415 0.000000 0.000000 0.000000
# 3 -0.001171 0.001415 0.024132 0.000000 0.000000 0.000000
# 4 0.000000 0.000000 0.000000 0.042305 0.000000 0.000000
# 5 0.000000 0.000000 0.000000 0.000000 0.001264 0.000000
# 6 0.000000 0.000000 0.000000 0.000000 0.000000 0.026328
#
#
# Mechanical properties :
#
#
# Convention : Reuss Voigt Hill
#
# Bulk Modulus (GPa) = 29.67719 54.62177 42.14948
# Shear Modulus (GPa) = 38.38541 188.95451 113.66996
#
# Velocity S-wave (km/s) = 4.32017 9.58510 7.43431
# Velocity P-wave (km/s) = 6.27016 12.20890 9.70495
#
# Compressibility (1/GPa) = 0.03369591
#
# Stress axis : x y z
#
# Youngs Moduli (GPa) = 132.62070 102.66539 41.43937
#
# Poissons Ratio (x) = 0.42111 0.04854
# Poissons Ratio (y) = 0.54398 -0.05863
# Poissons Ratio (z) = 0.15535 -0.14526
#
# Static dielectric constant tensor:
#      x y z
#    x 1.738330 0.000000 0.000000 
#    y 0.000000 1.712480 0.000000 
#    z 0.000000 0.000000 1.764550 
# 
# From -- ./inp_files/16814.got.cif
#   From: 2010.05.17/outbox.cif.g08.bks.cpg/sg65_9_cif.got.tgz:16814.got - 2010.06.03 17:01:31.
