data_PCOD9490379
_publ_section_title
;
Structure prediction by ZEFSAII (Michael W. Deem and Ramdas Pophale) SiO2 
 PCOD9490379
Probable space group: C M M M
;
_chemical_formula_sum "Si O2"
_cell_formula_units_Z 104
_cell_length_a 19.728397
_cell_length_b 31.626597
_cell_length_c 8.977349
_cell_angle_alpha 90.000000
_cell_angle_beta 90.000000
_cell_angle_gamma 90.000000
_cell_volume 5601.345641
_symmetry_space_group_name_H-M "C M M M"
_symmetry_group_IT_number 65
_symmetry_cell_setting 'orthorhombic'
loop_
_space_group_symop_operation_xyz
x,y,z
-x,-y,z
x,-y,-z
-x,y,-z
-x,-y,-z
x,y,-z
-x,y,z
x,-y,z
1/2+x,1/2+y,z
1/2-x,1/2-y,z
1/2+x,1/2-y,-z
1/2-x,1/2+y,-z
1/2-x,1/2-y,-z
1/2+x,1/2+y,-z
1/2-x,1/2+y,z
1/2+x,1/2-y,z
loop_
_atom_site_type_symbol
_atom_site_label
_atom_site_fract_x
_atom_site_fract_y
_atom_site_fract_z
Si Si1 0.710470 0.792975 0.822119
Si Si2 0.075944 0.414441 0.823450
Si Si3 0.082314 0.000000 0.168424
Si Si4 0.712409 0.371689 0.322182
Si Si5 0.577440 0.587867 0.321419
Si Si6 0.217818 0.452579 0.178127
Si Si7 0.577469 0.177256 0.677825
O O1 0.750000 0.750000 0.784906
O O2 0.751587 0.832722 0.757103
O O3 0.635405 0.794957 0.753359
O O4 0.705979 0.796885 0.000000
O O5 0.137290 0.446232 0.795326
O O6 0.086907 0.370928 0.734562
O O7 0.000000 0.430361 0.789951
O O8 0.078200 0.404136 0.000000
O O9 0.100041 0.043364 0.250312
O O10 0.000000 0.000000 0.164216
O O11 0.108447 0.000000 0.000000
O O12 0.720132 0.367782 0.500000
O O13 0.632696 0.376682 0.284899
O O14 0.746055 0.415183 0.266152
O O15 0.577404 0.582639 0.500000
O O16 0.500000 0.596966 0.274223
O O17 0.238899 0.500000 0.220314
O O18 0.229235 0.447401 0.000000
O O19 0.584794 0.178369 0.500000
O O20 0.500000 0.189414 0.716122
#
# Coordination Sequence:
#
# PCOD9490379 Si02
#       7
#    16  16   8  16  16  16  16
#     4  11  24  42  64  89 117 151 190 235 290 352
#     4   9  17  31  53  79 111 154 198 238 280 329
#     4   9  17  29  49  79 109 141 186 235 278 325
#     4  11  23  38  59  84 112 149 191 240 293 346
#     4   9  19  36  55  76 107 148 190 231 282 343
#     4  10  21  35  52  79 117 159 197 237 285 339
#     4  10  20  35  59  90 120 151 190 236 284 337
#
# _framework density 18.566967000000002
#
# number of rings (size 3 to 8) (size 9 to 14) (size 15 to 20)
#    0.000    2.077    1.538    1.615    1.077    4.923 
#    0.000    2.308    0.000    2.769    0.000    3.231 
#    0.000    0.000    0.000    0.000    0.000    0.000 
#
# Total GULP energy -290295.479066 kJ/mol
# GULP energy per Si atom -5582.605367 kJ/mol
# Density = 1.852471 g / cm^3
# Si number density = 18.566967 Si / 1000 Ang^3
#
#
#
# Elastic Constant Matrix: (Units=GPa)
#
#
# Indices 1 2 3 4 5 6 
#
# 1 123.6441 63.2973 45.7431 0.0000 0.0000 0.0000
# 2 63.2973 98.5354 42.0256 0.0000 0.0000 0.0000
# 3 45.7431 42.0256 39.0362 0.0000 0.0000 0.0000
# 4 0.0000 0.0000 0.0000 -49.2624 0.0000 0.0000
# 5 0.0000 0.0000 0.0000 0.0000 23.7674 0.0000
# 6 0.0000 0.0000 0.0000 0.0000 0.0000 27.0363
#
#
#
# Elastic Compliance Matrix: (Units=1/GPa)
#
#
# Indices 1 2 3 4 5 6 
#
# 1 0.015075 -0.003975 -0.013386 0.000000 0.000000 0.000000
# 2 -0.003975 0.019813 -0.016672 0.000000 0.000000 0.000000
# 3 -0.013386 -0.016672 0.059252 0.000000 0.000000 0.000000
# 4 0.000000 0.000000 0.000000 -0.020299 0.000000 0.000000
# 5 0.000000 0.000000 0.000000 0.000000 0.042074 0.000000
# 6 0.000000 0.000000 0.000000 0.000000 0.000000 0.036987
#
#
# Mechanical properties :
#
#
# Convention : Reuss Voigt Hill
#
# Bulk Modulus (GPa) = 38.35263 62.59418 50.47341
# Shear Modulus (GPa) = 21.77154 7.65157 14.71156
#
# Velocity S-wave (km/s) = 3.42803 2.03224 2.81793
# Velocity P-wave (km/s) = 6.03074 6.26838 6.15070
#
# Compressibility (1/GPa) = 0.02607383
#
# Stress axis : x y z
#
# Youngs Moduli (GPa) = 66.33691 50.47274 16.87715
#
# Poissons Ratio (x) = 0.20061 0.22591
# Poissons Ratio (y) = 0.26367 0.28138
# Poissons Ratio (z) = 0.88796 0.84150
#
# Static dielectric constant tensor:
#      x y z
#    x 1.694170 0.000000 0.000000 
#    y 0.000000 1.594980 0.000000 
#    z 0.000000 0.000000 1.621860 
# 
# From -- ./inp_files/12419.got.cif
#   From: 2010.05.17/outbox.cif.g08.bks.cpg/sg65_7_cif.got.tgz:12419.got - 2010.06.03 17:01:31.
