data_PCOD9490371
_publ_section_title
;
Structure prediction by ZEFSAII (Michael W. Deem and Ramdas Pophale) SiO2 
 PCOD9490371
Probable space group: C M M M
;
_chemical_formula_sum "Si O2"
_cell_formula_units_Z 80
_cell_length_a 22.408080
_cell_length_b 22.404664
_cell_length_c 7.923912
_cell_angle_alpha 90.000000
_cell_angle_beta 90.000000
_cell_angle_gamma 90.000000
_cell_volume 3978.164388
_symmetry_space_group_name_H-M "C M M M"
_symmetry_group_IT_number 65
_symmetry_cell_setting 'orthorhombic'
loop_
_space_group_symop_operation_xyz
x,y,z
-x,-y,z
x,-y,-z
-x,y,-z
-x,-y,-z
x,y,-z
-x,y,z
x,-y,z
1/2+x,1/2+y,z
1/2-x,1/2-y,z
1/2+x,1/2-y,-z
1/2-x,1/2+y,-z
1/2-x,1/2-y,-z
1/2+x,1/2+y,-z
1/2-x,1/2+y,z
1/2+x,1/2-y,z
loop_
_atom_site_type_symbol
_atom_site_label
_atom_site_fract_x
_atom_site_fract_y
_atom_site_fract_z
Si Si1 0.000000 0.068108 0.206118
Si Si2 0.730948 0.431523 0.201083
Si Si3 0.068816 0.730780 0.297255
Si Si4 0.430881 0.000000 0.202898
Si Si5 0.858433 0.616580 0.698919
Si Si6 0.116173 0.859066 0.795633
O O1 0.940892 0.102512 0.260735
O O2 0.000000 0.000000 0.262471
O O3 0.000000 0.067943 0.000000
O O4 0.732328 0.500000 0.268070
O O5 0.793622 0.398676 0.228613
O O6 0.676234 0.391382 0.266569
O O7 0.722201 0.436655 0.000000
O O8 0.064920 0.724854 0.500000
O O9 0.106254 0.674073 0.231776
O O10 0.103844 0.791501 0.258303
O O11 0.000000 0.733098 0.233407
O O12 0.398838 0.941333 0.270753
O O13 0.500000 0.000000 0.250521
O O14 0.425861 0.000000 0.000000
O O15 0.850165 0.625659 0.500000
O O16 0.117347 0.859412 0.000000
#
# Coordination Sequence:
#
# PCOD9490371 Si02
#       6
#     8  16  16   8  16  16
#     4   9  16  30  55  87 117 146 193 246 293 345
#     4  10  21  38  59  86 122 157 194 245 303 354
#     4  10  22  40  59  82 117 157 196 245 301 351
#     4  11  23  39  61  91 121 150 191 248 307 353
#     4  11  23  39  61  86 116 158 203 244 291 355
#     4  10  20  35  59  88 116 153 198 245 295 355
#
# _framework density 20.109777999999999
#
# number of rings (size 3 to 8) (size 9 to 14) (size 15 to 20)
#    0.000    1.800    2.000    2.100    0.000    7.200 
#    0.000    4.000    0.000    2.400    0.000    0.000 
#    0.000    0.000    0.000    0.000    0.000    0.000 
#
# Total GULP energy -223427.473052 kJ/mol
# GULP energy per Si atom -5585.686826 kJ/mol
# Density = 2.006401 g / cm^3
# Si number density = 20.109778 Si / 1000 Ang^3
#
#
#
# Elastic Constant Matrix: (Units=GPa)
#
#
# Indices 1 2 3 4 5 6 
#
# 1 177.3685 102.1019 3.6974 0.0000 0.0000 0.0000
# 2 102.1019 201.9571 0.9014 0.0000 0.0000 0.0000
# 3 3.6974 0.9014 14.4374 0.0000 0.0000 0.0000
# 4 0.0000 0.0000 0.0000 27.4965 0.0000 0.0000
# 5 0.0000 0.0000 0.0000 0.0000 -6.1485 0.0000
# 6 0.0000 0.0000 0.0000 0.0000 0.0000 43.0573
#
#
#
# Elastic Compliance Matrix: (Units=1/GPa)
#
#
# Indices 1 2 3 4 5 6 
#
# 1 0.007999 -0.004036 -0.001796 0.000000 0.000000 0.000000
# 2 -0.004036 0.006989 0.000597 0.000000 0.000000 0.000000
# 3 -0.001796 0.000597 0.069687 0.000000 0.000000 0.000000
# 4 0.000000 0.000000 0.000000 0.036368 0.000000 0.000000
# 5 0.000000 0.000000 0.000000 0.000000 -0.162642 0.000000
# 6 0.000000 0.000000 0.000000 0.000000 0.000000 0.023225
#
#
# Mechanical properties :
#
#
# Convention : Reuss Voigt Hill
#
# Bulk Modulus (GPa) = 13.47618 67.46270 40.46944
# Shear Modulus (GPa) = 297.05864 32.01856 164.53860
#
# Velocity S-wave (km/s) = 12.16714 3.99455 9.05526
# Velocity P-wave (km/s) = 14.28641 7.40914 11.37974
#
# Compressibility (1/GPa) = 0.07420502
#
# Stress axis : x y z
#
# Youngs Moduli (GPa) = 125.02146 143.07736 14.34982
#
# Poissons Ratio (x) = 0.57743 0.02578
# Poissons Ratio (y) = 0.50456 -0.00857
# Poissons Ratio (z) = 0.22460 -0.08545
#
# Static dielectric constant tensor:
#      x y z
#    x 1.689670 0.000000 0.000000 
#    y 0.000000 1.685770 0.000000 
#    z 0.000000 0.000000 1.739150 
# 
# From -- ./inp_files/13843.got.cif
#   From: 2010.05.17/outbox.cif.g08.bks.cpg/sg65_7_cif.got.tgz:13843.got - 2010.06.03 17:01:31.
