data_PCOD9490632
_publ_section_title
;
Structure prediction by ZEFSAII (Michael W. Deem and Ramdas Pophale) SiO2 
 PCOD9490632
Probable space group: C M M M
;
_chemical_formula_sum "Si O2"
_cell_formula_units_Z 90
_cell_length_a 7.679079
_cell_length_b 23.516368
_cell_length_c 23.495377
_cell_angle_alpha 90.000000
_cell_angle_beta 90.000000
_cell_angle_gamma 90.000000
_cell_volume 4242.890280
_symmetry_space_group_name_H-M "C M M M"
_symmetry_group_IT_number 65
_symmetry_cell_setting 'orthorhombic'
loop_
_space_group_symop_operation_xyz
x,y,z
-x,-y,z
x,-y,-z
-x,y,-z
-x,-y,-z
x,y,-z
-x,y,z
x,-y,z
1/2+x,1/2+y,z
1/2-x,1/2-y,z
1/2+x,1/2-y,-z
1/2-x,1/2+y,-z
1/2-x,1/2-y,-z
1/2+x,1/2+y,-z
1/2-x,1/2+y,z
1/2+x,1/2-y,z
loop_
_atom_site_type_symbol
_atom_site_label
_atom_site_fract_x
_atom_site_fract_y
_atom_site_fract_z
Si Si1 0.206626 0.315272 0.168310
Si Si2 0.207697 0.000000 0.740282
Si Si3 0.786189 0.000000 0.871200
Si Si4 0.785745 0.602956 0.500000
Si Si5 0.792039 0.684332 0.394484
Si Si6 0.000000 0.000000 0.500000
Si Si7 0.706410 0.387690 0.063736
Si Si8 0.207438 0.625617 0.281267
O O1 0.250000 0.250000 0.179599
O O2 0.270201 0.335900 0.106992
O O3 0.278585 0.353798 0.220076
O O4 0.000000 0.321934 0.167002
O O5 0.272843 0.000000 0.805737
O O6 0.264187 0.058534 0.711299
O O7 0.000000 0.000000 0.741836
O O8 0.725460 0.943965 0.904439
O O9 0.000000 0.000000 0.870120
O O10 0.743681 0.641868 0.445043
O O11 0.656557 0.549542 0.500000
O O12 0.000000 0.591124 0.500000
O O13 0.750000 0.750000 0.405357
O O14 0.720805 0.661843 0.333967
O O15 0.000000 0.681005 0.390851
O O16 0.500000 0.396641 0.058344
O O17 0.777314 0.379894 0.000000
O O18 0.000000 0.635135 0.279154
#
# Coordination Sequence:
#
# PCOD9490632 Si02
#       8
#    16   8   8   8  16   2  16  16
#     4  11  23  38  58  81 113 152 196 249 307 368
#     4  11  21  35  60  89 119 158 202 250 300 375
#     4   9  17  33  57  84 112 141 184 237 293 358
#     4  10  24  46  71 104 144 191 232 284 347 395
#     4  10  22  41  68  98 134 174 222 276 329 392
#     4  12  26  44  76 102 148 192 242 290 326 418
#     4  10  20  36  59  83 111 148 190 240 300 365
#     4  10  22  40  60  89 125 165 204 254 320 377
#
# _framework density 21.211956000000001
#
# number of rings (size 3 to 8) (size 9 to 14) (size 15 to 20)
#    0.000    1.778    1.778    2.000    1.244    3.911 
#    1.600    3.111    0.000    1.067    0.000    0.000 
#    0.000    0.000    0.000    0.000    0.000    0.000 
#
# Total GULP energy -251069.488947 kJ/mol
# GULP energy per Si atom -5579.321977 kJ/mol
# Density = 2.116368 g / cm^3
# Si number density = 21.211956 Si / 1000 Ang^3
#
#
#
# Elastic Constant Matrix: (Units=GPa)
#
#
# Indices 1 2 3 4 5 6 
#
# 1 49.9648 7.4296 23.3186 0.0000 0.0000 0.0000
# 2 7.4296 144.9321 44.9056 0.0000 0.0000 0.0000
# 3 23.3186 44.9056 102.1141 0.0000 0.0000 0.0000
# 4 0.0000 0.0000 0.0000 -37.0483 0.0000 0.0000
# 5 0.0000 0.0000 0.0000 0.0000 -4.8258 0.0000
# 6 0.0000 0.0000 0.0000 0.0000 0.0000 8.6947
#
#
#
# Elastic Compliance Matrix: (Units=1/GPa)
#
#
# Indices 1 2 3 4 5 6 
#
# 1 0.022434 0.000506 -0.005346 0.000000 0.000000 0.000000
# 2 0.000506 0.008000 -0.003634 0.000000 0.000000 0.000000
# 3 -0.005346 -0.003634 0.012612 0.000000 0.000000 0.000000
# 4 0.000000 0.000000 0.000000 -0.026992 0.000000 0.000000
# 5 0.000000 0.000000 0.000000 0.000000 -0.207219 0.000000
# 6 0.000000 0.000000 0.000000 0.000000 0.000000 0.115012
#
#
# Mechanical properties :
#
#
# Convention : Reuss Voigt Hill
#
# Bulk Modulus (GPa) = 38.31543 49.81320 44.06431
# Shear Modulus (GPa) = -98.99454 8.12125 -45.43664
#
# Velocity S-wave (km/s) = -6.83890 1.95881 -4.63323
# Velocity P-wave (km/s) = 6.65270 5.35261 2.79356
#
# Compressibility (1/GPa) = 0.02609915
#
# Stress axis : x y z
#
# Youngs Moduli (GPa) = 44.57604 125.00564 79.29248
#
# Poissons Ratio (x) = -0.06328 0.42386
# Poissons Ratio (y) = -0.02257 0.28811
# Poissons Ratio (z) = 0.23828 0.45421
#
# Static dielectric constant tensor:
#      x y z
#    x 1.792600 0.000000 0.000000 
#    y 0.000000 1.729980 0.000000 
#    z 0.000000 0.000000 1.787780 
# 
# From -- ./inp_files/67729.got.cif
#   From: 2010.05.17/outbox.cif.g08.bks.cpg/sg65_34_cif.got.tgz:67729.got - 2010.06.03 17:01:31.
