data_PCOD9490926
_publ_section_title
;
Structure prediction by ZEFSAII (Michael W. Deem and Ramdas Pophale) SiO2 
 PCOD9490926
Probable space group: C M M M
;
_chemical_formula_sum "Si O2"
_cell_formula_units_Z 100
_cell_length_a 20.976715
_cell_length_b 8.142697
_cell_length_c 30.453334
_cell_angle_alpha 90.000000
_cell_angle_beta 90.000000
_cell_angle_gamma 90.000000
_cell_volume 5201.643665
_symmetry_space_group_name_H-M "C M M M"
_symmetry_group_IT_number 65
_symmetry_cell_setting 'orthorhombic'
loop_
_space_group_symop_operation_xyz
x,y,z
-x,-y,z
x,-y,-z
-x,y,-z
-x,-y,-z
x,y,-z
-x,y,z
x,-y,z
1/2+x,1/2+y,z
1/2-x,1/2-y,z
1/2+x,1/2-y,-z
1/2-x,1/2+y,-z
1/2-x,1/2-y,-z
1/2+x,1/2+y,-z
1/2-x,1/2+y,z
1/2+x,1/2-y,z
loop_
_atom_site_type_symbol
_atom_site_label
_atom_site_fract_x
_atom_site_fract_y
_atom_site_fract_z
Si Si1 0.677055 0.196735 0.550934
Si Si2 0.571563 0.805893 0.213872
Si Si3 0.500000 0.000000 0.641170
Si Si4 0.678307 0.690887 0.719595
Si Si5 0.571383 0.694120 0.115787
Si Si6 0.679908 0.194918 0.950402
Si Si7 0.600854 0.307705 0.367005
O O1 0.662212 0.235117 0.500000
O O2 0.750000 0.250000 0.558920
O O3 0.630670 0.285650 0.584784
O O4 0.671809 0.000000 0.556680
O O5 0.500000 0.748884 0.227604
O O6 0.624957 0.772218 0.249750
O O7 0.586899 0.728897 0.166659
O O8 0.568249 0.000000 0.207297
O O9 0.554449 0.849046 0.640449
O O10 0.676163 0.500000 0.730507
O O11 0.750000 0.750000 0.726552
O O12 0.656219 0.711656 0.669416
O O13 0.500000 0.763435 0.107714
O O14 0.568469 0.500000 0.109844
O O15 0.624431 0.758319 0.082851
O O16 0.750000 0.250000 0.935310
O O17 0.681003 0.000000 0.953330
O O18 0.669760 0.262686 0.000000
O O19 0.577277 0.500000 0.362244
#
# Coordination Sequence:
#
# PCOD9490926 Si02
#       7
#    16  16   4  16  16  16  16
#     4  10  20  37  64  96 129 168 213 264 321 378
#     4  10  22  39  63  89 119 159 200 245 302 364
#     4  12  26  44  69  92 132 174 208 264 309 396
#     4  11  25  41  63  93 125 159 205 256 307 367
#     4  10  21  38  59  85 119 155 196 245 296 353
#     4  10  21  37  58  84 115 152 196 245 297 356
#     4  11  25  43  66  96 128 167 215 262 317 377
#
# _framework density 19.224692000000001
#
# number of rings (size 3 to 8) (size 9 to 14) (size 15 to 20)
#    0.000    1.600    0.800    3.120    3.360    6.080 
#    0.000    5.600    0.000    0.960    0.000    0.000 
#    0.000    0.000    0.000    0.000    0.000    0.000 
#
# Total GULP energy -278506.138078 kJ/mol
# GULP energy per Si atom -5570.122762 kJ/mol
# Density = 1.918094 g / cm^3
# Si number density = 19.224692 Si / 1000 Ang^3
#
#
#
# Elastic Constant Matrix: (Units=GPa)
#
#
# Indices 1 2 3 4 5 6 
#
# 1 108.4831 33.4600 63.5406 0.0000 0.0000 0.0000
# 2 33.4600 93.7889 18.8479 0.0000 0.0000 0.0000
# 3 63.5406 18.8479 72.8356 0.0000 0.0000 0.0000
# 4 0.0000 0.0000 0.0000 21.3691 0.0000 0.0000
# 5 0.0000 0.0000 0.0000 0.0000 12.9249 0.0000
# 6 0.0000 0.0000 0.0000 0.0000 0.0000 35.4373
#
#
#
# Elastic Compliance Matrix: (Units=1/GPa)
#
#
# Indices 1 2 3 4 5 6 
#
# 1 0.020083 -0.003844 -0.016525 0.000000 0.000000 0.000000
# 2 -0.003844 0.011983 0.000252 0.000000 0.000000 0.000000
# 3 -0.016525 0.000252 0.028081 0.000000 0.000000 0.000000
# 4 0.000000 0.000000 0.000000 0.046796 0.000000 0.000000
# 5 0.000000 0.000000 0.000000 0.000000 0.077370 0.000000
# 6 0.000000 0.000000 0.000000 0.000000 0.000000 0.028219
#
#
# Mechanical properties :
#
#
# Convention : Reuss Voigt Hill
#
# Bulk Modulus (GPa) = 50.21845 56.31164 53.26505
# Shear Modulus (GPa) = 19.27512 24.56354 21.91933
#
# Velocity S-wave (km/s) = 3.16986 3.57838 3.38030
# Velocity P-wave (km/s) = 6.29094 6.81381 6.55759
#
# Compressibility (1/GPa) = 0.01991300
#
# Stress axis : x y z
#
# Youngs Moduli (GPa) = 49.79419 83.45285 35.61187
#
# Poissons Ratio (x) = 0.32077 0.58849
# Poissons Ratio (y) = 0.19140 -0.00899
# Poissons Ratio (z) = 0.82286 -0.02106
#
# Static dielectric constant tensor:
#      x y z
#    x 1.709350 0.000000 0.000000 
#    y 0.000000 1.682190 0.000000 
#    z 0.000000 0.000000 1.663720 
# 
# From -- ./inp_files/75516.got.cif
#   From: 2010.05.17/outbox.cif.g08.bks.cpg/sg65_38_cif.got.tgz:75516.got - 2010.06.03 17:01:31.
