data_PCOD9490066
_publ_section_title
;
Structure prediction by ZEFSAII (Michael W. Deem and Ramdas Pophale) SiO2 
 PCOD9490066
Probable space group: C M M M
;
_chemical_formula_sum "Si O2"
_cell_formula_units_Z 96
_cell_length_a 33.630137
_cell_length_b 19.063919
_cell_length_c 8.719819
_cell_angle_alpha 90.000000
_cell_angle_beta 90.000000
_cell_angle_gamma 90.000000
_cell_volume 5590.469608
_symmetry_space_group_name_H-M "C M M M"
_symmetry_group_IT_number 65
_symmetry_cell_setting 'orthorhombic'
loop_
_space_group_symop_operation_xyz
x,y,z
-x,-y,z
x,-y,-z
-x,y,-z
-x,-y,-z
x,y,-z
-x,y,z
x,-y,z
1/2+x,1/2+y,z
1/2-x,1/2-y,z
1/2+x,1/2-y,-z
1/2-x,1/2+y,-z
1/2-x,1/2-y,-z
1/2+x,1/2+y,-z
1/2-x,1/2+y,z
1/2+x,1/2-y,z
loop_
_atom_site_type_symbol
_atom_site_label
_atom_site_fract_x
_atom_site_fract_y
_atom_site_fract_z
Si Si1 0.545242 0.783486 0.816413
Si Si2 0.246267 0.582720 0.316077
Si Si3 0.832292 0.919030 0.183243
Si Si4 0.620669 0.707612 0.683848
Si Si5 0.665726 0.153300 0.685968
Si Si6 0.584399 0.079695 0.314612
O O1 0.500000 0.766774 0.772038
O O2 0.577818 0.731570 0.744945
O O3 0.556635 0.861343 0.758555
O O4 0.548396 0.781400 0.000000
O O5 0.250308 0.591913 0.500000
O O6 0.238378 0.500000 0.288517
O O7 0.288058 0.601069 0.239347
O O8 0.208587 0.627392 0.259931
O O9 0.863844 0.865759 0.253517
O O10 0.838817 0.000000 0.231563
O O11 0.833891 0.915979 0.000000
O O12 0.619881 0.707000 0.500000
O O13 0.651345 0.769494 0.733540
O O14 0.667591 0.153100 0.500000
O O15 0.629790 0.100650 0.727132
O O16 0.581416 0.084748 0.500000
O O17 0.575463 0.000000 0.269534
#
# Coordination Sequence:
#
# PCOD9490066 Si02
#       6
#    16  16  16  16  16  16
#     4  10  21  36  53  74 102 134 165 200 249 307
#     4   9  16  28  48  71  97 133 175 212 243 281
#     4  10  21  36  52  72 101 133 163 199 247 301
#     4  10  20  35  56  78  99 126 164 208 251 298
#     4   8  15  28  47  72 100 132 171 213 252 286
#     4   9  17  30  49  73 102 138 180 220 253 286
#
# _framework density 17.172080999999999
#
# number of rings (size 3 to 8) (size 9 to 14) (size 15 to 20)
#    0.000    2.667    0.000    3.000    0.000    5.667 
#    0.000    9.167    0.000    4.500    0.000    3.500 
#    0.000    0.000    0.000    0.000    0.000    0.000 
#
# Total GULP energy -267699.608892 kJ/mol
# GULP energy per Si atom -5577.075185 kJ/mol
# Density = 1.713300 g / cm^3
# Si number density = 17.172081 Si / 1000 Ang^3
#
#
#
# Elastic Constant Matrix: (Units=GPa)
#
#
# Indices 1 2 3 4 5 6 
#
# 1 139.4411 90.9091 43.0250 0.0000 0.0000 0.0000
# 2 90.9091 89.6420 34.4670 0.0000 0.0000 0.0000
# 3 43.0250 34.4670 31.3371 0.0000 0.0000 0.0000
# 4 0.0000 0.0000 0.0000 21.9117 0.0000 0.0000
# 5 0.0000 0.0000 0.0000 0.0000 31.7651 0.0000
# 6 0.0000 0.0000 0.0000 0.0000 0.0000 9.0192
#
#
#
# Elastic Compliance Matrix: (Units=1/GPa)
#
#
# Indices 1 2 3 4 5 6 
#
# 1 0.022912 -0.019304 -0.010225 0.000000 0.000000 0.000000
# 2 -0.019304 0.035595 -0.012646 0.000000 0.000000 0.000000
# 3 -0.010225 -0.012646 0.059859 0.000000 0.000000 0.000000
# 4 0.000000 0.000000 0.000000 0.045638 0.000000 0.000000
# 5 0.000000 0.000000 0.000000 0.000000 0.031481 0.000000
# 6 0.000000 0.000000 0.000000 0.000000 0.000000 0.110874
#
#
# Mechanical properties :
#
#
# Convention : Reuss Voigt Hill
#
# Bulk Modulus (GPa) = 29.39860 66.35805 47.87832
# Shear Modulus (GPa) = 12.43633 18.67381 15.55507
#
# Velocity S-wave (km/s) = 2.69405 3.30123 3.01297
# Velocity P-wave (km/s) = 5.18019 7.29779 6.32819
#
# Compressibility (1/GPa) = 0.03401523
#
# Stress axis : x y z
#
# Youngs Moduli (GPa) = 43.64516 28.09389 16.70595
#
# Poissons Ratio (x) = 0.54233 0.17082
# Poissons Ratio (y) = 0.84254 0.21126
# Poissons Ratio (z) = 0.44628 0.35527
#
# Static dielectric constant tensor:
#      x y z
#    x 1.568780 0.000000 0.000000 
#    y 0.000000 1.573970 0.000000 
#    z 0.000000 0.000000 1.579990 
# 
# From -- ./inp_files/16353.got.cif
#   From: 2010.05.17/outbox.cif.g08.bks.cpg/sg65_9_cif.got.tgz:16353.got - 2010.06.03 17:01:31.
