data_PCOD9490505
_publ_section_title
;
Structure prediction by ZEFSAII (Michael W. Deem and Ramdas Pophale) SiO2 
 PCOD9490505
Probable space group: C M M M
;
_chemical_formula_sum "Si O2"
_cell_formula_units_Z 88
_cell_length_a 29.505886
_cell_length_b 7.530246
_cell_length_c 18.568075
_cell_angle_alpha 90.000000
_cell_angle_beta 90.000000
_cell_angle_gamma 90.000000
_cell_volume 4125.577082
_symmetry_space_group_name_H-M "C M M M"
_symmetry_group_IT_number 65
_symmetry_cell_setting 'orthorhombic'
loop_
_space_group_symop_operation_xyz
x,y,z
-x,-y,z
x,-y,-z
-x,y,-z
-x,-y,-z
x,y,-z
-x,y,z
x,-y,z
1/2+x,1/2+y,z
1/2-x,1/2-y,z
1/2+x,1/2-y,-z
1/2-x,1/2+y,-z
1/2-x,1/2-y,-z
1/2+x,1/2+y,-z
1/2-x,1/2+y,z
1/2+x,1/2-y,z
loop_
_atom_site_type_symbol
_atom_site_label
_atom_site_fract_x
_atom_site_fract_y
_atom_site_fract_z
Si Si1 0.050506 0.784571 0.204665
Si Si2 0.352971 0.217348 0.578677
Si Si3 0.303455 0.286135 0.000000
Si Si4 0.858734 0.794166 0.863403
Si Si5 0.303024 0.211300 0.277577
Si Si6 0.950179 0.709258 0.373903
O O1 0.092044 0.717302 0.156545
O O2 0.056343 0.727496 0.287761
O O3 0.000000 0.729590 0.181546
O O4 0.051803 0.000000 0.205079
O O5 0.335924 0.271329 0.500000
O O6 0.323726 0.276662 0.646893
O O7 0.404885 0.278967 0.589153
O O8 0.353223 0.000000 0.580321
O O9 0.250000 0.250000 0.000000
O O10 0.329401 0.217878 0.071090
O O11 0.306172 0.500000 0.000000
O O12 0.829475 0.787771 0.790569
O O13 0.866971 0.000000 0.882076
O O14 0.250000 0.250000 0.273235
O O15 0.309850 0.000000 0.274511
O O16 0.951929 0.500000 0.391058
O O17 0.000000 0.784699 0.391700
#
# Coordination Sequence:
#
# PCOD9490505 Si02
#       6
#    16  16   8  16  16  16
#     4   9  17  30  51  78 107 138 169 205 252 304
#     4   9  18  32  49  73 105 136 170 215 261 306
#     4  10  22  38  55  79 107 137 172 216 263 308
#     4  10  20  36  57  80 108 138 172 212 256 308
#     4  11  22  36  55  77 101 134 176 219 264 313
#     4   9  16  28  49  76 103 133 171 212 253 302
#
# _framework density 21.330348999999998
#
# number of rings (size 3 to 8) (size 9 to 14) (size 15 to 20)
#    0.000    2.364    1.818    1.091    0.000    2.909 
#    0.000    2.273    0.000    7.091    0.000    2.545 
#    0.000    5.091    0.000    0.000    0.000    0.000 
#
# Total GULP energy -245638.748335 kJ/mol
# GULP energy per Si atom -5582.698826 kJ/mol
# Density = 2.128180 g / cm^3
# Si number density = 21.330349 Si / 1000 Ang^3
#
#
#
# Elastic Constant Matrix: (Units=GPa)
#
#
# Indices 1 2 3 4 5 6 
#
# 1 140.1063 -11.8234 66.8214 0.0000 0.0000 0.0000
# 2 -11.8234 55.6509 -9.9791 0.0000 0.0000 0.0000
# 3 66.8214 -9.9791 130.5931 0.0000 0.0000 0.0000
# 4 0.0000 0.0000 0.0000 13.4635 0.0000 0.0000
# 5 0.0000 0.0000 0.0000 0.0000 15.4800 0.0000
# 6 0.0000 0.0000 0.0000 0.0000 0.0000 -4.7428
#
#
#
# Elastic Compliance Matrix: (Units=1/GPa)
#
#
# Indices 1 2 3 4 5 6 
#
# 1 0.009515 0.001165 -0.004780 0.000000 0.000000 0.000000
# 2 0.001165 0.018361 0.000807 0.000000 0.000000 0.000000
# 3 -0.004780 0.000807 0.010165 0.000000 0.000000 0.000000
# 4 0.000000 0.000000 0.000000 0.074275 0.000000 0.000000
# 5 0.000000 0.000000 0.000000 0.000000 0.064600 0.000000
# 6 0.000000 0.000000 0.000000 0.000000 0.000000 -0.210846
#
#
# Mechanical properties :
#
#
# Convention : Reuss Voigt Hill
#
# Bulk Modulus (GPa) = 30.84016 46.26534 38.55275
# Shear Modulus (GPa) = -285.62805 23.59557 -131.01624
#
# Velocity S-wave (km/s) = -11.58437 3.32956 -7.84575
# Velocity P-wave (km/s) = 12.82343 6.04304 7.99756
#
# Compressibility (1/GPa) = 0.03242525
#
# Stress axis : x y z
#
# Youngs Moduli (GPa) = 105.09331 54.46234 98.37907
#
# Poissons Ratio (x) = -0.06342 0.47023
# Poissons Ratio (y) = -0.12238 -0.07941
# Poissons Ratio (z) = 0.50232 -0.04396
#
# Static dielectric constant tensor:
#      x y z
#    x 1.767810 0.000000 0.000000 
#    y 0.000000 1.779070 0.000000 
#    z 0.000000 0.000000 1.749060 
# 
# From -- ./inp_files/50289.got.cif
#   From: 2010.05.17/outbox.cif.g08.bks.cpg/sg65_26_cif.got.tgz:50289.got - 2010.06.03 17:01:31.
