data_PCOD9490266
_publ_section_title
;
Structure prediction by ZEFSAII (Michael W. Deem and Ramdas Pophale) SiO2 
 PCOD9490266
Probable space group: C M M M
;
_chemical_formula_sum "Si O2"
_cell_formula_units_Z 80
_cell_length_a 8.666014
_cell_length_b 22.432955
_cell_length_c 22.404780
_cell_angle_alpha 90.000000
_cell_angle_beta 90.000000
_cell_angle_gamma 90.000000
_cell_volume 4355.585619
_symmetry_space_group_name_H-M "C M M M"
_symmetry_group_IT_number 65
_symmetry_cell_setting 'orthorhombic'
loop_
_space_group_symop_operation_xyz
x,y,z
-x,-y,z
x,-y,-z
-x,y,-z
-x,-y,-z
x,y,-z
-x,y,z
x,-y,z
1/2+x,1/2+y,z
1/2-x,1/2-y,z
1/2+x,1/2-y,-z
1/2-x,1/2+y,-z
1/2-x,1/2-y,-z
1/2+x,1/2+y,-z
1/2-x,1/2+y,z
1/2+x,1/2-y,z
loop_
_atom_site_type_symbol
_atom_site_label
_atom_site_fract_x
_atom_site_fract_y
_atom_site_fract_z
Si Si1 0.184102 0.569348 0.770066
Si Si2 0.178231 0.500000 0.070925
Si Si3 0.185081 0.068517 0.362830
Si Si4 0.183256 0.314899 0.000000
Si Si5 0.818615 0.120454 0.884856
Si Si6 0.184284 0.685420 0.429255
O O1 0.216943 0.500000 0.788248
O O2 0.261078 0.576579 0.705577
O O3 0.246704 0.616361 0.818572
O O4 0.000000 0.575196 0.765074
O O5 0.276159 0.444223 0.090568
O O6 0.000000 0.500000 0.094485
O O7 0.164441 0.500000 0.000000
O O8 0.250799 0.125101 0.399067
O O9 0.000000 0.069984 0.366437
O O10 0.233840 0.000000 0.380745
O O11 0.250000 0.250000 0.000000
O O12 0.243196 0.340774 0.062924
O O13 0.000000 0.320334 0.000000
O O14 0.000000 0.132007 0.881409
O O15 0.219652 0.681885 0.500000
O O16 0.250000 0.750000 0.407967
O O17 0.000000 0.686404 0.421375
#
# Coordination Sequence:
#
# PCOD9490266 Si02
#       6
#    16   8  16   8  16  16
#     4  10  20  35  57  84 118 154 190 233 287 344
#     4  11  21  33  53  83 114 142 177 226 281 332
#     4  10  21  37  58  87 124 161 200 245 297 354
#     4  12  26  45  62  79 108 146 190 236 288 348
#     4  12  23  36  58  85 113 145 184 231 284 341
#     4  10  21  38  61  88 119 157 202 249 298 352
#
# _framework density 18.36722
#
# number of rings (size 3 to 8) (size 9 to 14) (size 15 to 20)
#    0.000    1.300    2.000    4.800    0.000    4.000 
#    0.000    3.000    0.000    0.000    0.000    0.000 
#    0.000    0.000    0.000    0.000    0.000    0.000 
#
# Total GULP energy -223017.477100 kJ/mol
# GULP energy per Si atom -5575.436927 kJ/mol
# Density = 1.832542 g / cm^3
# Si number density = 18.367220 Si / 1000 Ang^3
#
#
#
# Elastic Constant Matrix: (Units=GPa)
#
#
# Indices 1 2 3 4 5 6 
#
# 1 93.0325 48.0074 44.2345 0.0000 0.0000 0.0000
# 2 48.0074 148.2035 72.8543 0.0000 0.0000 0.0000
# 3 44.2345 72.8543 92.1157 0.0000 0.0000 0.0000
# 4 0.0000 0.0000 0.0000 984.0979 0.0000 0.0000
# 5 0.0000 0.0000 0.0000 0.0000 32.7194 0.0000
# 6 0.0000 0.0000 0.0000 0.0000 0.0000 32.9040
#
#
#
# Elastic Compliance Matrix: (Units=1/GPa)
#
#
# Indices 1 2 3 4 5 6 
#
# 1 0.014302 -0.002056 -0.005242 0.000000 0.000000 0.000000
# 2 -0.002056 0.011335 -0.007978 0.000000 0.000000 0.000000
# 3 -0.005242 -0.007978 0.019683 0.000000 0.000000 0.000000
# 4 0.000000 0.000000 0.000000 0.001016 0.000000 0.000000
# 5 0.000000 0.000000 0.000000 0.000000 0.030563 0.000000
# 6 0.000000 0.000000 0.000000 0.000000 0.000000 0.030391
#
#
# Mechanical properties :
#
#
# Convention : Reuss Voigt Hill
#
# Bulk Modulus (GPa) = 67.71006 73.72711 70.71858
# Shear Modulus (GPa) = 35.02261 221.16129 128.09195
#
# Velocity S-wave (km/s) = 4.37143 10.98509 8.36007
# Velocity P-wave (km/s) = 7.90088 14.18182 11.47928
#
# Compressibility (1/GPa) = 0.01476885
#
# Stress axis : x y z
#
# Youngs Moduli (GPa) = 69.91877 88.22078 50.80624
#
# Poissons Ratio (x) = 0.18139 0.26632
# Poissons Ratio (y) = 0.14376 0.40531
# Poissons Ratio (z) = 0.36650 0.70380
#
# Static dielectric constant tensor:
#      x y z
#    x 1.620510 0.000000 0.000000 
#    y 0.000000 1.620310 0.000000 
#    z 0.000000 0.000000 1.671240 
# 
# From -- ./inp_files/59616.got.cif
#   From: 2010.05.17/outbox.cif.g08.bks.cpg/sg65_30_cif.got.tgz:59616.got - 2010.06.03 17:01:31.
