data_PCOD9490285
_publ_section_title
;
Structure prediction by ZEFSAII (Michael W. Deem and Ramdas Pophale) SiO2 
 PCOD9490285
Probable space group: C M M M
;
_chemical_formula_sum "Si O2"
_cell_formula_units_Z 56
_cell_length_a 7.666425
_cell_length_b 18.452645
_cell_length_c 20.007641
_cell_angle_alpha 90.000000
_cell_angle_beta 90.000000
_cell_angle_gamma 90.000000
_cell_volume 2830.397319
_symmetry_space_group_name_H-M "C M M M"
_symmetry_group_IT_number 65
_symmetry_cell_setting 'orthorhombic'
loop_
_space_group_symop_operation_xyz
x,y,z
-x,-y,z
x,-y,-z
-x,y,-z
-x,-y,-z
x,y,-z
-x,y,z
x,-y,z
1/2+x,1/2+y,z
1/2-x,1/2-y,z
1/2+x,1/2-y,-z
1/2-x,1/2+y,-z
1/2-x,1/2-y,-z
1/2+x,1/2+y,-z
1/2-x,1/2+y,z
1/2+x,1/2-y,z
loop_
_atom_site_type_symbol
_atom_site_label
_atom_site_fract_x
_atom_site_fract_y
_atom_site_fract_z
Si Si1 0.000000 0.084809 0.579850
Si Si2 0.787774 0.916055 0.206531
Si Si3 0.709524 0.665550 0.925534
Si Si4 0.698908 0.165724 0.658820
O O1 0.831919 0.123468 0.611230
O O2 0.000000 0.090666 0.500000
O O3 0.000000 0.000000 0.598763
O O4 0.728245 0.883187 0.135722
O O5 0.717893 0.868965 0.267714
O O6 0.000000 0.912192 0.209054
O O7 0.738119 0.000000 0.213228
O O8 0.500000 0.658075 0.927381
O O9 0.750000 0.750000 0.913081
O O10 0.776302 0.647106 0.000000
O O11 0.500000 0.158765 0.635953
O O12 0.750000 0.250000 0.661655
#
# Coordination Sequence:
#
# PCOD9490285 Si02
#       4
#     8  16  16  16
#     4  11  26  48  72 102 140 174 210 263 324 388
#     4  10  20  35  57  85 123 165 208 266 326 384
#     4   9  18  32  51  77 110 155 208 261 318 379
#     4  12  24  43  69 100 131 173 221 268 321 382
#
# _framework density 19.785208999999998
#
# number of rings (size 3 to 8) (size 9 to 14) (size 15 to 20)
#    0.000    1.571    2.857    1.714    0.000    7.429 
#    0.000    4.286    0.000    0.000    0.000    6.000 
#    0.000    0.000    0.000    0.000    0.000    0.000 
#
# Total GULP energy -156541.539800 kJ/mol
# GULP energy per Si atom -5590.769279 kJ/mol
# Density = 1.974018 g / cm^3
# Si number density = 19.785209 Si / 1000 Ang^3
#
#
#
# Elastic Constant Matrix: (Units=GPa)
#
#
# Indices 1 2 3 4 5 6 
#
# 1 120.7611 60.2148 50.0292 0.0000 0.0000 0.0000
# 2 60.2148 171.0548 91.5876 0.0000 0.0000 0.0000
# 3 50.0292 91.5876 109.3914 0.0000 0.0000 0.0000
# 4 0.0000 0.0000 0.0000 34.8955 0.0000 0.0000
# 5 0.0000 0.0000 0.0000 0.0000 -15.4625 0.0000
# 6 0.0000 0.0000 0.0000 0.0000 0.0000 26.4909
#
#
#
# Elastic Compliance Matrix: (Units=1/GPa)
#
#
# Indices 1 2 3 4 5 6 
#
# 1 0.010602 -0.002059 -0.003125 0.000000 0.000000 0.000000
# 2 -0.002059 0.010996 -0.008265 0.000000 0.000000 0.000000
# 3 -0.003125 -0.008265 0.017490 0.000000 0.000000 0.000000
# 4 0.000000 0.000000 0.000000 0.028657 0.000000 0.000000
# 5 0.000000 0.000000 0.000000 0.000000 -0.064672 0.000000
# 6 0.000000 0.000000 0.000000 0.000000 0.000000 0.037749
#
#
# Mechanical properties :
#
#
# Convention : Reuss Voigt Hill
#
# Bulk Modulus (GPa) = 82.02679 89.43006 85.72843
# Shear Modulus (GPa) = 69.65469 22.47651 46.06560
#
# Velocity S-wave (km/s) = 5.93985 3.37415 4.83046
# Velocity P-wave (km/s) = 9.41229 7.77679 8.63335
#
# Compressibility (1/GPa) = 0.01219114
#
# Stress axis : x y z
#
# Youngs Moduli (GPa) = 94.32126 90.94154 57.17469
#
# Poissons Ratio (x) = 0.18725 0.17866
# Poissons Ratio (y) = 0.19421 0.47254
# Poissons Ratio (z) = 0.29474 0.75161
#
# Static dielectric constant tensor:
#      x y z
#    x 1.718070 0.000000 0.000000 
#    y 0.000000 1.647930 0.000000 
#    z 0.000000 0.000000 1.678910 
# 
# From -- ./inp_files/58558.got.cif
#   From: 2010.05.17/outbox.cif.g08.bks.cpg/sg65_30_cif.got.tgz:58558.got - 2010.06.03 17:01:31.
