data_PCOD9490418
_publ_section_title
;
Structure prediction by ZEFSAII (Michael W. Deem and Ramdas Pophale) SiO2 
 PCOD9490418
Probable space group: C M M M
;
_chemical_formula_sum "Si O2"
_cell_formula_units_Z 116
_cell_length_a 18.957343
_cell_length_b 14.597495
_cell_length_c 24.948297
_cell_angle_alpha 90.000000
_cell_angle_beta 90.000000
_cell_angle_gamma 90.000000
_cell_volume 6903.935235
_symmetry_space_group_name_H-M "C M M M"
_symmetry_group_IT_number 65
_symmetry_cell_setting 'orthorhombic'
loop_
_space_group_symop_operation_xyz
x,y,z
-x,-y,z
x,-y,-z
-x,y,-z
-x,-y,-z
x,y,-z
-x,y,z
x,-y,z
1/2+x,1/2+y,z
1/2-x,1/2-y,z
1/2+x,1/2-y,-z
1/2-x,1/2+y,-z
1/2-x,1/2-y,-z
1/2+x,1/2+y,-z
1/2-x,1/2+y,z
1/2+x,1/2-y,z
loop_
_atom_site_type_symbol
_atom_site_label
_atom_site_fract_x
_atom_site_fract_y
_atom_site_fract_z
Si Si1 0.888112 0.500000 0.500000
Si Si2 0.844975 0.108315 0.842297
Si Si3 0.416987 0.900076 0.608734
Si Si4 0.671571 0.769685 0.316913
Si Si5 0.416560 0.711650 0.061264
Si Si6 0.917455 0.892745 0.268383
Si Si7 0.195431 0.609128 0.789132
Si Si8 0.418220 0.895962 0.118420
O O1 0.893468 0.421787 0.547978
O O2 0.869537 0.160244 0.895068
O O3 0.900785 0.123223 0.794385
O O4 0.769206 0.135313 0.817604
O O5 0.841650 0.000000 0.853644
O O6 0.500000 0.878273 0.608079
O O7 0.373019 0.825390 0.639861
O O8 0.409009 0.000000 0.636951
O O9 0.750000 0.750000 0.337292
O O10 0.631367 0.676647 0.300970
O O11 0.681334 0.831343 0.263415
O O12 0.500000 0.689716 0.069232
O O13 0.408139 0.819632 0.073332
O O14 0.398339 0.690001 0.000000
O O15 0.000000 0.877334 0.279113
O O16 0.900775 0.000000 0.279051
O O17 0.199545 0.500000 0.776439
O O18 0.133022 0.622935 0.831840
O O19 0.500000 0.890334 0.135910
O O20 0.404873 0.000000 0.099910
#
# Coordination Sequence:
#
# PCOD9490418 Si02
#       8
#     4  16  16  16  16  16  16  16
#     4   8  17  40  66  88 120 158 193 244 293 330
#     4  10  20  36  54  71 101 144 180 221 286 349
#     4   9  18  35  61  88 115 150 194 240 286 328
#     4  12  22  32  53  87 119 154 185 231 287 335
#     4  10  21  35  53  77 100 126 174 237 287 337
#     4  10  21  36  53  75 109 153 197 231 271 341
#     4  10  21  36  53  77 112 144 179 222 283 350
#     4   9  19  35  54  74 100 139 176 217 281 352
#
# _framework density 16.802011
#
# number of rings (size 3 to 8) (size 9 to 14) (size 15 to 20)
#    0.414    1.655    1.379    2.483    0.000    4.138 
#    0.000    5.172    0.000    2.483    0.000    0.000 
#    0.000    2.207    0.000    0.000    0.000    0.000 
#
# Total GULP energy -322952.069513 kJ/mol
# GULP energy per Si atom -5568.139130 kJ/mol
# Density = 1.676377 g / cm^3
# Si number density = 16.802011 Si / 1000 Ang^3
#
#
#
# Elastic Constant Matrix: (Units=GPa)
#
#
# Indices 1 2 3 4 5 6 
#
# 1 66.7098 49.3703 51.1804 0.0000 0.0000 0.0000
# 2 49.3703 77.5534 60.7004 0.0000 0.0000 0.0000
# 3 51.1804 60.7004 100.0168 0.0000 0.0000 0.0000
# 4 0.0000 0.0000 0.0000 25.6574 0.0000 0.0000
# 5 0.0000 0.0000 0.0000 0.0000 6.0993 0.0000
# 6 0.0000 0.0000 0.0000 0.0000 0.0000 25.0686
#
#
#
# Elastic Compliance Matrix: (Units=1/GPa)
#
#
# Indices 1 2 3 4 5 6 
#
# 1 0.030973 -0.013928 -0.007396 0.000000 0.000000 0.000000
# 2 -0.013928 0.030825 -0.011580 0.000000 0.000000 0.000000
# 3 -0.007396 -0.011580 0.020811 0.000000 0.000000 0.000000
# 4 0.000000 0.000000 0.000000 0.038975 0.000000 0.000000
# 5 0.000000 0.000000 0.000000 0.000000 0.163953 0.000000
# 6 0.000000 0.000000 0.000000 0.000000 0.000000 0.039891
#
#
# Mechanical properties :
#
#
# Convention : Reuss Voigt Hill
#
# Bulk Modulus (GPa) = 59.52656 62.97582 61.25119
# Shear Modulus (GPa) = 12.59965 16.90030 14.74998
#
# Velocity S-wave (km/s) = 2.74138 3.17495 2.96610
# Velocity P-wave (km/s) = 6.74725 7.14163 6.94724
#
# Compressibility (1/GPa) = 0.01679922
#
# Stress axis : x y z
#
# Youngs Moduli (GPa) = 32.28657 32.44134 48.05084
#
# Poissons Ratio (x) = 0.45185 0.35540
# Poissons Ratio (y) = 0.44969 0.55645
# Poissons Ratio (z) = 0.23880 0.37568
#
# Static dielectric constant tensor:
#      x y z
#    x 1.576230 0.000000 0.000000 
#    y 0.000000 1.598520 0.000000 
#    z 0.000000 0.000000 1.519960 
# 
# From -- ./inp_files/70609.got.cif
#   From: 2010.05.17/outbox.cif.g08.bks.cpg/sg65_36_cif.got.tgz:70609.got - 2010.06.03 17:01:31.
