data_PCOD9490628
_publ_section_title
;
Structure prediction by ZEFSAII (Michael W. Deem and Ramdas Pophale) SiO2 
 PCOD9490628
Probable space group: C M M M
;
_chemical_formula_sum "Si O2"
_cell_formula_units_Z 80
_cell_length_a 8.551075
_cell_length_b 18.829995
_cell_length_c 26.388081
_cell_angle_alpha 90.000000
_cell_angle_beta 90.000000
_cell_angle_gamma 90.000000
_cell_volume 4248.921709
_symmetry_space_group_name_H-M "C M M M"
_symmetry_group_IT_number 65
_symmetry_cell_setting 'orthorhombic'
loop_
_space_group_symop_operation_xyz
x,y,z
-x,-y,z
x,-y,-z
-x,y,-z
-x,-y,-z
x,y,-z
-x,y,z
x,-y,z
1/2+x,1/2+y,z
1/2-x,1/2-y,z
1/2+x,1/2-y,-z
1/2-x,1/2+y,-z
1/2-x,1/2-y,-z
1/2+x,1/2+y,-z
1/2-x,1/2+y,z
1/2+x,1/2-y,z
loop_
_atom_site_type_symbol
_atom_site_label
_atom_site_fract_x
_atom_site_fract_y
_atom_site_fract_z
Si Si1 0.312437 0.829378 0.093501
Si Si2 0.688630 0.170666 0.208110
Si Si3 0.687179 0.581407 0.000000
Si Si4 0.690550 0.418011 0.500000
Si Si5 0.812155 0.169764 0.400667
Si Si6 0.810559 0.581915 0.305150
O O1 0.500000 0.828723 0.091469
O O2 0.250000 0.750000 0.084521
O O3 0.263363 0.849715 0.150886
O O4 0.248407 0.879808 0.050094
O O5 0.500000 0.173195 0.208740
O O6 0.750000 0.250000 0.218473
O O7 0.739375 0.116726 0.251806
O O8 0.739222 0.500000 0.000000
O O9 0.500000 0.584170 0.000000
O O10 0.743632 0.500000 0.500000
O O11 0.500000 0.419370 0.500000
O O12 0.739633 0.375224 0.449934
O O13 0.750000 0.250000 0.402637
O O14 0.753124 0.129363 0.350825
O O15 0.000000 0.171777 0.400246
O O16 0.760117 0.500000 0.309664
O O17 0.000000 0.583265 0.306782
#
# Coordination Sequence:
#
# PCOD9490628 Si02
#       6
#    16  16   8   8  16  16
#     4  10  20  36  59  83 108 141 182 223 265 320
#     4   9  19  35  56  81 108 141 179 221 268 318
#     4  11  24  39  54  77 111 145 178 223 276 323
#     4   9  19  36  57  81 110 143 180 225 274 324
#     4  11  22  37  58  82 110 145 186 228 271 322
#     4  10  21  37  56  81 114 147 180 223 274 324
#
# _framework density 18.828306999999999
#
# number of rings (size 3 to 8) (size 9 to 14) (size 15 to 20)
#    0.000    2.000    0.000    3.300    0.000    6.000 
#    0.000    3.500    0.000    3.600    0.000    0.000 
#    0.000    0.000    0.000    0.000    0.000    0.000 
#
# Total GULP energy -223437.354555 kJ/mol
# GULP energy per Si atom -5585.933864 kJ/mol
# Density = 1.878545 g / cm^3
# Si number density = 18.828307 Si / 1000 Ang^3
#
#
#
# Elastic Constant Matrix: (Units=GPa)
#
#
# Indices 1 2 3 4 5 6 
#
# 1 24.6610 34.4474 35.8031 0.0000 0.0000 0.0000
# 2 34.4474 187.6618 139.0984 0.0000 0.0000 0.0000
# 3 35.8031 139.0984 184.4828 0.0000 0.0000 0.0000
# 4 0.0000 0.0000 0.0000 -29.3627 0.0000 0.0000
# 5 0.0000 0.0000 0.0000 0.0000 11.2178 0.0000
# 6 0.0000 0.0000 0.0000 0.0000 0.0000 19.7738
#
#
#
# Elastic Compliance Matrix: (Units=1/GPa)
#
#
# Indices 1 2 3 4 5 6 
#
# 1 0.058679 -0.005282 -0.007405 0.000000 0.000000 0.000000
# 2 -0.005282 0.012555 -0.008441 0.000000 0.000000 0.000000
# 3 -0.007405 -0.008441 0.013222 0.000000 0.000000 0.000000
# 4 0.000000 0.000000 0.000000 -0.034057 0.000000 0.000000
# 5 0.000000 0.000000 0.000000 0.000000 0.089144 0.000000
# 6 0.000000 0.000000 0.000000 0.000000 0.000000 0.050572
#
#
# Mechanical properties :
#
#
# Convention : Reuss Voigt Hill
#
# Bulk Modulus (GPa) = 23.69716 90.61151 57.15433
# Shear Modulus (GPa) = 20.28886 12.82291 16.55588
#
# Velocity S-wave (km/s) = 3.28620 2.61251 2.96853
# Velocity P-wave (km/s) = 5.19731 7.57165 6.49392
#
# Compressibility (1/GPa) = 0.04219916
#
# Stress axis : x y z
#
# Youngs Moduli (GPa) = 17.04176 79.64748 75.62874
#
# Poissons Ratio (x) = 0.42073 0.56005
# Poissons Ratio (y) = 0.09002 0.63842
# Poissons Ratio (z) = 0.12620 0.67234
#
# Static dielectric constant tensor:
#      x y z
#    x 1.639650 0.000000 0.000000 
#    y 0.000000 1.613760 0.000000 
#    z 0.000000 0.000000 1.645210 
# 
# From -- ./inp_files/72921.got.cif
#   From: 2010.05.17/outbox.cif.g08.bks.cpg/sg65_37_cif.got.tgz:72921.got - 2010.06.03 17:01:31.
