data_PCOD9490806
_publ_section_title
;
Structure prediction by ZEFSAII (Michael W. Deem and Ramdas Pophale) SiO2 
 PCOD9490806
Probable space group: C M M M
;
_chemical_formula_sum "Si O2"
_cell_formula_units_Z 104
_cell_length_a 11.040237
_cell_length_b 18.424747
_cell_length_c 28.327485
_cell_angle_alpha 90.000000
_cell_angle_beta 90.000000
_cell_angle_gamma 90.000000
_cell_volume 5762.194953
_symmetry_space_group_name_H-M "C M M M"
_symmetry_group_IT_number 65
_symmetry_cell_setting 'orthorhombic'
loop_
_space_group_symop_operation_xyz
x,y,z
-x,-y,z
x,-y,-z
-x,y,-z
-x,-y,-z
x,y,-z
-x,y,z
x,-y,z
1/2+x,1/2+y,z
1/2-x,1/2-y,z
1/2+x,1/2-y,-z
1/2-x,1/2+y,-z
1/2-x,1/2-y,-z
1/2+x,1/2+y,-z
1/2-x,1/2+y,z
1/2+x,1/2-y,z
loop_
_atom_site_type_symbol
_atom_site_label
_atom_site_fract_x
_atom_site_fract_y
_atom_site_fract_z
Si Si1 0.359412 0.918505 0.634612
Si Si2 0.637124 0.195879 0.191980
Si Si3 0.357987 0.807705 0.918775
Si Si4 0.237908 0.587517 0.264807
Si Si5 0.000000 0.088875 0.599733
Si Si6 0.145244 0.419748 0.000000
Si Si7 0.000000 0.912532 0.711652
Si Si8 0.238680 0.836962 0.444875
O O1 0.500000 0.923212 0.645547
O O2 0.296970 0.890338 0.681879
O O3 0.339482 0.871386 0.588598
O O4 0.310655 0.000000 0.625776
O O5 0.500000 0.225212 0.199572
O O6 0.750000 0.250000 0.200742
O O7 0.644651 0.174122 0.136819
O O8 0.658553 0.128256 0.226489
O O9 0.500000 0.785029 0.928989
O O10 0.250000 0.750000 0.926778
O O11 0.327242 0.874088 0.953177
O O12 0.224697 0.500000 0.261761
O O13 0.378582 0.609103 0.261477
O O14 0.000000 0.106887 0.655924
O O15 0.884019 0.126788 0.575521
O O16 0.000000 0.000000 0.594506
O O17 0.199203 0.500000 0.000000
O O18 0.000000 0.426299 0.000000
O O19 0.000000 0.000000 0.710784
O O20 0.250658 0.855369 0.500000
O O21 0.250000 0.750000 0.440665
#
# Coordination Sequence:
#
# PCOD9490806 Si02
#       8
#    16  16  16  16   8   8   8  16
#     4  10  21  38  59  80 106 144 186 224 269 337
#     4  10  22  37  55  83 117 153 192 238 285 339
#     4   9  18  34  55  80 111 151 195 234 282 337
#     4  10  20  37  59  83 111 144 186 233 286 339
#     4  11  21  42  69  88 107 144 197 236 271 340
#     4   9  17  30  53  85 116 145 188 244 292 335
#     4   9  18  35  60  85 110 142 184 237 284 333
#     4  11  25  40  57  84 117 144 174 227 288 337
#
# _framework density 18.048677000000001
#
# number of rings (size 3 to 8) (size 9 to 14) (size 15 to 20)
#    0.000    2.077    1.538    1.385    2.154    4.000 
#    0.000    2.308    0.000    0.923    0.000    0.000 
#    0.000    0.000    0.000    0.000    0.000    0.000 
#
# Total GULP energy -289754.360019 kJ/mol
# GULP energy per Si atom -5572.199231 kJ/mol
# Density = 1.800760 g / cm^3
# Si number density = 18.048677 Si / 1000 Ang^3
#
#
#
# Elastic Constant Matrix: (Units=GPa)
#
#
# Indices 1 2 3 4 5 6 
#
# 1 100.7951 29.0547 29.7546 0.0000 0.0000 0.0000
# 2 29.0547 65.3599 51.4915 0.0000 0.0000 0.0000
# 3 29.7546 51.4915 63.1592 0.0000 0.0000 0.0000
# 4 0.0000 0.0000 0.0000 22.0418 0.0000 0.0000
# 5 0.0000 0.0000 0.0000 0.0000 13.8908 0.0000
# 6 0.0000 0.0000 0.0000 0.0000 0.0000 20.3913
#
#
#
# Elastic Compliance Matrix: (Units=1/GPa)
#
#
# Indices 1 2 3 4 5 6 
#
# 1 0.011656 -0.002391 -0.003542 0.000000 0.000000 0.000000
# 2 -0.002391 0.043261 -0.034142 0.000000 0.000000 0.000000
# 3 -0.003542 -0.034142 0.045337 0.000000 0.000000 0.000000
# 4 0.000000 0.000000 0.000000 0.045368 0.000000 0.000000
# 5 0.000000 0.000000 0.000000 0.000000 0.071990 0.000000
# 6 0.000000 0.000000 0.000000 0.000000 0.000000 0.049040
#
#
# Mechanical properties :
#
#
# Convention : Reuss Voigt Hill
#
# Bulk Modulus (GPa) = 49.74483 49.99063 49.86773
# Shear Modulus (GPa) = 14.14411 19.19901 16.67156
#
# Velocity S-wave (km/s) = 2.80244 3.26503 3.04254
# Velocity P-wave (km/s) = 6.17194 6.47856 6.32711
#
# Compressibility (1/GPa) = 0.02010259
#
# Stress axis : x y z
#
# Youngs Moduli (GPa) = 85.79341 23.11558 22.05724
#
# Poissons Ratio (x) = 0.05528 0.07812
# Poissons Ratio (y) = 0.20516 0.75309
# Poissons Ratio (z) = 0.30384 0.78922
#
# Static dielectric constant tensor:
#      x y z
#    x 1.670430 0.000000 0.000000 
#    y 0.000000 1.625310 0.000000 
#    z 0.000000 0.000000 1.587970 
# 
# From -- ./inp_files/74430.got.cif
#   From: 2010.05.17/outbox.cif.g08.bks.cpg/sg65_38_cif.got.tgz:74430.got - 2010.06.03 17:01:31.
