data_PCOD9490769
_publ_section_title
;
Structure prediction by ZEFSAII (Michael W. Deem and Ramdas Pophale) SiO2 
 PCOD9490769
Probable space group: C M M M
;
_chemical_formula_sum "Si O2"
_cell_formula_units_Z 64
_cell_length_a 24.482773
_cell_length_b 8.432493
_cell_length_c 16.004181
_cell_angle_alpha 90.000000
_cell_angle_beta 90.000000
_cell_angle_gamma 90.000000
_cell_volume 3304.076162
_symmetry_space_group_name_H-M "C M M M"
_symmetry_group_IT_number 65
_symmetry_cell_setting 'orthorhombic'
loop_
_space_group_symop_operation_xyz
x,y,z
-x,-y,z
x,-y,-z
-x,y,-z
-x,-y,-z
x,y,-z
-x,y,z
x,-y,z
1/2+x,1/2+y,z
1/2-x,1/2-y,z
1/2+x,1/2-y,-z
1/2-x,1/2+y,-z
1/2-x,1/2-y,-z
1/2+x,1/2+y,-z
1/2-x,1/2+y,z
1/2+x,1/2-y,z
loop_
_atom_site_type_symbol
_atom_site_label
_atom_site_fract_x
_atom_site_fract_y
_atom_site_fract_z
Si Si1 0.500000 0.189987 0.401292
Si Si2 0.311697 0.811974 0.500000
Si Si3 0.117444 0.810061 0.345262
Si Si4 0.500000 0.693250 0.097180
Si Si5 0.117920 0.193589 0.840647
Si Si6 0.188317 0.191934 0.000000
O O1 0.500000 0.230435 0.500000
O O2 0.555122 0.257672 0.361422
O O3 0.500000 0.000000 0.394005
O O4 0.250000 0.750000 0.500000
O O5 0.344446 0.755038 0.418348
O O6 0.310968 0.000000 0.500000
O O7 0.134579 0.756379 0.252289
O O8 0.119564 0.000000 0.348090
O O9 0.500000 0.500000 0.098528
O O10 0.444186 0.745286 0.140684
O O11 0.500000 0.740293 0.000000
O O12 0.117896 0.000000 0.841662
O O13 0.156390 0.245538 0.916637
O O14 0.250000 0.250000 0.000000
O O15 0.187470 0.000000 0.000000
#
# Coordination Sequence:
#
# PCOD9490769 Si02
#       6
#     8   8  16   8  16   8
#     4  11  22  37  59  88 123 161 196 236 295 356
#     4  12  26  45  64  85 114 154 200 246 300 354
#     4  11  22  38  62  92 121 153 197 246 295 349
#     4   9  13  24  50  83 115 147 180 226 281 333
#     4   9  18  32  55  87 117 146 186 236 289 343
#     4  10  20  37  57  81 115 152 191 234 280 338
#
# _framework density 19.370013
#
# number of rings (size 3 to 8) (size 9 to 14) (size 15 to 20)
#    0.000    1.750    2.500    3.000    0.000    3.500 
#    0.000    5.000    0.000    0.000    0.000    1.750 
#    0.000    0.000    0.000    0.000    0.000    0.000 
#
# Total GULP energy -178775.653134 kJ/mol
# GULP energy per Si atom -5586.739160 kJ/mol
# Density = 1.932593 g / cm^3
# Si number density = 19.370013 Si / 1000 Ang^3
#
#
#
# Elastic Constant Matrix: (Units=GPa)
#
#
# Indices 1 2 3 4 5 6 
#
# 1 168.8424 27.1175 106.7361 0.0000 0.0000 0.0000
# 2 27.1175 42.0185 42.0595 0.0000 0.0000 0.0000
# 3 106.7361 42.0595 218.4471 0.0000 0.0000 0.0000
# 4 0.0000 0.0000 0.0000 1.2823 0.0000 0.0000
# 5 0.0000 0.0000 0.0000 0.0000 -0.4266 0.0000
# 6 0.0000 0.0000 0.0000 0.0000 0.0000 32.5066
#
#
#
# Elastic Compliance Matrix: (Units=1/GPa)
#
#
# Indices 1 2 3 4 5 6 
#
# 1 0.008664 -0.001677 -0.003910 0.000000 0.000000 0.000000
# 2 -0.001677 0.029805 -0.004919 0.000000 0.000000 0.000000
# 3 -0.003910 -0.004919 0.007436 0.000000 0.000000 0.000000
# 4 0.000000 0.000000 0.000000 0.779847 0.000000 0.000000
# 5 0.000000 0.000000 0.000000 0.000000 -2.344277 0.000000
# 6 0.000000 0.000000 0.000000 0.000000 0.000000 0.030763
#
#
# Mechanical properties :
#
#
# Convention : Reuss Voigt Hill
#
# Bulk Modulus (GPa) = 40.17454 86.79269 63.48361
# Shear Modulus (GPa) = -3.42829 23.56546 10.06858
#
# Velocity S-wave (km/s) = -1.33182 3.49176 2.28239
# Velocity P-wave (km/s) = 4.29193 7.82058 6.30802
#
# Compressibility (1/GPa) = 0.02489139
#
# Stress axis : x y z
#
# Youngs Moduli (GPa) = 115.41848 33.55086 134.48809
#
# Poissons Ratio (x) = 0.05627 0.52591
# Poissons Ratio (y) = 0.19359 0.66157
# Poissons Ratio (z) = 0.45134 0.16504
#
# Static dielectric constant tensor:
#      x y z
#    x 1.630840 0.000000 0.000000 
#    y 0.000000 1.665790 0.000000 
#    z 0.000000 0.000000 1.689890 
# 
# From -- ./inp_files/45169.got.cif
#   From: 2010.05.17/outbox.cif.g08.bks.cpg/sg65_23_cif.got.tgz:45169.got - 2010.06.03 17:01:31.
