data_PCOD9490601
_publ_section_title
;
Structure prediction by ZEFSAII (Michael W. Deem and Ramdas Pophale) SiO2 
 PCOD9490601
Probable space group: C M M M
;
_chemical_formula_sum "Si O2"
_cell_formula_units_Z 80
_cell_length_a 27.534354
_cell_length_b 8.599087
_cell_length_c 18.866532
_cell_angle_alpha 90.000000
_cell_angle_beta 90.000000
_cell_angle_gamma 90.000000
_cell_volume 4467.034546
_symmetry_space_group_name_H-M "C M M M"
_symmetry_group_IT_number 65
_symmetry_cell_setting 'orthorhombic'
loop_
_space_group_symop_operation_xyz
x,y,z
-x,-y,z
x,-y,-z
-x,y,-z
-x,-y,-z
x,y,-z
-x,y,z
x,-y,z
1/2+x,1/2+y,z
1/2-x,1/2-y,z
1/2+x,1/2-y,-z
1/2-x,1/2+y,-z
1/2-x,1/2-y,-z
1/2+x,1/2+y,-z
1/2-x,1/2+y,z
1/2+x,1/2-y,z
loop_
_atom_site_type_symbol
_atom_site_label
_atom_site_fract_x
_atom_site_fract_y
_atom_site_fract_z
Si Si1 0.399034 0.314030 0.645287
Si Si2 0.804761 0.686096 0.000000
Si Si3 0.555695 0.186347 0.787873
Si Si4 0.442608 0.186418 0.500000
Si Si5 0.150545 0.185614 0.144362
Si Si6 0.803082 0.313980 0.712519
O O1 0.400094 0.500000 0.649631
O O2 0.431754 0.243873 0.708640
O O3 0.418407 0.256162 0.570209
O O4 0.344769 0.253716 0.661556
O O5 0.750000 0.750000 0.000000
O O6 0.831379 0.747863 0.070134
O O7 0.804064 0.500000 0.000000
O O8 0.500000 0.223419 0.805316
O O9 0.595289 0.265378 0.838462
O O10 0.562112 0.000000 0.790360
O O11 0.500000 0.222361 0.500000
O O12 0.437046 0.000000 0.500000
O O13 0.182113 0.257023 0.208658
O O14 0.155278 0.000000 0.145840
O O15 0.803853 0.500000 0.710470
O O16 0.750000 0.250000 0.694981
#
# Coordination Sequence:
#
# PCOD9490601 Si02
#       6
#    16   8  16   8  16  16
#     4  11  22  36  56  84 114 145 185 230 276 326
#     4  12  24  40  59  82 113 146 182 225 277 331
#     4  10  20  36  58  83 112 148 187 227 274 326
#     4  11  23  39  58  81 112 149 185 225 277 331
#     4  11  22  37  57  84 114 145 185 229 275 326
#     4  11  21  37  59  83 112 147 186 227 274 325
#
# _framework density 17.908973
#
# number of rings (size 3 to 8) (size 9 to 14) (size 15 to 20)
#    0.000    1.100    0.000   10.800    0.000    4.800 
#    0.000    1.000    0.000    3.000    0.000    0.000 
#    0.000    0.000    0.000    0.000    0.000    0.000 
#
# Total GULP energy -223718.760395 kJ/mol
# GULP energy per Si atom -5592.969010 kJ/mol
# Density = 1.786821 g / cm^3
# Si number density = 17.908973 Si / 1000 Ang^3
#
#
#
# Elastic Constant Matrix: (Units=GPa)
#
#
# Indices 1 2 3 4 5 6 
#
# 1 116.3905 38.9070 59.5318 0.0000 0.0000 0.0000
# 2 38.9070 124.0549 36.8944 0.0000 0.0000 0.0000
# 3 59.5318 36.8944 126.8248 0.0000 0.0000 0.0000
# 4 0.0000 0.0000 0.0000 30.5407 0.0000 0.0000
# 5 0.0000 0.0000 0.0000 0.0000 7.9624 0.0000
# 6 0.0000 0.0000 0.0000 0.0000 0.0000 33.7071
#
#
#
# Elastic Compliance Matrix: (Units=1/GPa)
#
#
# Indices 1 2 3 4 5 6 
#
# 1 0.011858 -0.002259 -0.004909 0.000000 0.000000 0.000000
# 2 -0.002259 0.009255 -0.001632 0.000000 0.000000 0.000000
# 3 -0.004909 -0.001632 0.010664 0.000000 0.000000 0.000000
# 4 0.000000 0.000000 0.000000 0.032743 0.000000 0.000000
# 5 0.000000 0.000000 0.000000 0.000000 0.125590 0.000000
# 6 0.000000 0.000000 0.000000 0.000000 0.000000 0.029667
#
#
# Mechanical properties :
#
#
# Convention : Reuss Voigt Hill
#
# Bulk Modulus (GPa) = 70.53781 70.88182 70.70981
# Shear Modulus (GPa) = 20.65244 29.90451 25.27848
#
# Velocity S-wave (km/s) = 3.39955 4.09076 3.76107
# Velocity P-wave (km/s) = 7.40821 7.87256 7.64391
#
# Compressibility (1/GPa) = 0.01417679
#
# Stress axis : x y z
#
# Youngs Moduli (GPa) = 84.33335 108.05248 93.77467
#
# Poissons Ratio (x) = 0.24409 0.46033
# Poissons Ratio (y) = 0.19051 0.15303
# Poissons Ratio (z) = 0.41398 0.17633
#
# Static dielectric constant tensor:
#      x y z
#    x 1.606000 0.000000 0.000000 
#    y 0.000000 1.596170 0.000000 
#    z 0.000000 0.000000 1.574810 
# 
# From -- ./inp_files/57320.got.cif
#   From: 2010.05.17/outbox.cif.g08.bks.cpg/sg65_29_cif.got.tgz:57320.got - 2010.06.03 17:01:31.
