data_PCOD9490084
_publ_section_title
;
Structure prediction by ZEFSAII (Michael W. Deem and Ramdas Pophale) SiO2 
 PCOD9490084
Probable space group: C M M M
;
_chemical_formula_sum "Si O2"
_cell_formula_units_Z 72
_cell_length_a 19.676791
_cell_length_b 8.704434
_cell_length_c 22.993542
_cell_angle_alpha 90.000000
_cell_angle_beta 90.000000
_cell_angle_gamma 90.000000
_cell_volume 3938.226462
_symmetry_space_group_name_H-M "C M M M"
_symmetry_group_IT_number 65
_symmetry_cell_setting 'orthorhombic'
loop_
_space_group_symop_operation_xyz
x,y,z
-x,-y,z
x,-y,-z
-x,y,-z
-x,-y,-z
x,y,-z
-x,y,z
x,-y,z
1/2+x,1/2+y,z
1/2-x,1/2-y,z
1/2+x,1/2-y,-z
1/2-x,1/2+y,-z
1/2-x,1/2-y,-z
1/2+x,1/2+y,-z
1/2-x,1/2+y,z
1/2+x,1/2-y,z
loop_
_atom_site_type_symbol
_atom_site_label
_atom_site_fract_x
_atom_site_fract_y
_atom_site_fract_z
Si Si1 0.175669 0.184416 0.763028
Si Si2 0.176295 0.185019 0.897397
Si Si3 0.676133 0.316459 0.568232
Si Si4 0.078921 0.684234 0.335032
Si Si5 0.077610 0.812306 0.000000
O O1 0.250000 0.250000 0.747343
O O2 0.162356 0.228485 0.830386
O O3 0.119085 0.249927 0.720309
O O4 0.177392 0.000000 0.758865
O O5 0.250000 0.250000 0.913746
O O6 0.179764 0.000000 0.899459
O O7 0.119246 0.236069 0.942844
O O8 0.665264 0.280676 0.500000
O O9 0.677272 0.500000 0.575202
O O10 0.750000 0.250000 0.584822
O O11 0.618334 0.245489 0.608456
O O12 0.082224 0.500000 0.334055
O O13 0.000000 0.731205 0.334994
O O14 0.000000 0.759468 0.000000
O O15 0.076599 0.000000 0.000000
#
# Coordination Sequence:
#
# PCOD9490084 Si02
#       5
#    16  16  16  16   8
#     4  10  20  35  56  80 106 138 179 224 268 317
#     4   9  18  32  53  78 102 134 173 216 263 310
#     4  10  21  38  61  86 111 141 178 220 264 312
#     4  11  24  39  55  78 110 146 180 218 267 318
#     4   9  17  30  49  75 106 137 172 214 260 311
#
# _framework density 18.282340999999999
#
# number of rings (size 3 to 8) (size 9 to 14) (size 15 to 20)
#    0.000    2.111    0.000    3.000    0.000    5.333 
#    0.000    4.444    0.000    1.333    0.000    0.000 
#    0.000    0.000    0.000    0.000    0.000    0.000 
#
# Total GULP energy -201074.447916 kJ/mol
# GULP energy per Si atom -5585.401331 kJ/mol
# Density = 1.824073 g / cm^3
# Si number density = 18.282341 Si / 1000 Ang^3
#
#
#
# Elastic Constant Matrix: (Units=GPa)
#
#
# Indices 1 2 3 4 5 6 
#
# 1 206.7889 52.6011 122.8938 0.0000 0.0000 0.0000
# 2 52.6011 37.2246 42.1252 0.0000 0.0000 0.0000
# 3 122.8938 42.1252 117.7372 0.0000 0.0000 0.0000
# 4 0.0000 0.0000 0.0000 7.1154 0.0000 0.0000
# 5 0.0000 0.0000 0.0000 0.0000 -18.3234 0.0000
# 6 0.0000 0.0000 0.0000 0.0000 0.0000 29.9055
#
#
#
# Elastic Compliance Matrix: (Units=1/GPa)
#
#
# Indices 1 2 3 4 5 6 
#
# 1 0.013307 -0.005184 -0.012035 0.000000 0.000000 0.000000
# 2 -0.005184 0.047161 -0.011462 0.000000 0.000000 0.000000
# 3 -0.012035 -0.011462 0.025156 0.000000 0.000000 0.000000
# 4 0.000000 0.000000 0.000000 0.140540 0.000000 0.000000
# 5 0.000000 0.000000 0.000000 0.000000 -0.054575 0.000000
# 6 0.000000 0.000000 0.000000 0.000000 0.000000 0.033439
#
#
# Mechanical properties :
#
#
# Convention : Reuss Voigt Hill
#
# Bulk Modulus (GPa) = 35.38377 88.55455 61.96916
# Shear Modulus (GPa) = 18.39513 13.34821 15.87167
#
# Velocity S-wave (km/s) = 3.17546 2.70500 2.94962
# Velocity P-wave (km/s) = 5.73069 7.63534 6.75052
#
# Compressibility (1/GPa) = 0.02826154
#
# Stress axis : x y z
#
# Youngs Moduli (GPa) = 75.14996 21.20386 39.75161
#
# Poissons Ratio (x) = 0.10993 0.47839
# Poissons Ratio (y) = 0.38961 0.45564
# Poissons Ratio (z) = 0.90440 0.24304
#
# Static dielectric constant tensor:
#      x y z
#    x 1.589680 0.000000 0.000000 
#    y 0.000000 1.614390 0.000000 
#    z 0.000000 0.000000 1.633790 
# 
# From -- ./inp_files/67076.got.cif
#   From: 2010.05.17/outbox.cif.g08.bks.cpg/sg65_34_cif.got.tgz:67076.got - 2010.06.03 17:01:31.
