data_PCOD9490777
_publ_section_title
;
Structure prediction by ZEFSAII (Michael W. Deem and Ramdas Pophale) SiO2 
 PCOD9490777
Probable space group: C M M M
;
_chemical_formula_sum "Si O2"
_cell_formula_units_Z 50
_cell_length_a 19.526726
_cell_length_b 14.650529
_cell_length_c 10.200917
_cell_angle_alpha 90.000000
_cell_angle_beta 90.000000
_cell_angle_gamma 90.000000
_cell_volume 2918.246361
_symmetry_space_group_name_H-M "C M M M"
_symmetry_group_IT_number 65
_symmetry_cell_setting 'orthorhombic'
loop_
_space_group_symop_operation_xyz
x,y,z
-x,-y,z
x,-y,-z
-x,y,-z
-x,-y,-z
x,y,-z
-x,y,z
x,-y,z
1/2+x,1/2+y,z
1/2-x,1/2-y,z
1/2+x,1/2-y,-z
1/2-x,1/2+y,-z
1/2-x,1/2-y,-z
1/2+x,1/2+y,-z
1/2-x,1/2+y,z
1/2+x,1/2-y,z
loop_
_atom_site_type_symbol
_atom_site_label
_atom_site_fract_x
_atom_site_fract_y
_atom_site_fract_z
Si Si1 0.000000 0.000000 0.000000
Si Si2 0.580331 0.300146 0.649364
Si Si3 0.735625 0.000000 0.157803
Si Si4 0.893192 0.000000 0.245639
Si Si5 0.321578 0.195416 0.847249
O O1 0.060088 0.000000 0.115332
O O2 0.600992 0.279297 0.500000
O O3 0.500000 0.279419 0.664848
O O4 0.590360 0.407625 0.676547
O O5 0.624512 0.244388 0.753942
O O6 0.695269 0.908121 0.193429
O O7 0.812428 0.000000 0.212754
O O8 0.742221 0.000000 0.000000
O O9 0.250000 0.250000 0.840806
O O10 0.344065 0.197095 0.000000
#
# Coordination Sequence:
#
# PCOD9490777 Si02
#       5
#     2  16   8   8  16
#     4  12  24  28  62 100 124 158 196 236 300 380
#     4  11  24  40  57  84 123 159 195 241 294 351
#     4  10  20  37  57  88 124 144 186 247 297 337
#     4  12  21  35  58  91 124 152 190 240 296 355
#     4  10  21  37  62  87 115 153 194 244 294 349
#
# _framework density 17.133579000000001
#
# number of rings (size 3 to 8) (size 9 to 14) (size 15 to 20)
#    0.000    1.280    5.600    0.480    2.240    2.560 
#    0.000    1.600    0.000    4.800    0.000    0.000 
#    0.000    0.000    0.000    0.000    0.000    0.000 
#
# Total GULP energy -139334.096714 kJ/mol
# GULP energy per Si atom -5573.363869 kJ/mol
# Density = 1.709458 g / cm^3
# Si number density = 17.133579 Si / 1000 Ang^3
#
#
#
# Elastic Constant Matrix: (Units=GPa)
#
#
# Indices 1 2 3 4 5 6 
#
# 1 90.6133 48.2172 74.4164 0.0000 0.0000 0.0000
# 2 48.2172 122.1640 55.0701 0.0000 0.0000 0.0000
# 3 74.4164 55.0701 114.1793 0.0000 0.0000 0.0000
# 4 0.0000 0.0000 0.0000 7.8736 0.0000 0.0000
# 5 0.0000 0.0000 0.0000 0.0000 29.5079 0.0000
# 6 0.0000 0.0000 0.0000 0.0000 0.0000 17.0241
#
#
#
# Elastic Compliance Matrix: (Units=1/GPa)
#
#
# Indices 1 2 3 4 5 6 
#
# 1 0.024677 -0.003181 -0.014549 0.000000 0.000000 0.000000
# 2 -0.003181 0.010870 -0.003169 0.000000 0.000000 0.000000
# 3 -0.014549 -0.003169 0.019769 0.000000 0.000000 0.000000
# 4 0.000000 0.000000 0.000000 0.127007 0.000000 0.000000
# 5 0.000000 0.000000 0.000000 0.000000 0.033889 0.000000
# 6 0.000000 0.000000 0.000000 0.000000 0.000000 0.058740
#
#
# Mechanical properties :
#
#
# Convention : Reuss Voigt Hill
#
# Bulk Modulus (GPa) = 73.98086 75.81822 74.89954
# Shear Modulus (GPa) = 15.56385 20.83132 18.19759
#
# Velocity S-wave (km/s) = 3.01721 3.49064 3.26252
# Velocity P-wave (km/s) = 7.44383 7.78418 7.61591
#
# Compressibility (1/GPa) = 0.01351701
#
# Stress axis : x y z
#
# Youngs Moduli (GPa) = 40.52352 91.99574 50.58438
#
# Poissons Ratio (x) = 0.29267 0.73594
# Poissons Ratio (y) = 0.12892 0.16032
# Poissons Ratio (z) = 0.58957 0.29156
#
# Static dielectric constant tensor:
#      x y z
#    x 1.551410 0.000000 0.000000 
#    y 0.000000 1.582920 0.000000 
#    z 0.000000 0.000000 1.570950 
# 
# From -- ./inp_files/5884.got.cif
#   From: 2010.05.17/outbox.cif.g08.bks.cpg/sg65_3_cif.got.tgz:5884.got - 2010.06.03 17:01:31.
