data_PCOD9490785
_publ_section_title
;
Structure prediction by ZEFSAII (Michael W. Deem and Ramdas Pophale) SiO2 
 PCOD9490785
Probable space group: C M M M
;
_chemical_formula_sum "Si O2"
_cell_formula_units_Z 92
_cell_length_a 18.044888
_cell_length_b 24.721735
_cell_length_c 11.971471
_cell_angle_alpha 90.000000
_cell_angle_beta 90.000000
_cell_angle_gamma 90.000000
_cell_volume 5340.484457
_symmetry_space_group_name_H-M "C M M M"
_symmetry_group_IT_number 65
_symmetry_cell_setting 'orthorhombic'
loop_
_space_group_symop_operation_xyz
x,y,z
-x,-y,z
x,-y,-z
-x,y,-z
-x,-y,-z
x,y,-z
-x,y,z
x,-y,z
1/2+x,1/2+y,z
1/2-x,1/2-y,z
1/2+x,1/2-y,-z
1/2-x,1/2+y,-z
1/2-x,1/2-y,-z
1/2+x,1/2+y,-z
1/2-x,1/2+y,z
1/2+x,1/2-y,z
loop_
_atom_site_type_symbol
_atom_site_label
_atom_site_fract_x
_atom_site_fract_y
_atom_site_fract_z
Si Si1 0.192580 0.197954 0.500000
Si Si2 0.822164 0.619437 0.500000
Si Si3 0.630538 0.000000 0.500000
Si Si4 0.412147 0.000000 0.754228
Si Si5 0.161179 0.395323 0.867916
Si Si6 0.584636 0.706848 0.708377
Si Si7 0.714096 0.308114 0.133805
Si Si8 0.080039 0.664261 0.298231
O O1 0.250000 0.250000 0.500000
O O2 0.242497 0.145316 0.500000
O O3 0.138685 0.195578 0.605312
O O4 0.823605 0.555251 0.500000
O O5 0.863496 0.641939 0.610153
O O6 0.588215 0.000000 0.380966
O O7 0.365206 0.051178 0.801675
O O8 0.500000 0.000000 0.789951
O O9 0.235409 0.360729 0.836499
O O10 0.098647 0.353792 0.826772
O O11 0.162605 0.405639 0.000000
O O12 0.500000 0.685963 0.702329
O O13 0.632302 0.688786 0.815126
O O14 0.579439 0.771681 0.703417
O O15 0.750000 0.250000 0.172518
O O16 0.712281 0.306049 0.000000
O O17 0.000000 0.642425 0.331830
#
# Coordination Sequence:
#
# PCOD9490785 Si02
#       8
#     8   8   4   8  16  16  16  16
#     4  12  21  35  59  82 110 151 191 236 287 348
#     4  12  23  38  55  78 109 150 196 235 280 338
#     4  12  27  38  56  86 109 148 190 234 277 332
#     4  12  26  42  59  83 120 156 197 244 284 336
#     4  11  23  38  57  80 111 157 202 237 279 334
#     4  11  22  35  55  87 120 148 187 238 295 350
#     4  10  20  37  58  82 114 153 196 239 284 341
#     4  11  21  33  52  80 115 152 190 234 282 336
#
# _framework density 17.226901999999999
#
# number of rings (size 3 to 8) (size 9 to 14) (size 15 to 20)
#    0.000    0.870    5.217    3.000    0.000    4.174 
#    0.000    1.739    0.000    0.000    0.000    3.043 
#    0.000    2.783    0.000    0.000    0.000    0.000 
#
# Total GULP energy -256338.609209 kJ/mol
# GULP energy per Si atom -5572.578461 kJ/mol
# Density = 1.718769 g / cm^3
# Si number density = 17.226902 Si / 1000 Ang^3
#
#
#
# Elastic Constant Matrix: (Units=GPa)
#
#
# Indices 1 2 3 4 5 6 
#
# 1 146.0938 57.1348 44.6648 0.0000 0.0000 0.0000
# 2 57.1348 81.7638 21.3492 0.0000 0.0000 0.0000
# 3 44.6648 21.3492 62.8677 0.0000 0.0000 0.0000
# 4 0.0000 0.0000 0.0000 22.9865 0.0000 0.0000
# 5 0.0000 0.0000 0.0000 0.0000 13.2796 0.0000
# 6 0.0000 0.0000 0.0000 0.0000 0.0000 -1.6481
#
#
#
# Elastic Compliance Matrix: (Units=1/GPa)
#
#
# Indices 1 2 3 4 5 6 
#
# 1 0.011022 -0.006208 -0.005723 0.000000 0.000000 0.000000
# 2 -0.006208 0.016917 -0.001334 0.000000 0.000000 0.000000
# 3 -0.005723 -0.001334 0.020425 0.000000 0.000000 0.000000
# 4 0.000000 0.000000 0.000000 0.043504 0.000000 0.000000
# 5 0.000000 0.000000 0.000000 0.000000 0.075303 0.000000
# 6 0.000000 0.000000 0.000000 0.000000 0.000000 -0.606771
#
#
# Mechanical properties :
#
#
# Convention : Reuss Voigt Hill
#
# Bulk Modulus (GPa) = 45.79920 59.66921 52.73420
# Shear Modulus (GPa) = -12.32160 18.09537 2.88689
#
# Velocity S-wave (km/s) = -2.67732 3.24452 1.29593
# Velocity P-wave (km/s) = 4.13354 6.98200 5.73736
#
# Compressibility (1/GPa) = 0.02183444
#
# Stress axis : x y z
#
# Youngs Moduli (GPa) = 90.72501 59.11321 48.95890
#
# Poissons Ratio (x) = 0.36697 0.28018
# Poissons Ratio (y) = 0.56321 0.06533
# Poissons Ratio (z) = 0.51920 0.07887
#
# Static dielectric constant tensor:
#      x y z
#    x 1.690710 0.000000 0.000000 
#    y 0.000000 1.614490 0.000000 
#    z 0.000000 0.000000 1.627610 
# 
# From -- ./inp_files/27213.got.cif
#   From: 2010.05.17/outbox.cif.g08.bks.cpg/sg65_14_cif.got.tgz:27213.got - 2010.06.03 17:01:31.
