data_PCOD9490042
_publ_section_title
;
Structure prediction by ZEFSAII (Michael W. Deem and Ramdas Pophale) SiO2 
 PCOD9490042
Probable space group: C M M M
;
_chemical_formula_sum "Si O2"
_cell_formula_units_Z 104
_cell_length_a 11.893568
_cell_length_b 16.502899
_cell_length_c 29.253722
_cell_angle_alpha 90.000000
_cell_angle_beta 90.000000
_cell_angle_gamma 90.000000
_cell_volume 5741.872328
_symmetry_space_group_name_H-M "C M M M"
_symmetry_group_IT_number 65
_symmetry_cell_setting 'orthorhombic'
loop_
_space_group_symop_operation_xyz
x,y,z
-x,-y,z
x,-y,-z
-x,y,-z
-x,-y,-z
x,y,-z
-x,y,z
x,-y,z
1/2+x,1/2+y,z
1/2-x,1/2-y,z
1/2+x,1/2-y,-z
1/2-x,1/2+y,-z
1/2-x,1/2-y,-z
1/2+x,1/2+y,-z
1/2-x,1/2+y,z
1/2+x,1/2-y,z
loop_
_atom_site_type_symbol
_atom_site_label
_atom_site_fract_x
_atom_site_fract_y
_atom_site_fract_z
Si Si1 0.373809 0.902433 0.638603
Si Si2 0.628715 0.095449 0.184102
Si Si3 0.364353 0.804834 0.909537
Si Si4 0.261787 0.599186 0.272251
Si Si5 0.000000 0.097511 0.585030
Si Si6 0.133998 0.409641 0.000000
Si Si7 0.000000 0.901185 0.691721
Si Si8 0.238808 0.846596 0.449442
O O1 0.500000 0.870535 0.637644
O O2 0.310231 0.873648 0.684002
O O3 0.310659 0.880721 0.592255
O O4 0.376787 0.000000 0.641529
O O5 0.500000 0.101491 0.201162
O O6 0.637198 0.143341 0.136983
O O7 0.710371 0.125425 0.224157
O O8 0.650751 0.000000 0.175551
O O9 0.500000 0.775419 0.913428
O O10 0.250000 0.750000 0.907202
O O11 0.342019 0.859925 0.954126
O O12 0.258814 0.500000 0.271788
O O13 0.388503 0.625141 0.282168
O O14 0.000000 0.123296 0.638479
O O15 0.110835 0.129131 0.560440
O O16 0.000000 0.000000 0.584243
O O17 0.184677 0.500000 0.000000
O O18 0.000000 0.418638 0.000000
O O19 0.000000 0.000000 0.691046
O O20 0.272904 0.876147 0.500000
O O21 0.250000 0.750000 0.448935
#
# Coordination Sequence:
#
# PCOD9490042 Si02
#       8
#    16  16  16  16   8   8   8  16
#     4  10  20  35  57  81 105 136 176 222 272 331
#     4   9  17  31  54  80 107 142 187 234 275 324
#     4  10  20  35  55  81 116 154 192 233 284 338
#     4   9  16  30  52  80 108 135 176 228 280 324
#     4  11  21  40  67  88 107 140 191 234 269 330
#     4   9  17  32  59  89 112 143 196 250 286 327
#     4   9  16  29  54  83 108 132 172 233 280 319
#     4  11  25  40  56  79 111 143 175 221 279 335
#
# _framework density 18.112558
#
# number of rings (size 3 to 8) (size 9 to 14) (size 15 to 20)
#    0.000    2.231    1.538    1.846    1.077    5.538 
#    1.385    1.538    0.000    1.846    0.000    0.000 
#    0.000    0.000    0.000    0.000    0.000    0.000 
#
# Total GULP energy -289782.110707 kJ/mol
# GULP energy per Si atom -5572.732898 kJ/mol
# Density = 1.807133 g / cm^3
# Si number density = 18.112558 Si / 1000 Ang^3
#
#
#
# Elastic Constant Matrix: (Units=GPa)
#
#
# Indices 1 2 3 4 5 6 
#
# 1 134.7427 37.0084 66.4403 0.0000 0.0000 0.0000
# 2 37.0084 33.1439 26.1079 0.0000 0.0000 0.0000
# 3 66.4403 26.1079 145.4625 0.0000 0.0000 0.0000
# 4 0.0000 0.0000 0.0000 -36.6932 0.0000 0.0000
# 5 0.0000 0.0000 0.0000 0.0000 32.8901 0.0000
# 6 0.0000 0.0000 0.0000 0.0000 0.0000 21.3405
#
#
#
# Elastic Compliance Matrix: (Units=1/GPa)
#
#
# Indices 1 2 3 4 5 6 
#
# 1 0.012153 -0.010712 -0.003628 0.000000 0.000000 0.000000
# 2 -0.010712 0.044581 -0.003109 0.000000 0.000000 0.000000
# 3 -0.003628 -0.003109 0.009090 0.000000 0.000000 0.000000
# 4 0.000000 0.000000 0.000000 -0.027253 0.000000 0.000000
# 5 0.000000 0.000000 0.000000 0.000000 0.030404 0.000000
# 6 0.000000 0.000000 0.000000 0.000000 0.000000 0.046859
#
#
# Mechanical properties :
#
#
# Convention : Reuss Voigt Hill
#
# Bulk Modulus (GPa) = 32.33535 63.60690 47.97113
# Shear Modulus (GPa) = 31.04820 15.76031 23.40426
#
# Velocity S-wave (km/s) = 4.14476 2.95300 3.59856
# Velocity P-wave (km/s) = 6.38722 6.84257 6.61881
#
# Compressibility (1/GPa) = 0.03092591
#
# Stress axis : x y z
#
# Youngs Moduli (GPa) = 82.28676 22.43114 110.01334
#
# Poissons Ratio (x) = 0.24027 0.39915
# Poissons Ratio (y) = 0.88142 0.34202
# Poissons Ratio (z) = 0.29855 0.06974
#
# Static dielectric constant tensor:
#      x y z
#    x 1.631610 0.000000 0.000000 
#    y 0.000000 1.633730 0.000000 
#    z 0.000000 0.000000 1.601150 
# 
# From -- ./inp_files/74431.got.cif
#   From: 2010.05.17/outbox.cif.g08.bks.cpg/sg65_38_cif.got.tgz:74431.got - 2010.06.03 17:01:31.
