data_PCOD9490215
_publ_section_title
;
Structure prediction by ZEFSAII (Michael W. Deem and Ramdas Pophale) SiO2 
 PCOD9490215
Probable space group: C M M M
;
_chemical_formula_sum "Si O2"
_cell_formula_units_Z 88
_cell_length_a 12.136702
_cell_length_b 15.803227
_cell_length_c 23.717533
_cell_angle_alpha 90.000000
_cell_angle_beta 90.000000
_cell_angle_gamma 90.000000
_cell_volume 4549.000458
_symmetry_space_group_name_H-M "C M M M"
_symmetry_group_IT_number 65
_symmetry_cell_setting 'orthorhombic'
loop_
_space_group_symop_operation_xyz
x,y,z
-x,-y,z
x,-y,-z
-x,y,-z
-x,-y,-z
x,y,-z
-x,y,z
x,-y,z
1/2+x,1/2+y,z
1/2-x,1/2-y,z
1/2+x,1/2-y,-z
1/2-x,1/2+y,-z
1/2-x,1/2-y,-z
1/2+x,1/2+y,-z
1/2-x,1/2+y,z
1/2+x,1/2-y,z
loop_
_atom_site_type_symbol
_atom_site_label
_atom_site_fract_x
_atom_site_fract_y
_atom_site_fract_z
Si Si1 0.876206 0.101185 0.170683
Si Si2 0.500000 0.101324 0.891751
Si Si3 0.371217 0.295834 0.500000
Si Si4 0.763598 0.350415 0.937619
Si Si5 0.263248 0.896243 0.721706
Si Si6 0.875027 0.099966 0.384547
Si Si7 0.500000 0.896548 0.761268
O O1 0.812437 0.116529 0.112657
O O2 0.807212 0.133082 0.224303
O O3 0.000000 0.136043 0.169141
O O4 0.883130 0.000000 0.177818
O O5 0.610338 0.129895 0.922547
O O6 0.500000 0.130601 0.826598
O O7 0.500000 0.000000 0.890529
O O8 0.500000 0.256751 0.500000
O O9 0.250000 0.250000 0.500000
O O10 0.368435 0.351368 0.556796
O O11 0.750000 0.250000 0.938864
O O12 0.736337 0.384440 0.000000
O O13 0.208914 0.869325 0.663187
O O14 0.388714 0.869167 0.730674
O O15 0.261252 0.000000 0.721890
O O16 0.000000 0.108162 0.361986
O O17 0.855839 0.000000 0.394619
O O18 0.500000 0.000000 0.761863
#
# Coordination Sequence:
#
# PCOD9490215 Si02
#       7
#    16   8   8  16  16  16   8
#     4  10  20  35  57  82 109 142 181 228 283 346
#     4  11  21  40  67  88 108 146 202 245 283 348
#     4  10  21  39  59  81 117 158 196 234 282 334
#     4  11  25  40  56  79 112 148 186 237 296 348
#     4   9  16  30  53  84 115 140 178 233 289 334
#     4   9  17  32  59  88 112 144 191 239 279 331
#     4   9  16  29  54  84 114 142 175 233 291 333
#
# _framework density 19.344909000000001
#
# number of rings (size 3 to 8) (size 9 to 14) (size 15 to 20)
#    0.000    2.182    1.818    1.636    1.273    5.455 
#    1.636    1.818    0.000    0.545    0.000    0.000 
#    0.000    0.000    0.000    0.000    0.000    0.000 
#
# Total GULP energy -245487.550706 kJ/mol
# GULP energy per Si atom -5579.262516 kJ/mol
# Density = 1.930088 g / cm^3
# Si number density = 19.344909 Si / 1000 Ang^3
#
#
#
# Elastic Constant Matrix: (Units=GPa)
#
#
# Indices 1 2 3 4 5 6 
#
# 1 176.6028 27.5840 84.3247 0.0000 0.0000 0.0000
# 2 27.5840 23.1238 12.5656 0.0000 0.0000 0.0000
# 3 84.3247 12.5656 146.8713 0.0000 0.0000 0.0000
# 4 0.0000 0.0000 0.0000 257.1649 0.0000 0.0000
# 5 0.0000 0.0000 0.0000 0.0000 39.3690 0.0000
# 6 0.0000 0.0000 0.0000 0.0000 0.0000 20.6563
#
#
#
# Elastic Compliance Matrix: (Units=1/GPa)
#
#
# Indices 1 2 3 4 5 6 
#
# 1 0.009143 -0.008447 -0.004527 0.000000 0.000000 0.000000
# 2 -0.008447 0.053158 0.000302 0.000000 0.000000 0.000000
# 3 -0.004527 0.000302 0.009382 0.000000 0.000000 0.000000
# 4 0.000000 0.000000 0.000000 0.003889 0.000000 0.000000
# 5 0.000000 0.000000 0.000000 0.000000 0.025401 0.000000
# 6 0.000000 0.000000 0.000000 0.000000 0.000000 0.048411
#
#
# Mechanical properties :
#
#
# Convention : Reuss Voigt Hill
#
# Bulk Modulus (GPa) = 21.58010 66.17184 43.87597
# Shear Modulus (GPa) = 26.29173 78.24626 52.26899
#
# Velocity S-wave (km/s) = 3.69060 6.36677 5.20367
# Velocity P-wave (km/s) = 5.41668 9.39831 7.67036
#
# Compressibility (1/GPa) = 0.04633899
#
# Stress axis : x y z
#
# Youngs Moduli (GPa) = 109.37026 18.81192 106.58823
#
# Poissons Ratio (x) = 0.15890 0.48251
# Poissons Ratio (y) = 0.92384 -0.03217
# Poissons Ratio (z) = 0.49510 -0.00568
#
# Static dielectric constant tensor:
#      x y z
#    x 1.669440 0.000000 0.000000 
#    y 0.000000 1.685280 0.000000 
#    z 0.000000 0.000000 1.648860 
# 
# From -- ./inp_files/61515.got.cif
#   From: 2010.05.17/outbox.cif.g08.bks.cpg/sg65_31_cif.got.tgz:61515.got - 2010.06.03 17:01:31.
