data_PCOD9490506
_publ_section_title
;
Structure prediction by ZEFSAII (Michael W. Deem and Ramdas Pophale) SiO2 
 PCOD9490506
Probable space group: C M M M
;
_chemical_formula_sum "Si O2"
_cell_formula_units_Z 72
_cell_length_a 14.837768
_cell_length_b 30.928629
_cell_length_c 8.577941
_cell_angle_alpha 90.000000
_cell_angle_beta 90.000000
_cell_angle_gamma 90.000000
_cell_volume 3936.518530
_symmetry_space_group_name_H-M "C M M M"
_symmetry_group_IT_number 65
_symmetry_cell_setting 'orthorhombic'
loop_
_space_group_symop_operation_xyz
x,y,z
-x,-y,z
x,-y,-z
-x,y,-z
-x,-y,-z
x,y,-z
-x,y,z
x,-y,z
1/2+x,1/2+y,z
1/2-x,1/2-y,z
1/2+x,1/2-y,-z
1/2-x,1/2+y,-z
1/2-x,1/2-y,-z
1/2+x,1/2+y,-z
1/2-x,1/2+y,z
1/2+x,1/2-y,z
loop_
_atom_site_type_symbol
_atom_site_label
_atom_site_fract_x
_atom_site_fract_y
_atom_site_fract_z
Si Si1 0.307640 0.371203 0.311311
Si Si2 0.500000 0.663612 0.310079
Si Si3 0.191189 0.292141 0.813185
Si Si4 0.000000 0.447464 0.179333
Si Si5 0.308333 0.049430 0.312230
Si Si6 0.000000 0.735508 0.687159
O O1 0.308251 0.370861 0.500000
O O2 0.408455 0.359635 0.257651
O O3 0.240699 0.333945 0.254047
O O4 0.268285 0.417352 0.259662
O O5 0.500000 0.663254 0.500000
O O6 0.500000 0.713934 0.262548
O O7 0.250000 0.250000 0.767146
O O8 0.090573 0.286342 0.749748
O O9 0.189289 0.294406 0.000000
O O10 0.906820 0.434203 0.259440
O O11 0.000000 0.500000 0.185989
O O12 0.000000 0.433879 0.000000
O O13 0.308025 0.048282 0.500000
O O14 0.295901 0.000000 0.256044
O O15 0.000000 0.734324 0.500000
#
# Coordination Sequence:
#
# PCOD9490506 Si02
#       6
#    16   8  16   8  16   8
#     4  10  20  36  57  80 108 144 187 224 267 324
#     4   9  18  33  55  80 104 138 184 227 260 315
#     4  11  23  37  54  80 112 141 176 225 276 321
#     4   9  17  30  51  76 103 138 176 215 264 321
#     4   9  18  33  54  80 110 142 177 221 270 319
#     4  11  21  36  60  82 108 145 185 224 268 322
#
# _framework density 18.290274
#
# number of rings (size 3 to 8) (size 9 to 14) (size 15 to 20)
#    0.000    2.111    2.222    1.333    0.000    4.000 
#    0.000    2.222    0.000    3.333    0.000    0.000 
#    0.000    5.333    0.000    0.000    0.000    0.000 
#
# Total GULP energy -200931.960854 kJ/mol
# GULP energy per Si atom -5581.443357 kJ/mol
# Density = 1.824864 g / cm^3
# Si number density = 18.290274 Si / 1000 Ang^3
#
#
#
# Elastic Constant Matrix: (Units=GPa)
#
#
# Indices 1 2 3 4 5 6 
#
# 1 192.4059 85.3613 20.0072 0.0000 0.0000 0.0000
# 2 85.3613 106.6097 16.3459 0.0000 0.0000 0.0000
# 3 20.0072 16.3459 10.7139 0.0000 0.0000 0.0000
# 4 0.0000 0.0000 0.0000 14.0810 0.0000 0.0000
# 5 0.0000 0.0000 0.0000 0.0000 1.2501 0.0000
# 6 0.0000 0.0000 0.0000 0.0000 0.0000 26.6302
#
#
#
# Elastic Compliance Matrix: (Units=1/GPa)
#
#
# Indices 1 2 3 4 5 6 
#
# 1 0.008458 -0.005679 -0.007131 0.000000 0.000000 0.000000
# 2 -0.005679 0.016057 -0.013893 0.000000 0.000000 0.000000
# 3 -0.007131 -0.013893 0.127848 0.000000 0.000000 0.000000
# 4 0.000000 0.000000 0.000000 0.071018 0.000000 0.000000
# 5 0.000000 0.000000 0.000000 0.000000 0.799914 0.000000
# 6 0.000000 0.000000 0.000000 0.000000 0.000000 0.037551
#
#
# Mechanical properties :
#
#
# Convention : Reuss Voigt Hill
#
# Bulk Modulus (GPa) = 10.10526 61.46202 35.78364
# Shear Modulus (GPa) = 4.35829 20.92660 12.64245
#
# Velocity S-wave (km/s) = 1.54532 3.38618 2.63194
# Velocity P-wave (km/s) = 2.95313 6.99749 5.37056
#
# Compressibility (1/GPa) = 0.09895836
#
# Stress axis : x y z
#
# Youngs Moduli (GPa) = 118.22494 62.27634 7.82180
#
# Poissons Ratio (x) = 0.35369 0.05577
# Poissons Ratio (y) = 0.67143 0.10867
# Poissons Ratio (z) = 0.84302 0.86519
#
# Static dielectric constant tensor:
#      x y z
#    x 1.609750 0.000000 0.000000 
#    y 0.000000 1.632800 0.000000 
#    z 0.000000 0.000000 1.611680 
# 
# From -- ./inp_files/7412.got.cif
#   From: 2010.05.17/outbox.cif.g08.bks.cpg/sg65_4_cif.got.tgz:7412.got - 2010.06.03 17:01:31.
