data_PCOD9490534
_publ_section_title
;
Structure prediction by ZEFSAII (Michael W. Deem and Ramdas Pophale) SiO2 
 PCOD9490534
Probable space group: C M M M
;
_chemical_formula_sum "Si O2"
_cell_formula_units_Z 104
_cell_length_a 8.163819
_cell_length_b 27.224364
_cell_length_c 21.170168
_cell_angle_alpha 90.000000
_cell_angle_beta 90.000000
_cell_angle_gamma 90.000000
_cell_volume 4705.171033
_symmetry_space_group_name_H-M "C M M M"
_symmetry_group_IT_number 65
_symmetry_cell_setting 'orthorhombic'
loop_
_space_group_symop_operation_xyz
x,y,z
-x,-y,z
x,-y,-z
-x,y,-z
-x,-y,-z
x,y,-z
-x,y,z
x,-y,z
1/2+x,1/2+y,z
1/2-x,1/2-y,z
1/2+x,1/2-y,-z
1/2-x,1/2+y,-z
1/2-x,1/2-y,-z
1/2+x,1/2+y,-z
1/2-x,1/2+y,z
1/2+x,1/2-y,z
loop_
_atom_site_type_symbol
_atom_site_label
_atom_site_fract_x
_atom_site_fract_y
_atom_site_fract_z
Si Si1 0.307722 0.446398 0.608439
Si Si2 0.185790 0.558080 0.000000
Si Si3 0.802731 0.196039 0.072762
Si Si4 0.811657 0.410291 0.737980
Si Si5 0.303755 0.696730 0.296186
Si Si6 0.307258 0.597958 0.868885
Si Si7 0.199961 0.839365 0.568563
O O1 0.500000 0.447872 0.592172
O O2 0.236903 0.500000 0.591991
O O3 0.290712 0.437205 0.683642
O O4 0.242923 0.396004 0.577834
O O5 0.277377 0.573476 0.936428
O O6 0.174939 0.500000 0.000000
O O7 0.000000 0.578514 0.000000
O O8 0.750000 0.250000 0.092375
O O9 0.744031 0.153310 0.118513
O O10 0.000000 0.193573 0.071590
O O11 0.746048 0.188115 0.000000
O O12 0.766703 0.352333 0.735643
O O13 0.778500 0.426721 0.809372
O O14 0.000000 0.417141 0.721249
O O15 0.500000 0.693516 0.292406
O O16 0.250000 0.750000 0.271996
O O17 0.249713 0.690886 0.369779
O O18 0.500000 0.599401 0.854667
O O19 0.253472 0.820950 0.500000
O O20 0.000000 0.840023 0.569478
#
# Coordination Sequence:
#
# PCOD9490534 Si02
#       7
#    16   8  16  16  16  16  16
#     4   9  18  34  56  81 110 146 187 231 283 341
#     4  11  25  43  62  87 116 145 184 233 284 341
#     4   9  18  33  53  80 108 137 170 206 253 313
#     4  11  23  38  57  82 111 146 189 237 287 336
#     4  10  20  36  57  82 114 153 194 235 280 333
#     4  11  22  40  62  84 113 147 186 230 280 339
#     4   8  15  29  51  82 117 149 185 231 280 333
#
# _framework density 22.103339999999999
#
# number of rings (size 3 to 8) (size 9 to 14) (size 15 to 20)
#    0.000    2.231    0.769    3.462    0.000    4.000 
#    0.000    3.077    0.000   11.077    0.000    4.308 
#    0.000    0.000    0.000    0.000    0.000    0.000 
#
# Total GULP energy -290351.504589 kJ/mol
# GULP energy per Si atom -5583.682781 kJ/mol
# Density = 2.205303 g / cm^3
# Si number density = 22.103340 Si / 1000 Ang^3
#
#
#
# Elastic Constant Matrix: (Units=GPa)
#
#
# Indices 1 2 3 4 5 6 
#
# 1 22.5422 -6.3477 -11.9725 0.0000 0.0000 0.0000
# 2 -6.3477 52.1559 -17.4980 0.0000 0.0000 0.0000
# 3 -11.9725 -17.4980 78.8291 0.0000 0.0000 0.0000
# 4 0.0000 0.0000 0.0000 -5.0889 0.0000 0.0000
# 5 0.0000 0.0000 0.0000 0.0000 10.8102 0.0000
# 6 0.0000 0.0000 0.0000 0.0000 0.0000 17.2076
#
#
#
# Elastic Compliance Matrix: (Units=1/GPa)
#
#
# Indices 1 2 3 4 5 6 
#
# 1 0.052510 0.009796 0.010150 0.000000 0.000000 0.000000
# 2 0.009796 0.022543 0.006492 0.000000 0.000000 0.000000
# 3 0.010150 0.006492 0.015668 0.000000 0.000000 0.000000
# 4 0.000000 0.000000 0.000000 -0.196504 0.000000 0.000000
# 5 0.000000 0.000000 0.000000 0.000000 0.092505 0.000000
# 6 0.000000 0.000000 0.000000 0.000000 0.000000 0.058114
#
#
# Mechanical properties :
#
#
# Convention : Reuss Voigt Hill
#
# Bulk Modulus (GPa) = 6.96394 9.09899 8.03147
# Shear Modulus (GPa) = 125.54300 17.20881 71.37590
#
# Velocity S-wave (km/s) = 7.54463 2.79330 5.68876
# Velocity P-wave (km/s) = 8.89116 3.81167 6.84038
#
# Compressibility (1/GPa) = 0.14359678
#
# Stress axis : x y z
#
# Youngs Moduli (GPa) = 19.04391 44.35872 63.82347
#
# Poissons Ratio (x) = -0.43453 -0.64778
# Poissons Ratio (y) = -0.18655 -0.41433
# Poissons Ratio (z) = -0.19329 -0.28797
#
# Static dielectric constant tensor:
#      x y z
#    x 1.722220 0.000000 0.000000 
#    y 0.000000 1.821050 0.000000 
#    z 0.000000 0.000000 1.848550 
# 
# From -- ./inp_files/60782.got.cif
#   From: 2010.05.17/outbox.cif.g08.bks.cpg/sg65_31_cif.got.tgz:60782.got - 2010.06.03 17:01:31.
