data_PCOD9490550
_publ_section_title
;
Structure prediction by ZEFSAII (Michael W. Deem and Ramdas Pophale) SiO2 
 PCOD9490550
Probable space group: C M M M
;
_chemical_formula_sum "Si O2"
_cell_formula_units_Z 72
_cell_length_a 19.626406
_cell_length_b 8.763815
_cell_length_c 23.955567
_cell_angle_alpha 90.000000
_cell_angle_beta 90.000000
_cell_angle_gamma 90.000000
_cell_volume 4120.410018
_symmetry_space_group_name_H-M "C M M M"
_symmetry_group_IT_number 65
_symmetry_cell_setting 'orthorhombic'
loop_
_space_group_symop_operation_xyz
x,y,z
-x,-y,z
x,-y,-z
-x,y,-z
-x,-y,-z
x,y,-z
-x,y,z
x,-y,z
1/2+x,1/2+y,z
1/2-x,1/2-y,z
1/2+x,1/2-y,-z
1/2-x,1/2+y,-z
1/2-x,1/2-y,-z
1/2+x,1/2+y,-z
1/2-x,1/2+y,z
1/2+x,1/2-y,z
loop_
_atom_site_type_symbol
_atom_site_label
_atom_site_fract_x
_atom_site_fract_y
_atom_site_fract_z
Si Si1 0.079777 0.816779 0.500000
Si Si2 0.825204 0.683452 0.595285
Si Si3 0.675757 0.816211 0.723726
Si Si4 0.082144 0.181248 0.060867
Si Si5 0.421356 0.816155 0.823132
O O1 0.119394 0.751010 0.446505
O O2 0.000000 0.774078 0.500000
O O3 0.084562 0.000000 0.500000
O O4 0.822976 0.500000 0.590207
O O5 0.750000 0.750000 0.582637
O O6 0.841613 0.724552 0.659716
O O7 0.750000 0.750000 0.735937
O O8 0.622391 0.763682 0.770272
O O9 0.678862 0.000000 0.725857
O O10 0.106979 0.259552 0.117358
O O11 0.000000 0.203722 0.060307
O O12 0.094115 0.000000 0.064161
O O13 0.107561 0.235934 0.000000
O O14 0.500000 0.764946 0.817817
O O15 0.421397 0.000000 0.823669
#
# Coordination Sequence:
#
# PCOD9490550 Si02
#       5
#     8  16  16  16  16
#     4  11  24  39  54  77 109 137 164 205 252 293
#     4  10  20  36  58  79 101 133 172 208 245 295
#     4   9  19  34  52  74  99 129 163 200 240 285
#     4   8  14  25  41  63  92 124 158 196 238 286
#     4   9  17  29  46  70  98 125 156 197 244 289
#
# _framework density 17.473989
#
# number of rings (size 3 to 8) (size 9 to 14) (size 15 to 20)
#    0.000    2.778    0.000    2.000    0.000    4.000 
#    0.000    4.444    0.000    3.333    0.000    0.000 
#    0.000    0.000    0.000    0.000    0.000    0.000 
#
# Total GULP energy -200619.862157 kJ/mol
# GULP energy per Si atom -5572.773949 kJ/mol
# Density = 1.743422 g / cm^3
# Si number density = 17.473989 Si / 1000 Ang^3
#
#
#
# Elastic Constant Matrix: (Units=GPa)
#
#
# Indices 1 2 3 4 5 6 
#
# 1 91.8820 31.3645 104.7047 0.0000 0.0000 0.0000
# 2 31.3645 24.0747 41.7730 0.0000 0.0000 0.0000
# 3 104.7047 41.7730 172.6070 0.0000 0.0000 0.0000
# 4 0.0000 0.0000 0.0000 14.5112 0.0000 0.0000
# 5 0.0000 0.0000 0.0000 0.0000 350.0260 0.0000
# 6 0.0000 0.0000 0.0000 0.0000 0.0000 21.4072
#
#
#
# Elastic Compliance Matrix: (Units=1/GPa)
#
#
# Indices 1 2 3 4 5 6 
#
# 1 0.038808 -0.016742 -0.019489 0.000000 0.000000 0.000000
# 2 -0.016742 0.078830 -0.008922 0.000000 0.000000 0.000000
# 3 -0.019489 -0.008922 0.019775 0.000000 0.000000 0.000000
# 4 0.000000 0.000000 0.000000 0.068912 0.000000 0.000000
# 5 0.000000 0.000000 0.000000 0.000000 0.002857 0.000000
# 6 0.000000 0.000000 0.000000 0.000000 0.000000 0.046713
#
#
# Mechanical properties :
#
#
# Convention : Reuss Voigt Hill
#
# Bulk Modulus (GPa) = 21.22868 71.58313 46.40590
# Shear Modulus (GPa) = 13.81586 84.57033 49.19309
#
# Velocity S-wave (km/s) = 2.81491 6.96440 5.31162
# Velocity P-wave (km/s) = 4.76865 10.28227 8.01452
#
# Compressibility (1/GPa) = 0.04710609
#
# Stress axis : x y z
#
# Youngs Moduli (GPa) = 25.76817 12.68555 50.56891
#
# Poissons Ratio (x) = 0.21238 0.98555
# Poissons Ratio (y) = 0.43141 0.45117
# Poissons Ratio (z) = 0.50220 0.11318
#
# Static dielectric constant tensor:
#      x y z
#    x 1.569430 0.000000 0.000000 
#    y 0.000000 1.589570 0.000000 
#    z 0.000000 0.000000 1.624470 
# 
# From -- ./inp_files/67101.got.cif
#   From: 2010.05.17/outbox.cif.g08.bks.cpg/sg65_34_cif.got.tgz:67101.got - 2010.06.03 17:01:31.
