data_PCOD9490443
_publ_section_title
;
Structure prediction by ZEFSAII (Michael W. Deem and Ramdas Pophale) SiO2 
 PCOD9490443
Probable space group: C M M M
;
_chemical_formula_sum "Si O2"
_cell_formula_units_Z 82
_cell_length_a 10.414511
_cell_length_b 14.423085
_cell_length_c 24.456729
_cell_angle_alpha 90.000000
_cell_angle_beta 90.000000
_cell_angle_gamma 90.000000
_cell_volume 3673.630036
_symmetry_space_group_name_H-M "C M M M"
_symmetry_group_IT_number 65
_symmetry_cell_setting 'orthorhombic'
loop_
_space_group_symop_operation_xyz
x,y,z
-x,-y,z
x,-y,-z
-x,y,-z
-x,-y,-z
x,y,-z
-x,y,z
x,-y,z
1/2+x,1/2+y,z
1/2-x,1/2-y,z
1/2+x,1/2-y,-z
1/2-x,1/2+y,-z
1/2-x,1/2-y,-z
1/2+x,1/2+y,-z
1/2-x,1/2+y,z
1/2+x,1/2-y,z
loop_
_atom_site_type_symbol
_atom_site_label
_atom_site_fract_x
_atom_site_fract_y
_atom_site_fract_z
Si Si1 0.500000 0.896915 0.885261
Si Si2 0.774201 0.108228 0.137969
Si Si3 0.000000 0.139341 0.438121
Si Si4 0.500000 0.865052 0.435795
Si Si5 0.652543 0.336735 0.256094
Si Si6 0.000000 0.500000 0.000000
Si Si7 0.745947 0.363178 0.629462
Si Si8 0.000000 0.886248 0.937941
O O1 0.631761 0.850091 0.866218
O O2 0.500000 0.000000 0.857456
O O3 0.500000 0.920475 0.950144
O O4 0.833685 0.113519 0.198072
O O5 0.874380 0.145538 0.094148
O O6 0.757415 0.000000 0.122748
O O7 0.000000 0.252339 0.437570
O O8 0.126781 0.108967 0.407433
O O9 0.000000 0.108986 0.500000
O O10 0.500000 0.893953 0.500000
O O11 0.624369 0.892940 0.400607
O O12 0.500000 0.315237 0.266350
O O13 0.750000 0.250000 0.250476
O O14 0.711284 0.389834 0.308505
O O15 0.750000 0.250000 0.630668
O O16 0.000000 0.000000 0.937306
O O17 0.000000 0.855758 0.000000
#
# Coordination Sequence:
#
# PCOD9490443 Si02
#       8
#     8  16   8   8  16   2  16   8
#     4   8  18  29  52  80 112 132 163 207 263 312
#     4  10  20  36  55  83 108 137 174 225 265 311
#     4   9  14  23  38  58  88 122 160 204 255 306
#     4   9  16  25  40  65  94 129 166 213 261 311
#     4  11  23  36  53  75 106 146 184 218 262 319
#     4   8  16  32  52  86 124 128 168 210 268 328
#     4   9  17  27  41  62  93 130 171 204 256 311
#     4   9  18  29  53  82 108 131 168 219 272 311
#
# _framework density 22.321245000000001
#
# number of rings (size 3 to 8) (size 9 to 14) (size 15 to 20)
#    0.293    2.244    1.951    0.585    6.829    2.341 
#    0.000    0.000    0.000    0.585    2.537    0.000 
#    0.000    4.683    0.000    0.000    0.000    0.000 
#
# Total GULP energy -228476.057893 kJ/mol
# GULP energy per Si atom -5572.586778 kJ/mol
# Density = 2.227044 g / cm^3
# Si number density = 22.321245 Si / 1000 Ang^3
#
#
#
# Elastic Constant Matrix: (Units=GPa)
#
#
# Indices 1 2 3 4 5 6 
#
# 1 236.3378 7.6344 100.3334 0.0000 0.0000 0.0000
# 2 7.6344 73.8790 -4.3448 0.0000 0.0000 0.0000
# 3 100.3334 -4.3448 195.7595 0.0000 0.0000 0.0000
# 4 0.0000 0.0000 0.0000 17.6888 0.0000 0.0000
# 5 0.0000 0.0000 0.0000 0.0000 40.5010 0.0000
# 6 0.0000 0.0000 0.0000 0.0000 0.0000 -8.6469
#
#
#
# Elastic Compliance Matrix: (Units=1/GPa)
#
#
# Indices 1 2 3 4 5 6 
#
# 1 0.005447 -0.000728 -0.002808 0.000000 0.000000 0.000000
# 2 -0.000728 0.013651 0.000676 0.000000 0.000000 0.000000
# 3 -0.002808 0.000676 0.006562 0.000000 0.000000 0.000000
# 4 0.000000 0.000000 0.000000 0.056533 0.000000 0.000000
# 5 0.000000 0.000000 0.000000 0.000000 0.024691 0.000000
# 6 0.000000 0.000000 0.000000 0.000000 0.000000 -0.115648
#
#
# Mechanical properties :
#
#
# Convention : Reuss Voigt Hill
#
# Bulk Modulus (GPa) = 50.14944 79.24691 64.69818
# Shear Modulus (GPa) = 1388.36772 36.73213 712.54993
#
# Velocity S-wave (km/s) = 24.96686 4.06102 17.88625
# Velocity P-wave (km/s) = 29.21714 7.58743 21.34491
#
# Compressibility (1/GPa) = 0.01994040
#
# Stress axis : x y z
#
# Youngs Moduli (GPa) = 183.59551 73.25669 152.38303
#
# Poissons Ratio (x) = 0.05333 0.42786
# Poissons Ratio (y) = 0.13365 -0.10302
# Poissons Ratio (z) = 0.51550 -0.04953
#
# Static dielectric constant tensor:
#      x y z
#    x 1.873790 0.000000 0.000000 
#    y 0.000000 1.874650 0.000000 
#    z 0.000000 0.000000 1.775530 
# 
# From -- ./inp_files/67451.got.cif
#   From: 2010.05.17/outbox.cif.g08.bks.cpg/sg65_34_cif.got.tgz:67451.got - 2010.06.03 17:01:31.
