data_PCOD9490099
_publ_section_title
;
Structure prediction by ZEFSAII (Michael W. Deem and Ramdas Pophale) SiO2 
 PCOD9490099
Probable space group: C M M M
;
_chemical_formula_sum "Si O2"
_cell_formula_units_Z 104
_cell_length_a 29.463877
_cell_length_b 8.911801
_cell_length_c 23.451078
_cell_angle_alpha 90.000000
_cell_angle_beta 90.000000
_cell_angle_gamma 90.000000
_cell_volume 6157.695147
_symmetry_space_group_name_H-M "C M M M"
_symmetry_group_IT_number 65
_symmetry_cell_setting 'orthorhombic'
loop_
_space_group_symop_operation_xyz
x,y,z
-x,-y,z
x,-y,-z
-x,y,-z
-x,-y,-z
x,y,-z
-x,y,z
x,-y,z
1/2+x,1/2+y,z
1/2-x,1/2-y,z
1/2+x,1/2-y,-z
1/2-x,1/2+y,-z
1/2-x,1/2-y,-z
1/2+x,1/2+y,-z
1/2-x,1/2+y,z
1/2+x,1/2-y,z
loop_
_atom_site_type_symbol
_atom_site_label
_atom_site_fract_x
_atom_site_fract_y
_atom_site_fract_z
Si Si1 0.892279 0.679887 0.106499
Si Si2 0.201213 0.821447 0.068374
Si Si3 0.945629 0.671792 0.669680
Si Si4 0.554228 0.320389 0.000000
Si Si5 0.204959 0.170284 0.569254
Si Si6 0.604435 0.317839 0.434036
Si Si7 0.446010 0.320976 0.210868
O O1 0.891789 0.500000 0.103515
O O2 0.841369 0.743812 0.098982
O O3 0.922279 0.747850 0.055036
O O4 0.916047 0.736707 0.164152
O O5 0.250000 0.750000 0.083565
O O6 0.201385 0.000000 0.079056
O O7 0.195062 0.799181 0.000000
O O8 0.929356 0.500000 0.673764
O O9 0.928526 0.748655 0.612132
O O10 0.932908 0.764961 0.726027
O O11 0.000000 0.669302 0.668386
O O12 0.562179 0.500000 0.000000
O O13 0.500000 0.295471 0.000000
O O14 0.207016 0.167427 0.500000
O O15 0.250000 0.250000 0.590352
O O16 0.155479 0.235235 0.581638
O O17 0.205676 0.000000 0.589560
O O18 0.594842 0.276728 0.500000
O O19 0.603974 0.500000 0.431739
O O20 0.500000 0.288515 0.202325
O O21 0.440224 0.500000 0.205846
#
# Coordination Sequence:
#
# PCOD9490099 Si02
#       7
#    16  16  16   8  16  16  16
#     4  12  23  35  55  82 112 143 178 220 270 319
#     4  10  20  35  56  80 111 146 184 226 268 317
#     4  10  21  36  53  75 103 134 173 220 266 314
#     4  11  23  37  52  75 110 147 181 219 265 315
#     4   8  14  25  42  66  96 128 162 200 242 293
#     4   9  18  32  50  74 104 137 173 212 258 315
#     4  10  21  38  59  79 102 138 181 220 263 321
#
# _framework density 16.889436
#
# number of rings (size 3 to 8) (size 9 to 14) (size 15 to 20)
#    0.000    2.077    0.769    4.385    0.000    6.154 
#    0.000    3.077    0.000    0.923    0.000    4.308 
#    0.000    0.000    0.000    0.000    0.000    0.000 
#
# Total GULP energy -290053.411860 kJ/mol
# GULP energy per Si atom -5577.950228 kJ/mol
# Density = 1.685099 g / cm^3
# Si number density = 16.889436 Si / 1000 Ang^3
#
#
#
# Elastic Constant Matrix: (Units=GPa)
#
#
# Indices 1 2 3 4 5 6 
#
# 1 89.1183 62.9397 57.3108 0.0000 0.0000 0.0000
# 2 62.9397 101.6072 51.8626 0.0000 0.0000 0.0000
# 3 57.3108 51.8626 97.6053 0.0000 0.0000 0.0000
# 4 0.0000 0.0000 0.0000 24.5838 0.0000 0.0000
# 5 0.0000 0.0000 0.0000 0.0000 -5.1945 0.0000
# 6 0.0000 0.0000 0.0000 0.0000 0.0000 31.0378
#
#
#
# Elastic Compliance Matrix: (Units=1/GPa)
#
#
# Indices 1 2 3 4 5 6 
#
# 1 0.024264 -0.010645 -0.008591 0.000000 0.000000 0.000000
# 2 -0.010645 0.018175 -0.003407 0.000000 0.000000 0.000000
# 3 -0.008591 -0.003407 0.017100 0.000000 0.000000 0.000000
# 4 0.000000 0.000000 0.000000 0.040677 0.000000 0.000000
# 5 0.000000 0.000000 0.000000 0.000000 -0.192513 0.000000
# 6 0.000000 0.000000 0.000000 0.000000 0.000000 0.032219
#
#
# Mechanical properties :
#
#
# Convention : Reuss Voigt Hill
#
# Bulk Modulus (GPa) = 70.15939 70.28410 70.22174
# Shear Modulus (GPa) = -497.83241 17.83327 -239.99957
#
# Velocity S-wave (km/s) = -17.18719 3.25296 -11.93352
# Velocity P-wave (km/s) = 18.76794 7.47085 12.17419
#
# Compressibility (1/GPa) = 0.01425326
#
# Stress axis : x y z
#
# Youngs Moduli (GPa) = 41.21399 55.02168 58.48097
#
# Poissons Ratio (x) = 0.58571 0.50238
# Poissons Ratio (y) = 0.43873 0.19922
# Poissons Ratio (z) = 0.35405 0.18744
#
# Static dielectric constant tensor:
#      x y z
#    x 1.575780 0.000000 0.000000 
#    y 0.000000 1.566180 0.000000 
#    z 0.000000 0.000000 1.539350 
# 
# From -- ./inp_files/66388.got.cif
#   From: 2010.05.17/outbox.cif.g08.bks.cpg/sg65_34_cif.got.tgz:66388.got - 2010.06.03 17:01:31.
