data_PCOD9490470
_publ_section_title
;
Structure prediction by ZEFSAII (Michael W. Deem and Ramdas Pophale) SiO2 
 PCOD9490470
Probable space group: C M M M
;
_chemical_formula_sum "Si O2"
_cell_formula_units_Z 72
_cell_length_a 10.706481
_cell_length_b 24.883252
_cell_length_c 13.391887
_cell_angle_alpha 90.000000
_cell_angle_beta 90.000000
_cell_angle_gamma 90.000000
_cell_volume 3567.760267
_symmetry_space_group_name_H-M "C M M M"
_symmetry_group_IT_number 65
_symmetry_cell_setting 'orthorhombic'
loop_
_space_group_symop_operation_xyz
x,y,z
-x,-y,z
x,-y,-z
-x,y,-z
-x,-y,-z
x,y,-z
-x,y,z
x,-y,z
1/2+x,1/2+y,z
1/2-x,1/2-y,z
1/2+x,1/2-y,-z
1/2-x,1/2+y,-z
1/2-x,1/2-y,-z
1/2+x,1/2+y,-z
1/2-x,1/2+y,z
1/2+x,1/2-y,z
loop_
_atom_site_type_symbol
_atom_site_label
_atom_site_fract_x
_atom_site_fract_y
_atom_site_fract_z
Si Si1 0.355670 0.208889 0.202375
Si Si2 0.360389 0.559215 0.737447
Si Si3 0.358971 0.910200 0.882859
Si Si4 0.274129 0.140598 0.382296
Si Si5 0.500000 0.940139 0.619428
O O1 0.500000 0.228431 0.202855
O O2 0.250000 0.250000 0.166095
O O3 0.352779 0.153839 0.138899
O O4 0.313260 0.190597 0.313958
O O5 0.500000 0.561660 0.780271
O O6 0.345913 0.500000 0.688531
O O7 0.254170 0.564602 0.821231
O O8 0.344247 0.608826 0.661197
O O9 0.500000 0.927312 0.852201
O O10 0.346502 0.920835 0.000000
O O11 0.268731 0.151576 0.500000
O O12 0.380740 0.096132 0.359418
O O13 0.500000 0.945634 0.500000
O O14 0.500000 0.000000 0.661464
#
# Coordination Sequence:
#
# PCOD9490470 Si02
#       5
#    16  16  16  16   8
#     4  10  21  37  57  82 114 149 188 238 292 346
#     4  10  22  37  54  83 121 155 186 227 285 347
#     4   9  20  40  63  85 110 143 187 238 286 339
#     4  10  20  36  56  79 112 152 196 240 279 331
#     4   9  16  28  52  82 105 135 185 237 281 320
#
# _framework density 20.180727000000001
#
# number of rings (size 3 to 8) (size 9 to 14) (size 15 to 20)
#    0.000    2.333    1.111    0.667    1.556    7.556 
#    0.000    3.333    0.000    0.000    0.000    0.000 
#    0.000    0.000    0.000    0.000    0.000    0.000 
#
# Total GULP energy -200776.242105 kJ/mol
# GULP energy per Si atom -5577.117836 kJ/mol
# Density = 2.013479 g / cm^3
# Si number density = 20.180727 Si / 1000 Ang^3
#
#
#
# Elastic Constant Matrix: (Units=GPa)
#
#
# Indices 1 2 3 4 5 6 
#
# 1 130.9592 27.1987 7.8288 0.0000 0.0000 0.0000
# 2 27.1987 47.8089 -22.9365 0.0000 0.0000 0.0000
# 3 7.8288 -22.9365 53.4253 0.0000 0.0000 0.0000
# 4 0.0000 0.0000 0.0000 11.4030 0.0000 0.0000
# 5 0.0000 0.0000 0.0000 0.0000 19.4071 0.0000
# 6 0.0000 0.0000 0.0000 0.0000 0.0000 84.2762
#
#
#
# Elastic Compliance Matrix: (Units=1/GPa)
#
#
# Indices 1 2 3 4 5 6 
#
# 1 0.009505 -0.007651 -0.004678 0.000000 0.000000 0.000000
# 2 -0.007651 0.032502 0.015075 0.000000 0.000000 0.000000
# 3 -0.004678 0.015075 0.025875 0.000000 0.000000 0.000000
# 4 0.000000 0.000000 0.000000 0.087696 0.000000 0.000000
# 5 0.000000 0.000000 0.000000 0.000000 0.051528 0.000000
# 6 0.000000 0.000000 0.000000 0.000000 0.000000 0.011866
#
#
# Mechanical properties :
#
#
# Convention : Reuss Voigt Hill
#
# Bulk Modulus (GPa) = 13.62899 28.48614 21.05757
# Shear Modulus (GPa) = 21.01395 37.69074 29.35235
#
# Velocity S-wave (km/s) = 3.23040 4.32633 3.81789
# Velocity P-wave (km/s) = 4.54776 6.25319 5.46738
#
# Compressibility (1/GPa) = 0.07337299
#
# Stress axis : x y z
#
# Youngs Moduli (GPa) = 105.21101 30.76762 38.64718
#
# Poissons Ratio (x) = 0.23542 0.18078
# Poissons Ratio (y) = 0.80501 -0.58260
# Poissons Ratio (z) = 0.49214 -0.46382
#
# Static dielectric constant tensor:
#      x y z
#    x 1.754400 0.000000 0.000000 
#    y 0.000000 1.733460 0.000000 
#    z 0.000000 0.000000 1.717690 
# 
# From -- ./inp_files/36563.got.cif
#   From: 2010.05.17/outbox.cif.g08.bks.cpg/sg65_19_cif.got.tgz:36563.got - 2010.06.03 17:01:31.
