data_PCOD9490250
_publ_section_title
;
Structure prediction by ZEFSAII (Michael W. Deem and Ramdas Pophale) SiO2 
 PCOD9490250
Probable space group: C M M M
;
_chemical_formula_sum "Si O2"
_cell_formula_units_Z 64
_cell_length_a 9.096320
_cell_length_b 18.109941
_cell_length_c 21.310136
_cell_angle_alpha 90.000000
_cell_angle_beta 90.000000
_cell_angle_gamma 90.000000
_cell_volume 3510.500076
_symmetry_space_group_name_H-M "C M M M"
_symmetry_group_IT_number 65
_symmetry_cell_setting 'orthorhombic'
loop_
_space_group_symop_operation_xyz
x,y,z
-x,-y,z
x,-y,-z
-x,y,-z
-x,-y,-z
x,y,-z
-x,y,z
x,-y,z
1/2+x,1/2+y,z
1/2-x,1/2-y,z
1/2+x,1/2-y,-z
1/2-x,1/2+y,-z
1/2-x,1/2-y,-z
1/2+x,1/2+y,-z
1/2-x,1/2+y,z
1/2+x,1/2-y,z
loop_
_atom_site_type_symbol
_atom_site_label
_atom_site_fract_x
_atom_site_fract_y
_atom_site_fract_z
Si Si1 0.169802 0.910062 0.000000
Si Si2 0.671686 0.910848 0.128526
Si Si3 0.323207 0.670045 0.244058
Si Si4 0.675734 0.413505 0.627501
Si Si5 0.670020 0.089901 0.500000
O O1 0.254107 0.887013 0.936989
O O2 0.000000 0.885968 0.000000
O O3 0.169759 0.000000 0.000000
O O4 0.500000 0.889689 0.130374
O O5 0.758929 0.877138 0.186716
O O6 0.679323 0.000000 0.131483
O O7 0.500000 0.674455 0.239459
O O8 0.250000 0.750000 0.241992
O O9 0.285390 0.631154 0.310170
O O10 0.500000 0.409833 0.618900
O O11 0.714757 0.500000 0.636533
O O12 0.752471 0.385678 0.564133
O O13 0.500000 0.110816 0.500000
O O14 0.679756 0.000000 0.500000
#
# Coordination Sequence:
#
# PCOD9490250 Si02
#       5
#     8  16  16  16   8
#     4   9  17  31  54  83 112 141 176 219 265 315
#     4  10  20  35  57  84 112 142 178 221 268 318
#     4  11  23  38  55  77 108 145 184 224 269 320
#     4   9  18  34  56  79 104 137 176 217 263 318
#     4   9  17  29  50  81 110 133 165 215 268 315
#
# _framework density 18.231020999999998
#
# number of rings (size 3 to 8) (size 9 to 14) (size 15 to 20)
#    0.000    2.250    0.000    3.000    0.000    7.500 
#    0.000    3.750    0.000    0.000    0.000    0.000 
#    0.000    0.000    0.000    0.000    0.000    0.000 
#
# Total GULP energy -178637.125993 kJ/mol
# GULP energy per Si atom -5582.410187 kJ/mol
# Density = 1.818953 g / cm^3
# Si number density = 18.231021 Si / 1000 Ang^3
#
#
#
# Elastic Constant Matrix: (Units=GPa)
#
#
# Indices 1 2 3 4 5 6 
#
# 1 103.7591 35.8237 94.0985 0.0000 0.0000 0.0000
# 2 35.8237 30.3889 45.1397 0.0000 0.0000 0.0000
# 3 94.0985 45.1397 203.5917 0.0000 0.0000 0.0000
# 4 0.0000 0.0000 0.0000 -10.2764 0.0000 0.0000
# 5 0.0000 0.0000 0.0000 0.0000 27.3686 0.0000
# 6 0.0000 0.0000 0.0000 0.0000 0.0000 21.4288
#
#
#
# Elastic Compliance Matrix: (Units=1/GPa)
#
#
# Indices 1 2 3 4 5 6 
#
# 1 0.020290 -0.014894 -0.006076 0.000000 0.000000 0.000000
# 2 -0.014894 0.059999 -0.006419 0.000000 0.000000 0.000000
# 3 -0.006076 -0.006419 0.009143 0.000000 0.000000 0.000000
# 4 0.000000 0.000000 0.000000 -0.097310 0.000000 0.000000
# 5 0.000000 0.000000 0.000000 0.000000 0.036538 0.000000
# 6 0.000000 0.000000 0.000000 0.000000 0.000000 0.046666
#
#
# Mechanical properties :
#
#
# Convention : Reuss Voigt Hill
#
# Bulk Modulus (GPa) = 28.85572 76.42927 52.64250
# Shear Modulus (GPa) = 35.29712 18.54939 26.92325
#
# Velocity S-wave (km/s) = 4.40489 3.19323 3.84706
# Velocity P-wave (km/s) = 6.46010 7.45716 6.97647
#
# Compressibility (1/GPa) = 0.03465517
#
# Stress axis : x y z
#
# Youngs Moduli (GPa) = 49.28574 16.66692 109.37231
#
# Poissons Ratio (x) = 0.24823 0.66450
# Poissons Ratio (y) = 0.73405 0.70206
# Poissons Ratio (z) = 0.29944 0.10698
#
# Static dielectric constant tensor:
#      x y z
#    x 1.608610 0.000000 0.000000 
#    y 0.000000 1.612170 0.000000 
#    z 0.000000 0.000000 1.600270 
# 
# From -- ./inp_files/49046.got.cif
#   From: 2010.05.17/outbox.cif.g08.bks.cpg/sg65_25_cif.got.tgz:49046.got - 2010.06.03 17:01:31.
