data_PCOD9490541
_publ_section_title
;
Structure prediction by ZEFSAII (Michael W. Deem and Ramdas Pophale) SiO2 
 PCOD9490541
Probable space group: C M M M
;
_chemical_formula_sum "Si O2"
_cell_formula_units_Z 90
_cell_length_a 22.295085
_cell_length_b 18.558825
_cell_length_c 13.061367
_cell_angle_alpha 90.000000
_cell_angle_beta 90.000000
_cell_angle_gamma 90.000000
_cell_volume 5404.409411
_symmetry_space_group_name_H-M "C M M M"
_symmetry_group_IT_number 65
_symmetry_cell_setting 'orthorhombic'
loop_
_space_group_symop_operation_xyz
x,y,z
-x,-y,z
x,-y,-z
-x,y,-z
-x,-y,-z
x,y,-z
-x,y,z
x,-y,z
1/2+x,1/2+y,z
1/2-x,1/2-y,z
1/2+x,1/2-y,-z
1/2-x,1/2+y,-z
1/2-x,1/2-y,-z
1/2+x,1/2+y,-z
1/2-x,1/2+y,z
1/2+x,1/2-y,z
loop_
_atom_site_type_symbol
_atom_site_label
_atom_site_fract_x
_atom_site_fract_y
_atom_site_fract_z
Si Si1 0.068287 0.664762 0.877879
Si Si2 0.500000 0.500000 0.500000
Si Si3 0.106297 0.803052 0.760637
Si Si4 0.500000 0.353203 0.614911
Si Si5 0.191057 0.085062 0.878758
Si Si6 0.811750 0.705862 0.384221
Si Si7 0.181137 0.414549 0.775416
O O1 0.078292 0.747360 0.842413
O O2 0.120630 0.617192 0.826186
O O3 0.000000 0.643497 0.848447
O O4 0.073637 0.659074 0.000000
O O5 0.500000 0.436712 0.587100
O O6 0.146401 0.863655 0.815792
O O7 0.146835 0.753340 0.688324
O O8 0.056750 0.834551 0.684517
O O9 0.500000 0.317117 0.500000
O O10 0.260062 0.099226 0.845636
O O11 0.179319 0.000000 0.858700
O O12 0.184513 0.097817 0.000000
O O13 0.834503 0.698966 0.500000
O O14 0.750000 0.750000 0.387463
O O15 0.806525 0.628742 0.329326
O O16 0.175661 0.500000 0.760833
#
# Coordination Sequence:
#
# PCOD9490541 Si02
#       7
#    16   2  16   8  16  16  16
#     4  10  21  36  57  86 114 146 191 236 279 333
#     4   8  24  40  56  84 106 148 198 244 274 352
#     4  11  20  37  57  81 110 151 183 235 284 335
#     4  10  22  38  57  80 111 146 193 235 281 337
#     4  10  21  35  54  82 114 150 188 226 277 341
#     4  10  20  36  57  84 111 142 186 232 283 336
#     4  10  21  38  58  82 116 153 187 229 284 340
#
# _framework density 16.653068999999999
#
# number of rings (size 3 to 8) (size 9 to 14) (size 15 to 20)
#    0.267    1.600    2.667    1.600    1.244    1.778 
#    0.000    3.556    0.000    1.067    0.000    2.489 
#    0.000    0.000    0.000    0.000    0.000    0.000 
#
# Total GULP energy -250512.848346 kJ/mol
# GULP energy per Si atom -5566.952185 kJ/mol
# Density = 1.661517 g / cm^3
# Si number density = 16.653069 Si / 1000 Ang^3
#
#
#
# Elastic Constant Matrix: (Units=GPa)
#
#
# Indices 1 2 3 4 5 6 
#
# 1 103.2401 53.1192 45.8584 0.0000 0.0000 0.0000
# 2 53.1192 105.7868 53.6955 0.0000 0.0000 0.0000
# 3 45.8584 53.6955 106.5702 0.0000 0.0000 0.0000
# 4 0.0000 0.0000 0.0000 22.2075 0.0000 0.0000
# 5 0.0000 0.0000 0.0000 0.0000 -97.4945 0.0000
# 6 0.0000 0.0000 0.0000 0.0000 0.0000 -3.6335
#
#
#
# Elastic Compliance Matrix: (Units=1/GPa)
#
#
# Indices 1 2 3 4 5 6 
#
# 1 0.013876 -0.005290 -0.003306 0.000000 0.000000 0.000000
# 2 -0.005290 0.014718 -0.005139 0.000000 0.000000 0.000000
# 3 -0.003306 -0.005139 0.013395 0.000000 0.000000 0.000000
# 4 0.000000 0.000000 0.000000 0.045030 0.000000 0.000000
# 5 0.000000 0.000000 0.000000 0.000000 -0.010257 0.000000
# 6 0.000000 0.000000 0.000000 0.000000 0.000000 -0.275219
#
#
# Mechanical properties :
#
#
# Convention : Reuss Voigt Hill
#
# Bulk Modulus (GPa) = 68.87220 68.99369 68.93294
# Shear Modulus (GPa) = -30.09390 -4.92248 -17.50819
#
# Velocity S-wave (km/s) = -4.25562 -1.72114 -3.24597
# Velocity P-wave (km/s) = 4.15930 6.12945 5.23784
#
# Compressibility (1/GPa) = 0.01451965
#
# Stress axis : x y z
#
# Youngs Moduli (GPa) = 72.06539 67.94512 74.65198
#
# Poissons Ratio (x) = 0.35941 0.24679
# Poissons Ratio (y) = 0.38121 0.38366
# Poissons Ratio (z) = 0.23824 0.34919
#
# Static dielectric constant tensor:
#      x y z
#    x 1.581220 0.000000 0.000000 
#    y 0.000000 1.544440 0.000000 
#    z 0.000000 0.000000 1.552230 
# 
# From -- ./inp_files/28750.got.cif
#   From: 2010.05.17/outbox.cif.g08.bks.cpg/sg65_15_cif.got.tgz:28750.got - 2010.06.03 17:01:31.
