data_PCOD9490273
_publ_section_title
;
Structure prediction by ZEFSAII (Michael W. Deem and Ramdas Pophale) SiO2 
 PCOD9490273
Probable space group: C M M M
;
_chemical_formula_sum "Si O2"
_cell_formula_units_Z 72
_cell_length_a 18.674362
_cell_length_b 8.950981
_cell_length_c 23.564950
_cell_angle_alpha 90.000000
_cell_angle_beta 90.000000
_cell_angle_gamma 90.000000
_cell_volume 3938.972340
_symmetry_space_group_name_H-M "C M M M"
_symmetry_group_IT_number 65
_symmetry_cell_setting 'orthorhombic'
loop_
_space_group_symop_operation_xyz
x,y,z
-x,-y,z
x,-y,-z
-x,y,-z
-x,-y,-z
x,y,-z
-x,y,z
x,-y,z
1/2+x,1/2+y,z
1/2-x,1/2-y,z
1/2+x,1/2-y,-z
1/2-x,1/2+y,-z
1/2-x,1/2-y,-z
1/2+x,1/2+y,-z
1/2-x,1/2+y,z
1/2+x,1/2-y,z
loop_
_atom_site_type_symbol
_atom_site_label
_atom_site_fract_x
_atom_site_fract_y
_atom_site_fract_z
Si Si1 0.672467 0.821663 0.565597
Si Si2 0.414446 0.822266 0.118377
Si Si3 0.912993 0.827904 0.000000
Si Si4 0.416993 0.320667 0.664744
Si Si5 0.328593 0.320521 0.222143
O O1 0.654185 0.786062 0.500000
O O2 0.750000 0.750000 0.577626
O O3 0.615988 0.757177 0.609759
O O4 0.677524 0.000000 0.571042
O O5 0.500000 0.795490 0.124782
O O6 0.391483 0.755982 0.057493
O O7 0.372126 0.742790 0.168704
O O8 0.402769 0.000000 0.119634
O O9 0.000000 0.827941 0.000000
O O10 0.889092 0.000000 0.000000
O O11 0.500000 0.280569 0.672924
O O12 0.412560 0.500000 0.657646
O O13 0.371117 0.280913 0.720297
O O14 0.324131 0.500000 0.218529
O O15 0.250000 0.250000 0.223575
#
# Coordination Sequence:
#
# PCOD9490273 Si02
#       5
#    16  16   8  16  16
#     4  10  21  37  58  84 114 149 188 229 275 329
#     4  10  20  35  57  85 115 147 186 230 275 326
#     4   9  17  31  54  83 114 149 186 225 273 327
#     4  10  22  39  59  84 113 146 185 230 279 331
#     4  11  23  39  58  81 111 146 186 230 279 334
#
# _framework density 18.278879
#
# number of rings (size 3 to 8) (size 9 to 14) (size 15 to 20)
#    0.000    1.889    0.000    3.667    0.000    9.333 
#    0.000    2.778    0.000    0.000    0.000    0.000 
#    0.000    0.000    0.000    0.000    0.000    0.000 
#
# Total GULP energy -201146.733999 kJ/mol
# GULP energy per Si atom -5587.409278 kJ/mol
# Density = 1.823728 g / cm^3
# Si number density = 18.278879 Si / 1000 Ang^3
#
#
#
# Elastic Constant Matrix: (Units=GPa)
#
#
# Indices 1 2 3 4 5 6 
#
# 1 112.9542 68.0214 93.9297 0.0000 0.0000 0.0000
# 2 68.0214 75.4040 71.4658 0.0000 0.0000 0.0000
# 3 93.9297 71.4658 146.9345 0.0000 0.0000 0.0000
# 4 0.0000 0.0000 0.0000 17.5002 0.0000 0.0000
# 5 0.0000 0.0000 0.0000 0.0000 114.5791 0.0000
# 6 0.0000 0.0000 0.0000 0.0000 0.0000 30.0334
#
#
#
# Elastic Compliance Matrix: (Units=1/GPa)
#
#
# Indices 1 2 3 4 5 6 
#
# 1 0.024610 -0.013524 -0.009154 0.000000 0.000000 0.000000
# 2 -0.013524 0.032036 -0.006936 0.000000 0.000000 0.000000
# 3 -0.009154 -0.006936 0.016031 0.000000 0.000000 0.000000
# 4 0.000000 0.000000 0.000000 0.057142 0.000000 0.000000
# 5 0.000000 0.000000 0.000000 0.000000 0.008728 0.000000
# 6 0.000000 0.000000 0.000000 0.000000 0.000000 0.033296
#
#
# Mechanical properties :
#
#
# Convention : Reuss Voigt Hill
#
# Bulk Modulus (GPa) = 74.36097 89.12518 81.74307
# Shear Modulus (GPa) = 21.22646 39.21425 30.22036
#
# Velocity S-wave (km/s) = 3.41142 4.63680 4.07048
# Velocity P-wave (km/s) = 7.50245 8.80516 8.17978
#
# Compressibility (1/GPa) = 0.01344791
#
# Stress axis : x y z
#
# Youngs Moduli (GPa) = 40.63384 31.21507 62.37825
#
# Poissons Ratio (x) = 0.42216 0.57103
# Poissons Ratio (y) = 0.54955 0.43265
# Poissons Ratio (z) = 0.37197 0.21650
#
# Static dielectric constant tensor:
#      x y z
#    x 1.602960 0.000000 0.000000 
#    y 0.000000 1.610710 0.000000 
#    z 0.000000 0.000000 1.602610 
# 
# From -- ./inp_files/64350.got.cif
#   From: 2010.05.17/outbox.cif.g08.bks.cpg/sg65_33_cif.got.tgz:64350.got - 2010.06.03 17:01:31.
