data_PCOD9490549
_publ_section_title
;
Structure prediction by ZEFSAII (Michael W. Deem and Ramdas Pophale) SiO2 
 PCOD9490549
Probable space group: C M M M
;
_chemical_formula_sum "Si O2"
_cell_formula_units_Z 120
_cell_length_a 30.341759
_cell_length_b 7.805750
_cell_length_c 28.314753
_cell_angle_alpha 90.000000
_cell_angle_beta 90.000000
_cell_angle_gamma 90.000000
_cell_volume 6706.071348
_symmetry_space_group_name_H-M "C M M M"
_symmetry_group_IT_number 65
_symmetry_cell_setting 'orthorhombic'
loop_
_space_group_symop_operation_xyz
x,y,z
-x,-y,z
x,-y,-z
-x,y,-z
-x,-y,-z
x,y,-z
-x,y,z
x,-y,z
1/2+x,1/2+y,z
1/2-x,1/2-y,z
1/2+x,1/2-y,-z
1/2-x,1/2+y,-z
1/2-x,1/2-y,-z
1/2+x,1/2+y,-z
1/2-x,1/2+y,z
1/2+x,1/2-y,z
loop_
_atom_site_type_symbol
_atom_site_label
_atom_site_fract_x
_atom_site_fract_y
_atom_site_fract_z
Si Si1 0.049641 0.792500 0.087882
Si Si2 0.299254 0.701020 0.861654
Si Si3 0.053239 0.500000 0.446479
Si Si4 0.549926 0.708632 0.803780
Si Si5 0.447487 0.703631 0.626142
Si Si6 0.641678 0.200261 0.050639
Si Si7 0.109479 0.208956 0.282542
Si Si8 0.200149 0.793502 0.244894
O O1 0.057954 0.737509 0.142294
O O2 0.089571 0.727672 0.056807
O O3 0.000000 0.739010 0.074631
O O4 0.050473 0.000000 0.086873
O O5 0.299952 0.500000 0.854640
O O6 0.250000 0.750000 0.877003
O O7 0.333959 0.737169 0.902530
O O8 0.306998 0.774803 0.808951
O O9 0.070469 0.500000 0.500000
O O10 0.064526 0.329160 0.416914
O O11 0.000000 0.500000 0.449196
O O12 0.500000 0.757820 0.790856
O O13 0.551315 0.500000 0.804325
O O14 0.584182 0.767454 0.764740
O O15 0.500000 0.724726 0.636325
O O16 0.440750 0.500000 0.616487
O O17 0.418266 0.755868 0.671300
O O18 0.650969 0.000000 0.048909
O O19 0.655711 0.277567 0.000000
O O20 0.160107 0.266147 0.277954
O O21 0.108825 0.000000 0.281977
O O22 0.250000 0.750000 0.258996
O O23 0.197398 0.000000 0.243941
#
# Coordination Sequence:
#
# PCOD9490549 Si02
#       8
#    16  16   8  16  16  16  16  16
#     4   9  18  33  53  74  94 120 157 198 236 286
#     4  10  20  36  58  78  97 122 153 191 238 294
#     4   9  18  32  48  68 102 144 182 224 261 293
#     4   8  13  23  43  70  94 118 152 188 230 286
#     4   9  17  29  47  72 102 139 179 216 257 304
#     4  11  24  38  51  69  93 121 154 195 243 294
#     4   9  15  25  44  69  98 131 160 196 237 288
#     4   9  18  32  49  71  98 127 159 193 233 289
#
# _framework density 17.894233
#
# number of rings (size 3 to 8) (size 9 to 14) (size 15 to 20)
#    0.000    2.733    0.000    2.800    0.000    6.400 
#    1.200    2.667    1.467    0.000    0.000    0.000 
#    0.000    0.533    0.267    0.000    0.000    0.000 
#
# Total GULP energy -334470.304686 kJ/mol
# GULP energy per Si atom -5574.505078 kJ/mol
# Density = 1.785351 g / cm^3
# Si number density = 17.894233 Si / 1000 Ang^3
#
#
#
# Elastic Constant Matrix: (Units=GPa)
#
#
# Indices 1 2 3 4 5 6 
#
# 1 90.8759 14.0526 57.6565 0.0000 0.0000 0.0000
# 2 14.0526 35.1385 17.9801 0.0000 0.0000 0.0000
# 3 57.6565 17.9801 71.1555 0.0000 0.0000 0.0000
# 4 0.0000 0.0000 0.0000 17.9960 0.0000 0.0000
# 5 0.0000 0.0000 0.0000 0.0000 -0.9995 0.0000
# 6 0.0000 0.0000 0.0000 0.0000 0.0000 19.7877
#
#
#
# Elastic Compliance Matrix: (Units=1/GPa)
#
#
# Indices 1 2 3 4 5 6 
#
# 1 0.022651 0.000382 -0.018450 0.000000 0.000000 0.000000
# 2 0.000382 0.032691 -0.008571 0.000000 0.000000 0.000000
# 3 -0.018450 -0.008571 0.031169 0.000000 0.000000 0.000000
# 4 0.000000 0.000000 0.000000 0.055568 0.000000 0.000000
# 5 0.000000 0.000000 0.000000 0.000000 -1.000528 0.000000
# 6 0.000000 0.000000 0.000000 0.000000 0.000000 0.050537
#
#
# Mechanical properties :
#
#
# Convention : Reuss Voigt Hill
#
# Bulk Modulus (GPa) = 30.08901 41.83869 35.96385
# Shear Modulus (GPa) = -6.72443 14.52221 3.89889
#
# Velocity S-wave (km/s) = -1.94063 2.85188 1.47769
# Velocity P-wave (km/s) = 3.43948 5.85458 4.80136
#
# Compressibility (1/GPa) = 0.03323472
#
# Stress axis : x y z
#
# Youngs Moduli (GPa) = 44.14878 30.58907 32.08273
#
# Poissons Ratio (x) = -0.01170 0.59193
# Poissons Ratio (y) = -0.01688 0.27497
# Poissons Ratio (z) = 0.81455 0.26217
#
# Static dielectric constant tensor:
#      x y z
#    x 1.611470 0.000000 0.000000 
#    y 0.000000 1.683580 0.000000 
#    z 0.000000 0.000000 1.663010 
# 
# From -- ./inp_files/76145.got.cif
#   From: 2010.05.17/outbox.cif.g08.bks.cpg/sg65_39_cif.got.tgz:76145.got - 2010.06.03 17:01:31.
