data_PCOD9490467
_publ_section_title
;
Structure prediction by ZEFSAII (Michael W. Deem and Ramdas Pophale) SiO2 
 PCOD9490467
Probable space group: C M M M
;
_chemical_formula_sum "Si O2"
_cell_formula_units_Z 88
_cell_length_a 8.644167
_cell_length_b 24.818689
_cell_length_c 23.500340
_cell_angle_alpha 90.000000
_cell_angle_beta 90.000000
_cell_angle_gamma 90.000000
_cell_volume 5041.689915
_symmetry_space_group_name_H-M "C M M M"
_symmetry_group_IT_number 65
_symmetry_cell_setting 'orthorhombic'
loop_
_space_group_symop_operation_xyz
x,y,z
-x,-y,z
x,-y,-z
-x,y,-z
-x,-y,-z
x,y,-z
-x,y,z
x,-y,z
1/2+x,1/2+y,z
1/2-x,1/2-y,z
1/2+x,1/2-y,-z
1/2-x,1/2+y,-z
1/2-x,1/2-y,-z
1/2+x,1/2+y,-z
1/2-x,1/2+y,z
1/2+x,1/2-y,z
loop_
_atom_site_type_symbol
_atom_site_label
_atom_site_fract_x
_atom_site_fract_y
_atom_site_fract_z
Si Si1 0.814007 0.613493 0.064940
Si Si2 0.314049 0.000000 0.567154
Si Si3 0.825454 0.000000 0.068720
Si Si4 0.686473 0.190752 0.835376
Si Si5 0.313835 0.689376 0.500000
Si Si6 0.686151 0.614896 0.393095
Si Si7 0.686131 0.189464 0.294484
O O1 0.763797 0.554038 0.083356
O O2 0.756421 0.653692 0.113295
O O3 0.000000 0.616099 0.063139
O O4 0.758229 0.624000 0.000000
O O5 0.251087 0.054994 0.595544
O O6 0.500000 0.000000 0.570314
O O7 0.268873 0.000000 0.500000
O O8 0.000000 0.000000 0.090966
O O9 0.833030 0.000000 0.000000
O O10 0.500000 0.191223 0.837097
O O11 0.750000 0.250000 0.844723
O O12 0.729809 0.175266 0.770794
O O13 0.500000 0.693016 0.500000
O O14 0.250000 0.750000 0.500000
O O15 0.266792 0.654422 0.554881
O O16 0.500000 0.611965 0.391941
O O17 0.747396 0.644954 0.337044
O O18 0.500000 0.191272 0.299031
O O19 0.750000 0.250000 0.306585
#
# Coordination Sequence:
#
# PCOD9490467 Si02
#       7
#    16   8   8  16   8  16  16
#     4   9  17  31  51  74 101 136 176 216 264 322
#     4  11  23  39  60  85 112 147 181 215 262 319
#     4   9  17  29  46  71 100 129 164 210 261 308
#     4   9  19  34  52  75 105 140 176 217 265 317
#     4  10  22  35  52  79 109 136 166 210 259 304
#     4  11  22  38  58  81 109 143 179 219 265 313
#     4  10  20  36  56  79 107 141 181 223 269 320
#
# _framework density 17.454466
#
# number of rings (size 3 to 8) (size 9 to 14) (size 15 to 20)
#    0.000    2.182    0.909    2.182    0.000    6.182 
#    0.000    0.909    0.000    2.182    0.000    0.000 
#    0.000    0.000    0.000    0.000    0.000    0.000 
#
# Total GULP energy -245386.628730 kJ/mol
# GULP energy per Si atom -5576.968835 kJ/mol
# Density = 1.741474 g / cm^3
# Si number density = 17.454466 Si / 1000 Ang^3
#
#
#
# Elastic Constant Matrix: (Units=GPa)
#
#
# Indices 1 2 3 4 5 6 
#
# 1 29.8321 36.7424 35.8922 0.0000 0.0000 0.0000
# 2 36.7424 164.5499 117.4816 0.0000 0.0000 0.0000
# 3 35.8922 117.4816 141.5164 0.0000 0.0000 0.0000
# 4 0.0000 0.0000 0.0000 14.5670 0.0000 0.0000
# 5 0.0000 0.0000 0.0000 0.0000 16.2453 0.0000
# 6 0.0000 0.0000 0.0000 0.0000 0.0000 32.5263
#
#
#
# Elastic Compliance Matrix: (Units=1/GPa)
#
#
# Indices 1 2 3 4 5 6 
#
# 1 0.049977 -0.005180 -0.008376 0.000000 0.000000 0.000000
# 2 -0.005180 0.015457 -0.011519 0.000000 0.000000 0.000000
# 3 -0.008376 -0.011519 0.018753 0.000000 0.000000 0.000000
# 4 0.000000 0.000000 0.000000 0.068648 0.000000 0.000000
# 5 0.000000 0.000000 0.000000 0.000000 0.061556 0.000000
# 6 0.000000 0.000000 0.000000 0.000000 0.000000 0.030744
#
#
# Mechanical properties :
#
#
# Convention : Reuss Voigt Hill
#
# Bulk Modulus (GPa) = 29.37707 79.57008 54.47357
# Shear Modulus (GPa) = 16.30624 22.38652 19.34638
#
# Velocity S-wave (km/s) = 3.05981 3.58518 3.33286
# Velocity P-wave (km/s) = 5.41761 7.92617 6.78877
#
# Compressibility (1/GPa) = 0.03404016
#
# Stress axis : x y z
#
# Youngs Moduli (GPa) = 20.00904 64.69353 53.32522
#
# Poissons Ratio (x) = 0.33509 0.44663
# Poissons Ratio (y) = 0.10364 0.61423
# Poissons Ratio (z) = 0.16759 0.74518
#
# Static dielectric constant tensor:
#      x y z
#    x 1.594940 0.000000 0.000000 
#    y 0.000000 1.560110 0.000000 
#    z 0.000000 0.000000 1.607740 
# 
# From -- ./inp_files/67669.got.cif
#   From: 2010.05.17/outbox.cif.g08.bks.cpg/sg65_34_cif.got.tgz:67669.got - 2010.06.03 17:01:31.
