data_PCOD9490708
_publ_section_title
;
Structure prediction by ZEFSAII (Michael W. Deem and Ramdas Pophale) SiO2 
 PCOD9490708
Probable space group: C M M M
;
_chemical_formula_sum "Si O2"
_cell_formula_units_Z 64
_cell_length_a 30.914543
_cell_length_b 8.862906
_cell_length_c 12.665228
_cell_angle_alpha 90.000000
_cell_angle_beta 90.000000
_cell_angle_gamma 90.000000
_cell_volume 3470.179872
_symmetry_space_group_name_H-M "C M M M"
_symmetry_group_IT_number 65
_symmetry_cell_setting 'orthorhombic'
loop_
_space_group_symop_operation_xyz
x,y,z
-x,-y,z
x,-y,-z
-x,y,-z
-x,-y,-z
x,y,-z
-x,y,z
x,-y,z
1/2+x,1/2+y,z
1/2-x,1/2-y,z
1/2+x,1/2-y,-z
1/2-x,1/2+y,-z
1/2-x,1/2-y,-z
1/2+x,1/2+y,-z
1/2-x,1/2+y,z
1/2+x,1/2-y,z
loop_
_atom_site_type_symbol
_atom_site_label
_atom_site_fract_x
_atom_site_fract_y
_atom_site_fract_z
Si Si1 0.948387 0.817944 0.500000
Si Si2 0.617667 0.178761 0.331336
Si Si3 0.707770 0.668486 0.624215
Si Si4 0.409419 0.679391 0.123553
Si Si5 0.500000 0.170781 0.873381
O O1 0.921051 0.755913 0.600784
O O2 0.000000 0.776320 0.500000
O O3 0.946170 0.000000 0.500000
O O4 0.664190 0.235170 0.370217
O O5 0.617418 0.230133 0.209416
O O6 0.613043 0.000000 0.341716
O O7 0.716535 0.650468 0.500000
O O8 0.701004 0.500000 0.668931
O O9 0.750000 0.750000 0.671290
O O10 0.405099 0.500000 0.136832
O O11 0.457854 0.733443 0.151068
O O12 0.401150 0.715123 0.000000
O O13 0.500000 0.000000 0.828395
O O14 0.500000 0.154894 0.000000
#
# Coordination Sequence:
#
# PCOD9490708 Si02
#       5
#     8  16  16  16   8
#     4  11  25  43  60  81 116 161 203 241 288 348
#     4  12  24  38  60  87 120 155 194 241 291 348
#     4  10  20  36  60  87 118 150 188 237 289 344
#     4  10  21  37  57  80 110 151 197 242 288 340
#     4   9  17  31  51  76 105 138 185 241 288 329
#
# _framework density 18.442848000000001
#
# number of rings (size 3 to 8) (size 9 to 14) (size 15 to 20)
#    0.000    1.500    1.250    4.500    1.750    5.000 
#    0.000    0.000    0.000    0.750    0.000    0.000 
#    0.000    0.000    0.000    0.000    0.000    0.000 
#
# Total GULP energy -178433.541066 kJ/mol
# GULP energy per Si atom -5576.048158 kJ/mol
# Density = 1.840087 g / cm^3
# Si number density = 18.442848 Si / 1000 Ang^3
#
#
#
# Elastic Constant Matrix: (Units=GPa)
#
#
# Indices 1 2 3 4 5 6 
#
# 1 109.5131 54.7848 29.8531 0.0000 0.0000 0.0000
# 2 54.7848 138.2606 42.9714 0.0000 0.0000 0.0000
# 3 29.8531 42.9714 66.6946 0.0000 0.0000 0.0000
# 4 0.0000 0.0000 0.0000 25.9856 0.0000 0.0000
# 5 0.0000 0.0000 0.0000 0.0000 8.3989 0.0000
# 6 0.0000 0.0000 0.0000 0.0000 0.0000 30.5051
#
#
#
# Elastic Compliance Matrix: (Units=1/GPa)
#
#
# Indices 1 2 3 4 5 6 
#
# 1 0.011803 -0.003795 -0.002838 0.000000 0.000000 0.000000
# 2 -0.003795 0.010264 -0.004914 0.000000 0.000000 0.000000
# 3 -0.002838 -0.004914 0.019430 0.000000 0.000000 0.000000
# 4 0.000000 0.000000 0.000000 0.038483 0.000000 0.000000
# 5 0.000000 0.000000 0.000000 0.000000 0.119063 0.000000
# 6 0.000000 0.000000 0.000000 0.000000 0.000000 0.032781
#
#
# Mechanical properties :
#
#
# Convention : Reuss Voigt Hill
#
# Bulk Modulus (GPa) = 54.33991 63.29855 58.81923
# Shear Modulus (GPa) = 19.15313 25.43519 22.29416
#
# Velocity S-wave (km/s) = 3.22609 3.71770 3.48059
# Velocity P-wave (km/s) = 6.58823 7.26804 6.93647
#
# Compressibility (1/GPa) = 0.01840268
#
# Stress axis : x y z
#
# Youngs Moduli (GPa) = 84.72090 97.42986 51.46560
#
# Poissons Ratio (x) = 0.36974 0.14607
# Poissons Ratio (y) = 0.32151 0.25292
# Poissons Ratio (z) = 0.24046 0.47880
#
# Static dielectric constant tensor:
#      x y z
#    x 1.317050 0.000000 0.000000 
#    y 0.000000 1.650560 0.000000 
#    z 0.000000 0.000000 1.662160 
# 
# From -- ./inp_files/20980.got.cif
#   From: 2010.05.17/outbox.cif.g08.bks.cpg/sg65_11_cif.got.tgz:20980.got - 2010.06.03 17:01:31.
