data_PCOD9490069
_publ_section_title
;
Structure prediction by ZEFSAII (Michael W. Deem and Ramdas Pophale) SiO2 
 PCOD9490069
Probable space group: C M M M
;
_chemical_formula_sum "Si O2"
_cell_formula_units_Z 72
_cell_length_a 19.774147
_cell_length_b 8.120466
_cell_length_c 23.329686
_cell_angle_alpha 90.000000
_cell_angle_beta 90.000000
_cell_angle_gamma 90.000000
_cell_volume 3746.171058
_symmetry_space_group_name_H-M "C M M M"
_symmetry_group_IT_number 65
_symmetry_cell_setting 'orthorhombic'
loop_
_space_group_symop_operation_xyz
x,y,z
-x,-y,z
x,-y,-z
-x,y,-z
-x,-y,-z
x,y,-z
-x,y,z
x,-y,z
1/2+x,1/2+y,z
1/2-x,1/2-y,z
1/2+x,1/2-y,-z
1/2-x,1/2+y,-z
1/2-x,1/2-y,-z
1/2+x,1/2+y,-z
1/2-x,1/2+y,z
1/2+x,1/2-y,z
loop_
_atom_site_type_symbol
_atom_site_label
_atom_site_fract_x
_atom_site_fract_y
_atom_site_fract_z
Si Si1 0.674389 0.801246 0.269190
Si Si2 0.325922 0.801276 0.934783
Si Si3 0.423626 0.303995 0.500000
Si Si4 0.325388 0.803496 0.399552
Si Si5 0.422339 0.798237 0.832619
O O1 0.750000 0.750000 0.251580
O O2 0.663308 0.741259 0.334426
O O3 0.618879 0.744413 0.223670
O O4 0.672248 0.000000 0.270154
O O5 0.250000 0.750000 0.918148
O O6 0.380770 0.744313 0.888707
O O7 0.328028 0.000000 0.935585
O O8 0.338168 0.742584 0.000000
O O9 0.427556 0.500000 0.500000
O O10 0.500000 0.235887 0.500000
O O11 0.381410 0.252676 0.555808
O O12 0.250000 0.750000 0.417583
O O13 0.326203 0.000000 0.397910
O O14 0.500000 0.744454 0.832752
O O15 0.422453 0.000000 0.832648
#
# Coordination Sequence:
#
# PCOD9490069 Si02
#       5
#    16  16   8  16  16
#     4   9  18  32  52  75  97 126 162 201 243 286
#     4   9  17  29  47  70  94 124 162 202 243 286
#     4  11  24  39  54  75 105 137 166 201 248 297
#     4  10  20  35  56  79 102 130 167 208 248 294
#     4   9  17  29  46  70  99 128 160 200 243 286
#
# _framework density 19.219625000000001
#
# number of rings (size 3 to 8) (size 9 to 14) (size 15 to 20)
#    0.000    2.556    0.000    2.000    0.000    3.111 
#    0.000    4.444    0.000    2.667    0.000    3.111 
#    0.000    0.000    0.000    0.000    0.000    0.000 
#
# Total GULP energy -200913.784790 kJ/mol
# GULP energy per Si atom -5580.938466 kJ/mol
# Density = 1.917588 g / cm^3
# Si number density = 19.219625 Si / 1000 Ang^3
#
#
#
# Elastic Constant Matrix: (Units=GPa)
#
#
# Indices 1 2 3 4 5 6 
#
# 1 212.4515 12.2035 136.5641 0.0000 0.0000 0.0000
# 2 12.2035 15.8453 12.2635 0.0000 0.0000 0.0000
# 3 136.5641 12.2635 133.9348 0.0000 0.0000 0.0000
# 4 0.0000 0.0000 0.0000 -3.6656 0.0000 0.0000
# 5 0.0000 0.0000 0.0000 0.0000 -5.0198 0.0000
# 6 0.0000 0.0000 0.0000 0.0000 0.0000 23.8255
#
#
#
# Elastic Compliance Matrix: (Units=1/GPa)
#
#
# Indices 1 2 3 4 5 6 
#
# 1 0.013661 0.000279 -0.013955 0.000000 0.000000 0.000000
# 2 0.000279 0.067929 -0.006504 0.000000 0.000000 0.000000
# 3 -0.013955 -0.006504 0.022291 0.000000 0.000000 0.000000
# 4 0.000000 0.000000 0.000000 -0.272807 0.000000 0.000000
# 5 0.000000 0.000000 0.000000 0.000000 -0.199212 0.000000
# 6 0.000000 0.000000 0.000000 0.000000 0.000000 0.041972
#
#
# Mechanical properties :
#
#
# Convention : Reuss Voigt Hill
#
# Bulk Modulus (GPa) = 15.74284 76.03262 45.88773
# Shear Modulus (GPa) = -18.89422 16.44140 -1.22641
#
# Velocity S-wave (km/s) = -3.13879 2.92798 -0.79968
# Velocity P-wave (km/s) = 2.21974 7.14678 4.80361
#
# Compressibility (1/GPa) = 0.06352095
#
# Stress axis : x y z
#
# Youngs Moduli (GPa) = 73.20037 14.72116 44.86175
#
# Poissons Ratio (x) = -0.00411 0.62604
# Poissons Ratio (y) = -0.02043 0.29180
# Poissons Ratio (z) = 1.02150 0.09575
#
# Static dielectric constant tensor:
#      x y z
#    x 1.638060 0.000000 0.000000 
#    y 0.000000 1.677570 0.000000 
#    z 0.000000 0.000000 1.688300 
# 
# From -- ./inp_files/67098.got.cif
#   From: 2010.05.17/outbox.cif.g08.bks.cpg/sg65_34_cif.got.tgz:67098.got - 2010.06.03 17:01:31.
