data_PCOD9490756
_publ_section_title
;
Structure prediction by ZEFSAII (Michael W. Deem and Ramdas Pophale) SiO2 
 PCOD9490756
Probable space group: C M M M
;
_chemical_formula_sum "Si O2"
_cell_formula_units_Z 60
_cell_length_a 25.477080
_cell_length_b 16.829888
_cell_length_c 7.171086
_cell_angle_alpha 90.000000
_cell_angle_beta 90.000000
_cell_angle_gamma 90.000000
_cell_volume 3074.792460
_symmetry_space_group_name_H-M "C M M M"
_symmetry_group_IT_number 65
_symmetry_cell_setting 'orthorhombic'
loop_
_space_group_symop_operation_xyz
x,y,z
-x,-y,z
x,-y,-z
-x,y,-z
-x,-y,-z
x,y,-z
-x,y,z
x,-y,z
1/2+x,1/2+y,z
1/2-x,1/2-y,z
1/2+x,1/2-y,-z
1/2-x,1/2+y,-z
1/2-x,1/2-y,-z
1/2+x,1/2+y,-z
1/2-x,1/2+y,z
1/2+x,1/2-y,z
loop_
_atom_site_type_symbol
_atom_site_label
_atom_site_fract_x
_atom_site_fract_y
_atom_site_fract_z
Si Si1 0.874583 0.845175 0.720635
Si Si2 0.093917 0.333011 0.721568
Si Si3 0.171861 0.408345 0.000000
Si Si4 0.000000 0.372163 0.000000
Si Si5 0.060277 0.000000 0.726427
Si Si6 0.719739 0.333884 0.000000
O O1 0.865716 0.851816 0.500000
O O2 0.905103 0.762395 0.752815
O O3 0.908726 0.920722 0.782279
O O4 0.819503 0.841262 0.826125
O O5 0.091900 0.347957 0.500000
O O6 0.045973 0.369157 0.837071
O O7 0.146425 0.366484 0.818943
O O8 0.234123 0.397840 0.000000
O O9 0.156592 0.500000 0.000000
O O10 0.059280 0.000000 0.500000
O O11 0.000000 0.000000 0.788202
O O12 0.750000 0.250000 0.000000
#
# Coordination Sequence:
#
# PCOD9490756 Si02
#       6
#    16  16   8   4   8   8
#     4  10  22  39  60  88 127 169 211 252 303 371
#     4  10  21  40  64  90 122 165 206 246 307 374
#     4  11  25  42  62  90 124 157 207 267 311 366
#     4  10  20  36  63  97 120 146 196 258 300 363
#     4   9  20  39  61  93 134 169 205 258 311 369
#     4  12  22  41  62  87 122 162 210 264 311 366
#
# _framework density 19.513511999999999
#
# number of rings (size 3 to 8) (size 9 to 14) (size 15 to 20)
#    0.000    1.733    2.667    1.200    3.733    2.133 
#    0.000    6.000    0.000    6.400    0.000    0.000 
#    0.000    0.000    0.000    0.000    0.000    0.000 
#
# Total GULP energy -167037.429777 kJ/mol
# GULP energy per Si atom -5567.914326 kJ/mol
# Density = 1.946910 g / cm^3
# Si number density = 19.513512 Si / 1000 Ang^3
#
#
#
# Elastic Constant Matrix: (Units=GPa)
#
#
# Indices 1 2 3 4 5 6 
#
# 1 109.9566 8.6999 28.0532 0.0000 0.0000 0.0000
# 2 8.6999 96.1317 16.1397 0.0000 0.0000 0.0000
# 3 28.0532 16.1397 130.4434 0.0000 0.0000 0.0000
# 4 0.0000 0.0000 0.0000 11.1201 0.0000 0.0000
# 5 0.0000 0.0000 0.0000 0.0000 21.9849 0.0000
# 6 0.0000 0.0000 0.0000 0.0000 0.0000 -3.0083
#
#
#
# Elastic Compliance Matrix: (Units=1/GPa)
#
#
# Indices 1 2 3 4 5 6 
#
# 1 0.009649 -0.000536 -0.002009 0.000000 0.000000 0.000000
# 2 -0.000536 0.010653 -0.001203 0.000000 0.000000 0.000000
# 3 -0.002009 -0.001203 0.008247 0.000000 0.000000 0.000000
# 4 0.000000 0.000000 0.000000 0.089927 0.000000 0.000000
# 5 0.000000 0.000000 0.000000 0.000000 0.045486 0.000000
# 6 0.000000 0.000000 0.000000 0.000000 0.000000 -0.332408
#
#
# Mechanical properties :
#
#
# Convention : Reuss Voigt Hill
#
# Bulk Modulus (GPa) = 47.49711 49.14637 48.32174
# Shear Modulus (GPa) = -32.48171 24.92859 -3.77656
#
# Velocity S-wave (km/s) = -4.08435 3.57810 -1.39268
# Velocity P-wave (km/s) = 1.46661 6.50468 4.71497
#
# Compressibility (1/GPa) = 0.02105391
#
# Stress axis : x y z
#
# Youngs Moduli (GPa) = 103.63300 93.87164 121.25604
#
# Poissons Ratio (x) = 0.05032 0.24359
# Poissons Ratio (y) = 0.05555 0.14585
# Poissons Ratio (z) = 0.20819 0.11291
#
# Static dielectric constant tensor:
#      x y z
#    x 1.640440 0.000000 0.000000 
#    y 0.000000 1.715300 0.000000 
#    z 0.000000 0.000000 1.693670 
# 
# From -- ./inp_files/10879.got.cif
#   From: 2010.05.17/outbox.cif.g08.bks.cpg/sg65_6_cif.got.tgz:10879.got - 2010.06.03 17:01:31.
