data_PCOD9491734
_publ_section_title
;
Structure prediction by ZEFSAII (Michael W. Deem and Ramdas Pophale) SiO2 
 PCOD9491734
Probable space group: C M M M
;
_chemical_formula_sum "Si O2"
_cell_formula_units_Z 90
_cell_length_a 8.677539
_cell_length_b 22.661488
_cell_length_c 24.384344
_cell_angle_alpha 90.000000
_cell_angle_beta 90.000000
_cell_angle_gamma 90.000000
_cell_volume 4795.082391
_symmetry_space_group_name_H-M "C M M M"
_symmetry_group_IT_number 65
_symmetry_cell_setting 'orthorhombic'
loop_
_space_group_symop_operation_xyz
x,y,z
-x,-y,z
x,-y,-z
-x,y,-z
-x,-y,-z
x,y,-z
-x,y,z
x,-y,z
1/2+x,1/2+y,z
1/2-x,1/2-y,z
1/2+x,1/2-y,-z
1/2-x,1/2+y,-z
1/2-x,1/2-y,-z
1/2+x,1/2+y,-z
1/2-x,1/2+y,z
1/2+x,1/2-y,z
loop_
_atom_site_type_symbol
_atom_site_label
_atom_site_fract_x
_atom_site_fract_y
_atom_site_fract_z
Si Si1 0.829011 0.500000 0.884861
Si Si2 0.316872 0.188167 0.743090
Si Si3 0.184063 0.684880 0.940171
Si Si4 0.183715 0.566828 0.434291
Si Si5 0.684222 0.314164 0.379387
Si Si6 0.000000 0.500000 0.000000
Si Si7 0.319293 0.383148 0.160756
O O1 0.737331 0.444688 0.862789
O O2 0.000000 0.500000 0.859141
O O3 0.867556 0.500000 0.950022
O O4 0.500000 0.192517 0.737482
O O5 0.250000 0.250000 0.765716
O O6 0.241862 0.180261 0.683399
O O7 0.269857 0.137402 0.785083
O O8 0.250000 0.750000 0.945384
O O9 0.273341 0.658876 0.889321
O O10 0.000000 0.683888 0.930226
O O11 0.207469 0.654714 0.000000
O O12 0.205097 0.568583 0.500000
O O13 0.234971 0.500000 0.416173
O O14 0.260469 0.625746 0.409384
O O15 0.000000 0.570206 0.423246
O O16 0.500000 0.310689 0.381447
O O17 0.750000 0.250000 0.399528
O O18 0.500000 0.381590 0.171861
#
# Coordination Sequence:
#
# PCOD9491734 Si02
#       7
#     8  16  16  16  16   2  16
#     4  10  23  43  63  85 109 150 189 236 288 348
#     4  11  22  40  64  89 119 158 199 245 302 363
#     4  10  21  36  55  80 110 142 180 226 279 338
#     4   9  19  38  63  91 126 169 216 265 319 380
#     4  11  22  38  61  91 127 166 212 264 318 380
#     4   8  24  44  70  80 116 148 202 236 298 362
#     4  12  24  39  59  85 116 147 188 237 288 349
#
# _framework density 18.769228999999999
#
# number of rings (size 3 to 8) (size 9 to 14) (size 15 to 20)
#    0.267    1.244    0.000    7.733    1.244    2.133 
#    1.600    1.333    0.000    0.000    0.000    0.000 
#    0.000    0.000    0.000    0.000    0.000    0.000 
#
# Total GULP energy -250729.314573 kJ/mol
# GULP energy per Si atom -5571.762546 kJ/mol
# Density = 1.872651 g / cm^3
# Si number density = 18.769229 Si / 1000 Ang^3
#
#
#
# Elastic Constant Matrix: (Units=GPa)
#
#
# Indices 1 2 3 4 5 6 
#
# 1 125.0782 53.4221 34.6259 0.0000 0.0000 0.0000
# 2 53.4221 145.4057 59.2238 0.0000 0.0000 0.0000
# 3 34.6259 59.2238 57.4976 0.0000 0.0000 0.0000
# 4 0.0000 0.0000 0.0000 27.9651 0.0000 0.0000
# 5 0.0000 0.0000 0.0000 0.0000 30.4378 0.0000
# 6 0.0000 0.0000 0.0000 0.0000 0.0000 27.5913
#
#
#
# Elastic Compliance Matrix: (Units=1/GPa)
#
#
# Indices 1 2 3 4 5 6 
#
# 1 0.009951 -0.002094 -0.003836 0.000000 0.000000 0.000000
# 2 -0.002094 0.012288 -0.011396 0.000000 0.000000 0.000000
# 3 -0.003836 -0.011396 0.031441 0.000000 0.000000 0.000000
# 4 0.000000 0.000000 0.000000 0.035759 0.000000 0.000000
# 5 0.000000 0.000000 0.000000 0.000000 0.032854 0.000000
# 6 0.000000 0.000000 0.000000 0.000000 0.000000 0.036243
#
#
# Mechanical properties :
#
#
# Convention : Reuss Voigt Hill
#
# Bulk Modulus (GPa) = 52.55491 69.16945 60.86218
# Shear Modulus (GPa) = 25.05869 29.24616 27.15242
#
# Velocity S-wave (km/s) = 3.65786 3.95168 3.80761
# Velocity P-wave (km/s) = 6.77505 7.59958 7.19913
#
# Compressibility (1/GPa) = 0.01902772
#
# Stress axis : x y z
#
# Youngs Moduli (GPa) = 100.49044 81.37876 31.80570
#
# Poissons Ratio (x) = 0.17037 0.12202
# Poissons Ratio (y) = 0.21038 0.36247
# Poissons Ratio (z) = 0.38552 0.92742
#
# Static dielectric constant tensor:
#      x y z
#    x 1.629090 0.000000 0.000000 
#    y 0.000000 1.635860 0.000000 
#    z 0.000000 0.000000 1.630960 
# 
# From -- ./inp_files/67692.got.cif
#   From: 2010.05.17/outbox.cif.g08.bks.cpg/sg65_34_cif.got.tgz:67692.got - 2010.06.03 17:01:31.
