data_PCOD9491807
_publ_section_title
;
Structure prediction by ZEFSAII (Michael W. Deem and Ramdas Pophale) SiO2 
 PCOD9491807
Probable space group: C M M M
;
_chemical_formula_sum "Si O2"
_cell_formula_units_Z 96
_cell_length_a 25.536666
_cell_length_b 20.878055
_cell_length_c 7.413584
_cell_angle_alpha 90.000000
_cell_angle_beta 90.000000
_cell_angle_gamma 90.000000
_cell_volume 3952.596178
_symmetry_space_group_name_H-M "C M M M"
_symmetry_group_IT_number 65
_symmetry_cell_setting 'orthorhombic'
loop_
_space_group_symop_operation_xyz
x,y,z
-x,-y,z
x,-y,-z
-x,y,-z
-x,-y,-z
x,y,-z
-x,y,z
x,-y,z
1/2+x,1/2+y,z
1/2-x,1/2-y,z
1/2+x,1/2-y,-z
1/2-x,1/2+y,-z
1/2-x,1/2-y,-z
1/2+x,1/2+y,-z
1/2-x,1/2+y,z
1/2+x,1/2-y,z
loop_
_atom_site_type_symbol
_atom_site_label
_atom_site_fract_x
_atom_site_fract_y
_atom_site_fract_z
Si Si1 0.246945 0.177363 0.288507
Si Si2 0.059691 0.380875 0.779422
Si Si3 0.169108 0.569612 0.217832
Si Si4 0.937179 0.241185 0.798372
Si Si5 0.058117 0.099090 0.704920
Si Si6 0.329926 0.431077 0.278462
O O1 0.234870 0.185363 0.500000
O O2 0.250000 0.250000 0.214125
O O3 0.298301 0.132200 0.274950
O O4 0.201851 0.130527 0.213423
O O5 0.108044 0.424943 0.728796
O O6 0.076859 0.309521 0.718390
O O7 0.000000 0.395820 0.721211
O O8 0.057806 0.378701 0.000000
O O9 0.188971 0.500000 0.281603
O O10 0.170976 0.569907 0.000000
O O11 0.929131 0.174940 0.699614
O O12 0.000000 0.246504 0.814004
O O13 0.914712 0.235408 0.000000
O O14 0.054524 0.075783 0.500000
O O15 0.110151 0.070274 0.786304
O O16 0.000000 0.090666 0.786769
O O17 0.330546 0.428710 0.500000
O O18 0.306822 0.500000 0.226933
#
# Coordination Sequence:
#
# PCOD9491807 Si02
#       6
#    16  16  16  16  16  16
#     4  10  22  39  59  80 103 139 188 232 271 325
#     4   8  15  29  50  77 109 144 179 214 260 322
#     4  10  21  36  56  84 115 144 179 227 278 326
#     4   8  14  26  44  66  96 135 171 201 242 301
#     4   9  17  28  46  74 102 126 160 210 261 306
#     4   9  18  33  52  73 101 136 170 208 259 318
#
# _framework density 24.287832999999999
#
# number of rings (size 3 to 8) (size 9 to 14) (size 15 to 20)
#    0.000    3.000    0.000    1.500    2.333    2.000 
#    0.000    4.167    0.000    2.000    0.000    3.500 
#    0.000    0.000    0.000    0.000    0.000    0.000 
#
# Total GULP energy -267658.883918 kJ/mol
# GULP energy per Si atom -5576.226748 kJ/mol
# Density = 2.423255 g / cm^3
# Si number density = 24.287833 Si / 1000 Ang^3
#
#
#
# Elastic Constant Matrix: (Units=GPa)
#
#
# Indices 1 2 3 4 5 6 
#
# 1 160.3918 84.9986 -4.5064 0.0000 0.0000 0.0000
# 2 84.9986 213.4757 6.0647 0.0000 0.0000 0.0000
# 3 -4.5064 6.0647 79.1679 0.0000 0.0000 0.0000
# 4 0.0000 0.0000 0.0000 -7.7056 0.0000 0.0000
# 5 0.0000 0.0000 0.0000 0.0000 3.7750 0.0000
# 6 0.0000 0.0000 0.0000 0.0000 0.0000 50.9448
#
#
#
# Elastic Compliance Matrix: (Units=1/GPa)
#
#
# Indices 1 2 3 4 5 6 
#
# 1 0.007940 -0.003181 0.000696 0.000000 0.000000 0.000000
# 2 -0.003181 0.005969 -0.000638 0.000000 0.000000 0.000000
# 3 0.000696 -0.000638 0.012720 0.000000 0.000000 0.000000
# 4 0.000000 0.000000 0.000000 -0.129776 0.000000 0.000000
# 5 0.000000 0.000000 0.000000 0.000000 0.264897 0.000000
# 6 0.000000 0.000000 0.000000 0.000000 0.000000 0.019629
#
#
# Mechanical properties :
#
#
# Convention : Reuss Voigt Hill
#
# Bulk Modulus (GPa) = 49.06449 69.57213 59.31831
# Shear Modulus (GPa) = 25.71732 33.83475 29.77604
#
# Velocity S-wave (km/s) = 3.25754 3.73644 3.50518
# Velocity P-wave (km/s) = 5.86463 6.87908 6.39201
#
# Compressibility (1/GPa) = 0.02038134
#
# Stress axis : x y z
#
# Youngs Moduli (GPa) = 125.94192 167.52725 78.61708
#
# Poissons Ratio (x) = 0.53295 -0.05469
# Poissons Ratio (y) = 0.40065 0.05019
# Poissons Ratio (z) = -0.08761 0.10694
#
# Static dielectric constant tensor:
#      x y z
#    x 1.931820 0.000000 0.000000 
#    y 0.000000 1.958910 0.000000 
#    z 0.000000 0.000000 1.943630 
# 
# From -- ./inp_files/12282.got.cif
#   From: 2010.05.17/outbox.cif.g08.bks.cpg/sg65_7_cif.got.tgz:12282.got - 2010.06.03 17:01:31.
