data_PCOD9491340
_publ_section_title
;
Structure prediction by ZEFSAII (Michael W. Deem and Ramdas Pophale) SiO2 
 PCOD9491340
Probable space group: C M M M
;
_chemical_formula_sum "Si O2"
_cell_formula_units_Z 80
_cell_length_a 30.316470
_cell_length_b 14.367249
_cell_length_c 9.709743
_cell_angle_alpha 90.000000
_cell_angle_beta 90.000000
_cell_angle_gamma 90.000000
_cell_volume 4229.217154
_symmetry_space_group_name_H-M "C M M M"
_symmetry_group_IT_number 65
_symmetry_cell_setting 'orthorhombic'
loop_
_space_group_symop_operation_xyz
x,y,z
-x,-y,z
x,-y,-z
-x,y,-z
-x,-y,-z
x,y,-z
-x,y,z
x,-y,z
1/2+x,1/2+y,z
1/2-x,1/2-y,z
1/2+x,1/2-y,-z
1/2-x,1/2+y,-z
1/2-x,1/2-y,-z
1/2+x,1/2+y,-z
1/2-x,1/2+y,z
1/2+x,1/2-y,z
loop_
_atom_site_type_symbol
_atom_site_label
_atom_site_fract_x
_atom_site_fract_y
_atom_site_fract_z
Si Si1 0.590597 0.889928 0.836198
Si Si2 0.869094 0.107097 0.667719
Si Si3 0.309238 0.886417 0.842619
Si Si4 0.727570 0.386045 0.340833
Si Si5 0.049393 0.764785 0.335550
O O1 0.641061 0.863213 0.797156
O O2 0.557482 0.829793 0.746863
O O3 0.585284 0.000000 0.813520
O O4 0.585785 0.873236 0.000000
O O5 0.867346 0.107094 0.500000
O O6 0.820818 0.142840 0.712881
O O7 0.911446 0.166199 0.708638
O O8 0.874021 0.000000 0.711776
O O9 0.269529 0.854859 0.746241
O O10 0.308115 0.000000 0.844282
O O11 0.303002 0.855235 0.000000
O O12 0.732442 0.358532 0.500000
O O13 0.726713 0.500000 0.338618
O O14 0.053579 0.749648 0.500000
O O15 0.000000 0.801102 0.309996
#
# Coordination Sequence:
#
# PCOD9491340 Si02
#       5
#    16  16  16  16  16
#     4   9  19  36  55  73  97 133 170 200 241 300
#     4   8  15  30  51  74 102 134 165 198 240 294
#     4   8  14  26  45  69  96 125 159 198 236 279
#     4   8  13  23  43  70  97 127 161 193 230 281
#     4  10  21  35  52  76 101 125 162 213 258 291
#
# _framework density 18.916031
#
# number of rings (size 3 to 8) (size 9 to 14) (size 15 to 20)
#    0.000    3.400    0.000    2.400    0.000    2.400 
#    0.000    8.000    0.000    7.800    0.000    1.400 
#    0.000    0.000    0.000    0.000    0.000    0.000 
#
# Total GULP energy -222976.571873 kJ/mol
# GULP energy per Si atom -5574.414297 kJ/mol
# Density = 1.887298 g / cm^3
# Si number density = 18.916031 Si / 1000 Ang^3
#
#
#
# Elastic Constant Matrix: (Units=GPa)
#
#
# Indices 1 2 3 4 5 6 
#
# 1 99.7899 20.4021 30.7717 0.0000 0.0000 0.0000
# 2 20.4021 39.8493 6.7270 0.0000 0.0000 0.0000
# 3 30.7717 6.7270 15.7158 0.0000 0.0000 0.0000
# 4 0.0000 0.0000 0.0000 10.0178 0.0000 0.0000
# 5 0.0000 0.0000 0.0000 0.0000 61.4885 0.0000
# 6 0.0000 0.0000 0.0000 0.0000 0.0000 31.0132
#
#
#
# Elastic Compliance Matrix: (Units=1/GPa)
#
#
# Indices 1 2 3 4 5 6 
#
# 1 0.026230 -0.005130 -0.049162 0.000000 0.000000 0.000000
# 2 -0.005130 0.028052 -0.001963 0.000000 0.000000 0.000000
# 3 -0.049162 -0.001963 0.160730 0.000000 0.000000 0.000000
# 4 0.000000 0.000000 0.000000 0.099823 0.000000 0.000000
# 5 0.000000 0.000000 0.000000 0.000000 0.016263 0.000000
# 6 0.000000 0.000000 0.000000 0.000000 0.000000 0.032244
#
#
# Mechanical properties :
#
#
# Convention : Reuss Voigt Hill
#
# Bulk Modulus (GPa) = 9.75592 30.12850 19.94221
# Shear Modulus (GPa) = 9.80353 27.00083 18.40218
#
# Velocity S-wave (km/s) = 2.27901 3.78220 3.12241
# Velocity P-wave (km/s) = 3.47763 5.91908 4.85435
#
# Compressibility (1/GPa) = 0.10250189
#
# Stress axis : x y z
#
# Youngs Moduli (GPa) = 38.12464 35.64755 6.22161
#
# Poissons Ratio (x) = 0.18287 0.30587
# Poissons Ratio (y) = 0.19558 0.01221
# Poissons Ratio (z) = 1.87429 0.06998
#
# Static dielectric constant tensor:
#      x y z
#    x 1.669460 0.000000 0.000000 
#    y 0.000000 1.679450 0.000000 
#    z 0.000000 0.000000 1.627080 
# 
# From -- ./inp_files/9669.got.cif
#   From: 2010.05.17/outbox.cif.g08.bks.cpg/sg65_5_cif.got.tgz:9669.got - 2010.06.03 17:01:31.
