data_PCOD9491828
_publ_section_title
;
Structure prediction by ZEFSAII (Michael W. Deem and Ramdas Pophale) SiO2 
 PCOD9491828
Probable space group: C M M M
;
_chemical_formula_sum "Si O2"
_cell_formula_units_Z 88
_cell_length_a 8.635179
_cell_length_b 25.993341
_cell_length_c 21.437993
_cell_angle_alpha 90.000000
_cell_angle_beta 90.000000
_cell_angle_gamma 90.000000
_cell_volume 4811.910861
_symmetry_space_group_name_H-M "C M M M"
_symmetry_group_IT_number 65
_symmetry_cell_setting 'orthorhombic'
loop_
_space_group_symop_operation_xyz
x,y,z
-x,-y,z
x,-y,-z
-x,y,-z
-x,-y,-z
x,y,-z
-x,y,z
x,-y,z
1/2+x,1/2+y,z
1/2-x,1/2-y,z
1/2+x,1/2-y,-z
1/2-x,1/2+y,-z
1/2-x,1/2-y,-z
1/2+x,1/2+y,-z
1/2-x,1/2+y,z
1/2+x,1/2-y,z
loop_
_atom_site_type_symbol
_atom_site_label
_atom_site_fract_x
_atom_site_fract_y
_atom_site_fract_z
Si Si1 0.685884 0.939417 0.000000
Si Si2 0.186270 0.901498 0.130978
Si Si3 0.685120 0.193203 0.792991
Si Si4 0.686774 0.000000 0.353449
Si Si5 0.312808 0.897390 0.572841
Si Si6 0.684748 0.693561 0.655701
Si Si7 0.313509 0.500000 0.786169
O O1 0.753016 0.913608 0.062062
O O2 0.500000 0.935788 0.000000
O O3 0.728769 0.000000 0.000000
O O4 0.254818 0.849351 0.159161
O O5 0.000000 0.898861 0.130666
O O6 0.233863 0.949219 0.175513
O O7 0.500000 0.194665 0.791832
O O8 0.750000 0.250000 0.807571
O O9 0.747104 0.179717 0.723769
O O10 0.735572 0.051097 0.390567
O O11 0.500000 0.000000 0.351844
O O12 0.747836 0.000000 0.283245
O O13 0.272235 0.900702 0.500000
O O14 0.500000 0.893314 0.577140
O O15 0.238283 0.848374 0.605994
O O16 0.500000 0.695810 0.660028
O O17 0.750000 0.750000 0.639890
O O18 0.500000 0.500000 0.782789
#
# Coordination Sequence:
#
# PCOD9491828 Si02
#       7
#     8  16  16   8  16  16   8
#     4  11  23  39  60  89 124 161 203 244 288 342
#     4  11  22  39  61  88 121 160 199 240 292 345
#     4  11  22  39  62  89 119 154 195 242 293 347
#     4  10  21  36  57  83 112 149 191 235 286 343
#     4  10  21  38  58  81 112 151 193 238 290 350
#     4  11  22  38  60  86 115 149 191 240 294 348
#     4  10  22  36  56  85 117 151 190 237 290 344
#
# _framework density 18.287953000000002
#
# number of rings (size 3 to 8) (size 9 to 14) (size 15 to 20)
#    0.000    1.364    0.909    6.545    0.000    7.273 
#    0.000    0.455    0.000    1.636    0.000    0.000 
#    0.000    0.000    0.000    0.000    0.000    0.000 
#
# Total GULP energy -246042.896007 kJ/mol
# GULP energy per Si atom -5591.884000 kJ/mol
# Density = 1.824633 g / cm^3
# Si number density = 18.287953 Si / 1000 Ang^3
#
#
#
# Elastic Constant Matrix: (Units=GPa)
#
#
# Indices 1 2 3 4 5 6 
#
# 1 94.6066 55.0327 67.6290 0.0000 0.0000 0.0000
# 2 55.0327 116.2570 118.4410 0.0000 0.0000 0.0000
# 3 67.6290 118.4410 187.6932 0.0000 0.0000 0.0000
# 4 0.0000 0.0000 0.0000 -17.9487 0.0000 0.0000
# 5 0.0000 0.0000 0.0000 0.0000 29.3843 0.0000
# 6 0.0000 0.0000 0.0000 0.0000 0.0000 28.6124
#
#
#
# Elastic Compliance Matrix: (Units=1/GPa)
#
#
# Indices 1 2 3 4 5 6 
#
# 1 0.015024 -0.004471 -0.002592 0.000000 0.000000 0.000000
# 2 -0.004471 0.025418 -0.014428 0.000000 0.000000 0.000000
# 3 -0.002592 -0.014428 0.015366 0.000000 0.000000 0.000000
# 4 0.000000 0.000000 0.000000 -0.055714 0.000000 0.000000
# 5 0.000000 0.000000 0.000000 0.000000 0.034032 0.000000
# 6 0.000000 0.000000 0.000000 0.000000 0.000000 0.034950
#
#
# Mechanical properties :
#
#
# Convention : Reuss Voigt Hill
#
# Bulk Modulus (GPa) = 77.97267 97.86247 87.91757
# Shear Modulus (GPa) = 42.98008 18.50653 30.74330
#
# Velocity S-wave (km/s) = 4.85313 3.18457 4.10453
# Velocity P-wave (km/s) = 8.61002 8.19452 8.40484
#
# Compressibility (1/GPa) = 0.01282501
#
# Stress axis : x y z
#
# Youngs Moduli (GPa) = 66.56115 39.34282 65.07705
#
# Poissons Ratio (x) = 0.17592 0.16866
# Poissons Ratio (y) = 0.29763 0.93895
# Poissons Ratio (z) = 0.17250 0.56765
#
# Static dielectric constant tensor:
#      x y z
#    x 1.616420 0.000000 0.000000 
#    y 0.000000 1.609130 0.000000 
#    z 0.000000 0.000000 1.591410 
# 
# From -- ./inp_files/59888.got.cif
#   From: 2010.05.17/outbox.cif.g08.bks.cpg/sg65_30_cif.got.tgz:59888.got - 2010.06.03 17:01:31.
