data_PCOD9491111
_publ_section_title
;
Structure prediction by ZEFSAII (Michael W. Deem and Ramdas Pophale) SiO2 
 PCOD9491111
Probable space group: C M M M
;
_chemical_formula_sum "Si O2"
_cell_formula_units_Z 112
_cell_length_a 14.335272
_cell_length_b 30.680244
_cell_length_c 13.930392
_cell_angle_alpha 90.000000
_cell_angle_beta 90.000000
_cell_angle_gamma 90.000000
_cell_volume 6126.720729
_symmetry_space_group_name_H-M "C M M M"
_symmetry_group_IT_number 65
_symmetry_cell_setting 'orthorhombic'
loop_
_space_group_symop_operation_xyz
x,y,z
-x,-y,z
x,-y,-z
-x,y,-z
-x,-y,-z
x,y,-z
-x,y,z
x,-y,z
1/2+x,1/2+y,z
1/2-x,1/2-y,z
1/2+x,1/2-y,-z
1/2-x,1/2+y,-z
1/2-x,1/2-y,-z
1/2+x,1/2+y,-z
1/2-x,1/2+y,z
1/2+x,1/2-y,z
loop_
_atom_site_type_symbol
_atom_site_label
_atom_site_fract_x
_atom_site_fract_y
_atom_site_fract_z
Si Si1 0.887305 0.726792 0.114694
Si Si2 0.718534 0.047393 0.115409
Si Si3 0.599668 0.051935 0.615731
Si Si4 0.892642 0.912740 0.795060
Si Si5 0.608826 0.132628 0.116704
Si Si6 0.613636 0.321819 0.110918
Si Si7 0.808380 0.052585 0.613061
O O1 0.852471 0.679727 0.150377
O O2 0.854089 0.774382 0.148390
O O3 0.000000 0.725314 0.127578
O O4 0.871114 0.728224 0.000000
O O5 0.823399 0.054770 0.150455
O O6 0.659403 0.088879 0.148617
O O7 0.683403 0.000000 0.148286
O O8 0.716293 0.047602 0.000000
O O9 0.598686 0.057365 0.500000
O O10 0.500000 0.069905 0.652488
O O11 0.703240 0.066511 0.643920
O O12 0.598492 0.000000 0.632760
O O13 0.863682 0.863955 0.826582
O O14 0.878184 0.922753 0.683118
O O15 0.000000 0.918784 0.822569
O O16 0.500000 0.129966 0.141349
O O17 0.614065 0.133706 0.000000
O O18 0.500000 0.319579 0.107415
O O19 0.645456 0.328334 0.000000
O O20 0.821158 0.061290 0.500000
O O21 0.816185 0.000000 0.625286
#
# Coordination Sequence:
#
# PCOD9491111 Si02
#       7
#    16  16  16  16  16  16  16
#     4   7  10  20  42  70  95 118 146 185 237 291
#     4  10  21  34  46  64  93 128 166 203 231 264
#     4   7  10  20  41  66  88 108 130 165 223 288
#     4  11  22  34  47  62  86 125 169 207 242 278
#     4   8  14  27  48  71  96 127 157 186 230 289
#     4   8  14  26  45  68  93 121 155 198 244 284
#     4   9  18  32  49  69  91 115 150 198 245 287
#
# _framework density 18.280578999999999
#
# number of rings (size 3 to 8) (size 9 to 14) (size 15 to 20)
#    0.000    3.429    0.000    3.857    0.000    2.571 
#    0.000    4.286    0.000    5.143    0.000    0.000 
#    0.000    3.429    0.000    8.143    0.000    1.714 
#
# Total GULP energy -311897.414965 kJ/mol
# GULP energy per Si atom -5569.596696 kJ/mol
# Density = 1.823897 g / cm^3
# Si number density = 18.280579 Si / 1000 Ang^3
#
#
#
# Elastic Constant Matrix: (Units=GPa)
#
#
# Indices 1 2 3 4 5 6 
#
# 1 52.0217 34.4682 1.1652 0.0000 0.0000 0.0000
# 2 34.4682 139.4775 42.5161 0.0000 0.0000 0.0000
# 3 1.1652 42.5161 52.2306 0.0000 0.0000 0.0000
# 4 0.0000 0.0000 0.0000 -10.6587 0.0000 0.0000
# 5 0.0000 0.0000 0.0000 0.0000 18.0924 0.0000
# 6 0.0000 0.0000 0.0000 0.0000 0.0000 24.6275
#
#
#
# Elastic Compliance Matrix: (Units=1/GPa)
#
#
# Indices 1 2 3 4 5 6 
#
# 1 0.024224 -0.007743 0.005762 0.000000 0.000000 0.000000
# 2 -0.007743 0.012011 -0.009604 0.000000 0.000000 0.000000
# 3 0.005762 -0.009604 0.026835 0.000000 0.000000 0.000000
# 4 0.000000 0.000000 0.000000 -0.093820 0.000000 0.000000
# 5 0.000000 0.000000 0.000000 0.000000 0.055272 0.000000
# 6 0.000000 0.000000 0.000000 0.000000 0.000000 0.040605
#
#
# Mechanical properties :
#
#
# Convention : Reuss Voigt Hill
#
# Bulk Modulus (GPa) = 25.06235 44.44766 34.75500
# Shear Modulus (GPa) = 49.21497 17.45093 33.33295
#
# Velocity S-wave (km/s) = 5.19427 3.09304 4.27477
# Velocity P-wave (km/s) = 7.05078 6.09285 6.58924
#
# Compressibility (1/GPa) = 0.03990049
#
# Stress axis : x y z
#
# Youngs Moduli (GPa) = 41.28167 83.26010 37.26472
#
# Poissons Ratio (x) = 0.64466 -0.21473
# Poissons Ratio (y) = 0.31963 0.35789
# Poissons Ratio (z) = -0.23788 0.79963
#
# Static dielectric constant tensor:
#      x y z
#    x 1.727050 0.000000 0.000000 
#    y 0.000000 1.662980 0.000000 
#    z 0.000000 0.000000 1.618540 
# 
# From -- ./inp_files/41377.got.cif
#   From: 2010.05.17/outbox.cif.g08.bks.cpg/sg65_21_cif.got.tgz:41377.got - 2010.06.03 17:01:31.
