data_PCOD9491318
_publ_section_title
;
Structure prediction by ZEFSAII (Michael W. Deem and Ramdas Pophale) SiO2 
 PCOD9491318
Probable space group: C M M M
;
_chemical_formula_sum "Si O2"
_cell_formula_units_Z 72
_cell_length_a 29.960099
_cell_length_b 14.713244
_cell_length_c 9.017026
_cell_angle_alpha 90.000000
_cell_angle_beta 90.000000
_cell_angle_gamma 90.000000
_cell_volume 3974.797457
_symmetry_space_group_name_H-M "C M M M"
_symmetry_group_IT_number 65
_symmetry_cell_setting 'orthorhombic'
loop_
_space_group_symop_operation_xyz
x,y,z
-x,-y,z
x,-y,-z
-x,y,-z
-x,-y,-z
x,y,-z
-x,y,z
x,-y,z
1/2+x,1/2+y,z
1/2-x,1/2-y,z
1/2+x,1/2-y,-z
1/2-x,1/2+y,-z
1/2-x,1/2-y,-z
1/2+x,1/2+y,-z
1/2-x,1/2+y,z
1/2+x,1/2-y,z
loop_
_atom_site_type_symbol
_atom_site_label
_atom_site_fract_x
_atom_site_fract_y
_atom_site_fract_z
Si Si1 0.317743 0.893726 0.176446
Si Si2 0.000000 0.606055 0.322502
Si Si3 0.637878 0.726233 0.676950
Si Si4 0.723972 0.607841 0.326639
Si Si5 0.549197 0.259670 0.824588
O O1 0.350447 0.825461 0.259652
O O2 0.267506 0.870951 0.230302
O O3 0.325525 0.000000 0.212960
O O4 0.321534 0.882536 0.000000
O O5 0.041392 0.660717 0.250745
O O6 0.000000 0.500000 0.287028
O O7 0.000000 0.617187 0.500000
O O8 0.633939 0.728197 0.500000
O O9 0.679931 0.662741 0.716516
O O10 0.591460 0.694958 0.748852
O O11 0.734078 0.628528 0.500000
O O12 0.715597 0.500000 0.315218
O O13 0.500000 0.303975 0.801373
O O14 0.556078 0.250304 0.000000
#
# Coordination Sequence:
#
# PCOD9491318 Si02
#       5
#    16   8  16  16  16
#     4  10  21  35  51  75 108 143 176 213 259 311
#     4   9  17  31  51  73  98 129 166 207 251 302
#     4  11  21  33  55  80 103 138 178 217 262 310
#     4   9  19  36  55  77 106 137 173 217 264 314
#     4   9  20  35  51  72 100 135 170 210 258 304
#
# _framework density 18.114128999999998
#
# number of rings (size 3 to 8) (size 9 to 14) (size 15 to 20)
#    0.667    1.667    0.000    2.667    0.000    7.556 
#    0.000    0.000    0.000    0.667    0.000    4.667 
#    0.000    0.000    0.000    0.000    0.000    0.000 
#
# Total GULP energy -200681.673779 kJ/mol
# GULP energy per Si atom -5574.490938 kJ/mol
# Density = 1.807290 g / cm^3
# Si number density = 18.114129 Si / 1000 Ang^3
#
#
#
# Elastic Constant Matrix: (Units=GPa)
#
#
# Indices 1 2 3 4 5 6 
#
# 1 95.0131 18.9258 35.7613 0.0000 0.0000 0.0000
# 2 18.9258 20.1111 12.1033 0.0000 0.0000 0.0000
# 3 35.7613 12.1033 49.7855 0.0000 0.0000 0.0000
# 4 0.0000 0.0000 0.0000 15.4778 0.0000 0.0000
# 5 0.0000 0.0000 0.0000 0.0000 34.0394 0.0000
# 6 0.0000 0.0000 0.0000 0.0000 0.0000 14.3372
#
#
#
# Elastic Compliance Matrix: (Units=1/GPa)
#
#
# Indices 1 2 3 4 5 6 
#
# 1 0.015816 -0.009426 -0.009069 0.000000 0.000000 0.000000
# 2 -0.009426 0.063863 -0.008755 0.000000 0.000000 0.000000
# 3 -0.009069 -0.008755 0.028729 0.000000 0.000000 0.000000
# 4 0.000000 0.000000 0.000000 0.064608 0.000000 0.000000
# 5 0.000000 0.000000 0.000000 0.000000 0.029378 0.000000
# 6 0.000000 0.000000 0.000000 0.000000 0.000000 0.069749
#
#
# Mechanical properties :
#
#
# Convention : Reuss Voigt Hill
#
# Bulk Modulus (GPa) = 18.55014 33.16561 25.85788
# Shear Modulus (GPa) = 14.50906 19.31216 16.91061
#
# Velocity S-wave (km/s) = 2.83323 3.26872 3.05873
# Velocity P-wave (km/s) = 4.57885 5.70921 5.17498
#
# Compressibility (1/GPa) = 0.05390795
#
# Stress axis : x y z
#
# Youngs Moduli (GPa) = 63.22762 15.65851 34.80797
#
# Poissons Ratio (x) = 0.14759 0.31568
# Poissons Ratio (y) = 0.59597 0.30475
# Poissons Ratio (z) = 0.57342 0.13709
#
# Static dielectric constant tensor:
#      x y z
#    x 1.649280 0.000000 0.000000 
#    y 0.000000 1.615460 0.000000 
#    z 0.000000 0.000000 1.599760 
# 
# From -- ./inp_files/18005.got.cif
#   From: 2010.05.17/outbox.cif.g08.bks.cpg/sg65_10_cif.got.tgz:18005.got - 2010.06.03 17:01:31.
