data_PCOD9491614
_publ_section_title
;
Structure prediction by ZEFSAII (Michael W. Deem and Ramdas Pophale) SiO2 
 PCOD9491614
Probable space group: C M M M
;
_chemical_formula_sum "Si O2"
_cell_formula_units_Z 96
_cell_length_a 14.405719
_cell_length_b 15.376260
_cell_length_c 22.749169
_cell_angle_alpha 90.000000
_cell_angle_beta 90.000000
_cell_angle_gamma 90.000000
_cell_volume 5039.079267
_symmetry_space_group_name_H-M "C M M M"
_symmetry_group_IT_number 65
_symmetry_cell_setting 'orthorhombic'
loop_
_space_group_symop_operation_xyz
x,y,z
-x,-y,z
x,-y,-z
-x,y,-z
-x,-y,-z
x,y,-z
-x,y,z
x,-y,z
1/2+x,1/2+y,z
1/2-x,1/2-y,z
1/2+x,1/2-y,-z
1/2-x,1/2+y,-z
1/2-x,1/2-y,-z
1/2+x,1/2+y,-z
1/2-x,1/2+y,z
1/2+x,1/2-y,z
loop_
_atom_site_type_symbol
_atom_site_label
_atom_site_fract_x
_atom_site_fract_y
_atom_site_fract_z
Si Si1 0.750000 0.146092 0.566392
Si Si2 0.750000 0.652885 0.761686
Si Si3 0.395635 0.603225 0.664529
Si Si4 0.891649 0.250000 0.070751
Si Si5 0.250000 0.600799 0.110030
Si Si6 0.395635 0.103225 0.335471
O O1 0.750000 0.111596 0.500000
O O2 0.750000 0.250000 0.563823
O O3 0.838889 0.119450 0.604814
O O4 0.661111 0.119450 0.604814
O O5 0.750000 0.750000 0.785350
O O6 0.662559 0.640559 0.718752
O O7 0.750000 0.594963 0.819183
O O8 0.837441 0.640559 0.718752
O O9 0.500000 0.637222 0.661407
O O10 0.398091 0.500000 0.673346
O O11 0.837426 0.337628 0.091526
O O12 0.837426 0.162372 0.091526
O O13 0.000000 0.250000 0.089398
O O14 0.888100 0.250000 0.000000
O O15 0.250000 0.500000 0.087333
O O16 0.500000 0.137222 0.338593
O O17 0.398091 0.000000 0.326654
#
# Coordination Sequence:
#
# PCOD9491614 Si02
#       6
#    16  16  16  16  16  16
#     4  10  21  36  54  76 104 140 184 233 283 342
#     4  11  21  37  58  83 117 152 189 237 291 347
#     4  10  21  36  55  80 109 143 184 232 289 349
#     4  10  23  43  64  93 131 166 207 257 306 360
#     4  11  22  40  65  93 126 166 211 257 306 363
#     4  10  21  36  55  80 109 143 184 232 289 349
#
# _framework density 19.051100000000002
#
# number of rings (size 3 to 8) (size 9 to 14) (size 15 to 20)
#    0.000    1.667    1.667    6.000    0.000    8.000 
#    0.000    5.000    0.000    0.000    0.000    0.000 
#    0.000    0.000    0.000    0.000    0.000    0.000 
#
# Total GULP energy -267800.114423 kJ/mol
# GULP energy per Si atom -5579.169050 kJ/mol
# Density = 1.900774 g / cm^3
# Si number density = 19.051100 Si / 1000 Ang^3
#
#
#
# Elastic Constant Matrix: (Units=GPa)
#
#
# Indices 1 2 3 4 5 6 
#
# 1 180.5286 40.9358 48.8197 0.0000 0.0000 0.0000
# 2 40.9358 134.2114 15.9254 0.0000 0.0000 0.0000
# 3 48.8197 15.9254 104.1741 0.0000 0.0000 0.0000
# 4 0.0000 0.0000 0.0000 9.8942 0.0000 0.0000
# 5 0.0000 0.0000 0.0000 0.0000 9.4622 0.0000
# 6 0.0000 0.0000 0.0000 0.0000 0.0000 4.0699
#
#
#
# Elastic Compliance Matrix: (Units=1/GPa)
#
#
# Indices 1 2 3 4 5 6 
#
# 1 0.006705 -0.001703 -0.002882 0.000000 0.000000 0.000000
# 2 -0.001703 0.008021 -0.000428 0.000000 0.000000 0.000000
# 3 -0.002882 -0.000428 0.011015 0.000000 0.000000 0.000000
# 4 0.000000 0.000000 0.000000 0.101069 0.000000 0.000000
# 5 0.000000 0.000000 0.000000 0.000000 0.105684 0.000000
# 6 0.000000 0.000000 0.000000 0.000000 0.000000 0.245706
#
#
# Mechanical properties :
#
#
# Convention : Reuss Voigt Hill
#
# Bulk Modulus (GPa) = 63.63197 70.03065 66.83131
# Shear Modulus (GPa) = 10.13243 25.56746 17.84994
#
# Velocity S-wave (km/s) = 2.30870 3.66737 3.06429
# Velocity P-wave (km/s) = 6.37024 7.40081 6.90478
#
# Compressibility (1/GPa) = 0.01571537
#
# Stress axis : x y z
#
# Youngs Moduli (GPa) = 149.14755 124.66980 90.78327
#
# Poissons Ratio (x) = 0.21232 0.26161
# Poissons Ratio (y) = 0.25401 0.03886
# Poissons Ratio (z) = 0.42980 0.05337
#
# Static dielectric constant tensor:
#      x y z
#    x 1.674220 0.000000 0.000000 
#    y 0.000000 1.690950 0.000000 
#    z 0.000000 0.000000 1.647310 
# 
# From -- ./inp_files/62638.got.cif
#   From: 2010.05.17/outbox.cif.g08.bks.cpg/sg65_32_cif.got.tgz:62638.got - 2010.06.03 17:01:31.
