data_PCOD9491391
_publ_section_title
;
Structure prediction by ZEFSAII (Michael W. Deem and Ramdas Pophale) SiO2 
 PCOD9491391
Probable space group: C M M M
;
_chemical_formula_sum "Si O2"
_cell_formula_units_Z 72
_cell_length_a 18.846723
_cell_length_b 8.771177
_cell_length_c 24.176225
_cell_angle_alpha 90.000000
_cell_angle_beta 90.000000
_cell_angle_gamma 90.000000
_cell_volume 3996.522032
_symmetry_space_group_name_H-M "C M M M"
_symmetry_group_IT_number 65
_symmetry_cell_setting 'orthorhombic'
loop_
_space_group_symop_operation_xyz
x,y,z
-x,-y,z
x,-y,-z
-x,y,-z
-x,-y,-z
x,y,-z
-x,y,z
x,-y,z
1/2+x,1/2+y,z
1/2-x,1/2-y,z
1/2+x,1/2-y,-z
1/2-x,1/2+y,-z
1/2-x,1/2-y,-z
1/2+x,1/2+y,-z
1/2-x,1/2+y,z
1/2+x,1/2-y,z
loop_
_atom_site_type_symbol
_atom_site_label
_atom_site_fract_x
_atom_site_fract_y
_atom_site_fract_z
Si Si1 0.828536 0.184307 0.000000
Si Si2 0.670105 0.182776 0.439491
Si Si3 0.416835 0.683319 0.892136
Si Si4 0.584588 0.819758 0.774091
Si Si5 0.170739 0.181304 0.673400
O O1 0.750000 0.250000 0.000000
O O2 0.870911 0.231208 0.055145
O O3 0.826071 0.000000 0.000000
O O4 0.637812 0.218521 0.500000
O O5 0.750000 0.250000 0.440952
O O6 0.638144 0.253439 0.383912
O O7 0.673508 0.000000 0.434150
O O8 0.500000 0.718870 0.901764
O O9 0.411266 0.500000 0.886057
O O10 0.394237 0.760937 0.834894
O O11 0.500000 0.793500 0.768988
O O12 0.625516 0.732970 0.725879
O O13 0.597988 0.000000 0.769443
O O14 0.250000 0.250000 0.678789
O O15 0.175616 0.000000 0.669831
#
# Coordination Sequence:
#
# PCOD9491391 Si02
#       5
#     8  16  16  16  16
#     4  10  21  35  53  79 109 138 166 206 258 306
#     4   9  16  27  45  70 101 135 171 212 258 308
#     4   9  18  35  57  77  99 133 177 215 249 298
#     4  10  21  37  56  78 105 137 174 216 262 312
#     4  11  21  33  52  77 106 138 174 217 263 311
#
# _framework density 18.015663
#
# number of rings (size 3 to 8) (size 9 to 14) (size 15 to 20)
#    0.000    2.222    0.000    5.000    0.000    5.778 
#    0.000    2.222    0.000    4.000    0.000    4.667 
#    0.000    0.000    0.000    0.000    0.000    0.000 
#
# Total GULP energy -200837.099151 kJ/mol
# GULP energy per Si atom -5578.808310 kJ/mol
# Density = 1.797466 g / cm^3
# Si number density = 18.015663 Si / 1000 Ang^3
#
#
#
# Elastic Constant Matrix: (Units=GPa)
#
#
# Indices 1 2 3 4 5 6 
#
# 1 38.8101 37.2194 63.3039 0.0000 0.0000 0.0000
# 2 37.2194 91.9453 80.5625 0.0000 0.0000 0.0000
# 3 63.3039 80.5625 201.5766 0.0000 0.0000 0.0000
# 4 0.0000 0.0000 0.0000 34.3735 0.0000 0.0000
# 5 0.0000 0.0000 0.0000 0.0000 0.5815 0.0000
# 6 0.0000 0.0000 0.0000 0.0000 0.0000 24.0076
#
#
#
# Elastic Compliance Matrix: (Units=1/GPa)
#
#
# Indices 1 2 3 4 5 6 
#
# 1 0.060415 -0.012053 -0.014156 0.000000 0.000000 0.000000
# 2 -0.012053 0.019142 -0.003865 0.000000 0.000000 0.000000
# 3 -0.014156 -0.003865 0.010951 0.000000 0.000000 0.000000
# 4 0.000000 0.000000 0.000000 0.029092 0.000000 0.000000
# 5 0.000000 0.000000 0.000000 0.000000 1.719730 0.000000
# 6 0.000000 0.000000 0.000000 0.000000 0.000000 0.041654
#
#
# Mechanical properties :
#
#
# Convention : Reuss Voigt Hill
#
# Bulk Modulus (GPa) = 32.93742 77.16706 55.05224
# Shear Modulus (GPa) = 2.56246 21.87559 12.21902
#
# Velocity S-wave (km/s) = 1.19392 3.48839 2.60714
# Velocity P-wave (km/s) = 4.49699 7.69100 6.29978
#
# Compressibility (1/GPa) = 0.03036060
#
# Stress axis : x y z
#
# Youngs Moduli (GPa) = 16.55209 52.24248 91.31357
#
# Poissons Ratio (x) = 0.62965 1.29265
# Poissons Ratio (y) = 0.19949 0.35294
# Poissons Ratio (z) = 0.23431 0.20192
#
# Static dielectric constant tensor:
#      x y z
#    x 1.593230 0.000000 0.000000 
#    y 0.000000 1.604810 0.000000 
#    z 0.000000 0.000000 1.639480 
# 
# From -- ./inp_files/59228.got.cif
#   From: 2010.05.17/outbox.cif.g08.bks.cpg/sg65_30_cif.got.tgz:59228.got - 2010.06.03 17:01:31.
