data_PCOD9491153
_publ_section_title
;
Structure prediction by ZEFSAII (Michael W. Deem and Ramdas Pophale) SiO2 
 PCOD9491153
Probable space group: C M M M
;
_chemical_formula_sum "Si O2"
_cell_formula_units_Z 104
_cell_length_a 28.251559
_cell_length_b 8.948481
_cell_length_c 23.934895
_cell_angle_alpha 90.000000
_cell_angle_beta 90.000000
_cell_angle_gamma 90.000000
_cell_volume 6050.945834
_symmetry_space_group_name_H-M "C M M M"
_symmetry_group_IT_number 65
_symmetry_cell_setting 'orthorhombic'
loop_
_space_group_symop_operation_xyz
x,y,z
-x,-y,z
x,-y,-z
-x,y,-z
-x,-y,-z
x,y,-z
-x,y,z
x,-y,z
1/2+x,1/2+y,z
1/2-x,1/2-y,z
1/2+x,1/2-y,-z
1/2-x,1/2+y,-z
1/2-x,1/2-y,-z
1/2+x,1/2+y,-z
1/2-x,1/2+y,z
1/2+x,1/2-y,z
loop_
_atom_site_type_symbol
_atom_site_label
_atom_site_fract_x
_atom_site_fract_y
_atom_site_fract_z
Si Si1 0.873019 0.179728 0.405615
Si Si2 0.444539 0.671588 0.221370
Si Si3 0.445996 0.682304 0.500000
Si Si4 0.697815 0.819770 0.821994
Si Si5 0.699739 0.678498 0.500000
Si Si6 0.614245 0.674732 0.891010
Si Si7 0.636132 0.824117 0.714852
Si Si8 0.944402 0.182523 0.000000
O O1 0.918283 0.227590 0.443372
O O2 0.829460 0.221594 0.445332
O O3 0.864449 0.246484 0.345019
O O4 0.875569 0.000000 0.400706
O O5 0.500000 0.700759 0.222301
O O6 0.436429 0.500000 0.241038
O O7 0.423749 0.680472 0.159152
O O8 0.414287 0.784118 0.257980
O O9 0.444958 0.500000 0.500000
O O10 0.500000 0.732157 0.500000
O O11 0.750000 0.750000 0.828325
O O12 0.660527 0.761925 0.868855
O O13 0.674757 0.774686 0.761670
O O14 0.700233 0.000000 0.823900
O O15 0.702678 0.500000 0.500000
O O16 0.750000 0.750000 0.500000
O O17 0.627388 0.500000 0.899269
O O18 0.586266 0.728502 0.945864
O O19 0.642029 0.000000 0.707624
O O20 0.000000 0.230762 0.000000
O O21 0.945961 0.000000 0.000000
#
# Coordination Sequence:
#
# PCOD9491153 Si02
#       8
#    16  16   8  16   8  16  16   8
#     4   9  18  33  51  72  98 125 158 201 243 290
#     4   9  17  30  49  72  99 134 171 202 237 287
#     4   8  15  30  52  73  93 124 165 203 239 283
#     4  10  21  37  55  74  99 133 172 213 258 305
#     4   9  19  34  51  71  95 124 156 193 240 290
#     4   9  17  31  52  78 107 136 169 209 250 294
#     4  10  21  34  49  73 102 129 160 204 255 301
#     4   9  16  28  52  85 114 139 170 209 250 293
#
# _framework density 17.187397000000001
#
# number of rings (size 3 to 8) (size 9 to 14) (size 15 to 20)
#    0.000    2.769    0.000    2.308    0.000    5.846 
#    0.000    6.538    0.000    2.308    0.000    0.000 
#    0.000    0.000    0.000    0.000    0.000    0.000 
#
# Total GULP energy -289655.620607 kJ/mol
# GULP energy per Si atom -5570.300396 kJ/mol
# Density = 1.714828 g / cm^3
# Si number density = 17.187397 Si / 1000 Ang^3
#
#
#
# Elastic Constant Matrix: (Units=GPa)
#
#
# Indices 1 2 3 4 5 6 
#
# 1 148.6750 36.9133 68.7463 0.0000 0.0000 0.0000
# 2 36.9133 25.9019 37.7433 0.0000 0.0000 0.0000
# 3 68.7463 37.7433 134.4428 0.0000 0.0000 0.0000
# 4 0.0000 0.0000 0.0000 11.6178 0.0000 0.0000
# 5 0.0000 0.0000 0.0000 0.0000 0.2040 0.0000
# 6 0.0000 0.0000 0.0000 0.0000 0.0000 24.7297
#
#
#
# Elastic Compliance Matrix: (Units=1/GPa)
#
#
# Indices 1 2 3 4 5 6 
#
# 1 0.010724 -0.012340 -0.002019 0.000000 0.000000 0.000000
# 2 -0.012340 0.079535 -0.016018 0.000000 0.000000 0.000000
# 3 -0.002019 -0.016018 0.012967 0.000000 0.000000 0.000000
# 4 0.000000 0.000000 0.000000 0.086075 0.000000 0.000000
# 5 0.000000 0.000000 0.000000 0.000000 4.902136 0.000000
# 6 0.000000 0.000000 0.000000 0.000000 0.000000 0.040437
#
#
# Mechanical properties :
#
#
# Convention : Reuss Voigt Hill
#
# Bulk Modulus (GPa) = 23.54570 66.20283 44.87427
# Shear Modulus (GPa) = 0.96029 18.35143 9.65586
#
# Velocity S-wave (km/s) = 0.74828 3.27115 2.37280
# Velocity P-wave (km/s) = 3.80470 7.27112 5.80279
#
# Compressibility (1/GPa) = 0.04247060
#
# Stress axis : x y z
#
# Youngs Moduli (GPa) = 93.25306 12.57309 77.11589
#
# Poissons Ratio (x) = 0.15515 0.15570
# Poissons Ratio (y) = 1.15077 1.23527
# Poissons Ratio (z) = 0.18828 0.20140
#
# Static dielectric constant tensor:
#      x y z
#    x 1.564760 0.000000 0.000000 
#    y 0.000000 1.591920 0.000000 
#    z 0.000000 0.000000 1.590450 
# 
# From -- ./inp_files/71903.got.cif
#   From: 2010.05.17/outbox.cif.g08.bks.cpg/sg65_36_cif.got.tgz:71903.got - 2010.06.03 17:01:31.
