data_PCOD9491172
_publ_section_title
;
Structure prediction by ZEFSAII (Michael W. Deem and Ramdas Pophale) SiO2 
 PCOD9491172
Probable space group: C M M M
;
_chemical_formula_sum "Si O2"
_cell_formula_units_Z 56
_cell_length_a 22.189400
_cell_length_b 13.610973
_cell_length_c 9.097809
_cell_angle_alpha 90.000000
_cell_angle_beta 90.000000
_cell_angle_gamma 90.000000
_cell_volume 2747.714127
_symmetry_space_group_name_H-M "C M M M"
_symmetry_group_IT_number 65
_symmetry_cell_setting 'orthorhombic'
loop_
_space_group_symop_operation_xyz
x,y,z
-x,-y,z
x,-y,-z
-x,y,-z
-x,-y,-z
x,y,-z
-x,y,z
x,-y,z
1/2+x,1/2+y,z
1/2-x,1/2-y,z
1/2+x,1/2-y,-z
1/2-x,1/2+y,-z
1/2-x,1/2-y,-z
1/2+x,1/2+y,-z
1/2-x,1/2+y,z
1/2+x,1/2-y,z
loop_
_atom_site_type_symbol
_atom_site_label
_atom_site_fract_x
_atom_site_fract_y
_atom_site_fract_z
Si Si1 0.380424 0.193497 0.173579
Si Si2 0.928151 0.500000 0.666666
Si Si3 0.248767 0.611942 0.832277
Si Si4 0.625636 0.610069 0.674494
O O1 0.408255 0.098759 0.251123
O O2 0.307871 0.181657 0.194841
O O3 0.401738 0.296095 0.243221
O O4 0.391877 0.190906 0.000000
O O5 0.903427 0.500000 0.500000
O O6 0.000000 0.500000 0.660126
O O7 0.224267 0.500000 0.829704
O O8 0.303775 0.613619 0.720059
O O9 0.271676 0.628299 0.000000
O O10 0.618859 0.620443 0.500000
O O11 0.604181 0.500000 0.717194
#
# Coordination Sequence:
#
# PCOD9491172 Si02
#       4
#    16   8  16  16
#     4  11  21  36  58  82 110 148 190 235 285 334
#     4  11  25  43  63  87 113 143 183 235 294 347
#     4   9  17  31  49  75 112 151 190 229 274 332
#     4  10  21  34  50  79 117 156 193 229 274 331
#
# _framework density 20.380576999999999
#
# number of rings (size 3 to 8) (size 9 to 14) (size 15 to 20)
#    0.000    1.857    1.429    3.000    0.000    8.571 
#    0.000    0.000    0.000    0.857    0.000    6.000 
#    0.000    0.000    0.000    0.000    0.000    0.000 
#
# Total GULP energy -156348.826118 kJ/mol
# GULP energy per Si atom -5583.886647 kJ/mol
# Density = 2.033419 g / cm^3
# Si number density = 20.380577 Si / 1000 Ang^3
#
#
#
# Elastic Constant Matrix: (Units=GPa)
#
#
# Indices 1 2 3 4 5 6 
#
# 1 15.2469 13.3988 18.0766 0.0000 0.0000 0.0000
# 2 13.3988 220.6150 92.5546 0.0000 0.0000 0.0000
# 3 18.0766 92.5546 103.4047 0.0000 0.0000 0.0000
# 4 0.0000 0.0000 0.0000 41.3449 0.0000 0.0000
# 5 0.0000 0.0000 0.0000 0.0000 22.0430 0.0000
# 6 0.0000 0.0000 0.0000 0.0000 0.0000 7.1563
#
#
#
# Elastic Compliance Matrix: (Units=1/GPa)
#
#
# Indices 1 2 3 4 5 6 
#
# 1 0.083120 0.001678 -0.016032 0.000000 0.000000 0.000000
# 2 0.001678 0.007292 -0.006820 0.000000 0.000000 0.000000
# 3 -0.016032 -0.006820 0.018578 0.000000 0.000000 0.000000
# 4 0.000000 0.000000 0.000000 0.024187 0.000000 0.000000
# 5 0.000000 0.000000 0.000000 0.000000 0.045366 0.000000
# 6 0.000000 0.000000 0.000000 0.000000 0.000000 0.139738
#
#
# Mechanical properties :
#
#
# Convention : Reuss Voigt Hill
#
# Bulk Modulus (GPa) = 15.00583 65.25851 40.13217
# Shear Modulus (GPa) = 13.06014 28.45795 20.75904
#
# Velocity S-wave (km/s) = 2.53417 3.74080 3.19497
# Velocity P-wave (km/s) = 3.99268 7.12373 5.77447
#
# Compressibility (1/GPa) = 0.06664078
#
# Stress axis : x y z
#
# Youngs Moduli (GPa) = 12.03078 137.13216 53.82671
#
# Poissons Ratio (x) = -0.23009 0.86297
# Poissons Ratio (y) = -0.02019 0.36712
# Poissons Ratio (z) = 0.19288 0.93529
#
# Static dielectric constant tensor:
#      x y z
#    x 1.705460 0.000000 0.000000 
#    y 0.000000 1.820140 0.000000 
#    z 0.000000 0.000000 1.695380 
# 
# From -- ./inp_files/6236.got.cif
#   From: 2010.05.17/outbox.cif.g08.bks.cpg/sg65_4_cif.got.tgz:6236.got - 2010.06.03 17:01:31.
