data_PCOD9491165
_publ_section_title
;
Structure prediction by ZEFSAII (Michael W. Deem and Ramdas Pophale) SiO2 
 PCOD9491165
Probable space group: C M M M
;
_chemical_formula_sum "Si O2"
_cell_formula_units_Z 64
_cell_length_a 25.882813
_cell_length_b 14.975147
_cell_length_c 7.756811
_cell_angle_alpha 90.000000
_cell_angle_beta 90.000000
_cell_angle_gamma 90.000000
_cell_volume 3006.531640
_symmetry_space_group_name_H-M "C M M M"
_symmetry_group_IT_number 65
_symmetry_cell_setting 'orthorhombic'
loop_
_space_group_symop_operation_xyz
x,y,z
-x,-y,z
x,-y,-z
-x,y,-z
-x,-y,-z
x,y,-z
-x,y,z
x,-y,z
1/2+x,1/2+y,z
1/2-x,1/2-y,z
1/2+x,1/2-y,-z
1/2-x,1/2+y,-z
1/2-x,1/2-y,-z
1/2+x,1/2+y,-z
1/2-x,1/2+y,z
1/2+x,1/2-y,z
loop_
_atom_site_type_symbol
_atom_site_label
_atom_site_fract_x
_atom_site_fract_y
_atom_site_fract_z
Si Si1 0.500000 0.391078 0.802445
Si Si2 0.387030 0.897702 0.704493
Si Si3 0.000000 0.602227 0.794748
Si Si4 0.307859 0.252858 0.796010
Si Si5 0.112026 0.102929 0.787936
O O1 0.500000 0.500000 0.809876
O O2 0.444775 0.367142 0.725056
O O3 0.500000 0.357308 0.000000
O O4 0.381034 0.901014 0.500000
O O5 0.444485 0.859392 0.741984
O O6 0.341309 0.836778 0.775626
O O7 0.385352 0.000000 0.772487
O O8 0.000000 0.500000 0.724031
O O9 0.000000 0.599284 0.000000
O O10 0.250000 0.250000 0.723344
O O11 0.343238 0.332504 0.725084
O O12 0.302789 0.270643 0.000000
O O13 0.120566 0.000000 0.740417
O O14 0.110008 0.105485 0.000000
#
# Coordination Sequence:
#
# PCOD9491165 Si02
#       5
#     8  16   8  16  16
#     4   7  10  19  38  63  89 117 150 189 239 302
#     4  10  21  37  56  78 108 146 183 221 270 328
#     4   9  17  32  57  86 111 135 170 220 275 329
#     4  10  21  34  50  76 106 138 181 227 266 310
#     4   8  14  26  44  67  96 127 160 206 264 317
#
# _framework density 21.286985999999999
#
# number of rings (size 3 to 8) (size 9 to 14) (size 15 to 20)
#    0.000    3.000    0.000    2.625    0.000    5.500 
#    0.000    5.000    0.000    0.750    0.000    0.000 
#    0.000    5.000    0.000    0.000    0.000    0.000 
#
# Total GULP energy -178478.991012 kJ/mol
# GULP energy per Si atom -5577.468469 kJ/mol
# Density = 2.123854 g / cm^3
# Si number density = 21.286986 Si / 1000 Ang^3
#
#
#
# Elastic Constant Matrix: (Units=GPa)
#
#
# Indices 1 2 3 4 5 6 
#
# 1 247.3032 89.7297 1.4405 0.0000 0.0000 0.0000
# 2 89.7297 101.2907 -8.3200 0.0000 0.0000 0.0000
# 3 1.4405 -8.3200 27.7327 0.0000 0.0000 0.0000
# 4 0.0000 0.0000 0.0000 1.0636 0.0000 0.0000
# 5 0.0000 0.0000 0.0000 0.0000 11.6330 0.0000
# 6 0.0000 0.0000 0.0000 0.0000 0.0000 48.6708
#
#
#
# Elastic Compliance Matrix: (Units=1/GPa)
#
#
# Indices 1 2 3 4 5 6 
#
# 1 0.006063 -0.005533 -0.001975 0.000000 0.000000 0.000000
# 2 -0.005533 0.015171 0.004839 0.000000 0.000000 0.000000
# 3 -0.001975 0.004839 0.037613 0.000000 0.000000 0.000000
# 4 0.000000 0.000000 0.000000 0.940232 0.000000 0.000000
# 5 0.000000 0.000000 0.000000 0.000000 0.085962 0.000000
# 6 0.000000 0.000000 0.000000 0.000000 0.000000 0.020546
#
#
# Mechanical properties :
#
#
# Convention : Reuss Voigt Hill
#
# Bulk Modulus (GPa) = 18.68833 60.22522 39.45678
# Shear Modulus (GPa) = 4.42963 31.83858 18.13411
#
# Velocity S-wave (km/s) = 1.44410 3.87160 2.92188
# Velocity P-wave (km/s) = 3.40277 6.95264 5.47348
#
# Compressibility (1/GPa) = 0.05350934
#
# Stress axis : x y z
#
# Youngs Moduli (GPa) = 164.94492 65.91343 26.58670
#
# Poissons Ratio (x) = 0.36469 0.05250
# Poissons Ratio (y) = 0.91262 -0.12865
# Poissons Ratio (z) = 0.32574 -0.31895
#
# Static dielectric constant tensor:
#      x y z
#    x 1.779420 0.000000 0.000000 
#    y 0.000000 1.789890 0.000000 
#    z 0.000000 0.000000 1.753860 
# 
# From -- ./inp_files/13357.got.cif
#   From: 2010.05.17/outbox.cif.g08.bks.cpg/sg65_7_cif.got.tgz:13357.got - 2010.06.03 17:01:31.
