data_PCOD9491471
_publ_section_title
;
Structure prediction by ZEFSAII (Michael W. Deem and Ramdas Pophale) SiO2 
 PCOD9491471
Probable space group: C M M M
;
_chemical_formula_sum "Si O2"
_cell_formula_units_Z 104
_cell_length_a 29.225129
_cell_length_b 8.636196
_cell_length_c 27.350176
_cell_angle_alpha 90.000000
_cell_angle_beta 90.000000
_cell_angle_gamma 90.000000
_cell_volume 6903.018740
_symmetry_space_group_name_H-M "C M M M"
_symmetry_group_IT_number 65
_symmetry_cell_setting 'orthorhombic'
loop_
_space_group_symop_operation_xyz
x,y,z
-x,-y,z
x,-y,-z
-x,y,-z
-x,-y,-z
x,y,-z
-x,y,z
x,-y,z
1/2+x,1/2+y,z
1/2-x,1/2-y,z
1/2+x,1/2-y,-z
1/2-x,1/2+y,-z
1/2-x,1/2-y,-z
1/2+x,1/2+y,-z
1/2-x,1/2+y,z
1/2+x,1/2-y,z
loop_
_atom_site_type_symbol
_atom_site_label
_atom_site_fract_x
_atom_site_fract_y
_atom_site_fract_z
Si Si1 0.444456 0.825431 0.500000
Si Si2 0.802007 0.813816 0.158561
Si Si3 0.301952 0.686931 0.052656
Si Si4 0.143987 0.814184 0.352111
Si Si5 0.698293 0.185969 0.555206
Si Si6 0.801615 0.315850 0.260223
Si Si7 0.448132 0.313866 0.395951
O O1 0.500000 0.831315 0.500000
O O2 0.432773 0.741550 0.550292
O O3 0.426221 0.000000 0.500000
O O4 0.750000 0.750000 0.157528
O O5 0.822557 0.768161 0.105486
O O6 0.821577 0.745358 0.208601
O O7 0.801183 0.000000 0.162149
O O8 0.300036 0.500000 0.052864
O O9 0.250000 0.750000 0.052532
O O10 0.322623 0.735304 0.000000
O O11 0.169177 0.760541 0.401603
O O12 0.168645 0.740074 0.305778
O O13 0.090871 0.766585 0.357942
O O14 0.146713 0.000000 0.348405
O O15 0.681524 0.222646 0.500000
O O16 0.750000 0.250000 0.558778
O O17 0.698709 0.000000 0.560549
O O18 0.798745 0.500000 0.258886
O O19 0.750000 0.250000 0.265567
O O20 0.500000 0.257134 0.386681
O O21 0.449581 0.500000 0.396685
#
# Coordination Sequence:
#
# PCOD9491471 Si02
#       7
#     8  16  16  16  16  16  16
#     4   9  17  29  47  69  90 109 128 155 191 233
#     4   9  15  24  38  55  77 105 139 176 213 249
#     4   8  13  20  31  49  73 101 133 170 209 246
#     4  11  22  34  50  68  86 109 139 172 208 251
#     4  10  21  36  51  67  88 112 137 169 206 249
#     4  11  21  33  47  62  84 111 144 182 218 254
#     4   9  19  35  52  69  89 112 136 163 199 247
#
# _framework density 15.065872000000001
#
# number of rings (size 3 to 8) (size 9 to 14) (size 15 to 20)
#    0.000    2.385    0.000    4.385    1.077    3.692 
#    0.000    0.000    0.000    0.000    0.000    0.000 
#    0.000    0.000    0.000    0.000    0.000    0.769 
#
# Total GULP energy -289688.533703 kJ/mol
# GULP energy per Si atom -5570.933340 kJ/mol
# Density = 1.503158 g / cm^3
# Si number density = 15.065872 Si / 1000 Ang^3
#
#
#
# Elastic Constant Matrix: (Units=GPa)
#
#
# Indices 1 2 3 4 5 6 
#
# 1 50.5764 19.7190 51.2735 0.0000 0.0000 0.0000
# 2 19.7190 53.6566 40.9991 0.0000 0.0000 0.0000
# 3 51.2735 40.9991 151.5430 0.0000 0.0000 0.0000
# 4 0.0000 0.0000 0.0000 21.9182 0.0000 0.0000
# 5 0.0000 0.0000 0.0000 0.0000 3.1089 0.0000
# 6 0.0000 0.0000 0.0000 0.0000 0.0000 9.8544
#
#
#
# Elastic Compliance Matrix: (Units=1/GPa)
#
#
# Indices 1 2 3 4 5 6 
#
# 1 0.030840 -0.004237 -0.009288 0.000000 0.000000 0.000000
# 2 -0.004237 0.024076 -0.005080 0.000000 0.000000 0.000000
# 3 -0.009288 -0.005080 0.011116 0.000000 0.000000 0.000000
# 4 0.000000 0.000000 0.000000 0.045624 0.000000 0.000000
# 5 0.000000 0.000000 0.000000 0.000000 0.321656 0.000000
# 6 0.000000 0.000000 0.000000 0.000000 0.000000 0.101477
#
#
# Mechanical properties :
#
#
# Convention : Reuss Voigt Hill
#
# Bulk Modulus (GPa) = 34.69624 53.30657 44.00141
# Shear Modulus (GPa) = 8.59688 16.56193 12.57940
#
# Velocity S-wave (km/s) = 2.39136 3.31917 2.89270
# Velocity P-wave (km/s) = 5.54116 7.08155 6.35817
#
# Compressibility (1/GPa) = 0.02882157
#
# Stress axis : x y z
#
# Youngs Moduli (GPa) = 32.42514 41.53553 89.96167
#
# Poissons Ratio (x) = 0.17597 0.83560
# Poissons Ratio (y) = 0.13737 0.45702
# Poissons Ratio (z) = 0.30118 0.21101
#
# Static dielectric constant tensor:
#      x y z
#    x 1.498290 0.000000 0.000000 
#    y 0.000000 1.509810 0.000000 
#    z 0.000000 0.000000 1.545070 
# 
# From -- ./inp_files/78455.got.cif
#   From: 2010.05.17/outbox.cif.g08.bks.cpg/sg65_40_cif.got.tgz:78455.got - 2010.06.03 17:01:31.
