data_PCOD9491012
_publ_section_title
;
Structure prediction by ZEFSAII (Michael W. Deem and Ramdas Pophale) SiO2 
 PCOD9491012
Probable space group: C M M M
;
_chemical_formula_sum "Si O2"
_cell_formula_units_Z 100
_cell_length_a 21.121113
_cell_length_b 7.798392
_cell_length_c 30.365051
_cell_angle_alpha 90.000000
_cell_angle_beta 90.000000
_cell_angle_gamma 90.000000
_cell_volume 5001.449372
_symmetry_space_group_name_H-M "C M M M"
_symmetry_group_IT_number 65
_symmetry_cell_setting 'orthorhombic'
loop_
_space_group_symop_operation_xyz
x,y,z
-x,-y,z
x,-y,-z
-x,y,-z
-x,-y,-z
x,y,-z
-x,y,z
x,-y,z
1/2+x,1/2+y,z
1/2-x,1/2-y,z
1/2+x,1/2-y,-z
1/2-x,1/2+y,-z
1/2-x,1/2-y,-z
1/2+x,1/2+y,-z
1/2-x,1/2+y,z
1/2+x,1/2-y,z
loop_
_atom_site_type_symbol
_atom_site_label
_atom_site_fract_x
_atom_site_fract_y
_atom_site_fract_z
Si Si1 0.320856 0.705203 0.882400
Si Si2 0.178958 0.202664 0.618931
Si Si3 0.571064 0.794006 0.450170
Si Si4 0.677574 0.293963 0.718685
Si Si5 0.500000 0.500000 0.185494
Si Si6 0.929298 0.209096 0.050835
Si Si7 0.102131 0.692321 0.197640
O O1 0.325747 0.500000 0.878909
O O2 0.250000 0.750000 0.896083
O O3 0.373512 0.766339 0.917428
O O4 0.339137 0.786436 0.835837
O O5 0.250000 0.250000 0.604357
O O6 0.124950 0.250697 0.584577
O O7 0.168270 0.271637 0.668514
O O8 0.177910 0.000000 0.623315
O O9 0.585124 0.732346 0.500000
O O10 0.500000 0.732948 0.438117
O O11 0.568384 0.000000 0.452069
O O12 0.670179 0.500000 0.719937
O O13 0.750000 0.250000 0.730692
O O14 0.628707 0.216088 0.753128
O O15 0.554727 0.347231 0.186558
O O16 0.000000 0.261867 0.065472
O O17 0.929151 0.000000 0.051383
O O18 0.920667 0.261438 0.000000
O O19 0.076131 0.500000 0.192525
#
# Coordination Sequence:
#
# PCOD9491012 Si02
#       7
#    16  16  16  16   4  16  16
#     4  11  22  37  61  91 128 165 214 270 315 374
#     4  10  21  36  59  87 118 155 198 249 300 356
#     4   9  19  37  58  80 112 153 196 246 305 367
#     4  10  20  39  62  88 123 160 204 257 307 366
#     4  12  26  48  64  94 133 166 205 266 300 374
#     4   8  16  32  57  86 118 164 214 260 321 383
#     4  12  25  43  67  94 127 169 210 254 316 369
#
# _framework density 19.994205000000001
#
# number of rings (size 3 to 8) (size 9 to 14) (size 15 to 20)
#    0.000    1.920    1.600    3.120    1.120    3.200 
#    1.440    0.800    0.000    1.440    0.000    4.480 
#    0.000    0.000    0.000    0.000    0.000    0.000 
#
# Total GULP energy -278666.082772 kJ/mol
# GULP energy per Si atom -5573.321655 kJ/mol
# Density = 1.994870 g / cm^3
# Si number density = 19.994205 Si / 1000 Ang^3
#
#
#
# Elastic Constant Matrix: (Units=GPa)
#
#
# Indices 1 2 3 4 5 6 
#
# 1 142.3144 23.3209 75.5529 0.0000 0.0000 0.0000
# 2 23.3209 96.6584 12.7338 0.0000 0.0000 0.0000
# 3 75.5529 12.7338 84.9472 0.0000 0.0000 0.0000
# 4 0.0000 0.0000 0.0000 180.7456 0.0000 0.0000
# 5 0.0000 0.0000 0.0000 0.0000 93.7127 0.0000
# 6 0.0000 0.0000 0.0000 0.0000 0.0000 31.2834
#
#
#
# Elastic Compliance Matrix: (Units=1/GPa)
#
#
# Indices 1 2 3 4 5 6 
#
# 1 0.013587 -0.001720 -0.011827 0.000000 0.000000 0.000000
# 2 -0.001720 0.010772 -0.000085 0.000000 0.000000 0.000000
# 3 -0.011827 -0.000085 0.022304 0.000000 0.000000 0.000000
# 4 0.000000 0.000000 0.000000 0.005533 0.000000 0.000000
# 5 0.000000 0.000000 0.000000 0.000000 0.010671 0.000000
# 6 0.000000 0.000000 0.000000 0.000000 0.000000 0.031966
#
#
# Mechanical properties :
#
#
# Convention : Reuss Voigt Hill
#
# Bulk Modulus (GPa) = 51.54839 60.79281 56.17060
# Shear Modulus (GPa) = 38.89170 75.30252 57.09711
#
# Velocity S-wave (km/s) = 4.41517 6.14361 5.34966
# Velocity P-wave (km/s) = 7.19925 8.98869 8.14327
#
# Compressibility (1/GPa) = 0.01939925
#
# Stress axis : x y z
#
# Youngs Moduli (GPa) = 73.59824 92.83401 44.83576
#
# Poissons Ratio (x) = 0.15969 0.53026
# Poissons Ratio (y) = 0.12660 0.00380
# Poissons Ratio (z) = 0.87043 0.00787
#
# Static dielectric constant tensor:
#      x y z
#    x 1.658410 0.000000 0.000000 
#    y 0.000000 1.728920 0.000000 
#    z 0.000000 0.000000 1.727130 
# 
# From -- ./inp_files/75494.got.cif
#   From: 2010.05.17/outbox.cif.g08.bks.cpg/sg65_38_cif.got.tgz:75494.got - 2010.06.03 17:01:31.
