data_PCOD9491061
_publ_section_title
;
Structure prediction by ZEFSAII (Michael W. Deem and Ramdas Pophale) SiO2 
 PCOD9491061
Probable space group: C M M M
;
_chemical_formula_sum "Si O2"
_cell_formula_units_Z 82
_cell_length_a 18.521086
_cell_length_b 17.536019
_cell_length_c 16.720978
_cell_angle_alpha 90.000000
_cell_angle_beta 90.000000
_cell_angle_gamma 90.000000
_cell_volume 5430.741500
_symmetry_space_group_name_H-M "C M M M"
_symmetry_group_IT_number 65
_symmetry_cell_setting 'orthorhombic'
loop_
_space_group_symop_operation_xyz
x,y,z
-x,-y,z
x,-y,-z
-x,y,-z
-x,-y,-z
x,y,-z
-x,y,z
x,-y,z
1/2+x,1/2+y,z
1/2-x,1/2-y,z
1/2+x,1/2-y,-z
1/2-x,1/2+y,-z
1/2-x,1/2-y,-z
1/2+x,1/2+y,-z
1/2-x,1/2+y,z
1/2+x,1/2-y,z
loop_
_atom_site_type_symbol
_atom_site_label
_atom_site_fract_x
_atom_site_fract_y
_atom_site_fract_z
Si Si1 0.758702 0.374472 0.000000
Si Si2 0.148144 0.118862 0.776364
Si Si3 0.500000 0.500000 0.500000
Si Si4 0.193576 0.586152 0.826639
Si Si5 0.912827 0.000000 0.094509
Si Si6 0.920395 0.000000 0.665224
Si Si7 0.082869 0.274909 0.173324
Si Si8 0.870360 0.765617 0.000000
O O1 0.779904 0.415958 0.081086
O O2 0.810524 0.300752 0.000000
O O3 0.677496 0.342065 0.000000
O O4 0.234545 0.114112 0.781343
O O5 0.116429 0.071422 0.852865
O O6 0.120362 0.073596 0.699017
O O7 0.119845 0.204824 0.780230
O O8 0.438111 0.500000 0.571839
O O9 0.173751 0.500000 0.802575
O O10 0.130221 0.648281 0.819387
O O11 0.000000 0.000000 0.094899
O O12 0.890802 0.000000 0.000000
O O13 0.000000 0.000000 0.705607
O O14 0.000000 0.286193 0.197048
O O15 0.085892 0.247102 0.080791
#
# Coordination Sequence:
#
# PCOD9491061 Si02
#       8
#     8  16   2  16   8   8  16   8
#     4   9  17  30  45  62  86 130 189 238 272 315
#     4  11  19  32  51  74 106 131 171 221 256 315
#     4   8  20  36  64  84 118 148 160 180 264 348
#     4  11  21  33  49  69  97 143 188 232 270 307
#     4  10  21  30  42  70 100 133 164 206 266 309
#     4   9  18  35  55  84 112 137 161 195 250 324
#     4  11  22  33  47  69 100 143 184 234 273 305
#     4   9  17  30  45  60  90 128 189 235 277 313
#
# _framework density 15.099228
#
# number of rings (size 3 to 8) (size 9 to 14) (size 15 to 20)
#    0.293    1.463    3.902    3.512    2.732    0.390 
#    0.000    0.000    0.000    3.512    0.000    2.732 
#    0.000    0.000    0.000    1.756    0.000    0.000 
#
# Total GULP energy -228275.113326 kJ/mol
# GULP energy per Si atom -5567.685691 kJ/mol
# Density = 1.506486 g / cm^3
# Si number density = 15.099228 Si / 1000 Ang^3
#
#
#
# Elastic Constant Matrix: (Units=GPa)
#
#
# Indices 1 2 3 4 5 6 
#
# 1 89.8669 74.2573 22.0539 0.0000 0.0000 0.0000
# 2 74.2573 127.6503 26.0690 0.0000 0.0000 0.0000
# 3 22.0539 26.0690 75.7313 0.0000 0.0000 0.0000
# 4 0.0000 0.0000 0.0000 3.1415 0.0000 0.0000
# 5 0.0000 0.0000 0.0000 0.0000 16.1750 0.0000
# 6 0.0000 0.0000 0.0000 0.0000 0.0000 19.0493
#
#
#
# Elastic Compliance Matrix: (Units=1/GPa)
#
#
# Indices 1 2 3 4 5 6 
#
# 1 0.021741 -0.012213 -0.002127 0.000000 0.000000 0.000000
# 2 -0.012213 0.015287 -0.001706 0.000000 0.000000 0.000000
# 3 -0.002127 -0.001706 0.014411 0.000000 0.000000 0.000000
# 4 0.000000 0.000000 0.000000 0.318322 0.000000 0.000000
# 5 0.000000 0.000000 0.000000 0.000000 0.061824 0.000000
# 6 0.000000 0.000000 0.000000 0.000000 0.000000 0.052495
#
#
# Mechanical properties :
#
#
# Convention : Reuss Voigt Hill
#
# Bulk Modulus (GPa) = 51.68611 59.77878 55.73244
# Shear Modulus (GPa) = 9.56715 19.06438 14.31577
#
# Velocity S-wave (km/s) = 2.51991 3.55717 3.08248
# Velocity P-wave (km/s) = 6.54002 7.51983 7.04698
#
# Compressibility (1/GPa) = 0.01934756
#
# Stress axis : x y z
#
# Youngs Moduli (GPa) = 45.99564 65.41591 69.39059
#
# Poissons Ratio (x) = 0.79892 0.14761
# Poissons Ratio (y) = 0.56174 0.11835
# Poissons Ratio (z) = 0.09784 0.11157
#
# Static dielectric constant tensor:
#      x y z
#    x 1.512470 0.000000 0.000000 
#    y 0.000000 1.524900 0.000000 
#    z 0.000000 0.000000 1.475140 
# 
# From -- ./inp_files/54449.got.cif
#   From: 2010.05.17/outbox.cif.g08.bks.cpg/sg65_28_cif.got.tgz:54449.got - 2010.06.03 17:01:31.
