data_PCOD9491478
_publ_section_title
;
Structure prediction by ZEFSAII (Michael W. Deem and Ramdas Pophale) SiO2 
 PCOD9491478
Probable space group: C M M M
;
_chemical_formula_sum "Si O2"
_cell_formula_units_Z 56
_cell_length_a 16.031975
_cell_length_b 26.402383
_cell_length_c 7.483572
_cell_angle_alpha 90.000000
_cell_angle_beta 90.000000
_cell_angle_gamma 90.000000
_cell_volume 3167.663899
_symmetry_space_group_name_H-M "C M M M"
_symmetry_group_IT_number 65
_symmetry_cell_setting 'orthorhombic'
loop_
_space_group_symop_operation_xyz
x,y,z
-x,-y,z
x,-y,-z
-x,y,-z
-x,-y,-z
x,y,-z
-x,y,z
x,-y,z
1/2+x,1/2+y,z
1/2-x,1/2-y,z
1/2+x,1/2-y,-z
1/2-x,1/2+y,-z
1/2-x,1/2-y,-z
1/2+x,1/2+y,-z
1/2-x,1/2+y,z
1/2+x,1/2-y,z
loop_
_atom_site_type_symbol
_atom_site_label
_atom_site_fract_x
_atom_site_fract_y
_atom_site_fract_z
Si Si1 0.000000 0.558540 0.217531
Si Si2 0.659961 0.558596 0.790169
Si Si3 0.667903 0.117224 0.788234
Si Si4 0.261571 0.809833 0.500000
Si Si5 0.090529 0.129931 0.500000
O O1 0.083117 0.589146 0.269036
O O2 0.000000 0.500000 0.278583
O O3 0.000000 0.556766 0.000000
O O4 0.653731 0.500000 0.738888
O O5 0.754578 0.578587 0.763751
O O6 0.602139 0.593739 0.670790
O O7 0.640847 0.563211 0.000000
O O8 0.690538 0.166176 0.670617
O O9 0.662399 0.128974 0.000000
O O10 0.250000 0.750000 0.500000
O O11 0.168263 0.832508 0.500000
O O12 0.000000 0.154503 0.500000
#
# Coordination Sequence:
#
# PCOD9491478 Si02
#       5
#     8  16  16   8   8
#     4   9  16  29  53  85 120 149 169 202 259 325
#     4   9  17  30  50  75 105 140 169 195 239 301
#     4   9  18  33  53  78 109 139 172 211 253 310
#     4  10  22  40  56  73  93 133 181 224 270 307
#     4  10  21  36  51  71  99 128 165 215 259 298
#
# _framework density 17.678643000000001
#
# number of rings (size 3 to 8) (size 9 to 14) (size 15 to 20)
#    0.000    2.714    0.000    1.286    0.000    6.286 
#    2.571    4.286    0.000    0.000    0.000    0.000 
#    0.000    0.000    0.000    0.000    0.000    0.000 
#
# Total GULP energy -156184.451102 kJ/mol
# GULP energy per Si atom -5578.016111 kJ/mol
# Density = 1.763841 g / cm^3
# Si number density = 17.678643 Si / 1000 Ang^3
#
#
#
# Elastic Constant Matrix: (Units=GPa)
#
#
# Indices 1 2 3 4 5 6 
#
# 1 115.6365 48.3547 38.7265 0.0000 0.0000 0.0000
# 2 48.3547 145.7341 47.3148 0.0000 0.0000 0.0000
# 3 38.7265 47.3148 62.0438 0.0000 0.0000 0.0000
# 4 0.0000 0.0000 0.0000 19.7302 0.0000 0.0000
# 5 0.0000 0.0000 0.0000 0.0000 15.2626 0.0000
# 6 0.0000 0.0000 0.0000 0.0000 0.0000 11.5070
#
#
#
# Elastic Compliance Matrix: (Units=1/GPa)
#
#
# Indices 1 2 3 4 5 6 
#
# 1 0.011334 -0.001945 -0.005591 0.000000 0.000000 0.000000
# 2 -0.001945 0.009454 -0.005995 0.000000 0.000000 0.000000
# 3 -0.005591 -0.005995 0.024179 0.000000 0.000000 0.000000
# 4 0.000000 0.000000 0.000000 0.050684 0.000000 0.000000
# 5 0.000000 0.000000 0.000000 0.000000 0.065520 0.000000
# 6 0.000000 0.000000 0.000000 0.000000 0.000000 0.086904
#
#
# Mechanical properties :
#
#
# Convention : Reuss Voigt Hill
#
# Bulk Modulus (GPa) = 55.85323 65.80071 60.82697
# Shear Modulus (GPa) = 17.78700 21.90117 19.84409
#
# Velocity S-wave (km/s) = 3.17540 3.52355 3.35399
# Velocity P-wave (km/s) = 6.71613 7.33860 7.03425
#
# Compressibility (1/GPa) = 0.01790407
#
# Stress axis : x y z
#
# Youngs Moduli (GPa) = 88.23348 105.77852 41.35803
#
# Poissons Ratio (x) = 0.20578 0.23122
# Poissons Ratio (y) = 0.17165 0.24795
# Poissons Ratio (z) = 0.49328 0.63416
#
# Static dielectric constant tensor:
#      x y z
#    x 1.599500 0.000000 0.000000 
#    y 0.000000 1.552260 0.000000 
#    z 0.000000 0.000000 1.632830 
# 
# From -- ./inp_files/6283.got.cif
#   From: 2010.05.17/outbox.cif.g08.bks.cpg/sg65_4_cif.got.tgz:6283.got - 2010.06.03 17:01:31.
