data_PCOD9491857
_publ_section_title
;
Structure prediction by ZEFSAII (Michael W. Deem and Ramdas Pophale) SiO2 
 PCOD9491857
Probable space group: C M M M
;
_chemical_formula_sum "Si O2"
_cell_formula_units_Z 72
_cell_length_a 8.798897
_cell_length_b 16.033277
_cell_length_c 26.698682
_cell_angle_alpha 90.000000
_cell_angle_beta 90.000000
_cell_angle_gamma 90.000000
_cell_volume 3766.520645
_symmetry_space_group_name_H-M "C M M M"
_symmetry_group_IT_number 65
_symmetry_cell_setting 'orthorhombic'
loop_
_space_group_symop_operation_xyz
x,y,z
-x,-y,z
x,-y,-z
-x,y,-z
-x,-y,-z
x,y,-z
-x,y,z
x,-y,z
1/2+x,1/2+y,z
1/2-x,1/2-y,z
1/2+x,1/2-y,-z
1/2-x,1/2+y,-z
1/2-x,1/2-y,-z
1/2+x,1/2+y,-z
1/2-x,1/2+y,z
1/2+x,1/2-y,z
loop_
_atom_site_type_symbol
_atom_site_label
_atom_site_fract_x
_atom_site_fract_y
_atom_site_fract_z
Si Si1 0.322902 0.598204 0.897110
Si Si2 0.683402 0.000000 0.732759
Si Si3 0.681481 0.157492 0.000000
Si Si4 0.816819 0.838976 0.441732
Si Si5 0.317924 0.163072 0.796278
Si Si6 0.183975 0.000000 0.378087
O O1 0.500000 0.622544 0.900863
O O2 0.314752 0.500000 0.885322
O O3 0.242326 0.613831 0.949909
O O4 0.243450 0.647390 0.852260
O O5 0.728551 0.916682 0.763013
O O6 0.752434 0.000000 0.677689
O O7 0.500000 0.000000 0.729722
O O8 0.750000 0.250000 0.000000
O O9 0.500000 0.159554 0.000000
O O10 0.773037 0.852475 0.500000
O O11 0.750000 0.750000 0.425511
O O12 0.000000 0.834489 0.439970
O O13 0.767797 0.916935 0.408070
O O14 0.500000 0.167501 0.797143
O O15 0.250000 0.250000 0.777161
O O16 0.000000 0.000000 0.376721
#
# Coordination Sequence:
#
# PCOD9491857 Si02
#       6
#    16   8   8  16  16   8
#     4  11  23  40  63  90 120 153 193 242 295 354
#     4  10  24  43  61  84 119 156 196 249 299 353
#     4  12  25  40  59  85 121 159 197 239 290 353
#     4   9  18  34  56  84 118 156 197 241 290 347
#     4  11  23  42  65  89 117 154 199 245 300 358
#     4  10  21  36  58  84 115 155 198 243 294 351
#
# _framework density 19.115784999999999
#
# number of rings (size 3 to 8) (size 9 to 14) (size 15 to 20)
#    0.000    1.556    1.111    3.667    0.000    7.556 
#    0.000    4.444    0.000    3.333    0.000    0.000 
#    0.000    0.000    0.000    0.000    0.000    0.000 
#
# Total GULP energy -201239.055623 kJ/mol
# GULP energy per Si atom -5589.973767 kJ/mol
# Density = 1.907228 g / cm^3
# Si number density = 19.115785 Si / 1000 Ang^3
#
#
#
# Elastic Constant Matrix: (Units=GPa)
#
#
# Indices 1 2 3 4 5 6 
#
# 1 68.1029 53.3799 36.8881 0.0000 0.0000 0.0000
# 2 53.3799 168.0244 89.1261 0.0000 0.0000 0.0000
# 3 36.8881 89.1261 125.9014 0.0000 0.0000 0.0000
# 4 0.0000 0.0000 0.0000 2.4551 0.0000 0.0000
# 5 0.0000 0.0000 0.0000 0.0000 34.6514 0.0000
# 6 0.0000 0.0000 0.0000 0.0000 0.0000 34.3827
#
#
#
# Elastic Compliance Matrix: (Units=1/GPa)
#
#
# Indices 1 2 3 4 5 6 
#
# 1 0.019916 -0.005175 -0.002172 0.000000 0.000000 0.000000
# 2 -0.005175 0.010875 -0.006182 0.000000 0.000000 0.000000
# 3 -0.002172 -0.006182 0.012955 0.000000 0.000000 0.000000
# 4 0.000000 0.000000 0.000000 0.407311 0.000000 0.000000
# 5 0.000000 0.000000 0.000000 0.000000 0.028859 0.000000
# 6 0.000000 0.000000 0.000000 0.000000 0.000000 0.029084
#
#
# Mechanical properties :
#
#
# Convention : Reuss Voigt Hill
#
# Bulk Modulus (GPa) = 59.92166 80.09078 70.00622
# Shear Modulus (GPa) = 9.23153 26.47348 17.85250
#
# Velocity S-wave (km/s) = 2.19994 3.72546 3.05932
# Velocity P-wave (km/s) = 6.15368 7.77780 7.01291
#
# Compressibility (1/GPa) = 0.01668846
#
# Stress axis : x y z
#
# Youngs Moduli (GPa) = 50.20975 91.95546 77.18849
#
# Poissons Ratio (x) = 0.47590 0.16763
# Poissons Ratio (y) = 0.25985 0.47718
# Poissons Ratio (z) = 0.10904 0.56847
#
# Static dielectric constant tensor:
#      x y z
#    x 1.645120 0.000000 0.000000 
#    y 0.000000 1.665510 0.000000 
#    z 0.000000 0.000000 1.634330 
# 
# From -- ./inp_files/72613.got.cif
#   From: 2010.05.17/outbox.cif.g08.bks.cpg/sg65_37_cif.got.tgz:72613.got - 2010.06.03 17:01:31.
