data_PCOD9491558
_publ_section_title
;
Structure prediction by ZEFSAII (Michael W. Deem and Ramdas Pophale) SiO2 
 PCOD9491558
Probable space group: C M M M
;
_chemical_formula_sum "Si O2"
_cell_formula_units_Z 64
_cell_length_a 9.740829
_cell_length_b 42.421420
_cell_length_c 7.758116
_cell_angle_alpha 90.000000
_cell_angle_beta 90.000000
_cell_angle_gamma 90.000000
_cell_volume 3205.807128
_symmetry_space_group_name_H-M "C M M M"
_symmetry_group_IT_number 65
_symmetry_cell_setting 'orthorhombic'
loop_
_space_group_symop_operation_xyz
x,y,z
-x,-y,z
x,-y,-z
-x,y,-z
-x,-y,-z
x,y,-z
-x,y,z
x,-y,z
1/2+x,1/2+y,z
1/2-x,1/2-y,z
1/2+x,1/2-y,-z
1/2-x,1/2+y,-z
1/2-x,1/2-y,-z
1/2+x,1/2+y,-z
1/2-x,1/2+y,z
1/2+x,1/2-y,z
loop_
_atom_site_type_symbol
_atom_site_label
_atom_site_fract_x
_atom_site_fract_y
_atom_site_fract_z
Si Si1 0.341169 0.035031 0.710490
Si Si2 0.655550 0.221857 0.295268
Si Si3 0.343491 0.592682 0.291953
Si Si4 0.343000 0.336366 0.204654
O O1 0.338368 0.035351 0.500000
O O2 0.500000 0.038599 0.761444
O O3 0.250612 0.064195 0.771651
O O4 0.293682 0.000000 0.763694
O O5 0.643478 0.227405 0.500000
O O6 0.500000 0.221163 0.224938
O O7 0.750000 0.250000 0.222399
O O8 0.737414 0.189361 0.272633
O O9 0.344927 0.591171 0.500000
O O10 0.500000 0.589027 0.230041
O O11 0.298230 0.627886 0.243911
O O12 0.500000 0.332243 0.273074
O O13 0.349118 0.332587 0.000000
#
# Coordination Sequence:
#
# PCOD9491558 Si02
#       4
#    16  16  16  16
#     4   8  14  25  42  66  95 124 156 199 250 299
#     4  10  21  37  58  82 105 131 165 205 249 297
#     4   9  17  29  47  71  97 126 162 205 250 295
#     4  10  21  36  53  74 103 138 172 207 249 297
#
# _framework density 19.963771000000001
#
# number of rings (size 3 to 8) (size 9 to 14) (size 15 to 20)
#    0.000    2.750    0.000    2.250    0.000    5.000 
#    0.000    5.000    0.000    0.750    0.000    5.250 
#    0.000    0.000    0.000    0.000    0.000    0.000 
#
# Total GULP energy -178519.927574 kJ/mol
# GULP energy per Si atom -5578.747737 kJ/mol
# Density = 1.991833 g / cm^3
# Si number density = 19.963771 Si / 1000 Ang^3
#
#
#
# Elastic Constant Matrix: (Units=GPa)
#
#
# Indices 1 2 3 4 5 6 
#
# 1 131.5081 129.1886 6.4991 0.0000 0.0000 0.0000
# 2 129.1886 193.4782 -4.4660 0.0000 0.0000 0.0000
# 3 6.4991 -4.4660 28.0736 0.0000 0.0000 0.0000
# 4 0.0000 0.0000 0.0000 -93.2469 0.0000 0.0000
# 5 0.0000 0.0000 0.0000 0.0000 6.4787 0.0000
# 6 0.0000 0.0000 0.0000 0.0000 0.0000 30.0625
#
#
#
# Elastic Compliance Matrix: (Units=1/GPa)
#
#
# Indices 1 2 3 4 5 6 
#
# 1 0.023791 -0.016072 -0.008064 0.000000 0.000000 0.000000
# 2 -0.016072 0.016045 0.006273 0.000000 0.000000 0.000000
# 3 -0.008064 0.006273 0.038486 0.000000 0.000000 0.000000
# 4 0.000000 0.000000 0.000000 -0.010724 0.000000 0.000000
# 5 0.000000 0.000000 0.000000 0.000000 0.154353 0.000000
# 6 0.000000 0.000000 0.000000 0.000000 0.000000 0.033264
#
#
# Mechanical properties :
#
#
# Convention : Reuss Voigt Hill
#
# Bulk Modulus (GPa) = 23.47691 68.38926 45.93309
# Shear Modulus (GPa) = 16.38601 3.44806 9.91703
#
# Velocity S-wave (km/s) = 2.86805 1.31564 2.23121
# Velocity P-wave (km/s) = 4.77000 6.05301 5.44939
#
# Compressibility (1/GPa) = 0.04259503
#
# Stress axis : x y z
#
# Youngs Moduli (GPa) = 42.03291 62.32588 25.98381
#
# Poissons Ratio (x) = 1.00168 0.20954
# Poissons Ratio (y) = 0.67554 -0.16300
# Poissons Ratio (z) = 0.33897 -0.39098
#
# Static dielectric constant tensor:
#      x y z
#    x 1.702870 0.000000 0.000000 
#    y 0.000000 1.680660 0.000000 
#    z 0.000000 0.000000 1.726100 
# 
# From -- ./inp_files/4884.got.cif
#   From: 2010.05.17/outbox.cif.g08.bks.cpg/sg65_3_cif.got.tgz:4884.got - 2010.06.03 17:01:31.
