data_PCOD9491295
_publ_section_title
;
Structure prediction by ZEFSAII (Michael W. Deem and Ramdas Pophale) SiO2 
 PCOD9491295
Probable space group: C M M M
;
_chemical_formula_sum "Si O2"
_cell_formula_units_Z 88
_cell_length_a 19.151034
_cell_length_b 8.127026
_cell_length_c 29.037934
_cell_angle_alpha 90.000000
_cell_angle_beta 90.000000
_cell_angle_gamma 90.000000
_cell_volume 4519.491670
_symmetry_space_group_name_H-M "C M M M"
_symmetry_group_IT_number 65
_symmetry_cell_setting 'orthorhombic'
loop_
_space_group_symop_operation_xyz
x,y,z
-x,-y,z
x,-y,-z
-x,y,-z
-x,-y,-z
x,y,-z
-x,y,z
x,-y,z
1/2+x,1/2+y,z
1/2-x,1/2-y,z
1/2+x,1/2-y,-z
1/2-x,1/2+y,-z
1/2-x,1/2-y,-z
1/2+x,1/2+y,-z
1/2-x,1/2+y,z
1/2+x,1/2-y,z
loop_
_atom_site_type_symbol
_atom_site_label
_atom_site_fract_x
_atom_site_fract_y
_atom_site_fract_z
Si Si1 0.669723 0.699019 0.724063
Si Si2 0.080190 0.301501 0.913138
Si Si3 0.330099 0.198971 0.000000
Si Si4 0.080262 0.801601 0.811034
Si Si5 0.671548 0.803178 0.447594
Si Si6 0.579381 0.697913 0.637076
O O1 0.667367 0.500000 0.723959
O O2 0.750000 0.750000 0.722460
O O3 0.630622 0.756967 0.770381
O O4 0.626879 0.758433 0.679417
O O5 0.079247 0.500000 0.914591
O O6 0.103075 0.249587 0.862127
O O7 0.000000 0.244291 0.919666
O O8 0.129500 0.242511 0.954258
O O9 0.250000 0.250000 0.000000
O O10 0.333295 0.000000 0.000000
O O11 0.000000 0.743989 0.804310
O O12 0.078986 0.000000 0.809337
O O13 0.658952 0.743293 0.500000
O O14 0.750000 0.750000 0.434383
O O15 0.616297 0.739996 0.410842
O O16 0.669176 0.000000 0.447953
O O17 0.500000 0.760353 0.639542
O O18 0.576564 0.500000 0.640866
#
# Coordination Sequence:
#
# PCOD9491295 Si02
#       6
#    16  16   8  16  16  16
#     4  10  21  36  54  77 106 139 174 213 259 311
#     4   9  18  34  55  76  99 131 171 211 252 301
#     4  10  21  35  51  73 103 136 168 208 256 302
#     4   9  18  34  55  77 102 133 169 210 256 305
#     4  10  21  37  57  81 110 143 178 218 265 316
#     4  10  21  37  57  80 107 141 180 221 265 314
#
# _framework density 19.471218
#
# number of rings (size 3 to 8) (size 9 to 14) (size 15 to 20)
#    0.000    2.364    0.000    1.909    0.000    9.455 
#    0.000    5.455    0.000    6.000    0.000    0.000 
#    0.000    0.000    0.000    0.000    0.000    0.000 
#
# Total GULP energy -245659.244773 kJ/mol
# GULP energy per Si atom -5583.164654 kJ/mol
# Density = 1.942690 g / cm^3
# Si number density = 19.471218 Si / 1000 Ang^3
#
#
#
# Elastic Constant Matrix: (Units=GPa)
#
#
# Indices 1 2 3 4 5 6 
#
# 1 164.9591 11.3600 129.9530 0.0000 0.0000 0.0000
# 2 11.3600 9.4937 11.6336 0.0000 0.0000 0.0000
# 3 129.9530 11.6336 167.3342 0.0000 0.0000 0.0000
# 4 0.0000 0.0000 0.0000 8.9403 0.0000 0.0000
# 5 0.0000 0.0000 0.0000 0.0000 21.7257 0.0000
# 6 0.0000 0.0000 0.0000 0.0000 0.0000 28.6939
#
#
#
# Elastic Compliance Matrix: (Units=1/GPa)
#
#
# Indices 1 2 3 4 5 6 
#
# 1 0.015769 -0.004222 -0.011953 0.000000 0.000000 0.000000
# 2 -0.004222 0.116273 -0.004805 0.000000 0.000000 0.000000
# 3 -0.011953 -0.004805 0.015593 0.000000 0.000000 0.000000
# 4 0.000000 0.000000 0.000000 0.111853 0.000000 0.000000
# 5 0.000000 0.000000 0.000000 0.000000 0.046028 0.000000
# 6 0.000000 0.000000 0.000000 0.000000 0.000000 0.034851
#
#
# Mechanical properties :
#
#
# Convention : Reuss Voigt Hill
#
# Bulk Modulus (GPa) = 9.46296 71.96446 40.71371
# Shear Modulus (GPa) = 11.97456 24.46133 18.21794
#
# Velocity S-wave (km/s) = 2.48258 3.54825 3.06213
# Velocity P-wave (km/s) = 3.61776 7.33665 5.78423
#
# Compressibility (1/GPa) = 0.10567514
#
# Stress axis : x y z
#
# Youngs Moduli (GPa) = 63.41408 8.60048 64.13155
#
# Poissons Ratio (x) = 0.03631 0.76657
# Poissons Ratio (y) = 0.26774 0.30813
# Poissons Ratio (z) = 0.75799 0.04132
#
# Static dielectric constant tensor:
#      x y z
#    x 1.650770 0.000000 0.000000 
#    y 0.000000 1.695560 0.000000 
#    z 0.000000 0.000000 1.672100 
# 
# From -- ./inp_files/73212.got.cif
#   From: 2010.05.17/outbox.cif.g08.bks.cpg/sg65_37_cif.got.tgz:73212.got - 2010.06.03 17:01:31.
