data_PCOD9491104
_publ_section_title
;
Structure prediction by ZEFSAII (Michael W. Deem and Ramdas Pophale) SiO2 
 PCOD9491104
Probable space group: C M M M
;
_chemical_formula_sum "Si O2"
_cell_formula_units_Z 80
_cell_length_a 21.703352
_cell_length_b 18.140409
_cell_length_c 11.120291
_cell_angle_alpha 90.000000
_cell_angle_beta 90.000000
_cell_angle_gamma 90.000000
_cell_volume 4378.143992
_symmetry_space_group_name_H-M "C M M M"
_symmetry_group_IT_number 65
_symmetry_cell_setting 'orthorhombic'
loop_
_space_group_symop_operation_xyz
x,y,z
-x,-y,z
x,-y,-z
-x,y,-z
-x,-y,-z
x,y,-z
-x,y,z
x,-y,z
1/2+x,1/2+y,z
1/2-x,1/2-y,z
1/2+x,1/2-y,-z
1/2-x,1/2+y,-z
1/2-x,1/2-y,-z
1/2+x,1/2+y,-z
1/2-x,1/2+y,z
1/2+x,1/2-y,z
loop_
_atom_site_type_symbol
_atom_site_label
_atom_site_fract_x
_atom_site_fract_y
_atom_site_fract_z
Si Si1 0.197409 0.915159 0.230503
Si Si2 0.673392 0.915971 0.644642
Si Si3 0.567961 0.634396 0.734191
Si Si4 0.696813 0.309229 0.000000
Si Si5 0.069178 0.697809 0.645078
Si Si6 0.434842 0.681765 0.000000
O O1 0.257680 0.900143 0.310281
O O2 0.132042 0.904110 0.298813
O O3 0.200279 0.860283 0.117755
O O4 0.200076 0.000000 0.190085
O O5 0.673119 0.914036 0.500000
O O6 0.622968 0.856757 0.687095
O O7 0.657575 0.000000 0.681480
O O8 0.500000 0.608968 0.690133
O O9 0.574317 0.720268 0.698364
O O10 0.565909 0.632981 0.879686
O O11 0.750000 0.250000 0.000000
O O12 0.628418 0.273534 0.000000
O O13 0.073280 0.704014 0.500000
O O14 0.000000 0.670226 0.673460
O O15 0.500000 0.723726 0.000000
#
# Coordination Sequence:
#
# PCOD9491104 Si02
#       6
#    16  16  16   8  16   8
#     4  10  21  35  52  74 105 138 171 210 251 301
#     4   9  19  34  51  73 102 136 171 208 255 308
#     4   9  18  32  51  74 100 129 168 210 253 298
#     4  10  21  33  54  78 102 134 170 210 255 302
#     4   9  18  32  51  75 101 130 168 215 258 300
#     4   8  16  31  48  70  96 126 160 200 244 288
#
# _framework density 18.272583999999998
#
# number of rings (size 3 to 8) (size 9 to 14) (size 15 to 20)
#    0.000    2.800    0.000    0.300    5.600    1.600 
#    0.000    4.000    0.000    6.000    0.000    5.600 
#    0.000    8.000    0.000    0.000    0.000    0.000 
#
# Total GULP energy -222669.079564 kJ/mol
# GULP energy per Si atom -5566.726989 kJ/mol
# Density = 1.823099 g / cm^3
# Si number density = 18.272584 Si / 1000 Ang^3
#
#
#
# Elastic Constant Matrix: (Units=GPa)
#
#
# Indices 1 2 3 4 5 6 
#
# 1 155.6734 59.3116 9.4715 0.0000 0.0000 0.0000
# 2 59.3116 60.1394 10.5841 0.0000 0.0000 0.0000
# 3 9.4715 10.5841 10.1769 0.0000 0.0000 0.0000
# 4 0.0000 0.0000 0.0000 4.5178 0.0000 0.0000
# 5 0.0000 0.0000 0.0000 0.0000 23.6947 0.0000
# 6 0.0000 0.0000 0.0000 0.0000 0.0000 28.7434
#
#
#
# Elastic Compliance Matrix: (Units=1/GPa)
#
#
# Indices 1 2 3 4 5 6 
#
# 1 0.010302 -0.010371 0.001198 0.000000 0.000000 0.000000
# 2 -0.010371 0.030794 -0.022374 0.000000 0.000000 0.000000
# 3 0.001198 -0.022374 0.120416 0.000000 0.000000 0.000000
# 4 0.000000 0.000000 0.000000 0.221348 0.000000 0.000000
# 5 0.000000 0.000000 0.000000 0.000000 0.042204 0.000000
# 6 0.000000 0.000000 0.000000 0.000000 0.000000 0.034791
#
#
# Mechanical properties :
#
#
# Convention : Reuss Voigt Hill
#
# Bulk Modulus (GPa) = 10.16072 42.74712 26.45392
# Shear Modulus (GPa) = 8.99678 21.16601 15.08139
#
# Velocity S-wave (km/s) = 2.22134 3.40714 2.87602
# Velocity P-wave (km/s) = 3.48595 6.23884 5.05346
#
# Compressibility (1/GPa) = 0.09841822
#
# Stress axis : x y z
#
# Youngs Moduli (GPa) = 97.06584 32.47365 8.30456
#
# Poissons Ratio (x) = 0.33679 -0.00995
# Poissons Ratio (y) = 1.00670 0.18580
# Poissons Ratio (z) = -0.11629 0.72656
#
# Static dielectric constant tensor:
#      x y z
#    x 1.686710 0.000000 0.000000 
#    y 0.000000 1.606070 0.000000 
#    z 0.000000 0.000000 1.639200 
# 
# From -- ./inp_files/26658.got.cif
#   From: 2010.05.17/outbox.cif.g08.bks.cpg/sg65_14_cif.got.tgz:26658.got - 2010.06.03 17:01:31.
