data_PCOD9491791
_publ_section_title
;
Structure prediction by ZEFSAII (Michael W. Deem and Ramdas Pophale) SiO2 
 PCOD9491791
Probable space group: C M M M
;
_chemical_formula_sum "Si O2"
_cell_formula_units_Z 96
_cell_length_a 19.143924
_cell_length_b 8.688013
_cell_length_c 31.548405
_cell_angle_alpha 90.000000
_cell_angle_beta 90.000000
_cell_angle_gamma 90.000000
_cell_volume 5247.214657
_symmetry_space_group_name_H-M "C M M M"
_symmetry_group_IT_number 65
_symmetry_cell_setting 'orthorhombic'
loop_
_space_group_symop_operation_xyz
x,y,z
-x,-y,z
x,-y,-z
-x,y,-z
-x,-y,-z
x,y,-z
-x,y,z
x,-y,z
1/2+x,1/2+y,z
1/2-x,1/2-y,z
1/2+x,1/2-y,-z
1/2-x,1/2+y,-z
1/2-x,1/2-y,-z
1/2+x,1/2+y,-z
1/2-x,1/2+y,z
1/2+x,1/2-y,z
loop_
_atom_site_type_symbol
_atom_site_label
_atom_site_fract_x
_atom_site_fract_y
_atom_site_fract_z
Si Si1 0.828055 0.185367 0.872578
Si Si2 0.420019 0.687239 0.048085
Si Si3 0.673193 0.683456 0.622257
Si Si4 0.917830 0.684916 0.453053
Si Si5 0.918284 0.315177 0.205022
Si Si6 0.172060 0.185153 0.280947
O O1 0.750000 0.250000 0.869368
O O2 0.865655 0.236637 0.916243
O O3 0.875384 0.244411 0.834002
O O4 0.825688 0.000000 0.871603
O O5 0.500000 0.734772 0.057919
O O6 0.419941 0.500000 0.048053
O O7 0.403346 0.736927 0.000000
O O8 0.676186 0.500000 0.620819
O O9 0.750000 0.750000 0.614595
O O10 0.622471 0.743365 0.586029
O O11 0.653100 0.727421 0.670497
O O12 0.892852 0.735250 0.500000
O O13 0.910907 0.500000 0.451295
O O14 0.000000 0.721115 0.450325
O O15 0.913360 0.500000 0.203524
O O16 0.882060 0.254390 0.247722
O O17 0.000000 0.271824 0.203011
O O18 0.250000 0.250000 0.272628
O O19 0.173717 0.000000 0.277255
#
# Coordination Sequence:
#
# PCOD9491791 Si02
#       6
#    16  16  16  16  16  16
#     4  11  22  36  56  81 111 147 184 224 271 320
#     4   8  15  30  53  80 108 140 181 226 270 318
#     4  10  21  36  56  82 110 142 179 221 268 318
#     4   9  19  36  56  78 107 144 183 223 269 320
#     4  11  24  40  58  81 109 141 179 223 270 322
#     4  10  21  38  59  82 110 142 178 220 267 321
#
# _framework density 18.29542
#
# number of rings (size 3 to 8) (size 9 to 14) (size 15 to 20)
#    0.000    2.167    0.000    4.000    0.000    6.000 
#    0.000    4.167    0.000    1.500    0.000    5.833 
#    0.000    0.000    0.000    0.000    0.000    0.000 
#
# Total GULP energy -267988.913451 kJ/mol
# GULP energy per Si atom -5583.102364 kJ/mol
# Density = 1.825378 g / cm^3
# Si number density = 18.295420 Si / 1000 Ang^3
#
#
#
# Elastic Constant Matrix: (Units=GPa)
#
#
# Indices 1 2 3 4 5 6 
#
# 1 147.3334 51.9225 125.0677 0.0000 0.0000 0.0000
# 2 51.9225 45.2194 52.2518 0.0000 0.0000 0.0000
# 3 125.0677 52.2518 167.7865 0.0000 0.0000 0.0000
# 4 0.0000 0.0000 0.0000 2.6168 0.0000 0.0000
# 5 0.0000 0.0000 0.0000 0.0000 39.8563 0.0000
# 6 0.0000 0.0000 0.0000 0.0000 0.0000 24.8241
#
#
#
# Elastic Compliance Matrix: (Units=1/GPa)
#
#
# Indices 1 2 3 4 5 6 
#
# 1 0.020707 -0.009281 -0.012545 0.000000 0.000000 0.000000
# 2 -0.009281 0.038705 -0.005136 0.000000 0.000000 0.000000
# 3 -0.012545 -0.005136 0.016910 0.000000 0.000000 0.000000
# 4 0.000000 0.000000 0.000000 0.382148 0.000000 0.000000
# 5 0.000000 0.000000 0.000000 0.000000 0.025090 0.000000
# 6 0.000000 0.000000 0.000000 0.000000 0.000000 0.040284
#
#
# Mechanical properties :
#
#
# Convention : Reuss Voigt Hill
#
# Bulk Modulus (GPa) = 44.64291 90.98037 67.81164
# Shear Modulus (GPa) = 8.54362 22.19925 15.37144
#
# Velocity S-wave (km/s) = 2.16332 3.48714 2.90173
# Velocity P-wave (km/s) = 5.54022 8.12711 6.95500
#
# Compressibility (1/GPa) = 0.02239997
#
# Stress axis : x y z
#
# Youngs Moduli (GPa) = 48.29329 25.83634 59.13659
#
# Poissons Ratio (x) = 0.23978 0.74185
# Poissons Ratio (y) = 0.44820 0.30370
# Poissons Ratio (z) = 0.60582 0.13269
#
# Static dielectric constant tensor:
#      x y z
#    x 1.594290 0.000000 0.000000 
#    y 0.000000 1.618960 0.000000 
#    z 0.000000 0.000000 1.632940 
# 
# From -- ./inp_files/75389.got.cif
#   From: 2010.05.17/outbox.cif.g08.bks.cpg/sg65_38_cif.got.tgz:75389.got - 2010.06.03 17:01:31.
