data_PCOD9491812
_publ_section_title
;
Structure prediction by ZEFSAII (Michael W. Deem and Ramdas Pophale) SiO2 
 PCOD9491812
Probable space group: C M M M
;
_chemical_formula_sum "Si O2"
_cell_formula_units_Z 104
_cell_length_a 18.498601
_cell_length_b 15.042967
_cell_length_c 19.120970
_cell_angle_alpha 90.000000
_cell_angle_beta 90.000000
_cell_angle_gamma 90.000000
_cell_volume 5320.865830
_symmetry_space_group_name_H-M "C M M M"
_symmetry_group_IT_number 65
_symmetry_cell_setting 'orthorhombic'
loop_
_space_group_symop_operation_xyz
x,y,z
-x,-y,z
x,-y,-z
-x,y,-z
-x,-y,-z
x,y,-z
-x,y,z
x,-y,z
1/2+x,1/2+y,z
1/2-x,1/2-y,z
1/2+x,1/2-y,-z
1/2-x,1/2+y,-z
1/2-x,1/2-y,-z
1/2+x,1/2+y,-z
1/2-x,1/2+y,z
1/2+x,1/2-y,z
loop_
_atom_site_type_symbol
_atom_site_label
_atom_site_fract_x
_atom_site_fract_y
_atom_site_fract_z
Si Si1 0.580659 0.240697 0.417131
Si Si2 0.290705 0.105915 0.920727
Si Si3 0.300896 0.100170 0.583978
Si Si4 0.086335 0.898541 0.000000
Si Si5 0.586056 0.245391 0.112091
Si Si6 0.351670 0.599970 0.348351
Si Si7 0.305393 0.322642 0.209182
O O1 0.592534 0.260152 0.500000
O O2 0.500000 0.203940 0.410641
O O3 0.639883 0.170205 0.392381
O O4 0.590030 0.328916 0.371986
O O5 0.364754 0.163115 0.914189
O O6 0.237444 0.138487 0.858653
O O7 0.302514 0.000000 0.914053
O O8 0.261922 0.122947 0.000000
O O9 0.302778 0.099483 0.500000
O O10 0.220650 0.122802 0.608199
O O11 0.316525 0.000000 0.609240
O O12 0.100337 0.833582 0.065274
O O13 0.000000 0.910253 0.000000
O O14 0.117403 0.000000 0.000000
O O15 0.500000 0.227947 0.111882
O O16 0.622008 0.272356 0.185206
O O17 0.373781 0.500000 0.364784
O O18 0.328075 0.608276 0.267794
O O19 0.250000 0.250000 0.239892
#
# Coordination Sequence:
#
# PCOD9491812 Si02
#       7
#    16  16  16   8  16  16  16
#     4  10  21  36  56  84 118 152 185 227 280 333
#     4  10  21  37  59  86 115 146 179 223 282 344
#     4   9  18  34  59  87 112 144 188 235 279 326
#     4   9  18  32  50  73 103 139 175 216 264 312
#     4  10  21  37  57  83 112 141 182 229 275 334
#     4  11  22  37  57  81 111 150 194 235 274 326
#     4  10  22  37  57  80 111 148 188 233 282 329
#
# _framework density 19.545691000000001
#
# number of rings (size 3 to 8) (size 9 to 14) (size 15 to 20)
#    0.000    2.077    0.769    2.308    1.077    5.846 
#    0.000    3.077    0.000    0.000    0.000    4.308 
#    0.000    0.000    0.000    0.000    0.000    0.000 
#
# Total GULP energy -290052.925352 kJ/mol
# GULP energy per Si atom -5577.940872 kJ/mol
# Density = 1.950120 g / cm^3
# Si number density = 19.545691 Si / 1000 Ang^3
#
#
#
# Elastic Constant Matrix: (Units=GPa)
#
#
# Indices 1 2 3 4 5 6 
#
# 1 68.4626 28.4134 11.0510 0.0000 0.0000 0.0000
# 2 28.4134 72.5011 6.3599 0.0000 0.0000 0.0000
# 3 11.0510 6.3599 11.2868 0.0000 0.0000 0.0000
# 4 0.0000 0.0000 0.0000 16.6657 0.0000 0.0000
# 5 0.0000 0.0000 0.0000 0.0000 8.1784 0.0000
# 6 0.0000 0.0000 0.0000 0.0000 0.0000 3.7831
#
#
#
# Elastic Compliance Matrix: (Units=1/GPa)
#
#
# Indices 1 2 3 4 5 6 
#
# 1 0.019802 -0.006375 -0.015796 0.000000 0.000000 0.000000
# 2 -0.006375 0.016562 -0.003091 0.000000 0.000000 0.000000
# 3 -0.015796 -0.003091 0.105807 0.000000 0.000000 0.000000
# 4 0.000000 0.000000 0.000000 0.060003 0.000000 0.000000
# 5 0.000000 0.000000 0.000000 0.000000 0.122273 0.000000
# 6 0.000000 0.000000 0.000000 0.000000 0.000000 0.264337
#
#
# Mechanical properties :
#
#
# Convention : Reuss Voigt Hill
#
# Bulk Modulus (GPa) = 10.91137 27.09989 19.00563
# Shear Modulus (GPa) = 7.46427 12.82052 10.14239
#
# Velocity S-wave (km/s) = 1.95632 2.56388 2.28042
# Velocity P-wave (km/s) = 3.27070 4.76022 4.08394
#
# Compressibility (1/GPa) = 0.09164752
#
# Stress axis : x y z
#
# Youngs Moduli (GPa) = 50.50007 60.37791 9.45117
#
# Poissons Ratio (x) = 0.38490 0.14929
# Poissons Ratio (y) = 0.32193 0.02921
# Poissons Ratio (z) = 0.79771 0.18662
#
# Static dielectric constant tensor:
#      x y z
#    x 1.681240 0.000000 0.000000 
#    y 0.000000 1.684780 0.000000 
#    z 0.000000 0.000000 1.716790 
# 
# From -- ./inp_files/63838.got.cif
#   From: 2010.05.17/outbox.cif.g08.bks.cpg/sg65_32_cif.got.tgz:63838.got - 2010.06.03 17:01:31.
