data_PCOD9491688
_publ_section_title
;
Structure prediction by ZEFSAII (Michael W. Deem and Ramdas Pophale) SiO2 
 PCOD9491688
Probable space group: C M M M
;
_chemical_formula_sum "Si O2"
_cell_formula_units_Z 104
_cell_length_a 29.022969
_cell_length_b 8.018395
_cell_length_c 23.383125
_cell_angle_alpha 90.000000
_cell_angle_beta 90.000000
_cell_angle_gamma 90.000000
_cell_volume 5441.665421
_symmetry_space_group_name_H-M "C M M M"
_symmetry_group_IT_number 65
_symmetry_cell_setting 'orthorhombic'
loop_
_space_group_symop_operation_xyz
x,y,z
-x,-y,z
x,-y,-z
-x,y,-z
-x,-y,-z
x,y,-z
-x,y,z
x,-y,z
1/2+x,1/2+y,z
1/2-x,1/2-y,z
1/2+x,1/2-y,-z
1/2-x,1/2+y,-z
1/2-x,1/2-y,-z
1/2+x,1/2+y,-z
1/2-x,1/2+y,z
1/2+x,1/2-y,z
loop_
_atom_site_type_symbol
_atom_site_label
_atom_site_fract_x
_atom_site_fract_y
_atom_site_fract_z
Si Si1 0.605398 0.804372 0.125802
Si Si2 0.699680 0.800596 0.934849
Si Si3 0.052177 0.201242 0.635366
Si Si4 0.554983 0.500000 0.934120
Si Si5 0.360225 0.801542 0.435919
Si Si6 0.197527 0.197083 0.672336
Si Si7 0.388613 0.703049 0.745069
O O1 0.656777 0.754996 0.104498
O O2 0.572764 0.668310 0.096231
O O3 0.602459 0.782126 0.193752
O O4 0.597091 0.000000 0.110486
O O5 0.750000 0.750000 0.913177
O O6 0.699323 0.000000 0.938407
O O7 0.694383 0.733871 0.000000
O O8 0.089280 0.258591 0.588686
O O9 0.073257 0.246948 0.697280
O O10 0.000000 0.262091 0.627313
O O11 0.051532 0.000000 0.633444
O O12 0.500000 0.500000 0.932968
O O13 0.570961 0.500000 0.000000
O O14 0.353938 0.733788 0.500000
O O15 0.322952 0.740468 0.389900
O O16 0.356285 0.000000 0.438019
O O17 0.250000 0.250000 0.679854
O O18 0.160381 0.261276 0.718640
O O19 0.195991 0.000000 0.677593
O O20 0.388439 0.500000 0.750932
#
# Coordination Sequence:
#
# PCOD9491688 Si02
#       7
#    16  16  16   8  16  16  16
#     4  11  23  40  64  93 125 162 206 256 310 372
#     4   9  19  34  54  84 118 152 192 237 289 354
#     4   9  19  36  58  82 110 147 188 237 299 360
#     4  11  26  46  68  92 122 166 211 259 318 370
#     4  10  21  36  54  79 113 151 196 247 295 351
#     4  10  21  37  59  84 116 158 198 244 297 349
#     4   9  19  37  57  85 118 154 193 240 296 358
#
# _framework density 19.111795000000001
#
# number of rings (size 3 to 8) (size 9 to 14) (size 15 to 20)
#    0.000    2.231    0.769    2.308    1.077    7.692 
#    0.000    5.385    0.000    0.000    0.000    0.000 
#    0.000    0.000    0.000    0.000    0.000    0.000 
#
# Total GULP energy -290161.918449 kJ/mol
# GULP energy per Si atom -5580.036893 kJ/mol
# Density = 1.906830 g / cm^3
# Si number density = 19.111795 Si / 1000 Ang^3
#
#
#
# Elastic Constant Matrix: (Units=GPa)
#
#
# Indices 1 2 3 4 5 6 
#
# 1 68.5158 24.2795 8.5743 0.0000 0.0000 0.0000
# 2 24.2795 53.4491 26.6289 0.0000 0.0000 0.0000
# 3 8.5743 26.6289 90.1969 0.0000 0.0000 0.0000
# 4 0.0000 0.0000 0.0000 24.1168 0.0000 0.0000
# 5 0.0000 0.0000 0.0000 0.0000 14.3077 0.0000
# 6 0.0000 0.0000 0.0000 0.0000 0.0000 31.2446
#
#
#
# Elastic Compliance Matrix: (Units=1/GPa)
#
#
# Indices 1 2 3 4 5 6 
#
# 1 0.017444 -0.008322 0.000799 0.000000 0.000000 0.000000
# 2 -0.008322 0.025906 -0.006857 0.000000 0.000000 0.000000
# 3 0.000799 -0.006857 0.013035 0.000000 0.000000 0.000000
# 4 0.000000 0.000000 0.000000 0.041465 0.000000 0.000000
# 5 0.000000 0.000000 0.000000 0.000000 0.069892 0.000000
# 6 0.000000 0.000000 0.000000 0.000000 0.000000 0.032006
#
#
# Mechanical properties :
#
#
# Convention : Reuss Voigt Hill
#
# Bulk Modulus (GPa) = 36.19964 36.79190 36.49577
# Shear Modulus (GPa) = 21.03337 24.11242 22.57289
#
# Velocity S-wave (km/s) = 3.32104 3.55583 3.44044
# Velocity P-wave (km/s) = 5.80413 6.01259 5.90928
#
# Compressibility (1/GPa) = 0.02762458
#
# Stress axis : x y z
#
# Youngs Moduli (GPa) = 57.32547 38.60113 76.71432
#
# Poissons Ratio (x) = 0.32124 -0.06127
# Poissons Ratio (y) = 0.47706 0.52604
# Poissons Ratio (z) = -0.04578 0.26469
#
# Static dielectric constant tensor:
#      x y z
#    x 1.586380 0.000000 0.000000 
#    y 0.000000 1.708700 0.000000 
#    z 0.000000 0.000000 1.703300 
# 
# From -- ./inp_files/65859.got.cif
#   From: 2010.05.17/outbox.cif.g08.bks.cpg/sg65_33_cif.got.tgz:65859.got - 2010.06.03 17:01:31.
