data_PCOD9491013
_publ_section_title
;
Structure prediction by ZEFSAII (Michael W. Deem and Ramdas Pophale) SiO2 
 PCOD9491013
Probable space group: C M M M
;
_chemical_formula_sum "Si O2"
_cell_formula_units_Z 88
_cell_length_a 24.003771
_cell_length_b 8.926785
_cell_length_c 23.163337
_cell_angle_alpha 90.000000
_cell_angle_beta 90.000000
_cell_angle_gamma 90.000000
_cell_volume 4963.358848
_symmetry_space_group_name_H-M "C M M M"
_symmetry_group_IT_number 65
_symmetry_cell_setting 'orthorhombic'
loop_
_space_group_symop_operation_xyz
x,y,z
-x,-y,z
x,-y,-z
-x,y,-z
-x,-y,-z
x,y,-z
-x,y,z
x,-y,z
1/2+x,1/2+y,z
1/2-x,1/2-y,z
1/2+x,1/2-y,-z
1/2-x,1/2+y,-z
1/2-x,1/2-y,-z
1/2+x,1/2+y,-z
1/2-x,1/2+y,z
1/2+x,1/2-y,z
loop_
_atom_site_type_symbol
_atom_site_label
_atom_site_fract_x
_atom_site_fract_y
_atom_site_fract_z
Si Si1 0.892205 0.179753 0.322112
Si Si2 0.310517 0.679725 0.777752
Si Si3 0.934762 0.679873 0.433225
Si Si4 0.188999 0.322165 0.000000
Si Si5 0.000000 0.177918 0.862274
Si Si6 0.623884 0.678674 0.894356
Si Si7 0.000000 0.678023 0.261950
O O1 0.839559 0.223796 0.282603
O O2 0.895479 0.240314 0.387130
O O3 0.945814 0.250253 0.290978
O O4 0.896351 0.000000 0.321599
O O5 0.305352 0.500000 0.777957
O O6 0.250000 0.750000 0.785313
O O7 0.350936 0.718752 0.831476
O O8 0.922655 0.716535 0.500000
O O9 0.930894 0.500000 0.426688
O O10 0.000000 0.720153 0.422350
O O11 0.250000 0.250000 0.000000
O O12 0.155995 0.266303 0.056242
O O13 0.193895 0.500000 0.000000
O O14 0.942348 0.206423 0.895218
O O15 0.000000 0.275793 0.804737
O O16 0.000000 0.000000 0.846078
O O17 0.632454 0.500000 0.902527
O O18 0.000000 0.500000 0.270011
#
# Coordination Sequence:
#
# PCOD9491013 Si02
#       7
#    16  16  16   8   8  16   8
#     4  11  21  35  55  81 113 149 189 233 278 330
#     4  10  22  38  58  83 112 144 186 236 281 330
#     4   9  18  32  50  78 115 148 181 225 279 337
#     4  12  26  43  62  85 115 152 198 244 283 330
#     4  10  20  39  63  87 120 152 183 224 279 345
#     4  10  21  40  64  88 116 151 187 229 284 338
#     4  12  22  32  52  84 118 152 186 223 279 340
#
# _framework density 17.729928999999998
#
# number of rings (size 3 to 8) (size 9 to 14) (size 15 to 20)
#    0.000    1.636    2.727    3.273    0.000    5.091 
#    0.000    2.727    0.000    0.545    0.000    0.000 
#    0.000    0.000    0.000    0.000    0.000    0.000 
#
# Total GULP energy -245721.023097 kJ/mol
# GULP energy per Si atom -5584.568707 kJ/mol
# Density = 1.768957 g / cm^3
# Si number density = 17.729929 Si / 1000 Ang^3
#
#
#
# Elastic Constant Matrix: (Units=GPa)
#
#
# Indices 1 2 3 4 5 6 
#
# 1 128.3156 46.3413 57.7555 0.0000 0.0000 0.0000
# 2 46.3413 53.1521 54.3455 0.0000 0.0000 0.0000
# 3 57.7555 54.3455 121.1679 0.0000 0.0000 0.0000
# 4 0.0000 0.0000 0.0000 33.7150 0.0000 0.0000
# 5 0.0000 0.0000 0.0000 0.0000 16.5349 0.0000
# 6 0.0000 0.0000 0.0000 0.0000 0.0000 23.6295
#
#
#
# Elastic Compliance Matrix: (Units=1/GPa)
#
#
# Indices 1 2 3 4 5 6 
#
# 1 0.011591 -0.008232 -0.001833 0.000000 0.000000 0.000000
# 2 -0.008232 0.040596 -0.014284 0.000000 0.000000 0.000000
# 3 -0.001833 -0.014284 0.015533 0.000000 0.000000 0.000000
# 4 0.000000 0.000000 0.000000 0.029660 0.000000 0.000000
# 5 0.000000 0.000000 0.000000 0.000000 0.060478 0.000000
# 6 0.000000 0.000000 0.000000 0.000000 0.000000 0.042320
#
#
# Mechanical properties :
#
#
# Convention : Reuss Voigt Hill
#
# Bulk Modulus (GPa) = 52.56900 68.83558 60.70229
# Shear Modulus (GPa) = 19.59119 24.38879 21.98999
#
# Velocity S-wave (km/s) = 3.32773 3.71289 3.52557
# Velocity P-wave (km/s) = 6.66928 7.56899 7.13333
#
# Compressibility (1/GPa) = 0.01902262
#
# Stress axis : x y z
#
# Youngs Moduli (GPa) = 86.27195 24.63323 64.37818
#
# Poissons Ratio (x) = 0.20278 0.11800
# Poissons Ratio (y) = 0.71018 0.91957
# Poissons Ratio (z) = 0.15813 0.35186
#
# Static dielectric constant tensor:
#      x y z
#    x 1.586650 0.000000 0.000000 
#    y 0.000000 1.590250 0.000000 
#    z 0.000000 0.000000 1.616980 
# 
# From -- ./inp_files/65238.got.cif
#   From: 2010.05.17/outbox.cif.g08.bks.cpg/sg65_33_cif.got.tgz:65238.got - 2010.06.03 17:01:31.
