data_PCOD9491251
_publ_section_title
;
Structure prediction by ZEFSAII (Michael W. Deem and Ramdas Pophale) SiO2 
 PCOD9491251
Probable space group: C M M M
;
_chemical_formula_sum "Si O2"
_cell_formula_units_Z 88
_cell_length_a 11.618195
_cell_length_b 29.350343
_cell_length_c 13.635823
_cell_angle_alpha 90.000000
_cell_angle_beta 90.000000
_cell_angle_gamma 90.000000
_cell_volume 4649.788484
_symmetry_space_group_name_H-M "C M M M"
_symmetry_group_IT_number 65
_symmetry_cell_setting 'orthorhombic'
loop_
_space_group_symop_operation_xyz
x,y,z
-x,-y,z
x,-y,-z
-x,y,-z
-x,-y,-z
x,y,-z
-x,y,z
x,-y,z
1/2+x,1/2+y,z
1/2-x,1/2-y,z
1/2+x,1/2-y,-z
1/2-x,1/2+y,-z
1/2-x,1/2-y,-z
1/2+x,1/2+y,-z
1/2-x,1/2+y,z
1/2+x,1/2-y,z
loop_
_atom_site_type_symbol
_atom_site_label
_atom_site_fract_x
_atom_site_fract_y
_atom_site_fract_z
Si Si1 0.867914 0.136312 0.271380
Si Si2 0.868945 0.225937 0.616430
Si Si3 0.253103 0.051832 0.201468
Si Si4 0.500000 0.171306 0.888402
Si Si5 0.871680 0.944847 0.000000
Si Si6 0.754555 0.695641 0.886014
Si Si7 0.000000 0.563302 0.113723
O O1 0.856319 0.172300 0.359652
O O2 0.785645 0.092195 0.273406
O O3 0.836908 0.168517 0.178208
O O4 0.000000 0.120640 0.264824
O O5 0.871770 0.233839 0.500000
O O6 0.750000 0.250000 0.653806
O O7 0.000000 0.238698 0.653983
O O8 0.386830 0.050281 0.173550
O O9 0.216177 0.000000 0.227293
O O10 0.193806 0.066730 0.098918
O O11 0.380115 0.184822 0.842109
O O12 0.500000 0.117444 0.894303
O O13 0.500000 0.191134 0.000000
O O14 0.000000 0.926104 0.000000
O O15 0.877041 0.000000 0.000000
O O16 0.750000 0.750000 0.886256
O O17 0.748913 0.680121 0.000000
O O18 0.000000 0.547056 0.000000
#
# Coordination Sequence:
#
# PCOD9491251 Si02
#       7
#    16  16  16   8   8  16   8
#     4  11  23  36  53  81 110 141 181 224 273 327
#     4   9  19  40  67  92 118 145 178 225 280 337
#     4  11  22  35  51  73 104 146 189 234 281 322
#     4   9  18  33  50  67  96 139 186 227 266 307
#     4   9  18  31  47  67  94 136 186 229 272 317
#     4  10  21  35  50  71 104 147 184 218 263 320
#     4  11  19  34  53  72 100 142 200 249 280 315
#
# _framework density 18.925591000000001
#
# number of rings (size 3 to 8) (size 9 to 14) (size 15 to 20)
#    0.000    1.909    2.727    1.364    2.545    1.818 
#    3.273    0.000    0.000    0.545    0.000    2.545 
#    0.000    1.455    0.000    0.000    0.000    0.000 
#
# Total GULP energy -245233.111419 kJ/mol
# GULP energy per Si atom -5573.479805 kJ/mol
# Density = 1.888252 g / cm^3
# Si number density = 18.925591 Si / 1000 Ang^3
#
#
#
# Elastic Constant Matrix: (Units=GPa)
#
#
# Indices 1 2 3 4 5 6 
#
# 1 132.7497 36.4826 10.2729 0.0000 0.0000 0.0000
# 2 36.4826 99.4961 -3.3413 0.0000 0.0000 0.0000
# 3 10.2729 -3.3413 12.4742 0.0000 0.0000 0.0000
# 4 0.0000 0.0000 0.0000 33.2399 0.0000 0.0000
# 5 0.0000 0.0000 0.0000 0.0000 15.6091 0.0000
# 6 0.0000 0.0000 0.0000 0.0000 0.0000 114.9923
#
#
#
# Elastic Compliance Matrix: (Units=1/GPa)
#
#
# Indices 1 2 3 4 5 6 
#
# 1 0.009201 -0.003661 -0.008558 0.000000 0.000000 0.000000
# 2 -0.003661 0.011599 0.006122 0.000000 0.000000 0.000000
# 3 -0.008558 0.006122 0.088853 0.000000 0.000000 0.000000
# 4 0.000000 0.000000 0.000000 0.030084 0.000000 0.000000
# 5 0.000000 0.000000 0.000000 0.000000 0.064065 0.000000
# 6 0.000000 0.000000 0.000000 0.000000 0.000000 0.008696
#
#
# Mechanical properties :
#
#
# Convention : Reuss Voigt Hill
#
# Bulk Modulus (GPa) = 10.26080 36.83871 23.54976
# Shear Modulus (GPa) = 19.44156 46.18863 32.81510
#
# Velocity S-wave (km/s) = 3.20857 4.94554 4.16853
# Velocity P-wave (km/s) = 4.37721 7.21931 5.96986
#
# Compressibility (1/GPa) = 0.09745825
#
# Stress axis : x y z
#
# Youngs Moduli (GPa) = 108.67802 86.21612 11.25449
#
# Poissons Ratio (x) = 0.31567 0.09632
# Poissons Ratio (y) = 0.39791 -0.06890
# Poissons Ratio (z) = 0.93011 -0.52782
#
# Static dielectric constant tensor:
#      x y z
#    x 1.730010 0.000000 0.000000 
#    y 0.000000 1.676030 0.000000 
#    z 0.000000 0.000000 1.667520 
# 
# From -- ./inp_files/38879.got.cif
#   From: 2010.05.17/outbox.cif.g08.bks.cpg/sg65_20_cif.got.tgz:38879.got - 2010.06.03 17:01:31.
