data_PCOD9491572
_publ_section_title
;
Structure prediction by ZEFSAII (Michael W. Deem and Ramdas Pophale) SiO2 
 PCOD9491572
Probable space group: C M M M
;
_chemical_formula_sum "Si O2"
_cell_formula_units_Z 104
_cell_length_a 33.154216
_cell_length_b 20.456404
_cell_length_c 9.149704
_cell_angle_alpha 90.000000
_cell_angle_beta 90.000000
_cell_angle_gamma 90.000000
_cell_volume 6205.475985
_symmetry_space_group_name_H-M "C M M M"
_symmetry_group_IT_number 65
_symmetry_cell_setting 'orthorhombic'
loop_
_space_group_symop_operation_xyz
x,y,z
-x,-y,z
x,-y,-z
-x,y,-z
-x,-y,-z
x,y,-z
-x,y,z
x,-y,z
1/2+x,1/2+y,z
1/2-x,1/2-y,z
1/2+x,1/2-y,-z
1/2-x,1/2+y,-z
1/2-x,1/2-y,-z
1/2+x,1/2+y,-z
1/2-x,1/2+y,z
1/2+x,1/2-y,z
loop_
_atom_site_type_symbol
_atom_site_label
_atom_site_fract_x
_atom_site_fract_y
_atom_site_fract_z
Si Si1 0.548004 0.000000 0.334386
Si Si2 0.131297 0.184709 0.326986
Si Si3 0.955065 0.758362 0.674547
Si Si4 0.182774 0.075254 0.825742
Si Si5 0.075522 0.369819 0.825984
Si Si6 0.157133 0.330856 0.326015
Si Si7 0.731513 0.075300 0.325800
O O1 0.561017 0.936212 0.247207
O O2 0.500000 0.000000 0.344281
O O3 0.564793 0.000000 0.500000
O O4 0.133172 0.170759 0.500000
O O5 0.084330 0.198560 0.288503
O O6 0.151228 0.126316 0.239047
O O7 0.155820 0.252628 0.302338
O O8 0.952045 0.744912 0.500000
O O9 0.949602 0.690849 0.760812
O O10 0.000000 0.785651 0.702230
O O11 0.226933 0.087776 0.757927
O O12 0.172197 0.000000 0.788689
O O13 0.184734 0.081021 0.000000
O O14 0.121064 0.358386 0.771348
O O15 0.072635 0.371716 0.000000
O O16 0.148451 0.340614 0.500000
O O17 0.197662 0.370703 0.291976
O O18 0.739059 0.078519 0.500000
O O19 0.718344 0.000000 0.293276
#
# Coordination Sequence:
#
# PCOD9491572 Si02
#       7
#     8  16  16  16  16  16  16
#     4  11  23  37  51  65  89 133 183 225 267 313
#     4   9  18  33  54  79 105 133 170 214 254 303
#     4   9  18  35  57  78 102 134 170 207 253 309
#     4  10  21  36  53  75 104 137 170 209 260 316
#     4  11  22  33  48  74 104 134 170 217 267 310
#     4   9  19  35  53  76 104 137 176 215 258 307
#     4   9  18  33  54  77 100 135 180 218 253 301
#
# _framework density 16.759391000000001
#
# number of rings (size 3 to 8) (size 9 to 14) (size 15 to 20)
#    0.000    2.385    0.000    3.462    1.077    7.385 
#    0.000    3.077    0.000    0.462    0.000    3.231 
#    0.000    0.000    0.000    0.000    0.000    0.000 
#
# Total GULP energy -290008.648768 kJ/mol
# GULP energy per Si atom -5577.089399 kJ/mol
# Density = 1.672125 g / cm^3
# Si number density = 16.759391 Si / 1000 Ang^3
#
#
#
# Elastic Constant Matrix: (Units=GPa)
#
#
# Indices 1 2 3 4 5 6 
#
# 1 120.5076 86.2406 56.2391 0.0000 0.0000 0.0000
# 2 86.2406 98.0183 57.3811 0.0000 0.0000 0.0000
# 3 56.2391 57.3811 62.6340 0.0000 0.0000 0.0000
# 4 0.0000 0.0000 0.0000 22.9374 0.0000 0.0000
# 5 0.0000 0.0000 0.0000 0.0000 -19.8774 0.0000
# 6 0.0000 0.0000 0.0000 0.0000 0.0000 12.3882
#
#
#
# Elastic Compliance Matrix: (Units=1/GPa)
#
#
# Indices 1 2 3 4 5 6 
#
# 1 0.022994 -0.017565 -0.004555 0.000000 0.000000 0.000000
# 2 -0.017565 0.035420 -0.016678 0.000000 0.000000 0.000000
# 3 -0.004555 -0.016678 0.035335 0.000000 0.000000 0.000000
# 4 0.000000 0.000000 0.000000 0.043597 0.000000 0.000000
# 5 0.000000 0.000000 0.000000 0.000000 -0.050308 0.000000
# 6 0.000000 0.000000 0.000000 0.000000 0.000000 0.080722
#
#
# Mechanical properties :
#
#
# Convention : Reuss Voigt Hill
#
# Bulk Modulus (GPa) = 61.90494 75.65348 68.77921
# Shear Modulus (GPa) = 19.94115 8.50957 14.22536
#
# Velocity S-wave (km/s) = 3.45316 2.25577 2.91658
# Velocity P-wave (km/s) = 7.27439 7.21274 7.24363
#
# Compressibility (1/GPa) = 0.01615380
#
# Stress axis : x y z
#
# Youngs Moduli (GPa) = 43.49000 28.23292 28.30082
#
# Poissons Ratio (x) = 0.49590 0.12890
# Poissons Ratio (y) = 0.76388 0.47200
# Poissons Ratio (z) = 0.19808 0.47087
#
# Static dielectric constant tensor:
#      x y z
#    x 1.567350 0.000000 0.000000 
#    y 0.000000 1.549070 0.000000 
#    z 0.000000 0.000000 1.552880 
# 
# From -- ./inp_files/18702.got.cif
#   From: 2010.05.17/outbox.cif.g08.bks.cpg/sg65_10_cif.got.tgz:18702.got - 2010.06.03 17:01:31.
