data_PCOD9491015
_publ_section_title
;
Structure prediction by ZEFSAII (Michael W. Deem and Ramdas Pophale) SiO2 
 PCOD9491015
Probable space group: C M M M
;
_chemical_formula_sum "Si O2"
_cell_formula_units_Z 96
_cell_length_a 14.528732
_cell_length_b 19.764814
_cell_length_c 16.993456
_cell_angle_alpha 90.000000
_cell_angle_beta 90.000000
_cell_angle_gamma 90.000000
_cell_volume 4879.801496
_symmetry_space_group_name_H-M "C M M M"
_symmetry_group_IT_number 65
_symmetry_cell_setting 'orthorhombic'
loop_
_space_group_symop_operation_xyz
x,y,z
-x,-y,z
x,-y,-z
-x,y,-z
-x,-y,-z
x,y,-z
-x,y,z
x,-y,z
1/2+x,1/2+y,z
1/2-x,1/2-y,z
1/2+x,1/2-y,-z
1/2-x,1/2+y,-z
1/2-x,1/2-y,-z
1/2+x,1/2+y,-z
1/2-x,1/2+y,z
1/2+x,1/2-y,z
loop_
_atom_site_type_symbol
_atom_site_label
_atom_site_fract_x
_atom_site_fract_y
_atom_site_fract_z
Si Si1 0.109037 0.776709 0.661479
Si Si2 0.896999 0.579460 0.704528
Si Si3 0.724577 0.152027 0.592874
Si Si4 0.852794 0.574794 0.000000
Si Si5 0.141034 0.268508 0.000000
Si Si6 0.396984 0.692717 0.837027
Si Si7 0.246014 0.577208 0.165971
O O1 0.176593 0.838043 0.635270
O O2 0.157673 0.714746 0.616511
O O3 0.118641 0.766764 0.755546
O O4 0.000000 0.784343 0.643478
O O5 0.907640 0.500000 0.717348
O O6 0.834615 0.591120 0.628167
O O7 0.835685 0.603597 0.777658
O O8 0.000000 0.609659 0.699485
O O9 0.737497 0.149852 0.500000
O O10 0.792770 0.573718 0.078393
O O11 0.901789 0.500000 0.000000
O O12 0.889467 0.652438 0.000000
O O13 0.250000 0.250000 0.000000
O O14 0.109754 0.235106 0.917538
O O15 0.500000 0.665205 0.831899
O O16 0.326975 0.630809 0.835056
O O17 0.271446 0.500000 0.190116
#
# Coordination Sequence:
#
# PCOD9491015 Si02
#       7
#    16  16  16   8   8  16  16
#     4  10  22  38  60  88 123 159 198 247 307 376
#     4  10  22  40  62  87 119 160 204 252 306 369
#     4  11  23  38  61  88 118 153 199 257 315 375
#     4  10  22  38  62  90 120 167 212 251 301 351
#     4  12  23  36  63  90 128 170 206 258 300 357
#     4  11  23  39  61  92 125 163 206 251 306 368
#     4  10  20  39  63  89 123 161 204 253 307 368
#
# _framework density 19.672930999999998
#
# number of rings (size 3 to 8) (size 9 to 14) (size 15 to 20)
#    0.000    1.500    3.333    1.750    4.667    3.000 
#    0.000    2.083    0.000    7.500    0.000    1.167 
#    0.000    0.000    0.000    0.000    0.000    0.000 
#
# Total GULP energy -267554.807007 kJ/mol
# GULP energy per Si atom -5574.058479 kJ/mol
# Density = 1.962815 g / cm^3
# Si number density = 19.672931 Si / 1000 Ang^3
#
#
#
# Elastic Constant Matrix: (Units=GPa)
#
#
# Indices 1 2 3 4 5 6 
#
# 1 152.2651 48.0063 58.1068 0.0000 0.0000 0.0000
# 2 48.0063 85.4837 18.7547 0.0000 0.0000 0.0000
# 3 58.1068 18.7547 148.0072 0.0000 0.0000 0.0000
# 4 0.0000 0.0000 0.0000 29.6121 0.0000 0.0000
# 5 0.0000 0.0000 0.0000 0.0000 16.9868 0.0000
# 6 0.0000 0.0000 0.0000 0.0000 0.0000 11.7554
#
#
#
# Elastic Compliance Matrix: (Units=1/GPa)
#
#
# Indices 1 2 3 4 5 6 
#
# 1 0.009126 -0.004463 -0.003017 0.000000 0.000000 0.000000
# 2 -0.004463 0.014215 -0.000049 0.000000 0.000000 0.000000
# 3 -0.003017 -0.000049 0.007947 0.000000 0.000000 0.000000
# 4 0.000000 0.000000 0.000000 0.033770 0.000000 0.000000
# 5 0.000000 0.000000 0.000000 0.000000 0.058869 0.000000
# 6 0.000000 0.000000 0.000000 0.000000 0.000000 0.085067
#
#
# Mechanical properties :
#
#
# Convention : Reuss Voigt Hill
#
# Bulk Modulus (GPa) = 61.61575 70.61018 66.11296
# Shear Modulus (GPa) = 21.78994 29.06342 25.42668
#
# Velocity S-wave (km/s) = 3.33169 3.84778 3.59899
# Velocity P-wave (km/s) = 6.79619 7.46394 7.13788
#
# Compressibility (1/GPa) = 0.01622962
#
# Stress axis : x y z
#
# Youngs Moduli (GPa) = 109.57617 70.34675 125.83003
#
# Poissons Ratio (x) = 0.31396 0.37967
# Poissons Ratio (y) = 0.48905 0.00618
# Poissons Ratio (z) = 0.33063 0.00345
#
# Static dielectric constant tensor:
#      x y z
#    x 1.713990 0.000000 0.000000 
#    y 0.000000 1.778990 0.000000 
#    z 0.000000 0.000000 1.690100 
# 
# From -- ./inp_files/40431.got.cif
#   From: 2010.05.17/outbox.cif.g08.bks.cpg/sg65_21_cif.got.tgz:40431.got - 2010.06.03 17:01:31.
