data_PCOD9491884
_publ_section_title
;
Structure prediction by ZEFSAII (Michael W. Deem and Ramdas Pophale) SiO2 
 PCOD9491884
Probable space group: C M M M
;
_chemical_formula_sum "Si O2"
_cell_formula_units_Z 84
_cell_length_a 24.163490
_cell_length_b 14.648100
_cell_length_c 11.915158
_cell_angle_alpha 90.000000
_cell_angle_beta 90.000000
_cell_angle_gamma 90.000000
_cell_volume 4217.360855
_symmetry_space_group_name_H-M "C M M M"
_symmetry_group_IT_number 65
_symmetry_cell_setting 'orthorhombic'
loop_
_space_group_symop_operation_xyz
x,y,z
-x,-y,z
x,-y,-z
-x,y,-z
-x,-y,-z
x,y,-z
-x,y,z
x,-y,z
1/2+x,1/2+y,z
1/2-x,1/2-y,z
1/2+x,1/2-y,-z
1/2-x,1/2+y,-z
1/2-x,1/2-y,-z
1/2+x,1/2+y,-z
1/2-x,1/2+y,z
1/2+x,1/2-y,z
loop_
_atom_site_type_symbol
_atom_site_label
_atom_site_fract_x
_atom_site_fract_y
_atom_site_fract_z
Si Si1 0.435302 0.693332 0.000000
Si Si2 0.604546 0.103315 0.000000
Si Si3 0.613069 0.390837 0.770785
Si Si4 0.736599 0.647314 0.799918
Si Si5 0.062777 0.258519 0.633347
Si Si6 0.146606 0.397451 0.250731
Si Si7 0.765645 0.000000 0.000000
O O1 0.405265 0.652009 0.109392
O O2 0.500000 0.667705 0.000000
O O3 0.430969 0.803983 0.000000
O O4 0.639854 0.107724 0.885301
O O5 0.578786 0.000000 0.000000
O O6 0.609092 0.500000 0.775416
O O7 0.676132 0.360837 0.745777
O O8 0.574666 0.342667 0.679160
O O9 0.750000 0.750000 0.836648
O O10 0.789106 0.619768 0.724179
O O11 0.733870 0.578612 0.902785
O O12 0.068841 0.263309 0.500000
O O13 0.105911 0.325266 0.693906
O O14 0.000000 0.284786 0.664025
O O15 0.130908 0.500000 0.284020
#
# Coordination Sequence:
#
# PCOD9491884 Si02
#       7
#     8   8  16  16  16  16   4
#     4  12  24  40  61  94 138 182 221 269 333 401
#     4  10  21  36  62  98 135 174 212 262 331 402
#     4  12  25  43  67  98 137 175 222 274 335 401
#     4  12  22  39  65  98 136 180 219 262 328 400
#     4  11  26  48  72  96 126 174 235 289 337 392
#     4  11  22  41  68 101 138 173 217 271 336 410
#     4  12  22  34  60 108 146 174 216 258 312 416
#
# _framework density 19.917669
#
# number of rings (size 3 to 8) (size 9 to 14) (size 15 to 20)
#    0.000    0.571    5.714    2.286    1.333    3.238 
#    0.000    5.714    0.000    2.286    0.000    0.000 
#    0.000    0.000    0.000    0.000    0.000    0.000 
#
# Total GULP energy -234149.089528 kJ/mol
# GULP energy per Si atom -5574.978322 kJ/mol
# Density = 1.987234 g / cm^3
# Si number density = 19.917669 Si / 1000 Ang^3
#
#
#
# Elastic Constant Matrix: (Units=GPa)
#
#
# Indices 1 2 3 4 5 6 
#
# 1 126.6013 23.7126 36.1272 0.0000 0.0000 0.0000
# 2 23.7126 158.4705 18.6580 0.0000 0.0000 0.0000
# 3 36.1272 18.6580 47.0215 0.0000 0.0000 0.0000
# 4 0.0000 0.0000 0.0000 8.2572 0.0000 0.0000
# 5 0.0000 0.0000 0.0000 0.0000 82.3970 0.0000
# 6 0.0000 0.0000 0.0000 0.0000 0.0000 4.1758
#
#
#
# Elastic Compliance Matrix: (Units=1/GPa)
#
#
# Indices 1 2 3 4 5 6 
#
# 1 0.010177 -0.000632 -0.007568 0.000000 0.000000 0.000000
# 2 -0.000632 0.006659 -0.002157 0.000000 0.000000 0.000000
# 3 -0.007568 -0.002157 0.027938 0.000000 0.000000 0.000000
# 4 0.000000 0.000000 0.000000 0.121107 0.000000 0.000000
# 5 0.000000 0.000000 0.000000 0.000000 0.012136 0.000000
# 6 0.000000 0.000000 0.000000 0.000000 0.000000 0.239475
#
#
# Mechanical properties :
#
#
# Convention : Reuss Voigt Hill
#
# Bulk Modulus (GPa) = 41.56379 54.34320 47.95350
# Shear Modulus (GPa) = 11.20512 35.87236 23.53874
#
# Velocity S-wave (km/s) = 2.37443 4.24846 3.44146
# Velocity P-wave (km/s) = 5.33201 7.17001 6.31820
#
# Compressibility (1/GPa) = 0.02405940
#
# Stress axis : x y z
#
# Youngs Moduli (GPa) = 98.26221 150.17741 35.79414
#
# Poissons Ratio (x) = 0.09487 0.27090
# Poissons Ratio (y) = 0.06207 0.07720
# Poissons Ratio (z) = 0.74368 0.32391
#
# Static dielectric constant tensor:
#      x y z
#    x 1.747170 0.000000 0.000000 
#    y 0.000000 1.710320 0.000000 
#    z 0.000000 0.000000 1.663100 
# 
# From -- ./inp_files/30569.got.cif
#   From: 2010.05.17/outbox.cif.g08.bks.cpg/sg65_16_cif.got.tgz:30569.got - 2010.06.03 17:01:31.
