data_PCOD9491204
_publ_section_title
;
Structure prediction by ZEFSAII (Michael W. Deem and Ramdas Pophale) SiO2 
 PCOD9491204
Probable space group: C M M M
;
_chemical_formula_sum "Si O2"
_cell_formula_units_Z 100
_cell_length_a 21.353423
_cell_length_b 30.944915
_cell_length_c 7.407288
_cell_angle_alpha 90.000000
_cell_angle_beta 90.000000
_cell_angle_gamma 90.000000
_cell_volume 4894.586725
_symmetry_space_group_name_H-M "C M M M"
_symmetry_group_IT_number 65
_symmetry_cell_setting 'orthorhombic'
loop_
_space_group_symop_operation_xyz
x,y,z
-x,-y,z
x,-y,-z
-x,y,-z
-x,-y,-z
x,y,-z
-x,y,z
x,-y,z
1/2+x,1/2+y,z
1/2-x,1/2-y,z
1/2+x,1/2-y,-z
1/2-x,1/2+y,-z
1/2-x,1/2-y,-z
1/2+x,1/2+y,-z
1/2-x,1/2+y,z
1/2+x,1/2-y,z
loop_
_atom_site_type_symbol
_atom_site_label
_atom_site_fract_x
_atom_site_fract_y
_atom_site_fract_z
Si Si1 0.677548 0.203793 0.215573
Si Si2 0.500000 0.597640 0.500000
Si Si3 0.887167 0.112396 0.219838
Si Si4 0.129742 0.548423 0.710895
Si Si5 0.681635 0.698565 0.780515
Si Si6 0.773369 0.048942 0.216999
Si Si7 0.069304 0.635038 0.283918
O O1 0.665372 0.252828 0.279841
O O2 0.746734 0.189562 0.279408
O O3 0.622359 0.170604 0.251813
O O4 0.682818 0.206779 0.000000
O O5 0.445361 0.598821 0.340561
O O6 0.866217 0.161149 0.269627
O O7 0.827651 0.082060 0.264640
O O8 0.897749 0.109972 0.000000
O O9 0.113104 0.545307 0.500000
O O10 0.121882 0.500000 0.788426
O O11 0.203398 0.559920 0.720720
O O12 0.090945 0.588295 0.788535
O O13 0.681994 0.698221 0.000000
O O14 0.787437 0.000000 0.278505
O O15 0.770431 0.048599 0.000000
O O16 0.065832 0.631055 0.500000
O O17 0.000000 0.646969 0.217658
#
# Coordination Sequence:
#
# PCOD9491204 Si02
#       7
#    16   4  16  16  16  16  16
#     4   9  17  34  58  82 103 134 185 231 279 341
#     4  12  26  40  57  86 112 152 202 226 269 360
#     4  10  21  40  59  81 117 153 187 237 288 339
#     4   9  18  32  53  79 106 141 186 232 272 324
#     4   8  16  34  60  82 104 137 179 232 288 333
#     4   9  18  34  59  87 111 138 176 229 291 339
#     4  10  21  35  47  71 113 151 182 221 274 329
#
# _framework density 20.430733
#
# number of rings (size 3 to 8) (size 9 to 14) (size 15 to 20)
#    0.000    2.720    0.000    2.160    1.120    2.560 
#    4.320    3.200    0.000    1.920    0.000    3.360 
#    0.000    0.000    0.000    0.000    0.000    0.000 
#
# Total GULP energy -278391.953120 kJ/mol
# GULP energy per Si atom -5567.839062 kJ/mol
# Density = 2.038423 g / cm^3
# Si number density = 20.430733 Si / 1000 Ang^3
#
#
#
# Elastic Constant Matrix: (Units=GPa)
#
#
# Indices 1 2 3 4 5 6 
#
# 1 72.0189 49.0806 1.5952 0.0000 0.0000 0.0000
# 2 49.0806 74.6187 3.7787 0.0000 0.0000 0.0000
# 3 1.5952 3.7787 75.7768 0.0000 0.0000 0.0000
# 4 0.0000 0.0000 0.0000 11.3188 0.0000 0.0000
# 5 0.0000 0.0000 0.0000 0.0000 36.2686 0.0000
# 6 0.0000 0.0000 0.0000 0.0000 0.0000 -2.8194
#
#
#
# Elastic Compliance Matrix: (Units=1/GPa)
#
#
# Indices 1 2 3 4 5 6 
#
# 1 0.025173 -0.016572 0.000296 0.000000 0.000000 0.000000
# 2 -0.016572 0.024346 -0.000865 0.000000 0.000000 0.000000
# 3 0.000296 -0.000865 0.013234 0.000000 0.000000 0.000000
# 4 0.000000 0.000000 0.000000 0.088348 0.000000 0.000000
# 5 0.000000 0.000000 0.000000 0.000000 0.027572 0.000000
# 6 0.000000 0.000000 0.000000 0.000000 0.000000 -0.354691
#
#
# Mechanical properties :
#
#
# Convention : Reuss Voigt Hill
#
# Bulk Modulus (GPa) = 35.12483 36.81372 35.96927
# Shear Modulus (GPa) = -37.80822 20.15094 -8.82864
#
# Velocity S-wave (km/s) = -4.30648 3.14396 -2.08102
# Velocity P-wave (km/s) = 2.73828 5.58902 3.44522
#
# Compressibility (1/GPa) = 0.02846989
#
# Stress axis : x y z
#
# Youngs Moduli (GPa) = 39.72562 41.07488 75.56547
#
# Poissons Ratio (x) = 0.68071 -0.02240
# Poissons Ratio (y) = 0.65835 0.06538
# Poissons Ratio (z) = -0.01178 0.03554
#
# Static dielectric constant tensor:
#      x y z
#    x 1.692030 0.000000 0.000000 
#    y 0.000000 1.746070 0.000000 
#    z 0.000000 0.000000 1.790870 
# 
# From -- ./inp_files/12796.got.cif
#   From: 2010.05.17/outbox.cif.g08.bks.cpg/sg65_7_cif.got.tgz:12796.got - 2010.06.03 17:01:31.
