data_PCOD9491440
_publ_section_title
;
Structure prediction by ZEFSAII (Michael W. Deem and Ramdas Pophale) SiO2 
 PCOD9491440
Probable space group: C M M M
;
_chemical_formula_sum "Si O2"
_cell_formula_units_Z 92
_cell_length_a 25.714186
_cell_length_b 7.665685
_cell_length_c 24.760054
_cell_angle_alpha 90.000000
_cell_angle_beta 90.000000
_cell_angle_gamma 90.000000
_cell_volume 4880.623848
_symmetry_space_group_name_H-M "C M M M"
_symmetry_group_IT_number 65
_symmetry_cell_setting 'orthorhombic'
loop_
_space_group_symop_operation_xyz
x,y,z
-x,-y,z
x,-y,-z
-x,y,-z
-x,-y,-z
x,y,-z
-x,y,z
x,-y,z
1/2+x,1/2+y,z
1/2-x,1/2-y,z
1/2+x,1/2-y,-z
1/2-x,1/2+y,-z
1/2-x,1/2-y,-z
1/2+x,1/2+y,-z
1/2-x,1/2+y,z
1/2+x,1/2-y,z
loop_
_atom_site_type_symbol
_atom_site_label
_atom_site_fract_x
_atom_site_fract_y
_atom_site_fract_z
Si Si1 0.692595 0.702938 0.290084
Si Si2 0.329818 0.300994 0.415848
Si Si3 0.436321 0.500000 0.062357
Si Si4 0.083270 0.697310 0.259134
Si Si5 0.698679 0.000000 0.500000
Si Si6 0.058200 0.712166 0.379122
Si Si7 0.938265 0.698628 0.859046
O O1 0.682335 0.500000 0.280443
O O2 0.750000 0.750000 0.271653
O O3 0.688582 0.730888 0.354549
O O4 0.645450 0.805032 0.263635
O O5 0.316343 0.500000 0.431828
O O6 0.392928 0.282520 0.412789
O O7 0.306558 0.154149 0.453595
O O8 0.500000 0.500000 0.063238
O O9 0.418344 0.670255 0.095434
O O10 0.420468 0.500000 0.000000
O O11 0.062148 0.500000 0.257837
O O12 0.064432 0.772939 0.316547
O O13 0.069133 0.774644 0.201398
O O14 0.062917 0.500000 0.379332
O O15 0.000000 0.756780 0.398057
O O16 0.916928 0.500000 0.861182
O O17 0.000000 0.685476 0.867155
#
# Coordination Sequence:
#
# PCOD9491440 Si02
#       7
#    16  16   8  16   4  16  16
#     4  10  21  35  56  77 102 131 159 197 249 313
#     4  10  22  38  56  78  97 126 164 199 246 296
#     4   9  18  30  44  65 100 145 187 223 252 285
#     4   9  17  29  49  76 103 135 164 203 250 297
#     4  12  22  40  63  70  98 132 152 214 249 282
#     4   9  16  30  52  76 102 132 165 196 241 298
#     4   9  17  29  46  71 105 142 178 215 252 291
#
# _framework density 18.85005
#
# number of rings (size 3 to 8) (size 9 to 14) (size 15 to 20)
#    0.000    2.522    0.870    1.304    3.652    2.783 
#    0.000    3.043    0.000    1.043    0.000    0.000 
#    0.000    0.696    0.348    0.000    0.000    0.000 
#
# Total GULP energy -256125.656757 kJ/mol
# GULP energy per Si atom -5567.949060 kJ/mol
# Density = 1.880715 g / cm^3
# Si number density = 18.850050 Si / 1000 Ang^3
#
#
#
# Elastic Constant Matrix: (Units=GPa)
#
#
# Indices 1 2 3 4 5 6 
#
# 1 74.4634 8.5648 -15.8574 0.0000 0.0000 0.0000
# 2 8.5648 101.4242 52.8159 0.0000 0.0000 0.0000
# 3 -15.8574 52.8159 50.2304 0.0000 0.0000 0.0000
# 4 0.0000 0.0000 0.0000 26.2187 0.0000 0.0000
# 5 0.0000 0.0000 0.0000 0.0000 1.0465 0.0000
# 6 0.0000 0.0000 0.0000 0.0000 0.0000 15.9388
#
#
#
# Elastic Compliance Matrix: (Units=1/GPa)
#
#
# Indices 1 2 3 4 5 6 
#
# 1 0.017993 -0.009896 0.016086 0.000000 0.000000 0.000000
# 2 -0.009896 0.027234 -0.031760 0.000000 0.000000 0.000000
# 3 0.016086 -0.031760 0.058381 0.000000 0.000000 0.000000
# 4 0.000000 0.000000 0.000000 0.038141 0.000000 0.000000
# 5 0.000000 0.000000 0.000000 0.000000 0.955536 0.000000
# 6 0.000000 0.000000 0.000000 0.000000 0.000000 0.062740
#
#
# Mechanical properties :
#
#
# Convention : Reuss Voigt Hill
#
# Bulk Modulus (GPa) = 19.05932 35.24052 27.14992
# Shear Modulus (GPa) = 4.06949 20.68046 12.37498
#
# Velocity S-wave (km/s) = 1.47091 3.31585 2.56500
# Velocity P-wave (km/s) = 3.60801 5.77889 4.81733
#
# Compressibility (1/GPa) = 0.05246778
#
# Stress axis : x y z
#
# Youngs Moduli (GPa) = 55.57675 36.71892 17.12888
#
# Poissons Ratio (x) = 0.36337 -0.27553
# Poissons Ratio (y) = 0.54998 0.54401
# Poissons Ratio (z) = -0.89398 1.16619
#
# Static dielectric constant tensor:
#      x y z
#    x 1.679280 0.000000 0.000000 
#    y 0.000000 1.713440 0.000000 
#    z 0.000000 0.000000 1.636830 
# 
# From -- ./inp_files/65808.got.cif
#   From: 2010.05.17/outbox.cif.g08.bks.cpg/sg65_33_cif.got.tgz:65808.got - 2010.06.03 17:01:31.
