data_PCOD9491349
_publ_section_title
;
Structure prediction by ZEFSAII (Michael W. Deem and Ramdas Pophale) SiO2 
 PCOD9491349
Probable space group: C M M M
;
_chemical_formula_sum "Si O2"
_cell_formula_units_Z 58
_cell_length_a 25.043109
_cell_length_b 9.068017
_cell_length_c 14.411955
_cell_angle_alpha 90.000000
_cell_angle_beta 90.000000
_cell_angle_gamma 90.000000
_cell_volume 3272.830146
_symmetry_space_group_name_H-M "C M M M"
_symmetry_group_IT_number 65
_symmetry_cell_setting 'orthorhombic'
loop_
_space_group_symop_operation_xyz
x,y,z
-x,-y,z
x,-y,-z
-x,y,-z
-x,-y,-z
x,y,-z
-x,y,z
x,-y,z
1/2+x,1/2+y,z
1/2-x,1/2-y,z
1/2+x,1/2-y,-z
1/2-x,1/2+y,-z
1/2-x,1/2-y,-z
1/2+x,1/2+y,-z
1/2-x,1/2+y,z
1/2+x,1/2-y,z
loop_
_atom_site_type_symbol
_atom_site_label
_atom_site_fract_x
_atom_site_fract_y
_atom_site_fract_z
Si Si1 0.806179 0.676773 0.392387
Si Si2 0.804681 0.169669 0.888523
Si Si3 0.500000 0.336636 0.195347
Si Si4 0.500000 0.500000 0.000000
Si Si5 0.110232 0.676664 0.234364
O O1 0.816277 0.716363 0.500000
O O2 0.799875 0.500000 0.386741
O O3 0.750000 0.750000 0.364471
O O4 0.855267 0.717402 0.325856
O O5 0.750000 0.250000 0.860842
O O6 0.854012 0.259783 0.848975
O O7 0.805679 0.000000 0.856072
O O8 0.806797 0.167987 0.000000
O O9 0.500000 0.500000 0.239259
O O10 0.500000 0.373301 0.084374
O O11 0.552615 0.249896 0.225996
O O12 0.106287 0.500000 0.230099
#
# Coordination Sequence:
#
# PCOD9491349 Si02
#       5
#    16  16   8   2  16
#     4   9  19  36  58  85 117 150 185 226 278 338
#     4  10  21  35  52  76 109 145 181 223 278 337
#     4  10  23  41  60  78 108 145 194 232 281 334
#     4   8  24  44  62  76 106 152 202 232 288 334
#     4  11  22  36  57  83 111 143 187 234 283 335
#
# _framework density 17.721665000000002
#
# number of rings (size 3 to 8) (size 9 to 14) (size 15 to 20)
#    0.414    1.655    0.000    2.897    1.931    6.069 
#    0.000    1.379    0.000    4.138    0.000    0.000 
#    0.000    0.000    0.000    0.000    0.000    0.000 
#
# Total GULP energy -161526.297168 kJ/mol
# GULP energy per Si atom -5569.872316 kJ/mol
# Density = 1.768133 g / cm^3
# Si number density = 17.721665 Si / 1000 Ang^3
#
#
#
# Elastic Constant Matrix: (Units=GPa)
#
#
# Indices 1 2 3 4 5 6 
#
# 1 189.5021 81.6582 57.1457 0.0000 0.0000 0.0000
# 2 81.6582 101.2305 42.9839 0.0000 0.0000 0.0000
# 3 57.1457 42.9839 79.6852 0.0000 0.0000 0.0000
# 4 0.0000 0.0000 0.0000 10.4815 0.0000 0.0000
# 5 0.0000 0.0000 0.0000 0.0000 16.5029 0.0000
# 6 0.0000 0.0000 0.0000 0.0000 0.0000 34.5686
#
#
#
# Elastic Compliance Matrix: (Units=1/GPa)
#
#
# Indices 1 2 3 4 5 6 
#
# 1 0.008665 -0.005644 -0.003170 0.000000 0.000000 0.000000
# 2 -0.005644 0.016489 -0.004847 0.000000 0.000000 0.000000
# 3 -0.003170 -0.004847 0.017437 0.000000 0.000000 0.000000
# 4 0.000000 0.000000 0.000000 0.095406 0.000000 0.000000
# 5 0.000000 0.000000 0.000000 0.000000 0.060595 0.000000
# 6 0.000000 0.000000 0.000000 0.000000 0.000000 0.028928
#
#
# Mechanical properties :
#
#
# Convention : Reuss Voigt Hill
#
# Bulk Modulus (GPa) = 65.48770 81.55481 73.52126
# Shear Modulus (GPa) = 19.23584 24.88592 22.06088
#
# Velocity S-wave (km/s) = 3.29818 3.75142 3.53208
# Velocity P-wave (km/s) = 7.17897 8.05506 7.62960
#
# Compressibility (1/GPa) = 0.01527004
#
# Stress axis : x y z
#
# Youngs Moduli (GPa) = 115.41155 60.64608 57.34881
#
# Poissons Ratio (x) = 0.34226 0.18177
# Poissons Ratio (y) = 0.65133 0.27799
# Poissons Ratio (z) = 0.36580 0.29397
#
# Static dielectric constant tensor:
#      x y z
#    x 1.607120 0.000000 0.000000 
#    y 0.000000 1.594980 0.000000 
#    z 0.000000 0.000000 1.624860 
# 
# From -- ./inp_files/45014.got.cif
#   From: 2010.05.17/outbox.cif.g08.bks.cpg/sg65_23_cif.got.tgz:45014.got - 2010.06.03 17:01:31.
