data_PCOD9491400
_publ_section_title
;
Structure prediction by ZEFSAII (Michael W. Deem and Ramdas Pophale) SiO2 
 PCOD9491400
Probable space group: C M M M
;
_chemical_formula_sum "Si O2"
_cell_formula_units_Z 80
_cell_length_a 8.706189
_cell_length_b 18.968018
_cell_length_c 26.586267
_cell_angle_alpha 90.000000
_cell_angle_beta 90.000000
_cell_angle_gamma 90.000000
_cell_volume 4390.433525
_symmetry_space_group_name_H-M "C M M M"
_symmetry_group_IT_number 65
_symmetry_cell_setting 'orthorhombic'
loop_
_space_group_symop_operation_xyz
x,y,z
-x,-y,z
x,-y,-z
-x,y,-z
-x,-y,-z
x,y,-z
-x,y,z
x,-y,z
1/2+x,1/2+y,z
1/2-x,1/2-y,z
1/2+x,1/2-y,-z
1/2-x,1/2+y,-z
1/2-x,1/2-y,-z
1/2+x,1/2+y,-z
1/2-x,1/2+y,z
1/2+x,1/2-y,z
loop_
_atom_site_type_symbol
_atom_site_label
_atom_site_fract_x
_atom_site_fract_y
_atom_site_fract_z
Si Si1 0.313523 0.417147 0.389766
Si Si2 0.685728 0.171637 0.000000
Si Si3 0.678217 0.414367 0.500000
Si Si4 0.182853 0.328464 0.702632
Si Si5 0.183326 0.082819 0.794207
Si Si6 0.815320 0.417602 0.097164
O O1 0.500000 0.412673 0.389229
O O2 0.275251 0.500000 0.382621
O O3 0.257065 0.394010 0.445553
O O4 0.245585 0.370569 0.345651
O O5 0.750000 0.250000 0.000000
O O6 0.733687 0.129587 0.949899
O O7 0.500000 0.173349 0.000000
O O8 0.677610 0.500000 0.500000
O O9 0.500000 0.391757 0.500000
O O10 0.250000 0.250000 0.703122
O O11 0.237260 0.370163 0.752137
O O12 0.000000 0.325619 0.701030
O O13 0.237234 0.102444 0.850289
O O14 0.000000 0.089684 0.789966
O O15 0.223012 0.000000 0.786809
O O16 0.780518 0.500000 0.087121
O O17 0.000000 0.411761 0.102767
#
# Coordination Sequence:
#
# PCOD9491400 Si02
#       6
#    16   8   8  16  16  16
#     4   9  17  33  58  85 112 142 178 220 266 319
#     4  10  21  35  53  79 111 146 180 218 266 318
#     4   7  12  26  52  83 110 139 175 215 262 315
#     4  12  25  39  55  77 108 145 184 225 272 324
#     4  10  21  38  60  85 111 140 177 222 272 325
#     4   9  18  35  58  81 106 140 183 225 263 309
#
# _framework density 18.221437000000002
#
# number of rings (size 3 to 8) (size 9 to 14) (size 15 to 20)
#    0.000    2.300    0.000    4.500    0.000    6.800 
#    0.000    3.000    0.000    4.800    0.000    0.000 
#    0.000    0.000    0.000    0.000    0.000    0.000 
#
# Total GULP energy -223246.560332 kJ/mol
# GULP energy per Si atom -5581.164008 kJ/mol
# Density = 1.817996 g / cm^3
# Si number density = 18.221437 Si / 1000 Ang^3
#
#
#
# Elastic Constant Matrix: (Units=GPa)
#
#
# Indices 1 2 3 4 5 6 
#
# 1 51.6996 50.6221 62.6752 0.0000 0.0000 0.0000
# 2 50.6221 105.6984 114.4381 0.0000 0.0000 0.0000
# 3 62.6752 114.4381 200.2741 0.0000 0.0000 0.0000
# 4 0.0000 0.0000 0.0000 -11.1813 0.0000 0.0000
# 5 0.0000 0.0000 0.0000 0.0000 27.4301 0.0000
# 6 0.0000 0.0000 0.0000 0.0000 0.0000 27.5450
#
#
#
# Elastic Compliance Matrix: (Units=1/GPa)
#
#
# Indices 1 2 3 4 5 6 
#
# 1 0.037531 -0.013789 -0.003866 0.000000 0.000000 0.000000
# 2 -0.013789 0.029875 -0.012756 0.000000 0.000000 0.000000
# 3 -0.003866 -0.012756 0.013492 0.000000 0.000000 0.000000
# 4 0.000000 0.000000 0.000000 -0.089435 0.000000 0.000000
# 5 0.000000 0.000000 0.000000 0.000000 0.036456 0.000000
# 6 0.000000 0.000000 0.000000 0.000000 0.000000 0.036304
#
#
# Mechanical properties :
#
#
# Convention : Reuss Voigt Hill
#
# Bulk Modulus (GPa) = 49.80964 90.34921 70.07943
# Shear Modulus (GPa) = 37.95446 17.42121 27.68783
#
# Velocity S-wave (km/s) = 4.56889 3.09541 3.90233
# Velocity P-wave (km/s) = 7.43156 7.90361 7.67122
#
# Compressibility (1/GPa) = 0.02007644
#
# Stress axis : x y z
#
# Youngs Moduli (GPa) = 26.64477 33.47258 74.11921
#
# Poissons Ratio (x) = 0.46155 0.28656
# Poissons Ratio (y) = 0.36740 0.94545
# Poissons Ratio (z) = 0.10301 0.42697
#
# Static dielectric constant tensor:
#      x y z
#    x 1.617510 0.000000 0.000000 
#    y 0.000000 1.594460 0.000000 
#    z 0.000000 0.000000 1.626530 
# 
# From -- ./inp_files/72939.got.cif
#   From: 2010.05.17/outbox.cif.g08.bks.cpg/sg65_37_cif.got.tgz:72939.got - 2010.06.03 17:01:31.
