data_PCOD9491468
_publ_section_title
;
Structure prediction by ZEFSAII (Michael W. Deem and Ramdas Pophale) SiO2 
 PCOD9491468
Probable space group: C M M M
;
_chemical_formula_sum "Si O2"
_cell_formula_units_Z 88
_cell_length_a 29.159993
_cell_length_b 8.685918
_cell_length_c 21.811053
_cell_angle_alpha 90.000000
_cell_angle_beta 90.000000
_cell_angle_gamma 90.000000
_cell_volume 5524.332034
_symmetry_space_group_name_H-M "C M M M"
_symmetry_group_IT_number 65
_symmetry_cell_setting 'orthorhombic'
loop_
_space_group_symop_operation_xyz
x,y,z
-x,-y,z
x,-y,-z
-x,y,-z
-x,-y,-z
x,y,-z
-x,y,z
x,-y,z
1/2+x,1/2+y,z
1/2-x,1/2-y,z
1/2+x,1/2-y,-z
1/2-x,1/2+y,-z
1/2-x,1/2-y,-z
1/2+x,1/2+y,-z
1/2-x,1/2+y,z
1/2+x,1/2-y,z
loop_
_atom_site_type_symbol
_atom_site_label
_atom_site_fract_x
_atom_site_fract_y
_atom_site_fract_z
Si Si1 0.801491 0.184915 0.930796
Si Si2 0.944351 0.675107 0.000000
Si Si3 0.198413 0.313799 0.700271
Si Si4 0.946960 0.183787 0.869538
Si Si5 0.859419 0.315598 0.818018
Si Si6 0.198190 0.685905 0.434112
O O1 0.750000 0.250000 0.923985
O O2 0.832512 0.251955 0.877090
O O3 0.800520 0.000000 0.926385
O O4 0.817340 0.226164 0.000000
O O5 0.932189 0.761235 0.937537
O O6 0.927032 0.500000 0.000000
O O7 0.000000 0.669765 0.000000
O O8 0.201036 0.500000 0.701823
O O9 0.250000 0.250000 0.707228
O O10 0.166758 0.263745 0.756560
O O11 0.179633 0.267318 0.632741
O O12 0.911269 0.256243 0.822573
O O13 0.000000 0.231086 0.860081
O O14 0.944715 0.000000 0.867346
O O15 0.859021 0.500000 0.820084
O O16 0.177119 0.734204 0.500000
O O17 0.199633 0.500000 0.434200
O O18 0.250000 0.750000 0.434355
#
# Coordination Sequence:
#
# PCOD9491468 Si02
#       6
#    16   8  16  16  16  16
#     4  10  21  36  51  66  87 116 153 195 233 269
#     4   9  17  31  51  71  88 107 134 173 225 279
#     4   9  18  30  44  66  94 124 156 188 222 261
#     4  10  21  36  52  69  90 115 146 187 234 283
#     4  11  22  33  48  68  92 121 153 189 230 279
#     4   8  13  23  40  61  87 119 152 183 216 256
#
# _framework density 15.929529
#
# number of rings (size 3 to 8) (size 9 to 14) (size 15 to 20)
#    0.000    2.455    0.000    2.455    1.273    6.182 
#    0.000    0.000    0.000    0.000    0.000    0.000 
#    0.000    0.727    0.000    9.091    0.000    1.455 
#
# Total GULP energy -245241.896991 kJ/mol
# GULP energy per Si atom -5573.679477 kJ/mol
# Density = 1.589327 g / cm^3
# Si number density = 15.929529 Si / 1000 Ang^3
#
#
#
# Elastic Constant Matrix: (Units=GPa)
#
#
# Indices 1 2 3 4 5 6 
#
# 1 68.9238 19.0204 69.2003 0.0000 0.0000 0.0000
# 2 19.0204 30.7868 31.9254 0.0000 0.0000 0.0000
# 3 69.2003 31.9254 151.4434 0.0000 0.0000 0.0000
# 4 0.0000 0.0000 0.0000 13.7694 0.0000 0.0000
# 5 0.0000 0.0000 0.0000 0.0000 14.0474 0.0000
# 6 0.0000 0.0000 0.0000 0.0000 0.0000 21.5117
#
#
#
# Elastic Compliance Matrix: (Units=1/GPa)
#
#
# Indices 1 2 3 4 5 6 
#
# 1 0.027407 -0.005050 -0.011459 0.000000 0.000000 0.000000
# 2 -0.005050 0.042499 -0.006652 0.000000 0.000000 0.000000
# 3 -0.011459 -0.006652 0.013241 0.000000 0.000000 0.000000
# 4 0.000000 0.000000 0.000000 0.072625 0.000000 0.000000
# 5 0.000000 0.000000 0.000000 0.000000 0.071187 0.000000
# 6 0.000000 0.000000 0.000000 0.000000 0.000000 0.046486
#
#
# Mechanical properties :
#
#
# Convention : Reuss Voigt Hill
#
# Bulk Modulus (GPa) = 27.15413 54.60512 40.87963
# Shear Modulus (GPa) = 15.05833 18.59957 16.82895
#
# Velocity S-wave (km/s) = 3.07792 3.42075 3.25385
# Velocity P-wave (km/s) = 5.45114 7.06793 6.31152
#
# Compressibility (1/GPa) = 0.03682681
#
# Stress axis : x y z
#
# Youngs Moduli (GPa) = 36.48685 23.52999 75.52125
#
# Poissons Ratio (x) = 0.11882 0.86538
# Poissons Ratio (y) = 0.18425 0.50234
# Poissons Ratio (z) = 0.41810 0.15651
#
# Static dielectric constant tensor:
#      x y z
#    x 1.526190 0.000000 0.000000 
#    y 0.000000 1.537060 0.000000 
#    z 0.000000 0.000000 1.572190 
# 
# From -- ./inp_files/60635.got.cif
#   From: 2010.05.17/outbox.cif.g08.bks.cpg/sg65_31_cif.got.tgz:60635.got - 2010.06.03 17:01:31.
