data_PCOD9491118
_publ_section_title
;
Structure prediction by ZEFSAII (Michael W. Deem and Ramdas Pophale) SiO2 
 PCOD9491118
Probable space group: C M M M
;
_chemical_formula_sum "Si O2"
_cell_formula_units_Z 112
_cell_length_a 19.900824
_cell_length_b 26.200609
_cell_length_c 13.335746
_cell_angle_alpha 90.000000
_cell_angle_beta 90.000000
_cell_angle_gamma 90.000000
_cell_volume 6953.440776
_symmetry_space_group_name_H-M "C M M M"
_symmetry_group_IT_number 65
_symmetry_cell_setting 'orthorhombic'
loop_
_space_group_symop_operation_xyz
x,y,z
-x,-y,z
x,-y,-z
-x,y,-z
-x,-y,-z
x,y,-z
-x,y,z
x,-y,z
1/2+x,1/2+y,z
1/2-x,1/2-y,z
1/2+x,1/2-y,-z
1/2-x,1/2+y,-z
1/2-x,1/2-y,-z
1/2+x,1/2+y,-z
1/2-x,1/2+y,z
1/2+x,1/2-y,z
loop_
_atom_site_type_symbol
_atom_site_label
_atom_site_fract_x
_atom_site_fract_y
_atom_site_fract_z
Si Si1 0.296314 0.060841 0.117789
Si Si2 0.817926 0.116250 0.245595
Si Si3 0.579137 0.866331 0.116539
Si Si4 0.314989 0.285588 0.614484
Si Si5 0.074335 0.829084 0.117296
Si Si6 0.076816 0.270165 0.254531
Si Si7 0.424565 0.438726 0.616043
O O1 0.244529 0.087828 0.194188
O O2 0.369388 0.087073 0.130008
O O3 0.298465 0.000000 0.134662
O O4 0.276724 0.069010 0.000000
O O5 0.801888 0.165773 0.314027
O O6 0.866722 0.136035 0.157988
O O7 0.865119 0.081348 0.315205
O O8 0.500000 0.879371 0.129500
O O9 0.596368 0.821693 0.195654
O O10 0.586421 0.848549 0.000000
O O11 0.329607 0.301565 0.500000
O O12 0.250000 0.250000 0.614710
O O13 0.374850 0.250958 0.659398
O O14 0.077674 0.775000 0.172685
O O15 0.000000 0.851095 0.138386
O O16 0.080456 0.821168 0.000000
O O17 0.000000 0.276162 0.290196
O O18 0.414615 0.423373 0.500000
O O19 0.500000 0.420873 0.645835
O O20 0.425186 0.500000 0.619222
#
# Coordination Sequence:
#
# PCOD9491118 Si02
#       7
#    16  16  16  16  16  16  16
#     4  10  21  34  48  70  98 126 160 204 250 293
#     4  11  19  31  49  67  91 127 161 191 231 282
#     4   9  17  31  52  74  96 125 160 197 240 292
#     4  10  21  34  47  67  96 126 155 190 231 276
#     4   9  17  28  43  66  95 124 154 186 219 262
#     4   9  17  30  49  72  96 123 155 191 230 276
#     4   9  18  32  49  69  91 115 150 197 240 275
#
# _framework density 16.107133999999999
#
# number of rings (size 3 to 8) (size 9 to 14) (size 15 to 20)
#    0.000    2.429    0.000    3.429    0.000    2.857 
#    0.000    1.429    0.000    6.857    0.000    6.000 
#    0.000    0.000    0.000   18.143    0.000    0.714 
#
# Total GULP energy -311996.538978 kJ/mol
# GULP energy per Si atom -5571.366767 kJ/mol
# Density = 1.607047 g / cm^3
# Si number density = 16.107134 Si / 1000 Ang^3
#
#
#
# Elastic Constant Matrix: (Units=GPa)
#
#
# Indices 1 2 3 4 5 6 
#
# 1 86.0492 48.5042 50.5220 0.0000 0.0000 0.0000
# 2 48.5042 55.9968 24.7933 0.0000 0.0000 0.0000
# 3 50.5220 24.7933 76.8886 0.0000 0.0000 0.0000
# 4 0.0000 0.0000 0.0000 23.3342 0.0000 0.0000
# 5 0.0000 0.0000 0.0000 0.0000 24.4036 0.0000
# 6 0.0000 0.0000 0.0000 0.0000 0.0000 28.8101
#
#
#
# Elastic Compliance Matrix: (Units=1/GPa)
#
#
# Indices 1 2 3 4 5 6 
#
# 1 0.032016 -0.021485 -0.014109 0.000000 0.000000 0.000000
# 2 -0.021485 0.035250 0.002751 0.000000 0.000000 0.000000
# 3 -0.014109 0.002751 0.021390 0.000000 0.000000 0.000000
# 4 0.000000 0.000000 0.000000 0.042856 0.000000 0.000000
# 5 0.000000 0.000000 0.000000 0.000000 0.040978 0.000000
# 6 0.000000 0.000000 0.000000 0.000000 0.000000 0.034710
#
#
# Mechanical properties :
#
#
# Convention : Reuss Voigt Hill
#
# Bulk Modulus (GPa) = 43.53663 51.84153 47.68908
# Shear Modulus (GPa) = 17.82267 21.65059 19.73663
#
# Velocity S-wave (km/s) = 3.33003 3.67026 3.50428
# Velocity P-wave (km/s) = 6.47098 7.08635 6.78564
#
# Compressibility (1/GPa) = 0.02296917
#
# Stress axis : x y z
#
# Youngs Moduli (GPa) = 31.23481 28.36839 46.75182
#
# Poissons Ratio (x) = 0.60949 0.65961
# Poissons Ratio (y) = 0.67108 -0.12859
# Poissons Ratio (z) = 0.44069 -0.07803
#
# Static dielectric constant tensor:
#      x y z
#    x 1.547620 0.000000 0.000000 
#    y 0.000000 1.526820 0.000000 
#    z 0.000000 0.000000 1.534360 
# 
# From -- ./inp_files/29361.got.cif
#   From: 2010.05.17/outbox.cif.g08.bks.cpg/sg65_15_cif.got.tgz:29361.got - 2010.06.03 17:01:31.
