data_PCOD9491794
_publ_section_title
;
Structure prediction by ZEFSAII (Michael W. Deem and Ramdas Pophale) SiO2 
 PCOD9491794
Probable space group: C M M M
;
_chemical_formula_sum "Si O2"
_cell_formula_units_Z 80
_cell_length_a 13.303729
_cell_length_b 33.051411
_cell_length_c 10.597752
_cell_angle_alpha 90.000000
_cell_angle_beta 90.000000
_cell_angle_gamma 90.000000
_cell_volume 4659.905898
_symmetry_space_group_name_H-M "C M M M"
_symmetry_group_IT_number 65
_symmetry_cell_setting 'orthorhombic'
loop_
_space_group_symop_operation_xyz
x,y,z
-x,-y,z
x,-y,-z
-x,y,-z
-x,-y,-z
x,y,-z
-x,y,z
x,-y,z
1/2+x,1/2+y,z
1/2-x,1/2-y,z
1/2+x,1/2-y,-z
1/2-x,1/2+y,-z
1/2-x,1/2-y,-z
1/2+x,1/2+y,-z
1/2-x,1/2+y,z
1/2+x,1/2-y,z
loop_
_atom_site_type_symbol
_atom_site_label
_atom_site_fract_x
_atom_site_fract_y
_atom_site_fract_z
Si Si1 0.610591 0.365096 0.350882
Si Si2 0.384720 0.451907 0.000000
Si Si3 0.619531 0.846149 0.857721
Si Si4 0.236556 0.297799 0.350517
Si Si5 0.260592 0.075320 0.774961
Si Si6 0.379389 0.000000 0.347703
O O1 0.599892 0.364236 0.500000
O O2 0.500000 0.370853 0.293170
O O3 0.662030 0.322490 0.316605
O O4 0.688944 0.400343 0.320416
O O5 0.317352 0.439789 0.880403
O O6 0.393026 0.500000 0.000000
O O7 0.500000 0.435561 0.000000
O O8 0.500000 0.848782 0.853944
O O9 0.656936 0.816360 0.747199
O O10 0.666471 0.890357 0.831913
O O11 0.650232 0.833211 0.000000
O O12 0.213309 0.305817 0.500000
O O13 0.250000 0.250000 0.336381
O O14 0.324502 0.039278 0.712357
O O15 0.500000 0.000000 0.321334
O O16 0.367301 0.000000 0.500000
#
# Coordination Sequence:
#
# PCOD9491794 Si02
#       6
#    16   8  16  16  16   8
#     4   9  18  33  54  78 106 140 178 223 275 331
#     4  11  22  36  56  82 109 142 187 234 273 324
#     4  10  21  36  56  82 113 149 189 232 281 338
#     4   9  19  35  56  82 112 147 188 233 281 332
#     4  11  20  38  56  79 109 147 182 231 278 331
#     4  11  24  39  57  82 110 143 186 236 287 339
#
# _framework density 17.167729000000001
#
# number of rings (size 3 to 8) (size 9 to 14) (size 15 to 20)
#    0.000    2.000    2.000    1.800    0.000    2.400 
#    0.000    2.500    0.000    2.400    0.000    0.000 
#    0.000    0.000    0.000    0.000    0.000    0.000 
#
# Total GULP energy -222806.390593 kJ/mol
# GULP energy per Si atom -5570.159765 kJ/mol
# Density = 1.712865 g / cm^3
# Si number density = 17.167729 Si / 1000 Ang^3
#
#
#
# Elastic Constant Matrix: (Units=GPa)
#
#
# Indices 1 2 3 4 5 6 
#
# 1 137.0342 63.8517 62.9912 0.0000 0.0000 0.0000
# 2 63.8517 117.2435 48.2900 0.0000 0.0000 0.0000
# 3 62.9912 48.2900 80.4585 0.0000 0.0000 0.0000
# 4 0.0000 0.0000 0.0000 24.9528 0.0000 0.0000
# 5 0.0000 0.0000 0.0000 0.0000 26.5915 0.0000
# 6 0.0000 0.0000 0.0000 0.0000 0.0000 10.8872
#
#
#
# Elastic Compliance Matrix: (Units=1/GPa)
#
#
# Indices 1 2 3 4 5 6 
#
# 1 0.012495 -0.003687 -0.007569 0.000000 0.000000 0.000000
# 2 -0.003687 0.012418 -0.004566 0.000000 0.000000 0.000000
# 3 -0.007569 -0.004566 0.021096 0.000000 0.000000 0.000000
# 4 0.000000 0.000000 0.000000 0.040076 0.000000 0.000000
# 5 0.000000 0.000000 0.000000 0.000000 0.037606 0.000000
# 6 0.000000 0.000000 0.000000 0.000000 0.000000 0.091851
#
#
# Mechanical properties :
#
#
# Convention : Reuss Voigt Hill
#
# Bulk Modulus (GPa) = 69.62502 76.11130 72.86816
# Shear Modulus (GPa) = 19.84327 23.12654 21.48490
#
# Velocity S-wave (km/s) = 3.40346 3.67426 3.54145
# Velocity P-wave (km/s) = 7.48923 7.90129 7.69802
#
# Compressibility (1/GPa) = 0.01436265
#
# Stress axis : x y z
#
# Youngs Moduli (GPa) = 80.03237 80.52716 47.40338
#
# Poissons Ratio (x) = 0.29692 0.35881
# Poissons Ratio (y) = 0.29510 0.21647
# Poissons Ratio (z) = 0.60579 0.36773
#
# Static dielectric constant tensor:
#      x y z
#    x 1.605690 0.000000 0.000000 
#    y 0.000000 1.560650 0.000000 
#    z 0.000000 0.000000 1.604560 
# 
# From -- ./inp_files/22905.got.cif
#   From: 2010.05.17/outbox.cif.g08.bks.cpg/sg65_12_cif.got.tgz:22905.got - 2010.06.03 17:01:31.
