data_PCOD9491910
_publ_section_title
;
Structure prediction by ZEFSAII (Michael W. Deem and Ramdas Pophale) SiO2 
 PCOD9491910
Probable space group: C M M M
;
_chemical_formula_sum "Si O2"
_cell_formula_units_Z 72
_cell_length_a 26.346277
_cell_length_b 8.400877
_cell_length_c 20.622335
_cell_angle_alpha 90.000000
_cell_angle_beta 90.000000
_cell_angle_gamma 90.000000
_cell_volume 4564.379196
_symmetry_space_group_name_H-M "C M M M"
_symmetry_group_IT_number 65
_symmetry_cell_setting 'orthorhombic'
loop_
_space_group_symop_operation_xyz
x,y,z
-x,-y,z
x,-y,-z
-x,y,-z
-x,-y,-z
x,y,-z
-x,y,z
x,-y,z
1/2+x,1/2+y,z
1/2-x,1/2-y,z
1/2+x,1/2-y,-z
1/2-x,1/2+y,-z
1/2-x,1/2-y,-z
1/2+x,1/2+y,-z
1/2-x,1/2+y,z
1/2+x,1/2-y,z
loop_
_atom_site_type_symbol
_atom_site_label
_atom_site_fract_x
_atom_site_fract_y
_atom_site_fract_z
Si Si1 0.000000 0.694301 0.925256
Si Si2 0.598954 0.190358 0.154841
Si Si3 0.440864 0.692667 0.288759
Si Si4 0.306086 0.690455 0.074351
Si Si5 0.438616 0.310541 0.430264
O O1 0.949598 0.747156 0.887368
O O2 0.000000 0.500000 0.925256
O O3 0.000000 0.746346 0.000000
O O4 0.591041 0.248926 0.227998
O O5 0.650259 0.248482 0.121438
O O6 0.598274 0.000000 0.154414
O O7 0.500000 0.742470 0.280023
O O8 0.440633 0.500000 0.289996
O O9 0.422206 0.750868 0.359711
O O10 0.306124 0.500000 0.074626
O O11 0.250000 0.750000 0.092391
O O12 0.316049 0.745415 0.000000
O O13 0.420952 0.243536 0.500000
O O14 0.500000 0.296949 0.429476
O O15 0.427570 0.500000 0.431193
#
# Coordination Sequence:
#
# PCOD9491910 Si02
#       5
#     8  16  16  16  16
#     4   9  18  30  43  61  86 119 156 188 221 265
#     4  11  20  31  47  67  94 126 157 190 228 276
#     4   9  16  26  41  62  91 123 155 193 232 271
#     4  10  21  37  55  73  91 114 148 192 239 282
#     4   7  10  18  34  56  81 113 153 191 225 263
#
# _framework density 15.774324
#
# number of rings (size 3 to 8) (size 9 to 14) (size 15 to 20)
#    0.000    2.778    1.111    4.000    0.000    2.222 
#    0.000    0.000    0.000    3.333    0.000    3.111 
#    0.000    0.889    0.000    2.444    0.000    3.556 
#
# Total GULP energy -200498.526134 kJ/mol
# GULP energy per Si atom -5569.403504 kJ/mol
# Density = 1.573842 g / cm^3
# Si number density = 15.774324 Si / 1000 Ang^3
#
#
#
# Elastic Constant Matrix: (Units=GPa)
#
#
# Indices 1 2 3 4 5 6 
#
# 1 86.0079 17.7444 81.1021 0.0000 0.0000 0.0000
# 2 17.7444 18.3317 23.7910 0.0000 0.0000 0.0000
# 3 81.1021 23.7910 181.9922 0.0000 0.0000 0.0000
# 4 0.0000 0.0000 0.0000 12.3375 0.0000 0.0000
# 5 0.0000 0.0000 0.0000 0.0000 11.0518 0.0000
# 6 0.0000 0.0000 0.0000 0.0000 0.0000 12.3139
#
#
#
# Elastic Compliance Matrix: (Units=1/GPa)
#
#
# Indices 1 2 3 4 5 6 
#
# 1 0.021499 -0.010088 -0.008262 0.000000 0.000000 0.000000
# 2 -0.010088 0.070429 -0.004712 0.000000 0.000000 0.000000
# 3 -0.008262 -0.004712 0.009792 0.000000 0.000000 0.000000
# 4 0.000000 0.000000 0.000000 0.081054 0.000000 0.000000
# 5 0.000000 0.000000 0.000000 0.000000 0.090483 0.000000
# 6 0.000000 0.000000 0.000000 0.000000 0.000000 0.081209
#
#
# Mechanical properties :
#
#
# Convention : Reuss Voigt Hill
#
# Bulk Modulus (GPa) = 17.98610 59.06742 38.52676
# Shear Modulus (GPa) = 11.92973 18.05359 14.99166
#
# Velocity S-wave (km/s) = 2.75303 3.38670 3.08617
# Velocity P-wave (km/s) = 4.64031 7.26771 6.09721
#
# Compressibility (1/GPa) = 0.05559851
#
# Stress axis : x y z
#
# Youngs Moduli (GPa) = 46.51466 14.19863 102.11979
#
# Poissons Ratio (x) = 0.14323 0.84370
# Poissons Ratio (y) = 0.46922 0.48114
# Poissons Ratio (z) = 0.38430 0.06690
#
# Static dielectric constant tensor:
#      x y z
#    x 1.488490 0.000000 0.000000 
#    y 0.000000 1.538940 0.000000 
#    z 0.000000 0.000000 1.572180 
# 
# From -- ./inp_files/59211.got.cif
#   From: 2010.05.17/outbox.cif.g08.bks.cpg/sg65_30_cif.got.tgz:59211.got - 2010.06.03 17:01:31.
