data_PCOD9491697
_publ_section_title
;
Structure prediction by ZEFSAII (Michael W. Deem and Ramdas Pophale) SiO2 
 PCOD9491697
Probable space group: C M M M
;
_chemical_formula_sum "Si O2"
_cell_formula_units_Z 90
_cell_length_a 25.326492
_cell_length_b 21.543795
_cell_length_c 8.485345
_cell_angle_alpha 90.000000
_cell_angle_beta 90.000000
_cell_angle_gamma 90.000000
_cell_volume 4629.848200
_symmetry_space_group_name_H-M "C M M M"
_symmetry_group_IT_number 65
_symmetry_cell_setting 'orthorhombic'
loop_
_space_group_symop_operation_xyz
x,y,z
-x,-y,z
x,-y,-z
-x,y,-z
-x,-y,-z
x,y,-z
-x,y,z
x,-y,z
1/2+x,1/2+y,z
1/2-x,1/2-y,z
1/2+x,1/2-y,-z
1/2-x,1/2+y,-z
1/2-x,1/2-y,-z
1/2+x,1/2+y,-z
1/2-x,1/2+y,z
1/2+x,1/2-y,z
loop_
_atom_site_type_symbol
_atom_site_label
_atom_site_fract_x
_atom_site_fract_y
_atom_site_fract_z
Si Si1 0.892223 0.186790 0.816992
Si Si2 0.224573 0.815033 0.689399
Si Si3 0.704065 0.069309 0.689087
Si Si4 0.500000 0.371066 0.176049
Si Si5 0.913957 0.431209 0.813879
Si Si6 0.560526 0.801815 0.321722
Si Si7 0.000000 0.000000 0.000000
O O1 0.836064 0.176053 0.737299
O O2 0.905631 0.259324 0.793319
O O3 0.944098 0.150495 0.751299
O O4 0.886950 0.170124 0.000000
O O5 0.226881 0.813127 0.500000
O O6 0.250000 0.750000 0.747939
O O7 0.258850 0.874425 0.740305
O O8 0.694060 0.075255 0.500000
O O9 0.648486 0.072125 0.778118
O O10 0.726791 0.000000 0.714566
O O11 0.500000 0.339273 0.000000
O O12 0.500000 0.443965 0.135055
O O13 0.931895 0.500000 0.763503
O O14 0.938100 0.373562 0.723211
O O15 0.923959 0.425132 0.000000
O O16 0.580532 0.793384 0.500000
O O17 0.500000 0.780627 0.314217
#
# Coordination Sequence:
#
# PCOD9491697 Si02
#       7
#    16  16  16   8  16  16   2
#     4  11  21  37  59  87 115 147 191 242 296 347
#     4  10  21  36  54  80 115 153 193 237 289 350
#     4   9  18  35  56  78 109 150 191 231 281 340
#     4   8  18  36  59  85 116 148 186 231 290 355
#     4  10  21  36  56  82 114 151 190 238 287 332
#     4  11  23  37  56  81 110 149 192 236 284 340
#     4   8  16  40  64  84 122 156 190 224 298 386
#
# _framework density 19.439083
#
# number of rings (size 3 to 8) (size 9 to 14) (size 15 to 20)
#    0.267    1.778    0.889    2.667    0.000    4.978 
#    1.600    1.778    0.000    0.000    0.000    2.489 
#    0.000    0.000    0.000    0.000    0.000    0.000 
#
# Total GULP energy -250708.071502 kJ/mol
# GULP energy per Si atom -5571.290478 kJ/mol
# Density = 1.939484 g / cm^3
# Si number density = 19.439083 Si / 1000 Ang^3
#
#
#
# Elastic Constant Matrix: (Units=GPa)
#
#
# Indices 1 2 3 4 5 6 
#
# 1 89.0977 40.4221 3.9248 0.0000 0.0000 0.0000
# 2 40.4221 105.7400 8.2607 0.0000 0.0000 0.0000
# 3 3.9248 8.2607 10.8276 0.0000 0.0000 0.0000
# 4 0.0000 0.0000 0.0000 13.0251 0.0000 0.0000
# 5 0.0000 0.0000 0.0000 0.0000 66.5452 0.0000
# 6 0.0000 0.0000 0.0000 0.0000 0.0000 30.9060
#
#
#
# Elastic Compliance Matrix: (Units=1/GPa)
#
#
# Indices 1 2 3 4 5 6 
#
# 1 0.013589 -0.005115 -0.001023 0.000000 0.000000 0.000000
# 2 -0.005115 0.011982 -0.007287 0.000000 0.000000 0.000000
# 3 -0.001023 -0.007287 0.098287 0.000000 0.000000 0.000000
# 4 0.000000 0.000000 0.000000 0.076775 0.000000 0.000000
# 5 0.000000 0.000000 0.000000 0.000000 0.015027 0.000000
# 6 0.000000 0.000000 0.000000 0.000000 0.000000 0.032356
#
#
# Mechanical properties :
#
#
# Convention : Reuss Voigt Hill
#
# Bulk Modulus (GPa) = 10.30853 34.54228 22.42541
# Shear Modulus (GPa) = 16.27586 32.29911 24.28749
#
# Velocity S-wave (km/s) = 2.89671 4.08064 3.53854
# Velocity P-wave (km/s) = 4.06232 6.32536 5.31567
#
# Compressibility (1/GPa) = 0.09700701
#
# Stress axis : x y z
#
# Youngs Moduli (GPa) = 73.58747 83.46004 10.17426
#
# Poissons Ratio (x) = 0.42689 0.01041
# Poissons Ratio (y) = 0.37639 0.07414
# Poissons Ratio (z) = 0.07531 0.60820
#
# Static dielectric constant tensor:
#      x y z
#    x 1.695960 0.000000 0.000000 
#    y 0.000000 1.682640 0.000000 
#    z 0.000000 0.000000 1.678570 
# 
# From -- ./inp_files/14048.got.cif
#   From: 2010.05.17/outbox.cif.g08.bks.cpg/sg65_8_cif.got.tgz:14048.got - 2010.06.03 17:01:31.
