data_PCOD9491410
_publ_section_title
;
Structure prediction by ZEFSAII (Michael W. Deem and Ramdas Pophale) SiO2 
 PCOD9491410
Probable space group: C M M M
;
_chemical_formula_sum "Si O2"
_cell_formula_units_Z 116
_cell_length_a 23.486753
_cell_length_b 18.165491
_cell_length_c 14.525247
_cell_angle_alpha 90.000000
_cell_angle_beta 90.000000
_cell_angle_gamma 90.000000
_cell_volume 6197.173396
_symmetry_space_group_name_H-M "C M M M"
_symmetry_group_IT_number 65
_symmetry_cell_setting 'orthorhombic'
loop_
_space_group_symop_operation_xyz
x,y,z
-x,-y,z
x,-y,-z
-x,y,-z
-x,-y,-z
x,y,-z
-x,y,z
x,-y,z
1/2+x,1/2+y,z
1/2-x,1/2-y,z
1/2+x,1/2-y,-z
1/2-x,1/2+y,-z
1/2-x,1/2-y,-z
1/2+x,1/2+y,-z
1/2-x,1/2+y,z
1/2+x,1/2-y,z
loop_
_atom_site_type_symbol
_atom_site_label
_atom_site_fract_x
_atom_site_fract_y
_atom_site_fract_z
Si Si1 0.829901 0.087044 0.155320
Si Si2 0.288838 0.364039 0.644004
Si Si3 0.665945 0.798974 0.607813
Si Si4 0.797828 0.000000 0.500000
Si Si5 0.725875 0.176838 0.897118
Si Si6 0.565588 0.686167 0.895203
Si Si7 0.616077 0.086162 0.891360
Si Si8 0.435626 0.181962 0.750326
O O1 0.814052 0.113310 0.257827
O O2 0.777505 0.120372 0.098662
O O3 0.888483 0.123415 0.122899
O O4 0.832226 0.000000 0.148839
O O5 0.319766 0.288330 0.613343
O O6 0.221805 0.342474 0.644033
O O7 0.297116 0.434110 0.578831
O O8 0.658050 0.817979 0.500000
O O9 0.611319 0.816732 0.670344
O O10 0.750000 0.250000 0.847857
O O11 0.670948 0.134527 0.862048
O O12 0.708446 0.200985 0.000000
O O13 0.500000 0.660885 0.886938
O O14 0.574737 0.749599 0.820028
O O15 0.573007 0.714295 0.000000
O O16 0.569554 0.112036 0.818373
O O17 0.628971 0.000000 0.883429
O O18 0.602577 0.099568 0.000000
O O19 0.500000 0.187866 0.714088
#
# Coordination Sequence:
#
# PCOD9491410 Si02
#       8
#    16  16  16   4  16  16  16  16
#     4  12  23  34  56  89 120 156 196 244 302 365
#     4  11  22  38  63  93 124 152 191 243 305 370
#     4  11  22  41  64  92 124 158 195 253 309 364
#     4  12  20  42  64  96 124 156 192 240 310 380
#     4  10  21  35  53  81 119 159 197 241 297 361
#     4  10  22  40  60  84 118 163 211 255 301 359
#     4  10  21  38  59  86 123 164 205 255 312 366
#     4  11  23  40  63  88 118 161 213 261 302 358
#
# _framework density 18.718211
#
# number of rings (size 3 to 8) (size 9 to 14) (size 15 to 20)
#    0.000    1.241    3.448    3.310    1.931    4.414 
#    1.241    1.379    0.000    0.000    0.000    2.414 
#    0.000    0.000    0.000    0.000    0.000    0.000 
#
# Total GULP energy -323290.925834 kJ/mol
# GULP energy per Si atom -5573.981480 kJ/mol
# Density = 1.867561 g / cm^3
# Si number density = 18.718211 Si / 1000 Ang^3
#
#
#
# Elastic Constant Matrix: (Units=GPa)
#
#
# Indices 1 2 3 4 5 6 
#
# 1 113.3351 25.8730 41.7827 0.0000 0.0000 0.0000
# 2 25.8730 71.3304 4.3543 0.0000 0.0000 0.0000
# 3 41.7827 4.3543 89.6887 0.0000 0.0000 0.0000
# 4 0.0000 0.0000 0.0000 27.6568 0.0000 0.0000
# 5 0.0000 0.0000 0.0000 0.0000 1.8595 0.0000
# 6 0.0000 0.0000 0.0000 0.0000 0.0000 11.9995
#
#
#
# Elastic Compliance Matrix: (Units=1/GPa)
#
#
# Indices 1 2 3 4 5 6 
#
# 1 0.011645 -0.003904 -0.005235 0.000000 0.000000 0.000000
# 2 -0.003904 0.015370 0.001073 0.000000 0.000000 0.000000
# 3 -0.005235 0.001073 0.013537 0.000000 0.000000 0.000000
# 4 0.000000 0.000000 0.000000 0.036157 0.000000 0.000000
# 5 0.000000 0.000000 0.000000 0.000000 0.537788 0.000000
# 6 0.000000 0.000000 0.000000 0.000000 0.000000 0.083337
#
#
# Mechanical properties :
#
#
# Convention : Reuss Voigt Hill
#
# Bulk Modulus (GPa) = 40.95435 46.48602 43.72019
# Shear Modulus (GPa) = 6.92418 21.79278 14.35848
#
# Velocity S-wave (km/s) = 1.92541 3.41582 2.77264
# Velocity P-wave (km/s) = 5.18361 6.35969 5.80153
#
# Compressibility (1/GPa) = 0.02441743
#
# Stress axis : x y z
#
# Youngs Moduli (GPa) = 85.87553 65.06217 73.87410
#
# Poissons Ratio (x) = 0.25402 0.38676
# Poissons Ratio (y) = 0.33528 -0.07924
# Poissons Ratio (z) = 0.44959 -0.06979
#
# Static dielectric constant tensor:
#      x y z
#    x 1.669090 0.000000 0.000000 
#    y 0.000000 1.636710 0.000000 
#    z 0.000000 0.000000 1.691200 
# 
# From -- ./inp_files/46021.got.cif
#   From: 2010.05.17/outbox.cif.g08.bks.cpg/sg65_24_cif.got.tgz:46021.got - 2010.06.03 17:01:31.
