data_PCOD9491735
_publ_section_title
;
Structure prediction by ZEFSAII (Michael W. Deem and Ramdas Pophale) SiO2 
 PCOD9491735
Probable space group: C M M M
;
_chemical_formula_sum "Si O2"
_cell_formula_units_Z 64
_cell_length_a 8.133397
_cell_length_b 25.558708
_cell_length_c 12.844679
_cell_angle_alpha 90.000000
_cell_angle_beta 90.000000
_cell_angle_gamma 90.000000
_cell_volume 2670.140554
_symmetry_space_group_name_H-M "C M M M"
_symmetry_group_IT_number 65
_symmetry_cell_setting 'orthorhombic'
loop_
_space_group_symop_operation_xyz
x,y,z
-x,-y,z
x,-y,-z
-x,y,-z
-x,-y,-z
x,y,-z
-x,y,z
x,-y,z
1/2+x,1/2+y,z
1/2-x,1/2-y,z
1/2+x,1/2-y,-z
1/2-x,1/2+y,-z
1/2-x,1/2-y,-z
1/2+x,1/2+y,-z
1/2-x,1/2+y,z
1/2+x,1/2-y,z
loop_
_atom_site_type_symbol
_atom_site_label
_atom_site_fract_x
_atom_site_fract_y
_atom_site_fract_z
Si Si1 0.811203 0.806354 0.662071
Si Si2 0.191654 0.581432 0.385357
Si Si3 0.692002 0.170397 0.885430
Si Si4 0.691918 0.557483 0.161575
O O1 0.750000 0.750000 0.626456
O O2 0.708257 0.855554 0.621725
O O3 0.792926 0.808437 0.787806
O O4 0.000000 0.814513 0.633465
O O5 0.247388 0.564786 0.500000
O O6 0.290042 0.560263 0.286927
O O7 0.000000 0.567344 0.373030
O O8 0.500000 0.183791 0.871442
O O9 0.710444 0.107344 0.879693
O O10 0.747594 0.187369 0.000000
O O11 0.500000 0.563763 0.134221
O O12 0.747570 0.500000 0.127257
#
# Coordination Sequence:
#
# PCOD9491735 Si02
#       4
#    16  16  16  16
#     4  11  22  37  58  81 109 143 178 220 267 317
#     4  10  21  37  57  81 109 141 179 223 269 318
#     4  10  21  37  57  81 109 141 179 223 269 318
#     4  10  21  36  55  80 110 144 181 222 267 317
#
# _framework density 23.968775000000001
#
# number of rings (size 3 to 8) (size 9 to 14) (size 15 to 20)
#    0.000    1.750    0.000    7.500    0.000    8.000 
#    0.000    5.000    0.000    0.000    0.000    0.000 
#    0.000    0.000    0.000    0.000    0.000    0.000 
#
# Total GULP energy -179120.533618 kJ/mol
# GULP energy per Si atom -5597.516676 kJ/mol
# Density = 2.391422 g / cm^3
# Si number density = 23.968775 Si / 1000 Ang^3
#
#
#
# Elastic Constant Matrix: (Units=GPa)
#
#
# Indices 1 2 3 4 5 6 
#
# 1 60.6820 -5.2013 4.9211 0.0000 0.0000 0.0000
# 2 -5.2013 118.7436 -9.1826 0.0000 0.0000 0.0000
# 3 4.9211 -9.1826 129.3568 0.0000 0.0000 0.0000
# 4 0.0000 0.0000 0.0000 -81.3268 0.0000 0.0000
# 5 0.0000 0.0000 0.0000 0.0000 -104.2593 0.0000
# 6 0.0000 0.0000 0.0000 0.0000 0.0000 23.4708
#
#
#
# Elastic Compliance Matrix: (Units=1/GPa)
#
#
# Indices 1 2 3 4 5 6 
#
# 1 0.016585 0.000681 -0.000583 0.000000 0.000000 0.000000
# 2 0.000681 0.008496 0.000577 0.000000 0.000000 0.000000
# 3 -0.000583 0.000577 0.007794 0.000000 0.000000 0.000000
# 4 0.000000 0.000000 0.000000 -0.012296 0.000000 0.000000
# 5 0.000000 0.000000 0.000000 0.000000 -0.009591 0.000000
# 6 0.000000 0.000000 0.000000 0.000000 0.000000 0.042606
#
#
# Mechanical properties :
#
#
# Convention : Reuss Voigt Hill
#
# Bulk Modulus (GPa) = 29.21693 32.20631 30.71162
# Shear Modulus (GPa) = 78.55454 -11.20670 33.67392
#
# Velocity S-wave (km/s) = 5.73104 -2.16465 3.75228
# Velocity P-wave (km/s) = 7.48393 2.68670 5.62261
#
# Compressibility (1/GPa) = 0.03422673
#
# Stress axis : x y z
#
# Youngs Moduli (GPa) = 60.29544 117.70258 128.30890
#
# Poissons Ratio (x) = -0.08020 0.07475
# Poissons Ratio (y) = -0.04109 -0.07406
# Poissons Ratio (z) = 0.03513 -0.06794
#
# Static dielectric constant tensor:
#      x y z
#    x 1.791510 0.000000 0.000000 
#    y 0.000000 1.922490 0.000000 
#    z 0.000000 0.000000 1.944830 
# 
# From -- ./inp_files/36797.got.cif
#   From: 2010.05.17/outbox.cif.g08.bks.cpg/sg65_19_cif.got.tgz:36797.got - 2010.06.03 17:01:31.
