data_PCOD9491702
_publ_section_title
;
Structure prediction by ZEFSAII (Michael W. Deem and Ramdas Pophale) SiO2 
 PCOD9491702
Probable space group: C M M M
;
_chemical_formula_sum "Si O2"
_cell_formula_units_Z 88
_cell_length_a 9.252176
_cell_length_b 19.093379
_cell_length_c 29.117698
_cell_angle_alpha 90.000000
_cell_angle_beta 90.000000
_cell_angle_gamma 90.000000
_cell_volume 5143.795761
_symmetry_space_group_name_H-M "C M M M"
_symmetry_group_IT_number 65
_symmetry_cell_setting 'orthorhombic'
loop_
_space_group_symop_operation_xyz
x,y,z
-x,-y,z
x,-y,-z
-x,y,-z
-x,-y,-z
x,y,-z
-x,y,z
x,-y,z
1/2+x,1/2+y,z
1/2-x,1/2-y,z
1/2+x,1/2-y,-z
1/2-x,1/2+y,-z
1/2-x,1/2-y,-z
1/2+x,1/2+y,-z
1/2-x,1/2+y,z
1/2+x,1/2-y,z
loop_
_atom_site_type_symbol
_atom_site_label
_atom_site_fract_x
_atom_site_fract_y
_atom_site_fract_z
Si Si1 0.331684 0.914812 0.359322
Si Si2 0.829496 0.823662 0.816890
Si Si3 0.672120 0.324741 0.075366
Si Si4 0.169670 0.914936 0.449766
Si Si5 0.671768 0.083643 0.000000
Si Si6 0.328011 0.916268 0.742743
O O1 0.500000 0.896640 0.363396
O O2 0.248141 0.888857 0.404108
O O3 0.280526 0.892812 0.308578
O O4 0.323237 0.000000 0.359268
O O5 0.750000 0.750000 0.809520
O O6 0.810290 0.842157 0.870685
O O7 0.759239 0.879029 0.782676
O O8 0.000000 0.816568 0.808445
O O9 0.500000 0.319880 0.065571
O O10 0.750000 0.250000 0.067134
O O11 0.750233 0.381467 0.043700
O O12 0.225391 0.891523 0.500000
O O13 0.000000 0.898611 0.447301
O O14 0.181597 0.000000 0.449530
O O15 0.500000 0.099595 0.000000
O O16 0.688811 0.000000 0.000000
O O17 0.500000 0.901968 0.746828
O O18 0.309974 0.000000 0.745461
#
# Coordination Sequence:
#
# PCOD9491702 Si02
#       6
#    16  16  16  16   8  16
#     4   8  14  24  37  55  81 115 154 192 234 286
#     4  10  21  36  55  78 102 131 168 208 249 294
#     4  10  21  38  59  80 104 135 170 208 249 294
#     4   8  13  20  30  47  74 109 148 190 236 283
#     4  11  24  39  56  81 111 141 172 205 244 291
#     4   9  18  32  49  70  99 133 165 202 250 299
#
# _framework density 17.107987999999999
#
# number of rings (size 3 to 8) (size 9 to 14) (size 15 to 20)
#    0.000    2.818    0.000    3.273    0.000    5.091 
#    0.000    7.273    0.000    0.000    0.000    0.000 
#    0.000    0.727    0.000    2.364    0.000    5.273 
#
# Total GULP energy -245151.522065 kJ/mol
# GULP energy per Si atom -5571.625501 kJ/mol
# Density = 1.706905 g / cm^3
# Si number density = 17.107988 Si / 1000 Ang^3
#
#
#
# Elastic Constant Matrix: (Units=GPa)
#
#
# Indices 1 2 3 4 5 6 
#
# 1 101.5107 48.9228 94.0381 0.0000 0.0000 0.0000
# 2 48.9228 40.1576 62.9283 0.0000 0.0000 0.0000
# 3 94.0381 62.9283 141.3464 0.0000 0.0000 0.0000
# 4 0.0000 0.0000 0.0000 -51.1953 0.0000 0.0000
# 5 0.0000 0.0000 0.0000 0.0000 32.3343 0.0000
# 6 0.0000 0.0000 0.0000 0.0000 0.0000 23.2967
#
#
#
# Elastic Compliance Matrix: (Units=1/GPa)
#
#
# Indices 1 2 3 4 5 6 
#
# 1 0.028698 -0.016679 -0.011667 0.000000 0.000000 0.000000
# 2 -0.016679 0.092056 -0.029887 0.000000 0.000000 0.000000
# 3 -0.011667 -0.029887 0.028143 0.000000 0.000000 0.000000
# 4 0.000000 0.000000 0.000000 -0.019533 0.000000 0.000000
# 5 0.000000 0.000000 0.000000 0.000000 0.030927 0.000000
# 6 0.000000 0.000000 0.000000 0.000000 0.000000 0.042925
#
#
# Mechanical properties :
#
#
# Convention : Reuss Voigt Hill
#
# Bulk Modulus (GPa) = 30.83570 77.19923 54.01747
# Shear Modulus (GPa) = 15.12895 6.02884 10.57889
#
# Velocity S-wave (km/s) = 2.97698 1.87927 2.48938
# Velocity P-wave (km/s) = 5.46624 7.06622 6.31709
#
# Compressibility (1/GPa) = 0.03242994
#
# Stress axis : x y z
#
# Youngs Moduli (GPa) = 34.84585 10.86296 35.53269
#
# Poissons Ratio (x) = 0.18118 0.41457
# Poissons Ratio (y) = 0.58119 1.06198
# Poissons Ratio (z) = 0.40655 0.32467
#
# Static dielectric constant tensor:
#      x y z
#    x 1.567480 0.000000 0.000000 
#    y 0.000000 1.554790 0.000000 
#    z 0.000000 0.000000 1.604160 
# 
# From -- ./inp_files/76618.got.cif
#   From: 2010.05.17/outbox.cif.g08.bks.cpg/sg65_39_cif.got.tgz:76618.got - 2010.06.03 17:01:31.
