data_PCOD9491067
_publ_section_title
;
Structure prediction by ZEFSAII (Michael W. Deem and Ramdas Pophale) SiO2 
 PCOD9491067
Probable space group: C M M M
;
_chemical_formula_sum "Si O2"
_cell_formula_units_Z 60
_cell_length_a 9.831355
_cell_length_b 18.817738
_cell_length_c 19.263084
_cell_angle_alpha 90.000000
_cell_angle_beta 90.000000
_cell_angle_gamma 90.000000
_cell_volume 3563.744945
_symmetry_space_group_name_H-M "C M M M"
_symmetry_group_IT_number 65
_symmetry_cell_setting 'orthorhombic'
loop_
_space_group_symop_operation_xyz
x,y,z
-x,-y,z
x,-y,-z
-x,y,-z
-x,-y,-z
x,y,-z
-x,y,z
x,-y,z
1/2+x,1/2+y,z
1/2-x,1/2-y,z
1/2+x,1/2-y,-z
1/2-x,1/2+y,-z
1/2-x,1/2-y,-z
1/2+x,1/2+y,-z
1/2-x,1/2+y,z
1/2+x,1/2-y,z
loop_
_atom_site_type_symbol
_atom_site_label
_atom_site_fract_x
_atom_site_fract_y
_atom_site_fract_z
Si Si1 0.226355 0.500000 0.418744
Si Si2 0.000000 0.583590 0.082955
Si Si3 0.500000 0.206144 0.281538
Si Si4 0.000000 0.865909 0.768836
Si Si5 0.000000 0.000000 0.330609
Si Si6 0.279636 0.830787 0.832039
Si Si7 0.000000 0.619289 0.581753
O O1 0.260190 0.500000 0.500000
O O2 0.362831 0.500000 0.375367
O O3 0.130749 0.431409 0.406132
O O4 0.129991 0.623777 0.115396
O O5 0.000000 0.500000 0.102229
O O6 0.000000 0.588841 0.000000
O O7 0.500000 0.290875 0.272297
O O8 0.369378 0.177588 0.238494
O O9 0.500000 0.180217 0.360480
O O10 0.000000 0.930763 0.716967
O O11 0.863963 0.865789 0.814622
O O12 0.250000 0.750000 0.856690
O O13 0.000000 0.640616 0.500000
#
# Coordination Sequence:
#
# PCOD9491067 Si02
#       7
#     8   8   8   8   4  16   8
#     4   9  19  33  47  69 101 134 172 220 272 323
#     4  10  22  39  60  86 116 146 182 227 267 320
#     4   9  17  35  54  76 106 138 180 231 269 314
#     4  10  21  32  52  80 108 134 175 228 266 316
#     4  12  21  30  48  74 101 138 168 214 278 328
#     4   9  19  37  58  80 111 146 179 224 274 323
#     4   9  17  33  55  74  98 136 184 227 263 319
#
# _framework density 16.836221999999999
#
# number of rings (size 3 to 8) (size 9 to 14) (size 15 to 20)
#    0.000    2.533    0.000    3.400    1.867    0.533 
#    9.600    2.000    0.000   12.000    0.000    0.000 
#    0.000    0.000    0.000    0.000    0.000    0.000 
#
# Total GULP energy -167321.465055 kJ/mol
# GULP energy per Si atom -5577.382168 kJ/mol
# Density = 1.679790 g / cm^3
# Si number density = 16.836222 Si / 1000 Ang^3
#
#
#
# Elastic Constant Matrix: (Units=GPa)
#
#
# Indices 1 2 3 4 5 6 
#
# 1 167.1518 62.3712 64.1319 0.0000 0.0000 0.0000
# 2 62.3712 87.1676 74.1150 0.0000 0.0000 0.0000
# 3 64.1319 74.1150 93.9973 0.0000 0.0000 0.0000
# 4 0.0000 0.0000 0.0000 24.3304 0.0000 0.0000
# 5 0.0000 0.0000 0.0000 0.0000 12.0086 0.0000
# 6 0.0000 0.0000 0.0000 0.0000 0.0000 15.6060
#
#
#
# Elastic Compliance Matrix: (Units=1/GPa)
#
#
# Indices 1 2 3 4 5 6 
#
# 1 0.008436 -0.003466 -0.003022 0.000000 0.000000 0.000000
# 2 -0.003466 0.036232 -0.026203 0.000000 0.000000 0.000000
# 3 -0.003022 -0.026203 0.033361 0.000000 0.000000 0.000000
# 4 0.000000 0.000000 0.000000 0.041101 0.000000 0.000000
# 5 0.000000 0.000000 0.000000 0.000000 0.083274 0.000000
# 6 0.000000 0.000000 0.000000 0.000000 0.000000 0.064078
#
#
# Mechanical properties :
#
#
# Convention : Reuss Voigt Hill
#
# Bulk Modulus (GPa) = 79.08059 83.28365 81.18212
# Shear Modulus (GPa) = 14.87741 20.23556 17.55649
#
# Velocity S-wave (km/s) = 2.97586 3.47061 3.23271
# Velocity P-wave (km/s) = 7.67334 8.10151 7.89033
#
# Compressibility (1/GPa) = 0.01264533
#
# Stress axis : x y z
#
# Youngs Moduli (GPa) = 118.54605 27.60012 29.97468
#
# Poissons Ratio (x) = 0.09566 0.09060
# Poissons Ratio (y) = 0.41088 0.78543
# Poissons Ratio (z) = 0.35830 0.72321
#
# Static dielectric constant tensor:
#      x y z
#    x 1.576210 0.000000 0.000000 
#    y 0.000000 1.558690 0.000000 
#    z 0.000000 0.000000 1.536950 
# 
# From -- ./inp_files/55383.got.cif
#   From: 2010.05.17/outbox.cif.g08.bks.cpg/sg65_28_cif.got.tgz:55383.got - 2010.06.03 17:01:31.
