data_PCOD9491850
_publ_section_title
;
Structure prediction by ZEFSAII (Michael W. Deem and Ramdas Pophale) SiO2 
 PCOD9491850
Probable space group: C M M M
;
_chemical_formula_sum "Si O2"
_cell_formula_units_Z 72
_cell_length_a 20.115867
_cell_length_b 15.346295
_cell_length_c 10.255393
_cell_angle_alpha 90.000000
_cell_angle_beta 90.000000
_cell_angle_gamma 90.000000
_cell_volume 3165.881140
_symmetry_space_group_name_H-M "C M M M"
_symmetry_group_IT_number 65
_symmetry_cell_setting 'orthorhombic'
loop_
_space_group_symop_operation_xyz
x,y,z
-x,-y,z
x,-y,-z
-x,y,-z
-x,-y,-z
x,y,-z
-x,y,z
x,-y,z
1/2+x,1/2+y,z
1/2-x,1/2-y,z
1/2+x,1/2-y,-z
1/2-x,1/2+y,-z
1/2-x,1/2-y,-z
1/2+x,1/2+y,-z
1/2-x,1/2+y,z
1/2+x,1/2-y,z
loop_
_atom_site_type_symbol
_atom_site_label
_atom_site_fract_x
_atom_site_fract_y
_atom_site_fract_z
Si Si1 0.215640 0.897910 0.861924
Si Si2 0.920569 0.901108 0.500000
Si Si3 0.923632 0.360425 0.148080
Si Si4 0.810883 0.397472 0.646143
Si Si5 0.075642 0.157201 0.213353
O O1 0.252098 0.859047 0.736073
O O2 0.136415 0.891643 0.852463
O O3 0.233254 0.000000 0.864739
O O4 0.237569 0.858353 0.000000
O O5 0.906933 0.850257 0.367087
O O6 0.000000 0.911299 0.500000
O O7 0.891303 0.000000 0.500000
O O8 0.875931 0.391590 0.262931
O O9 0.923636 0.255620 0.162207
O O10 0.000000 0.389535 0.165274
O O11 0.902792 0.384199 0.000000
O O12 0.817604 0.360227 0.500000
O O13 0.796705 0.500000 0.629769
O O14 0.000000 0.123191 0.194748
#
# Coordination Sequence:
#
# PCOD9491850 Si02
#       5
#    16   8  16  16  16
#     4  10  21  37  59  86 119 160 201 245 295 347
#     4   9  18  32  52  81 117 159 200 241 289 335
#     4  10  22  40  63  90 122 158 194 242 304 362
#     4  10  23  42  63  87 117 154 199 252 303 358
#     4  10  21  36  57  87 123 160 199 244 292 351
#
# _framework density 22.742483
#
# number of rings (size 3 to 8) (size 9 to 14) (size 15 to 20)
#    0.000    2.111    0.000    2.000    3.111    5.778 
#    0.000    6.667    0.000    0.000    0.000    0.000 
#    0.000    0.000    0.000    0.000    0.000    0.000 
#
# Total GULP energy -200909.657571 kJ/mol
# GULP energy per Si atom -5580.823821 kJ/mol
# Density = 2.269072 g / cm^3
# Si number density = 22.742483 Si / 1000 Ang^3
#
#
#
# Elastic Constant Matrix: (Units=GPa)
#
#
# Indices 1 2 3 4 5 6 
#
# 1 120.0424 -4.1338 84.8912 0.0000 0.0000 0.0000
# 2 -4.1338 40.5232 15.2373 0.0000 0.0000 0.0000
# 3 84.8912 15.2373 236.5104 0.0000 0.0000 0.0000
# 4 0.0000 0.0000 0.0000 20.3199 0.0000 0.0000
# 5 0.0000 0.0000 0.0000 0.0000 77.1280 0.0000
# 6 0.0000 0.0000 0.0000 0.0000 0.0000 22.3473
#
#
#
# Elastic Compliance Matrix: (Units=1/GPa)
#
#
# Indices 1 2 3 4 5 6 
#
# 1 0.011463 0.002784 -0.004294 0.000000 0.000000 0.000000
# 2 0.002784 0.025966 -0.002672 0.000000 0.000000 0.000000
# 3 -0.004294 -0.002672 0.005941 0.000000 0.000000 0.000000
# 4 0.000000 0.000000 0.000000 0.049213 0.000000 0.000000
# 5 0.000000 0.000000 0.000000 0.000000 0.012965 0.000000
# 6 0.000000 0.000000 0.000000 0.000000 0.000000 0.044748
#
#
# Mechanical properties :
#
#
# Convention : Reuss Voigt Hill
#
# Bulk Modulus (GPa) = 28.56642 65.45172 47.00907
# Shear Modulus (GPa) = 29.35496 44.03112 36.69304
#
# Velocity S-wave (km/s) = 3.59660 4.40486 4.02109
# Velocity P-wave (km/s) = 5.46219 7.39678 6.50184
#
# Compressibility (1/GPa) = 0.03500613
#
# Stress axis : x y z
#
# Youngs Moduli (GPa) = 87.24007 38.51196 168.30981
#
# Poissons Ratio (x) = -0.10721 0.72266
# Poissons Ratio (y) = -0.24286 0.44973
# Poissons Ratio (z) = 0.37458 0.10291
#
# Static dielectric constant tensor:
#      x y z
#    x 1.850820 0.000000 0.000000 
#    y 0.000000 1.836480 0.000000 
#    z 0.000000 0.000000 1.994890 
# 
# From -- ./inp_files/11252.got.cif
#   From: 2010.05.17/outbox.cif.g08.bks.cpg/sg65_6_cif.got.tgz:11252.got - 2010.06.03 17:01:31.
