data_PCOD9491261
_publ_section_title
;
Structure prediction by ZEFSAII (Michael W. Deem and Ramdas Pophale) SiO2 
 PCOD9491261
Probable space group: C M M M
;
_chemical_formula_sum "Si O2"
_cell_formula_units_Z 72
_cell_length_a 7.389270
_cell_length_b 32.082565
_cell_length_c 14.119244
_cell_angle_alpha 90.000000
_cell_angle_beta 90.000000
_cell_angle_gamma 90.000000
_cell_volume 3347.203077
_symmetry_space_group_name_H-M "C M M M"
_symmetry_group_IT_number 65
_symmetry_cell_setting 'orthorhombic'
loop_
_space_group_symop_operation_xyz
x,y,z
-x,-y,z
x,-y,-z
-x,y,-z
-x,-y,-z
x,y,-z
-x,y,z
x,-y,z
1/2+x,1/2+y,z
1/2-x,1/2-y,z
1/2+x,1/2-y,-z
1/2-x,1/2+y,-z
1/2-x,1/2-y,-z
1/2+x,1/2+y,-z
1/2-x,1/2+y,z
1/2+x,1/2-y,z
loop_
_atom_site_type_symbol
_atom_site_label
_atom_site_fract_x
_atom_site_fract_y
_atom_site_fract_z
Si Si1 0.720663 0.000000 0.108010
Si Si2 0.283769 0.299172 0.102252
Si Si3 0.281395 0.929493 0.253308
Si Si4 0.790921 0.834495 0.297957
Si Si5 0.716404 0.700113 0.500000
Si Si6 0.220147 0.500000 0.604683
O O1 0.775806 0.042451 0.162792
O O2 0.500000 0.000000 0.110920
O O3 0.779350 0.000000 0.000000
O O4 0.500000 0.307006 0.102712
O O5 0.250000 0.250000 0.100829
O O6 0.208361 0.315264 0.201942
O O7 0.215878 0.316053 0.000000
O O8 0.500000 0.926530 0.248920
O O9 0.213292 0.883620 0.275838
O O10 0.226570 0.959063 0.339542
O O11 0.715303 0.820568 0.400854
O O12 0.000000 0.820260 0.300733
O O13 0.500000 0.693390 0.500000
O O14 0.750000 0.750000 0.500000
O O15 0.288331 0.500000 0.500000
O O16 0.000000 0.500000 0.604304
#
# Coordination Sequence:
#
# PCOD9491261 Si02
#       6
#     8  16  16  16   8   8
#     4   8  15  31  52  74 105 137 166 209 257 295
#     4   9  18  33  52  72  95 126 162 202 249 296
#     4   9  18  31  50  76  97 126 170 205 241 292
#     4  10  21  35  50  72 106 135 161 205 256 302
#     4  10  22  38  54  73 100 137 173 208 257 306
#     4   8  15  29  48  68  94 122 154 201 243 270
#
# _framework density 21.510497999999998
#
# number of rings (size 3 to 8) (size 9 to 14) (size 15 to 20)
#    0.000    2.889    0.000    2.000    1.556    2.667 
#    0.000    2.222    0.000    1.333    0.000    0.000 
#    0.000    0.000    0.000    0.000    0.000    0.000 
#
# Total GULP energy -200597.611913 kJ/mol
# GULP energy per Si atom -5572.155886 kJ/mol
# Density = 2.146154 g / cm^3
# Si number density = 21.510498 Si / 1000 Ang^3
#
#
#
# Elastic Constant Matrix: (Units=GPa)
#
#
# Indices 1 2 3 4 5 6 
#
# 1 75.1401 -15.2074 11.7799 0.0000 0.0000 0.0000
# 2 -15.2074 115.2732 97.4159 0.0000 0.0000 0.0000
# 3 11.7799 97.4159 272.4519 0.0000 0.0000 0.0000
# 4 0.0000 0.0000 0.0000 -5.1715 0.0000 0.0000
# 5 0.0000 0.0000 0.0000 0.0000 -15.3506 0.0000
# 6 0.0000 0.0000 0.0000 0.0000 0.0000 26.4905
#
#
#
# Elastic Compliance Matrix: (Units=1/GPa)
#
#
# Indices 1 2 3 4 5 6 
#
# 1 0.014297 0.003451 -0.001852 0.000000 0.000000 0.000000
# 2 0.003451 0.013265 -0.004892 0.000000 0.000000 0.000000
# 3 -0.001852 -0.004892 0.005500 0.000000 0.000000 0.000000
# 4 0.000000 0.000000 0.000000 -0.193367 0.000000 0.000000
# 5 0.000000 0.000000 0.000000 0.000000 -0.065144 0.000000
# 6 0.000000 0.000000 0.000000 0.000000 0.000000 0.037749
#
#
# Mechanical properties :
#
#
# Convention : Reuss Voigt Hill
#
# Bulk Modulus (GPa) = 37.77004 72.31578 55.04291
# Shear Modulus (GPa) = -29.02095 25.78547 -1.61774
#
# Velocity S-wave (km/s) = -3.67707 3.46604 -0.86816
# Velocity P-wave (km/s) = 0.65631 7.05051 4.96382
#
# Compressibility (1/GPa) = 0.02647601
#
# Stress axis : x y z
#
# Youngs Moduli (GPa) = 69.94283 75.38889 181.83114
#
# Poissons Ratio (x) = -0.26020 0.33680
# Poissons Ratio (y) = -0.24141 0.88952
# Poissons Ratio (z) = 0.12955 0.36880
#
# Static dielectric constant tensor:
#      x y z
#    x 1.926600 0.000000 0.000000 
#    y 0.000000 1.821200 0.000000 
#    z 0.000000 0.000000 1.819370 
# 
# From -- ./inp_files/36653.got.cif
#   From: 2010.05.17/outbox.cif.g08.bks.cpg/sg65_19_cif.got.tgz:36653.got - 2010.06.03 17:01:31.
