data_PCOD9491948
_publ_section_title
;
Structure prediction by ZEFSAII (Michael W. Deem and Ramdas Pophale) SiO2 
 PCOD9491948
Probable space group: C M M M
;
_chemical_formula_sum "Si O2"
_cell_formula_units_Z 72
_cell_length_a 22.891014
_cell_length_b 19.964585
_cell_length_c 8.505930
_cell_angle_alpha 90.000000
_cell_angle_beta 90.000000
_cell_angle_gamma 90.000000
_cell_volume 3887.291622
_symmetry_space_group_name_H-M "C M M M"
_symmetry_group_IT_number 65
_symmetry_cell_setting 'orthorhombic'
loop_
_space_group_symop_operation_xyz
x,y,z
-x,-y,z
x,-y,-z
-x,y,-z
-x,-y,-z
x,y,-z
-x,y,z
x,-y,z
1/2+x,1/2+y,z
1/2-x,1/2-y,z
1/2+x,1/2-y,-z
1/2-x,1/2+y,-z
1/2-x,1/2-y,-z
1/2+x,1/2+y,-z
1/2-x,1/2+y,z
1/2+x,1/2-y,z
loop_
_atom_site_type_symbol
_atom_site_label
_atom_site_fract_x
_atom_site_fract_y
_atom_site_fract_z
Si Si1 0.150778 0.923691 0.690088
Si Si2 0.000000 0.422400 0.188764
Si Si3 0.432548 0.304272 0.308054
Si Si4 0.780364 0.577071 0.188237
Si Si5 0.611112 0.840833 0.311553
O O1 0.151799 0.922785 0.500000
O O2 0.103752 0.869120 0.743619
O O3 0.215644 0.907157 0.749874
O O4 0.137078 0.000000 0.740066
O O5 0.057285 0.385438 0.251795
O O6 0.000000 0.500000 0.237438
O O7 0.000000 0.419741 0.000000
O O8 0.433269 0.304724 0.500000
O O9 0.500000 0.304651 0.256290
O O10 0.401134 0.235438 0.259352
O O11 0.793980 0.500000 0.237577
O O12 0.828973 0.627414 0.251087
O O13 0.780327 0.578774 0.000000
O O14 0.611350 0.841649 0.500000
#
# Coordination Sequence:
#
# PCOD9491948 Si02
#       5
#    16   8  16  16  16
#     4   9  18  34  58  84 107 138 182 226 269 323
#     4  11  23  37  53  77 110 145 182 224 269 315
#     4   9  18  34  55  81 113 142 175 224 276 318
#     4  10  21  37  55  77 110 146 180 226 277 321
#     4  11  21  35  56  80 109 145 183 222 266 321
#
# _framework density 18.521894
#
# number of rings (size 3 to 8) (size 9 to 14) (size 15 to 20)
#    0.000    2.111    1.111    2.333    0.000    6.222 
#    0.000    8.889    0.000    0.000    0.000    3.111 
#    0.000    0.000    0.000    0.000    0.000    0.000 
#
# Total GULP energy -201009.191141 kJ/mol
# GULP energy per Si atom -5583.588643 kJ/mol
# Density = 1.847974 g / cm^3
# Si number density = 18.521894 Si / 1000 Ang^3
#
#
#
# Elastic Constant Matrix: (Units=GPa)
#
#
# Indices 1 2 3 4 5 6 
#
# 1 143.5782 121.2712 20.3343 0.0000 0.0000 0.0000
# 2 121.2712 166.6493 25.5929 0.0000 0.0000 0.0000
# 3 20.3343 25.5929 19.5427 0.0000 0.0000 0.0000
# 4 0.0000 0.0000 0.0000 6.9233 0.0000 0.0000
# 5 0.0000 0.0000 0.0000 0.0000 -34.5087 0.0000
# 6 0.0000 0.0000 0.0000 0.0000 0.0000 53.4156
#
#
#
# Elastic Compliance Matrix: (Units=1/GPa)
#
#
# Indices 1 2 3 4 5 6 
#
# 1 0.018135 -0.012892 -0.001987 0.000000 0.000000 0.000000
# 2 -0.012892 0.016676 -0.008424 0.000000 0.000000 0.000000
# 3 -0.001987 -0.008424 0.064270 0.000000 0.000000 0.000000
# 4 0.000000 0.000000 0.000000 0.144441 0.000000 0.000000
# 5 0.000000 0.000000 0.000000 0.000000 -0.028978 0.000000
# 6 0.000000 0.000000 0.000000 0.000000 0.000000 0.018721
#
#
# Mechanical properties :
#
#
# Convention : Reuss Voigt Hill
#
# Bulk Modulus (GPa) = 19.05682 73.79634 46.42658
# Shear Modulus (GPa) = 16.81453 16.00414 16.40934
#
# Velocity S-wave (km/s) = 3.01627 2.94269 2.97971
# Velocity P-wave (km/s) = 4.73726 7.17462 6.07934
#
# Compressibility (1/GPa) = 0.05247465
#
# Stress axis : x y z
#
# Youngs Moduli (GPa) = 55.14134 59.96682 15.55947
#
# Poissons Ratio (x) = 0.77309 0.03091
# Poissons Ratio (y) = 0.71088 0.13108
# Poissons Ratio (z) = 0.10955 0.50518
#
# Static dielectric constant tensor:
#      x y z
#    x 1.596680 0.000000 0.000000 
#    y 0.000000 1.641040 0.000000 
#    z 0.000000 0.000000 1.627820 
# 
# From -- ./inp_files/9255.got.cif
#   From: 2010.05.17/outbox.cif.g08.bks.cpg/sg65_5_cif.got.tgz:9255.got - 2010.06.03 17:01:31.
