data_PCOD9491383
_publ_section_title
;
Structure prediction by ZEFSAII (Michael W. Deem and Ramdas Pophale) SiO2 
 PCOD9491383
Probable space group: C M M M
;
_chemical_formula_sum "Si O2"
_cell_formula_units_Z 72
_cell_length_a 7.484668
_cell_length_b 15.199354
_cell_length_c 28.852349
_cell_angle_alpha 90.000000
_cell_angle_beta 90.000000
_cell_angle_gamma 90.000000
_cell_volume 3282.304346
_symmetry_space_group_name_H-M "C M M M"
_symmetry_group_IT_number 65
_symmetry_cell_setting 'orthorhombic'
loop_
_space_group_symop_operation_xyz
x,y,z
-x,-y,z
x,-y,-z
-x,y,-z
-x,-y,-z
x,y,-z
-x,y,z
x,-y,z
1/2+x,1/2+y,z
1/2-x,1/2-y,z
1/2+x,1/2-y,-z
1/2-x,1/2+y,-z
1/2-x,1/2-y,-z
1/2+x,1/2+y,-z
1/2-x,1/2+y,z
1/2+x,1/2-y,z
loop_
_atom_site_type_symbol
_atom_site_label
_atom_site_fract_x
_atom_site_fract_y
_atom_site_fract_z
Si Si1 0.214505 0.146207 0.750702
Si Si2 0.213226 0.500000 0.070966
Si Si3 0.292819 0.394648 0.549499
Si Si4 0.786023 0.645837 0.000000
Si Si5 0.214467 0.000000 0.179533
Si Si6 0.786917 0.147080 0.650319
O O1 0.250000 0.250000 0.756936
O O2 0.280352 0.085767 0.792528
O O3 0.280074 0.112792 0.700028
O O4 0.000000 0.138193 0.748684
O O5 0.278567 0.587991 0.044204
O O6 0.247089 0.500000 0.125344
O O7 0.000000 0.500000 0.065387
O O8 0.215040 0.363205 0.500000
O O9 0.500000 0.363283 0.550472
O O10 0.296743 0.500000 0.547250
O O11 0.211336 0.375555 0.599701
O O12 0.750000 0.750000 0.000000
O O13 0.000000 0.640903 0.000000
O O14 0.000000 0.000000 0.183194
O O15 0.750000 0.250000 0.654675
O O16 0.000000 0.127083 0.648209
#
# Coordination Sequence:
#
# PCOD9491383 Si02
#       6
#    16   8  16   8   8  16
#     4   9  19  34  50  71 100 132 170 213 257 306
#     4   9  20  38  56  80 114 145 177 214 254 306
#     4   8  14  24  40  64  88 110 145 192 237 286
#     4   9  19  37  60  84 112 147 181 213 254 300
#     4  10  21  35  53  78 105 138 178 219 258 296
#     4   9  17  29  46  65  88 118 152 193 242 294
#
# _framework density 21.935808000000002
#
# number of rings (size 3 to 8) (size 9 to 14) (size 15 to 20)
#    0.000    3.111    0.000    1.333    1.556    3.111 
#    0.000    5.556    0.000    0.667    0.000    1.556 
#    0.000    0.000    0.000    0.000    0.000    0.000 
#
# Total GULP energy -200463.531587 kJ/mol
# GULP energy per Si atom -5568.431433 kJ/mol
# Density = 2.188588 g / cm^3
# Si number density = 21.935808 Si / 1000 Ang^3
#
#
#
# Elastic Constant Matrix: (Units=GPa)
#
#
# Indices 1 2 3 4 5 6 
#
# 1 65.1832 1.4931 11.4020 0.0000 0.0000 0.0000
# 2 1.4931 121.5825 104.8220 0.0000 0.0000 0.0000
# 3 11.4020 104.8220 276.0633 0.0000 0.0000 0.0000
# 4 0.0000 0.0000 0.0000 28.9960 0.0000 0.0000
# 5 0.0000 0.0000 0.0000 0.0000 57.7922 0.0000
# 6 0.0000 0.0000 0.0000 0.0000 0.0000 13.2787
#
#
#
# Elastic Compliance Matrix: (Units=1/GPa)
#
#
# Indices 1 2 3 4 5 6 
#
# 1 0.015477 0.000537 -0.000843 0.000000 0.000000 0.000000
# 2 0.000537 0.012246 -0.004672 0.000000 0.000000 0.000000
# 3 -0.000843 -0.004672 0.005431 0.000000 0.000000 0.000000
# 4 0.000000 0.000000 0.000000 0.034488 0.000000 0.000000
# 5 0.000000 0.000000 0.000000 0.000000 0.017303 0.000000
# 6 0.000000 0.000000 0.000000 0.000000 0.000000 0.075309
#
#
# Mechanical properties :
#
#
# Convention : Reuss Voigt Hill
#
# Bulk Modulus (GPa) = 43.10854 77.58481 60.34667
# Shear Modulus (GPa) = 28.09891 43.02084 35.55988
#
# Velocity S-wave (km/s) = 3.58293 4.43337 4.03064
# Velocity P-wave (km/s) = 6.06724 7.85189 7.01653
#
# Compressibility (1/GPa) = 0.02319726
#
# Stress axis : x y z
#
# Youngs Moduli (GPa) = 64.61391 81.65697 184.12137
#
# Poissons Ratio (x) = -0.04383 0.15522
# Poissons Ratio (y) = -0.03468 0.86024
# Poissons Ratio (z) = 0.05447 0.38151
#
# Static dielectric constant tensor:
#      x y z
#    x 1.874570 0.000000 0.000000 
#    y 0.000000 1.782110 0.000000 
#    z 0.000000 0.000000 1.870100 
# 
# From -- ./inp_files/76380.got.cif
#   From: 2010.05.17/outbox.cif.g08.bks.cpg/sg65_39_cif.got.tgz:76380.got - 2010.06.03 17:01:31.
