data_PCOD9491467
_publ_section_title
;
Structure prediction by ZEFSAII (Michael W. Deem and Ramdas Pophale) SiO2 
 PCOD9491467
Probable space group: C M M M
;
_chemical_formula_sum "Si O2"
_cell_formula_units_Z 104
_cell_length_a 29.200345
_cell_length_b 8.546008
_cell_length_c 27.630342
_cell_angle_alpha 90.000000
_cell_angle_beta 90.000000
_cell_angle_gamma 90.000000
_cell_volume 6895.051879
_symmetry_space_group_name_H-M "C M M M"
_symmetry_group_IT_number 65
_symmetry_cell_setting 'orthorhombic'
loop_
_space_group_symop_operation_xyz
x,y,z
-x,-y,z
x,-y,-z
-x,y,-z
-x,-y,-z
x,y,-z
-x,y,z
x,-y,z
1/2+x,1/2+y,z
1/2-x,1/2-y,z
1/2+x,1/2-y,-z
1/2-x,1/2+y,-z
1/2-x,1/2-y,-z
1/2+x,1/2+y,-z
1/2-x,1/2+y,z
1/2+x,1/2-y,z
loop_
_atom_site_type_symbol
_atom_site_label
_atom_site_fract_x
_atom_site_fract_y
_atom_site_fract_z
Si Si1 0.697590 0.689400 0.052168
Si Si2 0.858999 0.187045 0.355214
Si Si3 0.302175 0.311007 0.156339
Si Si4 0.198186 0.687868 0.445729
Si Si5 0.301973 0.689479 0.262357
Si Si6 0.947447 0.686547 0.396333
Si Si7 0.055604 0.178061 0.500000
O O1 0.698313 0.500000 0.052152
O O2 0.750000 0.750000 0.052177
O O3 0.677236 0.739759 0.104314
O O4 0.677333 0.739748 0.000000
O O5 0.832291 0.247764 0.402418
O O6 0.833093 0.243046 0.306917
O O7 0.911082 0.243546 0.359417
O O8 0.858028 0.000000 0.355726
O O9 0.301783 0.500000 0.156245
O O10 0.250000 0.250000 0.156169
O O11 0.320408 0.261764 0.209074
O O12 0.182367 0.734648 0.500000
O O13 0.198485 0.500000 0.443541
O O14 0.250000 0.750000 0.440153
O O15 0.300396 0.500000 0.263418
O O16 0.250000 0.750000 0.267830
O O17 0.946823 0.500000 0.393749
O O18 0.932071 0.736612 0.450386
O O19 0.000000 0.740548 0.389292
O O20 0.000000 0.174497 0.500000
O O21 0.072532 0.000000 0.500000
#
# Coordination Sequence:
#
# PCOD9491467 Si02
#       7
#    16  16  16  16  16  16   8
#     4   8  12  17  27  44  65  91 124 161 198 233
#     4  11  22  33  48  67  86 109 139 171 205 247
#     4   8  13  22  34  48  70  98 129 165 202 235
#     4  10  21  36  51  66  86 110 136 168 207 248
#     4   9  18  30  43  60  81 108 140 174 208 239
#     4  10  21  36  52  69  89 110 132 161 200 246
#     4   9  17  31  51  71  88 105 124 149 185 231
#
# _framework density 15.083278999999999
#
# number of rings (size 3 to 8) (size 9 to 14) (size 15 to 20)
#    0.000    2.692    0.000    2.077    1.077    5.231 
#    0.000    0.000    0.000    0.000    0.000    0.000 
#    0.000    0.000    0.000    0.000    0.000    0.769 
#
# Total GULP energy -289497.627347 kJ/mol
# GULP energy per Si atom -5567.262064 kJ/mol
# Density = 1.504895 g / cm^3
# Si number density = 15.083279 Si / 1000 Ang^3
#
#
#
# Elastic Constant Matrix: (Units=GPa)
#
#
# Indices 1 2 3 4 5 6 
#
# 1 49.9149 9.7415 57.0790 0.0000 0.0000 0.0000
# 2 9.7415 20.7035 21.6883 0.0000 0.0000 0.0000
# 3 57.0790 21.6883 159.9509 0.0000 0.0000 0.0000
# 4 0.0000 0.0000 0.0000 9.3058 0.0000 0.0000
# 5 0.0000 0.0000 0.0000 0.0000 3.7899 0.0000
# 6 0.0000 0.0000 0.0000 0.0000 0.0000 16.7208
#
#
#
# Elastic Compliance Matrix: (Units=1/GPa)
#
#
# Indices 1 2 3 4 5 6 
#
# 1 0.034106 -0.003844 -0.011650 0.000000 0.000000 0.000000
# 2 -0.003844 0.056731 -0.006321 0.000000 0.000000 0.000000
# 3 -0.011650 -0.006321 0.011266 0.000000 0.000000 0.000000
# 4 0.000000 0.000000 0.000000 0.107460 0.000000 0.000000
# 5 0.000000 0.000000 0.000000 0.000000 0.263862 0.000000
# 6 0.000000 0.000000 0.000000 0.000000 0.000000 0.059806
#
#
# Mechanical properties :
#
#
# Convention : Reuss Voigt Hill
#
# Bulk Modulus (GPa) = 17.10141 45.28742 31.19442
# Shear Modulus (GPa) = 8.38434 15.43398 11.90916
#
# Velocity S-wave (km/s) = 2.36025 3.20230 2.81296
# Velocity P-wave (km/s) = 4.33478 6.61537 5.59256
#
# Compressibility (1/GPa) = 0.05847470
#
# Stress axis : x y z
#
# Youngs Moduli (GPa) = 29.32042 17.62710 88.76141
#
# Poissons Ratio (x) = 0.06776 1.03404
# Poissons Ratio (y) = 0.11270 0.56103
# Poissons Ratio (z) = 0.34157 0.11141
#
# Static dielectric constant tensor:
#      x y z
#    x 1.480460 0.000000 0.000000 
#    y 0.000000 1.512180 0.000000 
#    z 0.000000 0.000000 1.567390 
# 
# From -- ./inp_files/76241.got.cif
#   From: 2010.05.17/outbox.cif.g08.bks.cpg/sg65_39_cif.got.tgz:76241.got - 2010.06.03 17:01:31.
