data_PCOD9491119
_publ_section_title
;
Structure prediction by ZEFSAII (Michael W. Deem and Ramdas Pophale) SiO2 
 PCOD9491119
Probable space group: C M M M
;
_chemical_formula_sum "Si O2"
_cell_formula_units_Z 88
_cell_length_a 31.437899
_cell_length_b 14.847540
_cell_length_c 8.220020
_cell_angle_alpha 90.000000
_cell_angle_beta 90.000000
_cell_angle_gamma 90.000000
_cell_volume 3836.903641
_symmetry_space_group_name_H-M "C M M M"
_symmetry_group_IT_number 65
_symmetry_cell_setting 'orthorhombic'
loop_
_space_group_symop_operation_xyz
x,y,z
-x,-y,z
x,-y,-z
-x,y,-z
-x,-y,-z
x,y,-z
-x,y,z
x,-y,z
1/2+x,1/2+y,z
1/2-x,1/2-y,z
1/2+x,1/2-y,-z
1/2-x,1/2+y,-z
1/2-x,1/2-y,-z
1/2+x,1/2+y,-z
1/2-x,1/2+y,z
1/2+x,1/2-y,z
loop_
_atom_site_type_symbol
_atom_site_label
_atom_site_fract_x
_atom_site_fract_y
_atom_site_fract_z
Si Si1 0.048575 0.609972 0.000000
Si Si2 0.638263 0.395024 0.695350
Si Si3 0.183642 0.603648 0.186136
Si Si4 0.228804 0.152283 0.816878
Si Si5 0.902886 0.389739 0.323786
Si Si6 0.953943 0.109420 0.305531
O O1 0.071303 0.639160 0.165626
O O2 0.050157 0.500000 0.000000
O O3 0.000000 0.637794 0.000000
O O4 0.635716 0.394548 0.500000
O O5 0.642561 0.500000 0.747156
O O6 0.682345 0.348408 0.742673
O O7 0.592409 0.359296 0.757473
O O8 0.171544 0.500000 0.165405
O O9 0.230841 0.602359 0.260718
O O10 0.145772 0.641230 0.294970
O O11 0.183844 0.642288 0.000000
O O12 0.250000 0.250000 0.822086
O O13 0.224082 0.116055 0.000000
O O14 0.918281 0.357205 0.500000
O O15 0.905094 0.500000 0.329298
O O16 0.954702 0.126885 0.500000
O O17 0.000000 0.140600 0.238774
O O18 0.953060 0.000000 0.288149
#
# Coordination Sequence:
#
# PCOD9491119 Si02
#       6
#     8  16  16  16  16  16
#     4   9  16  26  40  62  95 126 150 186 241 302
#     4   9  17  29  47  72 100 129 165 210 254 299
#     4   9  16  29  48  65  86 120 161 204 250 299
#     4  10  21  34  47  67  97 133 170 206 248 300
#     4   9  16  26  42  65  91 120 156 195 236 287
#     4   7  10  19  38  65  95 124 154 191 237 289
#
# _framework density 22.935161000000001
#
# number of rings (size 3 to 8) (size 9 to 14) (size 15 to 20)
#    0.000    3.182    0.909    2.182    0.000    2.545 
#    0.000    3.636    0.000    0.545    0.000    3.818 
#    0.000    2.909    0.000    0.182    0.000    0.182 
#
# Total GULP energy -245025.909590 kJ/mol
# GULP energy per Si atom -5568.770672 kJ/mol
# Density = 2.288296 g / cm^3
# Si number density = 22.935161 Si / 1000 Ang^3
#
#
#
# Elastic Constant Matrix: (Units=GPa)
#
#
# Indices 1 2 3 4 5 6 
#
# 1 247.3796 20.1425 71.7868 0.0000 0.0000 0.0000
# 2 20.1425 33.8920 8.9960 0.0000 0.0000 0.0000
# 3 71.7868 8.9960 91.1903 0.0000 0.0000 0.0000
# 4 0.0000 0.0000 0.0000 4.0041 0.0000 0.0000
# 5 0.0000 0.0000 0.0000 0.0000 6.7332 0.0000
# 6 0.0000 0.0000 0.0000 0.0000 0.0000 -3.6930
#
#
#
# Elastic Compliance Matrix: (Units=1/GPa)
#
#
# Indices 1 2 3 4 5 6 
#
# 1 0.005385 -0.002131 -0.004029 0.000000 0.000000 0.000000
# 2 -0.002131 0.031142 -0.001395 0.000000 0.000000 0.000000
# 3 -0.004029 -0.001395 0.014275 0.000000 0.000000 0.000000
# 4 0.000000 0.000000 0.000000 0.249743 0.000000 0.000000
# 5 0.000000 0.000000 0.000000 0.000000 0.148519 0.000000
# 6 0.000000 0.000000 0.000000 0.000000 0.000000 -0.270784
#
#
# Mechanical properties :
#
#
# Convention : Reuss Voigt Hill
#
# Bulk Modulus (GPa) = 28.01645 63.81248 45.91447
# Shear Modulus (GPa) = 24.35603 19.51129 21.93366
#
# Velocity S-wave (km/s) = 3.26230 2.91987 3.09582
# Velocity P-wave (km/s) = 5.14122 6.26505 5.73075
#
# Compressibility (1/GPa) = 0.03569332
#
# Stress axis : x y z
#
# Youngs Moduli (GPa) = 185.69914 32.11083 70.05070
#
# Poissons Ratio (x) = 0.06843 0.28223
# Poissons Ratio (y) = 0.39572 0.09770
# Poissons Ratio (z) = 0.74818 0.04478
#
# Static dielectric constant tensor:
#      x y z
#    x 1.924150 0.000000 0.000000 
#    y 0.000000 1.728050 0.000000 
#    z 0.000000 0.000000 1.854030 
# 
# From -- ./inp_files/18351.got.cif
#   From: 2010.05.17/outbox.cif.g08.bks.cpg/sg65_10_cif.got.tgz:18351.got - 2010.06.03 17:01:31.
