data_PCOD9491252
_publ_section_title
;
Structure prediction by ZEFSAII (Michael W. Deem and Ramdas Pophale) SiO2 
 PCOD9491252
Probable space group: C M M M
;
_chemical_formula_sum "Si O2"
_cell_formula_units_Z 80
_cell_length_a 8.974003
_cell_length_b 27.938291
_cell_length_c 19.187269
_cell_angle_alpha 90.000000
_cell_angle_beta 90.000000
_cell_angle_gamma 90.000000
_cell_volume 4810.599604
_symmetry_space_group_name_H-M "C M M M"
_symmetry_group_IT_number 65
_symmetry_cell_setting 'orthorhombic'
loop_
_space_group_symop_operation_xyz
x,y,z
-x,-y,z
x,-y,-z
-x,y,-z
-x,-y,-z
x,y,-z
-x,y,z
x,-y,z
1/2+x,1/2+y,z
1/2-x,1/2-y,z
1/2+x,1/2-y,-z
1/2-x,1/2+y,-z
1/2-x,1/2-y,-z
1/2+x,1/2+y,-z
1/2-x,1/2+y,z
1/2+x,1/2-y,z
loop_
_atom_site_type_symbol
_atom_site_label
_atom_site_fract_x
_atom_site_fract_y
_atom_site_fract_z
Si Si1 0.820870 0.055103 0.855352
Si Si2 0.821400 0.199461 0.209074
Si Si3 0.322184 0.853077 0.080104
Si Si4 0.179384 0.555607 0.421321
Si Si5 0.322170 0.396071 0.710140
O O1 0.737384 0.093657 0.902729
O O2 0.785018 0.069000 0.775185
O O3 0.000000 0.061262 0.863562
O O4 0.783632 0.000000 0.869698
O O5 0.750000 0.250000 0.227696
O O6 0.758028 0.181702 0.134830
O O7 0.782947 0.157122 0.263347
O O8 0.000000 0.202833 0.205243
O O9 0.500000 0.851210 0.090639
O O10 0.289368 0.840972 0.000000
O O11 0.225728 0.569367 0.500000
O O12 0.223502 0.500000 0.410464
O O13 0.244781 0.587588 0.360233
O O14 0.000000 0.557369 0.419008
O O15 0.500000 0.398153 0.700828
#
# Coordination Sequence:
#
# PCOD9491252 Si02
#       5
#    16  16  16  16  16
#     4   9  18  32  49  70  98 132 168 205 246 292
#     4  10  21  37  56  76  97 123 159 203 250 299
#     4  10  21  35  50  71  99 129 163 203 246 294
#     4   9  18  31  47  72 106 139 168 197 232 277
#     4   9  18  32  50  73  99 126 160 202 243 286
#
# _framework density 16.629943000000001
#
# number of rings (size 3 to 8) (size 9 to 14) (size 15 to 20)
#    0.000    2.600    0.000    3.600    0.000    8.400 
#    0.000    3.000    0.000    0.600    0.000    0.000 
#    0.000    0.000    0.000    0.000    0.000    0.000 
#
# Total GULP energy -223118.767116 kJ/mol
# GULP energy per Si atom -5577.969178 kJ/mol
# Density = 1.659209 g / cm^3
# Si number density = 16.629943 Si / 1000 Ang^3
#
#
#
# Elastic Constant Matrix: (Units=GPa)
#
#
# Indices 1 2 3 4 5 6 
#
# 1 35.2346 30.5496 42.5086 0.0000 0.0000 0.0000
# 2 30.5496 71.2004 36.8219 0.0000 0.0000 0.0000
# 3 42.5086 36.8219 111.9322 0.0000 0.0000 0.0000
# 4 0.0000 0.0000 0.0000 8.3093 0.0000 0.0000
# 5 0.0000 0.0000 0.0000 0.0000 27.6612 0.0000
# 6 0.0000 0.0000 0.0000 0.0000 0.0000 29.5574
#
#
#
# Elastic Compliance Matrix: (Units=1/GPa)
#
#
# Indices 1 2 3 4 5 6 
#
# 1 0.069220 -0.019406 -0.019904 0.000000 0.000000 0.000000
# 2 -0.019406 0.022365 0.000013 0.000000 0.000000 0.000000
# 3 -0.019904 0.000013 0.016489 0.000000 0.000000 0.000000
# 4 0.000000 0.000000 0.000000 0.120347 0.000000 0.000000
# 5 0.000000 0.000000 0.000000 0.000000 0.036152 0.000000
# 6 0.000000 0.000000 0.000000 0.000000 0.000000 0.033833
#
#
# Mechanical properties :
#
#
# Convention : Reuss Voigt Hill
#
# Bulk Modulus (GPa) = 33.92291 48.68082 41.30186
# Shear Modulus (GPa) = 12.92572 20.33805 16.63189
#
# Velocity S-wave (km/s) = 2.79096 3.50090 3.16589
# Velocity P-wave (km/s) = 5.55238 6.75857 6.18495
#
# Compressibility (1/GPa) = 0.02947861
#
# Stress axis : x y z
#
# Youngs Moduli (GPa) = 14.44675 44.71289 60.64802
#
# Poissons Ratio (x) = 0.86772 1.20711
# Poissons Ratio (y) = 0.28036 -0.00077
# Poissons Ratio (z) = 0.28754 -0.00057
#
# Static dielectric constant tensor:
#      x y z
#    x 1.555480 0.000000 0.000000 
#    y 0.000000 1.552410 0.000000 
#    z 0.000000 0.000000 1.544760 
# 
# From -- ./inp_files/49853.got.cif
#   From: 2010.05.17/outbox.cif.g08.bks.cpg/sg65_25_cif.got.tgz:49853.got - 2010.06.03 17:01:31.
