data_PCOD9491937
_publ_section_title
;
Structure prediction by ZEFSAII (Michael W. Deem and Ramdas Pophale) SiO2 
 PCOD9491937
Probable space group: C M M M
;
_chemical_formula_sum "Si O2"
_cell_formula_units_Z 104
_cell_length_a 8.455744
_cell_length_b 18.398867
_cell_length_c 35.008852
_cell_angle_alpha 90.000000
_cell_angle_beta 90.000000
_cell_angle_gamma 90.000000
_cell_volume 5446.540983
_symmetry_space_group_name_H-M "C M M M"
_symmetry_group_IT_number 65
_symmetry_cell_setting 'orthorhombic'
loop_
_space_group_symop_operation_xyz
x,y,z
-x,-y,z
x,-y,-z
-x,y,-z
-x,-y,-z
x,y,-z
-x,y,z
x,-y,z
1/2+x,1/2+y,z
1/2-x,1/2-y,z
1/2+x,1/2-y,-z
1/2-x,1/2+y,-z
1/2-x,1/2-y,-z
1/2+x,1/2+y,-z
1/2-x,1/2+y,z
1/2+x,1/2-y,z
loop_
_atom_site_type_symbol
_atom_site_label
_atom_site_fract_x
_atom_site_fract_y
_atom_site_fract_z
Si Si1 0.308789 0.833434 0.958962
Si Si2 0.192917 0.916266 0.500000
Si Si3 0.308347 0.916117 0.200312
Si Si4 0.688212 0.332205 0.274644
Si Si5 0.689838 0.332329 0.423637
Si Si6 0.810228 0.583998 0.349079
Si Si7 0.308597 0.167062 0.124420
O O1 0.500000 0.833940 0.959061
O O2 0.250000 0.750000 0.959017
O O3 0.257933 0.862597 0.917460
O O4 0.256592 0.865823 0.000000
O O5 0.243873 0.874327 0.461851
O O6 0.000000 0.916652 0.500000
O O7 0.245287 0.000000 0.500000
O O8 0.500000 0.914331 0.201161
O O9 0.246356 0.870427 0.235957
O O10 0.255677 0.880362 0.160364
O O11 0.258593 0.000000 0.203075
O O12 0.500000 0.331370 0.275425
O O13 0.750000 0.250000 0.276298
O O14 0.750594 0.376725 0.310987
O O15 0.500000 0.331851 0.423303
O O16 0.750000 0.250000 0.423845
O O17 0.749209 0.373964 0.386220
O O18 0.757490 0.500000 0.349857
O O19 0.000000 0.585395 0.349060
O O20 0.500000 0.168299 0.124830
O O21 0.250000 0.250000 0.128291
#
# Coordination Sequence:
#
# PCOD9491937 Si02
#       7
#    16   8  16  16  16  16  16
#     4   8  13  22  38  62  92 124 161 207 256 306
#     4   9  19  36  59  87 118 155 198 243 290 338
#     4  10  21  37  55  76 106 142 178 219 269 323
#     4  12  25  41  62  86 112 142 180 224 271 325
#     4  11  22  38  61  88 121 158 198 241 284 333
#     4  11  24  42  63  88 119 152 187 229 278 330
#     4   9  17  29  47  71  98 131 170 213 263 315
#
# _framework density 19.094688999999999
#
# number of rings (size 3 to 8) (size 9 to 14) (size 15 to 20)
#    0.000    1.923    0.000    4.385    0.000    5.846 
#    0.000    1.154    0.000    3.231    0.000    3.231 
#    0.000    0.000    0.000   26.308    0.000   13.231 
#
# Total GULP energy -290322.888662 kJ/mol
# GULP energy per Si atom -5583.132474 kJ/mol
# Density = 1.905123 g / cm^3
# Si number density = 19.094689 Si / 1000 Ang^3
#
#
#
# Elastic Constant Matrix: (Units=GPa)
#
#
# Indices 1 2 3 4 5 6 
#
# 1 35.9507 31.8315 36.4822 0.0000 0.0000 0.0000
# 2 31.8315 162.0788 113.2344 0.0000 0.0000 0.0000
# 3 36.4822 113.2344 233.7828 0.0000 0.0000 0.0000
# 4 0.0000 0.0000 0.0000 -51.9254 0.0000 0.0000
# 5 0.0000 0.0000 0.0000 0.0000 41.7044 0.0000
# 6 0.0000 0.0000 0.0000 0.0000 0.0000 16.9730
#
#
#
# Elastic Compliance Matrix: (Units=1/GPa)
#
#
# Indices 1 2 3 4 5 6 
#
# 1 0.035227 -0.004652 -0.003244 0.000000 0.000000 0.000000
# 2 -0.004652 0.009940 -0.004088 0.000000 0.000000 0.000000
# 3 -0.003244 -0.004088 0.006764 0.000000 0.000000 0.000000
# 4 0.000000 0.000000 0.000000 -0.019258 0.000000 0.000000
# 5 0.000000 0.000000 0.000000 0.000000 0.023978 0.000000
# 6 0.000000 0.000000 0.000000 0.000000 0.000000 0.058917
#
#
# Mechanical properties :
#
#
# Convention : Reuss Voigt Hill
#
# Bulk Modulus (GPa) = 35.76322 88.32318 62.04320
# Shear Modulus (GPa) = 33.58927 18.03468 25.81197
#
# Velocity S-wave (km/s) = 4.19870 3.07658 3.68066
# Velocity P-wave (km/s) = 6.50196 7.67960 7.11519
#
# Compressibility (1/GPa) = 0.02796169
#
# Stress axis : x y z
#
# Youngs Moduli (GPa) = 28.38749 100.60529 147.84181
#
# Poissons Ratio (x) = 0.46802 0.47959
# Poissons Ratio (y) = 0.13206 0.60445
# Poissons Ratio (z) = 0.09209 0.41132
#
# Static dielectric constant tensor:
#      x y z
#    x 1.581850 0.000000 0.000000 
#    y 0.000000 1.629390 0.000000 
#    z 0.000000 0.000000 1.677550 
# 
# From -- ./inp_files/76943.got.cif
#   From: 2010.05.17/outbox.cif.g08.bks.cpg/sg65_39_cif.got.tgz:76943.got - 2010.06.03 17:01:31.
