data_PCOD9491049
_publ_section_title
;
Structure prediction by ZEFSAII (Michael W. Deem and Ramdas Pophale) SiO2 
 PCOD9491049
Probable space group: C M M M
;
_chemical_formula_sum "Si O2"
_cell_formula_units_Z 68
_cell_length_a 7.374370
_cell_length_b 25.415378
_cell_length_c 17.649470
_cell_angle_alpha 90.000000
_cell_angle_beta 90.000000
_cell_angle_gamma 90.000000
_cell_volume 3307.906045
_symmetry_space_group_name_H-M "C M M M"
_symmetry_group_IT_number 65
_symmetry_cell_setting 'orthorhombic'
loop_
_space_group_symop_operation_xyz
x,y,z
-x,-y,z
x,-y,-z
-x,y,-z
-x,-y,-z
x,y,-z
-x,y,z
x,-y,z
1/2+x,1/2+y,z
1/2-x,1/2-y,z
1/2+x,1/2-y,-z
1/2-x,1/2+y,-z
1/2-x,1/2-y,-z
1/2+x,1/2+y,-z
1/2-x,1/2+y,z
1/2+x,1/2-y,z
loop_
_atom_site_type_symbol
_atom_site_label
_atom_site_fract_x
_atom_site_fract_y
_atom_site_fract_z
Si Si1 0.784575 0.810566 0.172059
Si Si2 0.279149 0.585353 0.416908
Si Si3 0.000000 0.615801 0.090193
Si Si4 0.715478 0.308611 0.347171
Si Si5 0.500000 0.000000 0.160489
Si Si6 0.218080 0.000000 0.293531
O O1 0.750000 0.750000 0.147248
O O2 0.672030 0.852775 0.124699
O O3 0.720625 0.813100 0.260095
O O4 0.000000 0.820524 0.168760
O O5 0.218134 0.567563 0.500000
O O6 0.500000 0.583686 0.418911
O O7 0.217535 0.644442 0.399352
O O8 0.229420 0.549442 0.346029
O O9 0.000000 0.554591 0.114388
O O10 0.000000 0.619851 0.000000
O O11 0.500000 0.314905 0.342839
O O12 0.750000 0.250000 0.375491
O O13 0.674228 0.000000 0.215878
O O14 0.000000 0.000000 0.282230
#
# Coordination Sequence:
#
# PCOD9491049 Si02
#       6
#    16  16   8  16   4   8
#     4  10  20  40  66  97 128 164 212 262 308 368
#     4   9  17  32  55  83 116 154 199 252 307 357
#     4  12  27  44  66  95 131 167 201 254 326 391
#     4   9  18  31  52  80 114 156 201 241 291 358
#     4  12  27  46  67  92 126 166 216 262 307 384
#     4  10  21  41  67  89 111 159 211 263 308 359
#
# _framework density 20.556812999999998
#
# number of rings (size 3 to 8) (size 9 to 14) (size 15 to 20)
#    0.000    2.118    1.176    1.941    1.647    5.647 
#    2.118    1.176    0.000    2.118    0.000    0.000 
#    0.000    0.000    0.000    0.000    0.000    0.000 
#
# Total GULP energy -189928.651676 kJ/mol
# GULP energy per Si atom -5586.136814 kJ/mol
# Density = 2.051002 g / cm^3
# Si number density = 20.556813 Si / 1000 Ang^3
#
#
#
# Elastic Constant Matrix: (Units=GPa)
#
#
# Indices 1 2 3 4 5 6 
#
# 1 100.7771 15.0585 11.4108 0.0000 0.0000 0.0000
# 2 15.0585 114.0724 20.4991 0.0000 0.0000 0.0000
# 3 11.4108 20.4991 41.5237 0.0000 0.0000 0.0000
# 4 0.0000 0.0000 0.0000 18.9523 0.0000 0.0000
# 5 0.0000 0.0000 0.0000 0.0000 20.7961 0.0000
# 6 0.0000 0.0000 0.0000 0.0000 0.0000 21.1879
#
#
#
# Elastic Compliance Matrix: (Units=1/GPa)
#
#
# Indices 1 2 3 4 5 6 
#
# 1 0.010332 -0.000937 -0.002377 0.000000 0.000000 0.000000
# 2 -0.000937 0.009705 -0.004534 0.000000 0.000000 0.000000
# 3 -0.002377 -0.004534 0.026974 0.000000 0.000000 0.000000
# 4 0.000000 0.000000 0.000000 0.052764 0.000000 0.000000
# 5 0.000000 0.000000 0.000000 0.000000 0.048086 0.000000
# 6 0.000000 0.000000 0.000000 0.000000 0.000000 0.047197
#
#
# Mechanical properties :
#
#
# Convention : Reuss Voigt Hill
#
# Bulk Modulus (GPa) = 31.93220 38.92333 35.42776
# Shear Modulus (GPa) = 22.60495 26.14756 24.37625
#
# Velocity S-wave (km/s) = 3.31967 3.57033 3.44728
# Velocity P-wave (km/s) = 5.50100 5.99766 5.75469
#
# Compressibility (1/GPa) = 0.03131636
#
# Stress axis : x y z
#
# Youngs Moduli (GPa) = 96.78678 103.04272 37.07297
#
# Poissons Ratio (x) = 0.09653 0.08811
# Poissons Ratio (y) = 0.09067 0.16807
# Poissons Ratio (z) = 0.23004 0.46714
#
# Static dielectric constant tensor:
#      x y z
#    x 1.768170 0.000000 0.000000 
#    y 0.000000 1.756700 0.000000 
#    z 0.000000 0.000000 1.687840 
# 
# From -- ./inp_files/49279.got.cif
#   From: 2010.05.17/outbox.cif.g08.bks.cpg/sg65_25_cif.got.tgz:49279.got - 2010.06.03 17:01:31.
