data_PCOD9491241
_publ_section_title
;
Structure prediction by ZEFSAII (Michael W. Deem and Ramdas Pophale) SiO2 
 PCOD9491241
Probable space group: C M M M
;
_chemical_formula_sum "Si O2"
_cell_formula_units_Z 88
_cell_length_a 8.798017
_cell_length_b 27.966661
_cell_length_c 22.157505
_cell_angle_alpha 90.000000
_cell_angle_beta 90.000000
_cell_angle_gamma 90.000000
_cell_volume 5451.879784
_symmetry_space_group_name_H-M "C M M M"
_symmetry_group_IT_number 65
_symmetry_cell_setting 'orthorhombic'
loop_
_space_group_symop_operation_xyz
x,y,z
-x,-y,z
x,-y,-z
-x,y,-z
-x,-y,-z
x,y,-z
-x,y,z
x,-y,z
1/2+x,1/2+y,z
1/2-x,1/2-y,z
1/2+x,1/2-y,-z
1/2-x,1/2+y,-z
1/2-x,1/2-y,-z
1/2+x,1/2+y,-z
1/2-x,1/2+y,z
1/2+x,1/2-y,z
loop_
_atom_site_type_symbol
_atom_site_label
_atom_site_fract_x
_atom_site_fract_y
_atom_site_fract_z
Si Si1 0.681792 0.352182 0.431316
Si Si2 0.182096 0.603295 0.248496
Si Si3 0.816880 0.554697 0.374262
Si Si4 0.181988 0.698901 0.316668
Si Si5 0.176481 0.941866 0.000000
Si Si6 0.683913 0.444425 0.868332
O O1 0.723618 0.340145 0.500000
O O2 0.500000 0.349712 0.425293
O O3 0.737509 0.405762 0.415532
O O4 0.757601 0.317872 0.381973
O O5 0.220372 0.568552 0.304894
O O6 0.225622 0.656394 0.270629
O O7 0.258140 0.586410 0.187182
O O8 0.000000 0.601862 0.241363
O O9 0.775047 0.500000 0.387228
O O10 0.000000 0.559529 0.380614
O O11 0.250000 0.750000 0.300512
O O12 0.000000 0.701141 0.318630
O O13 0.241323 0.927970 0.065299
O O14 0.000000 0.926514 0.000000
O O15 0.176074 0.000000 0.000000
O O16 0.500000 0.443579 0.869980
O O17 0.729584 0.500000 0.859584
#
# Coordination Sequence:
#
# PCOD9491241 Si02
#       6
#    16  16  16  16   8  16
#     4  10  21  35  50  70  95 121 151 188 229 275
#     4   9  18  31  46  67  94 120 148 186 231 275
#     4   9  18  32  48  66  92 127 161 192 229 272
#     4  10  21  37  55  72  91 116 147 187 235 283
#     4   7  12  24  39  59  92 129 162 193 220 251
#     4   9  16  26  43  67  95 129 164 192 219 256
#
# _framework density 16.141223
#
# number of rings (size 3 to 8) (size 9 to 14) (size 15 to 20)
#    0.000    2.818    0.000    3.818    0.000    7.273 
#    0.000    2.273    0.000    1.636    0.000    0.636 
#    0.000    0.000    0.000    0.000    0.000    0.000 
#
# Total GULP energy -245216.147344 kJ/mol
# GULP energy per Si atom -5573.094258 kJ/mol
# Density = 1.610448 g / cm^3
# Si number density = 16.141223 Si / 1000 Ang^3
#
#
#
# Elastic Constant Matrix: (Units=GPa)
#
#
# Indices 1 2 3 4 5 6 
#
# 1 21.0045 21.5771 29.8840 0.0000 0.0000 0.0000
# 2 21.5771 71.4428 33.1334 0.0000 0.0000 0.0000
# 3 29.8840 33.1334 121.3835 0.0000 0.0000 0.0000
# 4 0.0000 0.0000 0.0000 9.7670 0.0000 0.0000
# 5 0.0000 0.0000 0.0000 0.0000 -3.8067 0.0000
# 6 0.0000 0.0000 0.0000 0.0000 0.0000 25.1667
#
#
#
# Elastic Compliance Matrix: (Units=1/GPa)
#
#
# Indices 1 2 3 4 5 6 
#
# 1 0.092927 -0.019986 -0.017423 0.000000 0.000000 0.000000
# 2 -0.019986 0.020324 -0.000627 0.000000 0.000000 0.000000
# 3 -0.017423 -0.000627 0.012699 0.000000 0.000000 0.000000
# 4 0.000000 0.000000 0.000000 0.102386 0.000000 0.000000
# 5 0.000000 0.000000 0.000000 0.000000 -0.262695 0.000000
# 6 0.000000 0.000000 0.000000 0.000000 0.000000 0.039735
#
#
# Mechanical properties :
#
#
# Convention : Reuss Voigt Hill
#
# Bulk Modulus (GPa) = 20.04857 42.55776 31.30316
# Shear Modulus (GPa) = 50.98167 14.84115 32.91141
#
# Velocity S-wave (km/s) = 5.62613 3.03554 4.52039
# Velocity P-wave (km/s) = 7.39271 6.22167 6.83232
#
# Compressibility (1/GPa) = 0.04987887
#
# Stress axis : x y z
#
# Youngs Moduli (GPa) = 10.76108 49.20238 78.74586
#
# Poissons Ratio (x) = 0.98334 1.37199
# Poissons Ratio (y) = 0.21507 0.04941
# Poissons Ratio (z) = 0.18749 0.03087
#
# Static dielectric constant tensor:
#      x y z
#    x 1.544860 0.000000 0.000000 
#    y 0.000000 1.527210 0.000000 
#    z 0.000000 0.000000 1.548350 
# 
# From -- ./inp_files/60637.got.cif
#   From: 2010.05.17/outbox.cif.g08.bks.cpg/sg65_31_cif.got.tgz:60637.got - 2010.06.03 17:01:31.
