data_PCOD9491071
_publ_section_title
;
Structure prediction by ZEFSAII (Michael W. Deem and Ramdas Pophale) SiO2 
 PCOD9491071
Probable space group: C M M M
;
_chemical_formula_sum "Si O2"
_cell_formula_units_Z 48
_cell_length_a 8.267279
_cell_length_b 19.354442
_cell_length_c 14.386833
_cell_angle_alpha 90.000000
_cell_angle_beta 90.000000
_cell_angle_gamma 90.000000
_cell_volume 2302.016603
_symmetry_space_group_name_H-M "C M M M"
_symmetry_group_IT_number 65
_symmetry_cell_setting 'orthorhombic'
loop_
_space_group_symop_operation_xyz
x,y,z
-x,-y,z
x,-y,-z
-x,y,-z
-x,-y,-z
x,y,-z
-x,y,z
x,-y,z
1/2+x,1/2+y,z
1/2-x,1/2-y,z
1/2+x,1/2-y,-z
1/2-x,1/2+y,-z
1/2-x,1/2-y,-z
1/2+x,1/2+y,-z
1/2-x,1/2+y,z
1/2+x,1/2-y,z
loop_
_atom_site_type_symbol
_atom_site_label
_atom_site_fract_x
_atom_site_fract_y
_atom_site_fract_z
Si Si1 0.500000 0.768484 0.389116
Si Si2 0.176846 0.386815 0.702385
Si Si3 0.000000 0.104780 0.389936
Si Si4 0.807166 0.082858 0.104639
O O1 0.500000 0.777441 0.500000
O O2 0.352813 0.812636 0.345873
O O3 0.500000 0.687491 0.370514
O O4 0.333702 0.420770 0.655920
O O5 0.213985 0.381647 0.811461
O O6 0.000000 0.420948 0.689548
O O7 0.000000 0.093084 0.500000
O O8 0.000000 0.094951 0.114223
O O9 0.782361 0.000000 0.113008
O O10 0.758830 0.103168 0.000000
#
# Coordination Sequence:
#
# PCOD9491071 Si02
#       4
#     8  16   8  16
#     4   9  20  36  54  81 110 142 186 223 258 314
#     4  10  21  32  54  86 111 136 178 228 269 315
#     4  11  20  36  58  77 110 150 182 223 264 308
#     4   9  18  36  61  83 105 139 181 222 269 326
#
# _framework density 20.851282999999999
#
# number of rings (size 3 to 8) (size 9 to 14) (size 15 to 20)
#    1.000    1.333    1.667    3.000    0.000    4.000 
#    0.000    1.667    0.000   12.000    0.000    0.000 
#    0.000    0.000    0.000    0.000    0.000    0.000 
#
# Total GULP energy -133767.343892 kJ/mol
# GULP energy per Si atom -5573.639329 kJ/mol
# Density = 2.080383 g / cm^3
# Si number density = 20.851283 Si / 1000 Ang^3
#
#
#
# Elastic Constant Matrix: (Units=GPa)
#
#
# Indices 1 2 3 4 5 6 
#
# 1 165.1209 17.1812 72.1570 0.0000 0.0000 0.0000
# 2 17.1812 77.9159 39.2881 0.0000 0.0000 0.0000
# 3 72.1570 39.2881 127.9765 0.0000 0.0000 0.0000
# 4 0.0000 0.0000 0.0000-8168.1283 0.0000 0.0000
# 5 0.0000 0.0000 0.0000 0.0000 36.8138 0.0000
# 6 0.0000 0.0000 0.0000 0.0000 0.0000 -138.9793
#
#
#
# Elastic Compliance Matrix: (Units=1/GPa)
#
#
# Indices 1 2 3 4 5 6 
#
# 1 0.008061 0.000608 -0.004732 0.000000 0.000000 0.000000
# 2 0.000608 0.015231 -0.005019 0.000000 0.000000 0.000000
# 3 -0.004732 -0.005019 0.012022 0.000000 0.000000 0.000000
# 4 0.000000 0.000000 0.000000 -0.000122 0.000000 0.000000
# 5 0.000000 0.000000 0.000000 0.000000 0.027164 0.000000
# 6 0.000000 0.000000 0.000000 0.000000 0.000000 -0.007195
#
#
# Mechanical properties :
#
#
# Convention : Reuss Voigt Hill
#
# Bulk Modulus (GPa) = 58.72019 69.80734 64.26376
# Shear Modulus (GPa) = 63.19479 -1637.89964 -787.35242
#
# Velocity S-wave (km/s) = 5.51119 -28.05745 -19.45311
# Velocity P-wave (km/s) = 8.28976 31.87594 21.76414
#
# Compressibility (1/GPa) = 0.01702992
#
# Stress axis : x y z
#
# Youngs Moduli (GPa) = 124.06146 65.65613 83.17752
#
# Poissons Ratio (x) = -0.03994 0.39356
# Poissons Ratio (y) = -0.07548 0.41745
# Poissons Ratio (z) = 0.58700 0.32952
#
# Static dielectric constant tensor:
#      x y z
#    x 1.872880 0.000000 0.000000 
#    y 0.000000 1.737100 0.000000 
#    z 0.000000 0.000000 1.717320 
# 
# From -- ./inp_files/33041.got.cif
#   From: 2010.05.17/outbox.cif.g08.bks.cpg/sg65_17_cif.got.tgz:33041.got - 2010.06.03 17:01:31.
