data_PCOD9491914
_publ_section_title
;
Structure prediction by ZEFSAII (Michael W. Deem and Ramdas Pophale) SiO2 
 PCOD9491914
Probable space group: C M M M
;
_chemical_formula_sum "Si O2"
_cell_formula_units_Z 96
_cell_length_a 9.184532
_cell_length_b 25.924540
_cell_length_c 27.918669
_cell_angle_alpha 90.000000
_cell_angle_beta 90.000000
_cell_angle_gamma 90.000000
_cell_volume 6647.568183
_symmetry_space_group_name_H-M "C M M M"
_symmetry_group_IT_number 65
_symmetry_cell_setting 'orthorhombic'
loop_
_space_group_symop_operation_xyz
x,y,z
-x,-y,z
x,-y,-z
-x,y,-z
-x,-y,-z
x,y,-z
-x,y,z
x,-y,z
1/2+x,1/2+y,z
1/2-x,1/2-y,z
1/2+x,1/2-y,-z
1/2-x,1/2+y,-z
1/2-x,1/2-y,-z
1/2+x,1/2+y,-z
1/2-x,1/2+y,z
1/2+x,1/2-y,z
loop_
_atom_site_type_symbol
_atom_site_label
_atom_site_fract_x
_atom_site_fract_y
_atom_site_fract_z
Si Si1 0.174979 0.901539 0.105401
Si Si2 0.832189 0.437131 0.500000
Si Si3 0.172298 0.695514 0.057164
Si Si4 0.832235 0.562813 0.692502
Si Si5 0.827449 0.060796 0.789048
Si Si6 0.832200 0.937115 0.403597
Si Si7 0.672010 0.000000 0.057484
O O1 0.247021 0.849873 0.085239
O O2 0.203124 0.909237 0.162010
O O3 0.248513 0.949820 0.078537
O O4 0.000000 0.901998 0.098151
O O5 0.830390 0.500000 0.500000
O O6 0.751197 0.420571 0.548417
O O7 0.000000 0.421036 0.500000
O O8 0.250000 0.750000 0.067080
O O9 0.000000 0.697416 0.068314
O O10 0.185826 0.685690 0.000000
O O11 0.827686 0.500000 0.692460
O O12 0.759103 0.578893 0.742368
O O13 0.745893 0.579807 0.645237
O O14 0.000000 0.578454 0.689935
O O15 0.000000 0.063878 0.779099
O O16 0.793686 0.000000 0.797452
O O17 0.000000 0.921157 0.404650
O O18 0.829876 0.000000 0.403506
O O19 0.500000 0.000000 0.070193
O O20 0.682498 0.000000 0.000000
#
# Coordination Sequence:
#
# PCOD9491914 Si02
#       7
#    16   8  16  16  16  16   8
#     4  11  21  34  51  71  93 119 148 181 220 264
#     4   9  15  21  29  41  59  81 111 157 204 245
#     4  10  21  37  55  74  94 117 146 180 218 261
#     4   9  16  24  35  51  69  93 127 164 203 245
#     4   9  17  30  43  58  82 110 139 170 208 254
#     4   9  15  22  31  43  60  86 118 155 201 249
#     4  11  23  35  47  67  95 123 149 178 215 262
#
# _framework density 14.441371
#
# number of rings (size 3 to 8) (size 9 to 14) (size 15 to 20)
#    0.000    2.333    0.833    3.000    0.000   10.000 
#    0.000    0.000    0.000    0.000    0.000    0.000 
#    0.000    0.000    0.000    0.000    0.000    0.000 
#
# Total GULP energy -267609.247376 kJ/mol
# GULP energy per Si atom -5575.192654 kJ/mol
# Density = 1.440850 g / cm^3
# Si number density = 14.441371 Si / 1000 Ang^3
#
#
#
# Elastic Constant Matrix: (Units=GPa)
#
#
# Indices 1 2 3 4 5 6 
#
# 1 139.0842 49.0345 101.1176 0.0000 0.0000 0.0000
# 2 49.0345 57.6582 51.2799 0.0000 0.0000 0.0000
# 3 101.1176 51.2799 130.5652 0.0000 0.0000 0.0000
# 4 0.0000 0.0000 0.0000 2.6878 0.0000 0.0000
# 5 0.0000 0.0000 0.0000 0.0000 25.9668 0.0000
# 6 0.0000 0.0000 0.0000 0.0000 0.0000 16.0747
#
#
#
# Elastic Compliance Matrix: (Units=1/GPa)
#
#
# Indices 1 2 3 4 5 6 
#
# 1 0.017107 -0.004250 -0.011579 0.000000 0.000000 0.000000
# 2 -0.004250 0.027710 -0.007592 0.000000 0.000000 0.000000
# 3 -0.011579 -0.007592 0.019608 0.000000 0.000000 0.000000
# 4 0.000000 0.000000 0.000000 0.372057 0.000000 0.000000
# 5 0.000000 0.000000 0.000000 0.000000 0.038511 0.000000
# 6 0.000000 0.000000 0.000000 0.000000 0.000000 0.062209
#
#
# Mechanical properties :
#
#
# Convention : Reuss Voigt Hill
#
# Bulk Modulus (GPa) = 56.87297 81.13017 69.00157
# Shear Modulus (GPa) = 8.47595 17.33756 12.90676
#
# Velocity S-wave (km/s) = 2.42527 3.46865 2.99278
# Velocity P-wave (km/s) = 6.87823 8.50547 7.73476
#
# Compressibility (1/GPa) = 0.01758305
#
# Stress axis : x y z
#
# Youngs Moduli (GPa) = 58.45726 36.08848 50.99847
#
# Poissons Ratio (x) = 0.15336 0.59052
# Poissons Ratio (y) = 0.24842 0.38717
# Poissons Ratio (z) = 0.67689 0.27398
#
# Static dielectric constant tensor:
#      x y z
#    x 1.483470 0.000000 0.000000 
#    y 0.000000 1.437560 0.000000 
#    z 0.000000 0.000000 1.475420 
# 
# From -- ./inp_files/73519.got.cif
#   From: 2010.05.17/outbox.cif.g08.bks.cpg/sg65_37_cif.got.tgz:73519.got - 2010.06.03 17:01:31.
