data_PCOD9491833
_publ_section_title
;
Structure prediction by ZEFSAII (Michael W. Deem and Ramdas Pophale) SiO2 
 PCOD9491833
Probable space group: C M M M
;
_chemical_formula_sum "Si O2"
_cell_formula_units_Z 100
_cell_length_a 25.122028
_cell_length_b 10.674121
_cell_length_c 20.233390
_cell_angle_alpha 90.000000
_cell_angle_beta 90.000000
_cell_angle_gamma 90.000000
_cell_volume 5425.696160
_symmetry_space_group_name_H-M "C M M M"
_symmetry_group_IT_number 65
_symmetry_cell_setting 'orthorhombic'
loop_
_space_group_symop_operation_xyz
x,y,z
-x,-y,z
x,-y,-z
-x,y,-z
-x,-y,-z
x,y,-z
-x,y,z
x,-y,z
1/2+x,1/2+y,z
1/2-x,1/2-y,z
1/2+x,1/2-y,-z
1/2-x,1/2+y,-z
1/2-x,1/2-y,-z
1/2+x,1/2+y,-z
1/2-x,1/2+y,z
1/2+x,1/2-y,z
loop_
_atom_site_type_symbol
_atom_site_label
_atom_site_fract_x
_atom_site_fract_y
_atom_site_fract_z
Si Si1 0.087989 0.141329 0.424433
Si Si2 0.404467 0.704791 0.202563
Si Si3 0.712915 0.363414 0.762135
Si Si4 0.212191 0.861650 0.602421
Si Si5 0.562180 0.140337 0.322777
Si Si6 0.564264 0.854514 0.075562
Si Si7 0.000000 0.000000 0.779993
O O1 0.069424 0.153383 0.500000
O O2 0.152137 0.147662 0.423435
O O3 0.068600 0.253204 0.378389
O O4 0.073174 0.000000 0.400283
O O5 0.346404 0.645500 0.209729
O O6 0.407239 0.813273 0.258137
O O7 0.412470 0.764222 0.130663
O O8 0.452603 0.609206 0.217747
O O9 0.736178 0.500000 0.777689
O O10 0.750000 0.250000 0.784713
O O11 0.708255 0.354896 0.682239
O O12 0.250000 0.750000 0.579945
O O13 0.233103 0.000000 0.585027
O O14 0.500000 0.134877 0.305552
O O15 0.578941 0.000000 0.343767
O O16 0.500000 0.846729 0.079702
O O17 0.578528 0.000000 0.087700
O O18 0.579177 0.822810 0.000000
#
# Coordination Sequence:
#
# PCOD9491833 Si02
#       7
#    16  16  16  16  16  16   4
#     4  10  22  39  58  79 107 147 189 232 290 360
#     4  12  21  37  60  91 123 154 202 243 304 358
#     4  10  21  36  57  84 119 156 197 245 297 353
#     4   9  18  34  54  78 107 140 182 233 287 343
#     4  11  24  38  57  83 112 147 189 243 297 349
#     4   9  18  34  56  84 122 163 198 240 298 361
#     4  12  24  32  63  98 121 166 190 254 310 354
#
# _framework density 18.430814999999999
#
# number of rings (size 3 to 8) (size 9 to 14) (size 15 to 20)
#    0.000    1.760    4.000    0.960    1.120    4.480 
#    0.000    2.400    0.000    0.480    0.000    0.000 
#    0.000    0.000    0.000    0.000    0.000    0.000 
#
# Total GULP energy -278545.143893 kJ/mol
# GULP energy per Si atom -5570.902878 kJ/mol
# Density = 1.838887 g / cm^3
# Si number density = 18.430815 Si / 1000 Ang^3
#
#
#
# Elastic Constant Matrix: (Units=GPa)
#
#
# Indices 1 2 3 4 5 6 
#
# 1 65.1756 38.6463 -0.2050 0.0000 0.0000 0.0000
# 2 38.6463 143.7755 48.0057 0.0000 0.0000 0.0000
# 3 -0.2050 48.0057 62.8488 0.0000 0.0000 0.0000
# 4 0.0000 0.0000 0.0000 6.1286 0.0000 0.0000
# 5 0.0000 0.0000 0.0000 0.0000 21.7630 0.0000
# 6 0.0000 0.0000 0.0000 0.0000 0.0000 28.7996
#
#
#
# Elastic Compliance Matrix: (Units=1/GPa)
#
#
# Indices 1 2 3 4 5 6 
#
# 1 0.019563 -0.007087 0.005477 0.000000 0.000000 0.000000
# 2 -0.007087 0.011904 -0.009116 0.000000 0.000000 0.000000
# 3 0.005477 -0.009116 0.022892 0.000000 0.000000 0.000000
# 4 0.000000 0.000000 0.000000 0.163169 0.000000 0.000000
# 5 0.000000 0.000000 0.000000 0.000000 0.045949 0.000000
# 6 0.000000 0.000000 0.000000 0.000000 0.000000 0.034723
#
#
# Mechanical properties :
#
#
# Convention : Reuss Voigt Hill
#
# Bulk Modulus (GPa) = 30.38838 49.41041 39.89939
# Shear Modulus (GPa) = 15.12308 23.69512 19.40910
#
# Velocity S-wave (km/s) = 2.86760 3.58945 3.24864
# Velocity P-wave (km/s) = 5.24288 6.63669 5.98053
#
# Compressibility (1/GPa) = 0.03290732
#
# Stress axis : x y z
#
# Youngs Moduli (GPa) = 51.11742 84.00559 43.68355
#
# Poissons Ratio (x) = 0.59537 -0.23927
# Poissons Ratio (y) = 0.36228 0.39821
# Poissons Ratio (z) = -0.27998 0.76577
#
# Static dielectric constant tensor:
#      x y z
#    x 1.616680 0.000000 0.000000 
#    y 0.000000 1.670240 0.000000 
#    z 0.000000 0.000000 1.639470 
# 
# From -- ./inp_files/65886.got.cif
#   From: 2010.05.17/outbox.cif.g08.bks.cpg/sg65_33_cif.got.tgz:65886.got - 2010.06.03 17:01:31.
