data_PCOD9491575
_publ_section_title
;
Structure prediction by ZEFSAII (Michael W. Deem and Ramdas Pophale) SiO2 
 PCOD9491575
Probable space group: C M M M
;
_chemical_formula_sum "Si O2"
_cell_formula_units_Z 112
_cell_length_a 17.993024
_cell_length_b 25.643218
_cell_length_c 14.088167
_cell_angle_alpha 90.000000
_cell_angle_beta 90.000000
_cell_angle_gamma 90.000000
_cell_volume 6500.266686
_symmetry_space_group_name_H-M "C M M M"
_symmetry_group_IT_number 65
_symmetry_cell_setting 'orthorhombic'
loop_
_space_group_symop_operation_xyz
x,y,z
-x,-y,z
x,-y,-z
-x,y,-z
-x,-y,-z
x,y,-z
-x,y,z
x,-y,z
1/2+x,1/2+y,z
1/2-x,1/2-y,z
1/2+x,1/2-y,-z
1/2-x,1/2+y,-z
1/2-x,1/2-y,-z
1/2+x,1/2+y,-z
1/2-x,1/2+y,z
1/2+x,1/2-y,z
loop_
_atom_site_type_symbol
_atom_site_label
_atom_site_fract_x
_atom_site_fract_y
_atom_site_fract_z
Si Si1 0.917043 0.637230 0.612584
Si Si2 0.088849 0.061690 0.110513
Si Si3 0.586914 0.940659 0.776225
Si Si4 0.331549 0.850676 0.887792
Si Si5 0.911409 0.242126 0.110793
Si Si6 0.174369 0.151550 0.787131
Si Si7 0.259996 0.188609 0.612489
O O1 0.915955 0.628450 0.500000
O O2 0.908694 0.584023 0.671244
O O3 0.845115 0.672199 0.635358
O O4 0.000000 0.658755 0.636864
O O5 0.133710 0.098419 0.181820
O O6 0.000000 0.069810 0.121143
O O7 0.103441 0.000000 0.123919
O O8 0.107274 0.074672 0.000000
O O9 0.500000 0.939618 0.803931
O O10 0.632082 0.901452 0.841702
O O11 0.613299 0.000000 0.779844
O O12 0.379360 0.799066 0.866118
O O13 0.249645 0.843415 0.847519
O O14 0.329390 0.856657 0.000000
O O15 0.877704 0.198992 0.179914
O O16 0.000000 0.242603 0.116891
O O17 0.891290 0.230306 0.000000
O O18 0.202610 0.157535 0.679162
O O19 0.247950 0.179549 0.500000
O O20 0.250000 0.250000 0.631387
#
# Coordination Sequence:
#
# PCOD9491575 Si02
#       7
#    16  16  16  16  16  16  16
#     4   9  18  36  61  82 102 136 185 236 278 318
#     4   9  19  37  60  85 114 149 190 236 281 325
#     4  10  21  36  53  75 105 142 183 222 263 320
#     4  11  22  35  51  77 113 146 178 220 274 329
#     4  10  21  36  55  79 108 145 188 230 269 318
#     4  12  21  34  57  85 110 141 183 229 281 333
#     4  10  21  38  57  82 116 147 179 225 284 342
#
# _framework density 17.230063000000001
#
# number of rings (size 3 to 8) (size 9 to 14) (size 15 to 20)
#    0.000    1.857    1.429    3.857    0.000    4.286 
#    0.000    2.857    0.000    3.000    0.000    1.000 
#    0.000    0.000    0.000    0.000    0.000    0.000 
#
# Total GULP energy -312542.561470 kJ/mol
# GULP energy per Si atom -5581.117169 kJ/mol
# Density = 1.719085 g / cm^3
# Si number density = 17.230063 Si / 1000 Ang^3
#
#
#
# Elastic Constant Matrix: (Units=GPa)
#
#
# Indices 1 2 3 4 5 6 
#
# 1 73.7236 47.5535 40.3034 0.0000 0.0000 0.0000
# 2 47.5535 89.2041 42.9555 0.0000 0.0000 0.0000
# 3 40.3034 42.9555 79.1223 0.0000 0.0000 0.0000
# 4 0.0000 0.0000 0.0000 22.7327 0.0000 0.0000
# 5 0.0000 0.0000 0.0000 0.0000 29.5633 0.0000
# 6 0.0000 0.0000 0.0000 0.0000 0.0000 14.8941
#
#
#
# Elastic Compliance Matrix: (Units=1/GPa)
#
#
# Indices 1 2 3 4 5 6 
#
# 1 0.023154 -0.009022 -0.006896 0.000000 0.000000 0.000000
# 2 -0.009022 0.018694 -0.005553 0.000000 0.000000 0.000000
# 3 -0.006896 -0.005553 0.019166 0.000000 0.000000 0.000000
# 4 0.000000 0.000000 0.000000 0.043989 0.000000 0.000000
# 5 0.000000 0.000000 0.000000 0.000000 0.033826 0.000000
# 6 0.000000 0.000000 0.000000 0.000000 0.000000 0.067141
#
#
# Mechanical properties :
#
#
# Convention : Reuss Voigt Hill
#
# Bulk Modulus (GPa) = 55.33689 55.96387 55.65038
# Shear Modulus (GPa) = 19.61282 20.85389 20.23335
#
# Velocity S-wave (km/s) = 3.37752 3.48274 3.43053
# Velocity P-wave (km/s) = 6.88450 6.98022 6.93253
#
# Compressibility (1/GPa) = 0.01807113
#
# Stress axis : x y z
#
# Youngs Moduli (GPa) = 43.18994 53.49325 52.17550
#
# Poissons Ratio (x) = 0.48263 0.35979
# Poissons Ratio (y) = 0.38967 0.28974
# Poissons Ratio (z) = 0.29783 0.29706
#
# Static dielectric constant tensor:
#      x y z
#    x 1.601060 0.000000 0.000000 
#    y 0.000000 1.565340 0.000000 
#    z 0.000000 0.000000 1.595660 
# 
# From -- ./inp_files/40764.got.cif
#   From: 2010.05.17/outbox.cif.g08.bks.cpg/sg65_21_cif.got.tgz:40764.got - 2010.06.03 17:01:31.
