data_PCOD9491355
_publ_section_title
;
Structure prediction by ZEFSAII (Michael W. Deem and Ramdas Pophale) SiO2 
 PCOD9491355
Probable space group: C M M M
;
_chemical_formula_sum "Si O2"
_cell_formula_units_Z 104
_cell_length_a 26.291623
_cell_length_b 20.089910
_cell_length_c 8.579392
_cell_angle_alpha 90.000000
_cell_angle_beta 90.000000
_cell_angle_gamma 90.000000
_cell_volume 4531.603452
_symmetry_space_group_name_H-M "C M M M"
_symmetry_group_IT_number 65
_symmetry_cell_setting 'orthorhombic'
loop_
_space_group_symop_operation_xyz
x,y,z
-x,-y,z
x,-y,-z
-x,y,-z
-x,-y,-z
x,y,-z
-x,y,z
x,-y,z
1/2+x,1/2+y,z
1/2-x,1/2-y,z
1/2+x,1/2-y,-z
1/2-x,1/2+y,-z
1/2-x,1/2-y,-z
1/2+x,1/2+y,-z
1/2-x,1/2+y,z
1/2+x,1/2-y,z
loop_
_atom_site_type_symbol
_atom_site_label
_atom_site_fract_x
_atom_site_fract_y
_atom_site_fract_z
Si Si1 0.813290 0.896261 0.821514
Si Si2 0.918561 0.071316 0.315406
Si Si3 0.403800 0.076351 0.670890
Si Si4 0.560317 0.923109 0.000000
Si Si5 0.162867 0.258481 0.181975
Si Si6 0.555630 0.281136 0.311401
Si Si7 0.711308 0.113126 0.323455
O O1 0.858068 0.924210 0.714859
O O2 0.815403 0.816029 0.803266
O O3 0.756191 0.916161 0.780109
O O4 0.825668 0.912501 0.000000
O O5 0.928722 0.070929 0.500000
O O6 0.940484 0.141399 0.256383
O O7 0.936678 0.000000 0.251323
O O8 0.417235 0.106701 0.500000
O O9 0.342704 0.076227 0.680859
O O10 0.422829 0.000000 0.667028
O O11 0.422551 0.106312 0.834135
O O12 0.500000 0.924602 0.000000
O O13 0.580088 0.000000 0.000000
O O14 0.105583 0.254376 0.247100
O O15 0.195966 0.312505 0.271699
O O16 0.162656 0.276440 0.000000
O O17 0.558595 0.280868 0.500000
O O18 0.500000 0.254498 0.265966
O O19 0.730406 0.113332 0.500000
#
# Coordination Sequence:
#
# PCOD9491355 Si02
#       7
#    16  16  16   8  16  16  16
#     4  10  21  35  52  77 107 143 183 224 272 323
#     4   9  18  33  53  79 112 147 185 230 276 327
#     4   9  20  37  55  81 114 142 175 222 272 328
#     4   9  18  34  58  82 103 136 176 212 259 316
#     4  10  21  36  54  77 107 140 181 229 273 325
#     4   9  18  34  56  80 108 144 185 231 282 331
#     4  11  22  35  56  81 106 141 180 220 271 329
#
# _framework density 22.949933000000001
#
# number of rings (size 3 to 8) (size 9 to 14) (size 15 to 20)
#    0.000    2.385    0.000    1.846    2.154    5.538 
#    0.000    5.385    0.000    0.923    0.000    4.308 
#    0.000    0.000    0.000    0.000    0.000    0.000 
#
# Total GULP energy -290441.177395 kJ/mol
# GULP energy per Si atom -5585.407258 kJ/mol
# Density = 2.289770 g / cm^3
# Si number density = 22.949933 Si / 1000 Ang^3
#
#
#
# Elastic Constant Matrix: (Units=GPa)
#
#
# Indices 1 2 3 4 5 6 
#
# 1 89.0001 -6.7705 17.4051 0.0000 0.0000 0.0000
# 2 -6.7705 69.6151 9.3264 0.0000 0.0000 0.0000
# 3 17.4051 9.3264 89.4588 0.0000 0.0000 0.0000
# 4 0.0000 0.0000 0.0000 4.3455 0.0000 0.0000
# 5 0.0000 0.0000 0.0000 0.0000 22.1600 0.0000
# 6 0.0000 0.0000 0.0000 0.0000 0.0000 8.2124
#
#
#
# Elastic Compliance Matrix: (Units=1/GPa)
#
#
# Indices 1 2 3 4 5 6 
#
# 1 0.011829 0.001479 -0.002456 0.000000 0.000000 0.000000
# 2 0.001479 0.014753 -0.001826 0.000000 0.000000 0.000000
# 3 -0.002456 -0.001826 0.011846 0.000000 0.000000 0.000000
# 4 0.000000 0.000000 0.000000 0.230121 0.000000 0.000000
# 5 0.000000 0.000000 0.000000 0.000000 0.045126 0.000000
# 6 0.000000 0.000000 0.000000 0.000000 0.000000 0.121767
#
#
# Mechanical properties :
#
#
# Convention : Reuss Voigt Hill
#
# Bulk Modulus (GPa) = 30.46542 31.99956 31.23249
# Shear Modulus (GPa) = 11.06224 22.15114 16.60669
#
# Velocity S-wave (km/s) = 2.19787 3.11013 2.69291
# Velocity P-wave (km/s) = 4.44347 5.18369 4.82779
#
# Compressibility (1/GPa) = 0.03282410
#
# Stress axis : x y z
#
# Youngs Moduli (GPa) = 84.54004 67.78191 84.41349
#
# Poissons Ratio (x) = -0.10028 0.20729
# Poissons Ratio (y) = -0.12507 0.15413
# Poissons Ratio (z) = 0.20760 0.12376
#
# Static dielectric constant tensor:
#      x y z
#    x 1.819100 0.000000 0.000000 
#    y 0.000000 1.911010 0.000000 
#    z 0.000000 0.000000 1.843520 
# 
# From -- ./inp_files/16736.got.cif
#   From: 2010.05.17/outbox.cif.g08.bks.cpg/sg65_9_cif.got.tgz:16736.got - 2010.06.03 17:01:31.
