data_PCOD9491426
_publ_section_title
;
Structure prediction by ZEFSAII (Michael W. Deem and Ramdas Pophale) SiO2 
 PCOD9491426
Probable space group: C M M M
;
_chemical_formula_sum "Si O2"
_cell_formula_units_Z 72
_cell_length_a 9.110010
_cell_length_b 15.812796
_cell_length_c 25.239788
_cell_angle_alpha 90.000000
_cell_angle_beta 90.000000
_cell_angle_gamma 90.000000
_cell_volume 3635.910838
_symmetry_space_group_name_H-M "C M M M"
_symmetry_group_IT_number 65
_symmetry_cell_setting 'orthorhombic'
loop_
_space_group_symop_operation_xyz
x,y,z
-x,-y,z
x,-y,-z
-x,y,-z
-x,-y,-z
x,y,-z
-x,y,z
x,-y,z
1/2+x,1/2+y,z
1/2-x,1/2-y,z
1/2+x,1/2-y,-z
1/2-x,1/2+y,-z
1/2-x,1/2-y,-z
1/2+x,1/2+y,-z
1/2-x,1/2+y,z
1/2+x,1/2-y,z
loop_
_atom_site_type_symbol
_atom_site_label
_atom_site_fract_x
_atom_site_fract_y
_atom_site_fract_z
Si Si1 0.163701 0.600588 0.338544
Si Si2 0.323704 0.661787 0.883610
Si Si3 0.172677 0.898772 0.234211
Si Si4 0.175125 0.158286 0.442084
Si Si5 0.327954 0.000000 0.063482
O O1 0.153263 0.500000 0.331288
O O2 0.236259 0.633378 0.284504
O O3 0.260141 0.614276 0.390561
O O4 0.000000 0.635797 0.346355
O O5 0.500000 0.663260 0.890874
O O6 0.250000 0.750000 0.899926
O O7 0.293524 0.645952 0.821136
O O8 0.252710 0.582969 0.914179
O O9 0.000000 0.888586 0.245650
O O10 0.198290 0.000000 0.226912
O O11 0.208113 0.118298 0.500000
O O12 0.250000 0.250000 0.442583
O O13 0.000000 0.165376 0.437855
O O14 0.500000 0.000000 0.079444
O O15 0.320992 0.000000 0.000000
#
# Coordination Sequence:
#
# PCOD9491426 Si02
#       5
#    16  16  16  16   8
#     4  10  21  35  54  83 115 150 190 235 291 351
#     4  11  23  41  66  98 131 170 216 263 317 375
#     4   9  18  36  59  83 117 159 200 246 303 362
#     4  10  21  37  56  76 102 141 187 238 296 355
#     4  11  25  45  69  97 131 173 216 263 318 371
#
# _framework density 19.802465999999999
#
# number of rings (size 3 to 8) (size 9 to 14) (size 15 to 20)
#    0.000    1.889    1.111    2.333    0.000    7.111 
#    0.000    4.444    0.000    0.000    0.000    0.000 
#    0.000    0.000    0.000    0.000    0.000    0.000 
#
# Total GULP energy -201037.964918 kJ/mol
# GULP energy per Si atom -5584.387914 kJ/mol
# Density = 1.975739 g / cm^3
# Si number density = 19.802466 Si / 1000 Ang^3
#
#
#
# Elastic Constant Matrix: (Units=GPa)
#
#
# Indices 1 2 3 4 5 6 
#
# 1 116.7382 56.1179 76.9113 0.0000 0.0000 0.0000
# 2 56.1179 91.4288 47.2105 0.0000 0.0000 0.0000
# 3 76.9113 47.2105 106.8917 0.0000 0.0000 0.0000
# 4 0.0000 0.0000 0.0000 15.7026 0.0000 0.0000
# 5 0.0000 0.0000 0.0000 0.0000 33.6746 0.0000
# 6 0.0000 0.0000 0.0000 0.0000 0.0000 29.5846
#
#
#
# Elastic Compliance Matrix: (Units=1/GPa)
#
#
# Indices 1 2 3 4 5 6 
#
# 1 0.018366 -0.005764 -0.010669 0.000000 0.000000 0.000000
# 2 -0.005764 0.015978 -0.002910 0.000000 0.000000 0.000000
# 3 -0.010669 -0.002910 0.018317 0.000000 0.000000 0.000000
# 4 0.000000 0.000000 0.000000 0.063684 0.000000 0.000000
# 5 0.000000 0.000000 0.000000 0.000000 0.029696 0.000000
# 6 0.000000 0.000000 0.000000 0.000000 0.000000 0.033801
#
#
# Mechanical properties :
#
#
# Convention : Reuss Voigt Hill
#
# Bulk Modulus (GPa) = 71.55288 75.05981 73.30635
# Shear Modulus (GPa) = 22.40284 24.78029 23.59156
#
# Velocity S-wave (km/s) = 3.36715 3.54131 3.45533
# Velocity P-wave (km/s) = 7.16441 7.39647 7.28136
#
# Compressibility (1/GPa) = 0.01397568
#
# Stress axis : x y z
#
# Youngs Moduli (GPa) = 54.44781 62.58759 54.59353
#
# Poissons Ratio (x) = 0.36074 0.58248
# Poissons Ratio (y) = 0.31382 0.15885
# Poissons Ratio (z) = 0.58092 0.18211
#
# Static dielectric constant tensor:
#      x y z
#    x 1.681500 0.000000 0.000000 
#    y 0.000000 1.709720 0.000000 
#    z 0.000000 0.000000 1.691910 
# 
# From -- ./inp_files/72562.got.cif
#   From: 2010.05.17/outbox.cif.g08.bks.cpg/sg65_37_cif.got.tgz:72562.got - 2010.06.03 17:01:31.
