data_PCOD9491961
_publ_section_title
;
Structure prediction by ZEFSAII (Michael W. Deem and Ramdas Pophale) SiO2 
 PCOD9491961
Probable space group: C M M M
;
_chemical_formula_sum "Si O2"
_cell_formula_units_Z 64
_cell_length_a 10.708699
_cell_length_b 18.229695
_cell_length_c 18.601010
_cell_angle_alpha 90.000000
_cell_angle_beta 90.000000
_cell_angle_gamma 90.000000
_cell_volume 3631.220658
_symmetry_space_group_name_H-M "C M M M"
_symmetry_group_IT_number 65
_symmetry_cell_setting 'orthorhombic'
loop_
_space_group_symop_operation_xyz
x,y,z
-x,-y,z
x,-y,-z
-x,y,-z
-x,-y,-z
x,y,-z
-x,y,z
x,-y,z
1/2+x,1/2+y,z
1/2-x,1/2-y,z
1/2+x,1/2-y,-z
1/2-x,1/2+y,-z
1/2-x,1/2-y,-z
1/2+x,1/2+y,-z
1/2-x,1/2+y,z
1/2+x,1/2-y,z
loop_
_atom_site_type_symbol
_atom_site_label
_atom_site_fract_x
_atom_site_fract_y
_atom_site_fract_z
Si Si1 0.500000 0.087251 0.586667
Si Si2 0.850633 0.083355 0.783945
Si Si3 0.751877 0.161906 0.357424
Si Si4 0.362267 0.690807 0.500000
Si Si5 0.645564 0.687303 0.082804
O O1 0.500000 0.092909 0.500000
O O2 0.379855 0.128417 0.618360
O O3 0.500000 0.000000 0.604217
O O4 0.794208 0.125157 0.716039
O O5 0.827219 0.125518 0.858358
O O6 0.000000 0.082269 0.774505
O O7 0.804616 0.000000 0.786607
O O8 0.750000 0.250000 0.347170
O O9 0.842511 0.147616 0.425845
O O10 0.500000 0.724775 0.500000
O O11 0.250000 0.750000 0.500000
O O12 0.500000 0.712078 0.093677
O O13 0.750000 0.750000 0.091593
O O14 0.653299 0.661217 0.000000
#
# Coordination Sequence:
#
# PCOD9491961 Si02
#       5
#     8  16  16   8  16
#     4  11  24  42  60  86 120 162 202 251 310 374
#     4  10  21  37  55  81 117 152 189 239 295 350
#     4  11  23  36  62  82 117 150 206 247 300 347
#     4  10  22  34  56  85 117 147 195 249 305 353
#     4   9  18  35  60  88 115 147 188 234 284 341
#
# _framework density 17.624928000000001
#
# number of rings (size 3 to 8) (size 9 to 14) (size 15 to 20)
#    0.000    1.875    1.250    2.250    8.750    0.500 
#    2.250    2.500    0.000    3.000    0.000    3.500 
#    0.000    0.000    0.000    0.000    0.000    0.000 
#
# Total GULP energy -178473.339276 kJ/mol
# GULP energy per Si atom -5577.291852 kJ/mol
# Density = 1.758481 g / cm^3
# Si number density = 17.624928 Si / 1000 Ang^3
#
#
#
# Elastic Constant Matrix: (Units=GPa)
#
#
# Indices 1 2 3 4 5 6 
#
# 1 93.9267 59.8922 59.0554 0.0000 0.0000 0.0000
# 2 59.8922 142.4732 98.0067 0.0000 0.0000 0.0000
# 3 59.0554 98.0067 159.4931 0.0000 0.0000 0.0000
# 4 0.0000 0.0000 0.0000 -5.9583 0.0000 0.0000
# 5 0.0000 0.0000 0.0000 0.0000 -728.4642 0.0000
# 6 0.0000 0.0000 0.0000 0.0000 0.0000 20.8712
#
#
#
# Elastic Compliance Matrix: (Units=1/GPa)
#
#
# Indices 1 2 3 4 5 6 
#
# 1 0.015317 -0.004396 -0.002970 0.000000 0.000000 0.000000
# 2 -0.004396 0.013420 -0.006619 0.000000 0.000000 0.000000
# 3 -0.002970 -0.006619 0.011437 0.000000 0.000000 0.000000
# 4 0.000000 0.000000 0.000000 -0.167832 0.000000 0.000000
# 5 0.000000 0.000000 0.000000 0.000000 -0.001373 0.000000
# 6 0.000000 0.000000 0.000000 0.000000 0.000000 0.047913
#
#
# Mechanical properties :
#
#
# Convention : Reuss Voigt Hill
#
# Bulk Modulus (GPa) = 81.93909 92.20018 87.06963
# Shear Modulus (GPa) = -101.87138 -130.78102 -116.32620
#
# Velocity S-wave (km/s) = -7.61085 -8.62342 -8.13291
# Velocity P-wave (km/s) = 5.53553 6.83559 6.21962
#
# Compressibility (1/GPa) = 0.01220419
#
# Stress axis : x y z
#
# Youngs Moduli (GPa) = 65.28683 74.51801 87.43712
#
# Poissons Ratio (x) = 0.32755 0.25972
# Poissons Ratio (y) = 0.28697 0.57871
# Poissons Ratio (z) = 0.19393 0.49321
#
# Static dielectric constant tensor:
#      x y z
#    x 1.602350 0.000000 0.000000 
#    y 0.000000 1.610360 0.000000 
#    z 0.000000 0.000000 1.601770 
# 
# From -- ./inp_files/50944.got.cif
#   From: 2010.05.17/outbox.cif.g08.bks.cpg/sg65_26_cif.got.tgz:50944.got - 2010.06.03 17:01:31.
