data_PCOD9491305
_publ_section_title
;
Structure prediction by ZEFSAII (Michael W. Deem and Ramdas Pophale) SiO2 
 PCOD9491305
Probable space group: C M M M
;
_chemical_formula_sum "Si O2"
_cell_formula_units_Z 80
_cell_length_a 7.735087
_cell_length_b 19.952322
_cell_length_c 26.118727
_cell_angle_alpha 90.000000
_cell_angle_beta 90.000000
_cell_angle_gamma 90.000000
_cell_volume 4030.980097
_symmetry_space_group_name_H-M "C M M M"
_symmetry_group_IT_number 65
_symmetry_cell_setting 'orthorhombic'
loop_
_space_group_symop_operation_xyz
x,y,z
-x,-y,z
x,-y,-z
-x,y,-z
-x,-y,-z
x,y,-z
-x,y,z
x,-y,z
1/2+x,1/2+y,z
1/2-x,1/2-y,z
1/2+x,1/2-y,-z
1/2-x,1/2+y,-z
1/2-x,1/2-y,-z
1/2+x,1/2+y,-z
1/2-x,1/2+y,z
1/2+x,1/2-y,z
loop_
_atom_site_type_symbol
_atom_site_label
_atom_site_fract_x
_atom_site_fract_y
_atom_site_fract_z
Si Si1 0.288857 0.577454 0.057246
Si Si2 0.705976 0.424196 0.351740
Si Si3 0.791598 0.827021 0.736990
Si Si4 0.292055 0.673153 0.852710
Si Si5 0.205819 0.674715 0.558135
O O1 0.500000 0.579017 0.057620
O O2 0.238503 0.500000 0.064528
O O3 0.226352 0.624035 0.103191
O O4 0.234707 0.598751 0.000000
O O5 0.500000 0.429283 0.344026
O O6 0.775449 0.500000 0.354104
O O7 0.775746 0.379378 0.304810
O O8 0.731955 0.382084 0.403431
O O9 0.750000 0.750000 0.723582
O O10 0.727724 0.840203 0.794891
O O11 0.000000 0.831937 0.737895
O O12 0.500000 0.666347 0.851206
O O13 0.250000 0.750000 0.864995
O O14 0.275002 0.667713 0.500000
O O15 0.250000 0.750000 0.576279
O O16 0.000000 0.670059 0.555978
#
# Coordination Sequence:
#
# PCOD9491305 Si02
#       5
#    16  16  16  16  16
#     4   8  14  25  42  65  91 119 154 194 233 276
#     4  10  21  35  51  74 103 132 163 201 244 289
#     4   9  18  32  49  69  94 125 160 197 238 285
#     4   9  17  29  46  68  93 121 154 195 240 282
#     4  10  21  37  57  79 102 130 165 202 240 286
#
# _framework density 19.84629
#
# number of rings (size 3 to 8) (size 9 to 14) (size 15 to 20)
#    0.000    2.800    0.000    1.800    0.000    5.600 
#    0.000    6.000    0.000    0.600    0.000    7.000 
#    0.000    0.000    0.000    0.000    0.000    0.000 
#
# Total GULP energy -223148.953891 kJ/mol
# GULP energy per Si atom -5578.723847 kJ/mol
# Density = 1.980112 g / cm^3
# Si number density = 19.846290 Si / 1000 Ang^3
#
#
#
# Elastic Constant Matrix: (Units=GPa)
#
#
# Indices 1 2 3 4 5 6 
#
# 1 31.0827 3.6000 4.1605 0.0000 0.0000 0.0000
# 2 3.6000 170.9710 132.3962 0.0000 0.0000 0.0000
# 3 4.1605 132.3962 152.0903 0.0000 0.0000 0.0000
# 4 0.0000 0.0000 0.0000 -46.1476 0.0000 0.0000
# 5 0.0000 0.0000 0.0000 0.0000 -10.1537 0.0000
# 6 0.0000 0.0000 0.0000 0.0000 0.0000 22.1710
#
#
#
# Elastic Compliance Matrix: (Units=1/GPa)
#
#
# Indices 1 2 3 4 5 6 
#
# 1 0.032291 0.000013 -0.000894 0.000000 0.000000 0.000000
# 2 0.000013 0.017947 -0.015624 0.000000 0.000000 0.000000
# 3 -0.000894 -0.015624 0.020200 0.000000 0.000000 0.000000
# 4 0.000000 0.000000 0.000000 -0.021670 0.000000 0.000000
# 5 0.000000 0.000000 0.000000 0.000000 -0.098487 0.000000
# 6 0.000000 0.000000 0.000000 0.000000 0.000000 0.045104
#
#
# Mechanical properties :
#
#
# Convention : Reuss Voigt Hill
#
# Bulk Modulus (GPa) = 26.71856 70.49530 48.60693
# Shear Modulus (GPa) = 122.33305 7.43977 64.88641
#
# Velocity S-wave (km/s) = 7.85965 1.93826 5.72411
# Velocity P-wave (km/s) = 9.79068 6.37235 8.26027
#
# Compressibility (1/GPa) = 0.03742717
#
# Stress axis : x y z
#
# Youngs Moduli (GPa) = 30.96885 55.71870 49.50480
#
# Poissons Ratio (x) = -0.00070 0.04427
# Poissons Ratio (y) = -0.00039 0.77345
# Poissons Ratio (z) = 0.02770 0.87053
#
# Static dielectric constant tensor:
#      x y z
#    x 1.739370 0.000000 0.000000 
#    y 0.000000 1.683590 0.000000 
#    z 0.000000 0.000000 1.715330 
# 
# From -- ./inp_files/72727.got.cif
#   From: 2010.05.17/outbox.cif.g08.bks.cpg/sg65_37_cif.got.tgz:72727.got - 2010.06.03 17:01:31.
