data_PCOD9491168
_publ_section_title
;
Structure prediction by ZEFSAII (Michael W. Deem and Ramdas Pophale) SiO2 
 PCOD9491168
Probable space group: C M M M
;
_chemical_formula_sum "Si O2"
_cell_formula_units_Z 112
_cell_length_a 17.839063
_cell_length_b 15.400278
_cell_length_c 23.236468
_cell_angle_alpha 90.000000
_cell_angle_beta 90.000000
_cell_angle_gamma 90.000000
_cell_volume 6383.674211
_symmetry_space_group_name_H-M "C M M M"
_symmetry_group_IT_number 65
_symmetry_cell_setting 'orthorhombic'
loop_
_space_group_symop_operation_xyz
x,y,z
-x,-y,z
x,-y,-z
-x,y,-z
-x,-y,-z
x,y,-z
-x,y,z
x,-y,z
1/2+x,1/2+y,z
1/2-x,1/2-y,z
1/2+x,1/2-y,-z
1/2-x,1/2+y,-z
1/2-x,1/2-y,-z
1/2+x,1/2+y,-z
1/2-x,1/2+y,z
1/2+x,1/2-y,z
loop_
_atom_site_type_symbol
_atom_site_label
_atom_site_fract_x
_atom_site_fract_y
_atom_site_fract_z
Si Si1 0.802973 0.171141 0.756163
Si Si2 0.704212 0.900169 0.139445
Si Si3 0.698494 0.903084 0.568261
Si Si4 0.912268 0.753356 0.849837
Si Si5 0.084773 0.748845 0.432977
Si Si6 0.352038 0.600488 0.068245
Si Si7 0.146396 0.097441 0.637123
O O1 0.750000 0.250000 0.734955
O O2 0.751316 0.119381 0.802027
O O3 0.872301 0.209810 0.792413
O O4 0.833635 0.117007 0.703078
O O5 0.637181 0.831395 0.134530
O O6 0.766109 0.887265 0.089406
O O7 0.679131 0.000000 0.139059
O O8 0.713440 0.895887 0.500000
O O9 0.642127 0.826652 0.584003
O O10 0.775495 0.895806 0.602358
O O11 0.667144 0.000000 0.578764
O O12 0.899740 0.828404 0.897512
O O13 0.000000 0.735090 0.842717
O O14 0.099867 0.773272 0.500000
O O15 0.094573 0.830279 0.391399
O O16 0.000000 0.715773 0.430393
O O17 0.372142 0.500000 0.082930
O O18 0.358518 0.610963 0.000000
O O19 0.116814 0.000000 0.630591
#
# Coordination Sequence:
#
# PCOD9491168 Si02
#       7
#    16  16  16  16  16  16  16
#     4   9  18  34  54  73  96 129 169 211 251 292
#     4   9  18  34  55  77 102 133 169 207 247 296
#     4   9  18  33  54  78  99 122 160 210 256 294
#     4  10  21  34  50  77 109 136 164 204 253 301
#     4  10  21  35  50  71 102 136 165 197 242 299
#     4   9  18  34  56  78 100 133 177 217 250 287
#     4  11  21  33  53  77  99 128 167 208 249 294
#
# _framework density 17.544754999999999
#
# number of rings (size 3 to 8) (size 9 to 14) (size 15 to 20)
#    0.000    2.429    0.000    3.429    0.000    5.714 
#    0.000    2.857    0.000    0.000    0.000    7.000 
#    0.000    0.000    0.000    0.000    0.000    0.000 
#
# Total GULP energy -312357.027583 kJ/mol
# GULP energy per Si atom -5577.804064 kJ/mol
# Density = 1.750482 g / cm^3
# Si number density = 17.544755 Si / 1000 Ang^3
#
#
#
# Elastic Constant Matrix: (Units=GPa)
#
#
# Indices 1 2 3 4 5 6 
#
# 1 60.5412 25.1546 3.1280 0.0000 0.0000 0.0000
# 2 25.1546 72.6274 13.6667 0.0000 0.0000 0.0000
# 3 3.1280 13.6667 27.7472 0.0000 0.0000 0.0000
# 4 0.0000 0.0000 0.0000 26.1792 0.0000 0.0000
# 5 0.0000 0.0000 0.0000 0.0000 -12.7738 0.0000
# 6 0.0000 0.0000 0.0000 0.0000 0.0000 -11.6153
#
#
#
# Elastic Compliance Matrix: (Units=1/GPa)
#
#
# Indices 1 2 3 4 5 6 
#
# 1 0.019332 -0.006928 0.001233 0.000000 0.000000 0.000000
# 2 -0.006928 0.017658 -0.007916 0.000000 0.000000 0.000000
# 3 0.001233 -0.007916 0.039800 0.000000 0.000000 0.000000
# 4 0.000000 0.000000 0.000000 0.038198 0.000000 0.000000
# 5 0.000000 0.000000 0.000000 0.000000 -0.078285 0.000000
# 6 0.000000 0.000000 0.000000 0.000000 0.000000 -0.086093
#
#
# Mechanical properties :
#
#
# Convention : Reuss Voigt Hill
#
# Bulk Modulus (GPa) = 20.17443 27.20160 23.68801
# Shear Modulus (GPa) = -885.74447 8.28913 -438.72767
#
# Velocity S-wave (km/s) = -22.49321 2.17596 -15.83050
# Velocity P-wave (km/s) = 25.75012 4.67449 17.90556
#
# Compressibility (1/GPa) = 0.04956770
#
# Stress axis : x y z
#
# Youngs Moduli (GPa) = 51.72647 56.63144 25.12573
#
# Poissons Ratio (x) = 0.39233 -0.03098
# Poissons Ratio (y) = 0.35835 0.19890
# Poissons Ratio (z) = -0.06377 0.44832
#
# Static dielectric constant tensor:
#      x y z
#    x 1.567320 0.000000 0.000000 
#    y 0.000000 1.609700 0.000000 
#    z 0.000000 0.000000 1.586370 
# 
# From -- ./inp_files/69944.got.cif
#   From: 2010.05.17/outbox.cif.g08.bks.cpg/sg65_35_cif.got.tgz:69944.got - 2010.06.03 17:01:31.
