data_PCOD9491908
_publ_section_title
;
Structure prediction by ZEFSAII (Michael W. Deem and Ramdas Pophale) SiO2 
 PCOD9491908
Probable space group: C M M M
;
_chemical_formula_sum "Si O2"
_cell_formula_units_Z 96
_cell_length_a 20.867330
_cell_length_b 31.343985
_cell_length_c 9.022680
_cell_angle_alpha 90.000000
_cell_angle_beta 90.000000
_cell_angle_gamma 90.000000
_cell_volume 5901.421707
_symmetry_space_group_name_H-M "C M M M"
_symmetry_group_IT_number 65
_symmetry_cell_setting 'orthorhombic'
loop_
_space_group_symop_operation_xyz
x,y,z
-x,-y,z
x,-y,-z
-x,y,-z
-x,-y,-z
x,y,-z
-x,y,z
x,-y,z
1/2+x,1/2+y,z
1/2-x,1/2-y,z
1/2+x,1/2-y,-z
1/2-x,1/2+y,-z
1/2-x,1/2-y,-z
1/2+x,1/2+y,-z
1/2-x,1/2+y,z
1/2+x,1/2-y,z
loop_
_atom_site_type_symbol
_atom_site_label
_atom_site_fract_x
_atom_site_fract_y
_atom_site_fract_z
Si Si1 0.928215 0.271396 0.178238
Si Si2 0.311707 0.278377 0.676805
Si Si3 0.738132 0.638154 0.824973
Si Si4 0.744974 0.046129 0.824155
Si Si5 0.894494 0.453083 0.322987
Si Si6 0.391908 0.866124 0.823655
O O1 0.874047 0.242895 0.252287
O O2 0.921308 0.321060 0.224135
O O3 0.000000 0.256626 0.212668
O O4 0.919457 0.270597 0.000000
O O5 0.316813 0.277700 0.500000
O O6 0.250000 0.250000 0.720999
O O7 0.297512 0.325825 0.733766
O O8 0.717694 0.589496 0.790433
O O9 0.815076 0.638539 0.796789
O O10 0.729149 0.646405 0.000000
O O11 0.679706 0.046018 0.730180
O O12 0.776906 0.000000 0.802205
O O13 0.727262 0.049174 0.000000
O O14 0.899017 0.450468 0.500000
O O15 0.921114 0.500000 0.277827
O O16 0.918505 0.408854 0.252841
O O17 0.400996 0.870907 0.000000
#
# Coordination Sequence:
#
# PCOD9491908 Si02
#       6
#    16  16  16  16  16  16
#     4  10  21  37  55  72  92 122 161 204 248 293
#     4  11  22  33  48  72 100 130 161 198 240 285
#     4   9  16  27  46  69  93 125 160 197 236 278
#     4   8  14  25  40  61  91 124 155 189 234 281
#     4   9  16  24  37  60  88 118 153 192 234 281
#     4   9  17  29  46  67  89 117 154 197 243 286
#
# _framework density 16.267265999999999
#
# number of rings (size 3 to 8) (size 9 to 14) (size 15 to 20)
#    0.000    2.667    1.667    2.000    0.000    5.333 
#    0.000    0.000    0.000    0.500    0.000    3.500 
#    0.000    0.667    0.000    7.667    0.000    2.333 
#
# Total GULP energy -267374.465217 kJ/mol
# GULP energy per Si atom -5570.301359 kJ/mol
# Density = 1.623024 g / cm^3
# Si number density = 16.267266 Si / 1000 Ang^3
#
#
#
# Elastic Constant Matrix: (Units=GPa)
#
#
# Indices 1 2 3 4 5 6 
#
# 1 66.5953 55.0901 32.9848 0.0000 0.0000 0.0000
# 2 55.0901 140.7220 39.9510 0.0000 0.0000 0.0000
# 3 32.9848 39.9510 28.7936 0.0000 0.0000 0.0000
# 4 0.0000 0.0000 0.0000 22.0831 0.0000 0.0000
# 5 0.0000 0.0000 0.0000 0.0000 5.3668 0.0000
# 6 0.0000 0.0000 0.0000 0.0000 0.0000 3.8749
#
#
#
# Elastic Compliance Matrix: (Units=1/GPa)
#
#
# Indices 1 2 3 4 5 6 
#
# 1 0.035984 -0.003934 -0.035764 0.000000 0.000000 0.000000
# 2 -0.003934 0.012155 -0.012358 0.000000 0.000000 0.000000
# 3 -0.035764 -0.012358 0.092846 0.000000 0.000000 0.000000
# 4 0.000000 0.000000 0.000000 0.045284 0.000000 0.000000
# 5 0.000000 0.000000 0.000000 0.000000 0.186330 0.000000
# 6 0.000000 0.000000 0.000000 0.000000 0.000000 0.258071
#
#
# Mechanical properties :
#
#
# Convention : Reuss Voigt Hill
#
# Bulk Modulus (GPa) = 27.11971 54.68474 40.90223
# Shear Modulus (GPa) = 6.69279 13.47063 10.08171
#
# Velocity S-wave (km/s) = 2.03057 2.88076 2.49219
# Velocity P-wave (km/s) = 4.71223 6.68988 5.78617
#
# Compressibility (1/GPa) = 0.03687355
#
# Stress axis : x y z
#
# Youngs Moduli (GPa) = 27.78998 82.27270 10.77050
#
# Poissons Ratio (x) = 0.32365 0.38519
# Poissons Ratio (y) = 0.10932 0.13310
# Poissons Ratio (z) = 0.99388 1.01674
#
# Static dielectric constant tensor:
#      x y z
#    x 1.524100 0.000000 0.000000 
#    y 0.000000 1.592830 0.000000 
#    z 0.000000 0.000000 1.542860 
# 
# From -- ./inp_files/12230.got.cif
#   From: 2010.05.17/outbox.cif.g08.bks.cpg/sg65_7_cif.got.tgz:12230.got - 2010.06.03 17:01:31.
