data_PCOD9491543
_publ_section_title
;
Structure prediction by ZEFSAII (Michael W. Deem and Ramdas Pophale) SiO2 
 PCOD9491543
Probable space group: C M M M
;
_chemical_formula_sum "Si O2"
_cell_formula_units_Z 96
_cell_length_a 21.189526
_cell_length_b 27.297615
_cell_length_c 7.528674
_cell_angle_alpha 90.000000
_cell_angle_beta 90.000000
_cell_angle_gamma 90.000000
_cell_volume 4354.762137
_symmetry_space_group_name_H-M "C M M M"
_symmetry_group_IT_number 65
_symmetry_cell_setting 'orthorhombic'
loop_
_space_group_symop_operation_xyz
x,y,z
-x,-y,z
x,-y,-z
-x,y,-z
-x,-y,-z
x,y,-z
-x,y,z
x,-y,z
1/2+x,1/2+y,z
1/2-x,1/2-y,z
1/2+x,1/2-y,-z
1/2-x,1/2+y,-z
1/2-x,1/2-y,-z
1/2+x,1/2+y,-z
1/2-x,1/2+y,z
1/2+x,1/2-y,z
loop_
_atom_site_type_symbol
_atom_site_label
_atom_site_fract_x
_atom_site_fract_y
_atom_site_fract_z
Si Si1 0.182291 0.262312 0.205910
Si Si2 0.069582 0.195968 0.784403
Si Si3 0.928342 0.443859 0.214835
Si Si4 0.186035 0.372905 0.705786
Si Si5 0.792833 0.054072 0.282571
Si Si6 0.430417 0.418647 0.292125
O O1 0.250000 0.250000 0.287913
O O2 0.124610 0.231240 0.282228
O O3 0.173174 0.320406 0.209939
O O4 0.185423 0.246537 0.000000
O O5 0.076523 0.140103 0.721999
O O6 0.000000 0.213372 0.729802
O O7 0.070272 0.194763 0.000000
O O8 0.916129 0.500000 0.270891
O O9 0.874778 0.407589 0.280396
O O10 0.000000 0.430924 0.269436
O O11 0.926991 0.442958 0.000000
O O12 0.199439 0.362879 0.500000
O O13 0.246068 0.403105 0.779266
O O14 0.793331 0.056203 0.500000
O O15 0.865046 0.059980 0.220021
O O16 0.769012 0.000000 0.232982
O O17 0.432300 0.432387 0.500000
O O18 0.500000 0.431429 0.216864
#
# Coordination Sequence:
#
# PCOD9491543 Si02
#       6
#    16  16  16  16  16  16
#     4  10  21  36  53  73  99 134 177 220 259 306
#     4   9  18  33  52  72  96 128 162 199 250 305
#     4   9  19  37  59  80 104 137 175 214 257 307
#     4  11  22  34  52  78 107 138 171 212 264 318
#     4   9  18  32  49  72 104 137 167 203 249 299
#     4   9  17  30  51  77 101 129 168 210 248 290
#
# _framework density 22.044833000000001
#
# number of rings (size 3 to 8) (size 9 to 14) (size 15 to 20)
#    0.000    2.500    0.000    2.500    0.000    3.333 
#    0.000    5.000    0.000    2.500    0.000    2.333 
#    0.000    0.000    0.000    0.000    0.000    0.000 
#
# Total GULP energy -268042.719292 kJ/mol
# GULP energy per Si atom -5584.223319 kJ/mol
# Density = 2.199466 g / cm^3
# Si number density = 22.044833 Si / 1000 Ang^3
#
#
#
# Elastic Constant Matrix: (Units=GPa)
#
#
# Indices 1 2 3 4 5 6 
#
# 1 106.4887 35.6601 -1.3368 0.0000 0.0000 0.0000
# 2 35.6601 61.0982 -11.9228 0.0000 0.0000 0.0000
# 3 -1.3368 -11.9228 55.5015 0.0000 0.0000 0.0000
# 4 0.0000 0.0000 0.0000 -145.7674 0.0000 0.0000
# 5 0.0000 0.0000 0.0000 0.0000 -15.8565 0.0000
# 6 0.0000 0.0000 0.0000 0.0000 0.0000 43.4068
#
#
#
# Elastic Compliance Matrix: (Units=1/GPa)
#
#
# Indices 1 2 3 4 5 6 
#
# 1 0.011753 -0.007102 -0.001243 0.000000 0.000000 0.000000
# 2 -0.007102 0.021375 0.004421 0.000000 0.000000 0.000000
# 3 -0.001243 0.004421 0.018937 0.000000 0.000000 0.000000
# 4 0.000000 0.000000 0.000000 -0.006860 0.000000 0.000000
# 5 0.000000 0.000000 0.000000 0.000000 -0.063066 0.000000
# 6 0.000000 0.000000 0.000000 0.000000 0.000000 0.023038
#
#
# Mechanical properties :
#
#
# Convention : Reuss Voigt Hill
#
# Bulk Modulus (GPa) = 22.61569 29.76551 26.19060
# Shear Modulus (GPa) = 180.07815 -10.26423 84.90696
#
# Velocity S-wave (km/s) = 9.04790 -2.16013 6.21283
# Velocity P-wave (km/s) = 10.92859 2.70370 7.96065
#
# Compressibility (1/GPa) = 0.04421708
#
# Stress axis : x y z
#
# Youngs Moduli (GPa) = 85.08123 46.78340 52.80596
#
# Poissons Ratio (x) = 0.33228 0.06562
# Poissons Ratio (y) = 0.60428 -0.23344
# Poissons Ratio (z) = 0.10573 -0.20682
#
# Static dielectric constant tensor:
#      x y z
#    x 1.833030 0.000000 0.000000 
#    y 0.000000 1.755950 0.000000 
#    z 0.000000 0.000000 1.898260 
# 
# From -- ./inp_files/12234.got.cif
#   From: 2010.05.17/outbox.cif.g08.bks.cpg/sg65_7_cif.got.tgz:12234.got - 2010.06.03 17:01:31.
