data_PCOD9491602
_publ_section_title
;
Structure prediction by ZEFSAII (Michael W. Deem and Ramdas Pophale) SiO2 
 PCOD9491602
Probable space group: C M M M
;
_chemical_formula_sum "Si O2"
_cell_formula_units_Z 80
_cell_length_a 15.712875
_cell_length_b 12.211191
_cell_length_c 21.386353
_cell_angle_alpha 90.000000
_cell_angle_beta 90.000000
_cell_angle_gamma 90.000000
_cell_volume 4103.461951
_symmetry_space_group_name_H-M "C M M M"
_symmetry_group_IT_number 65
_symmetry_cell_setting 'orthorhombic'
loop_
_space_group_symop_operation_xyz
x,y,z
-x,-y,z
x,-y,-z
-x,y,-z
-x,-y,-z
x,y,-z
-x,y,z
x,-y,z
1/2+x,1/2+y,z
1/2-x,1/2-y,z
1/2+x,1/2-y,-z
1/2-x,1/2+y,-z
1/2-x,1/2-y,-z
1/2+x,1/2+y,-z
1/2-x,1/2+y,z
1/2+x,1/2-y,z
loop_
_atom_site_type_symbol
_atom_site_label
_atom_site_fract_x
_atom_site_fract_y
_atom_site_fract_z
Si Si1 0.398603 0.000000 0.401037
Si Si2 0.396128 0.772969 0.196001
Si Si3 0.102186 0.876464 0.308475
Si Si4 0.603607 0.000000 0.260118
Si Si5 0.103756 0.627333 0.929149
Si Si6 0.851088 0.742844 0.567325
O O1 0.372904 0.885357 0.430359
O O2 0.500000 0.000000 0.398852
O O3 0.364399 0.000000 0.330481
O O4 0.500000 0.765883 0.195336
O O5 0.365469 0.680588 0.244457
O O6 0.368267 0.786877 0.124027
O O7 0.371883 0.888937 0.226430
O O8 0.118060 0.804133 0.370352
O O9 0.000000 0.881994 0.302374
O O10 0.135370 0.000000 0.315916
O O11 0.500000 0.000000 0.261253
O O12 0.127405 0.500000 0.914948
O O13 0.000000 0.627857 0.928591
O O14 0.130992 0.652557 0.000000
O O15 0.882772 0.787840 0.500000
O O16 0.750000 0.750000 0.567882
#
# Coordination Sequence:
#
# PCOD9491602 Si02
#       6
#     8  16  16   8  16  16
#     4  11  21  38  63  87 107 136 187 235 269 324
#     4   9  14  24  42  65  95 128 167 216 263 306
#     4  10  21  36  54  74  98 137 185 222 256 312
#     4   9  14  23  45  73  95 122 163 219 271 303
#     4   8  12  17  30  58  95 131 163 200 257 321
#     4  11  25  40  56  79 110 140 168 216 282 334
#
# _framework density 19.495735
#
# number of rings (size 3 to 8) (size 9 to 14) (size 15 to 20)
#    0.000    2.400    3.000    1.500    1.400    2.400 
#    0.000    1.000    0.000    0.600    0.000    4.200 
#    0.000    0.800    0.000    1.400    0.000    2.600 
#
# Total GULP energy -222884.247849 kJ/mol
# GULP energy per Si atom -5572.106196 kJ/mol
# Density = 1.945136 g / cm^3
# Si number density = 19.495735 Si / 1000 Ang^3
#
#
#
# Elastic Constant Matrix: (Units=GPa)
#
#
# Indices 1 2 3 4 5 6 
#
# 1 21.3321 10.7706 4.7006 0.0000 0.0000 0.0000
# 2 10.7706 123.3428 74.5334 0.0000 0.0000 0.0000
# 3 4.7006 74.5334 187.9297 0.0000 0.0000 0.0000
# 4 0.0000 0.0000 0.0000 -133.9609 0.0000 0.0000
# 5 0.0000 0.0000 0.0000 0.0000 -12.2949 0.0000
# 6 0.0000 0.0000 0.0000 0.0000 0.0000 8.1855
#
#
#
# Elastic Compliance Matrix: (Units=1/GPa)
#
#
# Indices 1 2 3 4 5 6 
#
# 1 0.049095 -0.004662 0.000621 0.000000 0.000000 0.000000
# 2 -0.004662 0.011106 -0.004288 0.000000 0.000000 0.000000
# 3 0.000621 -0.004288 0.007006 0.000000 0.000000 0.000000
# 4 0.000000 0.000000 0.000000 -0.007465 0.000000 0.000000
# 5 0.000000 0.000000 0.000000 0.000000 -0.081334 0.000000
# 6 0.000000 0.000000 0.000000 0.000000 0.000000 0.122167
#
#
# Mechanical properties :
#
#
# Convention : Reuss Voigt Hill
#
# Bulk Modulus (GPa) = 19.78302 56.95708 38.37005
# Shear Modulus (GPa) = 37.29039 -11.44073 12.92483
#
# Velocity S-wave (km/s) = 4.37824 -2.42509 2.57759
# Velocity P-wave (km/s) = 5.97729 4.63003 5.34627
#
# Compressibility (1/GPa) = 0.05054840
#
# Stress axis : x y z
#
# Youngs Moduli (GPa) = 20.36871 90.04358 142.73047
#
# Poissons Ratio (x) = 0.41982 -0.08866
# Poissons Ratio (y) = 0.09497 0.61202
# Poissons Ratio (z) = -0.01265 0.38610
#
# Static dielectric constant tensor:
#      x y z
#    x 1.684820 0.000000 0.000000 
#    y 0.000000 1.667960 0.000000 
#    z 0.000000 0.000000 1.742200 
# 
# From -- ./inp_files/63520.got.cif
#   From: 2010.05.17/outbox.cif.g08.bks.cpg/sg65_32_cif.got.tgz:63520.got - 2010.06.03 17:01:31.
