data_PCOD9491641
_publ_section_title
;
Structure prediction by ZEFSAII (Michael W. Deem and Ramdas Pophale) SiO2 
 PCOD9491641
Probable space group: C M M M
;
_chemical_formula_sum "Si O2"
_cell_formula_units_Z 96
_cell_length_a 19.269266
_cell_length_b 8.623744
_cell_length_c 31.649535
_cell_angle_alpha 90.000000
_cell_angle_beta 90.000000
_cell_angle_gamma 90.000000
_cell_volume 5259.305049
_symmetry_space_group_name_H-M "C M M M"
_symmetry_group_IT_number 65
_symmetry_cell_setting 'orthorhombic'
loop_
_space_group_symop_operation_xyz
x,y,z
-x,-y,z
x,-y,-z
-x,y,-z
-x,-y,-z
x,y,-z
-x,y,z
x,-y,z
1/2+x,1/2+y,z
1/2-x,1/2-y,z
1/2+x,1/2-y,-z
1/2-x,1/2+y,-z
1/2-x,1/2-y,-z
1/2+x,1/2+y,-z
1/2-x,1/2+y,z
1/2+x,1/2-y,z
loop_
_atom_site_type_symbol
_atom_site_label
_atom_site_fract_x
_atom_site_fract_y
_atom_site_fract_z
Si Si1 0.080303 0.813301 0.122223
Si Si2 0.827890 0.685864 0.705859
Si Si3 0.920383 0.310789 0.374149
Si Si4 0.081034 0.187304 0.781912
Si Si5 0.327577 0.814662 0.953028
Si Si6 0.173634 0.687321 0.451730
O O1 0.099993 0.766237 0.170049
O O2 0.126337 0.745346 0.085206
O O3 0.000000 0.768988 0.116140
O O4 0.084315 0.000000 0.120801
O O5 0.824807 0.500000 0.705259
O O6 0.750000 0.750000 0.704226
O O7 0.873270 0.738200 0.665411
O O8 0.868433 0.740695 0.747525
O O9 0.921625 0.500000 0.373958
O O10 0.882927 0.262024 0.417492
O O11 0.000000 0.257990 0.370848
O O12 0.000000 0.230397 0.774549
O O13 0.084691 0.000000 0.779576
O O14 0.250000 0.750000 0.948679
O O15 0.325259 0.000000 0.951835
O O16 0.353365 0.767101 0.000000
O O17 0.157873 0.735568 0.500000
O O18 0.176243 0.500000 0.450964
O O19 0.250000 0.750000 0.440730
#
# Coordination Sequence:
#
# PCOD9491641 Si02
#       6
#    16  16  16  16  16  16
#     4   9  19  36  57  80 106 137 171 209 256 308
#     4  11  22  35  53  76 103 136 173 213 258 307
#     4   9  18  32  50  74 102 130 166 213 258 302
#     4   9  19  37  58  79 105 135 169 211 257 307
#     4  10  21  36  54  77 106 140 177 217 259 303
#     4   9  17  30  50  74 100 132 167 205 251 301
#
# _framework density 18.253361999999999
#
# number of rings (size 3 to 8) (size 9 to 14) (size 15 to 20)
#    0.000    2.500    0.000    3.000    0.000    4.333 
#    0.000    5.833    0.000    2.500    0.000    2.333 
#    0.000    0.000    0.000    0.000    0.000    0.000 
#
# Total GULP energy -267829.724352 kJ/mol
# GULP energy per Si atom -5579.785924 kJ/mol
# Density = 1.821182 g / cm^3
# Si number density = 18.253362 Si / 1000 Ang^3
#
#
#
# Elastic Constant Matrix: (Units=GPa)
#
#
# Indices 1 2 3 4 5 6 
#
# 1 152.1375 33.1577 130.5135 0.0000 0.0000 0.0000
# 2 33.1577 18.0311 35.1895 0.0000 0.0000 0.0000
# 3 130.5135 35.1895 176.0653 0.0000 0.0000 0.0000
# 4 0.0000 0.0000 0.0000 20.5070 0.0000 0.0000
# 5 0.0000 0.0000 0.0000 0.0000 39.4236 0.0000
# 6 0.0000 0.0000 0.0000 0.0000 0.0000 22.6186
#
#
#
# Elastic Compliance Matrix: (Units=1/GPa)
#
#
# Indices 1 2 3 4 5 6 
#
# 1 0.019669 -0.012648 -0.012052 0.000000 0.000000 0.000000
# 2 -0.012648 0.099060 -0.010423 0.000000 0.000000 0.000000
# 3 -0.012052 -0.010423 0.016697 0.000000 0.000000 0.000000
# 4 0.000000 0.000000 0.000000 0.048764 0.000000 0.000000
# 5 0.000000 0.000000 0.000000 0.000000 0.025366 0.000000
# 6 0.000000 0.000000 0.000000 0.000000 0.000000 0.044211
#
#
# Mechanical properties :
#
#
# Convention : Reuss Voigt Hill
#
# Bulk Modulus (GPa) = 15.34229 82.66170 49.00200
# Shear Modulus (GPa) = 14.46179 26.33474 20.39827
#
# Velocity S-wave (km/s) = 2.81780 3.80245 3.34654
# Velocity P-wave (km/s) = 4.36006 8.04128 6.46809
#
# Compressibility (1/GPa) = 0.06517930
#
# Stress axis : x y z
#
# Youngs Moduli (GPa) = 50.84252 10.09487 59.89196
#
# Poissons Ratio (x) = 0.12768 0.72181
# Poissons Ratio (y) = 0.64307 0.62425
# Poissons Ratio (z) = 0.61275 0.10522
#
# Static dielectric constant tensor:
#      x y z
#    x 1.593260 0.000000 0.000000 
#    y 0.000000 1.621330 0.000000 
#    z 0.000000 0.000000 1.630100 
# 
# From -- ./inp_files/75343.got.cif
#   From: 2010.05.17/outbox.cif.g08.bks.cpg/sg65_38_cif.got.tgz:75343.got - 2010.06.03 17:01:31.
