data_PCOD9491161
_publ_section_title
;
Structure prediction by ZEFSAII (Michael W. Deem and Ramdas Pophale) SiO2 
 PCOD9491161
Probable space group: C M M M
;
_chemical_formula_sum "Si O2"
_cell_formula_units_Z 96
_cell_length_a 19.703365
_cell_length_b 14.756221
_cell_length_c 16.974017
_cell_angle_alpha 90.000000
_cell_angle_beta 90.000000
_cell_angle_gamma 90.000000
_cell_volume 4935.148058
_symmetry_space_group_name_H-M "C M M M"
_symmetry_group_IT_number 65
_symmetry_cell_setting 'orthorhombic'
loop_
_space_group_symop_operation_xyz
x,y,z
-x,-y,z
x,-y,-z
-x,y,-z
-x,-y,-z
x,y,-z
-x,y,z
x,-y,z
1/2+x,1/2+y,z
1/2-x,1/2-y,z
1/2+x,1/2-y,-z
1/2-x,1/2+y,-z
1/2-x,1/2-y,-z
1/2+x,1/2+y,-z
1/2-x,1/2+y,z
1/2+x,1/2-y,z
loop_
_atom_site_type_symbol
_atom_site_label
_atom_site_fract_x
_atom_site_fract_y
_atom_site_fract_z
Si Si1 0.204927 0.609008 0.833088
Si Si2 0.282682 0.104570 0.656406
Si Si3 0.074896 0.820733 0.500000
Si Si4 0.847975 0.893943 0.092619
Si Si5 0.783139 0.895440 0.500000
Si Si6 0.578061 0.767680 0.825994
Si Si7 0.074848 0.317870 0.644671
O O1 0.193445 0.500000 0.831265
O O2 0.226893 0.640581 0.744818
O O3 0.269083 0.627749 0.888452
O O4 0.134969 0.659628 0.853370
O O5 0.244278 0.145825 0.581569
O O6 0.362600 0.114047 0.639177
O O7 0.261419 0.000000 0.661535
O O8 0.136460 0.889239 0.500000
O O9 0.080941 0.756182 0.423779
O O10 0.000000 0.862163 0.500000
O O11 0.896232 0.828298 0.141884
O O12 0.857835 0.000000 0.112865
O O13 0.860650 0.882065 0.000000
O O14 0.759521 0.000000 0.500000
O O15 0.500000 0.786323 0.850279
O O16 0.579096 0.772254 0.730813
O O17 0.000000 0.360519 0.637927
#
# Coordination Sequence:
#
# PCOD9491161 Si02
#       7
#    16  16   8  16   8  16  16
#     4   9  19  36  58  83 114 149 184 226 277 333
#     4   9  18  32  51  78 107 136 174 220 266 312
#     4  10  21  36  50  68 102 144 183 222 264 312
#     4  10  22  40  61  83 109 144 186 230 276 330
#     4  10  21  34  50  74 102 134 181 232 270 310
#     4  10  21  36  56  85 116 146 185 230 277 332
#     4   9  19  34  51  75 107 142 178 214 260 319
#
# _framework density 19.452304999999999
#
# number of rings (size 3 to 8) (size 9 to 14) (size 15 to 20)
#    0.000    2.500    0.000    1.000    2.333    4.167 
#    0.000    4.167    0.000    6.000    0.000    3.500 
#    0.000    0.000    0.000    0.000    0.000    0.000 
#
# Total GULP energy -267620.804351 kJ/mol
# GULP energy per Si atom -5575.433424 kJ/mol
# Density = 1.940803 g / cm^3
# Si number density = 19.452305 Si / 1000 Ang^3
#
#
#
# Elastic Constant Matrix: (Units=GPa)
#
#
# Indices 1 2 3 4 5 6 
#
# 1 74.9222 21.4455 20.0194 0.0000 0.0000 0.0000
# 2 21.4455 55.4387 14.4652 0.0000 0.0000 0.0000
# 3 20.0194 14.4652 21.0046 0.0000 0.0000 0.0000
# 4 0.0000 0.0000 0.0000 -2.4646 0.0000 0.0000
# 5 0.0000 0.0000 0.0000 0.0000 30.5531 0.0000
# 6 0.0000 0.0000 0.0000 0.0000 0.0000 33.8235
#
#
#
# Elastic Compliance Matrix: (Units=1/GPa)
#
#
# Indices 1 2 3 4 5 6 
#
# 1 0.018331 -0.003087 -0.015345 0.000000 0.000000 0.000000
# 2 -0.003087 0.022509 -0.012559 0.000000 0.000000 0.000000
# 3 -0.015345 -0.012559 0.070883 0.000000 0.000000 0.000000
# 4 0.000000 0.000000 0.000000 -0.405742 0.000000 0.000000
# 5 0.000000 0.000000 0.000000 0.000000 0.032730 0.000000
# 6 0.000000 0.000000 0.000000 0.000000 0.000000 0.029565
#
#
# Mechanical properties :
#
#
# Convention : Reuss Voigt Hill
#
# Bulk Modulus (GPa) = 20.10436 29.24730 24.67583
# Shear Modulus (GPa) = -32.64539 18.74475 -6.95032
#
# Velocity S-wave (km/s) = -4.10106 3.10760 -1.89229
# Velocity P-wave (km/s) = 3.47380 5.28623 2.81753
#
# Compressibility (1/GPa) = 0.04974046
#
# Stress axis : x y z
#
# Youngs Moduli (GPa) = 54.55196 44.42653 14.10775
#
# Poissons Ratio (x) = 0.13715 0.21649
# Poissons Ratio (y) = 0.16841 0.17718
# Poissons Ratio (z) = 0.83712 0.55795
#
# Static dielectric constant tensor:
#      x y z
#    x 1.678720 0.000000 0.000000 
#    y 0.000000 1.682120 0.000000 
#    z 0.000000 0.000000 1.700080 
# 
# From -- ./inp_files/44179.got.cif
#   From: 2010.05.17/outbox.cif.g08.bks.cpg/sg65_23_cif.got.tgz:44179.got - 2010.06.03 17:01:31.
