data_PCOD9491964
_publ_section_title
;
Structure prediction by ZEFSAII (Michael W. Deem and Ramdas Pophale) SiO2 
 PCOD9491964
Probable space group: C M M M
;
_chemical_formula_sum "Si O2"
_cell_formula_units_Z 112
_cell_length_a 14.311139
_cell_length_b 17.461729
_cell_length_c 23.506659
_cell_angle_alpha 90.000000
_cell_angle_beta 90.000000
_cell_angle_gamma 90.000000
_cell_volume 5874.248992
_symmetry_space_group_name_H-M "C M M M"
_symmetry_group_IT_number 65
_symmetry_cell_setting 'orthorhombic'
loop_
_space_group_symop_operation_xyz
x,y,z
-x,-y,z
x,-y,-z
-x,y,-z
-x,-y,-z
x,y,-z
-x,y,z
x,-y,z
1/2+x,1/2+y,z
1/2-x,1/2-y,z
1/2+x,1/2-y,-z
1/2-x,1/2+y,-z
1/2-x,1/2-y,-z
1/2+x,1/2+y,-z
1/2-x,1/2+y,z
1/2+x,1/2-y,z
loop_
_atom_site_type_symbol
_atom_site_label
_atom_site_fract_x
_atom_site_fract_y
_atom_site_fract_z
Si Si1 0.257040 0.587898 0.336878
Si Si2 0.611440 0.363679 0.759847
Si Si3 0.107501 0.687379 0.727215
Si Si4 0.304569 0.415123 0.880899
Si Si5 0.605869 0.867537 0.855691
Si Si6 0.108838 0.224183 0.062833
Si Si7 0.604674 0.593067 0.565813
O O1 0.223967 0.500000 0.345332
O O2 0.334613 0.587583 0.287077
O O3 0.176081 0.644647 0.315872
O O4 0.312709 0.616890 0.392387
O O5 0.500000 0.374743 0.759664
O O6 0.631124 0.275354 0.742405
O O7 0.651835 0.385009 0.821426
O O8 0.111754 0.644531 0.788045
O O9 0.000000 0.685702 0.707296
O O10 0.340545 0.500000 0.893384
O O11 0.193063 0.417224 0.874327
O O12 0.331327 0.350908 0.926196
O O13 0.500000 0.893003 0.869652
O O14 0.621394 0.786518 0.887812
O O15 0.000000 0.201661 0.065316
O O16 0.127312 0.256989 0.000000
O O17 0.618067 0.615348 0.500000
O O18 0.500000 0.618196 0.584061
O O19 0.604035 0.500000 0.567595
#
# Coordination Sequence:
#
# PCOD9491964 Si02
#       7
#    16  16  16  16  16  16  16
#     4  11  21  32  54  88 115 142 184 237 286 327
#     4  11  22  36  53  77 111 149 185 224 276 342
#     4  10  21  37  56  75 106 154 195 229 276 334
#     4  12  24  36  56  86 116 146 180 230 293 343
#     4  10  21  39  60  80 107 149 197 235 270 327
#     4  10  22  41  64  86 109 145 190 232 278 340
#     4   8  15  30  52  80 118 159 192 225 273 334
#
# _framework density 19.066267
#
# number of rings (size 3 to 8) (size 9 to 14) (size 15 to 20)
#    0.000    1.714    2.857    2.571    0.000    4.571 
#    0.000    2.143    0.000    2.143    0.000    7.000 
#    0.000    0.000    0.000    0.000    0.000    0.000 
#
# Total GULP energy -312628.432192 kJ/mol
# GULP energy per Si atom -5582.650575 kJ/mol
# Density = 1.902287 g / cm^3
# Si number density = 19.066267 Si / 1000 Ang^3
#
#
#
# Elastic Constant Matrix: (Units=GPa)
#
#
# Indices 1 2 3 4 5 6 
#
# 1 98.7363 40.6108 33.0850 0.0000 0.0000 0.0000
# 2 40.6108 48.5250 3.9893 0.0000 0.0000 0.0000
# 3 33.0850 3.9893 70.9838 0.0000 0.0000 0.0000
# 4 0.0000 0.0000 0.0000 20.5163 0.0000 0.0000
# 5 0.0000 0.0000 0.0000 0.0000 29.5686 0.0000
# 6 0.0000 0.0000 0.0000 0.0000 0.0000 10.3275
#
#
#
# Elastic Compliance Matrix: (Units=1/GPa)
#
#
# Indices 1 2 3 4 5 6 
#
# 1 0.019148 -0.015362 -0.008061 0.000000 0.000000 0.000000
# 2 -0.015362 0.033029 0.005304 0.000000 0.000000 0.000000
# 3 -0.008061 0.005304 0.017547 0.000000 0.000000 0.000000
# 4 0.000000 0.000000 0.000000 0.048742 0.000000 0.000000
# 5 0.000000 0.000000 0.000000 0.000000 0.033820 0.000000
# 6 0.000000 0.000000 0.000000 0.000000 0.000000 0.096829
#
#
# Mechanical properties :
#
#
# Convention : Reuss Voigt Hill
#
# Bulk Modulus (GPa) = 29.86467 41.51281 35.68874
# Shear Modulus (GPa) = 16.86262 21.45314 19.15788
#
# Velocity S-wave (km/s) = 2.97715 3.35802 3.17330
# Velocity P-wave (km/s) = 5.24552 6.07085 5.67322
#
# Compressibility (1/GPa) = 0.03348438
#
# Stress axis : x y z
#
# Youngs Moduli (GPa) = 52.22558 30.27685 56.99001
#
# Poissons Ratio (x) = 0.46512 0.45941
# Poissons Ratio (y) = 0.80229 -0.30227
# Poissons Ratio (z) = 0.42100 -0.16059
#
# Static dielectric constant tensor:
#      x y z
#    x 1.687820 0.000000 0.000000 
#    y 0.000000 1.680800 0.000000 
#    z 0.000000 0.000000 1.653030 
# 
# From -- ./inp_files/70069.got.cif
#   From: 2010.05.17/outbox.cif.g08.bks.cpg/sg65_36_cif.got.tgz:70069.got - 2010.06.03 17:01:31.
