data_PCOD9491224
_publ_section_title
;
Structure prediction by ZEFSAII (Michael W. Deem and Ramdas Pophale) SiO2 
 PCOD9491224
Probable space group: C M M M
;
_chemical_formula_sum "Si O2"
_cell_formula_units_Z 56
_cell_length_a 37.673249
_cell_length_b 9.893141
_cell_length_c 8.459127
_cell_angle_alpha 90.000000
_cell_angle_beta 90.000000
_cell_angle_gamma 90.000000
_cell_volume 3152.773853
_symmetry_space_group_name_H-M "C M M M"
_symmetry_group_IT_number 65
_symmetry_cell_setting 'orthorhombic'
loop_
_space_group_symop_operation_xyz
x,y,z
-x,-y,z
x,-y,-z
-x,y,-z
-x,-y,-z
x,y,-z
-x,y,z
x,-y,z
1/2+x,1/2+y,z
1/2-x,1/2-y,z
1/2+x,1/2-y,-z
1/2-x,1/2+y,-z
1/2-x,1/2-y,-z
1/2+x,1/2+y,-z
1/2-x,1/2+y,z
1/2+x,1/2-y,z
loop_
_atom_site_type_symbol
_atom_site_label
_atom_site_fract_x
_atom_site_fract_y
_atom_site_fract_z
Si Si1 0.000000 0.835593 0.683008
Si Si2 0.359589 0.156075 0.189092
Si Si3 0.922575 0.156508 0.308393
Si Si4 0.282338 0.156128 0.309000
O O1 0.038335 0.797009 0.751450
O O2 0.000000 0.790228 0.500000
O O3 0.000000 0.000000 0.681048
O O4 0.390942 0.249427 0.252186
O O5 0.320812 0.201316 0.248245
O O6 0.364304 0.000000 0.242614
O O7 0.359857 0.158039 0.000000
O O8 0.923861 0.157795 0.500000
O O9 0.917113 0.000000 0.260206
O O10 0.283046 0.159100 0.500000
O O11 0.250000 0.250000 0.254992
O O12 0.277111 0.000000 0.259239
#
# Coordination Sequence:
#
# PCOD9491224 Si02
#       4
#     8  16  16  16
#     4   7  12  26  48  73  98 122 154 201 250 289
#     4  10  21  35  49  69 101 137 167 196 236 287
#     4   9  17  31  53  77  98 124 162 206 248 290
#     4   9  18  33  52  72  94 122 158 200 243 286
#
# _framework density 17.762138
#
# number of rings (size 3 to 8) (size 9 to 14) (size 15 to 20)
#    0.000    3.000    0.000    2.571    0.000    4.000 
#    0.000    4.286    0.000    6.857    0.000    0.000 
#    0.000    0.000    0.000    0.000    0.000    0.000 
#
# Total GULP energy -155993.379222 kJ/mol
# GULP energy per Si atom -5571.192115 kJ/mol
# Density = 1.772171 g / cm^3
# Si number density = 17.762138 Si / 1000 Ang^3
#
#
#
# Elastic Constant Matrix: (Units=GPa)
#
#
# Indices 1 2 3 4 5 6 
#
# 1 228.1755 99.1439 26.0763 0.0000 0.0000 0.0000
# 2 99.1439 64.5335 15.6304 0.0000 0.0000 0.0000
# 3 26.0763 15.6304 7.8562 0.0000 0.0000 0.0000
# 4 0.0000 0.0000 0.0000 16.8023 0.0000 0.0000
# 5 0.0000 0.0000 0.0000 0.0000 -24.8166 0.0000
# 6 0.0000 0.0000 0.0000 0.0000 0.0000 36.2788
#
#
#
# Elastic Compliance Matrix: (Units=1/GPa)
#
#
# Indices 1 2 3 4 5 6 
#
# 1 0.013367 -0.018894 -0.006775 0.000000 0.000000 0.000000
# 2 -0.018894 0.056616 -0.049927 0.000000 0.000000 0.000000
# 3 -0.006775 -0.049927 0.249109 0.000000 0.000000 0.000000
# 4 0.000000 0.000000 0.000000 0.059516 0.000000 0.000000
# 5 0.000000 0.000000 0.000000 0.000000 -0.040296 0.000000
# 6 0.000000 0.000000 0.000000 0.000000 0.000000 0.027564
#
#
# Mechanical properties :
#
#
# Convention : Reuss Voigt Hill
#
# Bulk Modulus (GPa) = 5.95597 64.69627 35.32612
# Shear Modulus (GPa) = 8.72546 16.30053 12.51299
#
# Velocity S-wave (km/s) = 2.21880 3.03266 2.65708
# Velocity P-wave (km/s) = 3.15032 6.98323 5.41710
#
# Compressibility (1/GPa) = 0.16789864
#
# Stress axis : x y z
#
# Youngs Moduli (GPa) = 74.81339 17.66275 4.01431
#
# Poissons Ratio (x) = 0.33373 0.02720
# Poissons Ratio (y) = 1.41355 0.20042
# Poissons Ratio (z) = 0.50685 0.88185
#
# Static dielectric constant tensor:
#      x y z
#    x 1.611630 0.000000 0.000000 
#    y 0.000000 1.595030 0.000000 
#    z 0.000000 0.000000 1.603950 
# 
# From -- ./inp_files/4432.got.cif
#   From: 2010.05.17/outbox.cif.g08.bks.cpg/sg65_3_cif.got.tgz:4432.got - 2010.06.03 17:01:31.
