data_PCOD9491892
_publ_section_title
;
Structure prediction by ZEFSAII (Michael W. Deem and Ramdas Pophale) SiO2 
 PCOD9491892
Probable space group: C M M M
;
_chemical_formula_sum "Si O2"
_cell_formula_units_Z 60
_cell_length_a 13.417615
_cell_length_b 13.491047
_cell_length_c 15.631734
_cell_angle_alpha 90.000000
_cell_angle_beta 90.000000
_cell_angle_gamma 90.000000
_cell_volume 2829.620139
_symmetry_space_group_name_H-M "C M M M"
_symmetry_group_IT_number 65
_symmetry_cell_setting 'orthorhombic'
loop_
_space_group_symop_operation_xyz
x,y,z
-x,-y,z
x,-y,-z
-x,y,-z
-x,-y,-z
x,y,-z
-x,y,z
x,-y,z
1/2+x,1/2+y,z
1/2-x,1/2-y,z
1/2+x,1/2-y,-z
1/2-x,1/2+y,-z
1/2-x,1/2-y,-z
1/2+x,1/2+y,-z
1/2-x,1/2+y,z
1/2+x,1/2-y,z
loop_
_atom_site_type_symbol
_atom_site_label
_atom_site_fract_x
_atom_site_fract_y
_atom_site_fract_z
Si Si1 0.886300 0.879805 0.500000
Si Si2 0.380202 0.000000 0.832165
Si Si3 0.877515 0.114078 0.687476
Si Si4 0.755383 0.000000 0.000000
Si Si5 0.380747 0.297849 0.000000
Si Si6 0.380636 0.215838 0.814993
O O1 0.841515 0.855275 0.407628
O O2 0.000000 0.841065 0.500000
O O3 0.891917 0.000000 0.500000
O O4 0.315941 0.000000 0.918067
O O5 0.356504 0.895944 0.787159
O O6 0.500000 0.000000 0.850989
O O7 0.844778 0.193145 0.757638
O O8 0.000000 0.113982 0.684241
O O9 0.849639 0.000000 0.706368
O O10 0.824624 0.097525 0.000000
O O11 0.356928 0.236269 0.085639
O O12 0.500000 0.316047 0.000000
O O13 0.500000 0.221507 0.809963
#
# Coordination Sequence:
#
# PCOD9491892 Si02
#       6
#     8   8  16   4   8  16
#     4   7  10  18  34  63  99 128 160 204 255 311
#     4  10  21  37  53  71  97 138 187 217 240 285
#     4   8  13  22  41  68  98 132 166 208 263 308
#     4  12  24  36  56  76 102 136 168 218 262 302
#     4  10  22  36  52  78 106 133 164 206 265 317
#     4   9  18  32  50  70  99 138 174 210 250 300
#
# _framework density 21.204260000000001
#
# number of rings (size 3 to 8) (size 9 to 14) (size 15 to 20)
#    0.000    3.067    0.000    2.800    1.867    4.267 
#    0.000    0.000    0.000    0.800    0.000    5.600 
#    0.000    6.400    0.000    0.800    0.000    0.000 
#
# Total GULP energy -167426.133944 kJ/mol
# GULP energy per Si atom -5580.871131 kJ/mol
# Density = 2.115600 g / cm^3
# Si number density = 21.204260 Si / 1000 Ang^3
#
#
#
# Elastic Constant Matrix: (Units=GPa)
#
#
# Indices 1 2 3 4 5 6 
#
# 1 93.9616 30.5623 -9.0706 0.0000 0.0000 0.0000
# 2 30.5623 183.8164 87.3337 0.0000 0.0000 0.0000
# 3 -9.0706 87.3337 138.6116 0.0000 0.0000 0.0000
# 4 0.0000 0.0000 0.0000 364.3029 0.0000 0.0000
# 5 0.0000 0.0000 0.0000 0.0000 -17.3161 0.0000
# 6 0.0000 0.0000 0.0000 0.0000 0.0000 31.1371
#
#
#
# Elastic Compliance Matrix: (Units=1/GPa)
#
#
# Indices 1 2 3 4 5 6 
#
# 1 0.012027 -0.003388 0.002921 0.000000 0.000000 0.000000
# 2 -0.003388 0.008719 -0.005715 0.000000 0.000000 0.000000
# 3 0.002921 -0.005715 0.011006 0.000000 0.000000 0.000000
# 4 0.000000 0.000000 0.000000 0.002745 0.000000 0.000000
# 5 0.000000 0.000000 0.000000 0.000000 -0.057750 0.000000
# 6 0.000000 0.000000 0.000000 0.000000 0.000000 0.032116
#
#
# Mechanical properties :
#
#
# Convention : Reuss Voigt Hill
#
# Bulk Modulus (GPa) = 51.57504 70.44891 61.01198
# Shear Modulus (GPa) = 180.57980 96.12905 138.35443
#
# Velocity S-wave (km/s) = 9.23834 6.74042 8.08641
# Velocity P-wave (km/s) = 11.75464 9.68884 10.77138
#
# Compressibility (1/GPa) = 0.01938922
#
# Stress axis : x y z
#
# Youngs Moduli (GPa) = 83.14955 114.69558 90.85636
#
# Poissons Ratio (x) = 0.38854 -0.26543
# Poissons Ratio (y) = 0.28168 0.51925
# Poissons Ratio (z) = -0.24291 0.65549
#
# Static dielectric constant tensor:
#      x y z
#    x 1.775140 0.000000 0.000000 
#    y 0.000000 1.748960 0.000000 
#    z 0.000000 0.000000 1.769050 
# 
# From -- ./inp_files/54078.got.cif
#   From: 2010.05.17/outbox.cif.g08.bks.cpg/sg65_28_cif.got.tgz:54078.got - 2010.06.03 17:01:31.
