data_PCOD9491941
_publ_section_title
;
Structure prediction by ZEFSAII (Michael W. Deem and Ramdas Pophale) SiO2 
 PCOD9491941
Probable space group: C M M M
;
_chemical_formula_sum "Si O2"
_cell_formula_units_Z 72
_cell_length_a 29.823836
_cell_length_b 8.809784
_cell_length_c 15.812496
_cell_angle_alpha 90.000000
_cell_angle_beta 90.000000
_cell_angle_gamma 90.000000
_cell_volume 4154.599759
_symmetry_space_group_name_H-M "C M M M"
_symmetry_group_IT_number 65
_symmetry_cell_setting 'orthorhombic'
loop_
_space_group_symop_operation_xyz
x,y,z
-x,-y,z
x,-y,-z
-x,y,-z
-x,-y,-z
x,y,-z
-x,y,z
x,-y,z
1/2+x,1/2+y,z
1/2-x,1/2-y,z
1/2+x,1/2-y,-z
1/2-x,1/2+y,-z
1/2-x,1/2-y,-z
1/2+x,1/2+y,-z
1/2-x,1/2+y,z
1/2+x,1/2-y,z
loop_
_atom_site_type_symbol
_atom_site_label
_atom_site_fract_x
_atom_site_fract_y
_atom_site_fract_z
Si Si1 0.950094 0.820043 0.236581
Si Si2 0.500000 0.823451 0.099213
Si Si3 0.200347 0.181169 0.595360
Si Si4 0.700289 0.682325 0.901357
Si Si5 0.144163 0.319568 0.747872
O O1 0.958047 0.762892 0.140550
O O2 0.906824 0.733471 0.267814
O O3 0.000000 0.786680 0.274868
O O4 0.943213 0.000000 0.240615
O O5 0.500000 0.000000 0.125887
O O6 0.500000 0.816065 0.000000
O O7 0.182635 0.208938 0.500000
O O8 0.250000 0.250000 0.598566
O O9 0.172248 0.258533 0.668724
O O10 0.202066 0.000000 0.608421
O O11 0.702013 0.500000 0.893086
O O12 0.750000 0.750000 0.884123
O O13 0.665266 0.748003 0.833451
O O14 0.689392 0.718636 0.000000
O O15 0.146768 0.500000 0.754229
#
# Coordination Sequence:
#
# PCOD9491941 Si02
#       5
#    16   8  16  16  16
#     4   9  20  36  54  75 103 140 181 227 274 325
#     4   9  17  31  51  75 104 137 176 225 279 329
#     4  10  21  38  60  86 117 149 185 230 279 334
#     4  10  21  37  55  76 107 145 186 230 274 327
#     4  12  23  35  57  83 112 148 186 230 279 336
#
# _framework density 17.330189000000001
#
# number of rings (size 3 to 8) (size 9 to 14) (size 15 to 20)
#    0.667    1.222    0.000    4.667    0.000    4.444 
#    0.000    0.000    0.000    0.667    0.000    4.667 
#    0.000    0.000    0.000    0.000    0.000    0.000 
#
# Total GULP energy -200633.797754 kJ/mol
# GULP energy per Si atom -5573.161049 kJ/mol
# Density = 1.729074 g / cm^3
# Si number density = 17.330189 Si / 1000 Ang^3
#
#
#
# Elastic Constant Matrix: (Units=GPa)
#
#
# Indices 1 2 3 4 5 6 
#
# 1 97.6209 50.9486 58.7628 0.0000 0.0000 0.0000
# 2 50.9486 108.1203 53.4276 0.0000 0.0000 0.0000
# 3 58.7628 53.4276 81.9010 0.0000 0.0000 0.0000
# 4 0.0000 0.0000 0.0000 56.7698 0.0000 0.0000
# 5 0.0000 0.0000 0.0000 0.0000 2.2125 0.0000
# 6 0.0000 0.0000 0.0000 0.0000 0.0000 31.0564
#
#
#
# Elastic Compliance Matrix: (Units=1/GPa)
#
#
# Indices 1 2 3 4 5 6 
#
# 1 0.018766 -0.003231 -0.011357 0.000000 0.000000 0.000000
# 2 -0.003231 0.014205 -0.006948 0.000000 0.000000 0.000000
# 3 -0.011357 -0.006948 0.024891 0.000000 0.000000 0.000000
# 4 0.000000 0.000000 0.000000 0.017615 0.000000 0.000000
# 5 0.000000 0.000000 0.000000 0.000000 0.451969 0.000000
# 6 0.000000 0.000000 0.000000 0.000000 0.000000 0.032199
#
#
# Mechanical properties :
#
#
# Convention : Reuss Voigt Hill
#
# Bulk Modulus (GPa) = 67.61393 68.21335 67.91364
# Shear Modulus (GPa) = 8.22846 26.30797 17.26821
#
# Velocity S-wave (km/s) = 2.18137 3.90043 3.16004
# Velocity P-wave (km/s) = 6.74124 7.72858 7.25173
#
# Compressibility (1/GPa) = 0.01478985
#
# Stress axis : x y z
#
# Youngs Moduli (GPa) = 53.28743 70.39764 40.17552
#
# Poissons Ratio (x) = 0.22746 0.45626
# Poissons Ratio (y) = 0.17218 0.27915
# Poissons Ratio (z) = 0.60517 0.48914
#
# Static dielectric constant tensor:
#      x y z
#    x 1.901150 0.000000 0.000000 
#    y 0.000000 1.578380 0.000000 
#    z 0.000000 0.000000 1.580490 
# 
# From -- ./inp_files/46495.got.cif
#   From: 2010.05.17/outbox.cif.g08.bks.cpg/sg65_24_cif.got.tgz:46495.got - 2010.06.03 17:01:31.
