data_PCOD9491586
_publ_section_title
;
Structure prediction by ZEFSAII (Michael W. Deem and Ramdas Pophale) SiO2 
 PCOD9491586
Probable space group: C M M M
;
_chemical_formula_sum "Si O2"
_cell_formula_units_Z 88
_cell_length_a 8.193473
_cell_length_b 16.976350
_cell_length_c 30.667523
_cell_angle_alpha 90.000000
_cell_angle_beta 90.000000
_cell_angle_gamma 90.000000
_cell_volume 4265.707250
_symmetry_space_group_name_H-M "C M M M"
_symmetry_group_IT_number 65
_symmetry_cell_setting 'orthorhombic'
loop_
_space_group_symop_operation_xyz
x,y,z
-x,-y,z
x,-y,-z
-x,y,-z
-x,-y,-z
x,y,-z
-x,y,z
x,-y,z
1/2+x,1/2+y,z
1/2-x,1/2-y,z
1/2+x,1/2-y,-z
1/2-x,1/2+y,-z
1/2-x,1/2-y,-z
1/2+x,1/2+y,-z
1/2-x,1/2+y,z
1/2+x,1/2-y,z
loop_
_atom_site_type_symbol
_atom_site_label
_atom_site_fract_x
_atom_site_fract_y
_atom_site_fract_z
Si Si1 0.199122 0.588448 0.315854
Si Si2 0.804444 0.000000 0.550434
Si Si3 0.694694 0.837440 0.227225
Si Si4 0.696612 0.588180 0.861702
Si Si5 0.304952 0.836928 0.596756
Si Si6 0.802657 0.840796 0.952481
O O1 0.248922 0.500000 0.328026
O O2 0.254574 0.608340 0.267025
O O3 0.253777 0.648507 0.353283
O O4 0.000000 0.590199 0.315397
O O5 0.746933 0.917084 0.571715
O O6 0.751329 0.000000 0.500000
O O7 0.000000 0.000000 0.552488
O O8 0.500000 0.842133 0.225929
O O9 0.750000 0.750000 0.238036
O O10 0.757136 0.859694 0.179492
O O11 0.500000 0.587129 0.864219
O O12 0.756361 0.500000 0.853383
O O13 0.757866 0.617429 0.908728
O O14 0.500000 0.836054 0.596404
O O15 0.250000 0.750000 0.581120
O O16 0.750000 0.750000 0.950357
O O17 0.000000 0.844525 0.952094
O O18 0.748437 0.872418 0.000000
#
# Coordination Sequence:
#
# PCOD9491586 Si02
#       6
#    16   8  16  16  16  16
#     4   9  18  35  59  87 119 156 197 243 295 352
#     4  11  25  45  67  95 131 169 215 267 318 375
#     4  11  22  36  56  80 112 150 190 233 283 343
#     4  10  21  36  53  76 107 139 178 228 279 335
#     4  11  22  40  67  96 130 169 213 263 316 374
#     4   9  18  33  53  75  99 132 173 218 271 329
#
# _framework density 20.629639000000001
#
# number of rings (size 3 to 8) (size 9 to 14) (size 15 to 20)
#    0.000    1.909    0.909    3.000    0.000    4.727 
#    0.000    4.545    0.000    0.000    0.000    3.818 
#    0.000    0.000    0.000    0.000    0.000    0.000 
#
# Total GULP energy -245521.791653 kJ/mol
# GULP energy per Si atom -5580.040719 kJ/mol
# Density = 2.058269 g / cm^3
# Si number density = 20.629639 Si / 1000 Ang^3
#
#
#
# Elastic Constant Matrix: (Units=GPa)
#
#
# Indices 1 2 3 4 5 6 
#
# 1 22.7022 11.9726 18.2208 0.0000 0.0000 0.0000
# 2 11.9726 116.5653 44.1202 0.0000 0.0000 0.0000
# 3 18.2208 44.1202 119.6827 0.0000 0.0000 0.0000
# 4 0.0000 0.0000 0.0000 31.9953 0.0000 0.0000
# 5 0.0000 0.0000 0.0000 0.0000 2.1777 0.0000
# 6 0.0000 0.0000 0.0000 0.0000 0.0000 22.6949
#
#
#
# Elastic Compliance Matrix: (Units=1/GPa)
#
#
# Indices 1 2 3 4 5 6 
#
# 1 0.050883 -0.002666 -0.006764 0.000000 0.000000 0.000000
# 2 -0.002666 0.010110 -0.003321 0.000000 0.000000 0.000000
# 3 -0.006764 -0.003321 0.010609 0.000000 0.000000 0.000000
# 4 0.000000 0.000000 0.000000 0.031255 0.000000 0.000000
# 5 0.000000 0.000000 0.000000 0.000000 0.459201 0.000000
# 6 0.000000 0.000000 0.000000 0.000000 0.000000 0.044063
#
#
# Mechanical properties :
#
#
# Convention : Reuss Voigt Hill
#
# Bulk Modulus (GPa) = 21.69166 45.28637 33.48902
# Shear Modulus (GPa) = 7.72810 23.68269 15.70540
#
# Velocity S-wave (km/s) = 1.93759 3.39188 2.76216
# Velocity P-wave (km/s) = 3.94250 6.11061 5.14212
#
# Compressibility (1/GPa) = 0.04610066
#
# Stress axis : x y z
#
# Youngs Moduli (GPa) = 19.65280 98.91462 94.25604
#
# Poissons Ratio (x) = 0.26373 0.63752
# Poissons Ratio (y) = 0.05240 0.31302
# Poissons Ratio (z) = 0.13293 0.32849
#
# Static dielectric constant tensor:
#      x y z
#    x 1.726180 0.000000 0.000000 
#    y 0.000000 1.728610 0.000000 
#    z 0.000000 0.000000 1.749780 
# 
# From -- ./inp_files/76467.got.cif
#   From: 2010.05.17/outbox.cif.g08.bks.cpg/sg65_39_cif.got.tgz:76467.got - 2010.06.03 17:01:31.
