data_PCOD9491223
_publ_section_title
;
Structure prediction by ZEFSAII (Michael W. Deem and Ramdas Pophale) SiO2 
 PCOD9491223
Probable space group: C M M M
;
_chemical_formula_sum "Si O2"
_cell_formula_units_Z 88
_cell_length_a 14.856200
_cell_length_b 29.101134
_cell_length_c 10.022890
_cell_angle_alpha 90.000000
_cell_angle_beta 90.000000
_cell_angle_gamma 90.000000
_cell_volume 4333.218755
_symmetry_space_group_name_H-M "C M M M"
_symmetry_group_IT_number 65
_symmetry_cell_setting 'orthorhombic'
loop_
_space_group_symop_operation_xyz
x,y,z
-x,-y,z
x,-y,-z
-x,y,-z
-x,-y,-z
x,y,-z
-x,y,z
x,-y,z
1/2+x,1/2+y,z
1/2-x,1/2-y,z
1/2+x,1/2-y,-z
1/2-x,1/2+y,-z
1/2-x,1/2-y,-z
1/2+x,1/2+y,-z
1/2-x,1/2+y,z
1/2+x,1/2-y,z
loop_
_atom_site_type_symbol
_atom_site_label
_atom_site_fract_x
_atom_site_fract_y
_atom_site_fract_z
Si Si1 0.609929 0.448249 0.846251
Si Si2 0.109823 0.417840 0.154884
Si Si3 0.889531 0.500000 0.345685
Si Si4 0.890887 0.867119 0.346653
Si Si5 0.646632 0.736544 0.649296
Si Si6 0.605929 0.815840 0.147111
O O1 0.500000 0.447927 0.844058
O O2 0.637644 0.500000 0.807050
O O3 0.640872 0.407853 0.749193
O O4 0.636676 0.440345 0.000000
O O5 0.140207 0.455576 0.260896
O O6 0.141381 0.366063 0.189445
O O7 0.000000 0.419489 0.158201
O O8 0.134670 0.427510 0.000000
O O9 0.860258 0.500000 0.500000
O O10 0.000000 0.500000 0.347602
O O11 0.860483 0.873427 0.500000
O O12 0.863703 0.815806 0.302948
O O13 0.000000 0.868073 0.346804
O O14 0.605955 0.738941 0.500000
O O15 0.750000 0.750000 0.637139
O O16 0.612220 0.774336 0.751093
O O17 0.500000 0.823761 0.131859
O O18 0.643636 0.804393 0.000000
#
# Coordination Sequence:
#
# PCOD9491223 Si02
#       6
#    16  16   8  16  16  16
#     4   8  14  25  42  67  98 126 151 185 233 285
#     4   8  14  25  40  59  86 118 147 180 228 279
#     4   9  15  21  33  59  91 117 145 181 222 273
#     4   9  17  29  46  69  96 126 161 198 237 284
#     4  10  21  35  49  68  96 131 166 202 244 289
#     4   9  18  32  50  72  95 121 158 201 243 289
#
# _framework density 20.308229000000001
#
# number of rings (size 3 to 8) (size 9 to 14) (size 15 to 20)
#    0.000    3.182    0.000    2.455    0.000    4.364 
#    0.000    5.455    0.000    0.000    2.364    0.000 
#    0.000    0.000    0.000    0.000    0.000    0.000 
#
# Total GULP energy -245246.129907 kJ/mol
# GULP energy per Si atom -5573.775680 kJ/mol
# Density = 2.026201 g / cm^3
# Si number density = 20.308229 Si / 1000 Ang^3
#
#
#
# Elastic Constant Matrix: (Units=GPa)
#
#
# Indices 1 2 3 4 5 6 
#
# 1 27.9315 9.9678 0.4647 0.0000 0.0000 0.0000
# 2 9.9678 231.9536 150.1178 0.0000 0.0000 0.0000
# 3 0.4647 150.1178 131.1178 0.0000 0.0000 0.0000
# 4 0.0000 0.0000 0.0000 39.4500 0.0000 0.0000
# 5 0.0000 0.0000 0.0000 0.0000 5.8786 0.0000
# 6 0.0000 0.0000 0.0000 0.0000 0.0000 -2.6923
#
#
#
# Elastic Compliance Matrix: (Units=1/GPa)
#
#
# Indices 1 2 3 4 5 6 
#
# 1 0.037810 -0.005938 0.006664 0.000000 0.000000 0.000000
# 2 -0.005938 0.017576 -0.020102 0.000000 0.000000 0.000000
# 3 0.006664 -0.020102 0.030618 0.000000 0.000000 0.000000
# 4 0.000000 0.000000 0.000000 0.025349 0.000000 0.000000
# 5 0.000000 0.000000 0.000000 0.000000 0.170109 0.000000
# 6 0.000000 0.000000 0.000000 0.000000 0.000000 -0.371427
#
#
# Mechanical properties :
#
#
# Convention : Reuss Voigt Hill
#
# Bulk Modulus (GPa) = 21.16260 79.12261 50.14261
# Shear Modulus (GPa) = -140.99340 23.89076 -58.55132
#
# Velocity S-wave (km/s) = -8.34131 3.43360 -5.37531
# Velocity P-wave (km/s) = 9.07340 7.40033 3.71226
#
# Compressibility (1/GPa) = 0.04725316
#
# Stress axis : x y z
#
# Youngs Moduli (GPa) = 26.44799 56.89479 32.66022
#
# Poissons Ratio (x) = 0.33784 -0.21766
# Poissons Ratio (y) = 0.15705 0.65654
# Poissons Ratio (z) = -0.17626 1.14371
#
# Static dielectric constant tensor:
#      x y z
#    x 1.720660 0.000000 0.000000 
#    y 0.000000 1.723890 0.000000 
#    z 0.000000 0.000000 1.737500 
# 
# From -- ./inp_files/10098.got.cif
#   From: 2010.05.17/outbox.cif.g08.bks.cpg/sg65_6_cif.got.tgz:10098.got - 2010.06.03 17:01:31.
