data_PCOD9491692
_publ_section_title
;
Structure prediction by ZEFSAII (Michael W. Deem and Ramdas Pophale) SiO2 
 PCOD9491692
Probable space group: C M M M
;
_chemical_formula_sum "Si O2"
_cell_formula_units_Z 76
_cell_length_a 28.054134
_cell_length_b 7.681237
_cell_length_c 18.113573
_cell_angle_alpha 90.000000
_cell_angle_beta 90.000000
_cell_angle_gamma 90.000000
_cell_volume 3903.302035
_symmetry_space_group_name_H-M "C M M M"
_symmetry_group_IT_number 65
_symmetry_cell_setting 'orthorhombic'
loop_
_space_group_symop_operation_xyz
x,y,z
-x,-y,z
x,-y,-z
-x,y,-z
-x,-y,-z
x,y,-z
-x,y,z
x,-y,z
1/2+x,1/2+y,z
1/2-x,1/2-y,z
1/2+x,1/2-y,-z
1/2-x,1/2+y,-z
1/2-x,1/2-y,-z
1/2+x,1/2+y,-z
1/2-x,1/2+y,z
1/2+x,1/2-y,z
loop_
_atom_site_type_symbol
_atom_site_label
_atom_site_fract_x
_atom_site_fract_y
_atom_site_fract_z
Si Si1 0.148937 0.798928 0.268846
Si Si2 0.694547 0.199114 0.881887
Si Si3 0.806075 0.790648 0.419806
Si Si4 0.945700 0.296332 0.664624
Si Si5 0.328894 0.500000 0.000000
Si Si6 0.057789 0.800501 0.500000
O O1 0.167533 0.706331 0.196175
O O2 0.170699 0.723180 0.344766
O O3 0.092360 0.791152 0.282092
O O4 0.164214 0.000000 0.262373
O O5 0.750000 0.250000 0.871219
O O6 0.692892 0.000000 0.910346
O O7 0.826355 0.154854 0.936061
O O8 0.824127 0.726428 0.500000
O O9 0.750000 0.750000 0.417230
O O10 0.812573 0.000000 0.419664
O O11 0.946681 0.500000 0.681779
O O12 0.929156 0.276627 0.579240
O O13 0.000000 0.227895 0.669740
O O14 0.000000 0.793245 0.500000
O O15 0.073738 0.000000 0.500000
#
# Coordination Sequence:
#
# PCOD9491692 Si02
#       6
#    16  16  16  16   4   8
#     4  11  22  37  56  85 121 156 204 252 304 358
#     4  12  24  40  65  95 130 164 199 244 301 366
#     4   9  19  34  52  74 107 153 202 245 286 339
#     4  10  21  36  54  79 114 154 203 259 312 362
#     4  12  24  44  66  98 127 164 193 244 300 386
#     4   9  17  31  51  75 102 143 196 253 309 359
#
# _framework density 19.470693000000001
#
# number of rings (size 3 to 8) (size 9 to 14) (size 15 to 20)
#    0.000    1.579    2.105    2.842    1.474    5.895 
#    0.000    0.000    0.000    0.000    0.000    1.474 
#    0.000    3.368    0.000    0.000    0.000    0.000 
#
# Total GULP energy -211687.978135 kJ/mol
# GULP energy per Si atom -5570.736267 kJ/mol
# Density = 1.942638 g / cm^3
# Si number density = 19.470693 Si / 1000 Ang^3
#
#
#
# Elastic Constant Matrix: (Units=GPa)
#
#
# Indices 1 2 3 4 5 6 
#
# 1 31.2888 7.5337 37.7793 0.0000 0.0000 0.0000
# 2 7.5337 112.6484 41.5762 0.0000 0.0000 0.0000
# 3 37.7793 41.5762 143.3858 0.0000 0.0000 0.0000
# 4 0.0000 0.0000 0.0000 12.3703 0.0000 0.0000
# 5 0.0000 0.0000 0.0000 0.0000 -21.3588 0.0000
# 6 0.0000 0.0000 0.0000 0.0000 0.0000 17.5380
#
#
#
# Elastic Compliance Matrix: (Units=1/GPa)
#
#
# Indices 1 2 3 4 5 6 
#
# 1 0.047129 0.001603 -0.012882 0.000000 0.000000 0.000000
# 2 0.001603 0.009996 -0.003321 0.000000 0.000000 0.000000
# 3 -0.012882 -0.003321 0.011331 0.000000 0.000000 0.000000
# 4 0.000000 0.000000 0.000000 0.080839 0.000000 0.000000
# 5 0.000000 0.000000 0.000000 0.000000 -0.046819 0.000000
# 6 0.000000 0.000000 0.000000 0.000000 0.000000 0.057019
#
#
# Mechanical properties :
#
#
# Convention : Reuss Voigt Hill
#
# Bulk Modulus (GPa) = 25.47416 51.23350 38.35383
# Shear Modulus (GPa) = 24.77944 15.07215 19.92579
#
# Velocity S-wave (km/s) = 3.57130 2.78527 3.20249
# Velocity P-wave (km/s) = 5.48792 6.05920 5.78062
#
# Compressibility (1/GPa) = 0.03925546
#
# Stress axis : x y z
#
# Youngs Moduli (GPa) = 21.21837 100.04447 88.25146
#
# Poissons Ratio (x) = -0.16034 1.13688
# Poissons Ratio (y) = -0.03401 0.29305
# Poissons Ratio (z) = 0.27334 0.33221
#
# Static dielectric constant tensor:
#      x y z
#    x 1.708830 0.000000 0.000000 
#    y 0.000000 1.738030 0.000000 
#    z 0.000000 0.000000 1.671290 
# 
# From -- ./inp_files/57914.got.cif
#   From: 2010.05.17/outbox.cif.g08.bks.cpg/sg65_29_cif.got.tgz:57914.got - 2010.06.03 17:01:31.
