data_PCOD9491744
_publ_section_title
;
Structure prediction by ZEFSAII (Michael W. Deem and Ramdas Pophale) SiO2 
 PCOD9491744
Probable space group: C M M M
;
_chemical_formula_sum "Si O2"
_cell_formula_units_Z 80
_cell_length_a 7.514824
_cell_length_b 31.761579
_cell_length_c 15.196495
_cell_angle_alpha 90.000000
_cell_angle_beta 90.000000
_cell_angle_gamma 90.000000
_cell_volume 3627.140095
_symmetry_space_group_name_H-M "C M M M"
_symmetry_group_IT_number 65
_symmetry_cell_setting 'orthorhombic'
loop_
_space_group_symop_operation_xyz
x,y,z
-x,-y,z
x,-y,-z
-x,y,-z
-x,-y,-z
x,y,-z
-x,y,z
x,-y,z
1/2+x,1/2+y,z
1/2-x,1/2-y,z
1/2+x,1/2-y,-z
1/2-x,1/2+y,-z
1/2-x,1/2-y,-z
1/2+x,1/2+y,-z
1/2-x,1/2+y,z
1/2+x,1/2-y,z
loop_
_atom_site_type_symbol
_atom_site_label
_atom_site_fract_x
_atom_site_fract_y
_atom_site_fract_z
Si Si1 0.215581 0.413540 0.403484
Si Si2 0.213317 0.795812 0.213789
Si Si3 0.714286 0.953144 0.778462
Si Si4 0.208943 0.814388 0.595480
Si Si5 0.712363 0.625920 0.099375
O O1 0.270827 0.429747 0.500000
O O2 0.278220 0.438787 0.318307
O O3 0.275510 0.365054 0.397265
O O4 0.000000 0.413426 0.401928
O O5 0.250000 0.750000 0.174579
O O6 0.286602 0.797063 0.313731
O O7 0.282371 0.834816 0.156652
O O8 0.000000 0.800973 0.220416
O O9 0.500000 0.954671 0.773961
O O10 0.758740 0.917361 0.848669
O O11 0.778503 0.000000 0.800575
O O12 0.286504 0.802204 0.500000
O O13 0.000000 0.803537 0.593065
O O14 0.500000 0.631793 0.093494
O O15 0.783115 0.624798 0.000000
#
# Coordination Sequence:
#
# PCOD9491744 Si02
#       5
#    16  16  16  16  16
#     4   9  17  30  51  79 110 145 182 218 260 314
#     4  10  21  36  55  81 110 141 178 221 269 324
#     4  10  21  36  56  84 115 145 180 223 271 323
#     4   9  17  31  52  77 107 143 180 219 264 314
#     4  10  22  41  61  80 106 141 182 229 279 328
#
# _framework density 22.055944
#
# number of rings (size 3 to 8) (size 9 to 14) (size 15 to 20)
#    0.000    2.400    2.000    0.000    0.000    4.000 
#    0.000    4.000    0.000    0.000    0.000    4.200 
#    0.000    0.000    0.000    0.000    0.000    0.000 
#
# Total GULP energy -223365.714830 kJ/mol
# GULP energy per Si atom -5584.142871 kJ/mol
# Density = 2.200574 g / cm^3
# Si number density = 22.055944 Si / 1000 Ang^3
#
#
#
# Elastic Constant Matrix: (Units=GPa)
#
#
# Indices 1 2 3 4 5 6 
#
# 1 61.3080 -7.2014 9.0248 0.0000 0.0000 0.0000
# 2 -7.2014 165.1924 101.3003 0.0000 0.0000 0.0000
# 3 9.0248 101.3003 185.5300 0.0000 0.0000 0.0000
# 4 0.0000 0.0000 0.0000 -8.6261 0.0000 0.0000
# 5 0.0000 0.0000 0.0000 0.0000 9.9834 0.0000
# 6 0.0000 0.0000 0.0000 0.0000 0.0000 20.6460
#
#
#
# Elastic Compliance Matrix: (Units=1/GPa)
#
#
# Indices 1 2 3 4 5 6 
#
# 1 0.016798 0.001854 -0.001830 0.000000 0.000000 0.000000
# 2 0.001854 0.009305 -0.005171 0.000000 0.000000 0.000000
# 3 -0.001830 -0.005171 0.008302 0.000000 0.000000 0.000000
# 4 0.000000 0.000000 0.000000 -0.115927 0.000000 0.000000
# 5 0.000000 0.000000 0.000000 0.000000 0.100166 0.000000
# 6 0.000000 0.000000 0.000000 0.000000 0.000000 0.048436
#
#
# Mechanical properties :
#
#
# Convention : Reuss Voigt Hill
#
# Bulk Modulus (GPa) = 41.47082 68.69752 55.08417
# Shear Modulus (GPa) = 58.54021 24.99443 41.76732
#
# Velocity S-wave (km/s) = 5.15745 3.37000 4.35639
# Velocity P-wave (km/s) = 7.36947 6.80860 7.09458
#
# Compressibility (1/GPa) = 0.02411334
#
# Stress axis : x y z
#
# Youngs Moduli (GPa) = 59.53014 107.46509 120.44812
#
# Poissons Ratio (x) = -0.19926 0.22036
# Poissons Ratio (y) = -0.11038 0.62283
# Poissons Ratio (z) = 0.10891 0.55570
#
# Static dielectric constant tensor:
#      x y z
#    x 1.855110 0.000000 0.000000 
#    y 0.000000 1.780510 0.000000 
#    z 0.000000 0.000000 1.821360 
# 
# From -- ./inp_files/38283.got.cif
#   From: 2010.05.17/outbox.cif.g08.bks.cpg/sg65_20_cif.got.tgz:38283.got - 2010.06.03 17:01:31.
