data_PCOD9491431
_publ_section_title
;
Structure prediction by ZEFSAII (Michael W. Deem and Ramdas Pophale) SiO2 
 PCOD9491431
Probable space group: C M M M
;
_chemical_formula_sum "Si O2"
_cell_formula_units_Z 66
_cell_length_a 19.931549
_cell_length_b 8.521854
_cell_length_c 20.992011
_cell_angle_alpha 90.000000
_cell_angle_beta 90.000000
_cell_angle_gamma 90.000000
_cell_volume 3565.571800
_symmetry_space_group_name_H-M "C M M M"
_symmetry_group_IT_number 65
_symmetry_cell_setting 'orthorhombic'
loop_
_space_group_symop_operation_xyz
x,y,z
-x,-y,z
x,-y,-z
-x,y,-z
-x,-y,-z
x,y,-z
-x,y,z
x,-y,z
1/2+x,1/2+y,z
1/2-x,1/2-y,z
1/2+x,1/2-y,-z
1/2-x,1/2+y,-z
1/2-x,1/2-y,-z
1/2+x,1/2+y,-z
1/2-x,1/2+y,z
1/2+x,1/2-y,z
loop_
_atom_site_type_symbol
_atom_site_label
_atom_site_fract_x
_atom_site_fract_y
_atom_site_fract_z
Si Si1 0.422788 0.812246 0.744993
Si Si2 0.823169 0.188862 0.638201
Si Si3 0.826166 0.190067 0.000000
Si Si4 0.077377 0.810495 0.114875
Si Si5 0.000000 0.000000 0.500000
Si Si6 0.360941 0.674250 0.500000
O O1 0.500000 0.763534 0.733679
O O2 0.376354 0.746451 0.689732
O O3 0.404256 0.750261 0.815089
O O4 0.419507 0.000000 0.745345
O O5 0.750000 0.250000 0.655834
O O6 0.840527 0.249268 0.566864
O O7 0.825314 0.000000 0.637257
O O8 0.750000 0.250000 0.000000
O O9 0.869485 0.240772 0.938352
O O10 0.824360 0.000000 0.000000
O O11 0.000000 0.760951 0.100877
O O12 0.077350 0.000000 0.115630
O O13 0.060080 0.866070 0.500000
O O14 0.327077 0.500000 0.500000
#
# Coordination Sequence:
#
# PCOD9491431 Si02
#       6
#    16  16   8  16   2   8
#     4  10  22  38  57  83 115 147 187 236 282 331
#     4  11  22  37  58  83 113 152 189 232 281 338
#     4  10  21  35  55  83 113 142 178 224 276 332
#     4   9  18  36  59  82 106 143 188 231 274 326
#     4   8  16  36  56  92 110 136 186 238 286 320
#     4   8  19  33  57  84 112 139 183 232 278 331
#
# _framework density 18.510355000000001
#
# number of rings (size 3 to 8) (size 9 to 14) (size 15 to 20)
#    0.364    1.939    0.000    2.182    1.697    4.848 
#    0.000    4.242    0.000    5.091    0.000    0.000 
#    0.000    0.000    0.000    0.000    0.000    0.000 
#
# Total GULP energy -183781.780512 kJ/mol
# GULP energy per Si atom -5569.144864 kJ/mol
# Density = 1.846822 g / cm^3
# Si number density = 18.510355 Si / 1000 Ang^3
#
#
#
# Elastic Constant Matrix: (Units=GPa)
#
#
# Indices 1 2 3 4 5 6 
#
# 1 120.5165 27.7902 114.2971 0.0000 0.0000 0.0000
# 2 27.7902 21.7423 36.8341 0.0000 0.0000 0.0000
# 3 114.2971 36.8341 186.7860 0.0000 0.0000 0.0000
# 4 0.0000 0.0000 0.0000 5.6835 0.0000 0.0000
# 5 0.0000 0.0000 0.0000 0.0000 61.2846 0.0000
# 6 0.0000 0.0000 0.0000 0.0000 0.0000 24.2995
#
#
#
# Elastic Compliance Matrix: (Units=1/GPa)
#
#
# Indices 1 2 3 4 5 6 
#
# 1 0.020546 -0.007451 -0.011103 0.000000 0.000000 0.000000
# 2 -0.007451 0.071770 -0.009593 0.000000 0.000000 0.000000
# 3 -0.011103 -0.009593 0.014040 0.000000 0.000000 0.000000
# 4 0.000000 0.000000 0.000000 0.175946 0.000000 0.000000
# 5 0.000000 0.000000 0.000000 0.000000 0.016317 0.000000
# 6 0.000000 0.000000 0.000000 0.000000 0.000000 0.041153
#
#
# Mechanical properties :
#
#
# Convention : Reuss Voigt Hill
#
# Bulk Modulus (GPa) = 19.97609 76.32086 48.14847
# Shear Modulus (GPa) = 12.11378 28.26175 20.18777
#
# Velocity S-wave (km/s) = 2.56096 3.91168 3.30604
# Velocity P-wave (km/s) = 4.42267 7.85637 6.37505
#
# Compressibility (1/GPa) = 0.05005986
#
# Stress axis : x y z
#
# Youngs Moduli (GPa) = 48.67214 13.93349 71.22751
#
# Poissons Ratio (x) = 0.10382 0.79083
# Poissons Ratio (y) = 0.36266 0.68332
# Poissons Ratio (z) = 0.54040 0.13367
#
# Static dielectric constant tensor:
#      x y z
#    x 1.614480 0.000000 0.000000 
#    y 0.000000 1.641230 0.000000 
#    z 0.000000 0.000000 1.635830 
# 
# From -- ./inp_files/55463.got.cif
#   From: 2010.05.17/outbox.cif.g08.bks.cpg/sg65_28_cif.got.tgz:55463.got - 2010.06.03 17:01:31.
