data_PCOD9491497
_publ_section_title
;
Structure prediction by ZEFSAII (Michael W. Deem and Ramdas Pophale) SiO2 
 PCOD9491497
Probable space group: C M M M
;
_chemical_formula_sum "Si O2"
_cell_formula_units_Z 72
_cell_length_a 8.422876
_cell_length_b 29.646248
_cell_length_c 16.015228
_cell_angle_alpha 90.000000
_cell_angle_beta 90.000000
_cell_angle_gamma 90.000000
_cell_volume 3999.109265
_symmetry_space_group_name_H-M "C M M M"
_symmetry_group_IT_number 65
_symmetry_cell_setting 'orthorhombic'
loop_
_space_group_symop_operation_xyz
x,y,z
-x,-y,z
x,-y,-z
-x,y,-z
-x,-y,-z
x,y,-z
-x,y,z
x,-y,z
1/2+x,1/2+y,z
1/2-x,1/2-y,z
1/2+x,1/2-y,-z
1/2-x,1/2+y,-z
1/2-x,1/2-y,-z
1/2+x,1/2+y,-z
1/2-x,1/2+y,z
1/2+x,1/2-y,z
loop_
_atom_site_type_symbol
_atom_site_label
_atom_site_fract_x
_atom_site_fract_y
_atom_site_fract_z
Si Si1 0.692324 0.551517 0.682321
Si Si2 0.308149 0.199358 0.094221
Si Si3 0.190505 0.801329 0.594283
Si Si4 0.319872 0.554769 0.500000
Si Si5 0.689896 0.140437 0.249947
O O1 0.500000 0.551523 0.677666
O O2 0.741714 0.500000 0.699852
O O3 0.753451 0.565477 0.589459
O O4 0.748492 0.589466 0.745050
O O5 0.500000 0.199574 0.095080
O O6 0.250000 0.250000 0.111192
O O7 0.252501 0.166315 0.167193
O O8 0.256533 0.187023 0.000000
O O9 0.239330 0.815651 0.500000
O O10 0.250000 0.750000 0.606191
O O11 0.253615 0.832687 0.667933
O O12 0.000000 0.801637 0.597206
O O13 0.332056 0.500000 0.500000
O O14 0.500000 0.573594 0.500000
O O15 0.500000 0.140227 0.249336
#
# Coordination Sequence:
#
# PCOD9491497 Si02
#       5
#    16  16  16   8  16
#     4   9  18  33  52  73 100 136 177 218 259 304
#     4   9  19  36  56  78 104 133 166 207 257 310
#     4  10  21  36  52  71 101 140 176 209 248 300
#     4   7  12  26  47  67  88 121 166 209 247 289
#     4  11  22  33  51  78 106 135 169 213 259 309
#
# _framework density 18.004010000000001
#
# number of rings (size 3 to 8) (size 9 to 14) (size 15 to 20)
#    0.000    2.556    0.000    3.333    1.556    5.333 
#    0.000    0.000    0.000    2.667    0.000    4.667 
#    0.000    0.000    0.000    0.000    0.000    0.000 
#
# Total GULP energy -200804.598930 kJ/mol
# GULP energy per Si atom -5577.905526 kJ/mol
# Density = 1.796303 g / cm^3
# Si number density = 18.004010 Si / 1000 Ang^3
#
#
#
# Elastic Constant Matrix: (Units=GPa)
#
#
# Indices 1 2 3 4 5 6 
#
# 1 19.7113 21.3609 23.2457 0.0000 0.0000 0.0000
# 2 21.3609 123.3887 101.8187 0.0000 0.0000 0.0000
# 3 23.2457 101.8187 130.3045 0.0000 0.0000 0.0000
# 4 0.0000 0.0000 0.0000 17.8975 0.0000 0.0000
# 5 0.0000 0.0000 0.0000 0.0000 16.8245 0.0000
# 6 0.0000 0.0000 0.0000 0.0000 0.0000 26.3425
#
#
#
# Elastic Compliance Matrix: (Units=1/GPa)
#
#
# Indices 1 2 3 4 5 6 
#
# 1 0.065227 -0.004758 -0.007919 0.000000 0.000000 0.000000
# 2 -0.004758 0.023163 -0.017251 0.000000 0.000000 0.000000
# 3 -0.007919 -0.017251 0.022567 0.000000 0.000000 0.000000
# 4 0.000000 0.000000 0.000000 0.055874 0.000000 0.000000
# 5 0.000000 0.000000 0.000000 0.000000 0.059437 0.000000
# 6 0.000000 0.000000 0.000000 0.000000 0.000000 0.037962
#
#
# Mechanical properties :
#
#
# Convention : Reuss Voigt Hill
#
# Bulk Modulus (GPa) = 19.56852 62.91722 41.24287
# Shear Modulus (GPa) = 14.65773 20.67817 17.66795
#
# Velocity S-wave (km/s) = 2.85640 3.39268 3.13602
# Velocity P-wave (km/s) = 4.66597 7.09712 6.00585
#
# Compressibility (1/GPa) = 0.05110248
#
# Stress axis : x y z
#
# Youngs Moduli (GPa) = 15.33115 43.17191 44.31337
#
# Poissons Ratio (x) = 0.20540 0.35090
# Poissons Ratio (y) = 0.07294 0.76444
# Poissons Ratio (z) = 0.12140 0.74475
#
# Static dielectric constant tensor:
#      x y z
#    x 1.627600 0.000000 0.000000 
#    y 0.000000 1.613620 0.000000 
#    z 0.000000 0.000000 1.636300 
# 
# From -- ./inp_files/36941.got.cif
#   From: 2010.05.17/outbox.cif.g08.bks.cpg/sg65_19_cif.got.tgz:36941.got - 2010.06.03 17:01:31.
