data_PCOD9491766
_publ_section_title
;
Structure prediction by ZEFSAII (Michael W. Deem and Ramdas Pophale) SiO2 
 PCOD9491766
Probable space group: C M M M
;
_chemical_formula_sum "Si O2"
_cell_formula_units_Z 80
_cell_length_a 25.742849
_cell_length_b 18.819127
_cell_length_c 8.963983
_cell_angle_alpha 90.000000
_cell_angle_beta 90.000000
_cell_angle_gamma 90.000000
_cell_volume 4342.672780
_symmetry_space_group_name_H-M "C M M M"
_symmetry_group_IT_number 65
_symmetry_cell_setting 'orthorhombic'
loop_
_space_group_symop_operation_xyz
x,y,z
-x,-y,z
x,-y,-z
-x,y,-z
-x,-y,-z
x,y,-z
-x,y,z
x,-y,z
1/2+x,1/2+y,z
1/2-x,1/2-y,z
1/2+x,1/2-y,-z
1/2-x,1/2+y,-z
1/2-x,1/2-y,-z
1/2+x,1/2+y,-z
1/2-x,1/2+y,z
1/2+x,1/2-y,z
loop_
_atom_site_type_symbol
_atom_site_label
_atom_site_fract_x
_atom_site_fract_y
_atom_site_fract_z
Si Si1 0.439437 0.177041 0.677787
Si Si2 0.348647 0.417265 0.678426
Si Si3 0.560873 0.669935 0.177688
Si Si4 0.851890 0.582959 0.179070
Si Si5 0.753273 0.166965 0.820506
O O1 0.433647 0.183951 0.500000
O O2 0.500000 0.160667 0.710038
O O3 0.427143 0.252429 0.754918
O O4 0.400987 0.118012 0.741013
O O5 0.350420 0.410909 0.500000
O O6 0.341448 0.500000 0.717578
O O7 0.401541 0.386964 0.747896
O O8 0.301413 0.371210 0.742813
O O9 0.500000 0.655369 0.207112
O O10 0.568862 0.671537 0.000000
O O11 0.845970 0.500000 0.216696
O O12 0.800013 0.626585 0.218663
O O13 0.858665 0.588620 0.000000
O O14 0.750000 0.250000 0.780468
O O15 0.759975 0.162416 0.000000
#
# Coordination Sequence:
#
# PCOD9491766 Si02
#       5
#    16  16  16  16  16
#     4  10  21  37  58  84 114 148 187 234 286 337
#     4  11  24  39  57  85 119 152 186 228 281 337
#     4  10  21  38  61  86 112 147 191 234 277 331
#     4  10  21  36  55  82 116 152 190 234 284 336
#     4  10  21  38  61  86 111 144 189 237 282 332
#
# _framework density 18.421835000000002
#
# number of rings (size 3 to 8) (size 9 to 14) (size 15 to 20)
#    0.000    1.800    0.000    3.600    0.000    8.800 
#    0.000    4.000    0.000    0.000    0.000    0.000 
#    0.000    0.000    0.000    0.000    0.000    0.000 
#
# Total GULP energy -223577.472771 kJ/mol
# GULP energy per Si atom -5589.436819 kJ/mol
# Density = 1.837991 g / cm^3
# Si number density = 18.421835 Si / 1000 Ang^3
#
#
#
# Elastic Constant Matrix: (Units=GPa)
#
#
# Indices 1 2 3 4 5 6 
#
# 1 102.0926 100.8187 56.8436 0.0000 0.0000 0.0000
# 2 100.8187 176.7416 70.4095 0.0000 0.0000 0.0000
# 3 56.8436 70.4095 48.0036 0.0000 0.0000 0.0000
# 4 0.0000 0.0000 0.0000 31.2887 0.0000 0.0000
# 5 0.0000 0.0000 0.0000 0.0000 31.3000 0.0000
# 6 0.0000 0.0000 0.0000 0.0000 0.0000 -80.9370
#
#
#
# Elastic Compliance Matrix: (Units=1/GPa)
#
#
# Indices 1 2 3 4 5 6 
#
# 1 0.032637 -0.007749 -0.027282 0.000000 0.000000 0.000000
# 2 -0.007749 0.015451 -0.013487 0.000000 0.000000 0.000000
# 3 -0.027282 -0.013487 0.072920 0.000000 0.000000 0.000000
# 4 0.000000 0.000000 0.000000 0.031960 0.000000 0.000000
# 5 0.000000 0.000000 0.000000 0.000000 0.031949 0.000000
# 6 0.000000 0.000000 0.000000 0.000000 0.000000 -0.012355
#
#
# Mechanical properties :
#
#
# Convention : Reuss Voigt Hill
#
# Bulk Modulus (GPa) = 41.71414 86.99797 64.35605
# Shear Modulus (GPa) = 18.01218 2.91473 10.46346
#
# Velocity S-wave (km/s) = 3.13031 1.25923 2.38584
# Velocity P-wave (km/s) = 5.97981 7.03151 6.52688
#
# Compressibility (1/GPa) = 0.02397269
#
# Stress axis : x y z
#
# Youngs Moduli (GPa) = 30.63964 64.72021 13.71360
#
# Poissons Ratio (x) = 0.50151 0.37414
# Poissons Ratio (y) = 0.23742 0.18496
# Poissons Ratio (z) = 0.83591 0.87289
#
# Static dielectric constant tensor:
#      x y z
#    x 1.611630 0.000000 0.000000 
#    y 0.000000 1.605120 0.000000 
#    z 0.000000 0.000000 1.614490 
# 
# From -- ./inp_files/9623.got.cif
#   From: 2010.05.17/outbox.cif.g08.bks.cpg/sg65_5_cif.got.tgz:9623.got - 2010.06.03 17:01:31.
