data_PCOD9491896
_publ_section_title
;
Structure prediction by ZEFSAII (Michael W. Deem and Ramdas Pophale) SiO2 
 PCOD9491896
Probable space group: C M M M
;
_chemical_formula_sum "Si O2"
_cell_formula_units_Z 58
_cell_length_a 14.801365
_cell_length_b 26.288496
_cell_length_c 8.686035
_cell_angle_alpha 90.000000
_cell_angle_beta 90.000000
_cell_angle_gamma 90.000000
_cell_volume 3379.785074
_symmetry_space_group_name_H-M "C M M M"
_symmetry_group_IT_number 65
_symmetry_cell_setting 'orthorhombic'
loop_
_space_group_symop_operation_xyz
x,y,z
-x,-y,z
x,-y,-z
-x,y,-z
-x,-y,-z
x,y,-z
-x,y,z
x,-y,z
1/2+x,1/2+y,z
1/2-x,1/2-y,z
1/2+x,1/2-y,-z
1/2-x,1/2+y,-z
1/2-x,1/2-y,-z
1/2+x,1/2+y,-z
1/2-x,1/2+y,z
1/2+x,1/2-y,z
loop_
_atom_site_type_symbol
_atom_site_label
_atom_site_fract_x
_atom_site_fract_y
_atom_site_fract_z
Si Si1 0.808720 0.200187 0.684744
Si Si2 0.500000 0.849750 0.813299
Si Si3 0.692896 0.892044 0.184719
Si Si4 0.000000 0.500000 0.500000
Si Si5 0.000000 0.768762 0.814903
Si Si6 0.688721 0.000000 0.330695
O O1 0.811399 0.198533 0.500000
O O2 0.750000 0.250000 0.731031
O O3 0.760060 0.150145 0.748600
O O4 0.909010 0.206458 0.750731
O O5 0.408386 0.876722 0.760583
O O6 0.500000 0.790756 0.766833
O O7 0.500000 0.850986 0.000000
O O8 0.712560 0.948645 0.241971
O O9 0.694717 0.889804 0.000000
O O10 0.081218 0.500000 0.368236
O O11 0.000000 0.770751 0.000000
O O12 0.733031 0.000000 0.500000
#
# Coordination Sequence:
#
# PCOD9491896 Si02
#       6
#    16   8  16   2   8   8
#     4  11  23  38  56  86 118 155 194 240 298 354
#     4   9  19  31  52  83 116 152 189 239 287 332
#     4  11  21  37  59  84 115 156 202 243 287 346
#     4   8  20  36  58  80 120 162 190 236 292 354
#     4  11  21  38  59  83 117 155 196 244 292 345
#     4  10  21  37  53  82 116 155 192 238 292 342
#
# _framework density 17.160855000000002
#
# number of rings (size 3 to 8) (size 9 to 14) (size 15 to 20)
#    0.414    1.103    2.759    3.310    0.000    1.103 
#    0.000    2.759    0.000    0.828    0.000    5.793 
#    0.000    0.000    0.000    0.000    0.000    0.000 
#
# Total GULP energy -161648.980406 kJ/mol
# GULP energy per Si atom -5574.102773 kJ/mol
# Density = 1.712180 g / cm^3
# Si number density = 17.160855 Si / 1000 Ang^3
#
#
#
# Elastic Constant Matrix: (Units=GPa)
#
#
# Indices 1 2 3 4 5 6 
#
# 1 129.6145 80.6200 45.5168 0.0000 0.0000 0.0000
# 2 80.6200 172.5246 53.0437 0.0000 0.0000 0.0000
# 3 45.5168 53.0437 71.1143 0.0000 0.0000 0.0000
# 4 0.0000 0.0000 0.0000 28.5645 0.0000 0.0000
# 5 0.0000 0.0000 0.0000 0.0000 25.9394 0.0000
# 6 0.0000 0.0000 0.0000 0.0000 0.0000 10.4096
#
#
#
# Elastic Compliance Matrix: (Units=1/GPa)
#
#
# Indices 1 2 3 4 5 6 
#
# 1 0.011891 -0.004174 -0.004497 0.000000 0.000000 0.000000
# 2 -0.004174 0.008986 -0.004031 0.000000 0.000000 0.000000
# 3 -0.004497 -0.004031 0.019947 0.000000 0.000000 0.000000
# 4 0.000000 0.000000 0.000000 0.035008 0.000000 0.000000
# 5 0.000000 0.000000 0.000000 0.000000 0.038551 0.000000
# 6 0.000000 0.000000 0.000000 0.000000 0.000000 0.096065
#
#
# Mechanical properties :
#
#
# Convention : Reuss Voigt Hill
#
# Bulk Modulus (GPa) = 64.85423 81.29049 73.07236
# Shear Modulus (GPa) = 20.74745 25.92090 23.33418
#
# Velocity S-wave (km/s) = 3.48084 3.89069 3.69146
# Velocity P-wave (km/s) = 7.35044 8.22532 7.80015
#
# Compressibility (1/GPa) = 0.01541920
#
# Stress axis : x y z
#
# Youngs Moduli (GPa) = 84.10034 111.28366 50.13184
#
# Poissons Ratio (x) = 0.46446 0.22547
# Poissons Ratio (y) = 0.35100 0.20210
# Poissons Ratio (z) = 0.37824 0.44862
#
# Static dielectric constant tensor:
#      x y z
#    x 1.557720 0.000000 0.000000 
#    y 0.000000 1.564730 0.000000 
#    z 0.000000 0.000000 1.583910 
# 
# From -- ./inp_files/4526.got.cif
#   From: 2010.05.17/outbox.cif.g08.bks.cpg/sg65_3_cif.got.tgz:4526.got - 2010.06.03 17:01:31.
