data_PCOD9491571
_publ_section_title
;
Structure prediction by ZEFSAII (Michael W. Deem and Ramdas Pophale) SiO2 
 PCOD9491571
Probable space group: C M M M
;
_chemical_formula_sum "Si O2"
_cell_formula_units_Z 88
_cell_length_a 21.352453
_cell_length_b 15.692766
_cell_length_c 15.074862
_cell_angle_alpha 90.000000
_cell_angle_beta 90.000000
_cell_angle_gamma 90.000000
_cell_volume 5051.270415
_symmetry_space_group_name_H-M "C M M M"
_symmetry_group_IT_number 65
_symmetry_cell_setting 'orthorhombic'
loop_
_space_group_symop_operation_xyz
x,y,z
-x,-y,z
x,-y,-z
-x,y,-z
-x,-y,-z
x,y,-z
-x,y,z
x,-y,z
1/2+x,1/2+y,z
1/2-x,1/2-y,z
1/2+x,1/2-y,-z
1/2-x,1/2+y,-z
1/2-x,1/2-y,-z
1/2+x,1/2+y,-z
1/2-x,1/2+y,z
1/2+x,1/2-y,z
loop_
_atom_site_type_symbol
_atom_site_label
_atom_site_fract_x
_atom_site_fract_y
_atom_site_fract_z
Si Si1 0.860742 0.896283 0.898148
Si Si2 0.669882 0.148480 0.604560
Si Si3 0.000000 0.099256 0.152750
Si Si4 0.722152 0.403574 0.739302
Si Si5 0.134622 0.845958 0.404276
Si Si6 0.500000 0.401174 0.634577
Si Si7 0.571771 0.000000 0.606674
O O1 0.932254 0.865788 0.878631
O O2 0.807413 0.864998 0.829337
O O3 0.862064 0.000000 0.887079
O O4 0.845453 0.877406 0.000000
O O5 0.687488 0.130495 0.500000
O O6 0.724330 0.137359 0.677586
O O7 0.650899 0.247030 0.607507
O O8 0.613422 0.083596 0.628196
O O9 0.000000 0.102628 0.258830
O O10 0.000000 0.000000 0.123423
O O11 0.742893 0.500000 0.757949
O O12 0.662885 0.401670 0.673700
O O13 0.159275 0.874212 0.500000
O O14 0.061089 0.856443 0.401051
O O15 0.500000 0.500000 0.608641
O O16 0.500000 0.000000 0.641460
O O17 0.566853 0.000000 0.500000
#
# Coordination Sequence:
#
# PCOD9491571 Si02
#       7
#    16  16   8  16  16   8   8
#     4   9  17  29  49  76 104 136 177 221 264 313
#     4  10  21  36  53  75 102 137 178 219 267 315
#     4   9  15  29  49  72 102 137 177 215 257 303
#     4  11  20  33  52  75 106 139 178 218 259 314
#     4  11  23  34  49  72 106 145 178 213 255 308
#     4  11  21  35  51  77 109 143 181 210 250 310
#     4   9  18  34  56  76  97 126 171 228 271 304
#
# _framework density 17.42136
#
# number of rings (size 3 to 8) (size 9 to 14) (size 15 to 20)
#    0.000    1.909    2.727    2.182    1.273    5.091 
#    0.000    0.000    0.000    2.182    0.000    0.000 
#    0.000    1.455    0.000    0.000    0.000    0.182 
#
# Total GULP energy -245121.834979 kJ/mol
# GULP energy per Si atom -5570.950795 kJ/mol
# Density = 1.738171 g / cm^3
# Si number density = 17.421360 Si / 1000 Ang^3
#
#
#
# Elastic Constant Matrix: (Units=GPa)
#
#
# Indices 1 2 3 4 5 6 
#
# 1 124.8212 21.4543 54.6720 0.0000 0.0000 0.0000
# 2 21.4543 30.5944 22.3259 0.0000 0.0000 0.0000
# 3 54.6720 22.3259 114.0249 0.0000 0.0000 0.0000
# 4 0.0000 0.0000 0.0000 1.6633 0.0000 0.0000
# 5 0.0000 0.0000 0.0000 0.0000 15.5842 0.0000
# 6 0.0000 0.0000 0.0000 0.0000 0.0000 16.4424
#
#
#
# Elastic Compliance Matrix: (Units=1/GPa)
#
#
# Indices 1 2 3 4 5 6 
#
# 1 0.010616 -0.004352 -0.004238 0.000000 0.000000 0.000000
# 2 -0.004352 0.039918 -0.005729 0.000000 0.000000 0.000000
# 3 -0.004238 -0.005729 0.011924 0.000000 0.000000 0.000000
# 4 0.000000 0.000000 0.000000 0.601206 0.000000 0.000000
# 5 0.000000 0.000000 0.000000 0.000000 0.064167 0.000000
# 6 0.000000 0.000000 0.000000 0.000000 0.000000 0.060819
#
#
# Mechanical properties :
#
#
# Convention : Reuss Voigt Hill
#
# Bulk Modulus (GPa) = 29.56847 51.81609 40.69228
# Shear Modulus (GPa) = 6.03456 18.13721 12.08589
#
# Velocity S-wave (km/s) = 1.86317 3.23009 2.63675
# Velocity P-wave (km/s) = 4.65166 6.61202 5.71650
#
# Compressibility (1/GPa) = 0.03381981
#
# Stress axis : x y z
#
# Youngs Moduli (GPa) = 94.20080 25.05115 83.86604
#
# Poissons Ratio (x) = 0.10901 0.35541
# Poissons Ratio (y) = 0.40993 0.48050
# Poissons Ratio (z) = 0.39921 0.14353
#
# Static dielectric constant tensor:
#      x y z
#    x 1.633980 0.000000 0.000000 
#    y 0.000000 1.584700 0.000000 
#    z 0.000000 0.000000 1.610430 
# 
# From -- ./inp_files/44039.got.cif
#   From: 2010.05.17/outbox.cif.g08.bks.cpg/sg65_23_cif.got.tgz:44039.got - 2010.06.03 17:01:31.
