data_PCOD9491277
_publ_section_title
;
Structure prediction by ZEFSAII (Michael W. Deem and Ramdas Pophale) SiO2 
 PCOD9491277
Probable space group: C M M M
;
_chemical_formula_sum "Si O2"
_cell_formula_units_Z 80
_cell_length_a 14.254166
_cell_length_b 9.456901
_cell_length_c 26.505655
_cell_angle_alpha 90.000000
_cell_angle_beta 90.000000
_cell_angle_gamma 90.000000
_cell_volume 3572.968568
_symmetry_space_group_name_H-M "C M M M"
_symmetry_group_IT_number 65
_symmetry_cell_setting 'orthorhombic'
loop_
_space_group_symop_operation_xyz
x,y,z
-x,-y,z
x,-y,-z
-x,y,-z
-x,-y,-z
x,y,-z
-x,y,z
x,-y,z
1/2+x,1/2+y,z
1/2-x,1/2-y,z
1/2+x,1/2-y,-z
1/2-x,1/2+y,-z
1/2-x,1/2-y,-z
1/2+x,1/2+y,-z
1/2-x,1/2+y,z
1/2+x,1/2-y,z
loop_
_atom_site_type_symbol
_atom_site_label
_atom_site_fract_x
_atom_site_fract_y
_atom_site_fract_z
Si Si1 0.391073 0.158079 0.887186
Si Si2 0.114478 0.662118 0.500000
Si Si3 0.114403 0.338633 0.697260
Si Si4 0.653538 0.830553 0.000000
Si Si5 0.385510 0.661985 0.598820
Si Si6 0.114663 0.840244 0.205165
O O1 0.500000 0.142903 0.873449
O O2 0.354417 0.272319 0.847809
O O3 0.348259 0.000000 0.882959
O O4 0.389989 0.204148 0.945644
O O5 0.141869 0.748338 0.549797
O O6 0.000000 0.656678 0.500000
O O7 0.352037 0.000000 0.500000
O O8 0.148193 0.500000 0.694102
O O9 0.142006 0.244392 0.649394
O O10 0.141444 0.261766 0.748968
O O11 0.000000 0.343908 0.696780
O O12 0.750000 0.750000 0.000000
O O13 0.661689 0.000000 0.000000
O O14 0.500000 0.656651 0.598703
O O15 0.352028 0.500000 0.597467
O O16 0.000000 0.847414 0.205700
O O17 0.149125 0.000000 0.211805
#
# Coordination Sequence:
#
# PCOD9491277 Si02
#       6
#    16   8  16   8  16  16
#     4   9  17  31  50  69  89 116 150 184 218 260
#     4   9  15  21  27  35  49  73 109 151 194 243
#     4   9  15  22  32  46  65  90 119 153 197 248
#     4  10  21  35  51  71  95 122 150 182 220 262
#     4   9  15  21  28  38  54  78 110 151 198 244
#     4   9  16  25  38  58  81 102 127 164 210 255
#
# _framework density 22.390343999999999
#
# number of rings (size 3 to 8) (size 9 to 14) (size 15 to 20)
#    0.000    2.900    0.000    2.400    0.000   10.400 
#    0.000    0.000    0.000    3.000    0.000    0.000 
#    0.000    0.000    0.000    0.000    0.000    0.000 
#
# Total GULP energy -223436.496556 kJ/mol
# GULP energy per Si atom -5585.912414 kJ/mol
# Density = 2.233938 g / cm^3
# Si number density = 22.390344 Si / 1000 Ang^3
#
#
#
# Elastic Constant Matrix: (Units=GPa)
#
#
# Indices 1 2 3 4 5 6 
#
# 1 59.1266 8.4659 -7.2527 0.0000 0.0000 0.0000
# 2 8.4659 210.8900 135.4378 0.0000 0.0000 0.0000
# 3 -7.2527 135.4378 199.8066 0.0000 0.0000 0.0000
# 4 0.0000 0.0000 0.0000 50.8864 0.0000 0.0000
# 5 0.0000 0.0000 0.0000 0.0000 -52.0388 0.0000
# 6 0.0000 0.0000 0.0000 0.0000 0.0000 3.8921
#
#
#
# Elastic Compliance Matrix: (Units=1/GPa)
#
#
# Indices 1 2 3 4 5 6 
#
# 1 0.017434 -0.001959 0.001961 0.000000 0.000000 0.000000
# 2 -0.001959 0.008618 -0.005912 0.000000 0.000000 0.000000
# 3 0.001961 -0.005912 0.009084 0.000000 0.000000 0.000000
# 4 0.000000 0.000000 0.000000 0.019652 0.000000 0.000000
# 5 0.000000 0.000000 0.000000 0.000000 -0.019216 0.000000
# 6 0.000000 0.000000 0.000000 0.000000 0.000000 0.256931
#
#
# Mechanical properties :
#
#
# Convention : Reuss Voigt Hill
#
# Bulk Modulus (GPa) = 42.89338 82.56947 62.73143
# Shear Modulus (GPa) = 16.02079 22.75943 19.39011
#
# Velocity S-wave (km/s) = 2.67783 3.19169 2.94599
# Velocity P-wave (km/s) = 5.36281 7.10914 6.29681
#
# Compressibility (1/GPa) = 0.02331362
#
# Stress axis : x y z
#
# Youngs Moduli (GPa) = 57.35952 116.04190 110.08649
#
# Poissons Ratio (x) = 0.22734 -0.21586
# Poissons Ratio (y) = 0.11238 0.65089
# Poissons Ratio (z) = -0.11247 0.68610
#
# Static dielectric constant tensor:
#      x y z
#    x 1.869970 0.000000 0.000000 
#    y 0.000000 1.778590 0.000000 
#    z 0.000000 0.000000 1.800320 
# 
# From -- ./inp_files/75293.got.cif
#   From: 2010.05.17/outbox.cif.g08.bks.cpg/sg65_38_cif.got.tgz:75293.got - 2010.06.03 17:01:31.
