data_PCOD9491243
_publ_section_title
;
Structure prediction by ZEFSAII (Michael W. Deem and Ramdas Pophale) SiO2 
 PCOD9491243
Probable space group: C M M M
;
_chemical_formula_sum "Si O2"
_cell_formula_units_Z 80
_cell_length_a 27.794434
_cell_length_b 19.252205
_cell_length_c 7.573886
_cell_angle_alpha 90.000000
_cell_angle_beta 90.000000
_cell_angle_gamma 90.000000
_cell_volume 4052.817764
_symmetry_space_group_name_H-M "C M M M"
_symmetry_group_IT_number 65
_symmetry_cell_setting 'orthorhombic'
loop_
_space_group_symop_operation_xyz
x,y,z
-x,-y,z
x,-y,-z
-x,y,-z
-x,-y,-z
x,y,-z
-x,y,z
x,-y,z
1/2+x,1/2+y,z
1/2-x,1/2-y,z
1/2+x,1/2-y,-z
1/2-x,1/2+y,-z
1/2-x,1/2-y,-z
1/2+x,1/2+y,-z
1/2-x,1/2+y,z
1/2+x,1/2-y,z
loop_
_atom_site_type_symbol
_atom_site_label
_atom_site_fract_x
_atom_site_fract_y
_atom_site_fract_z
Si Si1 0.053107 0.862854 0.213319
Si Si2 0.943920 0.575777 0.784876
Si Si3 0.099108 0.280203 0.783654
Si Si4 0.199701 0.222600 0.207145
Si Si5 0.343071 0.576826 0.707792
O O1 0.063797 0.782973 0.266445
O O2 0.100219 0.905717 0.268071
O O3 0.000000 0.885129 0.275010
O O4 0.052662 0.865107 0.000000
O O5 0.925599 0.500000 0.727363
O O6 0.916935 0.644250 0.723057
O O7 0.000000 0.580757 0.736144
O O8 0.942272 0.576319 0.000000
O O9 0.152127 0.259697 0.719439
O O10 0.099132 0.280464 0.000000
O O11 0.250000 0.250000 0.282884
O O12 0.188366 0.140555 0.219342
O O13 0.200436 0.240503 0.000000
O O14 0.333651 0.575681 0.500000
O O15 0.333137 0.500000 0.781258
#
# Coordination Sequence:
#
# PCOD9491243 Si02
#       5
#    16  16  16  16  16
#     4   9  17  29  47  70  95 127 164 199 238 284
#     4   8  12  17  28  50  81 114 142 169 208 259
#     4   8  13  23  39  59  86 117 149 185 224 272
#     4   9  18  33  52  72  92 117 153 197 243 286
#     4  10  21  35  50  70  97 128 160 195 238 288
#
# _framework density 19.739353000000001
#
# number of rings (size 3 to 8) (size 9 to 14) (size 15 to 20)
#    0.000    3.200    0.000    3.000    0.000    5.200 
#    0.000    3.000    0.000    3.600    0.000    0.000 
#    0.000    7.200    0.000   44.000    0.000   40.000 
#
# Total GULP energy -222910.839282 kJ/mol
# GULP energy per Si atom -5572.770982 kJ/mol
# Density = 1.969442 g / cm^3
# Si number density = 19.739353 Si / 1000 Ang^3
#
#
#
# Elastic Constant Matrix: (Units=GPa)
#
#
# Indices 1 2 3 4 5 6 
#
# 1 92.1869 37.9876 -5.4075 0.0000 0.0000 0.0000
# 2 37.9876 129.8925 -14.8458 0.0000 0.0000 0.0000
# 3 -5.4075 -14.8458 39.4578 0.0000 0.0000 0.0000
# 4 0.0000 0.0000 0.0000 32.4499 0.0000 0.0000
# 5 0.0000 0.0000 0.0000 0.0000 -29.8325 0.0000
# 6 0.0000 0.0000 0.0000 0.0000 0.0000 11.2436
#
#
#
# Elastic Compliance Matrix: (Units=1/GPa)
#
#
# Indices 1 2 3 4 5 6 
#
# 1 0.012338 -0.003569 0.000348 0.000000 0.000000 0.000000
# 2 -0.003569 0.009077 0.002926 0.000000 0.000000 0.000000
# 3 0.000348 0.002926 0.026492 0.000000 0.000000 0.000000
# 4 0.000000 0.000000 0.000000 0.030817 0.000000 0.000000
# 5 0.000000 0.000000 0.000000 0.000000 -0.033521 0.000000
# 6 0.000000 0.000000 0.000000 0.000000 0.000000 0.088939
#
#
# Mechanical properties :
#
#
# Convention : Reuss Voigt Hill
#
# Bulk Modulus (GPa) = 21.13334 33.00067 27.06701
# Shear Modulus (GPa) = 33.22159 19.02574 26.12367
#
# Velocity S-wave (km/s) = 4.10691 3.10796 3.64185
# Velocity P-wave (km/s) = 5.76353 5.44369 5.60589
#
# Compressibility (1/GPa) = 0.04731860
#
# Stress axis : x y z
#
# Youngs Moduli (GPa) = 81.04714 110.17146 37.74705
#
# Poissons Ratio (x) = 0.39316 -0.01314
# Poissons Ratio (y) = 0.28923 -0.11045
# Poissons Ratio (z) = -0.02822 -0.32236
#
# Static dielectric constant tensor:
#      x y z
#    x 1.688080 0.000000 0.000000 
#    y 0.000000 1.703360 0.000000 
#    z 0.000000 0.000000 1.765490 
# 
# From -- ./inp_files/9619.got.cif
#   From: 2010.05.17/outbox.cif.g08.bks.cpg/sg65_5_cif.got.tgz:9619.got - 2010.06.03 17:01:31.
