data_PCOD9491561
_publ_section_title
;
Structure prediction by ZEFSAII (Michael W. Deem and Ramdas Pophale) SiO2 
 PCOD9491561
Probable space group: C M M M
;
_chemical_formula_sum "Si O2"
_cell_formula_units_Z 80
_cell_length_a 8.792182
_cell_length_b 19.639990
_cell_length_c 26.052533
_cell_angle_alpha 90.000000
_cell_angle_beta 90.000000
_cell_angle_gamma 90.000000
_cell_volume 4498.708843
_symmetry_space_group_name_H-M "C M M M"
_symmetry_group_IT_number 65
_symmetry_cell_setting 'orthorhombic'
loop_
_space_group_symop_operation_xyz
x,y,z
-x,-y,z
x,-y,-z
-x,y,-z
-x,-y,-z
x,y,-z
-x,y,z
x,-y,z
1/2+x,1/2+y,z
1/2-x,1/2-y,z
1/2+x,1/2-y,-z
1/2-x,1/2+y,-z
1/2-x,1/2-y,-z
1/2+x,1/2+y,-z
1/2-x,1/2+y,z
1/2+x,1/2-y,z
loop_
_atom_site_type_symbol
_atom_site_label
_atom_site_fract_x
_atom_site_fract_y
_atom_site_fract_z
Si Si1 0.817831 0.419932 0.855192
Si Si2 0.682564 0.174494 0.645915
Si Si3 0.318330 0.324895 0.941961
Si Si4 0.682876 0.421868 0.439827
Si Si5 0.185162 0.578032 0.738873
O O1 0.786819 0.500000 0.862832
O O2 0.740771 0.375281 0.898586
O O3 0.768356 0.403036 0.796848
O O4 0.000000 0.410450 0.857878
O O5 0.500000 0.178329 0.646466
O O6 0.750000 0.250000 0.646112
O O7 0.736740 0.131991 0.596555
O O8 0.734352 0.131034 0.695715
O O9 0.500000 0.320810 0.939909
O O10 0.250000 0.250000 0.933725
O O11 0.274219 0.346763 0.000000
O O12 0.718380 0.411366 0.500000
O O13 0.500000 0.416385 0.434311
O O14 0.725807 0.500000 0.426518
O O15 0.234235 0.500000 0.728138
O O16 0.000000 0.577045 0.738703
#
# Coordination Sequence:
#
# PCOD9491561 Si02
#       5
#    16  16  16  16  16
#     4   9  18  34  56  80 106 136 170 210 258 311
#     4  11  22  35  53  78 109 142 176 215 258 306
#     4  10  21  36  53  74 103 138 175 216 260 307
#     4   9  19  37  59  81 106 136 171 214 263 312
#     4   8  16  33  55  77 102 134 172 214 259 306
#
# _framework density 17.782881
#
# number of rings (size 3 to 8) (size 9 to 14) (size 15 to 20)
#    0.000    2.600    0.000    3.600    0.000    4.800 
#    0.000    7.000    0.000    2.400    0.000    0.000 
#    0.000    0.000    0.000    0.000    0.000    0.000 
#
# Total GULP energy -223164.656757 kJ/mol
# GULP energy per Si atom -5579.116419 kJ/mol
# Density = 1.774241 g / cm^3
# Si number density = 17.782881 Si / 1000 Ang^3
#
#
#
# Elastic Constant Matrix: (Units=GPa)
#
#
# Indices 1 2 3 4 5 6 
#
# 1 32.6355 54.1264 52.4741 0.0000 0.0000 0.0000
# 2 54.1264 136.9549 120.1220 0.0000 0.0000 0.0000
# 3 52.4741 120.1220 149.7704 0.0000 0.0000 0.0000
# 4 0.0000 0.0000 0.0000 -173.4242 0.0000 0.0000
# 5 0.0000 0.0000 0.0000 0.0000 23.8424 0.0000
# 6 0.0000 0.0000 0.0000 0.0000 0.0000 19.7196
#
#
#
# Elastic Compliance Matrix: (Units=1/GPa)
#
#
# Indices 1 2 3 4 5 6 
#
# 1 0.093624 -0.027756 -0.010541 0.000000 0.000000 0.000000
# 2 -0.027756 0.032852 -0.016624 0.000000 0.000000 0.000000
# 3 -0.010541 -0.016624 0.023703 0.000000 0.000000 0.000000
# 4 0.000000 0.000000 0.000000 -0.005766 0.000000 0.000000
# 5 0.000000 0.000000 0.000000 0.000000 0.041942 0.000000
# 6 0.000000 0.000000 0.000000 0.000000 0.000000 0.050711
#
#
# Mechanical properties :
#
#
# Convention : Reuss Voigt Hill
#
# Bulk Modulus (GPa) = 24.79106 85.86733 55.32920
# Shear Modulus (GPa) = 13.87529 -19.79656 -2.96064
#
# Velocity S-wave (km/s) = 2.79635 -3.34014 -1.29170
# Velocity P-wave (km/s) = 4.93936 5.78930 5.38114
#
# Compressibility (1/GPa) = 0.04033713
#
# Stress axis : x y z
#
# Youngs Moduli (GPa) = 10.68104 30.43964 42.18866
#
# Poissons Ratio (x) = 0.84488 0.44471
# Poissons Ratio (y) = 0.29646 0.70134
# Poissons Ratio (z) = 0.11259 0.50602
#
# Static dielectric constant tensor:
#      x y z
#    x 1.597010 0.000000 0.000000 
#    y 0.000000 1.575680 0.000000 
#    z 0.000000 0.000000 1.606400 
# 
# From -- ./inp_files/72723.got.cif
#   From: 2010.05.17/outbox.cif.g08.bks.cpg/sg65_37_cif.got.tgz:72723.got - 2010.06.03 17:01:31.
