data_PCOD9491276
_publ_section_title
;
Structure prediction by ZEFSAII (Michael W. Deem and Ramdas Pophale) SiO2 
 PCOD9491276
Probable space group: C M M M
;
_chemical_formula_sum "Si O2"
_cell_formula_units_Z 88
_cell_length_a 9.651525
_cell_length_b 14.173530
_cell_length_c 28.884177
_cell_angle_alpha 90.000000
_cell_angle_beta 90.000000
_cell_angle_gamma 90.000000
_cell_volume 3951.245051
_symmetry_space_group_name_H-M "C M M M"
_symmetry_group_IT_number 65
_symmetry_cell_setting 'orthorhombic'
loop_
_space_group_symop_operation_xyz
x,y,z
-x,-y,z
x,-y,-z
-x,y,-z
-x,-y,-z
x,y,-z
-x,y,z
x,-y,z
1/2+x,1/2+y,z
1/2-x,1/2-y,z
1/2+x,1/2-y,-z
1/2-x,1/2+y,-z
1/2-x,1/2-y,-z
1/2+x,1/2+y,-z
1/2-x,1/2+y,z
1/2+x,1/2-y,z
loop_
_atom_site_type_symbol
_atom_site_label
_atom_site_fract_x
_atom_site_fract_y
_atom_site_fract_z
Si Si1 0.154554 0.109251 0.896234
Si Si2 0.156742 0.384797 0.814203
Si Si3 0.164318 0.155888 0.000000
Si Si4 0.658145 0.385049 0.273592
Si Si5 0.157785 0.384833 0.638391
Si Si6 0.342477 0.385020 0.447210
O O1 0.272653 0.145986 0.862269
O O2 0.000000 0.152403 0.890979
O O3 0.140374 0.000000 0.882789
O O4 0.193997 0.109695 0.950372
O O5 0.148684 0.500000 0.813668
O O6 0.257140 0.358201 0.772140
O O7 0.000000 0.349744 0.808790
O O8 0.250000 0.250000 0.000000
O O9 0.000000 0.171635 0.000000
O O10 0.500000 0.350602 0.273843
O O11 0.652127 0.500000 0.273798
O O12 0.744885 0.357567 0.318826
O O13 0.153204 0.500000 0.638676
O O14 0.230179 0.356041 0.590506
O O15 0.000000 0.351305 0.642934
O O16 0.312000 0.356442 0.500000
O O17 0.500000 0.355440 0.435313
O O18 0.343668 0.500000 0.446826
#
# Coordination Sequence:
#
# PCOD9491276 Si02
#       6
#    16  16   8  16  16  16
#     4   9  17  31  50  69  89 116 150 182 213 254
#     4   9  16  25  38  58  81 101 124 159 202 244
#     4  10  21  35  51  71  95 122 150 182 218 256
#     4   9  15  22  32  45  63  88 115 143 181 233
#     4   9  15  20  26  37  53  73  99 135 180 228
#     4   8  13  20  27  33  43  63  94 132 174 223
#
# _framework density 22.271460999999999
#
# number of rings (size 3 to 8) (size 9 to 14) (size 15 to 20)
#    0.000    3.091    0.000    2.455    0.000    8.727 
#    0.000    1.818    0.000    2.727    0.000    0.000 
#    0.000    0.000    0.000    0.000    0.000    0.000 
#
# Total GULP energy -245712.229310 kJ/mol
# GULP energy per Si atom -5584.368848 kJ/mol
# Density = 2.222077 g / cm^3
# Si number density = 22.271461 Si / 1000 Ang^3
#
#
#
# Elastic Constant Matrix: (Units=GPa)
#
#
# Indices 1 2 3 4 5 6 
#
# 1 217.7351 12.4403 147.8564 0.0000 0.0000 0.0000
# 2 12.4403 62.6158 -6.8581 0.0000 0.0000 0.0000
# 3 147.8564 -6.8581 174.7569 0.0000 0.0000 0.0000
# 4 0.0000 0.0000 0.0000 -39.6898 0.0000 0.0000
# 5 0.0000 0.0000 0.0000 0.0000 72.0000 0.0000
# 6 0.0000 0.0000 0.0000 0.0000 0.0000 3.5722
#
#
#
# Elastic Compliance Matrix: (Units=1/GPa)
#
#
# Indices 1 2 3 4 5 6 
#
# 1 0.011455 -0.003352 -0.009823 0.000000 0.000000 0.000000
# 2 -0.003352 0.017020 0.003504 0.000000 0.000000 0.000000
# 3 -0.009823 0.003504 0.014171 0.000000 0.000000 0.000000
# 4 0.000000 0.000000 0.000000 -0.025195 0.000000 0.000000
# 5 0.000000 0.000000 0.000000 0.000000 0.013889 0.000000
# 6 0.000000 0.000000 0.000000 0.000000 0.000000 0.279938
#
#
# Mechanical properties :
#
#
# Convention : Reuss Voigt Hill
#
# Bulk Modulus (GPa) = 42.91214 84.66499 63.78857
# Shear Modulus (GPa) = 14.77598 27.28776 21.03187
#
# Velocity S-wave (km/s) = 2.57854 3.50413 3.07635
# Velocity P-wave (km/s) = 5.30799 7.38034 6.42823
#
# Compressibility (1/GPa) = 0.02330343
#
# Stress axis : x y z
#
# Youngs Moduli (GPa) = 87.30054 58.75423 70.56837
#
# Poissons Ratio (x) = 0.19692 0.69319
# Poissons Ratio (y) = 0.29260 -0.24725
# Poissons Ratio (z) = 0.85755 -0.20585
#
# Static dielectric constant tensor:
#      x y z
#    x 1.789230 0.000000 0.000000 
#    y 0.000000 1.863770 0.000000 
#    z 0.000000 0.000000 1.799940 
# 
# From -- ./inp_files/76550.got.cif
#   From: 2010.05.17/outbox.cif.g08.bks.cpg/sg65_39_cif.got.tgz:76550.got - 2010.06.03 17:01:31.
