data_PCOD9491829
_publ_section_title
;
Structure prediction by ZEFSAII (Michael W. Deem and Ramdas Pophale) SiO2 
 PCOD9491829
Probable space group: C M M M
;
_chemical_formula_sum "Si O2"
_cell_formula_units_Z 88
_cell_length_a 20.866072
_cell_length_b 18.574960
_cell_length_c 12.651784
_cell_angle_alpha 90.000000
_cell_angle_beta 90.000000
_cell_angle_gamma 90.000000
_cell_volume 4903.660082
_symmetry_space_group_name_H-M "C M M M"
_symmetry_group_IT_number 65
_symmetry_cell_setting 'orthorhombic'
loop_
_space_group_symop_operation_xyz
x,y,z
-x,-y,z
x,-y,-z
-x,y,-z
-x,-y,-z
x,y,-z
-x,y,z
x,-y,z
1/2+x,1/2+y,z
1/2-x,1/2-y,z
1/2+x,1/2-y,-z
1/2-x,1/2+y,-z
1/2-x,1/2-y,-z
1/2+x,1/2+y,-z
1/2-x,1/2+y,z
1/2+x,1/2-y,z
loop_
_atom_site_type_symbol
_atom_site_label
_atom_site_fract_x
_atom_site_fract_y
_atom_site_fract_z
Si Si1 0.243834 0.916325 0.807382
Si Si2 0.118791 0.820515 0.192473
Si Si3 0.424638 0.221463 0.374430
Si Si4 0.657355 0.081805 0.375417
Si Si5 0.842146 0.582910 0.000000
Si Si6 0.000000 0.914939 0.126681
Si Si7 0.423023 0.778871 0.000000
O O1 0.185822 0.861258 0.819647
O O2 0.280512 0.906383 0.696639
O O3 0.221735 0.000000 0.814861
O O4 0.296710 0.905808 0.898402
O O5 0.111215 0.780341 0.303942
O O6 0.105811 0.761461 0.101940
O O7 0.062366 0.878428 0.176414
O O8 0.418108 0.234748 0.500000
O O9 0.500000 0.222866 0.347474
O O10 0.394684 0.143020 0.351910
O O11 0.672490 0.086307 0.500000
O O12 0.634377 0.000000 0.353635
O O13 0.899207 0.639449 0.000000
O O14 0.863758 0.500000 0.000000
O O15 0.000000 0.000000 0.142790
O O16 0.000000 0.901268 0.000000
O O17 0.500000 0.773234 0.000000
#
# Coordination Sequence:
#
# PCOD9491829 Si02
#       7
#    16  16  16  16   8   8   8
#     4  10  22  38  57  82 112 147 186 232 283 336
#     4  12  21  38  58  84 116 148 184 237 281 336
#     4  10  21  36  57  83 115 152 187 232 285 334
#     4   9  19  37  58  82 112 147 192 238 278 330
#     4  10  23  40  57  82 117 149 185 227 277 341
#     4  11  22  38  61  87 111 148 194 235 279 328
#     4  12  23  38  59  85 114 150 186 233 282 325
#
# _framework density 17.945778000000001
#
# number of rings (size 3 to 8) (size 9 to 14) (size 15 to 20)
#    0.000    1.545    2.727    2.182    0.000    4.909 
#    0.000    3.636    0.000    7.636    0.000    0.000 
#    0.000    0.000    0.000    0.000    0.000    0.000 
#
# Total GULP energy -245753.943314 kJ/mol
# GULP energy per Si atom -5585.316894 kJ/mol
# Density = 1.790493 g / cm^3
# Si number density = 17.945778 Si / 1000 Ang^3
#
#
#
# Elastic Constant Matrix: (Units=GPa)
#
#
# Indices 1 2 3 4 5 6 
#
# 1 55.6759 55.0841 23.4026 0.0000 0.0000 0.0000
# 2 55.0841 120.0412 41.9221 0.0000 0.0000 0.0000
# 3 23.4026 41.9221 48.7967 0.0000 0.0000 0.0000
# 4 0.0000 0.0000 0.0000 19.6343 0.0000 0.0000
# 5 0.0000 0.0000 0.0000 0.0000 12.0124 0.0000
# 6 0.0000 0.0000 0.0000 0.0000 0.0000 71.8077
#
#
#
# Elastic Compliance Matrix: (Units=1/GPa)
#
#
# Indices 1 2 3 4 5 6 
#
# 1 0.033455 -0.013927 -0.004080 0.000000 0.000000 0.000000
# 2 -0.013927 0.017699 -0.008526 0.000000 0.000000 0.000000
# 3 -0.004080 -0.008526 0.029775 0.000000 0.000000 0.000000
# 4 0.000000 0.000000 0.000000 0.050931 0.000000 0.000000
# 5 0.000000 0.000000 0.000000 0.000000 0.083248 0.000000
# 6 0.000000 0.000000 0.000000 0.000000 0.000000 0.013926
#
#
# Mechanical properties :
#
#
# Convention : Reuss Voigt Hill
#
# Bulk Modulus (GPa) = 35.89033 51.70348 43.79691
# Shear Modulus (GPa) = 17.15933 27.63119 22.39526
#
# Velocity S-wave (km/s) = 3.09557 3.92816 3.53645
# Velocity P-wave (km/s) = 5.72882 7.03189 6.41354
#
# Compressibility (1/GPa) = 0.02786266
#
# Stress axis : x y z
#
# Youngs Moduli (GPa) = 29.89108 56.50130 33.58539
#
# Poissons Ratio (x) = 0.78688 0.13703
# Poissons Ratio (y) = 0.41629 0.28635
# Poissons Ratio (z) = 0.12196 0.48173
#
# Static dielectric constant tensor:
#      x y z
#    x 1.574590 0.000000 0.000000 
#    y 0.000000 1.610700 0.000000 
#    z 0.000000 0.000000 1.621750 
# 
# From -- ./inp_files/28780.got.cif
#   From: 2010.05.17/outbox.cif.g08.bks.cpg/sg65_15_cif.got.tgz:28780.got - 2010.06.03 17:01:31.
