data_PCOD9491329
_publ_section_title
;
Structure prediction by ZEFSAII (Michael W. Deem and Ramdas Pophale) SiO2 
 PCOD9491329
Probable space group: C M M M
;
_chemical_formula_sum "Si O2"
_cell_formula_units_Z 96
_cell_length_a 24.004200
_cell_length_b 25.634489
_cell_length_c 9.171282
_cell_angle_alpha 90.000000
_cell_angle_beta 90.000000
_cell_angle_gamma 90.000000
_cell_volume 5643.414486
_symmetry_space_group_name_H-M "C M M M"
_symmetry_group_IT_number 65
_symmetry_cell_setting 'orthorhombic'
loop_
_space_group_symop_operation_xyz
x,y,z
-x,-y,z
x,-y,-z
-x,y,-z
-x,-y,-z
x,y,-z
-x,y,z
x,-y,z
1/2+x,1/2+y,z
1/2-x,1/2-y,z
1/2+x,1/2-y,-z
1/2-x,1/2+y,-z
1/2-x,1/2-y,-z
1/2+x,1/2+y,-z
1/2-x,1/2+y,z
1/2+x,1/2-y,z
loop_
_atom_site_type_symbol
_atom_site_label
_atom_site_fract_x
_atom_site_fract_y
_atom_site_fract_z
Si Si1 0.565286 0.254689 0.173879
Si Si2 0.564697 0.938980 0.674685
Si Si3 0.130587 0.848481 0.325836
Si Si4 0.134671 0.649988 0.826148
Si Si5 0.564515 0.438770 0.825610
Si Si6 0.754224 0.688577 0.325264
O O1 0.500000 0.252182 0.209869
O O2 0.595467 0.300693 0.259850
O O3 0.595428 0.200013 0.205425
O O4 0.570266 0.264602 0.000000
O O5 0.570322 0.932413 0.500000
O O6 0.500000 0.927566 0.712448
O O7 0.605813 0.900528 0.757202
O O8 0.574914 0.000000 0.707553
O O9 0.125018 0.848986 0.500000
O O10 0.106088 0.901147 0.258040
O O11 0.195378 0.838399 0.290583
O O12 0.194462 0.662287 0.756630
O O13 0.139147 0.644639 0.000000
O O14 0.500000 0.425982 0.788647
O O15 0.573263 0.500000 0.793916
O O16 0.570332 0.431704 0.000000
O O17 0.763263 0.685707 0.500000
O O18 0.750000 0.750000 0.286626
#
# Coordination Sequence:
#
# PCOD9491329 Si02
#       6
#    16  16  16  16  16  16
#     4  10  21  35  51  76 112 146 174 214 272 334
#     4   9  19  37  60  84 112 149 188 225 274 335
#     4  11  22  35  55  82 108 139 183 231 272 315
#     4  11  22  35  56  84 112 143 186 233 277 326
#     4   9  19  37  59  81 109 146 180 214 268 333
#     4  10  21  39  57  75 108 151 190 227 273 328
#
# _framework density 17.010978000000001
#
# number of rings (size 3 to 8) (size 9 to 14) (size 15 to 20)
#    0.000    2.000    1.667    3.000    0.000    6.667 
#    0.000    2.500    0.000    1.000    0.000    0.000 
#    0.000    0.000    0.000    0.000    0.000    0.000 
#
# Total GULP energy -268051.786214 kJ/mol
# GULP energy per Si atom -5584.412213 kJ/mol
# Density = 1.697226 g / cm^3
# Si number density = 17.010978 Si / 1000 Ang^3
#
#
#
# Elastic Constant Matrix: (Units=GPa)
#
#
# Indices 1 2 3 4 5 6 
#
# 1 178.0310 105.4328 82.2853 0.0000 0.0000 0.0000
# 2 105.4328 117.8879 66.0154 0.0000 0.0000 0.0000
# 3 82.2853 66.0154 51.0607 0.0000 0.0000 0.0000
# 4 0.0000 0.0000 0.0000 31.3752 0.0000 0.0000
# 5 0.0000 0.0000 0.0000 0.0000 26.2983 0.0000
# 6 0.0000 0.0000 0.0000 0.0000 0.0000 13.7754
#
#
#
# Elastic Compliance Matrix: (Units=1/GPa)
#
#
# Indices 1 2 3 4 5 6 
#
# 1 0.022027 0.000645 -0.036330 0.000000 0.000000 0.000000
# 2 0.000645 0.030752 -0.040798 0.000000 0.000000 0.000000
# 3 -0.036330 -0.040798 0.130877 0.000000 0.000000 0.000000
# 4 0.000000 0.000000 0.000000 0.031872 0.000000 0.000000
# 5 0.000000 0.000000 0.000000 0.000000 0.038025 0.000000
# 6 0.000000 0.000000 0.000000 0.000000 0.000000 0.072593
#
#
# Mechanical properties :
#
#
# Convention : Reuss Voigt Hill
#
# Bulk Modulus (GPa) = 32.58358 94.93851 63.76105
# Shear Modulus (GPa) = 10.21777 20.50621 15.36199
#
# Velocity S-wave (km/s) = 2.45349 3.47575 3.00836
# Velocity P-wave (km/s) = 5.21749 8.48759 7.04490
#
# Compressibility (1/GPa) = 0.03069030
#
# Stress axis : x y z
#
# Youngs Moduli (GPa) = 45.39904 32.51800 7.64074
#
# Poissons Ratio (x) = -0.02096 0.27759
# Poissons Ratio (y) = -0.02926 0.31172
# Poissons Ratio (z) = 1.64935 1.32666
#
# Static dielectric constant tensor:
#      x y z
#    x 1.551630 0.000000 0.000000 
#    y 0.000000 1.553490 0.000000 
#    z 0.000000 0.000000 1.562100 
# 
# From -- ./inp_files/12257.got.cif
#   From: 2010.05.17/outbox.cif.g08.bks.cpg/sg65_7_cif.got.tgz:12257.got - 2010.06.03 17:01:31.
