data_PCOD9491925
_publ_section_title
;
Structure prediction by ZEFSAII (Michael W. Deem and Ramdas Pophale) SiO2 
 PCOD9491925
Probable space group: C M M M
;
_chemical_formula_sum "Si O2"
_cell_formula_units_Z 88
_cell_length_a 8.203239
_cell_length_b 18.480314
_cell_length_c 29.800161
_cell_angle_alpha 90.000000
_cell_angle_beta 90.000000
_cell_angle_gamma 90.000000
_cell_volume 4517.657697
_symmetry_space_group_name_H-M "C M M M"
_symmetry_group_IT_number 65
_symmetry_cell_setting 'orthorhombic'
loop_
_space_group_symop_operation_xyz
x,y,z
-x,-y,z
x,-y,-z
-x,y,-z
-x,-y,-z
x,y,-z
-x,y,z
x,-y,z
1/2+x,1/2+y,z
1/2-x,1/2-y,z
1/2+x,1/2-y,-z
1/2-x,1/2+y,-z
1/2-x,1/2-y,-z
1/2+x,1/2+y,-z
1/2-x,1/2+y,z
1/2+x,1/2-y,z
loop_
_atom_site_type_symbol
_atom_site_label
_atom_site_fract_x
_atom_site_fract_y
_atom_site_fract_z
Si Si1 0.196781 0.582851 0.588830
Si Si2 0.803020 0.334140 0.951798
Si Si3 0.697209 0.166974 0.500000
Si Si4 0.806561 0.832840 0.322650
Si Si5 0.697027 0.917363 0.765715
Si Si6 0.302647 0.833610 0.853907
O O1 0.255749 0.500000 0.589099
O O2 0.254603 0.625850 0.544795
O O3 0.244075 0.624153 0.633963
O O4 0.000000 0.580790 0.586771
O O5 0.750000 0.250000 0.951851
O O6 0.747717 0.362156 0.903075
O O7 0.000000 0.337411 0.951926
O O8 0.746361 0.365316 0.000000
O O9 0.500000 0.164911 0.500000
O O10 0.750000 0.250000 0.500000
O O11 0.750000 0.750000 0.324202
O O12 0.745735 0.871186 0.277435
O O13 0.000000 0.834352 0.322925
O O14 0.500000 0.918828 0.767417
O O15 0.755788 0.879814 0.811621
O O16 0.754975 0.000000 0.761892
O O17 0.500000 0.835018 0.853661
O O18 0.250000 0.750000 0.849295
#
# Coordination Sequence:
#
# PCOD9491925 Si02
#       6
#    16  16   8  16  16  16
#     4  10  21  39  62  87 117 151 185 222 267 317
#     4   8  13  22  38  62  92 123 157 201 251 301
#     4  10  21  37  59  87 117 152 191 228 266 310
#     4  12  25  40  59  83 110 140 178 222 268 319
#     4  10  21  37  55  75 103 139 176 216 265 318
#     4   9  17  29  47  71  97 128 167 210 257 309
#
# _framework density 19.479120000000002
#
# number of rings (size 3 to 8) (size 9 to 14) (size 15 to 20)
#    0.000    2.182    0.000    3.545    0.000    8.364 
#    0.000    0.000    0.000    2.182    0.000    3.818 
#    0.000    0.000    0.000   31.091    0.000   15.636 
#
# Total GULP energy -245511.726821 kJ/mol
# GULP energy per Si atom -5579.811973 kJ/mol
# Density = 1.943478 g / cm^3
# Si number density = 19.479120 Si / 1000 Ang^3
#
#
#
# Elastic Constant Matrix: (Units=GPa)
#
#
# Indices 1 2 3 4 5 6 
#
# 1 15.0471 12.4962 15.2292 0.0000 0.0000 0.0000
# 2 12.4962 151.8031 113.1012 0.0000 0.0000 0.0000
# 3 15.2292 113.1012 242.4650 0.0000 0.0000 0.0000
# 4 0.0000 0.0000 0.0000 -34.4258 0.0000 0.0000
# 5 0.0000 0.0000 0.0000 0.0000 -2.4901 0.0000
# 6 0.0000 0.0000 0.0000 0.0000 0.0000 21.3476
#
#
#
# Elastic Compliance Matrix: (Units=1/GPa)
#
#
# Indices 1 2 3 4 5 6 
#
# 1 0.072480 -0.003946 -0.002712 0.000000 0.000000 0.000000
# 2 -0.003946 0.010311 -0.004562 0.000000 0.000000 0.000000
# 3 -0.002712 -0.004562 0.006423 0.000000 0.000000 0.000000
# 4 0.000000 0.000000 0.000000 -0.029048 0.000000 0.000000
# 5 0.000000 0.000000 0.000000 0.000000 -0.401589 0.000000
# 6 0.000000 0.000000 0.000000 0.000000 0.000000 0.046844
#
#
# Mechanical properties :
#
#
# Convention : Reuss Voigt Hill
#
# Bulk Modulus (GPa) = 14.97590 76.77428 45.87509
# Shear Modulus (GPa) = -20.00944 14.78557 -2.61194
#
# Velocity S-wave (km/s) = -3.20851 2.75807 -1.15922
# Velocity P-wave (km/s) = 2.45381 7.04569 4.67015
#
# Compressibility (1/GPa) = 0.06677395
#
# Stress axis : x y z
#
# Youngs Moduli (GPa) = 13.79699 96.98183 155.69959
#
# Poissons Ratio (x) = 0.38269 0.42222
# Poissons Ratio (y) = 0.05444 0.71030
# Poissons Ratio (z) = 0.03741 0.44243
#
# Static dielectric constant tensor:
#      x y z
#    x 1.672200 0.000000 0.000000 
#    y 0.000000 1.630750 0.000000 
#    z 0.000000 0.000000 1.713840 
# 
# From -- ./inp_files/76429.got.cif
#   From: 2010.05.17/outbox.cif.g08.bks.cpg/sg65_39_cif.got.tgz:76429.got - 2010.06.03 17:01:31.
