data_PCOD9491589
_publ_section_title
;
Structure prediction by ZEFSAII (Michael W. Deem and Ramdas Pophale) SiO2 
 PCOD9491589
Probable space group: C M M M
;
_chemical_formula_sum "Si O2"
_cell_formula_units_Z 112
_cell_length_a 14.093070
_cell_length_b 28.627675
_cell_length_c 14.334020
_cell_angle_alpha 90.000000
_cell_angle_beta 90.000000
_cell_angle_gamma 90.000000
_cell_volume 5783.086567
_symmetry_space_group_name_H-M "C M M M"
_symmetry_group_IT_number 65
_symmetry_cell_setting 'orthorhombic'
loop_
_space_group_symop_operation_xyz
x,y,z
-x,-y,z
x,-y,-z
-x,y,-z
-x,-y,-z
x,y,-z
-x,y,z
x,-y,z
1/2+x,1/2+y,z
1/2-x,1/2-y,z
1/2+x,1/2-y,-z
1/2-x,1/2+y,-z
1/2-x,1/2-y,-z
1/2+x,1/2+y,-z
1/2-x,1/2+y,z
1/2+x,1/2-y,z
loop_
_atom_site_type_symbol
_atom_site_label
_atom_site_fract_x
_atom_site_fract_y
_atom_site_fract_z
Si Si1 0.393467 0.867354 0.889297
Si Si2 0.389372 0.360022 0.759799
Si Si3 0.385468 0.948385 0.235495
Si Si4 0.112184 0.378887 0.395326
Si Si5 0.722762 0.697225 0.110883
Si Si6 0.615495 0.554613 0.107005
Si Si7 0.266070 0.696129 0.609305
O O1 0.500000 0.856319 0.853500
O O2 0.370129 0.919850 0.858934
O O3 0.311110 0.833902 0.853846
O O4 0.395999 0.863059 0.000000
O O5 0.500000 0.365457 0.737251
O O6 0.370695 0.321371 0.839776
O O7 0.355971 0.408388 0.811901
O O8 0.333926 0.336810 0.672442
O O9 0.500000 0.951942 0.245988
O O10 0.352224 0.915695 0.319475
O O11 0.345523 0.000000 0.236373
O O12 0.129279 0.397006 0.500000
O O13 0.165590 0.330233 0.386349
O O14 0.000000 0.372674 0.383499
O O15 0.750000 0.750000 0.130855
O O16 0.713916 0.691833 0.000000
O O17 0.500000 0.556281 0.105712
O O18 0.641458 0.500000 0.123110
O O19 0.646449 0.567554 0.000000
O O20 0.296964 0.696764 0.500000
O O21 0.250000 0.750000 0.639214
#
# Coordination Sequence:
#
# PCOD9491589 Si02
#       7
#    16  16  16  16  16  16  16
#     4   9  18  33  52  73 101 140 181 217 256 307
#     4  11  22  35  55  82 111 144 182 225 273 324
#     4   9  17  29  48  75 105 137 171 208 253 307
#     4   9  18  34  57  81 103 131 168 211 261 316
#     4  10  21  36  53  76 108 142 178 223 272 322
#     4   8  15  31  56  83 110 143 184 228 274 325
#     4  10  22  40  59  80 109 142 179 226 276 328
#
# _framework density 19.366820000000001
#
# number of rings (size 3 to 8) (size 9 to 14) (size 15 to 20)
#    0.000    2.571    0.000    2.143    0.000    2.857 
#    0.000   10.000    0.000    2.143    0.000    2.000 
#    0.000    0.000    0.000    0.000    0.000    0.000 
#
# Total GULP energy -312114.837416 kJ/mol
# GULP energy per Si atom -5573.479240 kJ/mol
# Density = 1.932274 g / cm^3
# Si number density = 19.366820 Si / 1000 Ang^3
#
#
#
# Elastic Constant Matrix: (Units=GPa)
#
#
# Indices 1 2 3 4 5 6 
#
# 1 48.1599 18.6300 18.0398 0.0000 0.0000 0.0000
# 2 18.6300 94.3493 22.5501 0.0000 0.0000 0.0000
# 3 18.0398 22.5501 76.0753 0.0000 0.0000 0.0000
# 4 0.0000 0.0000 0.0000 26.6648 0.0000 0.0000
# 5 0.0000 0.0000 0.0000 0.0000 16.9404 0.0000
# 6 0.0000 0.0000 0.0000 0.0000 0.0000 22.3630
#
#
#
# Elastic Compliance Matrix: (Units=1/GPa)
#
#
# Indices 1 2 3 4 5 6 
#
# 1 0.023884 -0.003619 -0.004591 0.000000 0.000000 0.000000
# 2 -0.003619 0.011955 -0.002686 0.000000 0.000000 0.000000
# 3 -0.004591 -0.002686 0.015030 0.000000 0.000000 0.000000
# 4 0.000000 0.000000 0.000000 0.037503 0.000000 0.000000
# 5 0.000000 0.000000 0.000000 0.000000 0.059031 0.000000
# 6 0.000000 0.000000 0.000000 0.000000 0.000000 0.044717
#
#
# Mechanical properties :
#
#
# Convention : Reuss Voigt Hill
#
# Bulk Modulus (GPa) = 34.39027 37.44715 35.91871
# Shear Modulus (GPa) = 22.36119 23.81796 23.08957
#
# Velocity S-wave (km/s) = 3.40165 3.51070 3.45660
# Velocity P-wave (km/s) = 5.76404 5.98424 5.87517
#
# Compressibility (1/GPa) = 0.02907799
#
# Stress axis : x y z
#
# Youngs Moduli (GPa) = 41.86960 83.64458 66.53538
#
# Poissons Ratio (x) = 0.30269 0.30546
# Poissons Ratio (y) = 0.15152 0.17869
# Poissons Ratio (z) = 0.19222 0.22464
#
# Static dielectric constant tensor:
#      x y z
#    x 1.722300 0.000000 0.000000 
#    y 0.000000 1.687450 0.000000 
#    z 0.000000 0.000000 1.703460 
# 
# From -- ./inp_files/41101.got.cif
#   From: 2010.05.17/outbox.cif.g08.bks.cpg/sg65_21_cif.got.tgz:41101.got - 2010.06.03 17:01:31.
