data_PCOD9491254
_publ_section_title
;
Structure prediction by ZEFSAII (Michael W. Deem and Ramdas Pophale) SiO2 
 PCOD9491254
Probable space group: C M M M
;
_chemical_formula_sum "Si O2"
_cell_formula_units_Z 72
_cell_length_a 28.214300
_cell_length_b 16.482882
_cell_length_c 7.492888
_cell_angle_alpha 90.000000
_cell_angle_beta 90.000000
_cell_angle_gamma 90.000000
_cell_volume 3484.589875
_symmetry_space_group_name_H-M "C M M M"
_symmetry_group_IT_number 65
_symmetry_cell_setting 'orthorhombic'
loop_
_space_group_symop_operation_xyz
x,y,z
-x,-y,z
x,-y,-z
-x,y,-z
-x,-y,-z
x,y,-z
-x,y,z
x,-y,z
1/2+x,1/2+y,z
1/2-x,1/2-y,z
1/2+x,1/2-y,-z
1/2-x,1/2+y,-z
1/2-x,1/2-y,-z
1/2+x,1/2+y,-z
1/2-x,1/2+y,z
1/2+x,1/2-y,z
loop_
_atom_site_type_symbol
_atom_site_label
_atom_site_fract_x
_atom_site_fract_y
_atom_site_fract_z
Si Si1 0.349830 0.589171 0.791831
Si Si2 0.802016 0.255124 0.295853
Si Si3 0.946882 0.833642 0.715936
Si Si4 0.945066 0.500000 0.281875
Si Si5 0.103015 0.332726 0.718258
O O1 0.338393 0.500000 0.720446
O O2 0.324110 0.665025 0.702499
O O3 0.405969 0.605763 0.777091
O O4 0.336880 0.591754 0.000000
O O5 0.795183 0.283604 0.500000
O O6 0.750000 0.250000 0.211845
O O7 0.843743 0.311560 0.218695
O O8 0.946802 0.835354 0.500000
O O9 0.930178 0.743142 0.770056
O O10 0.000000 0.851182 0.777268
O O11 0.945046 0.500000 0.500000
O O12 0.918294 0.418295 0.224600
O O13 0.000000 0.500000 0.226344
O O14 0.104102 0.332533 0.500000
#
# Coordination Sequence:
#
# PCOD9491254 Si02
#       5
#    16  16  16   8  16
#     4  10  21  35  50  71  99 130 165 203 245 296
#     4   9  18  34  53  73  96 125 162 205 253 297
#     4   9  17  30  49  71  97 131 167 203 246 295
#     4   9  14  20  36  64  97 127 151 185 236 287
#     4   8  14  25  41  65  97 125 155 193 237 293
#
# _framework density 20.662403000000001
#
# number of rings (size 3 to 8) (size 9 to 14) (size 15 to 20)
#    0.000    3.000    0.000    2.667    0.000    5.778 
#    2.000    2.222    0.000    0.000    0.000    7.000 
#    0.000   21.333    0.000    0.000    0.000    0.000 
#
# Total GULP energy -200794.030800 kJ/mol
# GULP energy per Si atom -5577.611967 kJ/mol
# Density = 2.061537 g / cm^3
# Si number density = 20.662403 Si / 1000 Ang^3
#
#
#
# Elastic Constant Matrix: (Units=GPa)
#
#
# Indices 1 2 3 4 5 6 
#
# 1 155.1976 43.8475 -2.9478 0.0000 0.0000 0.0000
# 2 43.8475 112.6608 -5.1846 0.0000 0.0000 0.0000
# 3 -2.9478 -5.1846 58.1681 0.0000 0.0000 0.0000
# 4 0.0000 0.0000 0.0000 23.2946 0.0000 0.0000
# 5 0.0000 0.0000 0.0000 0.0000 21.2661 0.0000
# 6 0.0000 0.0000 0.0000 0.0000 0.0000 12.1435
#
#
#
# Elastic Compliance Matrix: (Units=1/GPa)
#
#
# Indices 1 2 3 4 5 6 
#
# 1 0.007240 -0.002813 0.000116 0.000000 0.000000 0.000000
# 2 -0.002813 0.010005 0.000749 0.000000 0.000000 0.000000
# 3 0.000116 0.000749 0.017264 0.000000 0.000000 0.000000
# 4 0.000000 0.000000 0.000000 0.042928 0.000000 0.000000
# 5 0.000000 0.000000 0.000000 0.000000 0.047023 0.000000
# 6 0.000000 0.000000 0.000000 0.000000 0.000000 0.082348
#
#
# Mechanical properties :
#
#
# Convention : Reuss Voigt Hill
#
# Bulk Modulus (GPa) = 32.66303 44.16186 38.41245
# Shear Modulus (GPa) = 22.63374 30.69493 26.66434
#
# Velocity S-wave (km/s) = 3.31328 3.85846 3.59622
# Velocity P-wave (km/s) = 5.52082 6.42415 5.98954
#
# Compressibility (1/GPa) = 0.03061565
#
# Stress axis : x y z
#
# Youngs Moduli (GPa) = 138.11730 99.94677 57.92329
#
# Poissons Ratio (x) = 0.28110 -0.00673
# Poissons Ratio (y) = 0.38846 -0.04340
# Poissons Ratio (z) = -0.01605 -0.07489
#
# Static dielectric constant tensor:
#      x y z
#    x 1.736650 0.000000 0.000000 
#    y 0.000000 1.699050 0.000000 
#    z 0.000000 0.000000 1.813490 
# 
# From -- ./inp_files/7638.got.cif
#   From: 2010.05.17/outbox.cif.g08.bks.cpg/sg65_4_cif.got.tgz:7638.got - 2010.06.03 17:01:31.
