data_PCOD9491463
_publ_section_title
;
Structure prediction by ZEFSAII (Michael W. Deem and Ramdas Pophale) SiO2 
 PCOD9491463
Probable space group: C M M M
;
_chemical_formula_sum "Si O2"
_cell_formula_units_Z 96
_cell_length_a 23.836616
_cell_length_b 28.440472
_cell_length_c 7.597442
_cell_angle_alpha 90.000000
_cell_angle_beta 90.000000
_cell_angle_gamma 90.000000
_cell_volume 5150.492904
_symmetry_space_group_name_H-M "C M M M"
_symmetry_group_IT_number 65
_symmetry_cell_setting 'orthorhombic'
loop_
_space_group_symop_operation_xyz
x,y,z
-x,-y,z
x,-y,-z
-x,y,-z
-x,-y,-z
x,y,-z
-x,y,z
x,-y,z
1/2+x,1/2+y,z
1/2-x,1/2-y,z
1/2+x,1/2-y,-z
1/2-x,1/2+y,-z
1/2-x,1/2-y,-z
1/2+x,1/2+y,-z
1/2-x,1/2+y,z
1/2+x,1/2-y,z
loop_
_atom_site_type_symbol
_atom_site_label
_atom_site_fract_x
_atom_site_fract_y
_atom_site_fract_z
Si Si1 0.000000 0.237116 0.284312
Si Si2 0.121200 0.103215 0.288230
Si Si3 0.000000 0.873482 0.284335
Si Si4 0.115392 0.715354 0.714685
Si Si5 0.686595 0.696202 0.285739
Si Si6 0.297459 0.146414 0.290880
Si Si7 0.234841 0.051793 0.793172
O O1 0.944683 0.265379 0.225515
O O2 0.000000 0.236037 0.500000
O O3 0.000000 0.181898 0.231922
O O4 0.120395 0.101345 0.500000
O O5 0.057120 0.100783 0.226520
O O6 0.143672 0.154822 0.237570
O O7 0.170094 0.067553 0.233623
O O8 0.000000 0.873227 0.500000
O O9 0.111434 0.715291 0.500000
O O10 0.161199 0.754475 0.767736
O O11 0.142486 0.665747 0.772722
O O12 0.689375 0.697502 0.500000
O O13 0.746934 0.679225 0.220265
O O14 0.298290 0.153953 0.500000
O O15 0.276214 0.093270 0.267824
O O16 0.244163 0.000000 0.715105
O O17 0.243796 0.049040 0.000000
#
# Coordination Sequence:
#
# PCOD9491463 Si02
#       7
#     8  16   8  16  16  16  16
#     4   9  14  20  36  66 103 132 150 175 207 248
#     4   9  16  27  47  71  93 119 152 188 220 254
#     4   9  14  24  42  70  99 123 155 186 211 244
#     4   9  14  21  36  65 100 126 147 173 211 258
#     4   8  12  20  36  61  92 120 145 174 207 248
#     4   9  17  27  44  69  92 115 146 185 225 265
#     4  10  21  36  50  63  82 111 149 194 243 286
#
# _framework density 18.638992999999999
#
# number of rings (size 3 to 8) (size 9 to 14) (size 15 to 20)
#    0.000    3.000    1.667    2.000    0.000    3.333 
#    0.000    0.833    0.000   10.500    0.000    1.167 
#    0.000    4.667    0.000    0.000    0.000    0.000 
#
# Total GULP energy -267321.137483 kJ/mol
# GULP energy per Si atom -5569.190364 kJ/mol
# Density = 1.859657 g / cm^3
# Si number density = 18.638993 Si / 1000 Ang^3
#
#
#
# Elastic Constant Matrix: (Units=GPa)
#
#
# Indices 1 2 3 4 5 6 
#
# 1 53.0877 55.1304 1.5316 0.0000 0.0000 0.0000
# 2 55.1304 100.4979 -6.8431 0.0000 0.0000 0.0000
# 3 1.5316 -6.8431 32.4713 0.0000 0.0000 0.0000
# 4 0.0000 0.0000 0.0000 19.2589 0.0000 0.0000
# 5 0.0000 0.0000 0.0000 0.0000 -10.9301 0.0000
# 6 0.0000 0.0000 0.0000 0.0000 0.0000 5.8654
#
#
#
# Elastic Compliance Matrix: (Units=1/GPa)
#
#
# Indices 1 2 3 4 5 6 
#
# 1 0.045513 -0.025479 -0.007516 0.000000 0.000000 0.000000
# 2 -0.025479 0.024359 0.006335 0.000000 0.000000 0.000000
# 3 -0.007516 0.006335 0.032486 0.000000 0.000000 0.000000
# 4 0.000000 0.000000 0.000000 0.051924 0.000000 0.000000
# 5 0.000000 0.000000 0.000000 0.000000 -0.091490 0.000000
# 6 0.000000 0.000000 0.000000 0.000000 0.000000 0.170492
#
#
# Mechanical properties :
#
#
# Convention : Reuss Voigt Hill
#
# Bulk Modulus (GPa) = 20.39237 31.74387 26.06812
# Shear Modulus (GPa) = 16.50438 11.92136 14.21287
#
# Velocity S-wave (km/s) = 2.97892 2.53176 2.76440
# Velocity P-wave (km/s) = 4.77456 5.06105 4.91989
#
# Compressibility (1/GPa) = 0.04903796
#
# Stress axis : x y z
#
# Youngs Moduli (GPa) = 21.97180 41.05279 30.78241
#
# Poissons Ratio (x) = 1.04598 0.23137
# Poissons Ratio (y) = 0.55982 -0.19501
# Poissons Ratio (z) = 0.16515 -0.26008
#
# Static dielectric constant tensor:
#      x y z
#    x 1.672460 0.000000 0.000000 
#    y 0.000000 1.672210 0.000000 
#    z 0.000000 0.000000 1.708280 
# 
# From -- ./inp_files/14634.got.cif
#   From: 2010.05.17/outbox.cif.g08.bks.cpg/sg65_8_cif.got.tgz:14634.got - 2010.06.03 17:01:31.
