data_PCOD9491952
_publ_section_title
;
Structure prediction by ZEFSAII (Michael W. Deem and Ramdas Pophale) SiO2 
 PCOD9491952
Probable space group: C M M M
;
_chemical_formula_sum "Si O2"
_cell_formula_units_Z 72
_cell_length_a 8.085733
_cell_length_b 32.485732
_cell_length_c 14.710394
_cell_angle_alpha 90.000000
_cell_angle_beta 90.000000
_cell_angle_gamma 90.000000
_cell_volume 3863.993244
_symmetry_space_group_name_H-M "C M M M"
_symmetry_group_IT_number 65
_symmetry_cell_setting 'orthorhombic'
loop_
_space_group_symop_operation_xyz
x,y,z
-x,-y,z
x,-y,-z
-x,y,-z
-x,-y,-z
x,y,-z
-x,y,z
x,-y,z
1/2+x,1/2+y,z
1/2-x,1/2-y,z
1/2+x,1/2-y,-z
1/2-x,1/2+y,-z
1/2-x,1/2-y,-z
1/2+x,1/2+y,-z
1/2-x,1/2+y,z
1/2+x,1/2-y,z
loop_
_atom_site_type_symbol
_atom_site_label
_atom_site_fract_x
_atom_site_fract_y
_atom_site_fract_z
Si Si1 0.303413 0.127102 0.218793
Si Si2 0.186230 0.099775 0.395302
Si Si3 0.802142 0.794801 0.895060
Si Si4 0.500000 0.044439 0.390847
Si Si5 0.298726 0.953482 0.893747
O O1 0.500000 0.123376 0.234064
O O2 0.211371 0.132281 0.315147
O O3 0.271068 0.166669 0.157656
O O4 0.244388 0.085178 0.167570
O O5 0.213418 0.113560 0.500000
O O6 0.329946 0.067476 0.371212
O O7 0.000000 0.082965 0.391237
O O8 0.750000 0.750000 0.858767
O O9 0.000000 0.797622 0.893230
O O10 0.745309 0.796761 0.000000
O O11 0.500000 0.040787 0.500000
O O12 0.500000 0.000000 0.346151
O O13 0.500000 0.953254 0.891035
O O14 0.245459 0.000000 0.866710
O O15 0.251801 0.947375 0.000000
#
# Coordination Sequence:
#
# PCOD9491952 Si02
#       5
#    16  16  16   8  16
#     4  11  20  32  55  85 111 148 192 234 286 349
#     4  10  21  37  55  78 110 148 193 243 295 347
#     4  10  21  37  57  83 116 149 186 235 288 344
#     4   9  18  34  54  76 105 143 191 243 294 346
#     4   8  15  28  46  72 107 145 185 226 268 323
#
# _framework density 18.633572999999998
#
# number of rings (size 3 to 8) (size 9 to 14) (size 15 to 20)
#    0.000    2.333    1.111    2.667    0.000    3.556 
#    0.000    2.222    0.000    2.667    0.000    7.778 
#    0.000    0.000    0.000    0.000    0.000    0.000 
#
# Total GULP energy -200686.888840 kJ/mol
# GULP energy per Si atom -5574.635801 kJ/mol
# Density = 1.859116 g / cm^3
# Si number density = 18.633573 Si / 1000 Ang^3
#
#
#
# Elastic Constant Matrix: (Units=GPa)
#
#
# Indices 1 2 3 4 5 6 
#
# 1 70.4977 26.1628 28.0370 0.0000 0.0000 0.0000
# 2 26.1628 116.2374 67.2180 0.0000 0.0000 0.0000
# 3 28.0370 67.2180 99.6441 0.0000 0.0000 0.0000
# 4 0.0000 0.0000 0.0000 6.1091 0.0000 0.0000
# 5 0.0000 0.0000 0.0000 0.0000 20.4962 0.0000
# 6 0.0000 0.0000 0.0000 0.0000 0.0000 6.6093
#
#
#
# Elastic Compliance Matrix: (Units=1/GPa)
#
#
# Indices 1 2 3 4 5 6 
#
# 1 0.016164 -0.001653 -0.003433 0.000000 0.000000 0.000000
# 2 -0.001653 0.014275 -0.009164 0.000000 0.000000 0.000000
# 3 -0.003433 -0.009164 0.017184 0.000000 0.000000 0.000000
# 4 0.000000 0.000000 0.000000 0.163691 0.000000 0.000000
# 5 0.000000 0.000000 0.000000 0.000000 0.048790 0.000000
# 6 0.000000 0.000000 0.000000 0.000000 0.000000 0.151301
#
#
# Mechanical properties :
#
#
# Convention : Reuss Voigt Hill
#
# Bulk Modulus (GPa) = 52.29687 58.80165 55.54926
# Shear Modulus (GPa) = 11.20377 17.64033 14.42205
#
# Velocity S-wave (km/s) = 2.45474 3.08018 2.78507
# Velocity P-wave (km/s) = 6.01342 6.65397 6.34179
#
# Compressibility (1/GPa) = 0.01912160
#
# Stress axis : x y z
#
# Youngs Moduli (GPa) = 61.86748 70.05395 58.19449
#
# Poissons Ratio (x) = 0.11579 0.19978
# Poissons Ratio (y) = 0.10226 0.53332
# Poissons Ratio (z) = 0.21239 0.64200
#
# Static dielectric constant tensor:
#      x y z
#    x 1.652210 0.000000 0.000000 
#    y 0.000000 1.641000 0.000000 
#    z 0.000000 0.000000 1.676850 
# 
# From -- ./inp_files/36569.got.cif
#   From: 2010.05.17/outbox.cif.g08.bks.cpg/sg65_19_cif.got.tgz:36569.got - 2010.06.03 17:01:31.
