data_PCOD9491309
_publ_section_title
;
Structure prediction by ZEFSAII (Michael W. Deem and Ramdas Pophale) SiO2 
 PCOD9491309
Probable space group: C M M M
;
_chemical_formula_sum "Si O2"
_cell_formula_units_Z 104
_cell_length_a 28.423426
_cell_length_b 23.978927
_cell_length_c 8.002482
_cell_angle_alpha 90.000000
_cell_angle_beta 90.000000
_cell_angle_gamma 90.000000
_cell_volume 5454.197697
_symmetry_space_group_name_H-M "C M M M"
_symmetry_group_IT_number 65
_symmetry_cell_setting 'orthorhombic'
loop_
_space_group_symop_operation_xyz
x,y,z
-x,-y,z
x,-y,-z
-x,y,-z
-x,-y,-z
x,y,-z
-x,y,z
x,-y,z
1/2+x,1/2+y,z
1/2-x,1/2-y,z
1/2+x,1/2-y,-z
1/2-x,1/2+y,-z
1/2-x,1/2-y,-z
1/2+x,1/2+y,-z
1/2-x,1/2+y,z
1/2+x,1/2-y,z
loop_
_atom_site_type_symbol
_atom_site_label
_atom_site_fract_x
_atom_site_fract_y
_atom_site_fract_z
Si Si1 0.097147 0.604744 0.307872
Si Si2 0.342849 0.000000 0.298232
Si Si3 0.137222 0.211925 0.805298
Si Si4 0.290049 0.797292 0.688540
Si Si5 0.266233 0.500000 0.797806
Si Si6 0.288215 0.378216 0.201584
Si Si7 0.500000 0.064717 0.187266
Si Si8 0.445843 0.780060 0.199432
O O1 0.110048 0.613652 0.500000
O O2 0.132538 0.557634 0.235845
O O3 0.085428 0.664595 0.228940
O O4 0.046013 0.577955 0.289989
O O5 0.349118 0.000000 0.500000
O O6 0.288194 0.000000 0.255136
O O7 0.169451 0.267612 0.793128
O O8 0.169671 0.161942 0.733341
O O9 0.086458 0.229175 0.732706
O O10 0.130188 0.198504 0.000000
O O11 0.306802 0.806576 0.500000
O O12 0.250000 0.750000 0.684925
O O13 0.262400 0.851306 0.752239
O O14 0.289482 0.557968 0.740079
O O15 0.267811 0.500000 0.000000
O O16 0.290690 0.377088 0.000000
O O17 0.500000 0.000000 0.160043
O O18 0.500000 0.092410 0.000000
O O19 0.500000 0.785015 0.263412
O O20 0.449316 0.772961 0.000000
#
# Coordination Sequence:
#
# PCOD9491309 Si02
#       8
#    16   8  16  16   8  16   8  16
#     4  11  22  36  51  68  95 132 171 210 255 300
#     4  10  24  39  49  68  99 135 171 209 254 301
#     4   9  18  33  53  72  97 131 164 203 252 302
#     4   9  17  29  47  72  99 127 162 202 242 293
#     4  10  22  36  53  75  99 128 169 212 248 297
#     4   9  18  34  52  73  98 128 165 205 251 300
#     4  11  21  33  51  71  91 125 173 220 255 292
#     4  10  21  35  51  75 101 128 167 211 253 300
#
# _framework density 19.067882999999998
#
# number of rings (size 3 to 8) (size 9 to 14) (size 15 to 20)
#    0.000    2.231    1.538    1.154    2.154    4.615 
#    0.000    0.000    0.000    0.000    0.000    0.538 
#    0.000    4.308    0.000    0.000    0.000   17.154 
#
# Total GULP energy -289634.350230 kJ/mol
# GULP energy per Si atom -5569.891351 kJ/mol
# Density = 1.902448 g / cm^3
# Si number density = 19.067883 Si / 1000 Ang^3
#
#
#
# Elastic Constant Matrix: (Units=GPa)
#
#
# Indices 1 2 3 4 5 6 
#
# 1 96.5806 69.1171 0.1550 0.0000 0.0000 0.0000
# 2 69.1171 134.8918 2.8521 0.0000 0.0000 0.0000
# 3 0.1550 2.8521 18.1657 0.0000 0.0000 0.0000
# 4 0.0000 0.0000 0.0000 -32.1950 0.0000 0.0000
# 5 0.0000 0.0000 0.0000 0.0000 -0.0767 0.0000
# 6 0.0000 0.0000 0.0000 0.0000 0.0000 -40.3583
#
#
#
# Elastic Compliance Matrix: (Units=1/GPa)
#
#
# Indices 1 2 3 4 5 6 
#
# 1 0.016374 -0.008415 0.001181 0.000000 0.000000 0.000000
# 2 -0.008415 0.011763 -0.001775 0.000000 0.000000 0.000000
# 3 0.001181 -0.001775 0.055318 0.000000 0.000000 0.000000
# 4 0.000000 0.000000 0.000000 -0.031061 0.000000 0.000000
# 5 0.000000 0.000000 0.000000 0.000000-13.034995 0.000000
# 6 0.000000 0.000000 0.000000 0.000000 0.000000 -0.024778
#
#
# Mechanical properties :
#
#
# Convention : Reuss Voigt Hill
#
# Bulk Modulus (GPa) = 15.28176 43.76515 29.52345
# Shear Modulus (GPa) = -0.38558 -2.69174 -1.53866
#
# Velocity S-wave (km/s) = -0.45017 -1.18942 -0.89927
# Velocity P-wave (km/s) = 2.78596 4.59519 3.79983
#
# Compressibility (1/GPa) = 0.06543747
#
# Stress axis : x y z
#
# Youngs Moduli (GPa) = 61.07147 85.01508 18.07745
#
# Poissons Ratio (x) = 0.71540 -0.02136
# Poissons Ratio (y) = 0.51391 0.03209
# Poissons Ratio (z) = -0.07215 0.15090
#
# Static dielectric constant tensor:
#      x y z
#    x 1.687480 0.000000 0.000000 
#    y 0.000000 1.701900 0.000000 
#    z 0.000000 0.000000 1.708880 
# 
# From -- ./inp_files/15102.got.cif
#   From: 2010.05.17/outbox.cif.g08.bks.cpg/sg65_8_cif.got.tgz:15102.got - 2010.06.03 17:01:31.
