data_PCOD9491638
_publ_section_title
;
Structure prediction by ZEFSAII (Michael W. Deem and Ramdas Pophale) SiO2 
 PCOD9491638
Probable space group: C M M M
;
_chemical_formula_sum "Si O2"
_cell_formula_units_Z 80
_cell_length_a 19.761120
_cell_length_b 8.799450
_cell_length_c 26.551020
_cell_angle_alpha 90.000000
_cell_angle_beta 90.000000
_cell_angle_gamma 90.000000
_cell_volume 4616.876880
_symmetry_space_group_name_H-M "C M M M"
_symmetry_group_IT_number 65
_symmetry_cell_setting 'orthorhombic'
loop_
_space_group_symop_operation_xyz
x,y,z
-x,-y,z
x,-y,-z
-x,y,-z
-x,-y,-z
x,y,-z
-x,y,z
x,-y,z
1/2+x,1/2+y,z
1/2-x,1/2-y,z
1/2+x,1/2-y,-z
1/2-x,1/2+y,-z
1/2-x,1/2-y,-z
1/2+x,1/2+y,-z
1/2-x,1/2+y,z
1/2+x,1/2-y,z
loop_
_atom_site_type_symbol
_atom_site_label
_atom_site_fract_x
_atom_site_fract_y
_atom_site_fract_z
Si Si1 0.325966 0.817734 0.055137
Si Si2 0.579772 0.182619 0.243626
Si Si3 0.325684 0.681112 0.841609
Si Si4 0.078573 0.317197 0.359105
Si Si5 0.824452 0.818395 0.557086
O O1 0.250000 0.750000 0.053502
O O2 0.355663 0.745187 0.105633
O O3 0.322705 0.000000 0.060469
O O4 0.357034 0.783631 0.000000
O O5 0.500000 0.215784 0.235715
O O6 0.627274 0.265921 0.204050
O O7 0.596670 0.224168 0.301487
O O8 0.588071 0.000000 0.238583
O O9 0.320503 0.500000 0.844175
O O10 0.250000 0.750000 0.835683
O O11 0.083581 0.500000 0.362619
O O12 0.125390 0.242732 0.400732
O O13 0.000000 0.275862 0.366924
O O14 0.846098 0.775882 0.500000
O O15 0.750000 0.750000 0.564970
O O16 0.820603 0.000000 0.559689
#
# Coordination Sequence:
#
# PCOD9491638 Si02
#       5
#    16  16  16  16  16
#     4   9  16  27  45  69  98 131 166 206 253 301
#     4   9  19  37  57  75 100 134 170 209 255 306
#     4  11  21  32  50  76 105 135 170 211 253 300
#     4   9  19  36  57  79 102 132 170 210 253 302
#     4  10  21  36  54  77 106 139 172 208 252 300
#
# _framework density 17.327731
#
# number of rings (size 3 to 8) (size 9 to 14) (size 15 to 20)
#    0.000    2.400    0.000    5.400    0.000    5.200 
#    0.000    4.000    0.000    0.600    0.000    4.200 
#    0.000    0.000    0.000    0.000    0.000    0.000 
#
# Total GULP energy -223049.592630 kJ/mol
# GULP energy per Si atom -5576.239816 kJ/mol
# Density = 1.728829 g / cm^3
# Si number density = 17.327731 Si / 1000 Ang^3
#
#
#
# Elastic Constant Matrix: (Units=GPa)
#
#
# Indices 1 2 3 4 5 6 
#
# 1 60.5614 46.5126 94.5248 0.0000 0.0000 0.0000
# 2 46.5126 83.9396 82.0206 0.0000 0.0000 0.0000
# 3 94.5248 82.0206 197.2177 0.0000 0.0000 0.0000
# 4 0.0000 0.0000 0.0000 33.9203 0.0000 0.0000
# 5 0.0000 0.0000 0.0000 0.0000 -3.9165 0.0000
# 6 0.0000 0.0000 0.0000 0.0000 0.0000 26.6273
#
#
#
# Elastic Compliance Matrix: (Units=1/GPa)
#
#
# Indices 1 2 3 4 5 6 
#
# 1 0.070344 -0.010166 -0.029487 0.000000 0.000000 0.000000
# 2 -0.010166 0.021538 -0.004085 0.000000 0.000000 0.000000
# 3 -0.029487 -0.004085 0.020903 0.000000 0.000000 0.000000
# 4 0.000000 0.000000 0.000000 0.029481 0.000000 0.000000
# 5 0.000000 0.000000 0.000000 0.000000 -0.255331 0.000000
# 6 0.000000 0.000000 0.000000 0.000000 0.000000 0.037555
#
#
# Mechanical properties :
#
#
# Convention : Reuss Voigt Hill
#
# Bulk Modulus (GPa) = 39.51304 87.53719 63.52512
# Shear Modulus (GPa) = 245.06734 19.23695 132.15215
#
# Velocity S-wave (km/s) = 11.90537 3.33556 8.74253
# Velocity P-wave (km/s) = 14.55460 8.09091 11.77496
#
# Compressibility (1/GPa) = 0.02530810
#
# Stress axis : x y z
#
# Youngs Moduli (GPa) = 14.21586 46.42949 47.84093
#
# Poissons Ratio (x) = 0.47198 1.41071
# Poissons Ratio (y) = 0.14451 0.19544
# Poissons Ratio (z) = 0.41919 0.18967
#
# Static dielectric constant tensor:
#      x y z
#    x 1.555100 0.000000 0.000000 
#    y 0.000000 1.578170 0.000000 
#    z 0.000000 0.000000 1.614760 
# 
# From -- ./inp_files/72829.got.cif
#   From: 2010.05.17/outbox.cif.g08.bks.cpg/sg65_37_cif.got.tgz:72829.got - 2010.06.03 17:01:31.
