data_PCOD9491920
_publ_section_title
;
Structure prediction by ZEFSAII (Michael W. Deem and Ramdas Pophale) SiO2 
 PCOD9491920
Probable space group: C M M M
;
_chemical_formula_sum "Si O2"
_cell_formula_units_Z 64
_cell_length_a 28.723856
_cell_length_b 8.623932
_cell_length_c 14.435962
_cell_angle_alpha 90.000000
_cell_angle_beta 90.000000
_cell_angle_gamma 90.000000
_cell_volume 3575.969405
_symmetry_space_group_name_H-M "C M M M"
_symmetry_group_IT_number 65
_symmetry_cell_setting 'orthorhombic'
loop_
_space_group_symop_operation_xyz
x,y,z
-x,-y,z
x,-y,-z
-x,y,-z
-x,-y,-z
x,y,-z
-x,y,z
x,-y,z
1/2+x,1/2+y,z
1/2-x,1/2-y,z
1/2+x,1/2-y,-z
1/2-x,1/2+y,-z
1/2-x,1/2-y,-z
1/2+x,1/2+y,-z
1/2-x,1/2+y,z
1/2+x,1/2-y,z
loop_
_atom_site_type_symbol
_atom_site_label
_atom_site_fract_x
_atom_site_fract_y
_atom_site_fract_z
Si Si1 0.122153 0.322140 0.238991
Si Si2 0.697970 0.685198 0.104551
Si Si3 0.555050 0.326714 0.890941
Si Si4 0.947644 0.311088 0.608068
O O1 0.134866 0.500000 0.256633
O O2 0.165110 0.240760 0.187872
O O3 0.081238 0.305262 0.163564
O O4 0.095769 0.256265 0.329909
O O5 0.699220 0.500000 0.104894
O O6 0.750000 0.750000 0.115619
O O7 0.681681 0.734035 0.000000
O O8 0.500000 0.318570 0.876977
O O9 0.571079 0.500000 0.860681
O O10 0.563905 0.316473 0.000000
O O11 0.942530 0.270442 0.500000
O O12 0.947643 0.500000 0.614150
O O13 0.000000 0.260371 0.638393
#
# Coordination Sequence:
#
# PCOD9491920 Si02
#       4
#    16  16  16  16
#     4  11  20  29  48  76 100 125 162 206 249 294
#     4  10  21  37  55  74  99 131 165 202 246 296
#     4   9  18  31  44  61  92 133 168 196 234 287
#     4   8  15  29  48  71 101 135 169 205 245 289
#
# _framework density 17.897245000000002
#
# number of rings (size 3 to 8) (size 9 to 14) (size 15 to 20)
#    0.000    2.500    0.000    4.500    0.000    6.500 
#    0.000    1.250    0.000    3.750    0.000    8.750 
#    0.000    0.000    0.000    0.000    0.000    0.000 
#
# Total GULP energy -178273.988404 kJ/mol
# GULP energy per Si atom -5571.062138 kJ/mol
# Density = 1.785651 g / cm^3
# Si number density = 17.897245 Si / 1000 Ang^3
#
#
#
# Elastic Constant Matrix: (Units=GPa)
#
#
# Indices 1 2 3 4 5 6 
#
# 1 101.4226 20.0155 63.9471 0.0000 0.0000 0.0000
# 2 20.0155 21.8336 19.9734 0.0000 0.0000 0.0000
# 3 63.9471 19.9734 92.9887 0.0000 0.0000 0.0000
# 4 0.0000 0.0000 0.0000 11.1569 0.0000 0.0000
# 5 0.0000 0.0000 0.0000 0.0000 31.6667 0.0000
# 6 0.0000 0.0000 0.0000 0.0000 0.0000 29.3159
#
#
#
# Elastic Compliance Matrix: (Units=1/GPa)
#
#
# Indices 1 2 3 4 5 6 
#
# 1 0.018116 -0.006485 -0.011065 0.000000 0.000000 0.000000
# 2 -0.006485 0.059323 -0.008283 0.000000 0.000000 0.000000
# 3 -0.011065 -0.008283 0.020143 0.000000 0.000000 0.000000
# 4 0.000000 0.000000 0.000000 0.089631 0.000000 0.000000
# 5 0.000000 0.000000 0.000000 0.000000 0.031579 0.000000
# 6 0.000000 0.000000 0.000000 0.000000 0.000000 0.034111
#
#
# Mechanical properties :
#
#
# Convention : Reuss Voigt Hill
#
# Bulk Modulus (GPa) = 21.77899 47.12409 34.45154
# Shear Modulus (GPa) = 15.63118 21.91517 18.77317
#
# Velocity S-wave (km/s) = 2.95851 3.50308 3.24225
# Velocity P-wave (km/s) = 4.88526 6.53832 5.77128
#
# Compressibility (1/GPa) = 0.04591581
#
# Stress axis : x y z
#
# Youngs Moduli (GPa) = 55.19895 16.85690 49.64612
#
# Poissons Ratio (x) = 0.10932 0.54935
# Poissons Ratio (y) = 0.35797 0.41119
# Poissons Ratio (z) = 0.61080 0.13962
#
# Static dielectric constant tensor:
#      x y z
#    x 1.619960 0.000000 0.000000 
#    y 0.000000 1.645590 0.000000 
#    z 0.000000 0.000000 1.630220 
# 
# From -- ./inp_files/22367.got.cif
#   From: 2010.05.17/outbox.cif.g08.bks.cpg/sg65_12_cif.got.tgz:22367.got - 2010.06.03 17:01:31.
