data_PCOD9491630
_publ_section_title
;
Structure prediction by ZEFSAII (Michael W. Deem and Ramdas Pophale) SiO2 
 PCOD9491630
Probable space group: C M M M
;
_chemical_formula_sum "Si O2"
_cell_formula_units_Z 104
_cell_length_a 30.557032
_cell_length_b 23.063803
_cell_length_c 8.967995
_cell_angle_alpha 90.000000
_cell_angle_beta 90.000000
_cell_angle_gamma 90.000000
_cell_volume 6320.296409
_symmetry_space_group_name_H-M "C M M M"
_symmetry_group_IT_number 65
_symmetry_cell_setting 'orthorhombic'
loop_
_space_group_symop_operation_xyz
x,y,z
-x,-y,z
x,-y,-z
-x,y,-z
-x,-y,-z
x,y,-z
-x,y,z
x,-y,z
1/2+x,1/2+y,z
1/2-x,1/2-y,z
1/2+x,1/2-y,-z
1/2-x,1/2+y,-z
1/2-x,1/2-y,-z
1/2+x,1/2+y,-z
1/2-x,1/2+y,z
1/2+x,1/2-y,z
loop_
_atom_site_type_symbol
_atom_site_label
_atom_site_fract_x
_atom_site_fract_y
_atom_site_fract_z
Si Si1 0.619357 0.931850 0.819542
Si Si2 0.052260 0.000000 0.177671
Si Si3 0.948850 0.655745 0.678018
Si Si4 0.716676 0.929593 0.172706
Si Si5 0.948207 0.780590 0.822715
Si Si6 0.400326 0.610890 0.679722
Si Si7 0.806019 0.067406 0.321291
O O1 0.582579 0.892856 0.745257
O O2 0.668407 0.912308 0.772325
O O3 0.614031 0.000000 0.782528
O O4 0.617523 0.927339 0.000000
O O5 0.073317 0.943346 0.252336
O O6 0.000000 0.000000 0.199446
O O7 0.060790 0.000000 0.000000
O O8 0.943586 0.659756 0.500000
O O9 0.938946 0.717731 0.752905
O O10 0.000000 0.642548 0.709393
O O11 0.759959 0.910379 0.258450
O O12 0.716250 0.000000 0.178549
O O13 0.720577 0.912797 0.000000
O O14 0.920360 0.830426 0.744380
O O15 0.000000 0.792542 0.798993
O O16 0.940363 0.779972 0.000000
O O17 0.403610 0.609627 0.500000
O O18 0.349365 0.602247 0.722016
O O19 0.803570 0.067226 0.500000
O O20 0.811839 0.000000 0.272982
#
# Coordination Sequence:
#
# PCOD9491630 Si02
#       7
#    16   8  16  16  16  16  16
#     4   9  18  33  53  79 110 139 168 203 248 301
#     4  11  23  35  47  69 101 135 173 217 264 311
#     4  10  21  36  54  77 104 135 172 210 249 298
#     4   8  15  28  47  72 100 132 168 204 244 295
#     4  10  21  37  55  74  97 130 174 216 255 305
#     4  11  21  34  51  73 102 134 170 214 263 311
#     4   9  17  30  46  69 101 133 167 206 252 305
#
# _framework density 16.454923999999998
#
# number of rings (size 3 to 8) (size 9 to 14) (size 15 to 20)
#    0.000    2.385    0.769    3.000    0.000    6.769 
#    0.000    3.077    0.000    0.923    0.000    6.462 
#    0.000    0.000    0.000    0.000    0.000    0.000 
#
# Total GULP energy -289986.343095 kJ/mol
# GULP energy per Si atom -5576.660444 kJ/mol
# Density = 1.641747 g / cm^3
# Si number density = 16.454924 Si / 1000 Ang^3
#
#
#
# Elastic Constant Matrix: (Units=GPa)
#
#
# Indices 1 2 3 4 5 6 
#
# 1 150.3969 92.3456 71.5596 0.0000 0.0000 0.0000
# 2 92.3456 93.3820 51.5119 0.0000 0.0000 0.0000
# 3 71.5596 51.5119 60.1034 0.0000 0.0000 0.0000
# 4 0.0000 0.0000 0.0000 28.7895 0.0000 0.0000
# 5 0.0000 0.0000 0.0000 0.0000 32.4071 0.0000
# 6 0.0000 0.0000 0.0000 0.0000 0.0000 2.8942
#
#
#
# Elastic Compliance Matrix: (Units=1/GPa)
#
#
# Indices 1 2 3 4 5 6 
#
# 1 0.021901 -0.013797 -0.014251 0.000000 0.000000 0.000000
# 2 -0.013797 0.029003 -0.008430 0.000000 0.000000 0.000000
# 3 -0.014251 -0.008430 0.040831 0.000000 0.000000 0.000000
# 4 0.000000 0.000000 0.000000 0.034735 0.000000 0.000000
# 5 0.000000 0.000000 0.000000 0.000000 0.030857 0.000000
# 6 0.000000 0.000000 0.000000 0.000000 0.000000 0.345515
#
#
# Mechanical properties :
#
#
# Convention : Reuss Voigt Hill
#
# Bulk Modulus (GPa) = 53.25327 81.63518 67.44423
# Shear Modulus (GPa) = 8.59020 18.71583 13.65301
#
# Velocity S-wave (km/s) = 2.28731 3.37619 2.88361
# Velocity P-wave (km/s) = 6.27766 8.05713 7.22241
#
# Compressibility (1/GPa) = 0.01877819
#
# Stress axis : x y z
#
# Youngs Moduli (GPa) = 45.65912 34.47926 24.49128
#
# Poissons Ratio (x) = 0.47571 0.34903
# Poissons Ratio (y) = 0.62996 0.20647
# Poissons Ratio (z) = 0.65070 0.29067
#
# Static dielectric constant tensor:
#      x y z
#    x 1.559090 0.000000 0.000000 
#    y 0.000000 1.520870 0.000000 
#    z 0.000000 0.000000 1.550150 
# 
# From -- ./inp_files/16753.got.cif
#   From: 2010.05.17/outbox.cif.g08.bks.cpg/sg65_9_cif.got.tgz:16753.got - 2010.06.03 17:01:31.
