data_PCOD9491060
_publ_section_title
;
Structure prediction by ZEFSAII (Michael W. Deem and Ramdas Pophale) SiO2 
 PCOD9491060
Probable space group: C M M M
;
_chemical_formula_sum "Si O2"
_cell_formula_units_Z 76
_cell_length_a 9.779023
_cell_length_b 14.946919
_cell_length_c 26.853338
_cell_angle_alpha 90.000000
_cell_angle_beta 90.000000
_cell_angle_gamma 90.000000
_cell_volume 3925.052110
_symmetry_space_group_name_H-M "C M M M"
_symmetry_group_IT_number 65
_symmetry_cell_setting 'orthorhombic'
loop_
_space_group_symop_operation_xyz
x,y,z
-x,-y,z
x,-y,-z
-x,y,-z
-x,-y,-z
x,y,-z
-x,y,z
x,-y,z
1/2+x,1/2+y,z
1/2-x,1/2-y,z
1/2+x,1/2-y,-z
1/2-x,1/2+y,-z
1/2-x,1/2-y,-z
1/2+x,1/2+y,-z
1/2-x,1/2+y,z
1/2+x,1/2-y,z
loop_
_atom_site_type_symbol
_atom_site_label
_atom_site_fract_x
_atom_site_fract_y
_atom_site_fract_z
Si Si1 0.656847 0.609208 0.056294
Si Si2 0.336288 0.662494 0.647553
Si Si3 0.500000 0.500000 0.500000
Si Si4 0.000000 0.500000 0.500000
Si Si5 0.343789 0.890340 0.852377
Si Si6 0.747529 0.500000 0.421130
Si Si7 0.654370 0.608273 0.237955
O O1 0.500000 0.636340 0.066455
O O2 0.657459 0.500000 0.056764
O O3 0.760335 0.638695 0.098896
O O4 0.693758 0.636629 0.000000
O O5 0.500000 0.669502 0.637427
O O6 0.250000 0.750000 0.635534
O O7 0.269623 0.584752 0.614893
O O8 0.321633 0.642571 0.706375
O O9 0.618227 0.500000 0.457147
O O10 0.119525 0.500000 0.455866
O O11 0.500000 0.860310 0.853017
O O12 0.264217 0.862116 0.802638
O O13 0.344009 0.000000 0.852494
O O14 0.500000 0.633387 0.222378
O O15 0.658642 0.500000 0.240135
#
# Coordination Sequence:
#
# PCOD9491060 Si02
#       7
#    16  16   2   2  16   8  16
#     4   8  13  21  33  50  78 123 176 228 282 345
#     4  11  23  40  66  95 126 165 207 253 306 362
#     4  10  20  42  82  86 124 180 204 242 288 366
#     4  10  28  42  74 102 128 168 212 250 300 346
#     4   9  16  24  36  61  94 130 176 231 292 348
#     4  11  22  48  68  98 132 168 207 248 304 354
#     4   9  17  32  53  76 104 147 193 236 289 355
#
# _framework density 19.3628
#
# number of rings (size 3 to 8) (size 9 to 14) (size 15 to 20)
#    0.000    2.526    2.105    1.263    1.474    3.789 
#    0.000    5.263    0.000    0.000    0.000    0.000 
#    0.000    0.842    0.000    2.737    0.000    5.474 
#
# Total GULP energy -211580.655778 kJ/mol
# GULP energy per Si atom -5567.911994 kJ/mol
# Density = 1.931873 g / cm^3
# Si number density = 19.362800 Si / 1000 Ang^3
#
#
#
# Elastic Constant Matrix: (Units=GPa)
#
#
# Indices 1 2 3 4 5 6 
#
# 1 189.4846 55.9013 117.0544 0.0000 0.0000 0.0000
# 2 55.9013 71.2023 51.1898 0.0000 0.0000 0.0000
# 3 117.0544 51.1898 144.9512 0.0000 0.0000 0.0000
# 4 0.0000 0.0000 0.0000 -15.3275 0.0000 0.0000
# 5 0.0000 0.0000 0.0000 0.0000 94.8709 0.0000
# 6 0.0000 0.0000 0.0000 0.0000 0.0000 53.6756
#
#
#
# Elastic Compliance Matrix: (Units=1/GPa)
#
#
# Indices 1 2 3 4 5 6 
#
# 1 0.010993 -0.003014 -0.007813 0.000000 0.000000 0.000000
# 2 -0.003014 0.019650 -0.004506 0.000000 0.000000 0.000000
# 3 -0.007813 -0.004506 0.014800 0.000000 0.000000 0.000000
# 4 0.000000 0.000000 0.000000 -0.065242 0.000000 0.000000
# 5 0.000000 0.000000 0.000000 0.000000 0.010541 0.000000
# 6 0.000000 0.000000 0.000000 0.000000 0.000000 0.018630
#
#
# Mechanical properties :
#
#
# Convention : Reuss Voigt Hill
#
# Bulk Modulus (GPa) = 67.67065 94.88102 81.27584
# Shear Modulus (GPa) = 111.20458 38.74332 74.97395
#
# Velocity S-wave (km/s) = 7.58662 4.47801 6.22934
# Velocity P-wave (km/s) = 10.57199 8.70890 9.68535
#
# Compressibility (1/GPa) = 0.01477745
#
# Stress axis : x y z
#
# Youngs Moduli (GPa) = 90.96570 50.89108 67.56954
#
# Poissons Ratio (x) = 0.15337 0.52793
# Poissons Ratio (y) = 0.27414 0.30445
# Poissons Ratio (z) = 0.71073 0.22930
#
# Static dielectric constant tensor:
#      x y z
#    x 1.646880 0.000000 0.000000 
#    y 0.000000 1.635030 0.000000 
#    z 0.000000 0.000000 1.647250 
# 
# From -- ./inp_files/72980.got.cif
#   From: 2010.05.17/outbox.cif.g08.bks.cpg/sg65_37_cif.got.tgz:72980.got - 2010.06.03 17:01:31.
