data_PCOD9491976
_publ_section_title
;
Structure prediction by ZEFSAII (Michael W. Deem and Ramdas Pophale) SiO2 
 PCOD9491976
Probable space group: C M M M
;
_chemical_formula_sum "Si O2"
_cell_formula_units_Z 104
_cell_length_a 29.421961
_cell_length_b 8.789224
_cell_length_c 23.346607
_cell_angle_alpha 90.000000
_cell_angle_beta 90.000000
_cell_angle_gamma 90.000000
_cell_volume 6037.343987
_symmetry_space_group_name_H-M "C M M M"
_symmetry_group_IT_number 65
_symmetry_cell_setting 'orthorhombic'
loop_
_space_group_symop_operation_xyz
x,y,z
-x,-y,z
x,-y,-z
-x,y,-z
-x,-y,-z
x,y,-z
-x,y,z
x,-y,z
1/2+x,1/2+y,z
1/2-x,1/2-y,z
1/2+x,1/2-y,-z
1/2-x,1/2+y,-z
1/2-x,1/2-y,-z
1/2+x,1/2+y,-z
1/2-x,1/2+y,z
1/2+x,1/2-y,z
loop_
_atom_site_type_symbol
_atom_site_label
_atom_site_fract_x
_atom_site_fract_y
_atom_site_fract_z
Si Si1 0.700571 0.681869 0.566627
Si Si2 0.853508 0.182537 0.106885
Si Si3 0.199698 0.817916 0.225202
Si Si4 0.644360 0.817332 0.331960
Si Si5 0.550746 0.683593 0.849140
Si Si6 0.699636 0.819414 0.000000
Si Si7 0.949255 0.316887 0.277973
O O1 0.691472 0.719772 0.500000
O O2 0.702373 0.500000 0.572232
O O3 0.750000 0.750000 0.581463
O O4 0.663837 0.749597 0.609644
O O5 0.828767 0.213454 0.167419
O O6 0.906193 0.230771 0.113034
O O7 0.827326 0.263242 0.055854
O O8 0.851964 0.000000 0.097541
O O9 0.250000 0.750000 0.219792
O O10 0.174529 0.744801 0.279438
O O11 0.202037 0.000000 0.232681
O O12 0.592349 0.772107 0.318440
O O13 0.647353 0.000000 0.333430
O O14 0.500000 0.729712 0.868652
O O15 0.551804 0.500000 0.846284
O O16 0.557179 0.746190 0.784955
O O17 0.750000 0.750000 0.000000
O O18 0.703186 0.000000 0.000000
O O19 0.947902 0.500000 0.272168
O O20 0.000000 0.274015 0.298040
#
# Coordination Sequence:
#
# PCOD9491976 Si02
#       7
#    16  16  16  16  16   8  16
#     4  10  21  37  56  77 105 142 183 225 268 318
#     4  10  21  38  58  81 109 142 179 222 266 318
#     4  11  22  35  52  77 108 141 175 219 269 318
#     4  11  21  33  53  80 110 142 177 220 267 318
#     4   9  17  32  56  84 111 140 175 216 265 317
#     4  12  26  42  61  80 103 141 184 227 271 324
#     4   9  18  32  51  78 111 144 177 215 263 318
#
# _framework density 17.226116999999999
#
# number of rings (size 3 to 8) (size 9 to 14) (size 15 to 20)
#    0.000    1.846    1.538    3.000    0.000    4.615 
#    0.000    0.385    0.000    2.769    0.000    3.231 
#    0.000    0.000    0.000    0.000    0.000    0.000 
#
# Total GULP energy -290335.322043 kJ/mol
# GULP energy per Si atom -5583.371578 kJ/mol
# Density = 1.718691 g / cm^3
# Si number density = 17.226117 Si / 1000 Ang^3
#
#
#
# Elastic Constant Matrix: (Units=GPa)
#
#
# Indices 1 2 3 4 5 6 
#
# 1 185.2333 52.8176 80.4278 0.0000 0.0000 0.0000
# 2 52.8176 43.1254 42.8059 0.0000 0.0000 0.0000
# 3 80.4278 42.8059 88.0276 0.0000 0.0000 0.0000
# 4 0.0000 0.0000 0.0000 17.5772 0.0000 0.0000
# 5 0.0000 0.0000 0.0000 0.0000 30.1619 0.0000
# 6 0.0000 0.0000 0.0000 0.0000 0.0000 13.5931
#
#
#
# Elastic Compliance Matrix: (Units=1/GPa)
#
#
# Indices 1 2 3 4 5 6 
#
# 1 0.009678 -0.005946 -0.005951 0.000000 0.000000 0.000000
# 2 -0.005946 0.048477 -0.018140 0.000000 0.000000 0.000000
# 3 -0.005951 -0.018140 0.025618 0.000000 0.000000 0.000000
# 4 0.000000 0.000000 0.000000 0.056892 0.000000 0.000000
# 5 0.000000 0.000000 0.000000 0.000000 0.033154 0.000000
# 6 0.000000 0.000000 0.000000 0.000000 0.000000 0.073567
#
#
# Mechanical properties :
#
#
# Convention : Reuss Voigt Hill
#
# Bulk Modulus (GPa) = 42.19721 74.27656 58.23689
# Shear Modulus (GPa) = 15.85485 21.62209 18.73847
#
# Velocity S-wave (km/s) = 3.03709 3.54671 3.30175
# Velocity P-wave (km/s) = 6.07024 7.74496 6.95817
#
# Compressibility (1/GPa) = 0.02369825
#
# Stress axis : x y z
#
# Youngs Moduli (GPa) = 103.32732 20.62843 39.03431
#
# Poissons Ratio (x) = 0.12266 0.23229
# Poissons Ratio (y) = 0.61441 0.70810
# Poissons Ratio (z) = 0.61489 0.37421
#
# Static dielectric constant tensor:
#      x y z
#    x 1.599500 0.000000 0.000000 
#    y 0.000000 1.551700 0.000000 
#    z 0.000000 0.000000 1.549380 
# 
# From -- ./inp_files/60852.got.cif
#   From: 2010.05.17/outbox.cif.g08.bks.cpg/sg65_31_cif.got.tgz:60852.got - 2010.06.03 17:01:31.
