data_PCOD9491303
_publ_section_title
;
Structure prediction by ZEFSAII (Michael W. Deem and Ramdas Pophale) SiO2 
 PCOD9491303
Probable space group: C M M M
;
_chemical_formula_sum "Si O2"
_cell_formula_units_Z 80
_cell_length_a 19.573877
_cell_length_b 7.602383
_cell_length_c 26.653260
_cell_angle_alpha 90.000000
_cell_angle_beta 90.000000
_cell_angle_gamma 90.000000
_cell_volume 3966.221239
_symmetry_space_group_name_H-M "C M M M"
_symmetry_group_IT_number 65
_symmetry_cell_setting 'orthorhombic'
loop_
_space_group_symop_operation_xyz
x,y,z
-x,-y,z
x,-y,-z
-x,y,-z
-x,-y,-z
x,y,-z
-x,y,z
x,-y,z
1/2+x,1/2+y,z
1/2-x,1/2-y,z
1/2+x,1/2-y,-z
1/2-x,1/2+y,-z
1/2-x,1/2-y,-z
1/2+x,1/2+y,-z
1/2-x,1/2+y,z
1/2+x,1/2-y,z
loop_
_atom_site_type_symbol
_atom_site_label
_atom_site_fract_x
_atom_site_fract_y
_atom_site_fract_z
Si Si1 0.922226 0.788349 0.204612
Si Si2 0.170650 0.788798 0.592489
Si Si3 0.078876 0.215748 0.500000
Si Si4 0.578240 0.789356 0.091882
Si Si5 0.830227 0.288406 0.000000
Si Si6 0.329099 0.711288 0.705048
O O1 0.897644 0.746999 0.148480
O O2 0.875999 0.720831 0.249999
O O3 0.000000 0.722430 0.208653
O O4 0.924125 0.000000 0.208413
O O5 0.250000 0.750000 0.580905
O O6 0.120117 0.724844 0.549283
O O7 0.155458 0.721800 0.648775
O O8 0.164140 0.000000 0.593878
O O9 0.000000 0.270127 0.500000
O O10 0.079590 0.000000 0.500000
O O11 0.500000 0.721688 0.086485
O O12 0.574436 0.000000 0.086424
O O13 0.629486 0.722699 0.049285
O O14 0.750000 0.250000 0.000000
O O15 0.835889 0.500000 0.000000
O O16 0.337124 0.500000 0.703480
O O17 0.250000 0.750000 0.715243
#
# Coordination Sequence:
#
# PCOD9491303 Si02
#       6
#    16  16   8  16   8  16
#     4   9  18  32  49  70  95 122 154 192 232 273
#     4   9  17  30  48  68  91 122 157 191 229 275
#     4   9  17  28  45  71  96 117 150 196 238 275
#     4   9  18  34  54  72  92 123 160 192 225 271
#     4  10  21  35  51  73  99 124 152 190 234 276
#     4   9  18  31  47  68  94 124 156 190 230 275
#
# _framework density 20.170331999999998
#
# number of rings (size 3 to 8) (size 9 to 14) (size 15 to 20)
#    0.000    2.900    0.000    0.600    0.000    4.400 
#    0.000    8.000    0.000    4.200    0.000    5.600 
#    0.000    0.000    0.000    0.000    0.000    0.000 
#
# Total GULP energy -223148.904224 kJ/mol
# GULP energy per Si atom -5578.722606 kJ/mol
# Density = 2.012442 g / cm^3
# Si number density = 20.170332 Si / 1000 Ang^3
#
#
#
# Elastic Constant Matrix: (Units=GPa)
#
#
# Indices 1 2 3 4 5 6 
#
# 1 134.0702 1.7700 150.8563 0.0000 0.0000 0.0000
# 2 1.7700 43.4784 6.0333 0.0000 0.0000 0.0000
# 3 150.8563 6.0333 228.3150 0.0000 0.0000 0.0000
# 4 0.0000 0.0000 0.0000 10.5770 0.0000 0.0000
# 5 0.0000 0.0000 0.0000 0.0000 45.1456 0.0000
# 6 0.0000 0.0000 0.0000 0.0000 0.0000 21.1847
#
#
#
# Elastic Compliance Matrix: (Units=1/GPa)
#
#
# Indices 1 2 3 4 5 6 
#
# 1 0.029171 0.001493 -0.019314 0.000000 0.000000 0.000000
# 2 0.001493 0.023161 -0.001598 0.000000 0.000000 0.000000
# 3 -0.019314 -0.001598 0.017184 0.000000 0.000000 0.000000
# 4 0.000000 0.000000 0.000000 0.094545 0.000000 0.000000
# 5 0.000000 0.000000 0.000000 0.000000 0.022151 0.000000
# 6 0.000000 0.000000 0.000000 0.000000 0.000000 0.047204
#
#
# Mechanical properties :
#
#
# Convention : Reuss Voigt Hill
#
# Bulk Modulus (GPa) = 32.59821 80.35364 56.47593
# Shear Modulus (GPa) = 17.70036 31.86171 24.78103
#
# Velocity S-wave (km/s) = 2.96555 3.97877 3.50892
# Velocity P-wave (km/s) = 5.28418 7.81227 6.66911
#
# Compressibility (1/GPa) = 0.03067653
#
# Stress axis : x y z
#
# Youngs Moduli (GPa) = 34.28034 43.17612 58.19497
#
# Poissons Ratio (x) = -0.06444 1.12398
# Poissons Ratio (y) = -0.05117 0.09301
# Poissons Ratio (z) = 0.66209 0.06901
#
# Static dielectric constant tensor:
#      x y z
#    x 1.675950 0.000000 0.000000 
#    y 0.000000 1.764200 0.000000 
#    z 0.000000 0.000000 1.717710 
# 
# From -- ./inp_files/67360.got.cif
#   From: 2010.05.17/outbox.cif.g08.bks.cpg/sg65_34_cif.got.tgz:67360.got - 2010.06.03 17:01:31.
