data_PCOD9491142
_publ_section_title
;
Structure prediction by ZEFSAII (Michael W. Deem and Ramdas Pophale) SiO2 
 PCOD9491142
Probable space group: C M M M
;
_chemical_formula_sum "Si O2"
_cell_formula_units_Z 120
_cell_length_a 22.711651
_cell_length_b 21.852303
_cell_length_c 14.086018
_cell_angle_alpha 90.000000
_cell_angle_beta 90.000000
_cell_angle_gamma 90.000000
_cell_volume 6990.917205
_symmetry_space_group_name_H-M "C M M M"
_symmetry_group_IT_number 65
_symmetry_cell_setting 'orthorhombic'
loop_
_space_group_symop_operation_xyz
x,y,z
-x,-y,z
x,-y,-z
-x,y,-z
-x,-y,-z
x,y,-z
-x,y,z
x,-y,z
1/2+x,1/2+y,z
1/2-x,1/2-y,z
1/2+x,1/2-y,-z
1/2-x,1/2+y,-z
1/2-x,1/2-y,-z
1/2+x,1/2+y,-z
1/2-x,1/2+y,z
1/2+x,1/2-y,z
loop_
_atom_site_type_symbol
_atom_site_label
_atom_site_fract_x
_atom_site_fract_y
_atom_site_fract_z
Si Si1 0.569972 0.899438 0.107117
Si Si2 0.164949 0.567871 0.248444
Si Si3 0.273858 0.572887 0.890635
Si Si4 0.830494 0.185561 0.387960
Si Si5 0.568044 0.755339 0.111413
Si Si6 0.884596 0.861003 0.203530
Si Si7 0.809972 0.673344 0.388672
Si Si8 0.500000 0.574076 0.885277
O O1 0.500000 0.908206 0.113825
O O2 0.606006 0.932962 0.186914
O O3 0.582161 0.826878 0.119555
O O4 0.587998 0.917126 0.000000
O O5 0.176908 0.500000 0.287993
O O6 0.216985 0.583559 0.174283
O O7 0.162337 0.620373 0.326214
O O8 0.285750 0.500000 0.888966
O O9 0.329186 0.607815 0.847183
O O10 0.263681 0.590820 0.000000
O O11 0.843552 0.175661 0.500000
O O12 0.869746 0.146010 0.315463
O O13 0.834294 0.258580 0.368022
O O14 0.760875 0.172010 0.373181
O O15 0.500000 0.747216 0.141728
O O16 0.607795 0.708400 0.167427
O O17 0.571152 0.739882 0.000000
O O18 0.942652 0.897212 0.166969
O O19 0.819572 0.662667 0.500000
O O20 0.500000 0.500000 0.877658
O O21 0.500000 0.588633 0.000000
#
# Coordination Sequence:
#
# PCOD9491142 Si02
#       8
#    16  16  16  16  16  16  16   8
#     4   9  19  35  53  75 108 146 181 217 262 319
#     4  11  21  34  53  80 110 140 181 224 265 320
#     4  10  21  34  48  72 110 149 181 222 270 315
#     4   9  19  35  59  84 107 138 178 227 281 336
#     4   9  17  30  49  75 104 136 179 227 267 308
#     4  12  19  33  57  78 107 144 190 230 273 329
#     4   9  18  37  59  82 110 138 175 223 277 334
#     4  11  24  38  55  81 113 155 201 234 266 324
#
# _framework density 17.165129
#
# number of rings (size 3 to 8) (size 9 to 14) (size 15 to 20)
#    0.000    2.067    2.000    4.400    0.000    2.400 
#    0.000    1.000    0.000    5.600    0.000    0.933 
#    0.000    0.000    0.000    0.000    0.000    0.000 
#
# Total GULP energy -334624.518487 kJ/mol
# GULP energy per Si atom -5577.075308 kJ/mol
# Density = 1.712606 g / cm^3
# Si number density = 17.165129 Si / 1000 Ang^3
#
#
#
# Elastic Constant Matrix: (Units=GPa)
#
#
# Indices 1 2 3 4 5 6 
#
# 1 43.5653 25.8342 31.5529 0.0000 0.0000 0.0000
# 2 25.8342 54.5961 54.0908 0.0000 0.0000 0.0000
# 3 31.5529 54.0908 91.7087 0.0000 0.0000 0.0000
# 4 0.0000 0.0000 0.0000 25.6895 0.0000 0.0000
# 5 0.0000 0.0000 0.0000 0.0000 21.9219 0.0000
# 6 0.0000 0.0000 0.0000 0.0000 0.0000 20.0961
#
#
#
# Elastic Compliance Matrix: (Units=1/GPa)
#
#
# Indices 1 2 3 4 5 6 
#
# 1 0.032884 -0.010468 -0.005140 0.000000 0.000000 0.000000
# 2 -0.010468 0.047399 -0.024355 0.000000 0.000000 0.000000
# 3 -0.005140 -0.024355 0.027037 0.000000 0.000000 0.000000
# 4 0.000000 0.000000 0.000000 0.038926 0.000000 0.000000
# 5 0.000000 0.000000 0.000000 0.000000 0.045617 0.000000
# 6 0.000000 0.000000 0.000000 0.000000 0.000000 0.049761
#
#
# Mechanical properties :
#
#
# Convention : Reuss Voigt Hill
#
# Bulk Modulus (GPa) = 36.50308 45.86954 41.18631
# Shear Modulus (GPa) = 15.12029 18.76765 16.94397
#
# Velocity S-wave (km/s) = 2.97117 3.31019 3.14525
# Velocity P-wave (km/s) = 5.75174 6.43353 6.10216
#
# Compressibility (1/GPa) = 0.02739495
#
# Stress axis : x y z
#
# Youngs Moduli (GPa) = 30.40968 21.09745 36.98610
#
# Poissons Ratio (x) = 0.22085 0.19010
# Poissons Ratio (y) = 0.31833 0.90079
# Poissons Ratio (z) = 0.15630 0.51382
#
# Static dielectric constant tensor:
#      x y z
#    x 1.571020 0.000000 0.000000 
#    y 0.000000 1.602030 0.000000 
#    z 0.000000 0.000000 1.569840 
# 
# From -- ./inp_files/31131.got.cif
#   From: 2010.05.17/outbox.cif.g08.bks.cpg/sg65_16_cif.got.tgz:31131.got - 2010.06.03 17:01:31.
