data_PCOD9491895
_publ_section_title
;
Structure prediction by ZEFSAII (Michael W. Deem and Ramdas Pophale) SiO2 
 PCOD9491895
Probable space group: C M M M
;
_chemical_formula_sum "Si O2"
_cell_formula_units_Z 56
_cell_length_a 8.363608
_cell_length_b 14.769071
_cell_length_c 23.113164
_cell_angle_alpha 90.000000
_cell_angle_beta 90.000000
_cell_angle_gamma 90.000000
_cell_volume 2855.000894
_symmetry_space_group_name_H-M "C M M M"
_symmetry_group_IT_number 65
_symmetry_cell_setting 'orthorhombic'
loop_
_space_group_symop_operation_xyz
x,y,z
-x,-y,z
x,-y,-z
-x,y,-z
-x,-y,-z
x,y,-z
-x,y,z
x,-y,z
1/2+x,1/2+y,z
1/2-x,1/2-y,z
1/2+x,1/2-y,-z
1/2-x,1/2+y,-z
1/2-x,1/2-y,-z
1/2+x,1/2+y,-z
1/2-x,1/2+y,z
1/2+x,1/2-y,z
loop_
_atom_site_type_symbol
_atom_site_label
_atom_site_fract_x
_atom_site_fract_y
_atom_site_fract_z
Si Si1 0.693226 0.352916 0.688537
Si Si2 0.806110 0.000000 0.219832
Si Si3 0.810235 0.147060 0.000000
Si Si4 0.193542 0.145461 0.437781
Si Si5 0.189547 0.500000 0.088932
O O1 0.500000 0.354083 0.688239
O O2 0.750000 0.250000 0.694128
O O3 0.746222 0.413888 0.741983
O O4 0.745886 0.389694 0.625121
O O5 0.741399 0.000000 0.155333
O O6 0.000000 0.000000 0.217037
O O7 0.750000 0.250000 0.000000
O O8 0.752876 0.088497 0.944868
O O9 0.000000 0.148139 0.000000
O O10 0.247786 0.106765 0.500000
O O11 0.250000 0.250000 0.437753
O O12 0.000000 0.141680 0.438103
O O13 0.000000 0.500000 0.084253
#
# Coordination Sequence:
#
# PCOD9491895 Si02
#       5
#    16   8   8  16   8
#     4   9  18  32  50  71  99 136 178 224 275 331
#     4  10  21  37  53  74 109 149 184 223 274 326
#     4  11  22  41  68  96 124 153 184 223 270 320
#     4   8  13  23  41  65  91 122 164 216 273 329
#     4  11  23  40  61  89 121 154 192 231 273 322
#
# _framework density 19.614704
#
# number of rings (size 3 to 8) (size 9 to 14) (size 15 to 20)
#    0.000    2.571    0.000    3.429    0.000    2.286 
#    0.000    3.571    0.000    4.286    0.000    0.000 
#    0.000   24.000    0.000    0.000    0.000    0.000 
#
# Total GULP energy -156099.397958 kJ/mol
# GULP energy per Si atom -5574.978498 kJ/mol
# Density = 1.957006 g / cm^3
# Si number density = 19.614704 Si / 1000 Ang^3
#
#
#
# Elastic Constant Matrix: (Units=GPa)
#
#
# Indices 1 2 3 4 5 6 
#
# 1 63.4847 33.1244 48.5732 0.0000 0.0000 0.0000
# 2 33.1244 138.1359 98.3325 0.0000 0.0000 0.0000
# 3 48.5732 98.3325 240.2092 0.0000 0.0000 0.0000
# 4 0.0000 0.0000 0.0000 16.9118 0.0000 0.0000
# 5 0.0000 0.0000 0.0000 0.0000 20.8744 0.0000
# 6 0.0000 0.0000 0.0000 0.0000 0.0000 17.3267
#
#
#
# Elastic Compliance Matrix: (Units=1/GPa)
#
#
# Indices 1 2 3 4 5 6 
#
# 1 0.019278 -0.002608 -0.002831 0.000000 0.000000 0.000000
# 2 -0.002608 0.010569 -0.003799 0.000000 0.000000 0.000000
# 3 -0.002831 -0.003799 0.006291 0.000000 0.000000 0.000000
# 4 0.000000 0.000000 0.000000 0.059130 0.000000 0.000000
# 5 0.000000 0.000000 0.000000 0.000000 0.047906 0.000000
# 6 0.000000 0.000000 0.000000 0.000000 0.000000 0.057714
#
#
# Mechanical properties :
#
#
# Convention : Reuss Voigt Hill
#
# Bulk Modulus (GPa) = 56.61694 89.09888 72.85791
# Shear Modulus (GPa) = 22.19741 28.47591 25.33666
#
# Velocity S-wave (km/s) = 3.36768 3.81433 3.59795
# Velocity P-wave (km/s) = 6.63694 8.05742 7.38143
#
# Compressibility (1/GPa) = 0.01766256
#
# Stress axis : x y z
#
# Youngs Moduli (GPa) = 51.87161 94.61552 158.96387
#
# Poissons Ratio (x) = 0.24673 0.45000
# Poissons Ratio (y) = 0.13527 0.60395
# Poissons Ratio (z) = 0.14684 0.35947
#
# Static dielectric constant tensor:
#      x y z
#    x 1.668710 0.000000 0.000000 
#    y 0.000000 1.615100 0.000000 
#    z 0.000000 0.000000 1.714390 
# 
# From -- ./inp_files/58642.got.cif
#   From: 2010.05.17/outbox.cif.g08.bks.cpg/sg65_30_cif.got.tgz:58642.got - 2010.06.03 17:01:31.
