data_PCOD9491600
_publ_section_title
;
Structure prediction by ZEFSAII (Michael W. Deem and Ramdas Pophale) SiO2 
 PCOD9491600
Probable space group: C M M M
;
_chemical_formula_sum "Si O2"
_cell_formula_units_Z 96
_cell_length_a 19.940917
_cell_length_b 12.067715
_cell_length_c 21.400934
_cell_angle_alpha 90.000000
_cell_angle_beta 90.000000
_cell_angle_gamma 90.000000
_cell_volume 5149.948647
_symmetry_space_group_name_H-M "C M M M"
_symmetry_group_IT_number 65
_symmetry_cell_setting 'orthorhombic'
loop_
_space_group_symop_operation_xyz
x,y,z
-x,-y,z
x,-y,-z
-x,y,-z
-x,-y,-z
x,y,-z
-x,y,z
x,-y,z
1/2+x,1/2+y,z
1/2-x,1/2-y,z
1/2+x,1/2-y,-z
1/2-x,1/2+y,-z
1/2-x,1/2-y,-z
1/2+x,1/2+y,-z
1/2-x,1/2+y,z
1/2+x,1/2-y,z
loop_
_atom_site_type_symbol
_atom_site_label
_atom_site_fract_x
_atom_site_fract_y
_atom_site_fract_z
Si Si1 0.076181 0.133393 0.928391
Si Si2 0.825510 0.786426 0.178468
Si Si3 0.821483 0.812439 0.567002
Si Si4 0.718619 0.622289 0.302045
Si Si5 0.421095 0.874525 0.603391
Si Si6 0.574811 0.129944 0.752431
O O1 0.131906 0.172784 0.880098
O O2 0.000000 0.169342 0.911557
O O3 0.076089 0.000000 0.928110
O O4 0.089124 0.169318 0.000000
O O5 0.750000 0.750000 0.161606
O O6 0.820151 0.872774 0.236255
O O7 0.867174 0.685964 0.208592
O O8 0.828010 0.871435 0.500000
O O9 0.750000 0.750000 0.566073
O O10 0.821710 0.876770 0.632686
O O11 0.877579 0.717985 0.571029
O O12 0.755674 0.500000 0.302436
O O13 0.750000 0.750000 0.301714
O O14 0.500000 0.865837 0.589216
O O15 0.413259 0.858509 0.678145
O O16 0.399367 0.000000 0.587890
O O17 0.500000 0.175836 0.765578
O O18 0.573377 0.000000 0.765550
#
# Coordination Sequence:
#
# PCOD9491600 Si02
#       6
#    16  16  16  16  16  16
#     4   9  19  37  59  81 109 148 192 237 285 341
#     4  11  21  33  56  87 119 150 186 239 295 353
#     4  10  21  36  53  78 113 151 192 240 296 355
#     4  10  22  38  56  83 117 156 197 243 298 355
#     4   9  18  34  57  84 114 150 196 250 301 352
#     4   9  18  33  54  81 114 153 195 237 285 348
#
# _framework density 18.640961999999998
#
# number of rings (size 3 to 8) (size 9 to 14) (size 15 to 20)
#    0.000    2.333    1.667    2.500    0.000    7.333 
#    0.000    4.167    0.000    2.000    0.000    3.500 
#    0.000    0.000    0.000    0.000    0.000    0.000 
#
# Total GULP energy -267227.477560 kJ/mol
# GULP energy per Si atom -5567.239116 kJ/mol
# Density = 1.859853 g / cm^3
# Si number density = 18.640962 Si / 1000 Ang^3
#
#
#
# Elastic Constant Matrix: (Units=GPa)
#
#
# Indices 1 2 3 4 5 6 
#
# 1 105.7977 39.9951 64.0594 0.0000 0.0000 0.0000
# 2 39.9951 90.1685 37.1234 0.0000 0.0000 0.0000
# 3 64.0594 37.1234 134.5899 0.0000 0.0000 0.0000
# 4 0.0000 0.0000 0.0000 -7.6061 0.0000 0.0000
# 5 0.0000 0.0000 0.0000 0.0000 -4.2403 0.0000
# 6 0.0000 0.0000 0.0000 0.0000 0.0000 19.8566
#
#
#
# Elastic Compliance Matrix: (Units=1/GPa)
#
#
# Indices 1 2 3 4 5 6 
#
# 1 0.014478 -0.004044 -0.005775 0.000000 0.000000 0.000000
# 2 -0.004044 0.013641 -0.001838 0.000000 0.000000 0.000000
# 3 -0.005775 -0.001838 0.010686 0.000000 0.000000 0.000000
# 4 0.000000 0.000000 0.000000 -0.131473 0.000000 0.000000
# 5 0.000000 0.000000 0.000000 0.000000 -0.235831 0.000000
# 6 0.000000 0.000000 0.000000 0.000000 0.000000 0.050361
#
#
# Mechanical properties :
#
#
# Convention : Reuss Voigt Hill
#
# Bulk Modulus (GPa) = 64.55759 68.10134 66.32946
# Shear Modulus (GPa) = -20.02711 14.22725 -2.89993
#
# Velocity S-wave (km/s) = -3.28130 2.76565 -1.24862
# Velocity P-wave (km/s) = 4.51125 6.84185 5.79492
#
# Compressibility (1/GPa) = 0.01549005
#
# Stress axis : x y z
#
# Youngs Moduli (GPa) = 69.07181 73.31016 93.58290
#
# Poissons Ratio (x) = 0.29646 0.54048
# Poissons Ratio (y) = 0.27932 0.17198
# Poissons Ratio (z) = 0.39892 0.13472
#
# Static dielectric constant tensor:
#      x y z
#    x 1.877460 0.000000 0.000000 
#    y 0.000000 1.606100 0.000000 
#    z 0.000000 0.000000 1.671580 
# 
# From -- ./inp_files/64583.got.cif
#   From: 2010.05.17/outbox.cif.g08.bks.cpg/sg65_33_cif.got.tgz:64583.got - 2010.06.03 17:01:31.
