data_PCOD9491822
_publ_section_title
;
Structure prediction by ZEFSAII (Michael W. Deem and Ramdas Pophale) SiO2 
 PCOD9491822
Probable space group: C M M M
;
_chemical_formula_sum "Si O2"
_cell_formula_units_Z 64
_cell_length_a 14.999453
_cell_length_b 9.685063
_cell_length_c 21.413460
_cell_angle_alpha 90.000000
_cell_angle_beta 90.000000
_cell_angle_gamma 90.000000
_cell_volume 3110.747195
_symmetry_space_group_name_H-M "C M M M"
_symmetry_group_IT_number 65
_symmetry_cell_setting 'orthorhombic'
loop_
_space_group_symop_operation_xyz
x,y,z
-x,-y,z
x,-y,-z
-x,y,-z
-x,-y,-z
x,y,-z
-x,y,z
x,-y,z
1/2+x,1/2+y,z
1/2-x,1/2-y,z
1/2+x,1/2-y,-z
1/2-x,1/2+y,-z
1/2-x,1/2-y,-z
1/2+x,1/2+y,-z
1/2-x,1/2+y,z
1/2+x,1/2-y,z
loop_
_atom_site_type_symbol
_atom_site_label
_atom_site_fract_x
_atom_site_fract_y
_atom_site_fract_z
Si Si1 0.095246 0.663635 0.797477
Si Si2 0.100568 0.152991 0.388539
Si Si3 0.158274 0.665899 0.931902
Si Si4 0.657385 0.165759 0.500000
Si Si5 0.750000 0.250000 0.295448
O O1 0.088066 0.500000 0.802071
O O2 0.110167 0.712240 0.868599
O O3 0.177714 0.686117 0.751676
O O4 0.000000 0.719252 0.774352
O O5 0.109361 0.275844 0.438383
O O6 0.183604 0.165330 0.340970
O O7 0.000000 0.160617 0.361454
O O8 0.107568 0.000000 0.418409
O O9 0.173948 0.500000 0.927440
O O10 0.250000 0.750000 0.932523
O O11 0.114272 0.688919 0.000000
O O12 0.750000 0.250000 0.500000
O O13 0.666267 0.000000 0.500000
#
# Coordination Sequence:
#
# PCOD9491822 Si02
#       5
#    16  16  16   8   8
#     4  10  21  36  56  86 121 160 209 261 309 362
#     4  11  25  44  67  96 131 168 208 256 310 367
#     4   9  17  32  56  84 114 152 199 253 315 374
#     4  12  25  44  73 102 130 164 205 255 312 369
#     4  12  22  39  63  86 124 172 212 252 302 368
#
# _framework density 20.573834000000002
#
# number of rings (size 3 to 8) (size 9 to 14) (size 15 to 20)
#    0.000    1.500    2.500    3.000    0.000    3.500 
#    0.000    2.500    0.000    2.250    0.000    3.500 
#    0.000    0.000    0.000    0.000    0.000    0.000 
#
# Total GULP energy -178166.323723 kJ/mol
# GULP energy per Si atom -5567.697616 kJ/mol
# Density = 2.052701 g / cm^3
# Si number density = 20.573834 Si / 1000 Ang^3
#
#
#
# Elastic Constant Matrix: (Units=GPa)
#
#
# Indices 1 2 3 4 5 6 
#
# 1 163.6449 35.9195 57.5496 0.0000 0.0000 0.0000
# 2 35.9195 89.6047 46.0708 0.0000 0.0000 0.0000
# 3 57.5496 46.0708 124.7479 0.0000 0.0000 0.0000
# 4 0.0000 0.0000 0.0000 38.4359 0.0000 0.0000
# 5 0.0000 0.0000 0.0000 0.0000 -7.4757 0.0000
# 6 0.0000 0.0000 0.0000 0.0000 0.0000 19.4450
#
#
#
# Elastic Compliance Matrix: (Units=1/GPa)
#
#
# Indices 1 2 3 4 5 6 
#
# 1 0.007455 -0.001506 -0.002883 0.000000 0.000000 0.000000
# 2 -0.001506 0.014080 -0.004505 0.000000 0.000000 0.000000
# 3 -0.002883 -0.004505 0.011010 0.000000 0.000000 0.000000
# 4 0.000000 0.000000 0.000000 0.026017 0.000000 0.000000
# 5 0.000000 0.000000 0.000000 0.000000 -0.133767 0.000000
# 6 0.000000 0.000000 0.000000 0.000000 0.000000 0.051427
#
#
# Mechanical properties :
#
#
# Convention : Reuss Voigt Hill
#
# Bulk Modulus (GPa) = 67.76580 73.00858 70.38719
# Shear Modulus (GPa) = -4675.08185 25.97822 -2324.55181
#
# Velocity S-wave (km/s) = -47.72082 3.55728 -33.64983
# Velocity P-wave (km/s) = 54.80291 7.24124 38.41174
#
# Compressibility (1/GPa) = 0.01475671
#
# Stress axis : x y z
#
# Youngs Moduli (GPa) = 134.13272 71.02133 90.82650
#
# Poissons Ratio (x) = 0.10697 0.26186
# Poissons Ratio (y) = 0.20204 0.40919
# Poissons Ratio (z) = 0.38671 0.31996
#
# Static dielectric constant tensor:
#      x y z
#    x 1.758720 0.000000 0.000000 
#    y 0.000000 1.713120 0.000000 
#    z 0.000000 0.000000 1.797290 
# 
# From -- ./inp_files/69547.got.cif
#   From: 2010.05.17/outbox.cif.g08.bks.cpg/sg65_35_cif.got.tgz:69547.got - 2010.06.03 17:01:31.
