data_PCOD9491738
_publ_section_title
;
Structure prediction by ZEFSAII (Michael W. Deem and Ramdas Pophale) SiO2 
 PCOD9491738
Probable space group: C M M M
;
_chemical_formula_sum "Si O2"
_cell_formula_units_Z 112
_cell_length_a 14.840388
_cell_length_b 28.507763
_cell_length_c 14.899173
_cell_angle_alpha 90.000000
_cell_angle_beta 90.000000
_cell_angle_gamma 90.000000
_cell_volume 6303.337457
_symmetry_space_group_name_H-M "C M M M"
_symmetry_group_IT_number 65
_symmetry_cell_setting 'orthorhombic'
loop_
_space_group_symop_operation_xyz
x,y,z
-x,-y,z
x,-y,-z
-x,y,-z
-x,-y,-z
x,y,-z
-x,y,z
x,-y,z
1/2+x,1/2+y,z
1/2-x,1/2-y,z
1/2+x,1/2-y,-z
1/2-x,1/2+y,-z
1/2-x,1/2-y,-z
1/2+x,1/2+y,-z
1/2-x,1/2+y,z
1/2+x,1/2-y,z
loop_
_atom_site_type_symbol
_atom_site_label
_atom_site_fract_x
_atom_site_fract_y
_atom_site_fract_z
Si Si1 0.106329 0.692369 0.893571
Si Si2 0.107691 0.268894 0.598108
Si Si3 0.333565 0.122913 0.400387
Si Si4 0.000000 0.445665 0.858124
Si Si5 0.699077 0.946343 0.103126
Si Si6 0.244365 0.134565 0.214926
Si Si7 0.393014 0.716945 0.221345
Si Si8 0.500000 0.944707 0.642409
O O1 0.171116 0.661856 0.830590
O O2 0.120492 0.745655 0.858718
O O3 0.000000 0.681328 0.878343
O O4 0.125262 0.687364 0.000000
O O5 0.141574 0.252517 0.500000
O O6 0.126476 0.324307 0.605257
O O7 0.140323 0.241133 0.685525
O O8 0.000000 0.263455 0.598120
O O9 0.293837 0.117520 0.500000
O O10 0.266572 0.120958 0.316981
O O11 0.412548 0.084368 0.389141
O O12 0.904257 0.427306 0.891523
O O13 0.000000 0.500000 0.887805
O O14 0.000000 0.443139 0.750739
O O15 0.762532 0.913258 0.159948
O O16 0.697122 0.000000 0.136905
O O17 0.725606 0.946378 0.000000
O O18 0.161352 0.169582 0.207694
O O19 0.500000 0.708792 0.228430
O O20 0.500000 0.000000 0.616294
#
# Coordination Sequence:
#
# PCOD9491738 Si02
#       8
#    16  16  16   8  16  16  16   8
#     4  10  22  37  54  79 112 146 179 220 270 330
#     4   9  17  32  54  77 106 144 183 223 268 320
#     4  11  22  33  50  77 111 151 190 221 262 319
#     4   9  17  31  53  78 109 147 180 215 261 315
#     4  10  21  36  55  80 111 144 178 221 270 321
#     4  12  23  35  57  82 107 143 186 230 272 329
#     4  10  22  39  57  78 107 141 182 234 285 330
#     4  11  21  35  53  78 117 159 192 223 264 323
#
# _framework density 17.768363999999998
#
# number of rings (size 3 to 8) (size 9 to 14) (size 15 to 20)
#    0.000    1.714    3.571    1.286    2.000    3.714 
#    0.000    1.429    0.000    0.429    0.000    1.000 
#    0.000    0.000    0.000    6.143    0.000    0.000 
#
# Total GULP energy -312588.495247 kJ/mol
# GULP energy per Si atom -5581.937415 kJ/mol
# Density = 1.772792 g / cm^3
# Si number density = 17.768364 Si / 1000 Ang^3
#
#
#
# Elastic Constant Matrix: (Units=GPa)
#
#
# Indices 1 2 3 4 5 6 
#
# 1 40.2897 34.5823 22.4895 0.0000 0.0000 0.0000
# 2 34.5823 99.2297 33.2514 0.0000 0.0000 0.0000
# 3 22.4895 33.2514 108.7037 0.0000 0.0000 0.0000
# 4 0.0000 0.0000 0.0000 9.9671 0.0000 0.0000
# 5 0.0000 0.0000 0.0000 0.0000 -13.2667 0.0000
# 6 0.0000 0.0000 0.0000 0.0000 0.0000 30.4368
#
#
#
# Elastic Compliance Matrix: (Units=1/GPa)
#
#
# Indices 1 2 3 4 5 6 
#
# 1 0.037010 -0.011513 -0.004135 0.000000 0.000000 0.000000
# 2 -0.011513 0.014810 -0.002148 0.000000 0.000000 0.000000
# 3 -0.004135 -0.002148 0.010712 0.000000 0.000000 0.000000
# 4 0.000000 0.000000 0.000000 0.100330 0.000000 0.000000
# 5 0.000000 0.000000 0.000000 0.000000 -0.075376 0.000000
# 6 0.000000 0.000000 0.000000 0.000000 0.000000 0.032855
#
#
# Mechanical properties :
#
#
# Convention : Reuss Voigt Hill
#
# Bulk Modulus (GPa) = 37.12035 47.65216 42.38626
# Shear Modulus (GPa) = 30.31893 15.95408 23.13650
#
# Velocity S-wave (km/s) = 4.13527 2.99974 3.61240
# Velocity P-wave (km/s) = 6.61341 6.23495 6.42697
#
# Compressibility (1/GPa) = 0.02693940
#
# Stress axis : x y z
#
# Youngs Moduli (GPa) = 27.01951 67.52308 93.35290
#
# Poissons Ratio (x) = 0.77737 0.38605
# Poissons Ratio (y) = 0.31106 0.20055
# Poissons Ratio (z) = 0.11174 0.14506
#
# Static dielectric constant tensor:
#      x y z
#    x 1.592160 0.000000 0.000000 
#    y 0.000000 1.619220 0.000000 
#    z 0.000000 0.000000 1.641770 
# 
# From -- ./inp_files/41192.got.cif
#   From: 2010.05.17/outbox.cif.g08.bks.cpg/sg65_21_cif.got.tgz:41192.got - 2010.06.03 17:01:31.
