data_PCOD9491877
_publ_section_title
;
Structure prediction by ZEFSAII (Michael W. Deem and Ramdas Pophale) SiO2 
 PCOD9491877
Probable space group: C M M M
;
_chemical_formula_sum "Si O2"
_cell_formula_units_Z 88
_cell_length_a 20.100786
_cell_length_b 20.461720
_cell_length_c 11.582322
_cell_angle_alpha 90.000000
_cell_angle_beta 90.000000
_cell_angle_gamma 90.000000
_cell_volume 4763.770295
_symmetry_space_group_name_H-M "C M M M"
_symmetry_group_IT_number 65
_symmetry_cell_setting 'orthorhombic'
loop_
_space_group_symop_operation_xyz
x,y,z
-x,-y,z
x,-y,-z
-x,y,-z
-x,-y,-z
x,y,-z
-x,y,z
x,-y,z
1/2+x,1/2+y,z
1/2-x,1/2-y,z
1/2+x,1/2-y,-z
1/2-x,1/2+y,-z
1/2-x,1/2-y,-z
1/2+x,1/2+y,-z
1/2-x,1/2+y,z
1/2+x,1/2-y,z
loop_
_atom_site_type_symbol
_atom_site_label
_atom_site_fract_x
_atom_site_fract_y
_atom_site_fract_z
Si Si1 0.150796 0.317493 0.000000
Si Si2 0.861716 0.119205 0.763455
Si Si3 0.131441 0.500000 0.638391
Si Si4 0.422692 0.737667 0.363013
Si Si5 0.421090 0.871645 0.771804
Si Si6 0.291302 0.500000 0.635265
Si Si7 0.190086 0.171798 0.000000
Si Si8 0.000000 0.922591 0.130685
O O1 0.118695 0.352050 0.111988
O O2 0.144478 0.238030 0.000000
O O3 0.230566 0.320633 0.000000
O O4 0.872748 0.185782 0.692731
O O5 0.934878 0.096115 0.799376
O O6 0.822978 0.063978 0.693583
O O7 0.826251 0.133698 0.883800
O O8 0.114309 0.500000 0.500000
O O9 0.103797 0.563801 0.705211
O O10 0.211562 0.500000 0.647381
O O11 0.415346 0.737908 0.500000
O O12 0.500000 0.720046 0.336168
O O13 0.412013 0.809483 0.312026
O O14 0.500000 0.878255 0.797602
O O15 0.307619 0.500000 0.500000
O O16 0.000000 0.000000 0.118699
O O17 0.000000 0.893764 0.000000
#
# Coordination Sequence:
#
# PCOD9491877 Si02
#       8
#     8  16   8  16  16   8   8   8
#     4  11  23  43  61  97 131 162 206 259 319 386
#     4  12  21  40  62  91 127 168 213 263 312 374
#     4  11  25  47  68  93 128 170 217 263 316 391
#     4  10  21  36  59  92 126 161 205 260 318 374
#     4  11  23  42  69  97 128 161 208 268 326 381
#     4  11  26  43  62  89 131 178 219 261 314 375
#     4  11  24  38  66  90 129 173 209 254 313 383
#     4  11  22  36  56  90 126 157 208 257 309 371
#
# _framework density 18.472761999999999
#
# number of rings (size 3 to 8) (size 9 to 14) (size 15 to 20)
#    0.000    1.000    4.545    2.727    0.000    2.182 
#    1.636    3.182    0.000    4.364    0.000    0.000 
#    0.000    0.000    0.000    0.000    0.000    0.000 
#
# Total GULP energy -245709.602409 kJ/mol
# GULP energy per Si atom -5584.309146 kJ/mol
# Density = 1.843072 g / cm^3
# Si number density = 18.472762 Si / 1000 Ang^3
#
#
#
# Elastic Constant Matrix: (Units=GPa)
#
#
# Indices 1 2 3 4 5 6 
#
# 1 97.8080 60.7388 60.8940 0.0000 0.0000 0.0000
# 2 60.7388 149.5721 91.8832 0.0000 0.0000 0.0000
# 3 60.8940 91.8832 149.4487 0.0000 0.0000 0.0000
# 4 0.0000 0.0000 0.0000 36.8263 0.0000 0.0000
# 5 0.0000 0.0000 0.0000 0.0000 92.5441 0.0000
# 6 0.0000 0.0000 0.0000 0.0000 0.0000 -11.9361
#
#
#
# Elastic Compliance Matrix: (Units=1/GPa)
#
#
# Indices 1 2 3 4 5 6 
#
# 1 0.014889 -0.003727 -0.003775 0.000000 0.000000 0.000000
# 2 -0.003727 0.011676 -0.005660 0.000000 0.000000 0.000000
# 3 -0.003775 -0.005660 0.011709 0.000000 0.000000 0.000000
# 4 0.000000 0.000000 0.000000 0.027154 0.000000 0.000000
# 5 0.000000 0.000000 0.000000 0.000000 0.010806 0.000000
# 6 0.000000 0.000000 0.000000 0.000000 0.000000 -0.083779
#
#
# Mechanical properties :
#
#
# Convention : Reuss Voigt Hill
#
# Bulk Modulus (GPa) = 83.68229 91.54008 87.61119
# Shear Modulus (GPa) = 219.64783 35.70771 127.67777
#
# Velocity S-wave (km/s) = 10.91612 4.40135 8.32267
# Velocity P-wave (km/s) = 14.29269 8.68855 11.82734
#
# Compressibility (1/GPa) = 0.01194996
#
# Stress axis : x y z
#
# Youngs Moduli (GPa) = 67.16368 85.64350 85.40130
#
# Poissons Ratio (x) = 0.31920 0.32241
# Poissons Ratio (y) = 0.25032 0.48338
# Poissons Ratio (z) = 0.25355 0.48475
#
# Static dielectric constant tensor:
#      x y z
#    x 1.625850 0.000000 0.000000 
#    y 0.000000 1.634090 0.000000 
#    z 0.000000 0.000000 1.614540 
# 
# From -- ./inp_files/26896.got.cif
#   From: 2010.05.17/outbox.cif.g08.bks.cpg/sg65_14_cif.got.tgz:26896.got - 2010.06.03 17:01:31.
