data_PCOD9491659
_publ_section_title
;
Structure prediction by ZEFSAII (Michael W. Deem and Ramdas Pophale) SiO2 
 PCOD9491659
Probable space group: C M M M
;
_chemical_formula_sum "Si O2"
_cell_formula_units_Z 72
_cell_length_a 7.521994
_cell_length_b 15.956398
_cell_length_c 28.034744
_cell_angle_alpha 90.000000
_cell_angle_beta 90.000000
_cell_angle_gamma 90.000000
_cell_volume 3364.840152
_symmetry_space_group_name_H-M "C M M M"
_symmetry_group_IT_number 65
_symmetry_cell_setting 'orthorhombic'
loop_
_space_group_symop_operation_xyz
x,y,z
-x,-y,z
x,-y,-z
-x,y,-z
-x,-y,-z
x,y,-z
-x,y,z
x,-y,z
1/2+x,1/2+y,z
1/2-x,1/2-y,z
1/2+x,1/2-y,-z
1/2-x,1/2+y,-z
1/2-x,1/2-y,-z
1/2+x,1/2+y,-z
1/2-x,1/2+y,z
1/2+x,1/2-y,z
loop_
_atom_site_type_symbol
_atom_site_label
_atom_site_fract_x
_atom_site_fract_y
_atom_site_fract_z
Si Si1 0.713047 0.655166 0.445611
Si Si2 0.712943 0.000000 0.728372
Si Si3 0.213769 0.349167 0.206280
Si Si4 0.287632 0.151692 0.101528
Si Si5 0.798497 0.598829 0.000000
Si Si6 0.786327 0.000000 0.616541
O O1 0.781115 0.645630 0.500000
O O2 0.500000 0.646740 0.447962
O O3 0.750000 0.750000 0.429580
O O4 0.780476 0.583071 0.410601
O O5 0.779112 0.915245 0.754437
O O6 0.500000 0.000000 0.734127
O O7 0.748119 0.000000 0.672354
O O8 0.250000 0.250000 0.214460
O O9 0.278816 0.377116 0.153429
O O10 0.000000 0.354533 0.204838
O O11 0.500000 0.133540 0.100601
O O12 0.250000 0.250000 0.102450
O O13 0.214063 0.121706 0.050741
O O14 0.814909 0.500000 0.000000
O O15 0.000000 0.637054 0.000000
O O16 0.000000 0.000000 0.611976
#
# Coordination Sequence:
#
# PCOD9491659 Si02
#       6
#    16   8  16  16   8   8
#     4   9  18  34  56  81 109 141 175 210 251 301
#     4  10  22  37  53  74 102 136 174 217 260 300
#     4   9  19  35  54  74  98 131 170 212 257 305
#     4   9  17  30  49  70  93 122 156 196 243 296
#     4   9  17  26  43  73  98 119 152 194 238 291
#     4  10  21  36  54  78 107 141 175 211 256 304
#
# _framework density 21.397746999999999
#
# number of rings (size 3 to 8) (size 9 to 14) (size 15 to 20)
#    0.000    2.778    0.000    0.667    1.556    4.000 
#    0.000    4.444    0.000    4.667    0.000    0.000 
#    0.000    0.000    0.000    0.000    0.000    0.000 
#
# Total GULP energy -200685.619860 kJ/mol
# GULP energy per Si atom -5574.600552 kJ/mol
# Density = 2.134905 g / cm^3
# Si number density = 21.397747 Si / 1000 Ang^3
#
#
#
# Elastic Constant Matrix: (Units=GPa)
#
#
# Indices 1 2 3 4 5 6 
#
# 1 58.9003 1.9458 6.2161 0.0000 0.0000 0.0000
# 2 1.9458 143.2060 134.0277 0.0000 0.0000 0.0000
# 3 6.2161 134.0277 202.9595 0.0000 0.0000 0.0000
# 4 0.0000 0.0000 0.0000 -34.0061 0.0000 0.0000
# 5 0.0000 0.0000 0.0000 0.0000 14.7493 0.0000
# 6 0.0000 0.0000 0.0000 0.0000 0.0000 16.7702
#
#
#
# Elastic Compliance Matrix: (Units=1/GPa)
#
#
# Indices 1 2 3 4 5 6 
#
# 1 0.017058 0.000673 -0.000967 0.000000 0.000000 0.000000
# 2 0.000673 0.018309 -0.012111 0.000000 0.000000 0.000000
# 3 -0.000967 -0.012111 0.012954 0.000000 0.000000 0.000000
# 4 0.000000 0.000000 0.000000 -0.029407 0.000000 0.000000
# 5 0.000000 0.000000 0.000000 0.000000 0.067800 0.000000
# 6 0.000000 0.000000 0.000000 0.000000 0.000000 0.059630
#
#
# Mechanical properties :
#
#
# Convention : Reuss Voigt Hill
#
# Bulk Modulus (GPa) = 42.53302 76.60500 59.56901
# Shear Modulus (GPa) = 27.93450 17.02777 22.48114
#
# Velocity S-wave (km/s) = 3.61707 2.82401 3.24486
# Velocity P-wave (km/s) = 6.11267 6.81994 6.47597
#
# Compressibility (1/GPa) = 0.02351115
#
# Stress axis : x y z
#
# Youngs Moduli (GPa) = 58.62472 54.61917 77.19378
#
# Poissons Ratio (x) = -0.03678 0.07465
# Poissons Ratio (y) = -0.03947 0.93489
# Poissons Ratio (z) = 0.05669 0.66149
#
# Static dielectric constant tensor:
#      x y z
#    x 1.884950 0.000000 0.000000 
#    y 0.000000 1.742690 0.000000 
#    z 0.000000 0.000000 1.799500 
# 
# From -- ./inp_files/72622.got.cif
#   From: 2010.05.17/outbox.cif.g08.bks.cpg/sg65_37_cif.got.tgz:72622.got - 2010.06.03 17:01:31.
