data_PCOD9491217
_publ_section_title
;
Structure prediction by ZEFSAII (Michael W. Deem and Ramdas Pophale) SiO2 
 PCOD9491217
Probable space group: C M M M
;
_chemical_formula_sum "Si O2"
_cell_formula_units_Z 72
_cell_length_a 19.053338
_cell_length_b 7.577439
_cell_length_c 24.761391
_cell_angle_alpha 90.000000
_cell_angle_beta 90.000000
_cell_angle_gamma 90.000000
_cell_volume 3574.938366
_symmetry_space_group_name_H-M "C M M M"
_symmetry_group_IT_number 65
_symmetry_cell_setting 'orthorhombic'
loop_
_space_group_symop_operation_xyz
x,y,z
-x,-y,z
x,-y,-z
-x,y,-z
-x,-y,-z
x,y,-z
-x,y,z
x,-y,z
1/2+x,1/2+y,z
1/2-x,1/2-y,z
1/2+x,1/2-y,-z
1/2-x,1/2+y,-z
1/2-x,1/2-y,-z
1/2+x,1/2+y,-z
1/2-x,1/2+y,z
1/2+x,1/2-y,z
loop_
_atom_site_type_symbol
_atom_site_label
_atom_site_fract_x
_atom_site_fract_y
_atom_site_fract_z
Si Si1 0.667687 0.788075 0.440342
Si Si2 0.580322 0.289920 0.102103
Si Si3 0.918716 0.711951 0.220096
Si Si4 0.917929 0.284589 0.662532
Si Si5 0.167759 0.787721 0.000000
O O1 0.646192 0.721819 0.500000
O O2 0.750000 0.750000 0.433784
O O3 0.624664 0.719758 0.389152
O O4 0.658947 0.000000 0.441184
O O5 0.500000 0.218876 0.100136
O O6 0.574927 0.500000 0.095030
O O7 0.611506 0.261796 0.162026
O O8 0.628205 0.220691 0.053665
O O9 0.919436 0.500000 0.221578
O O10 0.890059 0.772265 0.278256
O O11 0.000000 0.773511 0.218700
O O12 0.915398 0.500000 0.661934
O O13 0.000000 0.236568 0.658630
O O14 0.250000 0.750000 0.000000
O O15 0.161108 0.000000 0.000000
#
# Coordination Sequence:
#
# PCOD9491217 Si02
#       5
#    16  16  16  16   8
#     4   9  17  29  45  64  87 117 151 185 221 262
#     4   9  17  31  51  71  90 115 149 184 217 259
#     4   8  14  26  45  68  92 116 143 179 222 263
#     4   8  14  26  45  68  91 114 144 184 225 261
#     4  10  21  35  49  67  93 122 148 180 224 264
#
# _framework density 20.140208000000001
#
# number of rings (size 3 to 8) (size 9 to 14) (size 15 to 20)
#    0.000    3.333    0.000    1.667    0.000    2.667 
#    0.000    4.444    0.000   10.667    0.000    3.111 
#    0.000    0.000    0.000    0.000    0.000    0.000 
#
# Total GULP energy -200502.072608 kJ/mol
# GULP energy per Si atom -5569.502017 kJ/mol
# Density = 2.009437 g / cm^3
# Si number density = 20.140208 Si / 1000 Ang^3
#
#
#
# Elastic Constant Matrix: (Units=GPa)
#
#
# Indices 1 2 3 4 5 6 
#
# 1 61.9383 0.4270 96.6674 0.0000 0.0000 0.0000
# 2 0.4270 43.5935 9.7036 0.0000 0.0000 0.0000
# 3 96.6674 9.7036 271.1626 0.0000 0.0000 0.0000
# 4 0.0000 0.0000 0.0000 53.1494 0.0000 0.0000
# 5 0.0000 0.0000 0.0000 0.0000 55.1296 0.0000
# 6 0.0000 0.0000 0.0000 0.0000 0.0000 14.1804
#
#
#
# Elastic Compliance Matrix: (Units=1/GPa)
#
#
# Indices 1 2 3 4 5 6 
#
# 1 0.036678 0.002572 -0.013167 0.000000 0.000000 0.000000
# 2 0.002572 0.023304 -0.001751 0.000000 0.000000 0.000000
# 3 -0.013167 -0.001751 0.008445 0.000000 0.000000 0.000000
# 4 0.000000 0.000000 0.000000 0.018815 0.000000 0.000000
# 5 0.000000 0.000000 0.000000 0.000000 0.018139 0.000000
# 6 0.000000 0.000000 0.000000 0.000000 0.000000 0.070520
#
#
# Mechanical properties :
#
#
# Convention : Reuss Voigt Hill
#
# Bulk Modulus (GPa) = 22.86589 65.58783 44.22686
# Shear Modulus (GPa) = 23.23739 42.48497 32.86118
#
# Velocity S-wave (km/s) = 3.40042 4.59787 4.04371
# Velocity P-wave (km/s) = 5.17640 7.79894 6.61886
#
# Compressibility (1/GPa) = 0.04373326
#
# Stress axis : x y z
#
# Youngs Moduli (GPa) = 27.26452 42.91158 118.41974
#
# Poissons Ratio (x) = -0.11036 1.55927
# Poissons Ratio (y) = -0.07012 0.20732
# Poissons Ratio (z) = 0.35900 0.07513
#
# Static dielectric constant tensor:
#      x y z
#    x 1.664780 0.000000 0.000000 
#    y 0.000000 1.760760 0.000000 
#    z 0.000000 0.000000 1.770350 
# 
# From -- ./inp_files/54090.got.cif
#   From: 2010.05.17/outbox.cif.g08.bks.cpg/sg65_28_cif.got.tgz:54090.got - 2010.06.03 17:01:31.
