data_PCOD9491826
_publ_section_title
;
Structure prediction by ZEFSAII (Michael W. Deem and Ramdas Pophale) SiO2 
 PCOD9491826
Probable space group: C M M M
;
_chemical_formula_sum "Si O2"
_cell_formula_units_Z 38
_cell_length_a 10.198304
_cell_length_b 40.635071
_cell_length_c 5.203993
_cell_angle_alpha 90.000000
_cell_angle_beta 90.000000
_cell_angle_gamma 90.000000
_cell_volume 2156.580531
_symmetry_space_group_name_H-M "C M M M"
_symmetry_group_IT_number 65
_symmetry_cell_setting 'orthorhombic'
loop_
_space_group_symop_operation_xyz
x,y,z
-x,-y,z
x,-y,-z
-x,y,-z
-x,-y,-z
x,y,-z
-x,y,z
x,-y,z
1/2+x,1/2+y,z
1/2-x,1/2-y,z
1/2+x,1/2-y,-z
1/2-x,1/2+y,-z
1/2-x,1/2-y,-z
1/2+x,1/2+y,-z
1/2-x,1/2+y,z
1/2+x,1/2-y,z
loop_
_atom_site_type_symbol
_atom_site_label
_atom_site_fract_x
_atom_site_fract_y
_atom_site_fract_z
Si Si1 0.655694 0.431563 0.500000
Si Si2 0.152098 0.280558 0.500000
Si Si3 0.152735 0.674182 0.000000
Si Si4 0.808004 0.500000 0.500000
Si Si5 0.500000 0.000000 0.000000
Si Si6 0.157113 0.888165 0.000000
O O1 0.500000 0.436951 0.500000
O O2 0.725423 0.466440 0.500000
O O3 0.687987 0.409943 0.750130
O O4 0.250000 0.250000 0.500000
O O5 0.171842 0.303172 0.250030
O O6 0.000000 0.269293 0.500000
O O7 0.254460 0.644318 0.000000
O O8 0.000000 0.662701 0.000000
O O9 0.888723 0.500000 0.767026
O O10 0.000000 0.880734 0.000000
#
# Coordination Sequence:
#
# PCOD9491826 Si02
#       6
#     8   8   8   4   2   8
#     4  10  21  38  62  86 111 147 196 243 293 341
#     4  10  21  36  57  82 112 144 189 233 277 340
#     4  10  21  38  55  80 116 151 187 227 283 344
#     4  11  21  42  60  82 121 151 190 242 296 345
#     4  10  24  38  54  82 120 150 180 232 292 338
#     4  10  21  37  57  87 115 147 195 242 281 344
#
# _framework density 17.620487000000001
#
# number of rings (size 3 to 8) (size 9 to 14) (size 15 to 20)
#    0.000    1.895    0.000    3.474    0.000    1.684 
#   11.368    4.211    0.000    0.000    0.000    0.000 
#    0.000    0.000    0.000    0.000    0.000    0.000 
#
# Total GULP energy -105804.346354 kJ/mol
# GULP energy per Si atom -5568.649808 kJ/mol
# Density = 1.758038 g / cm^3
# Si number density = 17.620487 Si / 1000 Ang^3
#
#
#
# Elastic Constant Matrix: (Units=GPa)
#
#
# Indices 1 2 3 4 5 6 
#
# 1 108.9932 124.0965 78.1409 0.0000 0.0000 0.0000
# 2 124.0965 167.9287 88.1312 0.0000 0.0000 0.0000
# 3 78.1409 88.1312 205.7590 0.0000 0.0000 0.0000
# 4 0.0000 0.0000 0.0000 9.5846 0.0000 0.0000
# 5 0.0000 0.0000 0.0000 0.0000 44.2888 0.0000
# 6 0.0000 0.0000 0.0000 0.0000 0.0000 272.5931
#
#
#
# Elastic Compliance Matrix: (Units=1/GPa)
#
#
# Indices 1 2 3 4 5 6 
#
# 1 0.061629 -0.042904 -0.005028 0.000000 0.000000 0.000000
# 2 -0.042904 0.037550 0.000210 0.000000 0.000000 0.000000
# 3 -0.005028 0.000210 0.006680 0.000000 0.000000 0.000000
# 4 0.000000 0.000000 0.000000 0.104334 0.000000 0.000000
# 5 0.000000 0.000000 0.000000 0.000000 0.022579 0.000000
# 6 0.000000 0.000000 0.000000 0.000000 0.000000 0.003668
#
#
# Mechanical properties :
#
#
# Convention : Reuss Voigt Hill
#
# Bulk Modulus (GPa) = 96.01862 118.15758 107.08810
# Shear Modulus (GPa) = 14.90957 78.11411 46.51184
#
# Velocity S-wave (km/s) = 2.91202 6.66541 5.14332
# Velocity P-wave (km/s) = 8.11895 11.24453 9.80706
#
# Compressibility (1/GPa) = 0.01041465
#
# Stress axis : x y z
#
# Youngs Moduli (GPa) = 16.22619 26.63123 149.71078
#
# Poissons Ratio (x) = 1.14258 0.75275
# Poissons Ratio (y) = 0.69617 -0.03145
# Poissons Ratio (z) = 0.08159 -0.00560
#
# Static dielectric constant tensor:
#      x y z
#    x 1.596610 0.000000 0.000000 
#    y 0.000000 1.548590 0.000000 
#    z 0.000000 0.000000 1.608090 
# 
# From -- ./inp_files/483.got.cif
#   From: 2010.05.17/outbox.cif.g08.bks.cpg/sg65_1_cif.got.tgz:483.got - 2010.06.03 17:01:31.
