data_PCOD9491809
_publ_section_title
;
Structure prediction by ZEFSAII (Michael W. Deem and Ramdas Pophale) SiO2 
 PCOD9491809
Probable space group: C M M M
;
_chemical_formula_sum "Si O2"
_cell_formula_units_Z 80
_cell_length_a 7.828595
_cell_length_b 32.178788
_cell_length_c 15.001329
_cell_angle_alpha 90.000000
_cell_angle_beta 90.000000
_cell_angle_gamma 90.000000
_cell_volume 3779.055277
_symmetry_space_group_name_H-M "C M M M"
_symmetry_group_IT_number 65
_symmetry_cell_setting 'orthorhombic'
loop_
_space_group_symop_operation_xyz
x,y,z
-x,-y,z
x,-y,-z
-x,y,-z
-x,-y,-z
x,y,-z
-x,y,z
x,-y,z
1/2+x,1/2+y,z
1/2-x,1/2-y,z
1/2+x,1/2-y,-z
1/2-x,1/2+y,-z
1/2-x,1/2-y,-z
1/2+x,1/2+y,-z
1/2-x,1/2+y,z
1/2+x,1/2-y,z
loop_
_atom_site_type_symbol
_atom_site_label
_atom_site_fract_x
_atom_site_fract_y
_atom_site_fract_z
Si Si1 0.705008 0.123935 0.898937
Si Si2 0.706048 0.421290 0.598325
Si Si3 0.202927 0.204782 0.213123
Si Si4 0.297093 0.045452 0.787812
Si Si5 0.292086 0.676534 0.597634
O O1 0.500000 0.119733 0.903188
O O2 0.739500 0.166478 0.846933
O O3 0.773432 0.084455 0.843374
O O4 0.771017 0.124938 0.000000
O O5 0.762849 0.435623 0.500000
O O6 0.500000 0.423599 0.600271
O O7 0.773044 0.445605 0.683177
O O8 0.751484 0.372401 0.606608
O O9 0.250000 0.250000 0.177435
O O10 0.272471 0.199423 0.314255
O O11 0.000000 0.202242 0.218629
O O12 0.500000 0.044154 0.804799
O O13 0.225500 0.000000 0.810561
O O14 0.231941 0.691159 0.500000
O O15 0.500000 0.678782 0.596606
#
# Coordination Sequence:
#
# PCOD9491809 Si02
#       5
#    16  16  16  16  16
#     4  10  22  41  62  82 108 143 186 235 284 336
#     4   9  17  32  55  81 111 150 192 228 267 322
#     4  11  22  37  60  87 116 148 184 228 277 331
#     4  10  21  36  56  84 116 147 182 229 284 336
#     4   8  15  30  53  80 111 147 184 222 266 317
#
# _framework density 21.169312000000001
#
# number of rings (size 3 to 8) (size 9 to 14) (size 15 to 20)
#    0.000    2.400    2.000    1.800    0.000    2.800 
#    0.000    4.000    0.000    1.800    0.000    2.800 
#    0.000    0.000    0.000    0.000    0.000    0.000 
#
# Total GULP energy -223305.253326 kJ/mol
# GULP energy per Si atom -5582.631333 kJ/mol
# Density = 2.112113 g / cm^3
# Si number density = 21.169312 Si / 1000 Ang^3
#
#
#
# Elastic Constant Matrix: (Units=GPa)
#
#
# Indices 1 2 3 4 5 6 
#
# 1 26.8858 4.8813 6.4039 0.0000 0.0000 0.0000
# 2 4.8813 164.6694 96.7047 0.0000 0.0000 0.0000
# 3 6.4039 96.7047 154.7515 0.0000 0.0000 0.0000
# 4 0.0000 0.0000 0.0000 -5.4846 0.0000 0.0000
# 5 0.0000 0.0000 0.0000 0.0000 28.8814 0.0000
# 6 0.0000 0.0000 0.0000 0.0000 0.0000 13.6034
#
#
#
# Elastic Compliance Matrix: (Units=1/GPa)
#
#
# Indices 1 2 3 4 5 6 
#
# 1 0.037575 -0.000317 -0.001357 0.000000 0.000000 0.000000
# 2 -0.000317 0.009596 -0.005983 0.000000 0.000000 0.000000
# 3 -0.001357 -0.005983 0.010257 0.000000 0.000000 0.000000
# 4 0.000000 0.000000 0.000000 -0.182327 0.000000 0.000000
# 5 0.000000 0.000000 0.000000 0.000000 0.034624 0.000000
# 6 0.000000 0.000000 0.000000 0.000000 0.000000 0.073511
#
#
# Mechanical properties :
#
#
# Convention : Reuss Voigt Hill
#
# Bulk Modulus (GPa) = 23.74525 62.47628 43.11077
# Shear Modulus (GPa) = 397.15877 23.28781 210.22329
#
# Velocity S-wave (km/s) = 13.71196 3.32033 9.97603
# Velocity P-wave (km/s) = 16.18430 6.65404 12.37352
#
# Compressibility (1/GPa) = 0.04211368
#
# Stress axis : x y z
#
# Youngs Moduli (GPa) = 26.61339 104.20931 97.49227
#
# Poissons Ratio (x) = 0.03304 0.13228
# Poissons Ratio (y) = 0.00844 0.58334
# Poissons Ratio (z) = 0.03611 0.62354
#
# Static dielectric constant tensor:
#      x y z
#    x 1.780430 0.000000 0.000000 
#    y 0.000000 1.601130 0.000000 
#    z 0.000000 0.000000 1.764700 
# 
# From -- ./inp_files/50148.got.cif
#   From: 2010.05.17/outbox.cif.g08.bks.cpg/sg65_26_cif.got.tgz:50148.got - 2010.06.03 17:01:31.
