data_PCOD9491319
_publ_section_title
;
Structure prediction by ZEFSAII (Michael W. Deem and Ramdas Pophale) SiO2 
 PCOD9491319
Probable space group: C M M M
;
_chemical_formula_sum "Si O2"
_cell_formula_units_Z 100
_cell_length_a 18.469069
_cell_length_b 9.910039
_cell_length_c 30.940076
_cell_angle_alpha 90.000000
_cell_angle_beta 90.000000
_cell_angle_gamma 90.000000
_cell_volume 5662.937175
_symmetry_space_group_name_H-M "C M M M"
_symmetry_group_IT_number 65
_symmetry_cell_setting 'orthorhombic'
loop_
_space_group_symop_operation_xyz
x,y,z
-x,-y,z
x,-y,-z
-x,y,-z
-x,-y,-z
x,y,-z
-x,y,z
x,-y,z
1/2+x,1/2+y,z
1/2-x,1/2-y,z
1/2+x,1/2-y,-z
1/2-x,1/2+y,-z
1/2-x,1/2-y,-z
1/2+x,1/2+y,-z
1/2-x,1/2+y,z
1/2+x,1/2-y,z
loop_
_atom_site_type_symbol
_atom_site_label
_atom_site_fract_x
_atom_site_fract_y
_atom_site_fract_z
Si Si1 0.819040 0.844762 0.329150
Si Si2 0.583326 0.000000 0.551955
Si Si3 0.320949 0.341321 0.000000
Si Si4 0.086745 0.156055 0.754512
Si Si5 0.636350 0.500000 0.500000
Si Si6 0.413679 0.657451 0.086167
Si Si7 0.088178 0.344363 0.833419
Si Si8 0.163829 0.774891 0.573529
O O1 0.750000 0.750000 0.323974
O O2 0.876393 0.816988 0.291471
O O3 0.848549 0.824062 0.377569
O O4 0.796005 0.000000 0.325215
O O5 0.623931 0.866641 0.567335
O O6 0.500000 0.000000 0.566136
O O7 0.585064 0.000000 0.500000
O O8 0.250000 0.250000 0.000000
O O9 0.369375 0.316883 0.042555
O O10 0.301156 0.500000 0.000000
O O11 0.111456 0.260934 0.791096
O O12 0.000000 0.166627 0.750575
O O13 0.102795 0.000000 0.767017
O O14 0.638912 0.382093 0.537957
O O15 0.500000 0.673834 0.078424
O O16 0.402881 0.500000 0.098981
O O17 0.391284 0.759214 0.124144
O O18 0.112620 0.500000 0.833948
O O19 0.000000 0.345777 0.832800
O O20 0.250000 0.750000 0.567836
#
# Coordination Sequence:
#
# PCOD9491319 Si02
#       8
#    16   8   8  16   4  16  16  16
#     4  10  22  38  57  84 116 146 185 235 283 331
#     4  11  25  43  58  85 126 155 181 235 299 342
#     4  10  21  35  51  75 109 148 186 226 274 334
#     4   9  18  35  58  80 106 145 186 225 274 337
#     4  12  20  36  63  90 109 146 200 242 276 330
#     4   9  17  32  55  79 104 139 185 233 277 325
#     4   9  17  30  51  82 112 136 175 232 284 332
#     4  11  23  38  63  89 115 152 200 241 281 346
#
# _framework density 17.658681000000001
#
# number of rings (size 3 to 8) (size 9 to 14) (size 15 to 20)
#    0.000    2.160    1.600    1.440    4.480    4.800 
#    0.000    1.600    0.000    2.400    0.000    0.000 
#    0.000    0.000    0.000    0.000    0.000    0.000 
#
# Total GULP energy -278424.612818 kJ/mol
# GULP energy per Si atom -5568.492256 kJ/mol
# Density = 1.761849 g / cm^3
# Si number density = 17.658681 Si / 1000 Ang^3
#
#
#
# Elastic Constant Matrix: (Units=GPa)
#
#
# Indices 1 2 3 4 5 6 
#
# 1 53.8981 59.5113 45.8758 0.0000 0.0000 0.0000
# 2 59.5113 163.4912 109.1752 0.0000 0.0000 0.0000
# 3 45.8758 109.1752 159.1113 0.0000 0.0000 0.0000
# 4 0.0000 0.0000 0.0000 31.8281 0.0000 0.0000
# 5 0.0000 0.0000 0.0000 0.0000 3.7193 0.0000
# 6 0.0000 0.0000 0.0000 0.0000 0.0000 24.4489
#
#
#
# Elastic Compliance Matrix: (Units=1/GPa)
#
#
# Indices 1 2 3 4 5 6 
#
# 1 0.031447 -0.009952 -0.002238 0.000000 0.000000 0.000000
# 2 -0.009952 0.014439 -0.007038 0.000000 0.000000 0.000000
# 3 -0.002238 -0.007038 0.011759 0.000000 0.000000 0.000000
# 4 0.000000 0.000000 0.000000 0.031419 0.000000 0.000000
# 5 0.000000 0.000000 0.000000 0.000000 0.268867 0.000000
# 6 0.000000 0.000000 0.000000 0.000000 0.000000 0.040902
#
#
# Mechanical properties :
#
#
# Convention : Reuss Voigt Hill
#
# Bulk Modulus (GPa) = 52.11366 89.51392 70.81379
# Shear Modulus (GPa) = 11.26924 22.79514 17.03219
#
# Velocity S-wave (km/s) = 2.52894 3.59677 3.10904
# Velocity P-wave (km/s) = 6.17277 8.24926 7.28537
#
# Compressibility (1/GPa) = 0.01918883
#
# Stress axis : x y z
#
# Youngs Moduli (GPa) = 31.79912 69.25740 85.03903
#
# Poissons Ratio (x) = 0.68927 0.19034
# Poissons Ratio (y) = 0.31647 0.59849
# Poissons Ratio (z) = 0.07117 0.48742
#
# Static dielectric constant tensor:
#      x y z
#    x 1.582170 0.000000 0.000000 
#    y 0.000000 1.604250 0.000000 
#    z 0.000000 0.000000 1.589080 
# 
# From -- ./inp_files/78298.got.cif
#   From: 2010.05.17/outbox.cif.g08.bks.cpg/sg65_40_cif.got.tgz:78298.got - 2010.06.03 17:01:31.
