data_PCOD9491707
_publ_section_title
;
Structure prediction by ZEFSAII (Michael W. Deem and Ramdas Pophale) SiO2 
 PCOD9491707
Probable space group: C M M M
;
_chemical_formula_sum "Si O2"
_cell_formula_units_Z 88
_cell_length_a 20.487451
_cell_length_b 10.584004
_cell_length_c 21.242612
_cell_angle_alpha 90.000000
_cell_angle_beta 90.000000
_cell_angle_gamma 90.000000
_cell_volume 4606.232337
_symmetry_space_group_name_H-M "C M M M"
_symmetry_group_IT_number 65
_symmetry_cell_setting 'orthorhombic'
loop_
_space_group_symop_operation_xyz
x,y,z
-x,-y,z
x,-y,-z
-x,y,-z
-x,-y,-z
x,y,-z
-x,y,z
x,-y,z
1/2+x,1/2+y,z
1/2-x,1/2-y,z
1/2+x,1/2-y,-z
1/2-x,1/2+y,-z
1/2-x,1/2-y,-z
1/2+x,1/2+y,-z
1/2-x,1/2+y,z
1/2+x,1/2-y,z
loop_
_atom_site_type_symbol
_atom_site_label
_atom_site_fract_x
_atom_site_fract_y
_atom_site_fract_z
Si Si1 0.750000 0.750000 0.321780
Si Si2 0.424852 0.854762 0.163948
Si Si3 0.379638 0.644571 0.261776
Si Si4 0.425009 0.641294 0.596382
Si Si5 0.328049 0.136420 0.568731
Si Si6 0.801794 0.643904 0.924642
O O1 0.693841 0.686702 0.280234
O O2 0.718633 0.848240 0.371363
O O3 0.500000 0.841917 0.142703
O O4 0.409234 0.748399 0.215393
O O5 0.371107 0.839553 0.109412
O O6 0.417532 0.000000 0.188370
O O7 0.380867 0.500000 0.237717
O O8 0.418283 0.646439 0.327849
O O9 0.500000 0.658994 0.578277
O O10 0.404064 0.500000 0.577360
O O11 0.378425 0.749362 0.571356
O O12 0.294754 0.138621 0.500000
O O13 0.361535 0.000000 0.573806
O O14 0.778933 0.500000 0.910966
O O15 0.750000 0.750000 0.903827
O O16 0.809433 0.654795 0.000000
#
# Coordination Sequence:
#
# PCOD9491707 Si02
#       6
#     8  16  16  16  16  16
#     4  10  21  38  56  78 105 142 182 224 278 344
#     4  10  22  38  57  85 119 154 192 236 286 338
#     4  10  21  36  56  80 108 143 185 232 279 333
#     4   9  19  36  55  75 103 141 181 219 268 332
#     4  10  21  36  55  79 105 134 173 224 278 331
#     4   9  19  37  60  86 117 155 197 239 282 331
#
# _framework density 19.10455
#
# number of rings (size 3 to 8) (size 9 to 14) (size 15 to 20)
#    0.000    2.364    0.000    1.364    1.273    7.636 
#    0.000    3.636    0.000    0.000    0.000    3.818 
#    0.000    0.000    0.000    0.000    0.000    0.000 
#
# Total GULP energy -245433.862473 kJ/mol
# GULP energy per Si atom -5578.042329 kJ/mol
# Density = 1.906107 g / cm^3
# Si number density = 19.104550 Si / 1000 Ang^3
#
#
#
# Elastic Constant Matrix: (Units=GPa)
#
#
# Indices 1 2 3 4 5 6 
#
# 1 107.2420 74.9056 30.5450 0.0000 0.0000 0.0000
# 2 74.9056 159.0926 48.9818 0.0000 0.0000 0.0000
# 3 30.5450 48.9818 43.9045 0.0000 0.0000 0.0000
# 4 0.0000 0.0000 0.0000 24.1689 0.0000 0.0000
# 5 0.0000 0.0000 0.0000 0.0000 -915.2794 0.0000
# 6 0.0000 0.0000 0.0000 0.0000 0.0000 14.7875
#
#
#
# Elastic Compliance Matrix: (Units=1/GPa)
#
#
# Indices 1 2 3 4 5 6 
#
# 1 0.014279 -0.005582 -0.003707 0.000000 0.000000 0.000000
# 2 -0.005582 0.011756 -0.009232 0.000000 0.000000 0.000000
# 3 -0.003707 -0.009232 0.035656 0.000000 0.000000 0.000000
# 4 0.000000 0.000000 0.000000 0.041375 0.000000 0.000000
# 5 0.000000 0.000000 0.000000 0.000000 -0.001093 0.000000
# 6 0.000000 0.000000 0.000000 0.000000 0.000000 0.067625
#
#
# Mechanical properties :
#
#
# Convention : Reuss Voigt Hill
#
# Bulk Modulus (GPa) = 40.56983 68.78933 54.67958
# Shear Modulus (GPa) = 23.27120 -164.87750 -70.80315
#
# Velocity S-wave (km/s) = 3.49391 -9.30000 -6.09437
# Velocity P-wave (km/s) = 6.12849 8.90141 4.56491
#
# Compressibility (1/GPa) = 0.02464886
#
# Stress axis : x y z
#
# Youngs Moduli (GPa) = 70.03155 85.06127 28.04592
#
# Poissons Ratio (x) = 0.47479 0.10397
# Poissons Ratio (y) = 0.39090 0.25893
# Poissons Ratio (z) = 0.25961 0.78532
#
# Static dielectric constant tensor:
#      x y z
#    x 1.654590 0.000000 0.000000 
#    y 0.000000 1.674040 0.000000 
#    z 0.000000 0.000000 1.659790 
# 
# From -- ./inp_files/70978.got.cif
#   From: 2010.05.17/outbox.cif.g08.bks.cpg/sg65_36_cif.got.tgz:70978.got - 2010.06.03 17:01:31.
