data_PCOD9491820
_publ_section_title
;
Structure prediction by ZEFSAII (Michael W. Deem and Ramdas Pophale) SiO2 
 PCOD9491820
Probable space group: C M M M
;
_chemical_formula_sum "Si O2"
_cell_formula_units_Z 80
_cell_length_a 17.259822
_cell_length_b 28.280293
_cell_length_c 8.371181
_cell_angle_alpha 90.000000
_cell_angle_beta 90.000000
_cell_angle_gamma 90.000000
_cell_volume 4086.080792
_symmetry_space_group_name_H-M "C M M M"
_symmetry_group_IT_number 65
_symmetry_cell_setting 'orthorhombic'
loop_
_space_group_symop_operation_xyz
x,y,z
-x,-y,z
x,-y,-z
-x,y,-z
-x,-y,-z
x,y,-z
-x,y,z
x,-y,z
1/2+x,1/2+y,z
1/2-x,1/2-y,z
1/2+x,1/2-y,-z
1/2-x,1/2+y,-z
1/2-x,1/2-y,-z
1/2+x,1/2+y,-z
1/2-x,1/2+y,z
1/2+x,1/2-y,z
loop_
_atom_site_type_symbol
_atom_site_label
_atom_site_fract_x
_atom_site_fract_y
_atom_site_fract_z
Si Si1 0.410736 0.500000 0.804607
Si Si2 0.909681 0.712533 0.307572
Si Si3 0.818409 0.906935 0.192958
Si Si4 0.000000 0.554620 0.191612
Si Si5 0.149107 0.387964 0.691422
Si Si6 0.589671 0.685408 0.807478
O O1 0.500000 0.500000 0.753252
O O2 0.366055 0.547173 0.752748
O O3 0.410944 0.500000 0.000000
O O4 0.908471 0.713339 0.500000
O O5 0.863533 0.666320 0.252572
O O6 0.881385 0.763201 0.246653
O O7 0.000000 0.707288 0.257346
O O8 0.729852 0.907882 0.246242
O O9 0.859360 0.858581 0.249697
O O10 0.820662 0.906688 0.000000
O O11 0.923882 0.581489 0.252343
O O12 0.000000 0.500000 0.244915
O O13 0.000000 0.555474 0.000000
O O14 0.149818 0.387671 0.500000
O O15 0.500000 0.680483 0.753301
O O16 0.589101 0.684515 0.000000
#
# Coordination Sequence:
#
# PCOD9491820 Si02
#       6
#     8  16  16   8  16  16
#     4   9  18  36  63  86 111 152 193 235 290 345
#     4   9  18  35  56  78 109 151 196 235 280 346
#     4  10  21  36  56  86 119 148 192 247 293 344
#     4  11  25  43  65  89 115 151 195 240 289 342
#     4  11  23  40  60  85 119 155 194 235 286 348
#     4   9  18  33  55  83 114 150 195 245 295 343
#
# _framework density 19.578664
#
# number of rings (size 3 to 8) (size 9 to 14) (size 15 to 20)
#    0.000    2.200    1.000    1.500    1.400    6.400 
#    0.000    4.000    0.000    2.400    0.000    0.000 
#    0.000    0.000    0.000    0.000    0.000    0.000 
#
# Total GULP energy -223386.538129 kJ/mol
# GULP energy per Si atom -5584.663453 kJ/mol
# Density = 1.953410 g / cm^3
# Si number density = 19.578664 Si / 1000 Ang^3
#
#
#
# Elastic Constant Matrix: (Units=GPa)
#
#
# Indices 1 2 3 4 5 6 
#
# 1 152.9343 109.8925 13.7563 0.0000 0.0000 0.0000
# 2 109.8925 192.7004 22.8292 0.0000 0.0000 0.0000
# 3 13.7563 22.8292 9.1883 0.0000 0.0000 0.0000
# 4 0.0000 0.0000 0.0000 58.2087 0.0000 0.0000
# 5 0.0000 0.0000 0.0000 0.0000 13.7748 0.0000
# 6 0.0000 0.0000 0.0000 0.0000 0.0000 13.0981
#
#
#
# Elastic Compliance Matrix: (Units=1/GPa)
#
#
# Indices 1 2 3 4 5 6 
#
# 1 0.011089 -0.006174 -0.001261 0.000000 0.000000 0.000000
# 2 -0.006174 0.010792 -0.017570 0.000000 0.000000 0.000000
# 3 -0.001261 -0.017570 0.154377 0.000000 0.000000 0.000000
# 4 0.000000 0.000000 0.000000 0.017180 0.000000 0.000000
# 5 0.000000 0.000000 0.000000 0.000000 0.072597 0.000000
# 6 0.000000 0.000000 0.000000 0.000000 0.000000 0.076347
#
#
# Mechanical properties :
#
#
# Convention : Reuss Voigt Hill
#
# Bulk Modulus (GPa) = 7.92098 71.97545 39.94821
# Shear Modulus (GPa) = 11.50819 30.90598 21.20709
#
# Velocity S-wave (km/s) = 2.42707 3.97741 3.29473
# Velocity P-wave (km/s) = 3.45091 7.61151 5.90948
#
# Compressibility (1/GPa) = 0.12624707
#
# Stress axis : x y z
#
# Youngs Moduli (GPa) = 90.18136 92.66175 6.47766
#
# Poissons Ratio (x) = 0.57212 0.00817
# Poissons Ratio (y) = 0.55680 0.11381
# Poissons Ratio (z) = 0.11372 1.62805
#
# Static dielectric constant tensor:
#      x y z
#    x 1.663140 0.000000 0.000000 
#    y 0.000000 1.684740 0.000000 
#    z 0.000000 0.000000 1.677170 
# 
# From -- ./inp_files/9685.got.cif
#   From: 2010.05.17/outbox.cif.g08.bks.cpg/sg65_5_cif.got.tgz:9685.got - 2010.06.03 17:01:31.
