data_PCOD9491313
_publ_section_title
;
Structure prediction by ZEFSAII (Michael W. Deem and Ramdas Pophale) SiO2 
 PCOD9491313
Probable space group: C M M M
;
_chemical_formula_sum "Si O2"
_cell_formula_units_Z 88
_cell_length_a 19.082530
_cell_length_b 8.065919
_cell_length_c 29.181038
_cell_angle_alpha 90.000000
_cell_angle_beta 90.000000
_cell_angle_gamma 90.000000
_cell_volume 4491.491130
_symmetry_space_group_name_H-M "C M M M"
_symmetry_group_IT_number 65
_symmetry_cell_setting 'orthorhombic'
loop_
_space_group_symop_operation_xyz
x,y,z
-x,-y,z
x,-y,-z
-x,y,-z
-x,-y,-z
x,y,-z
-x,y,z
x,-y,z
1/2+x,1/2+y,z
1/2-x,1/2-y,z
1/2+x,1/2-y,-z
1/2-x,1/2+y,-z
1/2-x,1/2-y,-z
1/2+x,1/2+y,-z
1/2-x,1/2+y,z
1/2+x,1/2-y,z
loop_
_atom_site_type_symbol
_atom_site_label
_atom_site_fract_x
_atom_site_fract_y
_atom_site_fract_z
Si Si1 0.669323 0.698173 0.725117
Si Si2 0.080437 0.300048 0.913245
Si Si3 0.330553 0.200381 0.000000
Si Si4 0.080528 0.800139 0.811548
Si Si5 0.670265 0.799760 0.448195
Si Si6 0.579655 0.800047 0.637152
O O1 0.666925 0.500000 0.726122
O O2 0.750000 0.750000 0.723024
O O3 0.630532 0.761413 0.771054
O O4 0.626345 0.755436 0.680815
O O5 0.079266 0.500000 0.914968
O O6 0.103949 0.249495 0.862454
O O7 0.000000 0.241668 0.919269
O O8 0.129359 0.240064 0.954383
O O9 0.250000 0.250000 0.000000
O O10 0.334395 0.000000 0.000000
O O11 0.000000 0.741136 0.805276
O O12 0.079170 0.000000 0.809616
O O13 0.654648 0.741012 0.500000
O O14 0.750000 0.750000 0.437093
O O15 0.617469 0.739300 0.409193
O O16 0.667245 0.000000 0.448727
O O17 0.500000 0.738267 0.641645
O O18 0.576965 0.000000 0.634468
#
# Coordination Sequence:
#
# PCOD9491313 Si02
#       6
#    16  16   8  16  16  16
#     4  11  23  38  56  78 107 142 178 218 266 317
#     4   9  18  34  56  78 101 134 174 213 253 301
#     4  10  21  35  51  75 107 138 170 210 256 304
#     4   9  19  36  56  78 104 134 170 213 261 312
#     4   9  18  33  53  77 106 140 176 215 261 312
#     4  10  21  36  55  80 108 139 178 222 265 313
#
# _framework density 19.592600999999998
#
# number of rings (size 3 to 8) (size 9 to 14) (size 15 to 20)
#    0.000    2.364    0.000    1.909    0.000    7.636 
#    0.000    7.273    0.000    2.727    0.000    3.818 
#    0.000    0.000    0.000    0.000    0.000    0.000 
#
# Total GULP energy -245650.370860 kJ/mol
# GULP energy per Si atom -5582.962974 kJ/mol
# Density = 1.954801 g / cm^3
# Si number density = 19.592601 Si / 1000 Ang^3
#
#
#
# Elastic Constant Matrix: (Units=GPa)
#
#
# Indices 1 2 3 4 5 6 
#
# 1 161.5801 10.2128 140.2196 0.0000 0.0000 0.0000
# 2 10.2128 13.3928 12.3723 0.0000 0.0000 0.0000
# 3 140.2196 12.3723 197.7509 0.0000 0.0000 0.0000
# 4 0.0000 0.0000 0.0000 39.5460 0.0000 0.0000
# 5 0.0000 0.0000 0.0000 0.0000 31.2165 0.0000
# 6 0.0000 0.0000 0.0000 0.0000 0.0000 20.6974
#
#
#
# Elastic Compliance Matrix: (Units=1/GPa)
#
#
# Indices 1 2 3 4 5 6 
#
# 1 0.016132 -0.001841 -0.011323 0.000000 0.000000 0.000000
# 2 -0.001841 0.079458 -0.003666 0.000000 0.000000 0.000000
# 3 -0.011323 -0.003666 0.013315 0.000000 0.000000 0.000000
# 4 0.000000 0.000000 0.000000 0.025287 0.000000 0.000000
# 5 0.000000 0.000000 0.000000 0.000000 0.032034 0.000000
# 6 0.000000 0.000000 0.000000 0.000000 0.000000 0.048315
#
#
# Mechanical properties :
#
#
# Convention : Reuss Voigt Hill
#
# Bulk Modulus (GPa) = 13.29006 77.59255 45.44131
# Shear Modulus (GPa) = 18.29608 32.28661 25.29135
#
# Velocity S-wave (km/s) = 3.05917 4.06383 3.59675
# Velocity P-wave (km/s) = 4.39044 7.85548 6.36336
#
# Compressibility (1/GPa) = 0.07524419
#
# Stress axis : x y z
#
# Youngs Moduli (GPa) = 61.98996 12.58534 75.10165
#
# Poissons Ratio (x) = 0.02317 0.85040
# Poissons Ratio (y) = 0.11411 0.27532
# Poissons Ratio (z) = 0.70193 0.04614
#
# Static dielectric constant tensor:
#      x y z
#    x 1.636780 0.000000 0.000000 
#    y 0.000000 1.701320 0.000000 
#    z 0.000000 0.000000 1.678650 
# 
# From -- ./inp_files/77795.got.cif
#   From: 2010.05.17/outbox.cif.g08.bks.cpg/sg65_39_cif.got.tgz:77795.got - 2010.06.03 17:01:31.
