data_PCOD9491737
_publ_section_title
;
Structure prediction by ZEFSAII (Michael W. Deem and Ramdas Pophale) SiO2 
 PCOD9491737
Probable space group: C M M M
;
_chemical_formula_sum "Si O2"
_cell_formula_units_Z 104
_cell_length_a 26.556719
_cell_length_b 8.783414
_cell_length_c 22.503933
_cell_angle_alpha 90.000000
_cell_angle_beta 90.000000
_cell_angle_gamma 90.000000
_cell_volume 5249.237199
_symmetry_space_group_name_H-M "C M M M"
_symmetry_group_IT_number 65
_symmetry_cell_setting 'orthorhombic'
loop_
_space_group_symop_operation_xyz
x,y,z
-x,-y,z
x,-y,-z
-x,y,-z
-x,-y,-z
x,y,-z
-x,y,z
x,-y,z
1/2+x,1/2+y,z
1/2-x,1/2-y,z
1/2+x,1/2-y,-z
1/2-x,1/2+y,-z
1/2-x,1/2-y,-z
1/2+x,1/2+y,-z
1/2-x,1/2+y,z
1/2+x,1/2-y,z
loop_
_atom_site_type_symbol
_atom_site_label
_atom_site_fract_x
_atom_site_fract_y
_atom_site_fract_z
Si Si1 0.695045 0.317734 0.570588
Si Si2 0.156373 0.184228 0.934440
Si Si3 0.500000 0.326521 0.429470
Si Si4 0.799970 0.179913 0.188097
Si Si5 0.443775 0.818117 0.882383
Si Si6 0.909155 0.818471 0.759826
Si Si7 0.595759 0.181569 0.631313
O O1 0.686873 0.285143 0.500000
O O2 0.695929 0.500000 0.578166
O O3 0.750000 0.250000 0.586436
O O4 0.648825 0.249515 0.608116
O O5 0.189609 0.239495 0.878886
O O6 0.100100 0.241921 0.920857
O O7 0.155877 0.000000 0.932542
O O8 0.172960 0.233175 0.000000
O O9 0.500000 0.500000 0.405359
O O10 0.500000 0.334633 0.500000
O O11 0.449759 0.241202 0.409135
O O12 0.750000 0.250000 0.214419
O O13 0.850348 0.207862 0.224746
O O14 0.793054 0.000000 0.184280
O O15 0.500000 0.785000 0.904560
O O16 0.438320 0.753813 0.815426
O O17 0.436613 0.000000 0.881493
O O18 0.918025 0.741190 0.697004
O O19 0.918270 0.000000 0.757674
O O20 0.598702 0.000000 0.630654
#
# Coordination Sequence:
#
# PCOD9491737 Si02
#       7
#    16  16   8  16  16  16  16
#     4  10  21  39  63  90 121 158 201 248 299 356
#     4   9  19  36  55  78 110 147 191 235 278 343
#     4  11  25  45  67  91 123 165 208 249 298 361
#     4   9  19  35  56  81 110 147 188 234 287 340
#     4  10  21  36  55  80 111 143 181 234 292 345
#     4  10  22  40  59  81 112 150 193 236 283 345
#     4  12  25  40  62  92 125 159 200 251 305 361
#
# _framework density 19.812403
#
# number of rings (size 3 to 8) (size 9 to 14) (size 15 to 20)
#    0.000    1.923    0.000    4.385    1.077    9.231 
#    0.000    3.077    0.000    0.000    0.000    0.000 
#    0.000    0.000    0.000    0.000    0.000    0.000 
#
# Total GULP energy -290479.840303 kJ/mol
# GULP energy per Si atom -5586.150775 kJ/mol
# Density = 1.976731 g / cm^3
# Si number density = 19.812403 Si / 1000 Ang^3
#
#
#
# Elastic Constant Matrix: (Units=GPa)
#
#
# Indices 1 2 3 4 5 6 
#
# 1 57.8207 9.1408 -15.8472 0.0000 0.0000 0.0000
# 2 9.1408 32.9966 11.3501 0.0000 0.0000 0.0000
# 3 -15.8472 11.3501 50.6874 0.0000 0.0000 0.0000
# 4 0.0000 0.0000 0.0000 16.5320 0.0000 0.0000
# 5 0.0000 0.0000 0.0000 0.0000 -9.8424 0.0000
# 6 0.0000 0.0000 0.0000 0.0000 0.0000 33.5797
#
#
#
# Elastic Compliance Matrix: (Units=1/GPa)
#
#
# Indices 1 2 3 4 5 6 
#
# 1 0.021018 -0.008757 0.008532 0.000000 0.000000 0.000000
# 2 -0.008757 0.036484 -0.010908 0.000000 0.000000 0.000000
# 3 0.008532 -0.010908 0.024839 0.000000 0.000000 0.000000
# 4 0.000000 0.000000 0.000000 0.060489 0.000000 0.000000
# 5 0.000000 0.000000 0.000000 0.000000 -0.101601 0.000000
# 6 0.000000 0.000000 0.000000 0.000000 0.000000 0.029780
#
#
# Mechanical properties :
#
#
# Convention : Reuss Voigt Hill
#
# Bulk Modulus (GPa) = 16.64587 16.75470 16.70029
# Shear Modulus (GPa) = 44.13116 17.17792 30.65454
#
# Velocity S-wave (km/s) = 4.72471 2.94773 3.93776
# Velocity P-wave (km/s) = 6.17930 4.47890 5.39649
#
# Compressibility (1/GPa) = 0.06007495
#
# Stress axis : x y z
#
# Youngs Moduli (GPa) = 47.57904 27.40922 40.25974
#
# Poissons Ratio (x) = 0.24003 -0.34350
# Poissons Ratio (y) = 0.41666 0.43913
# Poissons Ratio (z) = -0.40594 0.29897
#
# Static dielectric constant tensor:
#      x y z
#    x 1.624530 0.000000 0.000000 
#    y 0.000000 1.668700 0.000000 
#    z 0.000000 0.000000 1.701270 
# 
# From -- ./inp_files/65930.got.cif
#   From: 2010.05.17/outbox.cif.g08.bks.cpg/sg65_33_cif.got.tgz:65930.got - 2010.06.03 17:01:31.
