data_PCOD9491435
_publ_section_title
;
Structure prediction by ZEFSAII (Michael W. Deem and Ramdas Pophale) SiO2 
 PCOD9491435
Probable space group: C M M M
;
_chemical_formula_sum "Si O2"
_cell_formula_units_Z 116
_cell_length_a 28.992356
_cell_length_b 8.015521
_cell_length_c 24.040587
_cell_angle_alpha 90.000000
_cell_angle_beta 90.000000
_cell_angle_gamma 90.000000
_cell_volume 5586.764086
_symmetry_space_group_name_H-M "C M M M"
_symmetry_group_IT_number 65
_symmetry_cell_setting 'orthorhombic'
loop_
_space_group_symop_operation_xyz
x,y,z
-x,-y,z
x,-y,-z
-x,y,-z
-x,-y,-z
x,y,-z
-x,y,z
x,-y,z
1/2+x,1/2+y,z
1/2-x,1/2-y,z
1/2+x,1/2-y,-z
1/2-x,1/2+y,-z
1/2-x,1/2-y,-z
1/2+x,1/2+y,-z
1/2-x,1/2+y,z
1/2+x,1/2-y,z
loop_
_atom_site_type_symbol
_atom_site_label
_atom_site_fract_x
_atom_site_fract_y
_atom_site_fract_z
Si Si1 0.616634 0.802389 0.436547
Si Si2 0.867996 0.308704 0.740709
Si Si3 0.066234 0.813008 0.176856
Si Si4 0.000000 0.500000 0.797966
Si Si5 0.401127 0.798048 0.065157
Si Si6 0.052828 0.196253 0.342175
Si Si7 0.202180 0.300072 0.063547
Si Si8 0.302909 0.697212 0.354574
O O1 0.620833 0.743864 0.500000
O O2 0.574574 0.718736 0.403208
O O3 0.663430 0.772282 0.401711
O O4 0.607895 0.000000 0.436637
O O5 0.860934 0.500000 0.755877
O O6 0.883665 0.206224 0.794352
O O7 0.911282 0.288453 0.697980
O O8 0.824507 0.248273 0.704878
O O9 0.039048 0.650974 0.198897
O O10 0.067096 0.788879 0.110405
O O11 0.049856 0.000000 0.190567
O O12 0.348728 0.751009 0.082196
O O13 0.406164 0.000000 0.069969
O O14 0.408360 0.757318 0.000000
O O15 0.000000 0.256254 0.337659
O O16 0.053729 0.000000 0.328174
O O17 0.201589 0.500000 0.061265
O O18 0.250000 0.250000 0.092240
O O19 0.204299 0.233714 0.000000
O O20 0.306553 0.500000 0.359767
O O21 0.250000 0.750000 0.360199
#
# Coordination Sequence:
#
# PCOD9491435 Si02
#       8
#    16  16  16   4  16  16  16  16
#     4  10  21  37  56  82 118 160 207 258 310 366
#     4  11  22  40  63  90 124 158 197 253 312 367
#     4  12  25  43  67  95 124 159 207 253 312 378
#     4  12  26  48  65  96 124 162 199 262 318 362
#     4   9  18  37  61  85 121 166 207 253 312 371
#     4  10  21  35  55  85 116 154 202 252 310 373
#     4   8  14  25  46  76 110 147 187 233 282 338
#     4  11  22  39  63  91 122 162 207 253 308 367
#
# _framework density 20.763359999999999
#
# number of rings (size 3 to 8) (size 9 to 14) (size 15 to 20)
#    0.000    1.793    1.379    6.000    0.966    3.586 
#    0.000    4.138    0.000    2.483    0.000    0.000 
#    0.000    0.000    0.000    0.000    0.000    0.000 
#
# Total GULP energy -323075.631920 kJ/mol
# GULP energy per Si atom -5570.269516 kJ/mol
# Density = 2.071610 g / cm^3
# Si number density = 20.763360 Si / 1000 Ang^3
#
#
#
# Elastic Constant Matrix: (Units=GPa)
#
#
# Indices 1 2 3 4 5 6 
#
# 1 68.1078 1.3817 12.9245 0.0000 0.0000 0.0000
# 2 1.3817 94.4313 7.5279 0.0000 0.0000 0.0000
# 3 12.9245 7.5279 96.8558 0.0000 0.0000 0.0000
# 4 0.0000 0.0000 0.0000 60.6758 0.0000 0.0000
# 5 0.0000 0.0000 0.0000 0.0000 -21.7818 0.0000
# 6 0.0000 0.0000 0.0000 0.0000 0.0000 -36.6410
#
#
#
# Elastic Compliance Matrix: (Units=1/GPa)
#
#
# Indices 1 2 3 4 5 6 
#
# 1 0.015064 -0.000061 -0.002005 0.000000 0.000000 0.000000
# 2 -0.000061 0.010656 -0.000820 0.000000 0.000000 0.000000
# 3 -0.002005 -0.000820 0.010656 0.000000 0.000000 0.000000
# 4 0.000000 0.000000 0.000000 0.016481 0.000000 0.000000
# 5 0.000000 0.000000 0.000000 0.000000 -0.045910 0.000000
# 6 0.000000 0.000000 0.000000 0.000000 0.000000 -0.027292
#
#
# Mechanical properties :
#
#
# Convention : Reuss Voigt Hill
#
# Bulk Modulus (GPa) = 32.67545 33.67368 33.17457
# Shear Modulus (GPa) = -1144.01686 16.28798 -563.86444
#
# Velocity S-wave (km/s) = -23.49840 2.80386 -16.49717
# Velocity P-wave (km/s) = 26.84142 5.17061 18.62427
#
# Compressibility (1/GPa) = 0.03060401
#
# Stress axis : x y z
#
# Youngs Moduli (GPa) = 66.38162 93.84403 93.84398
#
# Poissons Ratio (x) = 0.00568 0.18820
# Poissons Ratio (y) = 0.00402 0.07696
# Poissons Ratio (z) = 0.13313 0.07696
#
# Static dielectric constant tensor:
#      x y z
#    x 1.629080 0.000000 0.000000 
#    y 0.000000 1.724420 0.000000 
#    z 0.000000 0.000000 1.762830 
# 
# From -- ./inp_files/71953.got.cif
#   From: 2010.05.17/outbox.cif.g08.bks.cpg/sg65_36_cif.got.tgz:71953.got - 2010.06.03 17:01:31.
