data_PCOD9491231
_publ_section_title
;
Structure prediction by ZEFSAII (Michael W. Deem and Ramdas Pophale) SiO2 
 PCOD9491231
Probable space group: C M M M
;
_chemical_formula_sum "Si O2"
_cell_formula_units_Z 64
_cell_length_a 7.557932
_cell_length_b 18.521958
_cell_length_c 23.117069
_cell_angle_alpha 90.000000
_cell_angle_beta 90.000000
_cell_angle_gamma 90.000000
_cell_volume 3236.105299
_symmetry_space_group_name_H-M "C M M M"
_symmetry_group_IT_number 65
_symmetry_cell_setting 'orthorhombic'
loop_
_space_group_symop_operation_xyz
x,y,z
-x,-y,z
x,-y,-z
-x,y,-z
-x,-y,-z
x,y,-z
-x,y,z
x,-y,z
1/2+x,1/2+y,z
1/2-x,1/2-y,z
1/2+x,1/2-y,-z
1/2-x,1/2+y,-z
1/2-x,1/2-y,-z
1/2+x,1/2+y,-z
1/2-x,1/2+y,z
1/2+x,1/2-y,z
loop_
_atom_site_type_symbol
_atom_site_label
_atom_site_fract_x
_atom_site_fract_y
_atom_site_fract_z
Si Si1 0.788900 0.664913 0.643724
Si Si2 0.711961 0.417717 0.112394
Si Si3 0.288629 0.917534 0.241007
Si Si4 0.000000 0.914807 0.569059
Si Si5 0.787583 0.165841 0.000000
O O1 0.750000 0.750000 0.641608
O O2 0.731574 0.632290 0.706012
O O3 0.671827 0.623366 0.596559
O O4 0.000000 0.653394 0.636135
O O5 0.500000 0.421192 0.106909
O O6 0.780536 0.500000 0.109775
O O7 0.748045 0.389230 0.176794
O O8 0.780307 0.371666 0.058586
O O9 0.500000 0.922015 0.245122
O O10 0.218126 0.000000 0.245686
O O11 0.000000 0.907001 0.500000
O O12 0.000000 0.000000 0.583335
O O13 0.750000 0.250000 0.000000
O O14 0.000000 0.156901 0.000000
#
# Coordination Sequence:
#
# PCOD9491231 Si02
#       5
#    16  16  16   8   8
#     4  11  23  42  65  97 134 172 212 262 320 377
#     4   9  18  33  54  77 102 143 192 241 293 353
#     4   9  19  35  57  85 117 152 196 249 304 363
#     4  11  26  46  70 100 131 170 220 264 310 378
#     4  10  21  35  49  71 105 140 186 236 296 356
#
# _framework density 19.776859000000002
#
# number of rings (size 3 to 8) (size 9 to 14) (size 15 to 20)
#    0.000    2.125    1.250    1.125    1.750    6.000 
#    0.000    6.250    0.000    3.750    0.000    0.000 
#    0.000    0.000    0.000    0.000    0.000    0.000 
#
# Total GULP energy -178656.123443 kJ/mol
# GULP energy per Si atom -5583.003858 kJ/mol
# Density = 1.973185 g / cm^3
# Si number density = 19.776859 Si / 1000 Ang^3
#
#
#
# Elastic Constant Matrix: (Units=GPa)
#
#
# Indices 1 2 3 4 5 6 
#
# 1 88.9499 33.2592 43.2481 0.0000 0.0000 0.0000
# 2 33.2592 127.8005 103.7314 0.0000 0.0000 0.0000
# 3 43.2481 103.7314 170.4257 0.0000 0.0000 0.0000
# 4 0.0000 0.0000 0.0000 -55.1448 0.0000 0.0000
# 5 0.0000 0.0000 0.0000 0.0000 37.4257 0.0000
# 6 0.0000 0.0000 0.0000 0.0000 0.0000 14.6047
#
#
#
# Elastic Compliance Matrix: (Units=1/GPa)
#
#
# Indices 1 2 3 4 5 6 
#
# 1 0.012948 -0.001389 -0.002440 0.000000 0.000000 0.000000
# 2 -0.001389 0.015614 -0.009151 0.000000 0.000000 0.000000
# 3 -0.002440 -0.009151 0.012057 0.000000 0.000000 0.000000
# 4 0.000000 0.000000 0.000000 -0.018134 0.000000 0.000000
# 5 0.000000 0.000000 0.000000 0.000000 0.026720 0.000000
# 6 0.000000 0.000000 0.000000 0.000000 0.000000 0.068471
#
#
# Mechanical properties :
#
#
# Convention : Reuss Voigt Hill
#
# Bulk Modulus (GPa) = 68.22177 83.07261 75.64719
# Shear Modulus (GPa) = 33.66506 13.17295 23.41900
#
# Velocity S-wave (km/s) = 4.13030 2.58365 3.44490
# Velocity P-wave (km/s) = 7.57077 7.14118 7.35911
#
# Compressibility (1/GPa) = 0.01465808
#
# Stress axis : x y z
#
# Youngs Moduli (GPa) = 77.23111 64.04629 82.94055
#
# Poissons Ratio (x) = 0.08895 0.20241
# Poissons Ratio (y) = 0.10726 0.75899
# Poissons Ratio (z) = 0.18848 0.58609
#
# Static dielectric constant tensor:
#      x y z
#    x 1.723680 0.000000 0.000000 
#    y 0.000000 1.674970 0.000000 
#    z 0.000000 0.000000 1.687320 
# 
# From -- ./inp_files/58819.got.cif
#   From: 2010.05.17/outbox.cif.g08.bks.cpg/sg65_30_cif.got.tgz:58819.got - 2010.06.03 17:01:31.
