data_PCOD9491272
_publ_section_title
;
Structure prediction by ZEFSAII (Michael W. Deem and Ramdas Pophale) SiO2 
 PCOD9491272
Probable space group: C M M M
;
_chemical_formula_sum "Si O2"
_cell_formula_units_Z 64
_cell_length_a 14.478888
_cell_length_b 9.991151
_cell_length_c 21.139784
_cell_angle_alpha 90.000000
_cell_angle_beta 90.000000
_cell_angle_gamma 90.000000
_cell_volume 3058.097142
_symmetry_space_group_name_H-M "C M M M"
_symmetry_group_IT_number 65
_symmetry_cell_setting 'orthorhombic'
loop_
_space_group_symop_operation_xyz
x,y,z
-x,-y,z
x,-y,-z
-x,y,-z
-x,-y,-z
x,y,-z
-x,y,z
x,-y,z
1/2+x,1/2+y,z
1/2-x,1/2-y,z
1/2+x,1/2-y,-z
1/2-x,1/2+y,-z
1/2-x,1/2-y,-z
1/2+x,1/2+y,-z
1/2-x,1/2+y,z
1/2+x,1/2-y,z
loop_
_atom_site_type_symbol
_atom_site_label
_atom_site_fract_x
_atom_site_fract_y
_atom_site_fract_z
Si Si1 0.607748 0.851525 0.358822
Si Si2 0.894292 0.337585 0.000000
Si Si3 0.113104 0.345742 0.138645
Si Si4 0.663430 0.155183 0.500000
Si Si5 0.387029 0.347683 0.747182
O O1 0.500000 0.862074 0.341766
O O2 0.612459 0.822916 0.433583
O O3 0.643791 0.731815 0.315587
O O4 0.649075 0.000000 0.347325
O O5 0.854706 0.302019 0.068516
O O6 0.897480 0.500000 0.000000
O O7 0.000000 0.287538 0.000000
O O8 0.141297 0.500000 0.151236
O O9 0.139981 0.242640 0.192909
O O10 0.000000 0.347865 0.136838
O O11 0.750000 0.250000 0.500000
O O12 0.691349 0.000000 0.500000
O O13 0.500000 0.353746 0.747128
O O14 0.353630 0.500000 0.750015
#
# Coordination Sequence:
#
# PCOD9491272 Si02
#       5
#    16   8  16   8  16
#     4   9  17  31  50  68  86 113 150 185 214 252
#     4   7  10  16  27  43  63  93 136 177 208 245
#     4   8  12  19  31  46  67  99 138 176 212 252
#     4  10  21  35  51  71  93 116 142 176 220 266
#     4   9  16  24  35  55  81 106 136 177 221 259
#
# _framework density 20.928046999999999
#
# number of rings (size 3 to 8) (size 9 to 14) (size 15 to 20)
#    0.000    3.375    0.000    2.625    0.000    5.500 
#    0.000    0.625    0.000    7.500    0.000    0.000 
#    0.000    0.000    0.000    1.125    0.000   14.500 
#
# Total GULP energy -178346.711280 kJ/mol
# GULP energy per Si atom -5573.334727 kJ/mol
# Density = 2.088041 g / cm^3
# Si number density = 20.928047 Si / 1000 Ang^3
#
#
#
# Elastic Constant Matrix: (Units=GPa)
#
#
# Indices 1 2 3 4 5 6 
#
# 1 46.0661 16.5812 -3.6435 0.0000 0.0000 0.0000
# 2 16.5812 153.4725 131.0350 0.0000 0.0000 0.0000
# 3 -3.6435 131.0350 182.0920 0.0000 0.0000 0.0000
# 4 0.0000 0.0000 0.0000 -39.8173 0.0000 0.0000
# 5 0.0000 0.0000 0.0000 0.0000 -27.9464 0.0000
# 6 0.0000 0.0000 0.0000 0.0000 0.0000 5.6853
#
#
#
# Elastic Compliance Matrix: (Units=1/GPa)
#
#
# Indices 1 2 3 4 5 6 
#
# 1 0.025150 -0.008161 0.006376 0.000000 0.000000 0.000000
# 2 -0.008161 0.019546 -0.014229 0.000000 0.000000 0.000000
# 3 0.006376 -0.014229 0.015859 0.000000 0.000000 0.000000
# 4 0.000000 0.000000 0.000000 -0.025115 0.000000 0.000000
# 5 0.000000 0.000000 0.000000 0.000000 -0.035783 0.000000
# 6 0.000000 0.000000 0.000000 0.000000 0.000000 0.175891
#
#
# Mechanical properties :
#
#
# Convention : Reuss Voigt Hill
#
# Bulk Modulus (GPa) = 35.05508 74.39734 54.72621
# Shear Modulus (GPa) = 23.03249 3.42820 13.23034
#
# Velocity S-wave (km/s) = 3.32106 1.28127 2.51705
# Velocity P-wave (km/s) = 5.61183 6.14940 5.88675
#
# Compressibility (1/GPa) = 0.02852654
#
# Stress axis : x y z
#
# Youngs Moduli (GPa) = 39.76196 51.16098 63.05760
#
# Poissons Ratio (x) = 0.41752 -0.40205
# Poissons Ratio (y) = 0.32449 0.89724
# Poissons Ratio (z) = -0.25352 0.72796
#
# Static dielectric constant tensor:
#      x y z
#    x 1.734690 0.000000 0.000000 
#    y 0.000000 1.719530 0.000000 
#    z 0.000000 0.000000 1.787370 
# 
# From -- ./inp_files/64242.got.cif
#   From: 2010.05.17/outbox.cif.g08.bks.cpg/sg65_33_cif.got.tgz:64242.got - 2010.06.03 17:01:31.
