data_PCOD9491593
_publ_section_title
;
Structure prediction by ZEFSAII (Michael W. Deem and Ramdas Pophale) SiO2 
 PCOD9491593
Probable space group: C M M M
;
_chemical_formula_sum "Si O2"
_cell_formula_units_Z 104
_cell_length_a 18.415980
_cell_length_b 22.382978
_cell_length_c 13.322884
_cell_angle_alpha 90.000000
_cell_angle_beta 90.000000
_cell_angle_gamma 90.000000
_cell_volume 5491.752407
_symmetry_space_group_name_H-M "C M M M"
_symmetry_group_IT_number 65
_symmetry_cell_setting 'orthorhombic'
loop_
_space_group_symop_operation_xyz
x,y,z
-x,-y,z
x,-y,-z
-x,y,-z
-x,-y,-z
x,y,-z
-x,y,z
x,-y,z
1/2+x,1/2+y,z
1/2-x,1/2-y,z
1/2+x,1/2-y,-z
1/2-x,1/2+y,-z
1/2-x,1/2-y,-z
1/2+x,1/2+y,-z
1/2-x,1/2+y,z
1/2+x,1/2-y,z
loop_
_atom_site_type_symbol
_atom_site_label
_atom_site_fract_x
_atom_site_fract_y
_atom_site_fract_z
Si Si1 0.083245 0.138334 0.797911
Si Si2 0.584646 0.069427 0.299029
Si Si3 0.413304 0.565659 0.000000
Si Si4 0.806927 0.432611 0.882357
Si Si5 0.291944 0.146425 0.611680
Si Si6 0.732663 0.688662 0.189576
Si Si7 0.644338 0.570706 0.612622
O O1 0.146580 0.186836 0.791883
O O2 0.095077 0.097569 0.699996
O O3 0.000000 0.158956 0.803876
O O4 0.101327 0.100989 0.898332
O O5 0.500000 0.085712 0.296098
O O6 0.623163 0.073166 0.189802
O O7 0.633657 0.111005 0.369321
O O8 0.590104 0.000000 0.331046
O O9 0.378780 0.500000 0.000000
O O10 0.500000 0.558901 0.000000
O O11 0.776033 0.500000 0.860523
O O12 0.757396 0.374789 0.858232
O O13 0.824467 0.431194 0.000000
O O14 0.290508 0.172756 0.500000
O O15 0.276676 0.189289 0.705192
O O16 0.224551 0.099648 0.619675
O O17 0.750000 0.750000 0.132841
O O18 0.616754 0.583844 0.500000
O O19 0.650064 0.500000 0.624258
#
# Coordination Sequence:
#
# PCOD9491593 Si02
#       7
#    16  16   8  16  16  16  16
#     4  10  21  36  53  76 109 146 183 229 279 330
#     4   9  17  29  48  77 112 146 184 235 290 338
#     4   9  18  32  51  78 112 148 179 212 266 331
#     4   9  19  36  57  81 109 145 186 229 279 337
#     4   9  18  33  52  74 105 145 188 231 278 335
#     4  10  22  39  58  83 109 145 187 235 276 331
#     4   9  17  30  51  79 111 147 185 226 275 334
#
# _framework density 18.937488999999999
#
# number of rings (size 3 to 8) (size 9 to 14) (size 15 to 20)
#    0.000    2.692    0.000    0.923    1.077    7.692 
#    0.000    6.154    0.000    0.000    0.000    0.000 
#    0.000    0.000    0.000    0.000    0.000    0.000 
#
# Total GULP energy -289734.839568 kJ/mol
# GULP energy per Si atom -5571.823838 kJ/mol
# Density = 1.889439 g / cm^3
# Si number density = 18.937489 Si / 1000 Ang^3
#
#
#
# Elastic Constant Matrix: (Units=GPa)
#
#
# Indices 1 2 3 4 5 6 
#
# 1 104.4733 28.6612 9.6205 0.0000 0.0000 0.0000
# 2 28.6612 76.9307 16.4985 0.0000 0.0000 0.0000
# 3 9.6205 16.4985 87.6999 0.0000 0.0000 0.0000
# 4 0.0000 0.0000 0.0000 1.1469 0.0000 0.0000
# 5 0.0000 0.0000 0.0000 0.0000 20.6386 0.0000
# 6 0.0000 0.0000 0.0000 0.0000 0.0000 13.0028
#
#
#
# Elastic Compliance Matrix: (Units=1/GPa)
#
#
# Indices 1 2 3 4 5 6 
#
# 1 0.010678 -0.003884 -0.000441 0.000000 0.000000 0.000000
# 2 -0.003884 0.014958 -0.002388 0.000000 0.000000 0.000000
# 3 -0.000441 -0.002388 0.011900 0.000000 0.000000 0.000000
# 4 0.000000 0.000000 0.000000 0.871912 0.000000 0.000000
# 5 0.000000 0.000000 0.000000 0.000000 0.048453 0.000000
# 6 0.000000 0.000000 0.000000 0.000000 0.000000 0.076907
#
#
# Mechanical properties :
#
#
# Convention : Reuss Voigt Hill
#
# Bulk Modulus (GPa) = 41.47455 42.07380 41.77418
# Shear Modulus (GPa) = 4.73364 21.24589 12.98977
#
# Velocity S-wave (km/s) = 1.58273 3.35311 2.62187
# Velocity P-wave (km/s) = 5.02875 6.10381 5.59218
#
# Compressibility (1/GPa) = 0.02411117
#
# Stress axis : x y z
#
# Youngs Moduli (GPa) = 93.65187 66.85522 84.03300
#
# Poissons Ratio (x) = 0.25964 0.03704
# Poissons Ratio (y) = 0.36371 0.20066
# Poissons Ratio (z) = 0.04128 0.15964
#
# Static dielectric constant tensor:
#      x y z
#    x 1.637020 0.000000 0.000000 
#    y 0.000000 1.683790 0.000000 
#    z 0.000000 0.000000 1.691850 
# 
# From -- ./inp_files/43097.got.cif
#   From: 2010.05.17/outbox.cif.g08.bks.cpg/sg65_22_cif.got.tgz:43097.got - 2010.06.03 17:01:31.
