data_PCOD9491930
_publ_section_title
;
Structure prediction by ZEFSAII (Michael W. Deem and Ramdas Pophale) SiO2 
 PCOD9491930
Probable space group: C M M M
;
_chemical_formula_sum "Si O2"
_cell_formula_units_Z 88
_cell_length_a 8.404302
_cell_length_b 22.872678
_cell_length_c 24.660577
_cell_angle_alpha 90.000000
_cell_angle_beta 90.000000
_cell_angle_gamma 90.000000
_cell_volume 4740.475429
_symmetry_space_group_name_H-M "C M M M"
_symmetry_group_IT_number 65
_symmetry_cell_setting 'orthorhombic'
loop_
_space_group_symop_operation_xyz
x,y,z
-x,-y,z
x,-y,-z
-x,y,-z
-x,-y,-z
x,y,-z
-x,y,z
x,-y,z
1/2+x,1/2+y,z
1/2-x,1/2-y,z
1/2+x,1/2-y,-z
1/2-x,1/2+y,-z
1/2-x,1/2-y,-z
1/2+x,1/2+y,-z
1/2-x,1/2+y,z
1/2+x,1/2-y,z
loop_
_atom_site_type_symbol
_atom_site_label
_atom_site_fract_x
_atom_site_fract_y
_atom_site_fract_z
Si Si1 0.811084 0.500000 0.438473
Si Si2 0.189362 0.432882 0.876470
Si Si3 0.309750 0.184505 0.441086
Si Si4 0.807883 0.314115 0.063483
Si Si5 0.684070 0.569456 0.242779
Si Si6 0.313274 0.400488 0.359257
O O1 0.744550 0.500000 0.500000
O O2 0.761287 0.554232 0.401455
O O3 0.000000 0.500000 0.443179
O O4 0.250713 0.500000 0.888784
O O5 0.248879 0.374759 0.908132
O O6 0.223110 0.421777 0.812959
O O7 0.000000 0.435403 0.885946
O O8 0.272808 0.155352 0.500000
O O9 0.500000 0.180842 0.434205
O O10 0.250000 0.250000 0.445641
O O11 0.220146 0.159137 0.389659
O O12 0.750000 0.250000 0.084074
O O13 0.000000 0.313600 0.067138
O O14 0.762350 0.317319 0.000000
O O15 0.500000 0.587857 0.234253
O O16 0.683775 0.500000 0.253594
O O17 0.750397 0.597259 0.297974
O O18 0.500000 0.413765 0.354820
#
# Coordination Sequence:
#
# PCOD9491930 Si02
#       6
#     8  16  16  16  16  16
#     4  11  23  35  49  75 107 135 166 209 260 313
#     4   9  18  32  52  79 106 137 180 223 266 316
#     4  10  21  37  55  75  99 129 167 211 261 316
#     4   9  18  33  53  78 110 145 179 218 265 318
#     4   9  18  34  52  73 103 137 172 211 259 310
#     4  11  21  35  54  76 102 134 171 211 259 315
#
# _framework density 18.563538999999999
#
# number of rings (size 3 to 8) (size 9 to 14) (size 15 to 20)
#    0.000    2.273    0.909    1.909    0.000    6.545 
#    0.000    2.727    0.000    2.182    0.000    5.091 
#    0.000    0.000    0.000    0.000    0.000    0.000 
#
# Total GULP energy -244982.165169 kJ/mol
# GULP energy per Si atom -5567.776481 kJ/mol
# Density = 1.852129 g / cm^3
# Si number density = 18.563539 Si / 1000 Ang^3
#
#
#
# Elastic Constant Matrix: (Units=GPa)
#
#
# Indices 1 2 3 4 5 6 
#
# 1 16.0664 5.4763 7.4634 0.0000 0.0000 0.0000
# 2 5.4763 116.4428 68.1639 0.0000 0.0000 0.0000
# 3 7.4634 68.1639 96.8511 0.0000 0.0000 0.0000
# 4 0.0000 0.0000 0.0000 16.4444 0.0000 0.0000
# 5 0.0000 0.0000 0.0000 0.0000 22.0434 0.0000
# 6 0.0000 0.0000 0.0000 0.0000 0.0000 23.0934
#
#
#
# Elastic Compliance Matrix: (Units=1/GPa)
#
#
# Indices 1 2 3 4 5 6 
#
# 1 0.064556 -0.000211 -0.004826 0.000000 0.000000 0.000000
# 2 -0.000211 0.014606 -0.010263 0.000000 0.000000 0.000000
# 3 -0.004826 -0.010263 0.017920 0.000000 0.000000 0.000000
# 4 0.000000 0.000000 0.000000 0.060811 0.000000 0.000000
# 5 0.000000 0.000000 0.000000 0.000000 0.045365 0.000000
# 6 0.000000 0.000000 0.000000 0.000000 0.000000 0.043302
#
#
# Mechanical properties :
#
#
# Convention : Reuss Voigt Hill
#
# Bulk Modulus (GPa) = 15.04192 43.50749 29.27471
# Shear Modulus (GPa) = 16.70445 22.20003 19.45224
#
# Velocity S-wave (km/s) = 3.00301 3.46192 3.24060
# Velocity P-wave (km/s) = 4.48828 6.28234 5.45951
#
# Compressibility (1/GPa) = 0.06648086
#
# Stress axis : x y z
#
# Youngs Moduli (GPa) = 15.49053 68.46582 55.80230
#
# Poissons Ratio (x) = 0.01443 0.26932
# Poissons Ratio (y) = 0.00326 0.57272
# Poissons Ratio (z) = 0.07476 0.70269
#
# Static dielectric constant tensor:
#      x y z
#    x 1.656960 0.000000 0.000000 
#    y 0.000000 1.687870 0.000000 
#    z 0.000000 0.000000 1.643920 
# 
# From -- ./inp_files/59799.got.cif
#   From: 2010.05.17/outbox.cif.g08.bks.cpg/sg65_30_cif.got.tgz:59799.got - 2010.06.03 17:01:31.
