data_PCOD9491578
_publ_section_title
;
Structure prediction by ZEFSAII (Michael W. Deem and Ramdas Pophale) SiO2 
 PCOD9491578
Probable space group: C M M M
;
_chemical_formula_sum "Si O2"
_cell_formula_units_Z 96
_cell_length_a 20.385138
_cell_length_b 29.537965
_cell_length_c 9.044021
_cell_angle_alpha 90.000000
_cell_angle_beta 90.000000
_cell_angle_gamma 90.000000
_cell_volume 5445.726041
_symmetry_space_group_name_H-M "C M M M"
_symmetry_group_IT_number 65
_symmetry_cell_setting 'orthorhombic'
loop_
_space_group_symop_operation_xyz
x,y,z
-x,-y,z
x,-y,-z
-x,y,-z
-x,-y,-z
x,y,-z
-x,y,z
x,-y,z
1/2+x,1/2+y,z
1/2-x,1/2-y,z
1/2+x,1/2-y,-z
1/2-x,1/2+y,-z
1/2-x,1/2-y,-z
1/2+x,1/2+y,-z
1/2-x,1/2+y,z
1/2+x,1/2-y,z
loop_
_atom_site_type_symbol
_atom_site_label
_atom_site_fract_x
_atom_site_fract_y
_atom_site_fract_z
Si Si1 0.291787 0.704262 0.823478
Si Si2 0.571650 0.839000 0.678944
Si Si3 0.704961 0.445650 0.170825
Si Si4 0.925356 0.231879 0.677656
Si Si5 0.709156 0.124102 0.677271
Si Si6 0.427260 0.444884 0.328439
O O1 0.250000 0.750000 0.790885
O O2 0.365308 0.708544 0.760351
O O3 0.254432 0.663176 0.745857
O O4 0.293158 0.698369 0.000000
O O5 0.570448 0.841855 0.500000
O O6 0.500000 0.853879 0.733892
O O7 0.579445 0.785659 0.712286
O O8 0.634836 0.866534 0.729246
O O9 0.707028 0.500000 0.182092
O O10 0.761159 0.422756 0.266903
O O11 0.634005 0.430007 0.231524
O O12 0.712091 0.432834 0.000000
O O13 0.917869 0.226787 0.500000
O O14 0.000000 0.217328 0.715487
O O15 0.711278 0.126722 0.500000
O O16 0.418039 0.431631 0.500000
O O17 0.500000 0.429865 0.280274
O O18 0.427821 0.500000 0.325262
#
# Coordination Sequence:
#
# PCOD9491578 Si02
#       6
#    16  16  16  16  16  16
#     4  11  22  34  50  76 112 145 172 210 257 313
#     4   8  15  29  51  79 105 130 167 216 264 308
#     4  10  21  36  53  75 107 142 175 217 268 320
#     4   9  17  32  54  77 104 140 181 221 260 307
#     4  11  21  34  57  81 104 137 178 222 263 312
#     4   8  14  27  49  75 100 127 165 212 256 303
#
# _framework density 17.628504
#
# number of rings (size 3 to 8) (size 9 to 14) (size 15 to 20)
#    0.000    2.500    1.667    3.000    0.000    2.333 
#    0.000    2.500    0.000    7.500    0.000    3.500 
#    0.000    0.000    0.000    0.000    0.000    0.000 
#
# Total GULP energy -267673.749813 kJ/mol
# GULP energy per Si atom -5576.536454 kJ/mol
# Density = 1.758838 g / cm^3
# Si number density = 17.628504 Si / 1000 Ang^3
#
#
#
# Elastic Constant Matrix: (Units=GPa)
#
#
# Indices 1 2 3 4 5 6 
#
# 1 161.7703 29.0020 49.0418 0.0000 0.0000 0.0000
# 2 29.0020 19.4726 20.5861 0.0000 0.0000 0.0000
# 3 49.0418 20.5861 53.8085 0.0000 0.0000 0.0000
# 4 0.0000 0.0000 0.0000 22.3702 0.0000 0.0000
# 5 0.0000 0.0000 0.0000 0.0000 6.0516 0.0000
# 6 0.0000 0.0000 0.0000 0.0000 0.0000 21.8344
#
#
#
# Elastic Compliance Matrix: (Units=1/GPa)
#
#
# Indices 1 2 3 4 5 6 
#
# 1 0.009257 -0.008173 -0.005310 0.000000 0.000000 0.000000
# 2 -0.008173 0.093448 -0.028302 0.000000 0.000000 0.000000
# 3 -0.005310 -0.028302 0.034252 0.000000 0.000000 0.000000
# 4 0.000000 0.000000 0.000000 0.044702 0.000000 0.000000
# 5 0.000000 0.000000 0.000000 0.000000 0.165244 0.000000
# 6 0.000000 0.000000 0.000000 0.000000 0.000000 0.045799
#
#
# Mechanical properties :
#
#
# Convention : Reuss Voigt Hill
#
# Bulk Modulus (GPa) = 18.73151 48.03457 33.38304
# Shear Modulus (GPa) = 10.12006 19.14600 14.63303
#
# Velocity S-wave (km/s) = 2.39858 3.29915 2.88423
# Velocity P-wave (km/s) = 4.28015 6.46683 5.48359
#
# Compressibility (1/GPa) = 0.05338598
#
# Stress axis : x y z
#
# Youngs Moduli (GPa) = 108.03171 10.70112 29.19563
#
# Poissons Ratio (x) = 0.08746 0.15502
# Poissons Ratio (y) = 0.88296 0.82631
# Poissons Ratio (z) = 0.57361 0.30287
#
# Static dielectric constant tensor:
#      x y z
#    x 1.612800 0.000000 0.000000 
#    y 0.000000 1.614070 0.000000 
#    z 0.000000 0.000000 1.581050 
# 
# From -- ./inp_files/12318.got.cif
#   From: 2010.05.17/outbox.cif.g08.bks.cpg/sg65_7_cif.got.tgz:12318.got - 2010.06.03 17:01:31.
