data_PCOD9491703
_publ_section_title
;
Structure prediction by ZEFSAII (Michael W. Deem and Ramdas Pophale) SiO2 
 PCOD9491703
Probable space group: C M M M
;
_chemical_formula_sum "Si O2"
_cell_formula_units_Z 104
_cell_length_a 21.751148
_cell_length_b 9.742356
_cell_length_c 27.046483
_cell_angle_alpha 90.000000
_cell_angle_beta 90.000000
_cell_angle_gamma 90.000000
_cell_volume 5731.350628
_symmetry_space_group_name_H-M "C M M M"
_symmetry_group_IT_number 65
_symmetry_cell_setting 'orthorhombic'
loop_
_space_group_symop_operation_xyz
x,y,z
-x,-y,z
x,-y,-z
-x,y,-z
-x,-y,-z
x,y,-z
-x,y,z
x,-y,z
1/2+x,1/2+y,z
1/2-x,1/2-y,z
1/2+x,1/2-y,-z
1/2-x,1/2+y,-z
1/2-x,1/2-y,-z
1/2+x,1/2+y,-z
1/2-x,1/2+y,z
1/2+x,1/2-y,z
loop_
_atom_site_type_symbol
_atom_site_label
_atom_site_fract_x
_atom_site_fract_y
_atom_site_fract_z
Si Si1 0.189936 0.161526 0.165752
Si Si2 0.426141 0.843460 0.000000
Si Si3 0.500000 0.837279 0.392320
Si Si4 0.500000 0.161667 0.273192
Si Si5 0.384818 0.659366 0.260732
Si Si6 0.927865 0.163634 0.903506
Si Si7 0.606453 0.339104 0.441628
Si Si8 0.806508 0.843074 0.355765
O O1 0.250000 0.250000 0.152454
O O2 0.170795 0.183858 0.222847
O O3 0.126221 0.190382 0.136132
O O4 0.203732 0.000000 0.158674
O O5 0.411713 0.755470 0.951189
O O6 0.500000 0.854079 0.000000
O O7 0.401463 0.000000 0.000000
O O8 0.500000 0.818736 0.332963
O O9 0.442438 0.762362 0.417468
O O10 0.500000 0.000000 0.401994
O O11 0.559682 0.237550 0.252214
O O12 0.500000 0.000000 0.263055
O O13 0.404485 0.500000 0.253982
O O14 0.360994 0.676916 0.316498
O O15 0.000000 0.192378 0.889012
O O16 0.925978 0.000000 0.914927
O O17 0.612194 0.316933 0.500000
O O18 0.588323 0.500000 0.433944
O O19 0.668537 0.318154 0.410730
O O20 0.750000 0.750000 0.342878
O O21 0.787042 0.000000 0.351629
#
# Coordination Sequence:
#
# PCOD9491703 Si02
#       8
#    16   8   8   8  16  16  16  16
#     4  10  22  38  59  86 117 155 194 238 289 344
#     4   9  17  31  54  85 118 153 193 241 294 339
#     4  11  22  36  55  82 110 134 167 215 271 324
#     4  11  23  36  56  87 114 139 177 232 283 328
#     4  10  21  38  60  82 109 148 188 225 275 338
#     4   9  18  34  57  85 116 153 197 241 285 338
#     4  10  21  37  56  78 105 139 176 213 262 328
#     4  10  21  36  55  78 103 139 181 222 268 320
#
# _framework density 18.145810000000001
#
# number of rings (size 3 to 8) (size 9 to 14) (size 15 to 20)
#    0.000    2.077    1.538    1.385    1.077    5.538 
#    0.000    0.385    0.000    0.000    0.000    0.000 
#    0.000    0.000    0.000    0.000    0.000    0.000 
#
# Total GULP energy -289954.698223 kJ/mol
# GULP energy per Si atom -5576.051889 kJ/mol
# Density = 1.810451 g / cm^3
# Si number density = 18.145810 Si / 1000 Ang^3
#
#
#
# Elastic Constant Matrix: (Units=GPa)
#
#
# Indices 1 2 3 4 5 6 
#
# 1 90.7788 67.5592 24.6182 0.0000 0.0000 0.0000
# 2 67.5592 72.0590 31.2026 0.0000 0.0000 0.0000
# 3 24.6182 31.2026 66.0170 0.0000 0.0000 0.0000
# 4 0.0000 0.0000 0.0000 19.7091 0.0000 0.0000
# 5 0.0000 0.0000 0.0000 0.0000 6.7740 0.0000
# 6 0.0000 0.0000 0.0000 0.0000 0.0000 27.2092
#
#
#
# Elastic Compliance Matrix: (Units=1/GPa)
#
#
# Indices 1 2 3 4 5 6 
#
# 1 0.036997 -0.036101 0.003267 0.000000 0.000000 0.000000
# 2 -0.036101 0.052676 -0.011434 0.000000 0.000000 0.000000
# 3 0.003267 -0.011434 0.019334 0.000000 0.000000 0.000000
# 4 0.000000 0.000000 0.000000 0.050738 0.000000 0.000000
# 5 0.000000 0.000000 0.000000 0.000000 0.147623 0.000000
# 6 0.000000 0.000000 0.000000 0.000000 0.000000 0.036752
#
#
# Mechanical properties :
#
#
# Convention : Reuss Voigt Hill
#
# Bulk Modulus (GPa) = 48.85574 52.84610 50.85092
# Shear Modulus (GPa) = 11.37704 17.77012 14.57358
#
# Velocity S-wave (km/s) = 2.50667 3.13277 2.83704
# Velocity P-wave (km/s) = 5.94645 6.50168 6.23026
#
# Compressibility (1/GPa) = 0.02046843
#
# Stress axis : x y z
#
# Youngs Moduli (GPa) = 27.02910 18.98407 51.72256
#
# Poissons Ratio (x) = 0.68535 -0.16896
# Poissons Ratio (y) = 0.97579 0.59142
# Poissons Ratio (z) = -0.08829 0.21707
#
# Static dielectric constant tensor:
#      x y z
#    x 1.589880 0.000000 0.000000 
#    y 0.000000 1.609630 0.000000 
#    z 0.000000 0.000000 1.632590 
# 
# From -- ./inp_files/78295.got.cif
#   From: 2010.05.17/outbox.cif.g08.bks.cpg/sg65_40_cif.got.tgz:78295.got - 2010.06.03 17:01:31.
