data_PCOD9491864
_publ_section_title
;
Structure prediction by ZEFSAII (Michael W. Deem and Ramdas Pophale) SiO2 
 PCOD9491864
Probable space group: C M M M
;
_chemical_formula_sum "Si O2"
_cell_formula_units_Z 84
_cell_length_a 10.908825
_cell_length_b 24.824554
_cell_length_c 17.123271
_cell_angle_alpha 90.000000
_cell_angle_beta 90.000000
_cell_angle_gamma 90.000000
_cell_volume 4637.096775
_symmetry_space_group_name_H-M "C M M M"
_symmetry_group_IT_number 65
_symmetry_cell_setting 'orthorhombic'
loop_
_space_group_symop_operation_xyz
x,y,z
-x,-y,z
x,-y,-z
-x,y,-z
-x,-y,-z
x,y,-z
-x,y,z
x,-y,z
1/2+x,1/2+y,z
1/2-x,1/2-y,z
1/2+x,1/2-y,-z
1/2-x,1/2+y,-z
1/2-x,1/2-y,-z
1/2+x,1/2+y,-z
1/2-x,1/2+y,z
1/2+x,1/2-y,z
loop_
_atom_site_type_symbol
_atom_site_label
_atom_site_fract_x
_atom_site_fract_y
_atom_site_fract_z
Si Si1 0.851234 0.500000 0.911407
Si Si2 0.640653 0.935160 0.500000
Si Si3 0.643998 0.898901 0.806763
Si Si4 0.000000 0.000000 0.346346
Si Si5 0.701572 0.596747 0.350958
Si Si6 0.634530 0.286232 0.405720
Si Si7 0.360501 0.791039 0.092259
O O1 0.815263 0.552869 0.863760
O O2 0.000000 0.500000 0.915112
O O3 0.805244 0.500000 0.000000
O O4 0.500000 0.917761 0.500000
O O5 0.708351 0.914210 0.423404
O O6 0.645764 0.000000 0.500000
O O7 0.500000 0.907333 0.787795
O O8 0.723200 0.900120 0.729055
O O9 0.653746 0.843347 0.854122
O O10 0.893903 0.047769 0.348111
O O11 0.642710 0.654918 0.368001
O O12 0.642133 0.292264 0.500000
O O13 0.500000 0.262114 0.387832
O O14 0.750000 0.250000 0.380749
O O15 0.500000 0.769455 0.104572
O O16 0.250000 0.750000 0.108495
O O17 0.352833 0.805730 0.000000
#
# Coordination Sequence:
#
# PCOD9491864 Si02
#       7
#     8   8  16   4  16  16  16
#     4   9  17  32  56  84 115 149 186 235 300 368
#     4  11  24  38  59  88 119 158 205 258 315 368
#     4  10  21  36  58  89 121 155 198 255 309 364
#     4  12  26  41  64  88 119 166 218 260 311 372
#     4  12  23  41  61  88 122 164 208 258 312 370
#     4  10  22  41  63  87 117 158 211 260 311 372
#     4   9  18  36  62  92 123 159 206 256 312 375
#
# _framework density 18.114782999999999
#
# number of rings (size 3 to 8) (size 9 to 14) (size 15 to 20)
#    0.000    1.714    2.857    1.714    0.000    5.333 
#    1.714    1.905    0.000    0.000    0.000    2.000 
#    0.000    0.000    0.000    0.000    0.000    0.000 
#
# Total GULP energy -233900.047902 kJ/mol
# GULP energy per Si atom -5569.048760 kJ/mol
# Density = 1.807355 g / cm^3
# Si number density = 18.114783 Si / 1000 Ang^3
#
#
#
# Elastic Constant Matrix: (Units=GPa)
#
#
# Indices 1 2 3 4 5 6 
#
# 1 157.3538 80.1050 68.5429 0.0000 0.0000 0.0000
# 2 80.1050 107.8041 39.5205 0.0000 0.0000 0.0000
# 3 68.5429 39.5205 95.8045 0.0000 0.0000 0.0000
# 4 0.0000 0.0000 0.0000 34.4959 0.0000 0.0000
# 5 0.0000 0.0000 0.0000 0.0000 -6.9543 0.0000
# 6 0.0000 0.0000 0.0000 0.0000 0.0000 28.4434
#
#
#
# Elastic Compliance Matrix: (Units=1/GPa)
#
#
# Indices 1 2 3 4 5 6 
#
# 1 0.012665 -0.007174 -0.006102 0.000000 0.000000 0.000000
# 2 -0.007174 0.014993 -0.001052 0.000000 0.000000 0.000000
# 3 -0.006102 -0.001052 0.015237 0.000000 0.000000 0.000000
# 4 0.000000 0.000000 0.000000 0.028989 0.000000 0.000000
# 5 0.000000 0.000000 0.000000 0.000000 -0.143797 0.000000
# 6 0.000000 0.000000 0.000000 0.000000 0.000000 0.035158
#
#
# Mechanical properties :
#
#
# Convention : Reuss Voigt Hill
#
# Bulk Modulus (GPa) = 70.22785 81.92213 76.07499
# Shear Modulus (GPa) = -1491.35666 22.71660 -734.32003
#
# Velocity S-wave (km/s) = -28.72401 3.54508 -20.15566
# Velocity P-wave (km/s) = 32.57667 7.87901 22.35129
#
# Compressibility (1/GPa) = 0.01423937
#
# Stress axis : x y z
#
# Youngs Moduli (GPa) = 78.95626 66.69998 65.62796
#
# Poissons Ratio (x) = 0.47851 0.40045
# Poissons Ratio (y) = 0.56644 0.06903
# Poissons Ratio (z) = 0.48178 0.07016
#
# Static dielectric constant tensor:
#      x y z
#    x 1.628800 0.000000 0.000000 
#    y 0.000000 1.604540 0.000000 
#    z 0.000000 0.000000 1.088670 
# 
# From -- ./inp_files/38434.got.cif
#   From: 2010.05.17/outbox.cif.g08.bks.cpg/sg65_20_cif.got.tgz:38434.got - 2010.06.03 17:01:31.
