data_PCOD9491842
_publ_section_title
;
Structure prediction by ZEFSAII (Michael W. Deem and Ramdas Pophale) SiO2 
 PCOD9491842
Probable space group: C M M M
;
_chemical_formula_sum "Si O2"
_cell_formula_units_Z 90
_cell_length_a 24.803420
_cell_length_b 23.534845
_cell_length_c 7.728406
_cell_angle_alpha 90.000000
_cell_angle_beta 90.000000
_cell_angle_gamma 90.000000
_cell_volume 4511.415618
_symmetry_space_group_name_H-M "C M M M"
_symmetry_group_IT_number 65
_symmetry_cell_setting 'orthorhombic'
loop_
_space_group_symop_operation_xyz
x,y,z
-x,-y,z
x,-y,-z
-x,y,-z
-x,-y,-z
x,y,-z
-x,y,z
x,-y,z
1/2+x,1/2+y,z
1/2-x,1/2-y,z
1/2+x,1/2-y,-z
1/2-x,1/2+y,-z
1/2-x,1/2-y,-z
1/2+x,1/2+y,-z
1/2-x,1/2+y,z
1/2+x,1/2-y,z
loop_
_atom_site_type_symbol
_atom_site_label
_atom_site_fract_x
_atom_site_fract_y
_atom_site_fract_z
Si Si1 0.255718 0.315085 0.208189
Si Si2 0.854220 0.378103 0.293691
Si Si3 0.937162 0.062430 0.709062
Si Si4 0.624731 0.325657 0.200598
Si Si5 0.439030 0.213921 0.704167
Si Si6 0.902110 0.500000 0.713375
Si Si7 0.000000 0.500000 0.000000
O O1 0.250000 0.250000 0.269065
O O2 0.205118 0.354231 0.254165
O O3 0.314853 0.333139 0.271517
O O4 0.256262 0.314298 0.000000
O O5 0.858701 0.375756 0.500000
O O6 0.899427 0.334426 0.221135
O O7 0.868271 0.442709 0.246869
O O8 0.934442 0.065091 0.500000
O O9 0.905461 0.115101 0.782663
O O10 0.000000 0.066687 0.756820
O O11 0.917339 0.000000 0.763129
O O12 0.590218 0.274687 0.281023
O O13 0.629511 0.309463 0.000000
O O14 0.444209 0.202269 0.500000
O O15 0.500000 0.214563 0.776919
O O16 0.914281 0.500000 0.500000
O O17 0.952925 0.500000 0.843576
#
# Coordination Sequence:
#
# PCOD9491842 Si02
#       7
#    16  16  16  16  16   8   2
#     4  10  21  39  60  83 119 160 199 250 300 366
#     4  10  22  41  65  89 123 162 206 266 317 367
#     4   9  19  37  59  81 110 150 191 234 287 357
#     4  11  22  36  55  85 117 152 194 247 303 351
#     4  10  21  36  57  86 118 156 193 238 308 371
#     4  10  25  47  67 102 139 167 225 282 320 398
#     4  12  26  44  76 106 120 196 218 256 356 402
#
# _framework density 19.949390999999999
#
# number of rings (size 3 to 8) (size 9 to 14) (size 15 to 20)
#    0.000    1.956    1.778    1.733    2.489    4.978 
#    1.600    0.889    0.000    0.000    0.000    0.000 
#    0.000    0.000    0.000    0.000    0.000    0.000 
#
# Total GULP energy -250773.705920 kJ/mol
# GULP energy per Si atom -5572.749020 kJ/mol
# Density = 1.990399 g / cm^3
# Si number density = 19.949391 Si / 1000 Ang^3
#
#
#
# Elastic Constant Matrix: (Units=GPa)
#
#
# Indices 1 2 3 4 5 6 
#
# 1 161.8703 89.9306 15.3576 0.0000 0.0000 0.0000
# 2 89.9306 154.2236 10.1298 0.0000 0.0000 0.0000
# 3 15.3576 10.1298 42.2765 0.0000 0.0000 0.0000
# 4 0.0000 0.0000 0.0000 -17.3691 0.0000 0.0000
# 5 0.0000 0.0000 0.0000 0.0000 28.1269 0.0000
# 6 0.0000 0.0000 0.0000 0.0000 0.0000 17.4756
#
#
#
# Elastic Compliance Matrix: (Units=1/GPa)
#
#
# Indices 1 2 3 4 5 6 
#
# 1 0.009321 -0.005296 -0.002117 0.000000 0.000000 0.000000
# 2 -0.005296 0.009597 -0.000376 0.000000 0.000000 0.000000
# 3 -0.002117 -0.000376 0.024513 0.000000 0.000000 0.000000
# 4 0.000000 0.000000 0.000000 -0.057573 0.000000 0.000000
# 5 0.000000 0.000000 0.000000 0.000000 0.035553 0.000000
# 6 0.000000 0.000000 0.000000 0.000000 0.000000 0.057223
#
#
# Mechanical properties :
#
#
# Convention : Reuss Voigt Hill
#
# Bulk Modulus (GPa) = 35.90240 65.46738 50.68489
# Shear Modulus (GPa) = 48.31129 21.84350 35.07739
#
# Velocity S-wave (km/s) = 4.92641 3.31259 4.19778
# Velocity P-wave (km/s) = 7.09895 6.89340 6.99693
#
# Compressibility (1/GPa) = 0.02785329
#
# Stress axis : x y z
#
# Youngs Moduli (GPa) = 107.28364 104.19809 40.79501
#
# Poissons Ratio (x) = 0.55186 0.08636
# Poissons Ratio (y) = 0.56820 0.01532
# Poissons Ratio (z) = 0.22712 0.03914
#
# Static dielectric constant tensor:
#      x y z
#    x 1.713360 0.000000 0.000000 
#    y 0.000000 1.681430 0.000000 
#    z 0.000000 0.000000 1.747120 
# 
# From -- ./inp_files/14045.got.cif
#   From: 2010.05.17/outbox.cif.g08.bks.cpg/sg65_8_cif.got.tgz:14045.got - 2010.06.03 17:01:31.
