data_PCOD9491291
_publ_section_title
;
Structure prediction by ZEFSAII (Michael W. Deem and Ramdas Pophale) SiO2 
 PCOD9491291
Probable space group: C M M M
;
_chemical_formula_sum "Si O2"
_cell_formula_units_Z 88
_cell_length_a 18.568108
_cell_length_b 9.361228
_cell_length_c 28.903097
_cell_angle_alpha 90.000000
_cell_angle_beta 90.000000
_cell_angle_gamma 90.000000
_cell_volume 5023.944775
_symmetry_space_group_name_H-M "C M M M"
_symmetry_group_IT_number 65
_symmetry_cell_setting 'orthorhombic'
loop_
_space_group_symop_operation_xyz
x,y,z
-x,-y,z
x,-y,-z
-x,y,-z
-x,-y,-z
x,y,-z
-x,y,z
x,-y,z
1/2+x,1/2+y,z
1/2-x,1/2-y,z
1/2+x,1/2-y,-z
1/2-x,1/2+y,-z
1/2-x,1/2-y,-z
1/2+x,1/2+y,-z
1/2-x,1/2+y,z
1/2+x,1/2-y,z
loop_
_atom_site_type_symbol
_atom_site_label
_atom_site_fract_x
_atom_site_fract_y
_atom_site_fract_z
Si Si1 0.826014 0.170683 0.868481
Si Si2 0.174053 0.828230 0.500000
Si Si3 0.914123 0.667721 0.053971
Si Si4 0.584737 0.669339 0.224455
Si Si5 0.087703 0.664347 0.683835
Si Si6 0.085157 0.829865 0.408173
O O1 0.750000 0.250000 0.866644
O O2 0.870673 0.232544 0.911572
O O3 0.870317 0.200749 0.821465
O O4 0.817115 0.000000 0.872490
O O5 0.250000 0.750000 0.500000
O O6 0.129029 0.791059 0.454008
O O7 0.183640 0.000000 0.500000
O O8 0.898425 0.500000 0.063156
O O9 0.000000 0.687577 0.059957
O O10 0.897278 0.695498 0.000000
O O11 0.500000 0.701527 0.216366
O O12 0.589960 0.500000 0.234240
O O13 0.610183 0.756456 0.269238
O O14 0.110667 0.500000 0.683440
O O15 0.110187 0.745882 0.637335
O O16 0.000000 0.667924 0.683887
O O17 0.000000 0.801134 0.415428
O O18 0.092354 0.000000 0.400319
#
# Coordination Sequence:
#
# PCOD9491291 Si02
#       6
#    16   8  16  16  16  16
#     4  11  23  37  54  78 109 144 181 220 263 312
#     4  10  21  35  51  73 101 134 170 206 250 302
#     4   9  19  37  60  84 109 138 174 217 265 316
#     4   9  18  34  55  77 102 134 172 213 258 309
#     4   9  17  29  49  79 107 129 161 208 259 306
#     4   9  17  32  54  76  99 130 169 210 250 297
#
# _framework density 17.516114999999999
#
# number of rings (size 3 to 8) (size 9 to 14) (size 15 to 20)
#    0.000    2.545    0.000    2.455    0.000    7.273 
#    0.000    3.636    0.000    2.727    0.000    0.000 
#    0.000    0.000    0.000    0.000    0.000    0.000 
#
# Total GULP energy -245501.173626 kJ/mol
# GULP energy per Si atom -5579.572128 kJ/mol
# Density = 1.747625 g / cm^3
# Si number density = 17.516115 Si / 1000 Ang^3
#
#
#
# Elastic Constant Matrix: (Units=GPa)
#
#
# Indices 1 2 3 4 5 6 
#
# 1 68.2468 63.1235 81.7530 0.0000 0.0000 0.0000
# 2 63.1235 86.9284 106.2158 0.0000 0.0000 0.0000
# 3 81.7530 106.2158 177.8618 0.0000 0.0000 0.0000
# 4 0.0000 0.0000 0.0000 24.9234 0.0000 0.0000
# 5 0.0000 0.0000 0.0000 0.0000 -7.7966 0.0000
# 6 0.0000 0.0000 0.0000 0.0000 0.0000 21.5726
#
#
#
# Elastic Compliance Matrix: (Units=1/GPa)
#
#
# Indices 1 2 3 4 5 6 
#
# 1 0.045528 -0.027710 -0.004378 0.000000 0.000000 0.000000
# 2 -0.027710 0.059422 -0.022749 0.000000 0.000000 0.000000
# 3 -0.004378 -0.022749 0.021220 0.000000 0.000000 0.000000
# 4 0.000000 0.000000 0.000000 0.040123 0.000000 0.000000
# 5 0.000000 0.000000 0.000000 0.000000 -0.128261 0.000000
# 6 0.000000 0.000000 0.000000 0.000000 0.000000 0.046355
#
#
# Mechanical properties :
#
#
# Convention : Reuss Voigt Hill
#
# Bulk Modulus (GPa) = 60.62589 92.80240 76.71414
# Shear Modulus (GPa) = 25.05512 13.20288 19.12900
#
# Velocity S-wave (km/s) = 3.78617 2.74844 3.30825
# Velocity P-wave (km/s) = 7.33485 7.94783 7.64749
#
# Compressibility (1/GPa) = 0.01649460
#
# Stress axis : x y z
#
# Youngs Moduli (GPa) = 21.96471 16.82875 47.12505
#
# Poissons Ratio (x) = 0.46633 0.20633
# Poissons Ratio (y) = 0.60865 1.07205
# Poissons Ratio (z) = 0.09617 0.38284
#
# Static dielectric constant tensor:
#      x y z
#    x 1.574830 0.000000 0.000000 
#    y 0.000000 1.583330 0.000000 
#    z 0.000000 0.000000 1.573100 
# 
# From -- ./inp_files/77905.got.cif
#   From: 2010.05.17/outbox.cif.g08.bks.cpg/sg65_39_cif.got.tgz:77905.got - 2010.06.03 17:01:31.
