data_PCOD9491115
_publ_section_title
;
Structure prediction by ZEFSAII (Michael W. Deem and Ramdas Pophale) SiO2 
 PCOD9491115
Probable space group: C M M M
;
_chemical_formula_sum "Si O2"
_cell_formula_units_Z 104
_cell_length_a 13.670911
_cell_length_b 18.322298
_cell_length_c 16.986438
_cell_angle_alpha 90.000000
_cell_angle_beta 90.000000
_cell_angle_gamma 90.000000
_cell_volume 4254.805546
_symmetry_space_group_name_H-M "C M M M"
_symmetry_group_IT_number 65
_symmetry_cell_setting 'orthorhombic'
loop_
_space_group_symop_operation_xyz
x,y,z
-x,-y,z
x,-y,-z
-x,y,-z
-x,-y,-z
x,y,-z
-x,y,z
x,-y,z
1/2+x,1/2+y,z
1/2-x,1/2-y,z
1/2+x,1/2-y,-z
1/2-x,1/2+y,-z
1/2-x,1/2-y,-z
1/2+x,1/2+y,-z
1/2-x,1/2+y,z
1/2+x,1/2-y,z
loop_
_atom_site_type_symbol
_atom_site_label
_atom_site_fract_x
_atom_site_fract_y
_atom_site_fract_z
Si Si1 0.620780 0.124296 0.830055
Si Si2 0.119365 0.917706 0.716215
Si Si3 0.134210 0.757147 0.000000
Si Si4 0.617983 0.847859 0.662419
Si Si5 0.863720 0.414916 0.000000
Si Si6 0.619282 0.081350 0.500000
Si Si7 0.889475 0.792246 0.170073
Si Si8 0.381574 0.303183 0.409487
O O1 0.500000 0.116810 0.841649
O O2 0.644235 0.105054 0.739598
O O3 0.650454 0.209990 0.826644
O O4 0.669647 0.089328 0.907440
O O5 0.151344 0.861291 0.784360
O O6 0.144410 0.877922 0.634350
O O7 0.000000 0.921128 0.719818
O O8 0.155198 0.000000 0.723723
O O9 0.250000 0.750000 0.000000
O O10 0.106100 0.801994 0.923276
O O11 0.098360 0.671993 0.000000
O O12 0.500000 0.847952 0.665147
O O13 0.649090 0.881273 0.580115
O O14 0.646003 0.762981 0.649645
O O15 0.900781 0.500000 0.000000
O O16 0.500000 0.081927 0.500000
O O17 0.655329 0.000000 0.500000
O O18 0.000000 0.783257 0.201600
O O19 0.347378 0.295810 0.500000
O O20 0.500000 0.300381 0.413925
#
# Coordination Sequence:
#
# PCOD9491115 Si02
#       8
#    16  16   8  16   8   8  16  16
#     4   9  16  26  43  63  86 121 160 193 233 290
#     4   9  16  25  39  63  95 127 164 212 253 287
#     4  10  21  37  56  75  95 126 167 199 240 296
#     4   9  14  22  35  51  75 115 160 195 233 284
#     4  10  21  34  47  67  93 116 145 197 249 286
#     4   9  16  22  28  44  73 109 152 197 232 272
#     4   9  16  30  50  71  96 128 164 200 242 293
#     4   9  14  21  35  54  83 127 169 199 239 298
#
# _framework density 24.44295
#
# number of rings (size 3 to 8) (size 9 to 14) (size 15 to 20)
#    0.000    2.846    2.308    0.462    0.000    3.385 
#    0.000    4.231    0.000    1.846    0.000    0.000 
#    0.000    0.615    0.769    0.308    9.692    1.077 
#
# Total GULP energy -289682.238024 kJ/mol
# GULP energy per Si atom -5570.812270 kJ/mol
# Density = 2.438732 g / cm^3
# Si number density = 24.442950 Si / 1000 Ang^3
#
#
#
# Elastic Constant Matrix: (Units=GPa)
#
#
# Indices 1 2 3 4 5 6 
#
# 1 99.6122 20.4136 12.5888 0.0000 0.0000 0.0000
# 2 20.4136 153.8703 66.8261 0.0000 0.0000 0.0000
# 3 12.5888 66.8261 221.9911 0.0000 0.0000 0.0000
# 4 0.0000 0.0000 0.0000 28.8925 0.0000 0.0000
# 5 0.0000 0.0000 0.0000 0.0000 27.9437 0.0000
# 6 0.0000 0.0000 0.0000 0.0000 0.0000 0.0182
#
#
#
# Elastic Compliance Matrix: (Units=1/GPa)
#
#
# Indices 1 2 3 4 5 6 
#
# 1 0.010327 -0.001284 -0.000199 0.000000 0.000000 0.000000
# 2 -0.001284 0.007636 -0.002226 0.000000 0.000000 0.000000
# 3 -0.000199 -0.002226 0.005186 0.000000 0.000000 0.000000
# 4 0.000000 0.000000 0.000000 0.034611 0.000000 0.000000
# 5 0.000000 0.000000 0.000000 0.000000 0.035786 0.000000
# 6 0.000000 0.000000 0.000000 0.000000 0.000000 55.089131
#
#
# Mechanical properties :
#
#
# Convention : Reuss Voigt Hill
#
# Bulk Modulus (GPa) = 63.56542 75.01451 69.28996
# Shear Modulus (GPa) = 0.09059 36.41388 18.25223
#
# Velocity S-wave (km/s) = 0.19272 3.86392 2.73560
# Velocity P-wave (km/s) = 5.10995 7.11777 6.19574
#
# Compressibility (1/GPa) = 0.01573182
#
# Stress axis : x y z
#
# Youngs Moduli (GPa) = 96.83210 130.95927 192.82542
#
# Poissons Ratio (x) = 0.16809 0.03842
# Poissons Ratio (y) = 0.12429 0.42920
# Poissons Ratio (z) = 0.01929 0.29150
#
# Static dielectric constant tensor:
#      x y z
#    x 2.099030 0.000000 0.000000 
#    y 0.000000 1.919760 0.000000 
#    z 0.000000 0.000000 1.970300 
# 
# From -- ./inp_files/54659.got.cif
#   From: 2010.05.17/outbox.cif.g08.bks.cpg/sg65_28_cif.got.tgz:54659.got - 2010.06.03 17:01:31.
