data_PCOD9491447
_publ_section_title
;
Structure prediction by ZEFSAII (Michael W. Deem and Ramdas Pophale) SiO2 
 PCOD9491447
Probable space group: C M M M
;
_chemical_formula_sum "Si O2"
_cell_formula_units_Z 34
_cell_length_a 40.424408
_cell_length_b 7.355601
_cell_length_c 5.389893
_cell_angle_alpha 90.000000
_cell_angle_beta 90.000000
_cell_angle_gamma 90.000000
_cell_volume 1602.662132
_symmetry_space_group_name_H-M "C M M M"
_symmetry_group_IT_number 65
_symmetry_cell_setting 'orthorhombic'
loop_
_space_group_symop_operation_xyz
x,y,z
-x,-y,z
x,-y,-z
-x,y,-z
-x,-y,-z
x,y,-z
-x,y,z
x,-y,z
1/2+x,1/2+y,z
1/2-x,1/2-y,z
1/2+x,1/2-y,-z
1/2-x,1/2+y,-z
1/2-x,1/2-y,-z
1/2+x,1/2+y,-z
1/2-x,1/2+y,z
1/2+x,1/2-y,z
loop_
_atom_site_type_symbol
_atom_site_label
_atom_site_fract_x
_atom_site_fract_y
_atom_site_fract_z
Si Si1 0.101870 0.717577 0.000000
Si Si2 0.938033 0.278682 0.500000
Si Si3 0.789029 0.217483 0.500000
Si Si4 0.679010 0.711101 0.000000
Si Si5 0.500000 0.500000 0.500000
O O1 0.082530 0.768625 0.251010
O O2 0.139481 0.782465 0.000000
O O3 0.103386 0.500000 0.000000
O O4 0.943744 0.500000 0.500000
O O5 0.971079 0.160051 0.500000
O O6 0.750000 0.250000 0.500000
O O7 0.805983 0.291109 0.251270
O O8 0.794562 0.000000 0.500000
O O9 0.689218 0.500000 0.000000
#
# Coordination Sequence:
#
# PCOD9491447 Si02
#       5
#     8   8   8   8   2
#     4  10  22  41  62  88 124 157 199 254 307 353
#     4  10  24  42  62  94 126 157 207 258 296 376
#     4  10  21  36  53  82 115 153 194 249 295 354
#     4  10  21  35  57  83 115 149 200 247 295 357
#     4  12  26  42  72  92 124 174 202 242 344 348
#
# _framework density 21.214704000000001
#
# number of rings (size 3 to 8) (size 9 to 14) (size 15 to 20)
#    0.000    1.882    0.000    2.471    3.294    3.765 
#    0.000    3.529    0.000    0.000    0.000    0.000 
#    0.000    0.000    0.000    0.000    0.000    0.000 
#
# Total GULP energy -94720.422356 kJ/mol
# GULP energy per Si atom -5571.789550 kJ/mol
# Density = 2.116642 g / cm^3
# Si number density = 21.214704 Si / 1000 Ang^3
#
#
#
# Elastic Constant Matrix: (Units=GPa)
#
#
# Indices 1 2 3 4 5 6 
#
# 1 182.4576 22.8846 129.2398 0.0000 0.0000 0.0000
# 2 22.8846 92.8399 40.3114 0.0000 0.0000 0.0000
# 3 129.2398 40.3114 250.5831 0.0000 0.0000 0.0000
# 4 0.0000 0.0000 0.0000 -18.7489 0.0000 0.0000
# 5 0.0000 0.0000 0.0000 0.0000 -23.7428 0.0000
# 6 0.0000 0.0000 0.0000 0.0000 0.0000 39.4443
#
#
#
# Elastic Compliance Matrix: (Units=1/GPa)
#
#
# Indices 1 2 3 4 5 6 
#
# 1 0.008639 -0.000209 -0.004422 0.000000 0.000000 0.000000
# 2 -0.000209 0.011585 -0.001756 0.000000 0.000000 0.000000
# 3 -0.004422 -0.001756 0.006554 0.000000 0.000000 0.000000
# 4 0.000000 0.000000 0.000000 -0.053337 0.000000 0.000000
# 5 0.000000 0.000000 0.000000 0.000000 -0.042118 0.000000
# 6 0.000000 0.000000 0.000000 0.000000 0.000000 0.025352
#
#
# Mechanical properties :
#
#
# Convention : Reuss Voigt Hill
#
# Bulk Modulus (GPa) = 71.40878 101.19467 86.30172
# Shear Modulus (GPa) = -193.18636 21.62018 -85.78309
#
# Velocity S-wave (km/s) = -9.55302 3.19582 -6.36580
# Velocity P-wave (km/s) = 9.37801 7.83719 3.64182
#
# Compressibility (1/GPa) = 0.01400388
#
# Stress axis : x y z
#
# Youngs Moduli (GPa) = 115.75063 86.31712 152.58254
#
# Poissons Ratio (x) = 0.01808 0.67473
# Poissons Ratio (y) = 0.02425 0.26789
# Poissons Ratio (z) = 0.51186 0.15155
#
# Static dielectric constant tensor:
#      x y z
#    x 1.680830 0.000000 0.000000 
#    y 0.000000 1.699470 0.000000 
#    z 0.000000 0.000000 1.837110 
# 
# From -- ./inp_files/1700.got.cif
#   From: 2010.05.17/outbox.cif.g08.bks.cpg/sg65_1_cif.got.tgz:1700.got - 2010.06.03 17:01:31.
