data_PCOD9491320
_publ_section_title
;
Structure prediction by ZEFSAII (Michael W. Deem and Ramdas Pophale) SiO2 
 PCOD9491320
Probable space group: C M M M
;
_chemical_formula_sum "Si O2"
_cell_formula_units_Z 96
_cell_length_a 22.285839
_cell_length_b 14.482602
_cell_length_c 13.272968
_cell_angle_alpha 90.000000
_cell_angle_beta 90.000000
_cell_angle_gamma 90.000000
_cell_volume 4283.942490
_symmetry_space_group_name_H-M "C M M M"
_symmetry_group_IT_number 65
_symmetry_cell_setting 'orthorhombic'
loop_
_space_group_symop_operation_xyz
x,y,z
-x,-y,z
x,-y,-z
-x,y,-z
-x,-y,-z
x,y,-z
-x,y,z
x,-y,z
1/2+x,1/2+y,z
1/2-x,1/2-y,z
1/2+x,1/2-y,-z
1/2-x,1/2+y,-z
1/2-x,1/2-y,-z
1/2+x,1/2+y,-z
1/2-x,1/2+y,z
1/2+x,1/2-y,z
loop_
_atom_site_type_symbol
_atom_site_label
_atom_site_fract_x
_atom_site_fract_y
_atom_site_fract_z
Si Si1 0.068572 0.781053 0.389305
Si Si2 0.689323 0.103878 0.108367
Si Si3 0.219553 0.106669 0.611908
Si Si4 0.143680 0.392678 0.676988
Si Si5 0.569154 0.389253 0.816466
Si Si6 0.302917 0.325482 0.172700
O O1 0.081098 0.821149 0.500000
O O2 0.105123 0.687091 0.372222
O O3 0.072253 0.855683 0.299919
O O4 0.000000 0.750146 0.387907
O O5 0.656233 0.141187 0.207674
O O6 0.760315 0.094303 0.129967
O O7 0.665632 0.000000 0.102831
O O8 0.677913 0.149225 0.000000
O O9 0.206705 0.141594 0.500000
O O10 0.291187 0.104560 0.625879
O O11 0.196596 0.165617 0.705806
O O12 0.198688 0.000000 0.621284
O O13 0.121541 0.500000 0.675399
O O14 0.500000 0.367427 0.851357
O O15 0.576711 0.500000 0.824739
O O16 0.628600 0.338968 0.863051
O O17 0.250000 0.250000 0.146613
#
# Coordination Sequence:
#
# PCOD9491320 Si02
#       6
#    16  16  16  16  16  16
#     4  10  21  35  51  75 109 152 202 247 287 341
#     4   9  18  34  56  79 104 136 175 225 288 357
#     4   9  17  29  46  69  99 135 173 215 269 335
#     4   9  17  31  52  79 112 146 182 232 296 360
#     4  10  21  37  56  78 112 161 209 250 293 343
#     4  11  21  33  53  81 111 142 184 243 300 353
#
# _framework density 22.409264
#
# number of rings (size 3 to 8) (size 9 to 14) (size 15 to 20)
#    0.000    2.333    0.000    5.000    0.000    3.000 
#    0.000    2.500    0.000    1.000    0.000    7.000 
#    0.000    0.000    0.000    0.000    0.000    0.333 
#
# Total GULP energy -267215.163993 kJ/mol
# GULP energy per Si atom -5566.982583 kJ/mol
# Density = 2.235826 g / cm^3
# Si number density = 22.409264 Si / 1000 Ang^3
#
#
#
# Elastic Constant Matrix: (Units=GPa)
#
#
# Indices 1 2 3 4 5 6 
#
# 1 114.9173 56.4654 -2.9567 0.0000 0.0000 0.0000
# 2 56.4654 85.7107 1.1519 0.0000 0.0000 0.0000
# 3 -2.9567 1.1519 68.7253 0.0000 0.0000 0.0000
# 4 0.0000 0.0000 0.0000 19.2882 0.0000 0.0000
# 5 0.0000 0.0000 0.0000 0.0000 4.5761 0.0000
# 6 0.0000 0.0000 0.0000 0.0000 0.0000 24.2761
#
#
#
# Elastic Compliance Matrix: (Units=1/GPa)
#
#
# Indices 1 2 3 4 5 6 
#
# 1 0.012900 -0.008508 0.000698 0.000000 0.000000 0.000000
# 2 -0.008508 0.017281 -0.000656 0.000000 0.000000 0.000000
# 3 0.000698 -0.000656 0.014592 0.000000 0.000000 0.000000
# 4 0.000000 0.000000 0.000000 0.051845 0.000000 0.000000
# 5 0.000000 0.000000 0.000000 0.000000 0.218527 0.000000
# 6 0.000000 0.000000 0.000000 0.000000 0.000000 0.041193
#
#
# Mechanical properties :
#
#
# Convention : Reuss Voigt Hill
#
# Bulk Modulus (GPa) = 35.91849 42.07495 38.99672
# Shear Modulus (GPa) = 13.07019 23.94094 18.50557
#
# Velocity S-wave (km/s) = 2.41768 3.27211 2.87679
# Velocity P-wave (km/s) = 4.88434 5.75257 5.33614
#
# Compressibility (1/GPa) = 0.02784081
#
# Stress axis : x y z
#
# Youngs Moduli (GPa) = 77.51755 57.86720 68.53223
#
# Poissons Ratio (x) = 0.49233 -0.04781
# Poissons Ratio (y) = 0.65952 0.04494
# Poissons Ratio (z) = -0.05408 0.03794
#
# Static dielectric constant tensor:
#      x y z
#    x 1.846690 0.000000 0.000000 
#    y 0.000000 2.236060 0.000000 
#    z 0.000000 0.000000 1.913030 
# 
# From -- ./inp_files/44131.got.cif
#   From: 2010.05.17/outbox.cif.g08.bks.cpg/sg65_23_cif.got.tgz:44131.got - 2010.06.03 17:01:31.
