data_PCOD9491189
_publ_section_title
;
Structure prediction by ZEFSAII (Michael W. Deem and Ramdas Pophale) SiO2 
 PCOD9491189
Probable space group: C M M M
;
_chemical_formula_sum "Si O2"
_cell_formula_units_Z 90
_cell_length_a 20.530815
_cell_length_b 26.569139
_cell_length_c 7.500751
_cell_angle_alpha 90.000000
_cell_angle_beta 90.000000
_cell_angle_gamma 90.000000
_cell_volume 4091.555241
_symmetry_space_group_name_H-M "C M M M"
_symmetry_group_IT_number 65
_symmetry_cell_setting 'orthorhombic'
loop_
_space_group_symop_operation_xyz
x,y,z
-x,-y,z
x,-y,-z
-x,y,-z
-x,-y,-z
x,y,-z
-x,y,z
x,-y,z
1/2+x,1/2+y,z
1/2-x,1/2-y,z
1/2+x,1/2-y,-z
1/2-x,1/2+y,-z
1/2-x,1/2-y,-z
1/2+x,1/2+y,-z
1/2-x,1/2+y,z
1/2+x,1/2-y,z
loop_
_atom_site_type_symbol
_atom_site_label
_atom_site_fract_x
_atom_site_fract_y
_atom_site_fract_z
Si Si1 0.500000 0.090140 0.715809
Si Si2 0.000000 0.500000 0.000000
Si Si3 0.110448 0.944395 0.705164
Si Si4 0.864893 0.358428 0.712509
Si Si5 0.239995 0.555542 0.210529
Si Si6 0.825432 0.249243 0.281817
Si Si7 0.072821 0.835282 0.717955
O O1 0.500000 0.079597 0.500000
O O2 0.564895 0.120809 0.760445
O O3 0.500000 0.042744 0.842666
O O4 0.088015 0.946322 0.500000
O O5 0.188962 0.938242 0.704853
O O6 0.082754 0.892678 0.782524
O O7 0.096430 0.000000 0.783916
O O8 0.863319 0.353965 0.500000
O O9 0.809476 0.399300 0.756253
O O10 0.853305 0.302530 0.781684
O O11 0.213658 0.500000 0.265202
O O12 0.251453 0.553901 0.000000
O O13 0.826306 0.247674 0.500000
O O14 0.750000 0.250000 0.228305
O O15 0.869884 0.202330 0.223079
O O16 0.075997 0.836665 0.500000
O O17 0.000000 0.817718 0.765439
#
# Coordination Sequence:
#
# PCOD9491189 Si02
#       7
#     8   2  16  16  16  16  16
#     4  10  25  41  61  92 121 163 213 259 315 381
#     4  12  26  44  68  82 128 172 202 264 316 382
#     4   9  17  31  51  78 111 142 176 225 283 335
#     4  10  21  36  55  81 113 144 191 250 297 354
#     4  10  21  34  53  78 105 141 185 227 279 350
#     4   9  17  30  52  80 111 148 190 240 298 355
#     4   9  17  28  49  80 110 143 184 229 282 345
#
# _framework density 21.996525999999999
#
# number of rings (size 3 to 8) (size 9 to 14) (size 15 to 20)
#    0.000    2.489    0.000    1.733    3.733    4.267 
#    0.000    1.778    0.000    5.333    0.000    2.489 
#    0.000    0.000    0.000    0.000    0.000    0.178 
#
# Total GULP energy -250955.702896 kJ/mol
# GULP energy per Si atom -5576.793398 kJ/mol
# Density = 2.194646 g / cm^3
# Si number density = 21.996526 Si / 1000 Ang^3
#
#
#
# Elastic Constant Matrix: (Units=GPa)
#
#
# Indices 1 2 3 4 5 6 
#
# 1 120.7409 88.9843 20.7250 0.0000 0.0000 0.0000
# 2 88.9843 191.2152 28.8721 0.0000 0.0000 0.0000
# 3 20.7250 28.8721 53.1663 0.0000 0.0000 0.0000
# 4 0.0000 0.0000 0.0000 -17.3215 0.0000 0.0000
# 5 0.0000 0.0000 0.0000 0.0000 2.3760 0.0000
# 6 0.0000 0.0000 0.0000 0.0000 0.0000 207.9871
#
#
#
# Elastic Compliance Matrix: (Units=1/GPa)
#
#
# Indices 1 2 3 4 5 6 
#
# 1 0.012781 -0.005659 -0.001909 0.000000 0.000000 0.000000
# 2 -0.005659 0.008203 -0.002248 0.000000 0.000000 0.000000
# 3 -0.001909 -0.002248 0.020774 0.000000 0.000000 0.000000
# 4 0.000000 0.000000 0.000000 -0.057732 0.000000 0.000000
# 5 0.000000 0.000000 0.000000 0.000000 0.420874 0.000000
# 6 0.000000 0.000000 0.000000 0.000000 0.000000 0.004808
#
#
# Mechanical properties :
#
#
# Convention : Reuss Voigt Hill
#
# Bulk Modulus (GPa) = 45.19913 71.36501 58.28207
# Shear Modulus (GPa) = 11.44908 53.71104 32.58006
#
# Velocity S-wave (km/s) = 2.28391 4.94681 3.85274
# Velocity P-wave (km/s) = 5.24861 8.07107 6.80772
#
# Compressibility (1/GPa) = 0.02212432
#
# Stress axis : x y z
#
# Youngs Moduli (GPa) = 78.24242 121.90774 48.13711
#
# Poissons Ratio (x) = 0.68994 0.09188
# Poissons Ratio (y) = 0.44281 0.10823
# Poissons Ratio (z) = 0.14934 0.27411
#
# Static dielectric constant tensor:
#      x y z
#    x 1.798270 0.000000 0.000000 
#    y 0.000000 1.843730 0.000000 
#    z 0.000000 0.000000 1.815770 
# 
# From -- ./inp_files/11873.got.cif
#   From: 2010.05.17/outbox.cif.g08.bks.cpg/sg65_6_cif.got.tgz:11873.got - 2010.06.03 17:01:31.
