data_PCOD9491102
_publ_section_title
;
Structure prediction by ZEFSAII (Michael W. Deem and Ramdas Pophale) SiO2 
 PCOD9491102
Probable space group: C M M M
;
_chemical_formula_sum "Si O2"
_cell_formula_units_Z 82
_cell_length_a 7.382480
_cell_length_b 29.362401
_cell_length_c 20.103990
_cell_angle_alpha 90.000000
_cell_angle_beta 90.000000
_cell_angle_gamma 90.000000
_cell_volume 4357.888398
_symmetry_space_group_name_H-M "C M M M"
_symmetry_group_IT_number 65
_symmetry_cell_setting 'orthorhombic'
loop_
_space_group_symop_operation_xyz
x,y,z
-x,-y,z
x,-y,-z
-x,y,-z
-x,-y,-z
x,y,-z
-x,y,z
x,-y,z
1/2+x,1/2+y,z
1/2-x,1/2-y,z
1/2+x,1/2-y,-z
1/2-x,1/2+y,-z
1/2-x,1/2-y,-z
1/2+x,1/2+y,-z
1/2-x,1/2+y,z
1/2+x,1/2-y,z
loop_
_atom_site_type_symbol
_atom_site_label
_atom_site_fract_x
_atom_site_fract_y
_atom_site_fract_z
Si Si1 0.000000 0.078063 0.614227
Si Si2 0.214159 0.300341 0.704878
Si Si3 0.500000 0.553885 0.770916
Si Si4 0.500000 0.500000 0.500000
Si Si5 0.783930 0.301600 0.924510
Si Si6 0.720334 0.126899 0.812887
Si Si7 0.781893 0.345988 0.424018
O O1 0.176063 0.109260 0.599785
O O2 0.000000 0.061544 0.690661
O O3 0.000000 0.039158 0.558940
O O4 0.250000 0.250000 0.730047
O O5 0.280235 0.340589 0.751727
O O6 0.274582 0.307750 0.629187
O O7 0.000000 0.305467 0.705134
O O8 0.500000 0.500000 0.783902
O O9 0.326676 0.580027 0.802489
O O10 0.750000 0.250000 0.899232
O O11 0.725575 0.342790 0.877081
O O12 0.000000 0.305707 0.927625
O O13 0.711767 0.304255 0.000000
O O14 0.500000 0.121280 0.812541
O O15 0.733696 0.335493 0.500000
O O16 0.000000 0.352466 0.421236
#
# Coordination Sequence:
#
# PCOD9491102 Si02
#       7
#     8  16   8   2  16  16  16
#     4  12  22  40  62  83 114 144 190 257 312 361
#     4  10  21  33  53  83 114 153 196 231 285 356
#     4  12  26  40  65  90 112 156 210 256 311 362
#     4  12  24  40  66  96 104 142 206 264 334 380
#     4   9  18  33  57  92 130 167 204 243 296 359
#     4  10  22  40  59  85 123 160 197 249 305 358
#     4  10  21  38  56  77 112 154 185 229 294 361
#
# _framework density 18.816452000000002
#
# number of rings (size 3 to 8) (size 9 to 14) (size 15 to 20)
#    0.000    1.756    3.415    0.585    4.098    0.780 
#    0.000    0.976    0.000    1.171    0.000    2.732 
#    0.000    0.000    0.000    0.000    0.000    0.000 
#
# Total GULP energy -228421.127794 kJ/mol
# GULP energy per Si atom -5571.247019 kJ/mol
# Density = 1.877363 g / cm^3
# Si number density = 18.816452 Si / 1000 Ang^3
#
#
#
# Elastic Constant Matrix: (Units=GPa)
#
#
# Indices 1 2 3 4 5 6 
#
# 1 76.7735 27.3973 27.5285 0.0000 0.0000 0.0000
# 2 27.3973 138.2355 63.2841 0.0000 0.0000 0.0000
# 3 27.5285 63.2841 116.5359 0.0000 0.0000 0.0000
# 4 0.0000 0.0000 0.0000 4.7490 0.0000 0.0000
# 5 0.0000 0.0000 0.0000 0.0000 10.6949 0.0000
# 6 0.0000 0.0000 0.0000 0.0000 0.0000 17.1983
#
#
#
# Elastic Compliance Matrix: (Units=1/GPa)
#
#
# Indices 1 2 3 4 5 6 
#
# 1 0.014539 -0.001742 -0.002488 0.000000 0.000000 0.000000
# 2 -0.001742 0.009836 -0.004930 0.000000 0.000000 0.000000
# 3 -0.002488 -0.004930 0.011846 0.000000 0.000000 0.000000
# 4 0.000000 0.000000 0.000000 0.210572 0.000000 0.000000
# 5 0.000000 0.000000 0.000000 0.000000 0.093503 0.000000
# 6 0.000000 0.000000 0.000000 0.000000 0.000000 0.058145
#
#
# Mechanical properties :
#
#
# Convention : Reuss Voigt Hill
#
# Bulk Modulus (GPa) = 55.86502 63.10718 59.48610
# Shear Modulus (GPa) = 11.82789 20.75076 16.28932
#
# Velocity S-wave (km/s) = 2.50990 3.32444 2.94546
# Velocity P-wave (km/s) = 6.17684 6.95320 6.57649
#
# Compressibility (1/GPa) = 0.01790029
#
# Stress axis : x y z
#
# Youngs Moduli (GPa) = 68.77875 101.66432 84.41662
#
# Poissons Ratio (x) = 0.17715 0.21005
# Poissons Ratio (y) = 0.11984 0.41617
# Poissons Ratio (z) = 0.17114 0.50120
#
# Static dielectric constant tensor:
#      x y z
#    x 1.670910 0.000000 0.000000 
#    y 0.000000 1.648950 0.000000 
#    z 0.000000 0.000000 1.698050 
# 
# From -- ./inp_files/60125.got.cif
#   From: 2010.05.17/outbox.cif.g08.bks.cpg/sg65_31_cif.got.tgz:60125.got - 2010.06.03 17:01:31.
