data_PCOD9491448
_publ_section_title
;
Structure prediction by ZEFSAII (Michael W. Deem and Ramdas Pophale) SiO2 
 PCOD9491448
Probable space group: C M M M
;
_chemical_formula_sum "Si O2"
_cell_formula_units_Z 90
_cell_length_a 22.397549
_cell_length_b 22.685229
_cell_length_c 9.462937
_cell_angle_alpha 90.000000
_cell_angle_beta 90.000000
_cell_angle_gamma 90.000000
_cell_volume 4808.057047
_symmetry_space_group_name_H-M "C M M M"
_symmetry_group_IT_number 65
_symmetry_cell_setting 'orthorhombic'
loop_
_space_group_symop_operation_xyz
x,y,z
-x,-y,z
x,-y,-z
-x,y,-z
-x,-y,-z
x,y,-z
-x,y,z
x,-y,z
1/2+x,1/2+y,z
1/2-x,1/2-y,z
1/2+x,1/2-y,-z
1/2-x,1/2+y,-z
1/2-x,1/2-y,-z
1/2+x,1/2+y,-z
1/2-x,1/2+y,z
1/2+x,1/2-y,z
loop_
_atom_site_type_symbol
_atom_site_label
_atom_site_fract_x
_atom_site_fract_y
_atom_site_fract_z
Si Si1 0.703379 0.117225 0.168128
Si Si2 0.348559 0.500000 0.339588
Si Si3 0.500000 0.066982 0.288147
Si Si4 0.933916 0.221072 0.164405
Si Si5 0.098787 0.333360 0.664996
Si Si6 0.203987 0.500000 0.338281
Si Si7 0.000000 0.500000 0.000000
Si Si8 0.344457 0.383436 0.167401
O O1 0.659497 0.161850 0.244829
O O2 0.773831 0.128041 0.191520
O O3 0.687255 0.056373 0.246598
O O4 0.693076 0.113966 0.000000
O O5 0.371115 0.500000 0.500000
O O6 0.276047 0.500000 0.346031
O O7 0.363902 0.440610 0.255618
O O8 0.557066 0.108279 0.321940
O O9 0.500000 0.000000 0.351557
O O10 0.500000 0.050975 0.123455
O O11 0.932699 0.277056 0.266099
O O12 0.883902 0.173321 0.202012
O O13 0.000000 0.193611 0.171330
O O14 0.924225 0.239356 0.000000
O O15 0.111326 0.324957 0.500000
O O16 0.181161 0.500000 0.500000
O O17 0.351080 0.395923 0.000000
#
# Coordination Sequence:
#
# PCOD9491448 Si02
#       8
#    16   8   8  16  16   8   2  16
#     4  10  21  35  57  83 116 152 193 238 289 345
#     4   9  17  31  57  87 117 153 185 228 284 345
#     4  10  25  42  64  85 119 155 201 246 290 335
#     4  10  22  40  65  86 112 151 199 243 290 346
#     4  12  25  40  59  85 120 156 196 241 293 345
#     4   9  17  32  52  80 116 149 189 231 283 342
#     4   8  24  40  66  92 112 152 206 250 286 336
#     4   9  19  38  60  89 118 152 192 240 290 343
#
# _framework density 18.718579999999999
#
# number of rings (size 3 to 8) (size 9 to 14) (size 15 to 20)
#    0.267    1.778    0.889    1.867    3.733    4.978 
#    0.000    4.000    0.000    2.667    0.000    0.000 
#    0.000    0.000    0.000    0.000    0.000    0.000 
#
# Total GULP energy -250656.139194 kJ/mol
# GULP energy per Si atom -5570.136427 kJ/mol
# Density = 1.867598 g / cm^3
# Si number density = 18.718580 Si / 1000 Ang^3
#
#
#
# Elastic Constant Matrix: (Units=GPa)
#
#
# Indices 1 2 3 4 5 6 
#
# 1 81.9200 55.1363 54.5960 0.0000 0.0000 0.0000
# 2 55.1363 97.5264 58.4601 0.0000 0.0000 0.0000
# 3 54.5960 58.4601 132.9874 0.0000 0.0000 0.0000
# 4 0.0000 0.0000 0.0000 179.0800 0.0000 0.0000
# 5 0.0000 0.0000 0.0000 0.0000 3.1826 0.0000
# 6 0.0000 0.0000 0.0000 0.0000 0.0000 71.6652
#
#
#
# Elastic Compliance Matrix: (Units=1/GPa)
#
#
# Indices 1 2 3 4 5 6 
#
# 1 0.021735 -0.009422 -0.004781 0.000000 0.000000 0.000000
# 2 -0.009422 0.018006 -0.004047 0.000000 0.000000 0.000000
# 3 -0.004781 -0.004047 0.011262 0.000000 0.000000 0.000000
# 4 0.000000 0.000000 0.000000 0.005584 0.000000 0.000000
# 5 0.000000 0.000000 0.000000 0.000000 0.314208 0.000000
# 6 0.000000 0.000000 0.000000 0.000000 0.000000 0.013954
#
#
# Mechanical properties :
#
#
# Convention : Reuss Voigt Hill
#
# Bulk Modulus (GPa) = 68.95629 72.09096 70.52363
# Shear Modulus (GPa) = 11.73479 60.40165 36.06822
#
# Velocity S-wave (km/s) = 2.50653 5.68668 4.39437
# Velocity P-wave (km/s) = 6.73018 9.03960 7.96899
#
# Compressibility (1/GPa) = 0.01450194
#
# Stress axis : x y z
#
# Youngs Moduli (GPa) = 46.00923 55.53593 88.79740
#
# Poissons Ratio (x) = 0.52324 0.42456
# Poissons Ratio (y) = 0.43349 0.35941
# Poissons Ratio (z) = 0.21998 0.22478
#
# Static dielectric constant tensor:
#      x y z
#    x 1.654500 0.000000 0.000000 
#    y 0.000000 1.665330 0.000000 
#    z 0.000000 0.000000 1.626050 
# 
# From -- ./inp_files/14093.got.cif
#   From: 2010.05.17/outbox.cif.g08.bks.cpg/sg65_8_cif.got.tgz:14093.got - 2010.06.03 17:01:31.
