data_PCOD9491859
_publ_section_title
;
Structure prediction by ZEFSAII (Michael W. Deem and Ramdas Pophale) SiO2 
 PCOD9491859
Probable space group: C M M M
;
_chemical_formula_sum "Si O2"
_cell_formula_units_Z 60
_cell_length_a 19.725564
_cell_length_b 14.205050
_cell_length_c 11.880388
_cell_angle_alpha 90.000000
_cell_angle_beta 90.000000
_cell_angle_gamma 90.000000
_cell_volume 3328.915879
_symmetry_space_group_name_H-M "C M M M"
_symmetry_group_IT_number 65
_symmetry_cell_setting 'orthorhombic'
loop_
_space_group_symop_operation_xyz
x,y,z
-x,-y,z
x,-y,-z
-x,y,-z
-x,-y,-z
x,y,-z
-x,y,z
x,-y,z
1/2+x,1/2+y,z
1/2-x,1/2-y,z
1/2+x,1/2-y,-z
1/2-x,1/2+y,-z
1/2-x,1/2-y,-z
1/2+x,1/2+y,-z
1/2-x,1/2+y,z
1/2+x,1/2-y,z
loop_
_atom_site_type_symbol
_atom_site_label
_atom_site_fract_x
_atom_site_fract_y
_atom_site_fract_z
Si Si1 0.709530 0.000000 0.276628
Si Si2 0.865146 0.000000 0.361452
Si Si3 0.418920 0.301332 0.276220
Si Si4 0.880662 0.500000 0.500000
Si Si5 0.682382 0.812570 0.131126
Si Si6 0.423400 0.793965 0.500000
O O1 0.787385 0.000000 0.318957
O O2 0.692223 0.092937 0.204063
O O3 0.664810 0.000000 0.388863
O O4 0.900560 0.091812 0.307845
O O5 0.869306 0.000000 0.500000
O O6 0.500000 0.290990 0.262298
O O7 0.378979 0.253246 0.174245
O O8 0.392306 0.244236 0.385878
O O9 0.923142 0.405238 0.500000
O O10 0.750000 0.750000 0.143314
O O11 0.673584 0.836887 0.000000
O O12 0.500000 0.756115 0.500000
#
# Coordination Sequence:
#
# PCOD9491859 Si02
#       6
#     8   8  16   4  16   8
#     4  12  23  38  63  97 125 159 206 257 314 367
#     4  12  23  37  62  98 134 163 200 251 316 383
#     4  11  23  40  63  92 127 165 205 253 310 370
#     4  12  21  34  62  94 125 158 198 256 310 370
#     4  11  24  43  65  86 121 168 212 258 303 360
#     4  10  21  36  58  86 126 170 199 242 308 374
#
# _framework density 18.023885
#
# number of rings (size 3 to 8) (size 9 to 14) (size 15 to 20)
#    0.000    0.800    7.333    1.000    0.000    1.067 
#    0.000    5.333    0.000    3.200    0.000    0.000 
#    0.000    0.000    0.000    0.000    0.000    0.000 
#
# Total GULP energy -167405.471260 kJ/mol
# GULP energy per Si atom -5580.182375 kJ/mol
# Density = 1.798286 g / cm^3
# Si number density = 18.023885 Si / 1000 Ang^3
#
#
#
# Elastic Constant Matrix: (Units=GPa)
#
#
# Indices 1 2 3 4 5 6 
#
# 1 101.2852 25.5647 48.4880 0.0000 0.0000 0.0000
# 2 25.5647 124.7059 56.9485 0.0000 0.0000 0.0000
# 3 48.4880 56.9485 135.9942 0.0000 0.0000 0.0000
# 4 0.0000 0.0000 0.0000 19.1575 0.0000 0.0000
# 5 0.0000 0.0000 0.0000 0.0000 7.3414 0.0000
# 6 0.0000 0.0000 0.0000 0.0000 0.0000 25.1170
#
#
#
# Elastic Compliance Matrix: (Units=1/GPa)
#
#
# Indices 1 2 3 4 5 6 
#
# 1 0.011944 -0.000623 -0.003998 0.000000 0.000000 0.000000
# 2 -0.000623 0.009947 -0.003943 0.000000 0.000000 0.000000
# 3 -0.003998 -0.003943 0.010430 0.000000 0.000000 0.000000
# 4 0.000000 0.000000 0.000000 0.052199 0.000000 0.000000
# 5 0.000000 0.000000 0.000000 0.000000 0.136214 0.000000
# 6 0.000000 0.000000 0.000000 0.000000 0.000000 0.039814
#
#
# Mechanical properties :
#
#
# Convention : Reuss Voigt Hill
#
# Bulk Modulus (GPa) = 65.81859 69.33197 67.57528
# Shear Modulus (GPa) = 17.68401 25.72210 21.70306
#
# Velocity S-wave (km/s) = 3.13572 3.78181 3.47382
# Velocity P-wave (km/s) = 7.05032 7.59076 7.32553
#
# Compressibility (1/GPa) = 0.01519328
#
# Stress axis : x y z
#
# Youngs Moduli (GPa) = 83.72279 100.52887 95.87743
#
# Poissons Ratio (x) = 0.06262 0.38330
# Poissons Ratio (y) = 0.05215 0.37809
# Poissons Ratio (z) = 0.33470 0.39643
#
# Static dielectric constant tensor:
#      x y z
#    x 1.603710 0.000000 0.000000 
#    y 0.000000 1.601550 0.000000 
#    z 0.000000 0.000000 1.631290 
# 
# From -- ./inp_files/21962.got.cif
#   From: 2010.05.17/outbox.cif.g08.bks.cpg/sg65_11_cif.got.tgz:21962.got - 2010.06.03 17:01:31.
