data_PCOD9491444
_publ_section_title
;
Structure prediction by ZEFSAII (Michael W. Deem and Ramdas Pophale) SiO2 
 PCOD9491444
Probable space group: C M M M
;
_chemical_formula_sum "Si O2"
_cell_formula_units_Z 90
_cell_length_a 20.658308
_cell_length_b 25.136866
_cell_length_c 7.678548
_cell_angle_alpha 90.000000
_cell_angle_beta 90.000000
_cell_angle_gamma 90.000000
_cell_volume 3987.355719
_symmetry_space_group_name_H-M "C M M M"
_symmetry_group_IT_number 65
_symmetry_cell_setting 'orthorhombic'
loop_
_space_group_symop_operation_xyz
x,y,z
-x,-y,z
x,-y,-z
-x,y,-z
-x,-y,-z
x,y,-z
-x,y,z
x,-y,z
1/2+x,1/2+y,z
1/2-x,1/2-y,z
1/2+x,1/2-y,-z
1/2-x,1/2+y,-z
1/2-x,1/2-y,-z
1/2+x,1/2+y,-z
1/2-x,1/2+y,z
1/2+x,1/2-y,z
loop_
_atom_site_type_symbol
_atom_site_label
_atom_site_fract_x
_atom_site_fract_y
_atom_site_fract_z
Si Si1 0.430764 0.415443 0.798476
Si Si2 0.383388 0.304180 0.298897
Si Si3 0.210823 0.942124 0.211676
Si Si4 0.241099 0.329273 0.699879
Si Si5 0.500000 0.902293 0.785409
Si Si6 0.500000 0.000000 0.500000
Si Si7 0.097693 0.310024 0.197055
O O1 0.500000 0.429423 0.718095
O O2 0.421429 0.351566 0.792855
O O3 0.363820 0.438291 0.727380
O O4 0.432552 0.432281 0.000000
O O5 0.378671 0.320606 0.500000
O O6 0.308572 0.304214 0.232488
O O7 0.414212 0.246170 0.289520
O O8 0.247433 0.892383 0.290101
O O9 0.237655 0.000000 0.254957
O O10 0.211364 0.936328 0.000000
O O11 0.231947 0.311924 0.500000
O O12 0.174720 0.317785 0.795171
O O13 0.500000 0.952798 0.656995
O O14 0.438993 0.863200 0.744335
O O15 0.500000 0.913678 0.000000
O O16 0.076741 0.301549 0.000000
#
# Coordination Sequence:
#
# PCOD9491444 Si02
#       7
#    16  16  16  16   8   2  16
#     4   9  18  32  51  78 113 156 200 241 293 350
#     4  10  21  35  56  86 125 160 195 244 295 365
#     4   9  18  34  54  78 110 150 199 250 299 348
#     4  10  21  37  57  86 121 157 199 246 301 369
#     4  10  27  49  71 104 131 161 215 268 316 386
#     4  12  26  52  84  90 128 180 202 264 332 386
#     4  11  23  41  64  91 124 154 194 249 302 367
#
# _framework density 22.571349000000001
#
# number of rings (size 3 to 8) (size 9 to 14) (size 15 to 20)
#    0.000    2.133    0.000    2.267    3.733    5.333 
#    1.600    1.778    0.000    0.000    0.000    4.978 
#    0.000    0.000    0.000    0.000    0.000    0.000 
#
# Total GULP energy -250961.408270 kJ/mol
# GULP energy per Si atom -5576.920184 kJ/mol
# Density = 2.251998 g / cm^3
# Si number density = 22.571349 Si / 1000 Ang^3
#
#
#
# Elastic Constant Matrix: (Units=GPa)
#
#
# Indices 1 2 3 4 5 6 
#
# 1 66.6243 14.3413 10.3173 0.0000 0.0000 0.0000
# 2 14.3413 162.7230 28.2277 0.0000 0.0000 0.0000
# 3 10.3173 28.2277 69.0543 0.0000 0.0000 0.0000
# 4 0.0000 0.0000 0.0000 29.5441 0.0000 0.0000
# 5 0.0000 0.0000 0.0000 0.0000 -92.7481 0.0000
# 6 0.0000 0.0000 0.0000 0.0000 0.0000 -2.3465
#
#
#
# Elastic Compliance Matrix: (Units=1/GPa)
#
#
# Indices 1 2 3 4 5 6 
#
# 1 0.015527 -0.001040 -0.001895 0.000000 0.000000 0.000000
# 2 -0.001040 0.006684 -0.002577 0.000000 0.000000 0.000000
# 3 -0.001895 -0.002577 0.015818 0.000000 0.000000 0.000000
# 4 0.000000 0.000000 0.000000 0.033848 0.000000 0.000000
# 5 0.000000 0.000000 0.000000 0.000000 -0.010782 0.000000
# 6 0.000000 0.000000 0.000000 0.000000 0.000000 -0.426161
#
#
# Mechanical properties :
#
#
# Convention : Reuss Voigt Hill
#
# Bulk Modulus (GPa) = 37.02918 44.90825 40.96872
# Shear Modulus (GPa) = -14.49102 3.25757 -5.61672
#
# Velocity S-wave (km/s) = -2.53654 1.20265 -1.57919
# Velocity P-wave (km/s) = 2.80398 4.67630 3.85552
#
# Compressibility (1/GPa) = 0.02700573
#
# Stress axis : x y z
#
# Youngs Moduli (GPa) = 64.40486 149.60938 63.21976
#
# Poissons Ratio (x) = 0.15555 0.11979
# Poissons Ratio (y) = 0.06696 0.16291
# Poissons Ratio (z) = 0.12203 0.38553
#
# Static dielectric constant tensor:
#      x y z
#    x 1.855030 0.000000 0.000000 
#    y 0.000000 1.829160 0.000000 
#    z 0.000000 0.000000 1.850350 
# 
# From -- ./inp_files/11876.got.cif
#   From: 2010.05.17/outbox.cif.g08.bks.cpg/sg65_6_cif.got.tgz:11876.got - 2010.06.03 17:01:31.
