data_PCOD9491322
_publ_section_title
;
Structure prediction by ZEFSAII (Michael W. Deem and Ramdas Pophale) SiO2 
 PCOD9491322
Probable space group: C M M M
;
_chemical_formula_sum "Si O2"
_cell_formula_units_Z 120
_cell_length_a 27.889050
_cell_length_b 28.207721
_cell_length_c 8.712723
_cell_angle_alpha 90.000000
_cell_angle_beta 90.000000
_cell_angle_gamma 90.000000
_cell_volume 6854.181923
_symmetry_space_group_name_H-M "C M M M"
_symmetry_group_IT_number 65
_symmetry_cell_setting 'orthorhombic'
loop_
_space_group_symop_operation_xyz
x,y,z
-x,-y,z
x,-y,-z
-x,y,-z
-x,-y,-z
x,y,-z
-x,y,z
x,-y,z
1/2+x,1/2+y,z
1/2-x,1/2-y,z
1/2+x,1/2-y,-z
1/2-x,1/2+y,-z
1/2-x,1/2-y,-z
1/2+x,1/2+y,-z
1/2-x,1/2+y,z
1/2+x,1/2-y,z
loop_
_atom_site_type_symbol
_atom_site_label
_atom_site_fract_x
_atom_site_fract_y
_atom_site_fract_z
Si Si1 0.396918 0.784964 0.316740
Si Si2 0.304374 0.261137 0.184658
Si Si3 0.554312 0.686398 0.685086
Si Si4 0.906663 0.387457 0.816057
Si Si5 0.286893 0.445481 0.814536
Si Si6 0.000000 0.554175 0.812918
Si Si7 0.853618 0.139641 0.184267
Si Si8 0.317911 0.944840 0.683683
O O1 0.399458 0.789197 0.500000
O O2 0.342896 0.772576 0.265205
O O3 0.428717 0.739438 0.268820
O O4 0.412265 0.833861 0.240745
O O5 0.250000 0.250000 0.229346
O O6 0.320189 0.314912 0.221719
O O7 0.308324 0.255129 0.000000
O O8 0.555194 0.685056 0.500000
O O9 0.500000 0.677146 0.736814
O O10 0.594393 0.650532 0.746617
O O11 0.952216 0.418451 0.764456
O O12 0.858421 0.410922 0.751071
O O13 0.904489 0.388157 0.000000
O O14 0.297663 0.500000 0.771495
O O15 0.327094 0.408093 0.764098
O O16 0.234842 0.433064 0.747191
O O17 0.283724 0.443223 0.000000
O O18 0.000000 0.500000 0.759937
O O19 0.000000 0.553729 0.000000
O O20 0.858165 0.138034 0.000000
O O21 0.317722 0.941677 0.500000
O O22 0.327787 0.000000 0.726944
#
# Coordination Sequence:
#
# PCOD9491322 Si02
#       8
#    16  16  16  16  16   8  16  16
#     4  10  21  35  51  76 106 137 173 213 261 313
#     4   9  18  32  50  73 104 139 173 213 259 308
#     4   9  19  36  56  76 103 140 175 213 263 321
#     4  11  22  36  56  78 102 135 176 222 271 319
#     4   9  18  33  54  80 110 144 178 212 257 314
#     4   9  20  38  57  77  99 129 175 227 274 319
#     4   9  18  32  51  78 106 136 175 218 262 309
#     4  10  21  36  53  77 107 138 176 219 263 313
#
# _framework density 17.507560000000002
#
# number of rings (size 3 to 8) (size 9 to 14) (size 15 to 20)
#    0.000    2.467    0.000    1.600    2.800    2.933 
#    0.000    1.000    0.000    2.800    0.000    2.800 
#    0.000    0.000    0.000    0.000    0.000    0.000 
#
# Total GULP energy -334832.251914 kJ/mol
# GULP energy per Si atom -5580.537532 kJ/mol
# Density = 1.746771 g / cm^3
# Si number density = 17.507560 Si / 1000 Ang^3
#
#
#
# Elastic Constant Matrix: (Units=GPa)
#
#
# Indices 1 2 3 4 5 6 
#
# 1 154.8918 85.4428 30.5872 0.0000 0.0000 0.0000
# 2 85.4428 116.5064 28.5828 0.0000 0.0000 0.0000
# 3 30.5872 28.5828 18.8706 0.0000 0.0000 0.0000
# 4 0.0000 0.0000 0.0000 16.2605 0.0000 0.0000
# 5 0.0000 0.0000 0.0000 0.0000 12.1748 0.0000
# 6 0.0000 0.0000 0.0000 0.0000 0.0000 19.4726
#
#
#
# Elastic Compliance Matrix: (Units=1/GPa)
#
#
# Indices 1 2 3 4 5 6 
#
# 1 0.011846 -0.006329 -0.009615 0.000000 0.000000 0.000000
# 2 -0.006329 0.017040 -0.015552 0.000000 0.000000 0.000000
# 3 -0.009615 -0.015552 0.092133 0.000000 0.000000 0.000000
# 4 0.000000 0.000000 0.000000 0.061499 0.000000 0.000000
# 5 0.000000 0.000000 0.000000 0.000000 0.082137 0.000000
# 6 0.000000 0.000000 0.000000 0.000000 0.000000 0.051354
#
#
# Mechanical properties :
#
#
# Convention : Reuss Voigt Hill
#
# Bulk Modulus (GPa) = 17.23306 64.38828 40.81067
# Shear Modulus (GPa) = 12.55201 19.29198 15.92199
#
# Velocity S-wave (km/s) = 2.68049 3.32312 3.01896
# Velocity P-wave (km/s) = 4.40961 7.18202 5.95928
#
# Compressibility (1/GPa) = 0.05802801
#
# Stress axis : x y z
#
# Youngs Moduli (GPa) = 84.41746 58.68638 10.85383
#
# Poissons Ratio (x) = 0.37140 0.10436
# Poissons Ratio (y) = 0.53424 0.16880
# Poissons Ratio (z) = 0.81170 0.91267
#
# Static dielectric constant tensor:
#      x y z
#    x 1.572140 0.000000 0.000000 
#    y 0.000000 1.590400 0.000000 
#    z 0.000000 0.000000 1.589080 
# 
# From -- ./inp_files/17122.got.cif
#   From: 2010.05.17/outbox.cif.g08.bks.cpg/sg65_9_cif.got.tgz:17122.got - 2010.06.03 17:01:31.
