data_PCOD9491492
_publ_section_title
;
Structure prediction by ZEFSAII (Michael W. Deem and Ramdas Pophale) SiO2 
 PCOD9491492
Probable space group: C M M M
;
_chemical_formula_sum "Si O2"
_cell_formula_units_Z 72
_cell_length_a 19.308834
_cell_length_b 8.505264
_cell_length_c 24.405043
_cell_angle_alpha 90.000000
_cell_angle_beta 90.000000
_cell_angle_gamma 90.000000
_cell_volume 4007.960425
_symmetry_space_group_name_H-M "C M M M"
_symmetry_group_IT_number 65
_symmetry_cell_setting 'orthorhombic'
loop_
_space_group_symop_operation_xyz
x,y,z
-x,-y,z
x,-y,-z
-x,y,-z
-x,-y,-z
x,y,-z
-x,y,z
x,-y,z
1/2+x,1/2+y,z
1/2-x,1/2-y,z
1/2+x,1/2-y,-z
1/2-x,1/2+y,-z
1/2-x,1/2-y,-z
1/2+x,1/2+y,-z
1/2-x,1/2+y,z
1/2+x,1/2-y,z
loop_
_atom_site_type_symbol
_atom_site_label
_atom_site_fract_x
_atom_site_fract_y
_atom_site_fract_z
Si Si1 0.171752 0.187201 0.500000
Si Si2 0.171991 0.811730 0.938675
Si Si3 0.084213 0.682293 0.720644
Si Si4 0.919802 0.690435 0.839596
Si Si5 0.919202 0.308934 0.399632
O O1 0.250000 0.250000 0.500000
O O2 0.129984 0.247160 0.553072
O O3 0.173000 0.000000 0.500000
O O4 0.250000 0.750000 0.932008
O O5 0.124876 0.747697 0.890188
O O6 0.172526 0.000000 0.936705
O O7 0.148227 0.763234 0.000000
O O8 0.106855 0.500000 0.720035
O O9 0.105561 0.749818 0.779608
O O10 0.102778 0.749572 0.661189
O O11 0.000000 0.681178 0.721631
O O12 0.918326 0.500000 0.837645
O O13 0.000000 0.738050 0.846418
O O14 0.917314 0.500000 0.399152
O O15 0.000000 0.264990 0.409009
#
# Coordination Sequence:
#
# PCOD9491492 Si02
#       5
#     8  16  16  16  16
#     4  12  25  38  51  71 103 137 171 212 255 296
#     4  10  21  36  52  70  96 132 173 214 254 298
#     4   7  12  26  50  78 104 130 161 198 240 290
#     4   9  17  31  53  80 107 133 163 201 246 296
#     4   9  17  33  58  82 103 131 167 203 244 298
#
# _framework density 17.96425
#
# number of rings (size 3 to 8) (size 9 to 14) (size 15 to 20)
#    0.000    2.889    0.000    4.667    0.000    4.000 
#    0.000    4.444    0.000    4.000    0.000    0.000 
#    0.000    0.000    0.000    0.000    0.000    0.000 
#
# Total GULP energy -200529.791484 kJ/mol
# GULP energy per Si atom -5570.271986 kJ/mol
# Density = 1.792336 g / cm^3
# Si number density = 17.964250 Si / 1000 Ang^3
#
#
#
# Elastic Constant Matrix: (Units=GPa)
#
#
# Indices 1 2 3 4 5 6 
#
# 1 76.8836 24.6322 99.8007 0.0000 0.0000 0.0000
# 2 24.6322 25.4116 38.0166 0.0000 0.0000 0.0000
# 3 99.8007 38.0166 236.3021 0.0000 0.0000 0.0000
# 4 0.0000 0.0000 0.0000 16.1476 0.0000 0.0000
# 5 0.0000 0.0000 0.0000 0.0000 -23.3402 0.0000
# 6 0.0000 0.0000 0.0000 0.0000 0.0000 24.4076
#
#
#
# Elastic Compliance Matrix: (Units=1/GPa)
#
#
# Indices 1 2 3 4 5 6 
#
# 1 0.032340 -0.014374 -0.011346 0.000000 0.000000 0.000000
# 2 -0.014374 0.058214 -0.003295 0.000000 0.000000 0.000000
# 3 -0.011346 -0.003295 0.009554 0.000000 0.000000 0.000000
# 4 0.000000 0.000000 0.000000 0.061929 0.000000 0.000000
# 5 0.000000 0.000000 0.000000 0.000000 -0.042845 0.000000
# 6 0.000000 0.000000 0.000000 0.000000 0.000000 0.040971
#
#
# Mechanical properties :
#
#
# Convention : Reuss Voigt Hill
#
# Bulk Modulus (GPa) = 23.76510 73.72182 48.74346
# Shear Modulus (GPa) = 21.53145 15.18620 18.35882
#
# Velocity S-wave (km/s) = 3.46580 2.91066 3.20029
# Velocity P-wave (km/s) = 5.41050 7.24038 6.39127
#
# Compressibility (1/GPa) = 0.04207851
#
# Stress axis : x y z
#
# Youngs Moduli (GPa) = 30.92171 17.17789 104.66957
#
# Poissons Ratio (x) = 0.24691 1.18758
# Poissons Ratio (y) = 0.44446 0.34488
# Poissons Ratio (z) = 0.35084 0.05660
#
# Static dielectric constant tensor:
#      x y z
#    x 1.575640 0.000000 0.000000 
#    y 0.000000 1.620020 0.000000 
#    z 0.000000 0.000000 1.660590 
# 
# From -- ./inp_files/70356.got.cif
#   From: 2010.05.17/outbox.cif.g08.bks.cpg/sg65_36_cif.got.tgz:70356.got - 2010.06.03 17:01:31.
