data_PCOD9491706
_publ_section_title
;
Structure prediction by ZEFSAII (Michael W. Deem and Ramdas Pophale) SiO2 
 PCOD9491706
Probable space group: C M M M
;
_chemical_formula_sum "Si O2"
_cell_formula_units_Z 88
_cell_length_a 8.621044
_cell_length_b 20.148086
_cell_length_c 28.538031
_cell_angle_alpha 90.000000
_cell_angle_beta 90.000000
_cell_angle_gamma 90.000000
_cell_volume 4956.985665
_symmetry_space_group_name_H-M "C M M M"
_symmetry_group_IT_number 65
_symmetry_cell_setting 'orthorhombic'
loop_
_space_group_symop_operation_xyz
x,y,z
-x,-y,z
x,-y,-z
-x,y,-z
-x,-y,-z
x,y,-z
-x,y,z
x,-y,z
1/2+x,1/2+y,z
1/2-x,1/2-y,z
1/2+x,1/2-y,-z
1/2-x,1/2+y,-z
1/2-x,1/2-y,-z
1/2+x,1/2+y,-z
1/2-x,1/2+y,z
1/2+x,1/2-y,z
loop_
_atom_site_type_symbol
_atom_site_label
_atom_site_fract_x
_atom_site_fract_y
_atom_site_fract_z
Si Si1 0.686841 0.077178 0.260875
Si Si2 0.687521 0.176284 0.553161
Si Si3 0.686336 0.922503 0.000000
Si Si4 0.184975 0.821853 0.814634
Si Si5 0.689165 0.076289 0.633489
Si Si6 0.186419 0.822953 0.923113
O O1 0.500000 0.081440 0.259138
O O2 0.755677 0.123062 0.220932
O O3 0.736111 0.096410 0.313801
O O4 0.729227 0.000000 0.254137
O O5 0.733112 0.157050 0.500000
O O6 0.500000 0.177981 0.554536
O O7 0.750000 0.250000 0.562002
O O8 0.742414 0.125210 0.592705
O O9 0.748031 0.881087 0.955532
O O10 0.500000 0.921030 0.000000
O O11 0.735570 0.000000 0.000000
O O12 0.250000 0.750000 0.800930
O O13 0.232257 0.834060 0.868756
O O14 0.000000 0.819668 0.813626
O O15 0.500000 0.076514 0.633061
O O16 0.737114 0.000000 0.625616
O O17 0.250000 0.750000 0.936937
O O18 0.000000 0.821716 0.926631
#
# Coordination Sequence:
#
# PCOD9491706 Si02
#       6
#    16  16   8  16  16  16
#     4   9  18  33  52  73 101 136 168 204 254 306
#     4   9  17  29  46  68  94 124 158 199 246 294
#     4  11  24  39  56  81 111 141 174 211 250 297
#     4  10  21  36  55  79 105 134 171 213 253 298
#     4   8  15  29  48  70  95 124 162 204 244 290
#     4  10  21  38  59  80 105 138 173 211 255 301
#
# _framework density 17.752724000000001
#
# number of rings (size 3 to 8) (size 9 to 14) (size 15 to 20)
#    0.000    2.636    0.000    2.727    0.000    5.091 
#    0.000    8.182    0.000    1.636    0.000    2.545 
#    0.000    0.000    0.000    0.000    0.000    0.000 
#
# Total GULP energy -245415.781884 kJ/mol
# GULP energy per Si atom -5577.631406 kJ/mol
# Density = 1.771232 g / cm^3
# Si number density = 17.752724 Si / 1000 Ang^3
#
#
#
# Elastic Constant Matrix: (Units=GPa)
#
#
# Indices 1 2 3 4 5 6 
#
# 1 21.2468 35.3102 33.3748 0.0000 0.0000 0.0000
# 2 35.3102 139.2233 117.3161 0.0000 0.0000 0.0000
# 3 33.3748 117.3161 144.9110 0.0000 0.0000 0.0000
# 4 0.0000 0.0000 0.0000 46.3696 0.0000 0.0000
# 5 0.0000 0.0000 0.0000 0.0000 17.6005 0.0000
# 6 0.0000 0.0000 0.0000 0.0000 0.0000 30.5222
#
#
#
# Elastic Compliance Matrix: (Units=1/GPa)
#
#
# Indices 1 2 3 4 5 6 
#
# 1 0.083287 -0.015606 -0.006548 0.000000 0.000000 0.000000
# 2 -0.015606 0.025524 -0.017070 0.000000 0.000000 0.000000
# 3 -0.006548 -0.017070 0.022228 0.000000 0.000000 0.000000
# 4 0.000000 0.000000 0.000000 0.021566 0.000000 0.000000
# 5 0.000000 0.000000 0.000000 0.000000 0.056816 0.000000
# 6 0.000000 0.000000 0.000000 0.000000 0.000000 0.032763
#
#
# Mechanical properties :
#
#
# Convention : Reuss Voigt Hill
#
# Bulk Modulus (GPa) = 19.01407 75.26482 47.13944
# Shear Modulus (GPa) = 14.78577 26.85713 20.82145
#
# Velocity S-wave (km/s) = 2.88909 3.89375 3.42842
# Velocity P-wave (km/s) = 4.67577 7.91854 6.50254
#
# Compressibility (1/GPa) = 0.05259264
#
# Stress axis : x y z
#
# Youngs Moduli (GPa) = 12.00662 39.17825 44.98843
#
# Poissons Ratio (x) = 0.61142 0.29458
# Poissons Ratio (y) = 0.18738 0.76793
# Poissons Ratio (z) = 0.07862 0.66876
#
# Static dielectric constant tensor:
#      x y z
#    x 1.605610 0.000000 0.000000 
#    y 0.000000 1.571330 0.000000 
#    z 0.000000 0.000000 1.614470 
# 
# From -- ./inp_files/70992.got.cif
#   From: 2010.05.17/outbox.cif.g08.bks.cpg/sg65_36_cif.got.tgz:70992.got - 2010.06.03 17:01:31.
