data_PCOD9491607
_publ_section_title
;
Structure prediction by ZEFSAII (Michael W. Deem and Ramdas Pophale) SiO2 
 PCOD9491607
Probable space group: C M M M
;
_chemical_formula_sum "Si O2"
_cell_formula_units_Z 88
_cell_length_a 7.953198
_cell_length_b 18.396178
_cell_length_c 30.275454
_cell_angle_alpha 90.000000
_cell_angle_beta 90.000000
_cell_angle_gamma 90.000000
_cell_volume 4429.554629
_symmetry_space_group_name_H-M "C M M M"
_symmetry_group_IT_number 65
_symmetry_cell_setting 'orthorhombic'
loop_
_space_group_symop_operation_xyz
x,y,z
-x,-y,z
x,-y,-z
-x,y,-z
-x,-y,-z
x,y,-z
-x,y,z
x,-y,z
1/2+x,1/2+y,z
1/2-x,1/2-y,z
1/2+x,1/2-y,-z
1/2-x,1/2+y,-z
1/2-x,1/2-y,-z
1/2+x,1/2+y,-z
1/2-x,1/2+y,z
1/2+x,1/2-y,z
loop_
_atom_site_type_symbol
_atom_site_label
_atom_site_fract_x
_atom_site_fract_y
_atom_site_fract_z
Si Si1 0.201963 0.083540 0.262391
Si Si2 0.701887 0.582372 0.911587
Si Si3 0.797594 0.587685 0.452521
Si Si4 0.698850 0.834025 0.000000
Si Si5 0.297340 0.915236 0.357584
Si Si6 0.703119 0.666067 0.175356
O O1 0.244303 0.116089 0.310485
O O2 0.264689 0.129129 0.220676
O O3 0.000000 0.080311 0.259552
O O4 0.265669 0.000000 0.260120
O O5 0.500000 0.578310 0.907361
O O6 0.767160 0.500000 0.914312
O O7 0.737930 0.626267 0.956010
O O8 0.765655 0.623588 0.867991
O O9 0.730698 0.614659 0.500000
O O10 0.772197 0.500000 0.451900
O O11 0.735942 0.615691 0.404817
O O12 0.000000 0.598290 0.453216
O O13 0.750000 0.750000 0.000000
O O14 0.500000 0.838352 0.000000
O O15 0.500000 0.915018 0.358888
O O16 0.241472 0.000000 0.356379
O O17 0.500000 0.661138 0.175490
O O18 0.750000 0.750000 0.173151
#
# Coordination Sequence:
#
# PCOD9491607 Si02
#       6
#    16  16  16   8  16  16
#     4   9  17  30  47  66  91 124 159 194 237 291
#     4  10  21  39  62  85 110 141 176 213 255 303
#     4   7   9  14  26  46  74 108 144 182 225 273
#     4  12  25  40  59  85 117 149 181 216 255 298
#     4   8  13  21  35  57  83 112 150 193 233 276
#     4  10  21  36  54  76 101 131 167 206 248 295
#
# _framework density 19.866555000000002
#
# number of rings (size 3 to 8) (size 9 to 14) (size 15 to 20)
#    0.000    2.909    0.000    3.818    0.000    6.545 
#    0.000    0.000    0.000    3.818    0.000    3.818 
#    0.000    0.727    0.000    1.636    0.000    4.364 
#
# Total GULP energy -245149.417485 kJ/mol
# GULP energy per Si atom -5571.577670 kJ/mol
# Density = 1.982134 g / cm^3
# Si number density = 19.866555 Si / 1000 Ang^3
#
#
#
# Elastic Constant Matrix: (Units=GPa)
#
#
# Indices 1 2 3 4 5 6 
#
# 1 15.5649 4.0135 10.0802 0.0000 0.0000 0.0000
# 2 4.0135 95.6277 90.3667 0.0000 0.0000 0.0000
# 3 10.0802 90.3667 262.1862 0.0000 0.0000 0.0000
# 4 0.0000 0.0000 0.0000 -2.8970 0.0000 0.0000
# 5 0.0000 0.0000 0.0000 0.0000 22.3466 0.0000
# 6 0.0000 0.0000 0.0000 0.0000 0.0000 17.1162
#
#
#
# Elastic Compliance Matrix: (Units=1/GPa)
#
#
# Indices 1 2 3 4 5 6 
#
# 1 0.065907 -0.000551 -0.002344 0.000000 0.000000 0.000000
# 2 -0.000551 0.015513 -0.005326 0.000000 0.000000 0.000000
# 3 -0.002344 -0.005326 0.005740 0.000000 0.000000 0.000000
# 4 0.000000 0.000000 0.000000 -0.345180 0.000000 0.000000
# 5 0.000000 0.000000 0.000000 0.000000 0.044750 0.000000
# 6 0.000000 0.000000 0.000000 0.000000 0.000000 0.058424
#
#
# Mechanical properties :
#
#
# Convention : Reuss Voigt Hill
#
# Bulk Modulus (GPa) = 14.14058 64.69995 39.42026
# Shear Modulus (GPa) = -43.54186 25.24105 -9.15041
#
# Velocity S-wave (km/s) = -4.68666 3.56832 -2.14847
# Velocity P-wave (km/s) = 4.70671 7.04380 3.70554
#
# Compressibility (1/GPa) = 0.07071847
#
# Stress axis : x y z
#
# Youngs Moduli (GPa) = 15.17288 64.46217 174.22328
#
# Poissons Ratio (x) = 0.03552 0.40837
# Poissons Ratio (y) = 0.00836 0.92785
# Poissons Ratio (z) = 0.03556 0.34330
#
# Static dielectric constant tensor:
#      x y z
#    x 1.721650 0.000000 0.000000 
#    y 0.000000 1.656610 0.000000 
#    z 0.000000 0.000000 1.773430 
# 
# From -- ./inp_files/76462.got.cif
#   From: 2010.05.17/outbox.cif.g08.bks.cpg/sg65_39_cif.got.tgz:76462.got - 2010.06.03 17:01:31.
