data_PCOD9491302
_publ_section_title
;
Structure prediction by ZEFSAII (Michael W. Deem and Ramdas Pophale) SiO2 
 PCOD9491302
Probable space group: C M M M
;
_chemical_formula_sum "Si O2"
_cell_formula_units_Z 88
_cell_length_a 19.941508
_cell_length_b 7.556009
_cell_length_c 29.255337
_cell_angle_alpha 90.000000
_cell_angle_beta 90.000000
_cell_angle_gamma 90.000000
_cell_volume 4408.141927
_symmetry_space_group_name_H-M "C M M M"
_symmetry_group_IT_number 65
_symmetry_cell_setting 'orthorhombic'
loop_
_space_group_symop_operation_xyz
x,y,z
-x,-y,z
x,-y,-z
-x,y,-z
-x,-y,-z
x,y,-z
-x,y,z
x,-y,z
1/2+x,1/2+y,z
1/2-x,1/2-y,z
1/2+x,1/2-y,-z
1/2-x,1/2+y,-z
1/2-x,1/2-y,-z
1/2+x,1/2+y,-z
1/2-x,1/2+y,z
1/2+x,1/2-y,z
loop_
_atom_site_type_symbol
_atom_site_label
_atom_site_fract_x
_atom_site_fract_y
_atom_site_fract_z
Si Si1 0.576573 0.711615 0.581253
Si Si2 0.328053 0.212395 0.132384
Si Si3 0.327989 0.787507 0.765304
Si Si4 0.076207 0.712957 0.314735
Si Si5 0.829032 0.212740 0.500000
Si Si6 0.922542 0.283960 0.051249
O O1 0.500000 0.780087 0.574781
O O2 0.572751 0.500000 0.575533
O O3 0.597345 0.745767 0.633490
O O4 0.630184 0.778642 0.544489
O O5 0.250000 0.250000 0.123498
O O6 0.344186 0.279537 0.183538
O O7 0.374931 0.279861 0.091776
O O8 0.336025 0.000000 0.133580
O O9 0.250000 0.750000 0.756364
O O10 0.374901 0.719352 0.724765
O O11 0.335616 0.000000 0.766598
O O12 0.074449 0.500000 0.311200
O O13 0.000000 0.778726 0.308975
O O14 0.750000 0.250000 0.500000
O O15 0.834088 0.000000 0.500000
O O16 0.921033 0.500000 0.051464
O O17 0.000000 0.232593 0.058402
O O18 0.902138 0.228440 0.000000
#
# Coordination Sequence:
#
# PCOD9491302 Si02
#       6
#    16  16  16  16   8  16
#     4   9  18  34  54  72  92 122 157 188 221 265
#     4   9  17  29  45  65  89 118 151 185 223 268
#     4   9  18  31  46  65  91 122 152 184 224 269
#     4   9  18  32  49  70  94 118 149 190 230 266
#     4  10  21  35  51  73  99 124 152 188 226 266
#     4   8  14  25  42  65  90 114 145 187 229 267
#
# _framework density 19.963059999999999
#
# number of rings (size 3 to 8) (size 9 to 14) (size 15 to 20)
#    0.000    3.091    0.000    0.818    0.000    4.364 
#    0.000    7.273    0.000    3.273    0.000    6.364 
#    0.000    0.000    0.000    0.000    0.000    0.000 
#
# Total GULP energy -245377.346202 kJ/mol
# GULP energy per Si atom -5576.757868 kJ/mol
# Density = 1.991762 g / cm^3
# Si number density = 19.963060 Si / 1000 Ang^3
#
#
#
# Elastic Constant Matrix: (Units=GPa)
#
#
# Indices 1 2 3 4 5 6 
#
# 1 127.5859 2.9388 156.0117 0.0000 0.0000 0.0000
# 2 2.9388 48.1227 6.5409 0.0000 0.0000 0.0000
# 3 156.0117 6.5409 235.8796 0.0000 0.0000 0.0000
# 4 0.0000 0.0000 0.0000 -2.4874 0.0000 0.0000
# 5 0.0000 0.0000 0.0000 0.0000 42.7219 0.0000
# 6 0.0000 0.0000 0.0000 0.0000 0.0000 19.0636
#
#
#
# Elastic Compliance Matrix: (Units=1/GPa)
#
#
# Indices 1 2 3 4 5 6 
#
# 1 0.041053 0.001188 -0.027185 0.000000 0.000000 0.000000
# 2 0.001188 0.020893 -0.001365 0.000000 0.000000 0.000000
# 3 -0.027185 -0.001365 0.022258 0.000000 0.000000 0.000000
# 4 0.000000 0.000000 0.000000 -0.402030 0.000000 0.000000
# 5 0.000000 0.000000 0.000000 0.000000 0.023407 0.000000
# 6 0.000000 0.000000 0.000000 0.000000 0.000000 0.052456
#
#
# Mechanical properties :
#
#
# Convention : Reuss Voigt Hill
#
# Bulk Modulus (GPa) = 33.92269 82.50789 58.21529
# Shear Modulus (GPa) = -28.18291 28.26609 0.04159
#
# Velocity S-wave (km/s) = -3.76141 3.76695 0.14450
# Velocity P-wave (km/s) = 1.35448 7.76788 5.40857
#
# Compressibility (1/GPa) = 0.02947879
#
# Stress axis : x y z
#
# Youngs Moduli (GPa) = 24.35897 47.86239 44.92810
#
# Poissons Ratio (x) = -0.05686 1.22138
# Poissons Ratio (y) = -0.02894 0.06133
# Poissons Ratio (z) = 0.66221 0.06534
#
# Static dielectric constant tensor:
#      x y z
#    x 1.668860 0.000000 0.000000 
#    y 0.000000 1.764100 0.000000 
#    z 0.000000 0.000000 1.705460 
# 
# From -- ./inp_files/61476.got.cif
#   From: 2010.05.17/outbox.cif.g08.bks.cpg/sg65_31_cif.got.tgz:61476.got - 2010.06.03 17:01:31.
