data_PCOD9491038
_publ_section_title
;
Structure prediction by ZEFSAII (Michael W. Deem and Ramdas Pophale) SiO2 
 PCOD9491038
Probable space group: C M M M
;
_chemical_formula_sum "Si O2"
_cell_formula_units_Z 74
_cell_length_a 14.019534
_cell_length_b 15.213334
_cell_length_c 19.757802
_cell_angle_alpha 90.000000
_cell_angle_beta 90.000000
_cell_angle_gamma 90.000000
_cell_volume 4214.020143
_symmetry_space_group_name_H-M "C M M M"
_symmetry_group_IT_number 65
_symmetry_cell_setting 'orthorhombic'
loop_
_space_group_symop_operation_xyz
x,y,z
-x,-y,z
x,-y,-z
-x,y,-z
-x,-y,-z
x,y,-z
-x,y,z
x,-y,z
1/2+x,1/2+y,z
1/2-x,1/2-y,z
1/2+x,1/2-y,-z
1/2-x,1/2+y,-z
1/2-x,1/2-y,-z
1/2+x,1/2+y,-z
1/2-x,1/2+y,z
1/2+x,1/2-y,z
loop_
_atom_site_type_symbol
_atom_site_label
_atom_site_fract_x
_atom_site_fract_y
_atom_site_fract_z
Si Si1 0.611257 0.500000 0.271744
Si Si2 0.835528 0.000000 0.885998
Si Si3 0.500000 0.500000 0.000000
Si Si4 0.108695 0.394480 0.574527
Si Si5 0.198269 0.344770 0.143930
Si Si6 0.000000 0.604566 0.918918
Si Si7 0.764063 0.646014 0.703765
O O1 0.500000 0.500000 0.290288
O O2 0.621295 0.500000 0.190090
O O3 0.669010 0.414089 0.297530
O O4 0.767772 0.084991 0.891129
O O5 0.916938 0.000000 0.941067
O O6 0.142925 0.363721 0.500000
O O7 0.104916 0.500000 0.571603
O O8 0.172552 0.372996 0.638558
O O9 0.000000 0.362369 0.583668
O O10 0.250000 0.250000 0.141042
O O11 0.094821 0.349988 0.110347
O O12 0.189321 0.373486 0.222869
O O13 0.000000 0.500000 0.901136
O O14 0.000000 0.610876 0.000000
O O15 0.750000 0.750000 0.703939
#
# Coordination Sequence:
#
# PCOD9491038 Si02
#       7
#     8   8   2  16  16   8  16
#     4  10  20  40  59  80 117 156 191 244 296 342
#     4  10  22  41  59  83 117 151 200 245 293 361
#     4  12  24  36  68  86 108 170 194 244 308 370
#     4   9  18  33  56  87 119 150 189 238 291 350
#     4  10  23  42  61  88 121 153 203 249 294 365
#     4  11  24  41  65  89 120 164 195 249 316 347
#     4  10  21  37  60  87 113 156 198 243 292 346
#
# _framework density 17.560428999999999
#
# number of rings (size 3 to 8) (size 9 to 14) (size 15 to 20)
#    0.000    2.054    2.703    0.649    3.027    2.595 
#   11.676    0.000    0.000    1.297    0.000    0.000 
#    0.000    0.000    0.000    0.000    0.000    0.000 
#
# Total GULP energy -206002.357368 kJ/mol
# GULP energy per Si atom -5567.631280 kJ/mol
# Density = 1.752046 g / cm^3
# Si number density = 17.560429 Si / 1000 Ang^3
#
#
#
# Elastic Constant Matrix: (Units=GPa)
#
#
# Indices 1 2 3 4 5 6 
#
# 1 158.4451 56.6102 97.4823 0.0000 0.0000 0.0000
# 2 56.6102 90.6625 35.6513 0.0000 0.0000 0.0000
# 3 97.4823 35.6513 131.7966 0.0000 0.0000 0.0000
# 4 0.0000 0.0000 0.0000 5.3506 0.0000 0.0000
# 5 0.0000 0.0000 0.0000 0.0000 32.1221 0.0000
# 6 0.0000 0.0000 0.0000 0.0000 0.0000 12.5808
#
#
#
# Elastic Compliance Matrix: (Units=1/GPa)
#
#
# Indices 1 2 3 4 5 6 
#
# 1 0.013323 -0.004973 -0.008509 0.000000 0.000000 0.000000
# 2 -0.004973 0.014199 -0.000163 0.000000 0.000000 0.000000
# 3 -0.008509 -0.000163 0.013925 0.000000 0.000000 0.000000
# 4 0.000000 0.000000 0.000000 0.186896 0.000000 0.000000
# 5 0.000000 0.000000 0.000000 0.000000 0.031131 0.000000
# 6 0.000000 0.000000 0.000000 0.000000 0.000000 0.079486
#
#
# Mechanical properties :
#
#
# Convention : Reuss Voigt Hill
#
# Bulk Modulus (GPa) = 70.63252 84.48797 77.56024
# Shear Modulus (GPa) = 13.47815 22.75473 18.11644
#
# Velocity S-wave (km/s) = 2.77344 3.60362 3.21544
# Velocity P-wave (km/s) = 7.11096 8.09518 7.61898
#
# Compressibility (1/GPa) = 0.01415779
#
# Stress axis : x y z
#
# Youngs Moduli (GPa) = 75.05542 70.42710 71.81169
#
# Poissons Ratio (x) = 0.35024 0.61107
# Poissons Ratio (y) = 0.37326 0.01167
# Poissons Ratio (z) = 0.63867 0.01145
#
# Static dielectric constant tensor:
#      x y z
#    x 1.577120 0.000000 0.000000 
#    y 0.000000 1.585340 0.000000 
#    z 0.000000 0.000000 1.614520 
# 
# From -- ./inp_files/52794.got.cif
#   From: 2010.05.17/outbox.cif.g08.bks.cpg/sg65_27_cif.got.tgz:52794.got - 2010.06.03 17:01:31.
