data_PCOD9491401
_publ_section_title
;
Structure prediction by ZEFSAII (Michael W. Deem and Ramdas Pophale) SiO2 
 PCOD9491401
Probable space group: C M M M
;
_chemical_formula_sum "Si O2"
_cell_formula_units_Z 88
_cell_length_a 18.978231
_cell_length_b 8.704761
_cell_length_c 28.810226
_cell_angle_alpha 90.000000
_cell_angle_beta 90.000000
_cell_angle_gamma 90.000000
_cell_volume 4759.477139
_symmetry_space_group_name_H-M "C M M M"
_symmetry_group_IT_number 65
_symmetry_cell_setting 'orthorhombic'
loop_
_space_group_symop_operation_xyz
x,y,z
-x,-y,z
x,-y,-z
-x,y,-z
-x,-y,-z
x,y,-z
-x,y,z
x,-y,z
1/2+x,1/2+y,z
1/2-x,1/2-y,z
1/2+x,1/2-y,-z
1/2-x,1/2+y,-z
1/2-x,1/2-y,-z
1/2+x,1/2+y,-z
1/2-x,1/2+y,z
1/2+x,1/2-y,z
loop_
_atom_site_type_symbol
_atom_site_label
_atom_site_fract_x
_atom_site_fract_y
_atom_site_fract_z
Si Si1 0.082337 0.184479 0.410473
Si Si2 0.417385 0.183385 0.309925
Si Si3 0.418395 0.813986 0.140566
Si Si4 0.828567 0.817129 0.774274
Si Si5 0.328297 0.685754 0.500000
Si Si6 0.672640 0.814716 0.052741
O O1 0.101038 0.264320 0.362021
O O2 0.129785 0.233737 0.453733
O O3 0.000000 0.217004 0.420389
O O4 0.088997 0.000000 0.404835
O O5 0.500000 0.224191 0.302257
O O6 0.368537 0.263262 0.272142
O O7 0.410956 0.000000 0.305644
O O8 0.500000 0.767652 0.143467
O O9 0.373135 0.745338 0.182272
O O10 0.383237 0.768023 0.091656
O O11 0.415694 0.000000 0.143700
O O12 0.750000 0.750000 0.775588
O O13 0.825183 0.000000 0.776000
O O14 0.326721 0.500000 0.500000
O O15 0.250000 0.750000 0.500000
O O16 0.750000 0.750000 0.063905
O O17 0.676407 0.000000 0.053175
O O18 0.654662 0.766471 0.000000
#
# Coordination Sequence:
#
# PCOD9491401 Si02
#       6
#    16  16  16  16   8  16
#     4   9  18  35  58  81 107 144 189 229 267 318
#     4  10  21  38  60  86 115 145 180 225 276 329
#     4  10  21  37  57  82 113 147 184 229 277 325
#     4  12  25  40  59  82 110 145 185 228 276 331
#     4  10  21  35  53  79 111 146 182 226 276 324
#     4   9  18  33  54  80 110 146 186 226 271 324
#
# _framework density 18.489425000000001
#
# number of rings (size 3 to 8) (size 9 to 14) (size 15 to 20)
#    0.000    2.000    0.000    3.545    0.000    8.727 
#    0.000    3.636    0.000    2.727    0.000    3.818 
#    0.000    0.000    0.000    0.000    0.000    0.000 
#
# Total GULP energy -245803.204053 kJ/mol
# GULP energy per Si atom -5586.436456 kJ/mol
# Density = 1.844734 g / cm^3
# Si number density = 18.489425 Si / 1000 Ang^3
#
#
#
# Elastic Constant Matrix: (Units=GPa)
#
#
# Indices 1 2 3 4 5 6 
#
# 1 158.8945 53.2894 127.4161 0.0000 0.0000 0.0000
# 2 53.2894 40.5913 51.3227 0.0000 0.0000 0.0000
# 3 127.4161 51.3227 159.2675 0.0000 0.0000 0.0000
# 4 0.0000 0.0000 0.0000 28.8784 0.0000 0.0000
# 5 0.0000 0.0000 0.0000 0.0000 76.4009 0.0000
# 6 0.0000 0.0000 0.0000 0.0000 0.0000 30.4121
#
#
#
# Elastic Compliance Matrix: (Units=1/GPa)
#
#
# Indices 1 2 3 4 5 6 
#
# 1 0.019708 -0.010021 -0.012537 0.000000 0.000000 0.000000
# 2 -0.010021 0.046671 -0.007022 0.000000 0.000000 0.000000
# 3 -0.012537 -0.007022 0.018572 0.000000 0.000000 0.000000
# 4 0.000000 0.000000 0.000000 0.034628 0.000000 0.000000
# 5 0.000000 0.000000 0.000000 0.000000 0.013089 0.000000
# 6 0.000000 0.000000 0.000000 0.000000 0.000000 0.032882
#
#
# Mechanical properties :
#
#
# Convention : Reuss Voigt Hill
#
# Bulk Modulus (GPa) = 38.77659 91.42329 65.09994
# Shear Modulus (GPa) = 21.43105 35.58661 28.50883
#
# Velocity S-wave (km/s) = 3.40825 4.39190 3.93096
# Velocity P-wave (km/s) = 6.04202 8.67594 7.47590
#
# Compressibility (1/GPa) = 0.02578876
#
# Stress axis : x y z
#
# Youngs Moduli (GPa) = 50.74093 21.42678 53.84554
#
# Poissons Ratio (x) = 0.21472 0.67508
# Poissons Ratio (y) = 0.50848 0.37811
# Poissons Ratio (z) = 0.63616 0.15046
#
# Static dielectric constant tensor:
#      x y z
#    x 1.605880 0.000000 0.000000 
#    y 0.000000 1.626570 0.000000 
#    z 0.000000 0.000000 1.622430 
# 
# From -- ./inp_files/77861.got.cif
#   From: 2010.05.17/outbox.cif.g08.bks.cpg/sg65_39_cif.got.tgz:77861.got - 2010.06.03 17:01:31.
