data_PCOD9491000
_publ_section_title
;
Structure prediction by ZEFSAII (Michael W. Deem and Ramdas Pophale) SiO2 
 PCOD9491000
Probable space group: C M M M
;
_chemical_formula_sum "Si O2"
_cell_formula_units_Z 64
_cell_length_a 25.184896
_cell_length_b 16.082767
_cell_length_c 7.904092
_cell_angle_alpha 90.000000
_cell_angle_beta 90.000000
_cell_angle_gamma 90.000000
_cell_volume 3201.495668
_symmetry_space_group_name_H-M "C M M M"
_symmetry_group_IT_number 65
_symmetry_cell_setting 'orthorhombic'
loop_
_space_group_symop_operation_xyz
x,y,z
-x,-y,z
x,-y,-z
-x,y,-z
-x,-y,-z
x,y,-z
-x,y,z
x,-y,z
1/2+x,1/2+y,z
1/2-x,1/2-y,z
1/2+x,1/2-y,-z
1/2-x,1/2+y,-z
1/2-x,1/2-y,-z
1/2+x,1/2+y,-z
1/2-x,1/2+y,z
1/2+x,1/2-y,z
loop_
_atom_site_type_symbol
_atom_site_label
_atom_site_fract_x
_atom_site_fract_y
_atom_site_fract_z
Si Si1 0.856106 0.361956 0.702748
Si Si2 0.741291 0.653836 0.199557
Si Si3 0.939968 0.099109 0.000000
Si Si4 0.061121 0.500000 0.707204
Si Si5 0.628644 0.332772 0.305436
O O1 0.853616 0.367785 0.500000
O O2 0.797889 0.388347 0.767648
O O3 0.904197 0.420176 0.761117
O O4 0.865668 0.265058 0.743199
O O5 0.750000 0.750000 0.254466
O O6 0.687442 0.626840 0.290076
O O7 0.730350 0.652794 0.000000
O O8 0.909568 0.127766 0.831980
O O9 0.000000 0.131887 0.000000
O O10 0.941289 0.000000 0.000000
O O11 0.059817 0.500000 0.500000
O O12 0.000000 0.500000 0.764340
O O13 0.610620 0.338178 0.500000
#
# Coordination Sequence:
#
# PCOD9491000 Si02
#       5
#    16  16   8   8  16
#     4   9  18  32  56  88 120 160 205 245 294 350
#     4   9  16  30  56  85 119 156 192 242 303 351
#     4  11  26  46  63  85 119 151 188 250 317 369
#     4   9  18  34  53  79 123 167 205 250 287 331
#     4  10  20  38  65  92 118 154 201 247 298 364
#
# _framework density 19.990656000000001
#
# number of rings (size 3 to 8) (size 9 to 14) (size 15 to 20)
#    0.000    2.500    1.250    0.750    1.750    5.000 
#    2.250    4.375    0.000    0.750    0.000    0.000 
#    0.000    0.000    0.000    0.000    0.000    0.000 
#
# Total GULP energy -178516.673727 kJ/mol
# GULP energy per Si atom -5578.646054 kJ/mol
# Density = 1.994516 g / cm^3
# Si number density = 19.990656 Si / 1000 Ang^3
#
#
#
# Elastic Constant Matrix: (Units=GPa)
#
#
# Indices 1 2 3 4 5 6 
#
# 1 183.4156 53.7108 59.2425 0.0000 0.0000 0.0000
# 2 53.7108 50.3331 25.0432 0.0000 0.0000 0.0000
# 3 59.2425 25.0432 62.4631 0.0000 0.0000 0.0000
# 4 0.0000 0.0000 0.0000 -3.9269 0.0000 0.0000
# 5 0.0000 0.0000 0.0000 0.0000 22.9196 0.0000
# 6 0.0000 0.0000 0.0000 0.0000 0.0000 34.0870
#
#
#
# Elastic Compliance Matrix: (Units=1/GPa)
#
#
# Indices 1 2 3 4 5 6 
#
# 1 0.009528 -0.007084 -0.006197 0.000000 0.000000 0.000000
# 2 -0.007084 0.030086 -0.005343 0.000000 0.000000 0.000000
# 3 -0.006197 -0.005343 0.024029 0.000000 0.000000 0.000000
# 4 0.000000 0.000000 0.000000 -0.254652 0.000000 0.000000
# 5 0.000000 0.000000 0.000000 0.000000 0.043631 0.000000
# 6 0.000000 0.000000 0.000000 0.000000 0.000000 0.029337
#
#
# Mechanical properties :
#
#
# Convention : Reuss Voigt Hill
#
# Bulk Modulus (GPa) = 37.88652 63.57832 50.73242
# Shear Modulus (GPa) = -69.44954 21.16362 -24.14296
#
# Velocity S-wave (km/s) = -5.90054 3.25726 -3.47899
# Velocity P-wave (km/s) = 5.23724 6.78376 3.04883
#
# Compressibility (1/GPa) = 0.02639461
#
# Stress axis : x y z
#
# Youngs Moduli (GPa) = 104.95230 33.23802 41.61687
#
# Poissons Ratio (x) = 0.23547 0.25788
# Poissons Ratio (y) = 0.74353 0.22237
# Poissons Ratio (z) = 0.65034 0.17760
#
# Static dielectric constant tensor:
#      x y z
#    x 1.717580 0.000000 0.000000 
#    y 0.000000 1.728360 0.000000 
#    z 0.000000 0.000000 1.675580 
# 
# From -- ./inp_files/9110.got.cif
#   From: 2010.05.17/outbox.cif.g08.bks.cpg/sg65_5_cif.got.tgz:9110.got - 2010.06.03 17:01:31.
