data_PCOD9491942
_publ_section_title
;
Structure prediction by ZEFSAII (Michael W. Deem and Ramdas Pophale) SiO2 
 PCOD9491942
Probable space group: C M M M
;
_chemical_formula_sum "Si O2"
_cell_formula_units_Z 72
_cell_length_a 29.324371
_cell_length_b 8.840644
_cell_length_c 15.518911
_cell_angle_alpha 90.000000
_cell_angle_beta 90.000000
_cell_angle_gamma 90.000000
_cell_volume 4023.220638
_symmetry_space_group_name_H-M "C M M M"
_symmetry_group_IT_number 65
_symmetry_cell_setting 'orthorhombic'
loop_
_space_group_symop_operation_xyz
x,y,z
-x,-y,z
x,-y,-z
-x,y,-z
-x,-y,-z
x,y,-z
-x,y,z
x,-y,z
1/2+x,1/2+y,z
1/2-x,1/2-y,z
1/2+x,1/2-y,-z
1/2-x,1/2+y,-z
1/2-x,1/2-y,-z
1/2+x,1/2+y,-z
1/2-x,1/2+y,z
1/2+x,1/2-y,z
loop_
_atom_site_type_symbol
_atom_site_label
_atom_site_fract_x
_atom_site_fract_y
_atom_site_fract_z
Si Si1 0.053491 0.680225 0.818429
Si Si2 0.699327 0.818432 0.099024
Si Si3 0.944785 0.828081 0.000000
Si Si4 0.700459 0.820147 0.398610
Si Si5 0.360623 0.319911 0.252419
O O1 0.059034 0.500000 0.814814
O O2 0.087683 0.761282 0.753753
O O3 0.000000 0.715597 0.804791
O O4 0.066977 0.739409 0.913478
O O5 0.750000 0.750000 0.110266
O O6 0.666470 0.747816 0.170304
O O7 0.700878 0.000000 0.109195
O O8 0.685006 0.785242 0.000000
O O9 0.000000 0.836713 0.000000
O O10 0.926922 0.000000 0.000000
O O11 0.691218 0.794603 0.500000
O O12 0.750000 0.750000 0.379301
O O13 0.663982 0.742497 0.337194
O O14 0.701547 0.000000 0.383081
O O15 0.358893 0.500000 0.249332
#
# Coordination Sequence:
#
# PCOD9491942 Si02
#       5
#    16  16   8  16  16
#     4  10  21  37  56  78 108 147 191 238 285 333
#     4  10  21  37  55  76 108 148 189 231 275 329
#     4   9  17  31  51  75 104 139 182 231 281 329
#     4  10  21  39  63  89 117 147 183 229 281 338
#     4  12  24  36  56  83 114 149 187 232 280 338
#
# _framework density 17.89611
#
# number of rings (size 3 to 8) (size 9 to 14) (size 15 to 20)
#    0.000    1.667    0.000    5.000    1.556    5.333 
#    0.000    0.000    0.000    0.667    0.000    4.667 
#    0.000    0.000    0.000    0.000    0.000    0.000 
#
# Total GULP energy -201235.322522 kJ/mol
# GULP energy per Si atom -5589.870070 kJ/mol
# Density = 1.785538 g / cm^3
# Si number density = 17.896110 Si / 1000 Ang^3
#
#
#
# Elastic Constant Matrix: (Units=GPa)
#
#
# Indices 1 2 3 4 5 6 
#
# 1 103.4287 70.3877 69.4055 0.0000 0.0000 0.0000
# 2 70.3877 129.8999 65.9248 0.0000 0.0000 0.0000
# 3 69.4055 65.9248 73.8581 0.0000 0.0000 0.0000
# 4 0.0000 0.0000 0.0000 25.3836 0.0000 0.0000
# 5 0.0000 0.0000 0.0000 0.0000 19.0136 0.0000
# 6 0.0000 0.0000 0.0000 0.0000 0.0000 31.2543
#
#
#
# Elastic Compliance Matrix: (Units=1/GPa)
#
#
# Indices 1 2 3 4 5 6 
#
# 1 0.026878 -0.003191 -0.022409 0.000000 0.000000 0.000000
# 2 -0.003191 0.014452 -0.009901 0.000000 0.000000 0.000000
# 3 -0.022409 -0.009901 0.043435 0.000000 0.000000 0.000000
# 4 0.000000 0.000000 0.000000 0.039396 0.000000 0.000000
# 5 0.000000 0.000000 0.000000 0.000000 0.052594 0.000000
# 6 0.000000 0.000000 0.000000 0.000000 0.000000 0.031996
#
#
# Mechanical properties :
#
#
# Convention : Reuss Voigt Hill
#
# Bulk Modulus (GPa) = 72.66083 79.84696 76.25389
# Shear Modulus (GPa) = 17.58461 21.89488 19.73974
#
# Velocity S-wave (km/s) = 3.13804 3.50157 3.32478
# Velocity P-wave (km/s) = 7.33616 7.81420 7.57895
#
# Compressibility (1/GPa) = 0.01376257
#
# Stress axis : x y z
#
# Youngs Moduli (GPa) = 37.20553 69.19299 23.02307
#
# Poissons Ratio (x) = 0.22083 0.51592
# Poissons Ratio (y) = 0.11874 0.22795
# Poissons Ratio (z) = 0.83373 0.68507
#
# Static dielectric constant tensor:
#      x y z
#    x 1.621780 0.000000 0.000000 
#    y 0.000000 1.593720 0.000000 
#    z 0.000000 0.000000 1.597700 
# 
# From -- ./inp_files/36608.got.cif
#   From: 2010.05.17/outbox.cif.g08.bks.cpg/sg65_19_cif.got.tgz:36608.got - 2010.06.03 17:01:31.
