data_PCOD9491979
_publ_section_title
;
Structure prediction by ZEFSAII (Michael W. Deem and Ramdas Pophale) SiO2 
 PCOD9491979
Probable space group: C M M M
;
_chemical_formula_sum "Si O2"
_cell_formula_units_Z 120
_cell_length_a 9.183005
_cell_length_b 29.823668
_cell_length_c 25.590321
_cell_angle_alpha 90.000000
_cell_angle_beta 90.000000
_cell_angle_gamma 90.000000
_cell_volume 7008.444048
_symmetry_space_group_name_H-M "C M M M"
_symmetry_group_IT_number 65
_symmetry_cell_setting 'orthorhombic'
loop_
_space_group_symop_operation_xyz
x,y,z
-x,-y,z
x,-y,-z
-x,y,-z
-x,-y,-z
x,y,-z
-x,y,z
x,-y,z
1/2+x,1/2+y,z
1/2-x,1/2-y,z
1/2+x,1/2-y,-z
1/2-x,1/2+y,-z
1/2-x,1/2-y,-z
1/2+x,1/2+y,-z
1/2-x,1/2+y,z
1/2+x,1/2-y,z
loop_
_atom_site_type_symbol
_atom_site_label
_atom_site_fract_x
_atom_site_fract_y
_atom_site_fract_z
Si Si1 0.172071 0.638619 0.058536
Si Si2 0.325499 0.947754 0.606439
Si Si3 0.333078 0.445579 0.500000
Si Si4 0.173880 0.613670 0.705897
Si Si5 0.330083 0.551572 0.912828
Si Si6 0.173006 0.797503 0.263014
Si Si7 0.327730 0.702866 0.860639
Si Si8 0.669626 0.552074 0.787380
O O1 0.226092 0.587555 0.061462
O O2 0.258674 0.665678 0.102363
O O3 0.000000 0.641520 0.068139
O O4 0.201871 0.656147 0.000000
O O5 0.500000 0.946675 0.599176
O O6 0.248560 0.932537 0.553115
O O7 0.288837 0.916124 0.655097
O O8 0.285361 0.000000 0.616988
O O9 0.331933 0.500000 0.500000
O O10 0.500000 0.430494 0.500000
O O11 0.253830 0.661380 0.706755
O O12 0.228368 0.585231 0.755697
O O13 0.000000 0.619733 0.707888
O O14 0.500000 0.560764 0.925467
O O15 0.299636 0.500000 0.926821
O O16 0.314993 0.555806 0.849883
O O17 0.250000 0.750000 0.274213
O O18 0.194458 0.806924 0.200886
O O19 0.000000 0.794745 0.272396
O O20 0.500000 0.706216 0.869672
O O21 0.250000 0.750000 0.871736
O O22 0.500000 0.561935 0.774952
O O23 0.698517 0.500000 0.773542
#
# Coordination Sequence:
#
# PCOD9491979 Si02
#       8
#    16  16   8  16  16  16  16  16
#     4  11  24  38  52  74 102 129 160 201 248 297
#     4   9  18  32  48  69 103 145 182 214 251 296
#     4   9  17  29  47  71  98 133 180 227 263 295
#     4  11  21  31  48  76 107 138 172 209 251 300
#     4   9  19  36  55  73  95 128 169 207 246 295
#     4  10  21  37  56  78 103 131 165 205 250 300
#     4  10  21  38  60  81 101 128 161 198 245 302
#     4   9  18  32  49  71 101 134 166 203 248 297
#
# _framework density 17.122202999999999
#
# number of rings (size 3 to 8) (size 9 to 14) (size 15 to 20)
#    0.000    2.200    0.000    3.800    0.000    9.867 
#    0.000    4.000    0.000    0.000    0.000    0.467 
#    0.000    0.000    0.000    0.000    0.000    0.000 
#
# Total GULP energy -335008.585595 kJ/mol
# GULP energy per Si atom -5583.476427 kJ/mol
# Density = 1.708323 g / cm^3
# Si number density = 17.122203 Si / 1000 Ang^3
#
#
#
# Elastic Constant Matrix: (Units=GPa)
#
#
# Indices 1 2 3 4 5 6 
#
# 1 70.7447 59.8448 46.2505 0.0000 0.0000 0.0000
# 2 59.8448 92.4434 51.8779 0.0000 0.0000 0.0000
# 3 46.2505 51.8779 54.3481 0.0000 0.0000 0.0000
# 4 0.0000 0.0000 0.0000-1448.7812 0.0000 0.0000
# 5 0.0000 0.0000 0.0000 0.0000 14.3935 0.0000
# 6 0.0000 0.0000 0.0000 0.0000 0.0000 31.7842
#
#
#
# Elastic Compliance Matrix: (Units=1/GPa)
#
#
# Indices 1 2 3 4 5 6 
#
# 1 0.038993 -0.014259 -0.019572 0.000000 0.000000 0.000000
# 2 -0.014259 0.028512 -0.015081 0.000000 0.000000 0.000000
# 3 -0.019572 -0.015081 0.049451 0.000000 0.000000 0.000000
# 4 0.000000 0.000000 0.000000 -0.000690 0.000000 0.000000
# 5 0.000000 0.000000 0.000000 0.000000 0.069476 0.000000
# 6 0.000000 0.000000 0.000000 0.000000 0.000000 0.031462
#
#
# Mechanical properties :
#
#
# Convention : Reuss Voigt Hill
#
# Bulk Modulus (GPa) = 52.27034 59.27584 55.77309
# Shear Modulus (GPa) = 15.55662 -276.54984 -130.49661
#
# Velocity S-wave (km/s) = 3.01751 -12.72266 -8.73958
# Velocity P-wave (km/s) = 6.53717 13.45834 8.31842
#
# Compressibility (1/GPa) = 0.01913131
#
# Stress axis : x y z
#
# Youngs Moduli (GPa) = 25.64537 35.07333 20.22184
#
# Poissons Ratio (x) = 0.50012 0.39579
# Poissons Ratio (y) = 0.36569 0.30497
# Poissons Ratio (z) = 0.50194 0.52894
#
# Static dielectric constant tensor:
#      x y z
#    x 1.567240 0.000000 0.000000 
#    y 0.000000 1.574760 0.000000 
#    z 0.000000 0.000000 1.569600 
# 
# From -- ./inp_files/73874.got.cif
#   From: 2010.05.17/outbox.cif.g08.bks.cpg/sg65_37_cif.got.tgz:73874.got - 2010.06.03 17:01:31.
