data_PCOD9491132
_publ_section_title
;
Structure prediction by ZEFSAII (Michael W. Deem and Ramdas Pophale) SiO2 
 PCOD9491132
Probable space group: C M M M
;
_chemical_formula_sum "Si O2"
_cell_formula_units_Z 88
_cell_length_a 7.627580
_cell_length_b 19.229208
_cell_length_c 31.011738
_cell_angle_alpha 90.000000
_cell_angle_beta 90.000000
_cell_angle_gamma 90.000000
_cell_volume 4548.563633
_symmetry_space_group_name_H-M "C M M M"
_symmetry_group_IT_number 65
_symmetry_cell_setting 'orthorhombic'
loop_
_space_group_symop_operation_xyz
x,y,z
-x,-y,z
x,-y,-z
-x,y,-z
-x,-y,-z
x,y,-z
-x,y,z
x,-y,z
1/2+x,1/2+y,z
1/2-x,1/2-y,z
1/2+x,1/2-y,-z
1/2-x,1/2+y,-z
1/2-x,1/2-y,-z
1/2+x,1/2+y,-z
1/2-x,1/2+y,z
1/2+x,1/2-y,z
loop_
_atom_site_type_symbol
_atom_site_label
_atom_site_fract_x
_atom_site_fract_y
_atom_site_fract_z
Si Si1 0.710563 0.832589 0.953682
Si Si2 0.789984 0.830872 0.600136
Si Si3 0.207483 0.170596 0.300641
Si Si4 0.288702 0.168166 0.859638
Si Si5 0.792330 0.577919 0.780115
Si Si6 0.000000 0.581791 0.551570
O O1 0.500000 0.841435 0.953879
O O2 0.750000 0.750000 0.953749
O O3 0.776112 0.856883 0.906874
O O4 0.777090 0.860270 0.000000
O O5 0.750000 0.750000 0.589799
O O6 0.732211 0.840945 0.650198
O O7 0.671185 0.880394 0.571063
O O8 0.000000 0.842530 0.596340
O O9 0.250000 0.250000 0.288312
O O10 0.273393 0.117643 0.264980
O O11 0.000000 0.164016 0.301777
O O12 0.500000 0.162569 0.860412
O O13 0.250000 0.250000 0.854394
O O14 0.219729 0.124048 0.819445
O O15 0.719094 0.500000 0.778548
O O16 0.000000 0.572348 0.787944
O O17 0.000000 0.500000 0.562584
O O18 0.000000 0.588624 0.500000
#
# Coordination Sequence:
#
# PCOD9491132 Si02
#       6
#    16  16  16  16  16   8
#     4   8  13  22  38  60  85 113 148 198 256 310
#     4  10  21  41  67  96 126 161 210 260 307 362
#     4  10  21  36  59  85 111 141 180 229 276 329
#     4   9  17  29  45  66  92 122 163 209 258 316
#     4  10  21  34  48  70 102 141 178 215 266 322
#     4  11  26  44  64  96 135 173 211 255 311 367
#
# _framework density 19.346765999999999
#
# number of rings (size 3 to 8) (size 9 to 14) (size 15 to 20)
#    0.000    2.455    0.909    1.091    2.545    4.364 
#    0.000    2.727    0.000    0.545    0.000    3.818 
#    0.000    0.000    0.000   31.091    0.000   15.636 
#
# Total GULP energy -245304.598810 kJ/mol
# GULP energy per Si atom -5575.104518 kJ/mol
# Density = 1.930273 g / cm^3
# Si number density = 19.346766 Si / 1000 Ang^3
#
#
#
# Elastic Constant Matrix: (Units=GPa)
#
#
# Indices 1 2 3 4 5 6 
#
# 1 70.7653 29.5861 34.7352 0.0000 0.0000 0.0000
# 2 29.5861 121.4448 103.2474 0.0000 0.0000 0.0000
# 3 34.7352 103.2474 132.2315 0.0000 0.0000 0.0000
# 4 0.0000 0.0000 0.0000 -19.1183 0.0000 0.0000
# 5 0.0000 0.0000 0.0000 0.0000 15.3216 0.0000
# 6 0.0000 0.0000 0.0000 0.0000 0.0000 15.3644
#
#
#
# Elastic Compliance Matrix: (Units=1/GPa)
#
#
# Indices 1 2 3 4 5 6 
#
# 1 0.016262 -0.000982 -0.003505 0.000000 0.000000 0.000000
# 2 -0.000982 0.024552 -0.018913 0.000000 0.000000 0.000000
# 3 -0.003505 -0.018913 0.023250 0.000000 0.000000 0.000000
# 4 0.000000 0.000000 0.000000 -0.052306 0.000000 0.000000
# 5 0.000000 0.000000 0.000000 0.000000 0.065267 0.000000
# 6 0.000000 0.000000 0.000000 0.000000 0.000000 0.065086
#
#
# Mechanical properties :
#
#
# Convention : Reuss Voigt Hill
#
# Bulk Modulus (GPa) = 57.91892 73.28655 65.60274
# Shear Modulus (GPa) = 25.68504 12.77173 19.22839
#
# Velocity S-wave (km/s) = 3.64760 2.57212 3.15601
# Velocity P-wave (km/s) = 6.90957 6.83987 6.87481
#
# Compressibility (1/GPa) = 0.01726551
#
# Stress axis : x y z
#
# Youngs Moduli (GPa) = 61.49207 40.72983 43.01004
#
# Poissons Ratio (x) = 0.03998 0.15077
# Poissons Ratio (y) = 0.06036 0.81343
# Poissons Ratio (z) = 0.21555 0.77031
#
# Static dielectric constant tensor:
#      x y z
#    x 1.721890 0.000000 0.000000 
#    y 0.000000 1.649780 0.000000 
#    z 0.000000 0.000000 1.722690 
# 
# From -- ./inp_files/76465.got.cif
#   From: 2010.05.17/outbox.cif.g08.bks.cpg/sg65_39_cif.got.tgz:76465.got - 2010.06.03 17:01:31.
