data_PCOD9491022
_publ_section_title
;
Structure prediction by ZEFSAII (Michael W. Deem and Ramdas Pophale) SiO2 
 PCOD9491022
Probable space group: C M M M
;
_chemical_formula_sum "Si O2"
_cell_formula_units_Z 72
_cell_length_a 16.032175
_cell_length_b 7.827269
_cell_length_c 29.280000
_cell_angle_alpha 90.000000
_cell_angle_beta 90.000000
_cell_angle_gamma 90.000000
_cell_volume 3674.292926
_symmetry_space_group_name_H-M "C M M M"
_symmetry_group_IT_number 65
_symmetry_cell_setting 'orthorhombic'
loop_
_space_group_symop_operation_xyz
x,y,z
-x,-y,z
x,-y,-z
-x,y,-z
-x,-y,-z
x,y,-z
-x,y,z
x,-y,z
1/2+x,1/2+y,z
1/2-x,1/2-y,z
1/2+x,1/2-y,-z
1/2-x,1/2+y,-z
1/2-x,1/2-y,-z
1/2+x,1/2+y,-z
1/2-x,1/2+y,z
1/2+x,1/2-y,z
loop_
_atom_site_type_symbol
_atom_site_label
_atom_site_fract_x
_atom_site_fract_y
_atom_site_fract_z
Si Si1 0.000000 0.710555 0.283367
Si Si2 0.657058 0.297207 0.448326
Si Si3 0.652386 0.795318 0.220585
Si Si4 0.347439 0.795567 0.882233
Si Si5 0.597880 0.500000 0.949313
Si Si6 0.500000 0.201361 0.386823
O O1 0.084068 0.766372 0.256942
O O2 0.000000 0.500000 0.282855
O O3 0.000000 0.773076 0.335516
O O4 0.646463 0.225195 0.500000
O O5 0.654019 0.500000 0.451772
O O6 0.750000 0.250000 0.432182
O O7 0.582470 0.245955 0.415340
O O8 0.750000 0.750000 0.228233
O O9 0.624179 0.747188 0.169136
O O10 0.650345 0.000000 0.221400
O O11 0.250000 0.750000 0.881458
O O12 0.382093 0.670584 0.920696
O O13 0.360259 0.000000 0.889523
O O14 0.500000 0.500000 0.954798
O O15 0.638029 0.500000 0.000000
O O16 0.500000 0.000000 0.381438
#
# Coordination Sequence:
#
# PCOD9491022 Si02
#       6
#     8  16  16  16   8   8
#     4   9  20  38  56  83 116 155 192 232 301 355
#     4  10  21  38  60  84 113 153 200 248 294 348
#     4   9  19  36  59  84 112 145 194 245 287 350
#     4  10  20  39  65  90 116 157 202 246 298 356
#     4  11  26  42  58  90 129 157 195 251 300 362
#     4  11  22  36  57  84 122 158 191 240 298 360
#
# _framework density 19.595606
#
# number of rings (size 3 to 8) (size 9 to 14) (size 15 to 20)
#    0.000    2.111    1.111    1.333    3.111    4.889 
#    0.000    6.111    0.000    0.000    0.000    0.000 
#    0.000    0.000    0.000    0.000    0.000    0.000 
#
# Total GULP energy -200752.645452 kJ/mol
# GULP energy per Si atom -5576.462374 kJ/mol
# Density = 1.955101 g / cm^3
# Si number density = 19.595606 Si / 1000 Ang^3
#
#
#
# Elastic Constant Matrix: (Units=GPa)
#
#
# Indices 1 2 3 4 5 6 
#
# 1 125.5502 26.0862 111.0515 0.0000 0.0000 0.0000
# 2 26.0862 70.8200 50.1590 0.0000 0.0000 0.0000
# 3 111.0515 50.1590 173.3937 0.0000 0.0000 0.0000
# 4 0.0000 0.0000 0.0000 21.1358 0.0000 0.0000
# 5 0.0000 0.0000 0.0000 0.0000 10.0218 0.0000
# 6 0.0000 0.0000 0.0000 0.0000 0.0000 24.2713
#
#
#
# Elastic Compliance Matrix: (Units=1/GPa)
#
#
# Indices 1 2 3 4 5 6 
#
# 1 0.018595 0.001994 -0.012486 0.000000 0.000000 0.000000
# 2 0.001994 0.017973 -0.006476 0.000000 0.000000 0.000000
# 3 -0.012486 -0.006476 0.015637 0.000000 0.000000 0.000000
# 4 0.000000 0.000000 0.000000 0.047313 0.000000 0.000000
# 5 0.000000 0.000000 0.000000 0.000000 0.099782 0.000000
# 6 0.000000 0.000000 0.000000 0.000000 0.000000 0.041201
#
#
# Mechanical properties :
#
#
# Convention : Reuss Voigt Hill
#
# Bulk Modulus (GPa) = 54.73909 82.70637 68.72273
# Shear Modulus (GPa) = 17.82362 23.25027 20.53694
#
# Velocity S-wave (km/s) = 3.01918 3.44830 3.24085
# Velocity P-wave (km/s) = 6.33632 7.62579 7.01076
#
# Compressibility (1/GPa) = 0.01826848
#
# Stress axis : x y z
#
# Youngs Moduli (GPa) = 53.77887 55.64016 63.94945
#
# Poissons Ratio (x) = -0.11095 0.79847
# Poissons Ratio (y) = -0.10724 0.41415
# Poissons Ratio (z) = 0.67148 0.36034
#
# Static dielectric constant tensor:
#      x y z
#    x 1.667960 0.000000 0.000000 
#    y 0.000000 1.673540 0.000000 
#    z 0.000000 0.000000 1.763470 
# 
# From -- ./inp_files/74695.got.cif
#   From: 2010.05.17/outbox.cif.g08.bks.cpg/sg65_38_cif.got.tgz:74695.got - 2010.06.03 17:01:31.
