data_PCOD9491380
_publ_section_title
;
Structure prediction by ZEFSAII (Michael W. Deem and Ramdas Pophale) SiO2 
 PCOD9491380
Probable space group: C M M M
;
_chemical_formula_sum "Si O2"
_cell_formula_units_Z 66
_cell_length_a 18.271627
_cell_length_b 9.955758
_cell_length_c 20.788846
_cell_angle_alpha 90.000000
_cell_angle_beta 90.000000
_cell_angle_gamma 90.000000
_cell_volume 3781.655250
_symmetry_space_group_name_H-M "C M M M"
_symmetry_group_IT_number 65
_symmetry_cell_setting 'orthorhombic'
loop_
_space_group_symop_operation_xyz
x,y,z
-x,-y,z
x,-y,-z
-x,y,-z
-x,-y,-z
x,y,-z
-x,y,z
x,-y,z
1/2+x,1/2+y,z
1/2-x,1/2-y,z
1/2+x,1/2-y,-z
1/2-x,1/2+y,-z
1/2-x,1/2-y,-z
1/2+x,1/2+y,-z
1/2-x,1/2+y,z
1/2+x,1/2-y,z
loop_
_atom_site_type_symbol
_atom_site_label
_atom_site_fract_x
_atom_site_fract_y
_atom_site_fract_z
Si Si1 0.913202 0.157074 0.871379
Si Si2 0.000000 0.000000 0.500000
Si Si3 0.820966 0.657295 0.623331
Si Si4 0.413729 0.841480 0.751076
Si Si5 0.419035 0.778541 0.500000
Si Si6 0.821513 0.159272 0.000000
O O1 0.892073 0.251657 0.812030
O O2 0.000000 0.175507 0.883269
O O3 0.901823 0.000000 0.854808
O O4 0.868943 0.186414 0.936129
O O5 0.062746 0.880102 0.500000
O O6 0.800523 0.500000 0.624987
O O7 0.750000 0.750000 0.618376
O O8 0.865828 0.688605 0.688440
O O9 0.873751 0.681840 0.562809
O O10 0.500000 0.816007 0.737593
O O11 0.406239 0.000000 0.765881
O O12 0.500000 0.843095 0.500000
O O13 0.750000 0.250000 0.000000
O O14 0.803633 0.000000 0.000000
#
# Coordination Sequence:
#
# PCOD9491380 Si02
#       6
#    16   2  16  16   8   8
#     4   9  18  35  57  81 103 139 183 228 271 319
#     4   8  24  40  62  92 112 144 180 246 284 324
#     4  11  24  38  59  84 116 153 188 230 280 334
#     4   9  19  37  57  81 110 143 183 229 276 328
#     4  10  22  41  62  84 113 145 186 232 282 326
#     4  10  21  35  53  77 111 142 178 222 270 328
#
# _framework density 17.452674999999999
#
# number of rings (size 3 to 8) (size 9 to 14) (size 15 to 20)
#    0.364    1.939    0.000    1.818    1.697    6.303 
#    0.000    4.848    0.000    3.636    0.000    0.000 
#    0.000    0.000    0.000    0.000    0.000    0.000 
#
# Total GULP energy -183846.806191 kJ/mol
# GULP energy per Si atom -5571.115339 kJ/mol
# Density = 1.741295 g / cm^3
# Si number density = 17.452675 Si / 1000 Ang^3
#
#
#
# Elastic Constant Matrix: (Units=GPa)
#
#
# Indices 1 2 3 4 5 6 
#
# 1 112.4253 73.1262 101.0218 0.0000 0.0000 0.0000
# 2 73.1262 83.6198 85.5201 0.0000 0.0000 0.0000
# 3 101.0218 85.5201 176.9385 0.0000 0.0000 0.0000
# 4 0.0000 0.0000 0.0000 15.8517 0.0000 0.0000
# 5 0.0000 0.0000 0.0000 0.0000 -52.2891 0.0000
# 6 0.0000 0.0000 0.0000 0.0000 0.0000 29.6715
#
#
#
# Elastic Compliance Matrix: (Units=1/GPa)
#
#
# Indices 1 2 3 4 5 6 
#
# 1 0.024519 -0.014090 -0.007189 0.000000 0.000000 0.000000
# 2 -0.014090 0.031746 -0.007299 0.000000 0.000000 0.000000
# 3 -0.007189 -0.007299 0.013284 0.000000 0.000000 0.000000
# 4 0.000000 0.000000 0.000000 0.063085 0.000000 0.000000
# 5 0.000000 0.000000 0.000000 0.000000 -0.019124 0.000000
# 6 0.000000 0.000000 0.000000 0.000000 0.000000 0.033702
#
#
# Mechanical properties :
#
#
# Convention : Reuss Voigt Hill
#
# Bulk Modulus (GPa) = 80.69142 99.14664 89.91903
# Shear Modulus (GPa) = 23.98090 6.20118 15.09104
#
# Velocity S-wave (km/s) = 3.71084 1.88702 2.94374
# Velocity P-wave (km/s) = 8.04334 7.85366 7.94906
#
# Compressibility (1/GPa) = 0.01239289
#
# Stress axis : x y z
#
# Youngs Moduli (GPa) = 40.78415 31.50028 75.27798
#
# Poissons Ratio (x) = 0.44384 0.54117
# Poissons Ratio (y) = 0.57465 0.54947
# Poissons Ratio (z) = 0.29320 0.22993
#
# Static dielectric constant tensor:
#      x y z
#    x 1.578350 0.000000 0.000000 
#    y 0.000000 1.581400 0.000000 
#    z 0.000000 0.000000 1.563260 
# 
# From -- ./inp_files/55419.got.cif
#   From: 2010.05.17/outbox.cif.g08.bks.cpg/sg65_28_cif.got.tgz:55419.got - 2010.06.03 17:01:31.
