data_PCOD9491358
_publ_section_title
;
Structure prediction by ZEFSAII (Michael W. Deem and Ramdas Pophale) SiO2 
 PCOD9491358
Probable space group: C M M M
;
_chemical_formula_sum "Si O2"
_cell_formula_units_Z 104
_cell_length_a 19.549256
_cell_length_b 8.981607
_cell_length_c 33.568159
_cell_angle_alpha 90.000000
_cell_angle_beta 90.000000
_cell_angle_gamma 90.000000
_cell_volume 5894.022719
_symmetry_space_group_name_H-M "C M M M"
_symmetry_group_IT_number 65
_symmetry_cell_setting 'orthorhombic'
loop_
_space_group_symop_operation_xyz
x,y,z
-x,-y,z
x,-y,-z
-x,y,-z
-x,-y,-z
x,y,-z
-x,y,z
x,-y,z
1/2+x,1/2+y,z
1/2-x,1/2-y,z
1/2+x,1/2-y,-z
1/2-x,1/2+y,-z
1/2-x,1/2-y,-z
1/2+x,1/2+y,-z
1/2-x,1/2+y,z
1/2+x,1/2-y,z
loop_
_atom_site_type_symbol
_atom_site_label
_atom_site_fract_x
_atom_site_fract_y
_atom_site_fract_z
Si Si1 0.920400 0.820867 0.074253
Si Si2 0.825117 0.179882 0.000000
Si Si3 0.176114 0.822292 0.317085
Si Si4 0.322802 0.820956 0.454251
Si Si5 0.676429 0.677434 0.224282
Si Si6 0.081328 0.675449 0.841015
Si Si7 0.579507 0.820290 0.382324
O O1 0.901639 0.745018 0.115971
O O2 0.000000 0.783466 0.064863
O O3 0.917212 0.000000 0.078698
O O4 0.869472 0.777341 0.038840
O O5 0.750000 0.250000 0.000000
O O6 0.819314 0.000000 0.000000
O O7 0.250000 0.750000 0.325942
O O8 0.159909 0.790503 0.270658
O O9 0.119680 0.754063 0.345999
O O10 0.180594 0.000000 0.322147
O O11 0.338269 0.777491 0.500000
O O12 0.250000 0.750000 0.443092
O O13 0.381070 0.778403 0.422962
O O14 0.316112 0.000000 0.453228
O O15 0.680542 0.500000 0.219655
O O16 0.750000 0.750000 0.215993
O O17 0.621950 0.744579 0.194047
O O18 0.096449 0.500000 0.840962
O O19 0.000000 0.695466 0.835403
O O20 0.500000 0.778088 0.383338
O O21 0.583402 0.000000 0.378485
#
# Coordination Sequence:
#
# PCOD9491358 Si02
#       7
#    16   8  16  16  16  16  16
#     4   9  18  35  57  77 101 138 182 221 257 305
#     4  10  21  35  53  79 107 136 172 216 266 314
#     4  10  21  37  57  79 104 137 177 219 263 314
#     4   9  18  33  53  76 102 135 176 218 259 308
#     4  10  21  37  57  80 106 138 176 218 265 315
#     4  10  21  36  55  81 111 142 177 217 262 313
#     4  10  21  35  52  77 108 141 176 216 264 313
#
# _framework density 17.644994000000001
#
# number of rings (size 3 to 8) (size 9 to 14) (size 15 to 20)
#    0.000    2.308    0.000    2.077    0.000    8.000 
#    0.000    6.154    0.000    2.308    0.000    3.231 
#    0.000    0.000    0.000    0.000    0.000    0.000 
#
# Total GULP energy -290285.703172 kJ/mol
# GULP energy per Si atom -5582.417369 kJ/mol
# Density = 1.760483 g / cm^3
# Si number density = 17.644994 Si / 1000 Ang^3
#
#
#
# Elastic Constant Matrix: (Units=GPa)
#
#
# Indices 1 2 3 4 5 6 
#
# 1 141.9253 61.1202 117.1760 0.0000 0.0000 0.0000
# 2 61.1202 44.6050 64.8287 0.0000 0.0000 0.0000
# 3 117.1760 64.8287 138.2428 0.0000 0.0000 0.0000
# 4 0.0000 0.0000 0.0000 25.3619 0.0000 0.0000
# 5 0.0000 0.0000 0.0000 0.0000 39.4630 0.0000
# 6 0.0000 0.0000 0.0000 0.0000 0.0000 32.4966
#
#
#
# Elastic Compliance Matrix: (Units=1/GPa)
#
#
# Indices 1 2 3 4 5 6 
#
# 1 0.025047 -0.010882 -0.016127 0.000000 0.000000 0.000000
# 2 -0.010882 0.075131 -0.026009 0.000000 0.000000 0.000000
# 3 -0.016127 -0.026009 0.033100 0.000000 0.000000 0.000000
# 4 0.000000 0.000000 0.000000 0.039429 0.000000 0.000000
# 5 0.000000 0.000000 0.000000 0.000000 0.025340 0.000000
# 6 0.000000 0.000000 0.000000 0.000000 0.000000 0.030772
#
#
# Mechanical properties :
#
#
# Convention : Reuss Voigt Hill
#
# Bulk Modulus (GPa) = 36.70758 90.11366 63.41062
# Shear Modulus (GPa) = 14.53753 24.90751 19.72252
#
# Velocity S-wave (km/s) = 2.87346 3.76119 3.34689
# Velocity P-wave (km/s) = 5.64425 8.36919 7.13796
#
# Compressibility (1/GPa) = 0.02724233
#
# Stress axis : x y z
#
# Youngs Moduli (GPa) = 39.92487 13.31004 30.21121
#
# Poissons Ratio (x) = 0.14483 0.48722
# Poissons Ratio (y) = 0.43444 0.78577
# Poissons Ratio (z) = 0.64388 0.34619
#
# Static dielectric constant tensor:
#      x y z
#    x 1.570320 0.000000 0.000000 
#    y 0.000000 1.589580 0.000000 
#    z 0.000000 0.000000 1.589920 
# 
# From -- ./inp_files/75524.got.cif
#   From: 2010.05.17/outbox.cif.g08.bks.cpg/sg65_38_cif.got.tgz:75524.got - 2010.06.03 17:01:31.
