data_PCOD9491899
_publ_section_title
;
Structure prediction by ZEFSAII (Michael W. Deem and Ramdas Pophale) SiO2 
 PCOD9491899
Probable space group: C M M M
;
_chemical_formula_sum "Si O2"
_cell_formula_units_Z 72
_cell_length_a 26.339516
_cell_length_b 8.359758
_cell_length_c 20.696302
_cell_angle_alpha 90.000000
_cell_angle_beta 90.000000
_cell_angle_gamma 90.000000
_cell_volume 4557.159708
_symmetry_space_group_name_H-M "C M M M"
_symmetry_group_IT_number 65
_symmetry_cell_setting 'orthorhombic'
loop_
_space_group_symop_operation_xyz
x,y,z
-x,-y,z
x,-y,-z
-x,y,-z
-x,-y,-z
x,y,-z
-x,y,z
x,-y,z
1/2+x,1/2+y,z
1/2-x,1/2-y,z
1/2+x,1/2-y,-z
1/2-x,1/2+y,-z
1/2-x,1/2-y,-z
1/2+x,1/2+y,-z
1/2-x,1/2+y,z
1/2+x,1/2-y,z
loop_
_atom_site_type_symbol
_atom_site_label
_atom_site_fract_x
_atom_site_fract_y
_atom_site_fract_z
Si Si1 0.500000 0.691904 0.425494
Si Si2 0.693980 0.691361 0.574155
Si Si3 0.059380 0.695453 0.789907
Si Si4 0.438596 0.809349 0.069547
Si Si5 0.598038 0.808455 0.653089
O O1 0.500000 0.500000 0.425417
O O2 0.500000 0.747108 0.500000
O O3 0.449930 0.750755 0.388734
O O4 0.684694 0.747209 0.500000
O O5 0.693596 0.500000 0.573846
O O6 0.750000 0.750000 0.593031
O O7 0.649742 0.751360 0.620469
O O8 0.060205 0.500000 0.791643
O O9 0.078310 0.753023 0.860344
O O10 0.089940 0.748270 0.726930
O O11 0.000000 0.740367 0.781798
O O12 0.500000 0.794795 0.070535
O O13 0.427857 0.000000 0.068594
O O14 0.420954 0.742482 0.000000
O O15 0.597316 0.000000 0.653753
#
# Coordination Sequence:
#
# PCOD9491899 Si02
#       5
#     8  16  16  16  16
#     4  11  23  35  45  61  88 121 156 192 225 263
#     4  10  21  37  54  70  88 112 146 189 232 273
#     4   8  13  22  35  56  88 120 149 180 215 256
#     4   7   9  14  27  48  77 114 149 178 209 246
#     4  11  20  31  48  69  93 121 150 184 227 274
#
# _framework density 15.799314000000001
#
# number of rings (size 3 to 8) (size 9 to 14) (size 15 to 20)
#    0.000    2.778    1.111    4.333    0.000    4.889 
#    0.000    0.000    0.000    0.000    0.000    0.000 
#    0.000    5.333    0.000    1.556    0.000    2.222 
#
# Total GULP energy -200466.553113 kJ/mol
# GULP energy per Si atom -5568.515364 kJ/mol
# Density = 1.576335 g / cm^3
# Si number density = 15.799314 Si / 1000 Ang^3
#
#
#
# Elastic Constant Matrix: (Units=GPa)
#
#
# Indices 1 2 3 4 5 6 
#
# 1 88.5281 15.5040 82.9224 0.0000 0.0000 0.0000
# 2 15.5040 20.8253 22.7715 0.0000 0.0000 0.0000
# 3 82.9224 22.7715 186.8833 0.0000 0.0000 0.0000
# 4 0.0000 0.0000 0.0000 -4.0211 0.0000 0.0000
# 5 0.0000 0.0000 0.0000 0.0000 11.7389 0.0000
# 6 0.0000 0.0000 0.0000 0.0000 0.0000 22.9144
#
#
#
# Elastic Compliance Matrix: (Units=1/GPa)
#
#
# Indices 1 2 3 4 5 6 
#
# 1 0.019953 -0.005969 -0.008126 0.000000 0.000000 0.000000
# 2 -0.005969 0.057185 -0.004319 0.000000 0.000000 0.000000
# 3 -0.008126 -0.004319 0.009483 0.000000 0.000000 0.000000
# 4 0.000000 0.000000 0.000000 -0.248687 0.000000 0.000000
# 5 0.000000 0.000000 0.000000 0.000000 0.085187 0.000000
# 6 0.000000 0.000000 0.000000 0.000000 0.000000 0.043641
#
#
# Mechanical properties :
#
#
# Convention : Reuss Voigt Hill
#
# Bulk Modulus (GPa) = 20.08350 59.84806 39.96578
# Shear Modulus (GPa) = 247.67890 17.79570 132.73730
#
# Velocity S-wave (km/s) = 12.53419 3.35977 9.17589
# Velocity P-wave (km/s) = 14.90684 7.28101 11.73088
#
# Compressibility (1/GPa) = 0.04979211
#
# Stress axis : x y z
#
# Youngs Moduli (GPa) = 50.11896 17.48697 105.45414
#
# Poissons Ratio (x) = 0.10438 0.85691
# Poissons Ratio (y) = 0.29916 0.45550
# Poissons Ratio (z) = 0.40726 0.07553
#
# Static dielectric constant tensor:
#      x y z
#    x 1.471520 0.000000 0.000000 
#    y 0.000000 1.547020 0.000000 
#    z 0.000000 0.000000 1.594150 
# 
# From -- ./inp_files/59531.got.cif
#   From: 2010.05.17/outbox.cif.g08.bks.cpg/sg65_30_cif.got.tgz:59531.got - 2010.06.03 17:01:31.
