data_PCOD9491138
_publ_section_title
;
Structure prediction by ZEFSAII (Michael W. Deem and Ramdas Pophale) SiO2 
 PCOD9491138
Probable space group: C M M M
;
_chemical_formula_sum "Si O2"
_cell_formula_units_Z 88
_cell_length_a 9.252459
_cell_length_b 32.064189
_cell_length_c 17.084742
_cell_angle_alpha 90.000000
_cell_angle_beta 90.000000
_cell_angle_gamma 90.000000
_cell_volume 5068.574729
_symmetry_space_group_name_H-M "C M M M"
_symmetry_group_IT_number 65
_symmetry_cell_setting 'orthorhombic'
loop_
_space_group_symop_operation_xyz
x,y,z
-x,-y,z
x,-y,-z
-x,y,-z
-x,-y,-z
x,y,-z
-x,y,z
x,-y,z
1/2+x,1/2+y,z
1/2-x,1/2-y,z
1/2+x,1/2-y,-z
1/2-x,1/2+y,-z
1/2-x,1/2-y,-z
1/2+x,1/2+y,-z
1/2-x,1/2+y,z
1/2+x,1/2-y,z
loop_
_atom_site_type_symbol
_atom_site_label
_atom_site_fract_x
_atom_site_fract_y
_atom_site_fract_z
Si Si1 0.672699 0.546591 0.249689
Si Si2 0.832620 0.440545 0.087458
Si Si3 0.328174 0.870143 0.300195
Si Si4 0.827372 0.292909 0.592983
Si Si5 0.337510 0.156410 0.876696
Si Si6 0.831258 0.793115 0.000000
O O1 0.500000 0.552322 0.247493
O O2 0.703327 0.500000 0.282225
O O3 0.735904 0.546769 0.161046
O O4 0.745699 0.585617 0.294603
O O5 0.834549 0.390451 0.090489
O O6 0.000000 0.453526 0.099289
O O7 0.786488 0.453309 0.000000
O O8 0.500000 0.878596 0.310407
O O9 0.281355 0.835420 0.363187
O O10 0.311223 0.848367 0.215411
O O11 0.801510 0.297240 0.500000
O O12 0.750000 0.250000 0.619161
O O13 0.000000 0.288552 0.605609
O O14 0.500000 0.173357 0.889482
O O15 0.221389 0.182266 0.923522
O O16 0.750000 0.750000 0.000000
O O17 0.000000 0.787662 0.000000
#
# Coordination Sequence:
#
# PCOD9491138 Si02
#       6
#    16  16  16  16  16   8
#     4  10  21  34  48  72 105 138 176 223 268 309
#     4   9  17  31  51  70  92 127 168 212 262 315
#     4   9  19  35  56  79 104 139 176 211 256 312
#     4   9  18  34  57  86 116 140 166 206 257 314
#     4   9  17  33  50  66  93 125 164 211 253 297
#     4  12  24  34  46  64  89 126 169 212 260 305
#
# _framework density 17.361882999999999
#
# number of rings (size 3 to 8) (size 9 to 14) (size 15 to 20)
#    0.000    2.545    0.909    2.455    0.000    6.545 
#    0.000    3.636    0.000    0.545    0.000    3.818 
#    0.000    0.000    0.000    0.000    0.000    0.000 
#
# Total GULP energy -245229.778945 kJ/mol
# GULP energy per Si atom -5573.404067 kJ/mol
# Density = 1.732237 g / cm^3
# Si number density = 17.361883 Si / 1000 Ang^3
#
#
#
# Elastic Constant Matrix: (Units=GPa)
#
#
# Indices 1 2 3 4 5 6 
#
# 1 87.6697 72.9238 30.1502 0.0000 0.0000 0.0000
# 2 72.9238 151.9870 54.0516 0.0000 0.0000 0.0000
# 3 30.1502 54.0516 56.5197 0.0000 0.0000 0.0000
# 4 0.0000 0.0000 0.0000 22.0736 0.0000 0.0000
# 5 0.0000 0.0000 0.0000 0.0000 17.3262 0.0000
# 6 0.0000 0.0000 0.0000 0.0000 0.0000 21.7147
#
#
#
# Elastic Compliance Matrix: (Units=1/GPa)
#
#
# Indices 1 2 3 4 5 6 
#
# 1 0.019156 -0.008421 -0.002165 0.000000 0.000000 0.000000
# 2 -0.008421 0.013672 -0.008583 0.000000 0.000000 0.000000
# 3 -0.002165 -0.008583 0.027056 0.000000 0.000000 0.000000
# 4 0.000000 0.000000 0.000000 0.045303 0.000000 0.000000
# 5 0.000000 0.000000 0.000000 0.000000 0.057716 0.000000
# 6 0.000000 0.000000 0.000000 0.000000 0.000000 0.046052
#
#
# Mechanical properties :
#
#
# Convention : Reuss Voigt Hill
#
# Bulk Modulus (GPa) = 46.41331 67.82528 57.11930
# Shear Modulus (GPa) = 19.64823 21.49295 20.57059
#
# Velocity S-wave (km/s) = 3.36771 3.52225 3.44585
# Velocity P-wave (km/s) = 6.47401 7.46272 6.98588
#
# Compressibility (1/GPa) = 0.02154554
#
# Stress axis : x y z
#
# Youngs Moduli (GPa) = 52.20406 73.14040 36.95977
#
# Poissons Ratio (x) = 0.61590 0.08003
# Poissons Ratio (y) = 0.43960 0.31723
# Poissons Ratio (z) = 0.11304 0.62778
#
# Static dielectric constant tensor:
#      x y z
#    x 1.584850 0.000000 0.000000 
#    y 0.000000 1.629250 0.000000 
#    z 0.000000 0.000000 1.587550 
# 
# From -- ./inp_files/50349.got.cif
#   From: 2010.05.17/outbox.cif.g08.bks.cpg/sg65_26_cif.got.tgz:50349.got - 2010.06.03 17:01:31.
