data_PCOD9491839
_publ_section_title
;
Structure prediction by ZEFSAII (Michael W. Deem and Ramdas Pophale) SiO2 
 PCOD9491839
Probable space group: C M M M
;
_chemical_formula_sum "Si O2"
_cell_formula_units_Z 64
_cell_length_a 30.706581
_cell_length_b 11.022941
_cell_length_c 8.379399
_cell_angle_alpha 90.000000
_cell_angle_beta 90.000000
_cell_angle_gamma 90.000000
_cell_volume 2836.232416
_symmetry_space_group_name_H-M "C M M M"
_symmetry_group_IT_number 65
_symmetry_cell_setting 'orthorhombic'
loop_
_space_group_symop_operation_xyz
x,y,z
-x,-y,z
x,-y,-z
-x,y,-z
-x,-y,-z
x,y,-z
-x,y,z
x,-y,z
1/2+x,1/2+y,z
1/2-x,1/2-y,z
1/2+x,1/2-y,-z
1/2-x,1/2+y,-z
1/2-x,1/2-y,-z
1/2+x,1/2+y,-z
1/2-x,1/2+y,z
1/2+x,1/2-y,z
loop_
_atom_site_type_symbol
_atom_site_label
_atom_site_fract_x
_atom_site_fract_y
_atom_site_fract_z
Si Si1 0.949350 0.643469 0.000000
Si Si2 0.713190 0.859235 0.000000
Si Si3 0.075517 0.000000 0.323446
Si Si4 0.697528 0.246192 0.322226
Si Si5 0.165348 0.000000 0.814888
Si Si6 0.049845 0.730609 0.672887
O O1 0.928386 0.685237 0.165552
O O2 0.951382 0.500000 0.000000
O O3 0.000000 0.691216 0.000000
O O4 0.750000 0.750000 0.000000
O O5 0.688030 0.836334 0.166790
O O6 0.728089 0.000000 0.000000
O O7 0.113290 0.000000 0.195439
O O8 0.049187 0.123844 0.315095
O O9 0.096916 0.000000 0.500000
O O10 0.681265 0.211988 0.500000
O O11 0.750000 0.250000 0.333612
O O12 0.681827 0.380297 0.274555
O O13 0.178190 0.000000 0.000000
O O14 0.069396 0.699044 0.500000
O O15 0.000000 0.684212 0.671191
#
# Coordination Sequence:
#
# PCOD9491839 Si02
#       6
#     8   8   8  16   8  16
#     4   9  18  31  49  78 114 152 197 248 292 346
#     4  10  22  36  58  89 125 154 188 235 291 352
#     4  10  21  36  57  85 122 156 198 246 300 361
#     4  10  22  37  60  86 117 151 190 238 294 351
#     4  12  24  39  61  92 124 159 199 252 304 368
#     4   9  18  33  55  84 117 155 198 247 301 353
#
# _framework density 22.565145999999999
#
# number of rings (size 3 to 8) (size 9 to 14) (size 15 to 20)
#    0.000    2.125    1.250    1.500    8.750    2.500 
#    0.000    4.375    0.000    3.000    0.000    3.500 
#    0.000    0.000    0.000    0.000    0.000    0.000 
#
# Total GULP energy -178416.301599 kJ/mol
# GULP energy per Si atom -5575.509425 kJ/mol
# Density = 2.251379 g / cm^3
# Si number density = 22.565146 Si / 1000 Ang^3
#
#
#
# Elastic Constant Matrix: (Units=GPa)
#
#
# Indices 1 2 3 4 5 6 
#
# 1 50.2843 1.3866 12.1870 0.0000 0.0000 0.0000
# 2 1.3866 86.2551 58.3447 0.0000 0.0000 0.0000
# 3 12.1870 58.3447 273.9598 0.0000 0.0000 0.0000
# 4 0.0000 0.0000 0.0000 16.1287 0.0000 0.0000
# 5 0.0000 0.0000 0.0000 0.0000 1.6988 0.0000
# 6 0.0000 0.0000 0.0000 0.0000 0.0000 -13.0513
#
#
#
# Elastic Compliance Matrix: (Units=1/GPa)
#
#
# Indices 1 2 3 4 5 6 
#
# 1 0.020112 0.000329 -0.000965 0.000000 0.000000 0.000000
# 2 0.000329 0.013550 -0.002900 0.000000 0.000000 0.000000
# 3 -0.000965 -0.002900 0.004311 0.000000 0.000000 0.000000
# 4 0.000000 0.000000 0.000000 0.062001 0.000000 0.000000
# 5 0.000000 0.000000 0.000000 0.000000 0.588652 0.000000
# 6 0.000000 0.000000 0.000000 0.000000 0.000000 -0.076621
#
#
# Mechanical properties :
#
#
# Convention : Reuss Voigt Hill
#
# Bulk Modulus (GPa) = 32.36163 61.59286 46.97725
# Shear Modulus (GPa) = 7.94436 23.52731 15.73584
#
# Velocity S-wave (km/s) = 1.87837 3.23250 2.64361
# Velocity P-wave (km/s) = 4.36771 6.42549 5.49381
#
# Compressibility (1/GPa) = 0.03090079
#
# Stress axis : x y z
#
# Youngs Moduli (GPa) = 49.72234 73.80021 231.97663
#
# Poissons Ratio (x) = -0.02430 0.22381
# Poissons Ratio (y) = -0.01637 0.67282
# Poissons Ratio (z) = 0.04797 0.21405
#
# Static dielectric constant tensor:
#      x y z
#    x 1.847380 0.000000 0.000000 
#    y 0.000000 1.787050 0.000000 
#    z 0.000000 0.000000 1.946030 
# 
# From -- ./inp_files/17871.got.cif
#   From: 2010.05.17/outbox.cif.g08.bks.cpg/sg65_9_cif.got.tgz:17871.got - 2010.06.03 17:01:31.
