data_PCOD9491724
_publ_section_title
;
Structure prediction by ZEFSAII (Michael W. Deem and Ramdas Pophale) SiO2 
 PCOD9491724
Probable space group: C M M M
;
_chemical_formula_sum "Si O2"
_cell_formula_units_Z 96
_cell_length_a 20.221389
_cell_length_b 27.576053
_cell_length_c 7.373948
_cell_angle_alpha 90.000000
_cell_angle_beta 90.000000
_cell_angle_gamma 90.000000
_cell_volume 4111.905826
_symmetry_space_group_name_H-M "C M M M"
_symmetry_group_IT_number 65
_symmetry_cell_setting 'orthorhombic'
loop_
_space_group_symop_operation_xyz
x,y,z
-x,-y,z
x,-y,-z
-x,y,-z
-x,-y,-z
x,y,-z
-x,y,z
x,-y,z
1/2+x,1/2+y,z
1/2-x,1/2-y,z
1/2+x,1/2-y,-z
1/2-x,1/2+y,-z
1/2-x,1/2-y,-z
1/2+x,1/2+y,-z
1/2-x,1/2+y,z
1/2+x,1/2-y,z
loop_
_atom_site_type_symbol
_atom_site_label
_atom_site_fract_x
_atom_site_fract_y
_atom_site_fract_z
Si Si1 0.928190 0.923699 0.707262
Si Si2 0.570999 0.311979 0.782124
Si Si3 0.357185 0.055697 0.280893
Si Si4 0.714329 0.442490 0.704881
Si Si5 0.425967 0.845913 0.786169
Si Si6 0.177182 0.265947 0.221194
O O1 0.927001 0.942481 0.500000
O O2 0.927778 0.865585 0.704190
O O3 0.857495 0.936091 0.792797
O O4 0.000000 0.938308 0.785558
O O5 0.500000 0.289184 0.738347
O O6 0.629955 0.278303 0.725981
O O7 0.574372 0.317480 0.000000
O O8 0.352783 0.053998 0.500000
O O9 0.284329 0.073268 0.213413
O O10 0.409069 0.097195 0.233519
O O11 0.370782 0.000000 0.220912
O O12 0.709563 0.421437 0.500000
O O13 0.723327 0.500000 0.689719
O O14 0.500000 0.836024 0.712534
O O15 0.363688 0.813770 0.716992
O O16 0.429293 0.834602 0.000000
O O17 0.250000 0.250000 0.283417
O O18 0.181056 0.269002 0.000000
#
# Coordination Sequence:
#
# PCOD9491724 Si02
#       6
#    16  16  16  16  16  16
#     4   9  17  28  45  71  99 127 162 205 250 293
#     4   9  17  30  48  68  94 129 163 195 237 292
#     4   9  19  36  56  77 103 138 176 211 254 310
#     4   8  15  29  48  69  96 130 166 206 250 297
#     4  10  21  36  55  80 108 135 167 213 262 303
#     4   9  18  32  51  75 100 131 169 205 243 295
#
# _framework density 23.346838000000002
#
# number of rings (size 3 to 8) (size 9 to 14) (size 15 to 20)
#    0.000    3.000    0.000    1.500    2.333    3.333 
#    0.000    4.167    0.000    4.500    0.000    2.333 
#    0.000    0.000    0.000    0.000    0.000    0.000 
#
# Total GULP energy -267508.815808 kJ/mol
# GULP energy per Si atom -5573.100329 kJ/mol
# Density = 2.329370 g / cm^3
# Si number density = 23.346838 Si / 1000 Ang^3
#
#
#
# Elastic Constant Matrix: (Units=GPa)
#
#
# Indices 1 2 3 4 5 6 
#
# 1 193.3459 70.3882 13.4292 0.0000 0.0000 0.0000
# 2 70.3882 97.1763 -1.6159 0.0000 0.0000 0.0000
# 3 13.4292 -1.6159 80.9682 0.0000 0.0000 0.0000
# 4 0.0000 0.0000 0.0000 7.6667 0.0000 0.0000
# 5 0.0000 0.0000 0.0000 0.0000 -53.2786 0.0000
# 6 0.0000 0.0000 0.0000 0.0000 0.0000 28.1590
#
#
#
# Elastic Compliance Matrix: (Units=1/GPa)
#
#
# Indices 1 2 3 4 5 6 
#
# 1 0.007157 -0.005205 -0.001291 0.000000 0.000000 0.000000
# 2 -0.005205 0.014080 0.001144 0.000000 0.000000 0.000000
# 3 -0.001291 0.001144 0.012587 0.000000 0.000000 0.000000
# 4 0.000000 0.000000 0.000000 0.130434 0.000000 0.000000
# 5 0.000000 0.000000 0.000000 0.000000 -0.018769 0.000000
# 6 0.000000 0.000000 0.000000 0.000000 0.000000 0.035513
#
#
# Mechanical properties :
#
#
# Convention : Reuss Voigt Hill
#
# Bulk Modulus (GPa) = 43.25174 59.54370 51.39772
# Shear Modulus (GPa) = 25.07372 15.79534 20.43453
#
# Velocity S-wave (km/s) = 3.28070 2.60388 2.96169
# Velocity P-wave (km/s) = 5.73730 5.88214 5.81017
#
# Compressibility (1/GPa) = 0.02312046
#
# Stress axis : x y z
#
# Youngs Moduli (GPa) = 139.72787 71.02260 79.44406
#
# Poissons Ratio (x) = 0.36970 0.10255
# Poissons Ratio (y) = 0.72733 -0.09091
# Poissons Ratio (z) = 0.18037 -0.08127
#
# Static dielectric constant tensor:
#      x y z
#    x 1.971790 0.000000 0.000000 
#    y 0.000000 1.832180 0.000000 
#    z 0.000000 0.000000 1.691650 
# 
# From -- ./inp_files/27105.got.cif
#   From: 2010.05.17/outbox.cif.g08.bks.cpg/sg65_14_cif.got.tgz:27105.got - 2010.06.03 17:01:31.
