data_PCOD9491867
_publ_section_title
;
Structure prediction by ZEFSAII (Michael W. Deem and Ramdas Pophale) SiO2 
 PCOD9491867
Probable space group: C M M M
;
_chemical_formula_sum "Si O2"
_cell_formula_units_Z 80
_cell_length_a 7.811625
_cell_length_b 29.635935
_cell_length_c 17.057064
_cell_angle_alpha 90.000000
_cell_angle_beta 90.000000
_cell_angle_gamma 90.000000
_cell_volume 3948.792373
_symmetry_space_group_name_H-M "C M M M"
_symmetry_group_IT_number 65
_symmetry_cell_setting 'orthorhombic'
loop_
_space_group_symop_operation_xyz
x,y,z
-x,-y,z
x,-y,-z
-x,y,-z
-x,-y,-z
x,y,-z
-x,y,z
x,-y,z
1/2+x,1/2+y,z
1/2-x,1/2-y,z
1/2+x,1/2-y,-z
1/2-x,1/2+y,-z
1/2-x,1/2-y,-z
1/2+x,1/2+y,-z
1/2-x,1/2+y,z
1/2+x,1/2-y,z
loop_
_atom_site_type_symbol
_atom_site_label
_atom_site_fract_x
_atom_site_fract_y
_atom_site_fract_z
Si Si1 0.206624 0.699601 0.909725
Si Si2 0.796612 0.349389 0.500000
Si Si3 0.806710 0.370416 0.786522
Si Si4 0.702119 0.698202 0.339823
Si Si5 0.699292 0.550399 0.672854
Si Si6 0.244012 0.947334 0.500000
O O1 0.250000 0.750000 0.878525
O O2 0.272313 0.656502 0.860520
O O3 0.000000 0.696783 0.908529
O O4 0.265930 0.697950 0.000000
O O5 0.751993 0.320510 0.575602
O O6 0.686332 0.395094 0.500000
O O7 0.000000 0.361181 0.500000
O O8 0.804886 0.330923 0.722390
O O9 0.726831 0.412492 0.739716
O O10 0.000000 0.384060 0.806941
O O11 0.500000 0.691604 0.326375
O O12 0.750000 0.750000 0.333849
O O13 0.500000 0.553671 0.646280
O O14 0.727405 0.500000 0.704361
O O15 0.806802 0.554343 0.591808
O O16 0.179936 0.000000 0.500000
#
# Coordination Sequence:
#
# PCOD9491867 Si02
#       6
#    16   8  16  16  16   8
#     4   9  19  36  58  85 116 148 183 225 276 334
#     4  12  24  39  57  80 111 145 189 235 281 333
#     4  11  22  36  57  85 115 146 184 231 281 337
#     4  12  25  40  57  77 109 149 189 231 279 333
#     4  10  21  37  58  83 113 149 191 238 287 337
#     4  10  21  36  59  85 112 146 189 238 284 331
#
# _framework density 20.259359
#
# number of rings (size 3 to 8) (size 9 to 14) (size 15 to 20)
#    0.000    1.400    2.000    3.900    0.000    5.800 
#    0.000    2.000    0.000    0.600    0.000    4.200 
#    0.000    0.000    0.000    0.000    0.000    0.000 
#
# Total GULP energy -222713.842132 kJ/mol
# GULP energy per Si atom -5567.846053 kJ/mol
# Density = 2.021325 g / cm^3
# Si number density = 20.259359 Si / 1000 Ang^3
#
#
#
# Elastic Constant Matrix: (Units=GPa)
#
#
# Indices 1 2 3 4 5 6 
#
# 1 80.8907 9.5458 1.4155 0.0000 0.0000 0.0000
# 2 9.5458 169.1716 54.3460 0.0000 0.0000 0.0000
# 3 1.4155 54.3460 93.8659 0.0000 0.0000 0.0000
# 4 0.0000 0.0000 0.0000 39.5885 0.0000 0.0000
# 5 0.0000 0.0000 0.0000 0.0000 17.4076 0.0000
# 6 0.0000 0.0000 0.0000 0.0000 0.0000 8.4780
#
#
#
# Elastic Compliance Matrix: (Units=1/GPa)
#
#
# Indices 1 2 3 4 5 6 
#
# 1 0.012451 -0.000789 0.000269 0.000000 0.000000 0.000000
# 2 -0.000789 0.007312 -0.004221 0.000000 0.000000 0.000000
# 3 0.000269 -0.004221 0.013094 0.000000 0.000000 0.000000
# 4 0.000000 0.000000 0.000000 0.025260 0.000000 0.000000
# 5 0.000000 0.000000 0.000000 0.000000 0.057446 0.000000
# 6 0.000000 0.000000 0.000000 0.000000 0.000000 0.117953
#
#
# Mechanical properties :
#
#
# Convention : Reuss Voigt Hill
#
# Bulk Modulus (GPa) = 42.78379 52.72697 47.75538
# Shear Modulus (GPa) = 19.93710 31.66955 25.80333
#
# Velocity S-wave (km/s) = 3.14043 3.95803 3.57269
# Velocity P-wave (km/s) = 5.85778 6.85350 6.37511
#
# Compressibility (1/GPa) = 0.02337334
#
# Stress axis : x y z
#
# Youngs Moduli (GPa) = 80.31639 136.76505 76.37344
#
# Poissons Ratio (x) = 0.10791 -0.02055
# Poissons Ratio (y) = 0.06337 0.32241
# Poissons Ratio (z) = -0.02161 0.57735
#
# Static dielectric constant tensor:
#      x y z
#    x 1.922270 0.000000 0.000000 
#    y 0.000000 1.693790 0.000000 
#    z 0.000000 0.000000 1.751120 
# 
# From -- ./inp_files/49921.got.cif
#   From: 2010.05.17/outbox.cif.g08.bks.cpg/sg65_25_cif.got.tgz:49921.got - 2010.06.03 17:01:31.
