data_PCOD9491335
_publ_section_title
;
Structure prediction by ZEFSAII (Michael W. Deem and Ramdas Pophale) SiO2 
 PCOD9491335
Probable space group: C M M M
;
_chemical_formula_sum "Si O2"
_cell_formula_units_Z 104
_cell_length_a 21.000919
_cell_length_b 7.703185
_cell_length_c 31.485360
_cell_angle_alpha 90.000000
_cell_angle_beta 90.000000
_cell_angle_gamma 90.000000
_cell_volume 5093.511502
_symmetry_space_group_name_H-M "C M M M"
_symmetry_group_IT_number 65
_symmetry_cell_setting 'orthorhombic'
loop_
_space_group_symop_operation_xyz
x,y,z
-x,-y,z
x,-y,-z
-x,y,-z
-x,-y,-z
x,y,-z
-x,y,z
x,-y,z
1/2+x,1/2+y,z
1/2-x,1/2-y,z
1/2+x,1/2-y,-z
1/2-x,1/2+y,-z
1/2-x,1/2-y,-z
1/2+x,1/2+y,-z
1/2-x,1/2+y,z
1/2+x,1/2-y,z
loop_
_atom_site_type_symbol
_atom_site_label
_atom_site_fract_x
_atom_site_fract_y
_atom_site_fract_z
Si Si1 0.821988 0.709089 0.548479
Si Si2 0.500000 0.195923 0.948813
Si Si3 0.572103 0.204294 0.387083
Si Si4 0.073360 0.786870 0.200101
Si Si5 0.859008 0.797675 0.047604
Si Si6 0.818978 0.208758 0.135714
Si Si7 0.077131 0.199851 0.706714
O O1 0.829954 0.773242 0.500000
O O2 0.826898 0.500000 0.547332
O O3 0.750000 0.750000 0.562355
O O4 0.876191 0.777080 0.580203
O O5 0.566447 0.287047 0.939046
O O6 0.500000 0.000000 0.931897
O O7 0.500000 0.187150 0.000000
O O8 0.500000 0.278366 0.390333
O O9 0.594805 0.219072 0.338257
O O10 0.566736 0.000000 0.396246
O O11 0.122692 0.728784 0.164456
O O12 0.095290 0.727663 0.247158
O O13 0.000000 0.734377 0.192259
O O14 0.073144 0.000000 0.201136
O O15 0.822766 0.718746 0.087608
O O16 0.841954 0.000000 0.044155
O O17 0.851110 0.721324 0.000000
O O18 0.750000 0.250000 0.154200
O O19 0.825307 0.000000 0.133057
O O20 0.000000 0.203884 0.707996
O O21 0.097739 0.000000 0.704979
#
# Coordination Sequence:
#
# PCOD9491335 Si02
#       7
#    16   8  16  16  16  16  16
#     4   9  18  32  48  66  92 128 166 200 235 278
#     4   9  17  29  47  73 101 125 151 193 243 279
#     4   9  17  29  47  72  99 124 153 194 243 289
#     4   8  15  30  53  75  92 120 164 201 233 282
#     4   9  18  32  50  72  97 128 165 199 235 285
#     4  10  21  35  52  72  99 131 162 200 243 287
#     4   8  14  27  48  72  95 120 155 198 238 282
#
# _framework density 20.418133999999998
#
# number of rings (size 3 to 8) (size 9 to 14) (size 15 to 20)
#    0.000    3.154    0.000    1.154    1.077    2.769 
#    0.000    3.077    0.000    4.615    0.000    4.308 
#    0.000    0.000    0.000    0.000    0.000    0.000 
#
# Total GULP energy -289667.285526 kJ/mol
# GULP energy per Si atom -5570.524722 kJ/mol
# Density = 2.037166 g / cm^3
# Si number density = 20.418134 Si / 1000 Ang^3
#
#
#
# Elastic Constant Matrix: (Units=GPa)
#
#
# Indices 1 2 3 4 5 6 
#
# 1 109.7024 -0.9498 89.8073 0.0000 0.0000 0.0000
# 2 -0.9498 34.0865 8.3286 0.0000 0.0000 0.0000
# 3 89.8073 8.3286 141.3249 0.0000 0.0000 0.0000
# 4 0.0000 0.0000 0.0000 -76.3208 0.0000 0.0000
# 5 0.0000 0.0000 0.0000 0.0000 -57.0672 0.0000
# 6 0.0000 0.0000 0.0000 0.0000 0.0000 12.6665
#
#
#
# Elastic Compliance Matrix: (Units=1/GPa)
#
#
# Indices 1 2 3 4 5 6 
#
# 1 0.019428 0.003610 -0.012558 0.000000 0.000000 0.000000
# 2 0.003610 0.030437 -0.004088 0.000000 0.000000 0.000000
# 3 -0.012558 -0.004088 0.015297 0.000000 0.000000 0.000000
# 4 0.000000 0.000000 0.000000 -0.013103 0.000000 0.000000
# 5 0.000000 0.000000 0.000000 0.000000 -0.017523 0.000000
# 6 0.000000 0.000000 0.000000 0.000000 0.000000 0.078948
#
#
# Mechanical properties :
#
#
# Convention : Reuss Voigt Hill
#
# Bulk Modulus (GPa) = 25.58260 53.27622 39.42941
# Shear Modulus (GPa) = 32.76840 -11.61578 10.57631
#
# Velocity S-wave (km/s) = 4.01043 -2.38774 2.27840
# Velocity P-wave (km/s) = 5.83106 4.30668 5.12585
#
# Compressibility (1/GPa) = 0.03908906
#
# Stress axis : x y z
#
# Youngs Moduli (GPa) = 51.47298 32.85528 65.37138
#
# Poissons Ratio (x) = -0.11860 0.82096
# Poissons Ratio (y) = -0.18581 0.26721
# Poissons Ratio (z) = 0.64642 0.13430
#
# Static dielectric constant tensor:
#      x y z
#    x 1.716700 0.000000 0.000000 
#    y 0.000000 1.771290 0.000000 
#    z 0.000000 0.000000 1.759970 
# 
# From -- ./inp_files/78257.got.cif
#   From: 2010.05.17/outbox.cif.g08.bks.cpg/sg65_40_cif.got.tgz:78257.got - 2010.06.03 17:01:31.
