data_PCOD9491154
_publ_section_title
;
Structure prediction by ZEFSAII (Michael W. Deem and Ramdas Pophale) SiO2 
 PCOD9491154
Probable space group: C M M M
;
_chemical_formula_sum "Si O2"
_cell_formula_units_Z 88
_cell_length_a 28.374189
_cell_length_b 8.683396
_cell_length_c 19.596970
_cell_angle_alpha 90.000000
_cell_angle_beta 90.000000
_cell_angle_gamma 90.000000
_cell_volume 4828.386113
_symmetry_space_group_name_H-M "C M M M"
_symmetry_group_IT_number 65
_symmetry_cell_setting 'orthorhombic'
loop_
_space_group_symop_operation_xyz
x,y,z
-x,-y,z
x,-y,-z
-x,y,-z
-x,-y,-z
x,y,-z
-x,y,z
x,-y,z
1/2+x,1/2+y,z
1/2-x,1/2-y,z
1/2+x,1/2-y,-z
1/2-x,1/2+y,-z
1/2-x,1/2-y,-z
1/2+x,1/2+y,-z
1/2-x,1/2+y,z
1/2+x,1/2-y,z
loop_
_atom_site_type_symbol
_atom_site_label
_atom_site_fract_x
_atom_site_fract_y
_atom_site_fract_z
Si Si1 0.888380 0.814696 0.577516
Si Si2 0.446407 0.685390 0.292154
Si Si3 0.000000 0.825393 0.082674
Si Si4 0.301344 0.184464 0.338607
Si Si5 0.359239 0.816651 0.791033
Si Si6 0.896127 0.186265 0.921722
O O1 0.896514 0.763567 0.500000
O O2 0.930363 0.778412 0.630344
O O3 0.840795 0.744643 0.609059
O O4 0.883470 0.000000 0.577515
O O5 0.500000 0.731947 0.278405
O O6 0.443138 0.500000 0.283177
O O7 0.407925 0.763940 0.244425
O O8 0.050992 0.755667 0.098535
O O9 0.000000 0.000000 0.111331
O O10 0.000000 0.837260 0.000000
O O11 0.250000 0.250000 0.353353
O O12 0.319037 0.232642 0.262741
O O13 0.300511 0.000000 0.340988
O O14 0.359495 0.743439 0.865832
O O15 0.357913 0.000000 0.796746
O O16 0.898395 0.000000 0.920617
O O17 0.886607 0.232635 0.000000
#
# Coordination Sequence:
#
# PCOD9491154 Si02
#       6
#    16  16   8  16  16  16
#     4   9  18  33  53  78 106 133 165 206 249 295
#     4   9  18  32  50  72 100 138 178 209 240 284
#     4   7  12  24  41  63  91 123 160 197 230 269
#     4  10  21  37  56  76  99 129 165 206 254 305
#     4  10  21  34  49  73 103 132 164 208 257 301
#     4   9  17  30  49  72  99 133 171 208 246 292
#
# _framework density 18.225550999999999
#
# number of rings (size 3 to 8) (size 9 to 14) (size 15 to 20)
#    0.000    2.818    0.000    2.182    1.273    4.000 
#    0.000    1.818    0.000    2.182    0.000    5.091 
#    0.000    0.000    0.000    0.000    0.000    0.000 
#
# Total GULP energy -245272.494618 kJ/mol
# GULP energy per Si atom -5574.374878 kJ/mol
# Density = 1.818407 g / cm^3
# Si number density = 18.225551 Si / 1000 Ang^3
#
#
#
# Elastic Constant Matrix: (Units=GPa)
#
#
# Indices 1 2 3 4 5 6 
#
# 1 26.2107 -0.5068 -21.6971 0.0000 0.0000 0.0000
# 2 -0.5068 7.1446 9.3538 0.0000 0.0000 0.0000
# 3 -21.6971 9.3538 76.3133 0.0000 0.0000 0.0000
# 4 0.0000 0.0000 0.0000 20.1194 0.0000 0.0000
# 5 0.0000 0.0000 0.0000 0.0000 14.9240 0.0000
# 6 0.0000 0.0000 0.0000 0.0000 0.0000 19.6514
#
#
#
# Elastic Compliance Matrix: (Units=1/GPa)
#
#
# Indices 1 2 3 4 5 6 
#
# 1 0.051896 -0.018625 0.017038 0.000000 0.000000 0.000000
# 2 -0.018625 0.173403 -0.026549 0.000000 0.000000 0.000000
# 3 0.017038 -0.026549 0.021202 0.000000 0.000000 0.000000
# 4 0.000000 0.000000 0.000000 0.049703 0.000000 0.000000
# 5 0.000000 0.000000 0.000000 0.000000 0.067006 0.000000
# 6 0.000000 0.000000 0.000000 0.000000 0.000000 0.050887
#
#
# Mechanical properties :
#
#
# Convention : Reuss Voigt Hill
#
# Bulk Modulus (GPa) = 5.25682 9.32980 7.29331
# Shear Modulus (GPa) = 9.36715 19.10686 14.23701
#
# Velocity S-wave (km/s) = 2.26952 3.24135 2.79795
# Velocity P-wave (km/s) = 3.12381 4.37477 3.80111
#
# Compressibility (1/GPa) = 0.19022915
#
# Stress axis : x y z
#
# Youngs Moduli (GPa) = 19.26929 5.76690 47.16500
#
# Poissons Ratio (x) = 0.10741 -0.80358
# Poissons Ratio (y) = 0.35888 1.25220
# Poissons Ratio (z) = -0.32830 0.15311
#
# Static dielectric constant tensor:
#      x y z
#    x 1.608110 0.000000 0.000000 
#    y 0.000000 1.623640 0.000000 
#    z 0.000000 0.000000 1.658330 
# 
# From -- ./inp_files/57976.got.cif
#   From: 2010.05.17/outbox.cif.g08.bks.cpg/sg65_29_cif.got.tgz:57976.got - 2010.06.03 17:01:31.
