data_PCOD9491994
_publ_section_title
;
Structure prediction by ZEFSAII (Michael W. Deem and Ramdas Pophale) SiO2 
 PCOD9491994
Probable space group: C M M M
;
_chemical_formula_sum "Si O2"
_cell_formula_units_Z 72
_cell_length_a 7.751277
_cell_length_b 19.109076
_cell_length_c 24.160464
_cell_angle_alpha 90.000000
_cell_angle_beta 90.000000
_cell_angle_gamma 90.000000
_cell_volume 3578.641677
_symmetry_space_group_name_H-M "C M M M"
_symmetry_group_IT_number 65
_symmetry_cell_setting 'orthorhombic'
loop_
_space_group_symop_operation_xyz
x,y,z
-x,-y,z
x,-y,-z
-x,y,-z
-x,-y,-z
x,y,-z
-x,y,z
x,-y,z
1/2+x,1/2+y,z
1/2-x,1/2-y,z
1/2+x,1/2-y,-z
1/2-x,1/2+y,-z
1/2-x,1/2-y,-z
1/2+x,1/2+y,-z
1/2-x,1/2+y,z
1/2+x,1/2-y,z
loop_
_atom_site_type_symbol
_atom_site_label
_atom_site_fract_x
_atom_site_fract_y
_atom_site_fract_z
Si Si1 0.296433 0.168025 0.000000
Si Si2 0.706082 0.579275 0.107905
Si Si3 0.292407 0.331162 0.665375
Si Si4 0.210545 0.918586 0.561007
Si Si5 0.708097 0.331486 0.788908
O O1 0.250000 0.250000 0.000000
O O2 0.233685 0.127332 0.054384
O O3 0.500000 0.163610 0.000000
O O4 0.500000 0.573781 0.114894
O O5 0.773511 0.500000 0.101027
O O6 0.774844 0.618923 0.162334
O O7 0.500000 0.338883 0.666321
O O8 0.250000 0.250000 0.656953
O O9 0.225962 0.375694 0.613740
O O10 0.228805 0.350293 0.727074
O O11 0.265958 0.892998 0.500000
O O12 0.000000 0.915874 0.561366
O O13 0.258247 0.000000 0.565818
O O14 0.500000 0.336686 0.788227
O O15 0.750000 0.250000 0.799502
#
# Coordination Sequence:
#
# PCOD9491994 Si02
#       5
#     8  16  16  16  16
#     4  12  25  40  59  81 105 135 171 206 245 294
#     4  10  21  37  56  79 107 135 165 205 251 296
#     4   9  17  29  46  69  96 125 160 202 244 287
#     4   8  14  25  42  65  92 122 158 200 243 287
#     4   9  18  32  50  72  98 130 165 201 243 291
#
# _framework density 20.119365999999999
#
# number of rings (size 3 to 8) (size 9 to 14) (size 15 to 20)
#    0.000    2.667    0.000    2.667    0.000    5.778 
#    0.000    4.444    0.000    0.667    0.000    7.778 
#    0.000    0.000    0.000    0.000    0.000    0.000 
#
# Total GULP energy -200831.961706 kJ/mol
# GULP energy per Si atom -5578.665603 kJ/mol
# Density = 2.007357 g / cm^3
# Si number density = 20.119366 Si / 1000 Ang^3
#
#
#
# Elastic Constant Matrix: (Units=GPa)
#
#
# Indices 1 2 3 4 5 6 
#
# 1 31.3798 1.8208 4.7000 0.0000 0.0000 0.0000
# 2 1.8208 136.2771 135.0734 0.0000 0.0000 0.0000
# 3 4.7000 135.0734 229.1616 0.0000 0.0000 0.0000
# 4 0.0000 0.0000 0.0000 159.4251 0.0000 0.0000
# 5 0.0000 0.0000 0.0000 0.0000 -3.1036 0.0000
# 6 0.0000 0.0000 0.0000 0.0000 0.0000 20.1188
#
#
#
# Elastic Compliance Matrix: (Units=1/GPa)
#
#
# Indices 1 2 3 4 5 6 
#
# 1 0.031982 0.000536 -0.000972 0.000000 0.000000 0.000000
# 2 0.000536 0.017658 -0.010419 0.000000 0.000000 0.000000
# 3 -0.000972 -0.010419 0.010525 0.000000 0.000000 0.000000
# 4 0.000000 0.000000 0.000000 0.006273 0.000000 0.000000
# 5 0.000000 0.000000 0.000000 0.000000 -0.322210 0.000000
# 6 0.000000 0.000000 0.000000 0.000000 0.000000 0.049705
#
#
# Mechanical properties :
#
#
# Convention : Reuss Voigt Hill
#
# Bulk Modulus (GPa) = 26.00441 75.55634 50.78037
# Shear Modulus (GPa) = -29.14757 52.30302 11.57772
#
# Velocity S-wave (km/s) = -3.81035 5.10419 2.40146
# Velocity P-wave (km/s) = 2.53086 8.50721 5.74314
#
# Compressibility (1/GPa) = 0.03845502
#
# Stress axis : x y z
#
# Youngs Moduli (GPa) = 31.26752 56.63272 95.01391
#
# Poissons Ratio (x) = -0.03035 0.09234
# Poissons Ratio (y) = -0.01676 0.98993
# Poissons Ratio (z) = 0.03039 0.59005
#
# Static dielectric constant tensor:
#      x y z
#    x 1.739290 0.000000 0.000000 
#    y 0.000000 1.661070 0.000000 
#    z 0.000000 0.000000 1.775420 
# 
# From -- ./inp_files/59269.got.cif
#   From: 2010.05.17/outbox.cif.g08.bks.cpg/sg65_30_cif.got.tgz:59269.got - 2010.06.03 17:01:31.
