data_PCOD9491384
_publ_section_title
;
Structure prediction by ZEFSAII (Michael W. Deem and Ramdas Pophale) SiO2 
 PCOD9491384
Probable space group: C M M M
;
_chemical_formula_sum "Si O2"
_cell_formula_units_Z 72
_cell_length_a 18.667332
_cell_length_b 7.801592
_cell_length_c 25.846617
_cell_angle_alpha 90.000000
_cell_angle_beta 90.000000
_cell_angle_gamma 90.000000
_cell_volume 3764.169689
_symmetry_space_group_name_H-M "C M M M"
_symmetry_group_IT_number 65
_symmetry_cell_setting 'orthorhombic'
loop_
_space_group_symop_operation_xyz
x,y,z
-x,-y,z
x,-y,-z
-x,y,-z
-x,-y,-z
x,y,-z
-x,y,z
x,-y,z
1/2+x,1/2+y,z
1/2-x,1/2-y,z
1/2+x,1/2-y,-z
1/2-x,1/2+y,-z
1/2-x,1/2-y,-z
1/2+x,1/2+y,-z
1/2-x,1/2+y,z
1/2+x,1/2-y,z
loop_
_atom_site_type_symbol
_atom_site_label
_atom_site_fract_x
_atom_site_fract_y
_atom_site_fract_z
Si Si1 0.833083 0.793274 0.942211
Si Si2 0.919529 0.795240 0.843613
Si Si3 0.086954 0.000000 0.558914
Si Si4 0.586029 0.797830 0.637289
Si Si5 0.166647 0.703605 0.258676
O O1 0.750000 0.750000 0.932843
O O2 0.881346 0.726650 0.895338
O O3 0.838797 0.000000 0.943007
O O4 0.852269 0.730716 0.000000
O O5 0.871772 0.766735 0.793100
O O6 0.000000 0.726900 0.836724
O O7 0.924648 0.000000 0.850186
O O8 0.107077 0.829540 0.590921
O O9 0.113408 0.000000 0.500000
O O10 0.000000 0.000000 0.556996
O O11 0.500000 0.784557 0.644805
O O12 0.625905 0.738544 0.689422
O O13 0.601817 0.000000 0.627455
O O14 0.160423 0.500000 0.258217
O O15 0.250000 0.750000 0.259595
#
# Coordination Sequence:
#
# PCOD9491384 Si02
#       5
#    16  16   8  16  16
#     4   9  18  33  52  74 102 138 180 225 271 325
#     4  10  21  35  53  78 107 140 179 225 277 331
#     4   9  18  32  56  88 116 148 186 228 278 327
#     4   9  19  35  55  82 114 148 186 231 280 332
#     4  11  23  37  55  80 107 143 181 225 277 331
#
# _framework density 19.127725000000002
#
# number of rings (size 3 to 8) (size 9 to 14) (size 15 to 20)
#    0.000    2.333    0.000    2.000    3.111    4.889 
#    0.000    4.444    0.000    0.667    0.000    4.667 
#    0.000    0.000    0.000    0.000    0.000    0.000 
#
# Total GULP energy -200881.374201 kJ/mol
# GULP energy per Si atom -5580.038172 kJ/mol
# Density = 1.908419 g / cm^3
# Si number density = 19.127725 Si / 1000 Ang^3
#
#
#
# Elastic Constant Matrix: (Units=GPa)
#
#
# Indices 1 2 3 4 5 6 
#
# 1 90.5811 25.9953 90.5460 0.0000 0.0000 0.0000
# 2 25.9953 50.9929 49.6982 0.0000 0.0000 0.0000
# 3 90.5460 49.6982 196.8670 0.0000 0.0000 0.0000
# 4 0.0000 0.0000 0.0000 -9.2257 0.0000 0.0000
# 5 0.0000 0.0000 0.0000 0.0000 -141.8390 0.0000
# 6 0.0000 0.0000 0.0000 0.0000 0.0000 14.0968
#
#
#
# Elastic Compliance Matrix: (Units=1/GPa)
#
#
# Indices 1 2 3 4 5 6 
#
# 1 0.020542 -0.001676 -0.009025 0.000000 0.000000 0.000000
# 2 -0.001676 0.026147 -0.005830 0.000000 0.000000 0.000000
# 3 -0.009025 -0.005830 0.010702 0.000000 0.000000 0.000000
# 4 0.000000 0.000000 0.000000 -0.108393 0.000000 0.000000
# 5 0.000000 0.000000 0.000000 0.000000 -0.007050 0.000000
# 6 0.000000 0.000000 0.000000 0.000000 0.000000 0.070938
#
#
# Mechanical properties :
#
#
# Convention : Reuss Voigt Hill
#
# Bulk Modulus (GPa) = 41.10250 74.54668 57.82459
# Shear Modulus (GPa) = 92.49445 -15.91346 38.29050
#
# Velocity S-wave (km/s) = 6.96141 -2.88750 4.47904
# Velocity P-wave (km/s) = 9.28170 5.28591 7.55284
#
# Compressibility (1/GPa) = 0.02432942
#
# Stress axis : x y z
#
# Youngs Moduli (GPa) = 48.67983 38.24570 93.43910
#
# Poissons Ratio (x) = 0.06411 0.84329
# Poissons Ratio (y) = 0.08160 0.54472
# Poissons Ratio (z) = 0.43934 0.22296
#
# Static dielectric constant tensor:
#      x y z
#    x 1.633620 0.000000 0.000000 
#    y 0.000000 1.690020 0.000000 
#    z 0.000000 0.000000 1.665020 
# 
# From -- ./inp_files/67238.got.cif
#   From: 2010.05.17/outbox.cif.g08.bks.cpg/sg65_34_cif.got.tgz:67238.got - 2010.06.03 17:01:31.
