data_PCOD9491642
_publ_section_title
;
Structure prediction by ZEFSAII (Michael W. Deem and Ramdas Pophale) SiO2 
 PCOD9491642
Probable space group: C M M M
;
_chemical_formula_sum "Si O2"
_cell_formula_units_Z 104
_cell_length_a 8.693129
_cell_length_b 20.219251
_cell_length_c 33.886272
_cell_angle_alpha 90.000000
_cell_angle_beta 90.000000
_cell_angle_gamma 90.000000
_cell_volume 5956.141139
_symmetry_space_group_name_H-M "C M M M"
_symmetry_group_IT_number 65
_symmetry_cell_setting 'orthorhombic'
loop_
_space_group_symop_operation_xyz
x,y,z
-x,-y,z
x,-y,-z
-x,y,-z
-x,-y,-z
x,y,-z
-x,y,z
x,-y,z
1/2+x,1/2+y,z
1/2-x,1/2-y,z
1/2+x,1/2-y,-z
1/2-x,1/2+y,-z
1/2-x,1/2-y,-z
1/2+x,1/2+y,-z
1/2-x,1/2+y,z
1/2+x,1/2-y,z
loop_
_atom_site_type_symbol
_atom_site_label
_atom_site_fract_x
_atom_site_fract_y
_atom_site_fract_z
Si Si1 0.816041 0.822818 0.848624
Si Si2 0.685428 0.423772 0.391657
Si Si3 0.322177 0.080253 0.000000
Si Si4 0.184864 0.077649 0.301079
Si Si5 0.816752 0.322129 0.237796
Si Si6 0.183968 0.322642 0.454890
Si Si7 0.313096 0.922305 0.913289
O O1 0.750000 0.750000 0.858302
O O2 0.754052 0.839469 0.804903
O O3 0.756978 0.876132 0.879967
O O4 0.000000 0.820247 0.848012
O O5 0.500000 0.420795 0.393784
O O6 0.731195 0.500000 0.398849
O O7 0.728129 0.406813 0.346456
O O8 0.755606 0.375084 0.423546
O O9 0.256879 0.098854 0.042729
O O10 0.500000 0.102427 0.000000
O O11 0.324541 0.000000 0.000000
O O12 0.267877 0.124521 0.270160
O O13 0.000000 0.085857 0.297508
O O14 0.218566 0.000000 0.294290
O O15 0.750000 0.250000 0.248565
O O16 0.000000 0.317856 0.234310
O O17 0.230533 0.339723 0.500000
O O18 0.250000 0.250000 0.446195
O O19 0.000000 0.319954 0.453467
O O20 0.500000 0.917722 0.912810
O O21 0.275169 0.000000 0.907492
#
# Coordination Sequence:
#
# PCOD9491642 Si02
#       7
#    16  16   8  16  16  16  16
#     4  11  22  37  55  75 104 139 175 216 263 310
#     4   9  19  36  57  80 107 140 175 212 258 311
#     4   7  12  26  50  77 104 135 169 209 256 303
#     4   9  19  37  58  80 108 139 172 213 259 306
#     4  11  22  37  57  79 104 136 175 215 259 311
#     4  10  21  36  54  77 106 140 178 221 265 308
#     4   9  17  32  55  81 107 136 173 214 257 308
#
# _framework density 17.46097
#
# number of rings (size 3 to 8) (size 9 to 14) (size 15 to 20)
#    0.000    2.385    0.000    6.000    0.000    4.000 
#    0.000    3.846    0.000    1.385    0.000    0.000 
#    0.000    0.000    0.000    0.000    0.000    0.000 
#
# Total GULP energy -290101.240570 kJ/mol
# GULP energy per Si atom -5578.870011 kJ/mol
# Density = 1.742123 g / cm^3
# Si number density = 17.460970 Si / 1000 Ang^3
#
#
#
# Elastic Constant Matrix: (Units=GPa)
#
#
# Indices 1 2 3 4 5 6 
#
# 1 79.4256 57.6719 66.8751 0.0000 0.0000 0.0000
# 2 57.6719 106.8988 119.5008 0.0000 0.0000 0.0000
# 3 66.8751 119.5008 157.4327 0.0000 0.0000 0.0000
# 4 0.0000 0.0000 0.0000 56.6365 0.0000 0.0000
# 5 0.0000 0.0000 0.0000 0.0000 22.8293 0.0000
# 6 0.0000 0.0000 0.0000 0.0000 0.0000 25.8623
#
#
#
# Elastic Compliance Matrix: (Units=1/GPa)
#
#
# Indices 1 2 3 4 5 6 
#
# 1 0.020803 -0.008878 -0.002098 0.000000 0.000000 0.000000
# 2 -0.008878 0.065553 -0.045988 0.000000 0.000000 0.000000
# 3 -0.002098 -0.045988 0.042150 0.000000 0.000000 0.000000
# 4 0.000000 0.000000 0.000000 0.017656 0.000000 0.000000
# 5 0.000000 0.000000 0.000000 0.000000 0.043803 0.000000
# 6 0.000000 0.000000 0.000000 0.000000 0.000000 0.038666
#
#
# Mechanical properties :
#
#
# Convention : Reuss Voigt Hill
#
# Bulk Modulus (GPa) = 68.58820 92.42808 80.50814
# Shear Modulus (GPa) = 14.39178 27.71290 21.05234
#
# Velocity S-wave (km/s) = 2.87405 3.98821 3.47606
# Velocity P-wave (km/s) = 7.09786 8.61724 7.89419
#
# Compressibility (1/GPa) = 0.01457977
#
# Stress axis : x y z
#
# Youngs Moduli (GPa) = 48.06920 15.25474 23.72459
#
# Poissons Ratio (x) = 0.13544 0.04977
# Poissons Ratio (y) = 0.42677 1.09104
# Poissons Ratio (z) = 0.10084 0.70153
#
# Static dielectric constant tensor:
#      x y z
#    x 1.586190 0.000000 0.000000 
#    y 0.000000 1.562630 0.000000 
#    z 0.000000 0.000000 1.593540 
# 
# From -- ./inp_files/76899.got.cif
#   From: 2010.05.17/outbox.cif.g08.bks.cpg/sg65_39_cif.got.tgz:76899.got - 2010.06.03 17:01:31.
