data_PCOD9491621
_publ_section_title
;
Structure prediction by ZEFSAII (Michael W. Deem and Ramdas Pophale) SiO2 
 PCOD9491621
Probable space group: C M M M
;
_chemical_formula_sum "Si O2"
_cell_formula_units_Z 116
_cell_length_a 8.341553
_cell_length_b 30.414863
_cell_length_c 26.289895
_cell_angle_alpha 90.000000
_cell_angle_beta 90.000000
_cell_angle_gamma 90.000000
_cell_volume 6669.935431
_symmetry_space_group_name_H-M "C M M M"
_symmetry_group_IT_number 65
_symmetry_cell_setting 'orthorhombic'
loop_
_space_group_symop_operation_xyz
x,y,z
-x,-y,z
x,-y,-z
-x,y,-z
-x,-y,-z
x,y,-z
-x,y,z
x,-y,z
1/2+x,1/2+y,z
1/2-x,1/2-y,z
1/2+x,1/2-y,-z
1/2-x,1/2+y,-z
1/2-x,1/2-y,-z
1/2+x,1/2+y,-z
1/2-x,1/2+y,z
1/2+x,1/2-y,z
loop_
_atom_site_type_symbol
_atom_site_label
_atom_site_fract_x
_atom_site_fract_y
_atom_site_fract_z
Si Si1 0.311268 0.295428 0.844938
Si Si2 0.189380 0.067687 0.915622
Si Si3 0.306370 0.800610 0.445422
Si Si4 0.689154 0.837084 0.057293
Si Si5 0.206997 0.500000 0.000000
Si Si6 0.193312 0.049479 0.201914
Si Si7 0.306017 0.800490 0.333467
Si Si8 0.691566 0.860427 0.239549
O O1 0.500000 0.293791 0.851434
O O2 0.250000 0.250000 0.821052
O O3 0.229202 0.302248 0.899372
O O4 0.265313 0.335870 0.809078
O O5 0.216860 0.118466 0.928744
O O6 0.236036 0.058367 0.857345
O O7 0.000000 0.056581 0.921792
O O8 0.283900 0.038039 0.955526
O O9 0.252113 0.820203 0.500000
O O10 0.500000 0.801842 0.445425
O O11 0.250000 0.750000 0.445996
O O12 0.253024 0.816750 0.389792
O O13 0.500000 0.846976 0.059129
O O14 0.730292 0.823097 0.000000
O O15 0.261367 0.088635 0.236058
O O16 0.000000 0.051288 0.204264
O O17 0.244800 0.000000 0.215496
O O18 0.500000 0.799635 0.332833
O O19 0.250000 0.750000 0.325836
O O20 0.252455 0.833499 0.289200
O O21 0.500000 0.856730 0.236497
#
# Coordination Sequence:
#
# PCOD9491621 Si02
#       8
#    16  16  16  16   4  16  16  16
#     4  12  25  41  60  79 100 130 168 208 251 300
#     4  11  20  33  54  78 101 128 157 192 239 299
#     4   8  13  23  40  63  95 135 175 212 249 290
#     4  11  24  40  56  77 103 127 155 196 244 299
#     4  12  21  32  57  86 107 128 161 198 247 308
#     4  10  21  36  54  77 102 131 167 204 249 306
#     4   9  18  30  46  72 104 139 178 215 252 296
#     4  11  22  36  54  77 106 137 170 210 255 300
#
# _framework density 17.391473000000001
#
# number of rings (size 3 to 8) (size 9 to 14) (size 15 to 20)
#    0.000    1.655    2.759    3.103    0.000    3.586 
#    0.000    0.690    0.000    0.000    0.000    0.000 
#    0.000    0.552    0.000    6.897    0.000    1.103 
#
# Total GULP energy -323181.517895 kJ/mol
# GULP energy per Si atom -5572.095136 kJ/mol
# Density = 1.735189 g / cm^3
# Si number density = 17.391473 Si / 1000 Ang^3
#
#
#
# Elastic Constant Matrix: (Units=GPa)
#
#
# Indices 1 2 3 4 5 6 
#
# 1 26.3708 5.7800 15.6412 0.0000 0.0000 0.0000
# 2 5.7800 76.8905 37.3280 0.0000 0.0000 0.0000
# 3 15.6412 37.3280 122.8816 0.0000 0.0000 0.0000
# 4 0.0000 0.0000 0.0000 12.1074 0.0000 0.0000
# 5 0.0000 0.0000 0.0000 0.0000 2.4919 0.0000
# 6 0.0000 0.0000 0.0000 0.0000 0.0000 -2.4703
#
#
#
# Elastic Compliance Matrix: (Units=1/GPa)
#
#
# Indices 1 2 3 4 5 6 
#
# 1 0.041045 -0.000644 -0.005029 0.000000 0.000000 0.000000
# 2 -0.000644 0.015265 -0.004555 0.000000 0.000000 0.000000
# 3 -0.005029 -0.004555 0.010162 0.000000 0.000000 0.000000
# 4 0.000000 0.000000 0.000000 0.082594 0.000000 0.000000
# 5 0.000000 0.000000 0.000000 0.000000 0.401303 0.000000
# 6 0.000000 0.000000 0.000000 0.000000 0.000000 -0.404817
#
#
# Mechanical properties :
#
#
# Convention : Reuss Voigt Hill
#
# Bulk Modulus (GPa) = 21.73177 38.18236 29.95707
# Shear Modulus (GPa) = 27.57152 13.58538 20.57845
#
# Velocity S-wave (km/s) = 3.98596 2.79794 3.44357
# Velocity P-wave (km/s) = 5.80574 5.69564 5.75095
#
# Compressibility (1/GPa) = 0.04601557
#
# Stress axis : x y z
#
# Youngs Moduli (GPa) = 24.36376 65.50785 98.40821
#
# Poissons Ratio (x) = 0.04219 0.49487
# Poissons Ratio (y) = 0.01569 0.44827
# Poissons Ratio (z) = 0.12252 0.29840
#
# Static dielectric constant tensor:
#      x y z
#    x 1.620470 0.000000 0.000000 
#    y 0.000000 1.587260 0.000000 
#    z 0.000000 0.000000 1.621350 
# 
# From -- ./inp_files/73975.got.cif
#   From: 2010.05.17/outbox.cif.g08.bks.cpg/sg65_37_cif.got.tgz:73975.got - 2010.06.03 17:01:31.
