data_PCOD9491652
_publ_section_title
;
Structure prediction by ZEFSAII (Michael W. Deem and Ramdas Pophale) SiO2 
 PCOD9491652
Probable space group: C M M M
;
_chemical_formula_sum "Si O2"
_cell_formula_units_Z 100
_cell_length_a 21.201177
_cell_length_b 7.669152
_cell_length_c 30.382639
_cell_angle_alpha 90.000000
_cell_angle_beta 90.000000
_cell_angle_gamma 90.000000
_cell_volume 4940.066677
_symmetry_space_group_name_H-M "C M M M"
_symmetry_group_IT_number 65
_symmetry_cell_setting 'orthorhombic'
loop_
_space_group_symop_operation_xyz
x,y,z
-x,-y,z
x,-y,-z
-x,y,-z
-x,-y,-z
x,y,-z
-x,y,z
x,-y,z
1/2+x,1/2+y,z
1/2-x,1/2-y,z
1/2+x,1/2-y,-z
1/2-x,1/2+y,-z
1/2-x,1/2-y,-z
1/2+x,1/2+y,-z
1/2-x,1/2+y,z
1/2+x,1/2-y,z
loop_
_atom_site_type_symbol
_atom_site_label
_atom_site_fract_x
_atom_site_fract_y
_atom_site_fract_z
Si Si1 0.895829 0.296898 0.865122
Si Si2 0.679326 0.708255 0.784507
Si Si3 0.820788 0.706187 0.450540
Si Si4 0.928731 0.787049 0.717828
Si Si5 0.822575 0.708844 0.950607
Si Si6 0.000000 0.000000 0.153598
Si Si7 0.069803 0.208426 0.617493
O O1 0.917723 0.500000 0.867512
O O2 0.837238 0.290460 0.831443
O O3 0.870931 0.236152 0.912945
O O4 0.945558 0.155669 0.847806
O O5 0.673972 0.500000 0.788086
O O6 0.750000 0.750000 0.770057
O O7 0.626118 0.771576 0.750213
O O8 0.829126 0.782171 0.500000
O O9 0.823660 0.500000 0.454401
O O10 0.750000 0.750000 0.435280
O O11 0.875138 0.755601 0.416728
O O12 0.917971 0.729379 0.667406
O O13 0.000000 0.735145 0.731072
O O14 0.928310 0.000000 0.718556
O O15 0.827506 0.500000 0.952226
O O16 0.750000 0.750000 0.939393
O O17 0.834940 0.777764 0.000000
O O18 0.000000 0.272939 0.603725
O O19 0.065813 0.000000 0.620736
#
# Coordination Sequence:
#
# PCOD9491652 Si02
#       7
#    16  16  16  16  16   4  16
#     4  11  24  42  64  92 125 160 210 256 304 370
#     4  11  22  37  61  89 123 159 200 250 305 356
#     4  10  21  36  54  77 107 145 188 237 293 348
#     4   8  17  34  58  83 113 155 196 239 290 349
#     4   9  19  36  61  91 123 160 203 256 311 363
#     4  12  26  44  65  92 124 172 202 248 315 374
#     4   9  18  35  57  83 113 149 191 233 285 344
#
# _framework density 20.242640999999999
#
# number of rings (size 3 to 8) (size 9 to 14) (size 15 to 20)
#    0.000    2.240    0.800    2.640    2.240    3.520 
#    0.000    5.600    0.000    3.840    0.000    0.000 
#    0.000    0.000    0.000    0.000    0.000    0.000 
#
# Total GULP energy -278500.184673 kJ/mol
# GULP energy per Si atom -5570.003693 kJ/mol
# Density = 2.019657 g / cm^3
# Si number density = 20.242641 Si / 1000 Ang^3
#
#
#
# Elastic Constant Matrix: (Units=GPa)
#
#
# Indices 1 2 3 4 5 6 
#
# 1 137.5000 15.5881 74.6344 0.0000 0.0000 0.0000
# 2 15.5881 73.0809 10.4022 0.0000 0.0000 0.0000
# 3 74.6344 10.4022 86.0880 0.0000 0.0000 0.0000
# 4 0.0000 0.0000 0.0000 31.0075 0.0000 0.0000
# 5 0.0000 0.0000 0.0000 0.0000 195.5878 0.0000
# 6 0.0000 0.0000 0.0000 0.0000 0.0000 76.0533
#
#
#
# Elastic Compliance Matrix: (Units=1/GPa)
#
#
# Indices 1 2 3 4 5 6 
#
# 1 0.013851 -0.001267 -0.011856 0.000000 0.000000 0.000000
# 2 -0.001267 0.014039 -0.000598 0.000000 0.000000 0.000000
# 3 -0.011856 -0.000598 0.021966 0.000000 0.000000 0.000000
# 4 0.000000 0.000000 0.000000 0.032250 0.000000 0.000000
# 5 0.000000 0.000000 0.000000 0.000000 0.005113 0.000000
# 6 0.000000 0.000000 0.000000 0.000000 0.000000 0.013149
#
#
# Mechanical properties :
#
#
# Convention : Reuss Voigt Hill
#
# Bulk Modulus (GPa) = 44.61115 55.32423 49.96769
# Shear Modulus (GPa) = 36.96003 73.59933 55.27968
#
# Velocity S-wave (km/s) = 4.27763 6.03635 5.23143
# Velocity P-wave (km/s) = 6.81789 8.71626 7.82486
#
# Compressibility (1/GPa) = 0.02241592
#
# Stress axis : x y z
#
# Youngs Moduli (GPa) = 72.19442 71.23105 45.52396
#
# Poissons Ratio (x) = 0.09025 0.53971
# Poissons Ratio (y) = 0.09147 0.02722
# Poissons Ratio (z) = 0.85590 0.04259
#
# Static dielectric constant tensor:
#      x y z
#    x 1.619180 0.000000 0.000000 
#    y 0.000000 1.748590 0.000000 
#    z 0.000000 0.000000 1.757170 
# 
# From -- ./inp_files/73357.got.cif
#   From: 2010.05.17/outbox.cif.g08.bks.cpg/sg65_37_cif.got.tgz:73357.got - 2010.06.03 17:01:31.
