data_PCOD9491538
_publ_section_title
;
Structure prediction by ZEFSAII (Michael W. Deem and Ramdas Pophale) SiO2 
 PCOD9491538
Probable space group: C M M M
;
_chemical_formula_sum "Si O2"
_cell_formula_units_Z 88
_cell_length_a 19.692385
_cell_length_b 8.835676
_cell_length_c 29.700639
_cell_angle_alpha 90.000000
_cell_angle_beta 90.000000
_cell_angle_gamma 90.000000
_cell_volume 5167.778529
_symmetry_space_group_name_H-M "C M M M"
_symmetry_group_IT_number 65
_symmetry_cell_setting 'orthorhombic'
loop_
_space_group_symop_operation_xyz
x,y,z
-x,-y,z
x,-y,-z
-x,y,-z
-x,-y,-z
x,y,-z
-x,y,z
x,-y,z
1/2+x,1/2+y,z
1/2-x,1/2-y,z
1/2+x,1/2-y,-z
1/2-x,1/2+y,-z
1/2-x,1/2-y,-z
1/2+x,1/2+y,-z
1/2-x,1/2+y,z
1/2+x,1/2-y,z
loop_
_atom_site_type_symbol
_atom_site_label
_atom_site_fract_x
_atom_site_fract_y
_atom_site_fract_z
Si Si1 0.578342 0.182085 0.320158
Si Si2 0.174256 0.683368 0.598609
Si Si3 0.674475 0.182029 0.500000
Si Si4 0.917499 0.824978 0.773289
Si Si5 0.324599 0.818957 0.051598
Si Si6 0.079378 0.183187 0.127212
O O1 0.500000 0.233532 0.325967
O O2 0.626023 0.234596 0.360850
O O3 0.603353 0.236004 0.271220
O O4 0.577794 0.000000 0.320647
O O5 0.178762 0.500000 0.600311
O O6 0.250000 0.750000 0.602871
O O7 0.145364 0.725689 0.548887
O O8 0.750000 0.250000 0.500000
O O9 0.678318 0.000000 0.500000
O O10 0.896291 0.768219 0.822710
O O11 0.000000 0.821535 0.774581
O O12 0.896958 0.000000 0.768690
O O13 0.250000 0.750000 0.059040
O O14 0.376229 0.752429 0.087769
O O15 0.321362 0.000000 0.055452
O O16 0.344709 0.781215 0.000000
O O17 0.000000 0.224540 0.122114
O O18 0.083112 0.000000 0.126300
#
# Coordination Sequence:
#
# PCOD9491538 Si02
#       6
#    16  16   8  16  16  16
#     4   9  17  29  45  66  92 120 150 185 226 272
#     4   9  17  29  45  65  88 115 149 187 226 269
#     4   8  14  26  43  61  83 113 147 182 222 268
#     4   8  15  29  48  69  93 122 155 188 225 272
#     4  10  21  36  53  73  99 131 164 197 236 284
#     4   9  18  33  53  76 100 126 159 199 239 280
#
# _framework density 17.028593999999998
#
# number of rings (size 3 to 8) (size 9 to 14) (size 15 to 20)
#    0.000    3.091    0.000    1.636    0.000    3.273 
#    0.000    5.000    0.000    4.909    0.000    0.000 
#    0.000   10.182    0.000    0.000    0.000    0.000 
#
# Total GULP energy -244937.868379 kJ/mol
# GULP energy per Si atom -5566.769736 kJ/mol
# Density = 1.698984 g / cm^3
# Si number density = 17.028594 Si / 1000 Ang^3
#
#
#
# Elastic Constant Matrix: (Units=GPa)
#
#
# Indices 1 2 3 4 5 6 
#
# 1 56.6505 20.7810 85.1153 0.0000 0.0000 0.0000
# 2 20.7810 13.3640 41.4170 0.0000 0.0000 0.0000
# 3 85.1153 41.4170 206.0287 0.0000 0.0000 0.0000
# 4 0.0000 0.0000 0.0000 26.5110 0.0000 0.0000
# 5 0.0000 0.0000 0.0000 0.0000 53.4361 0.0000
# 6 0.0000 0.0000 0.0000 0.0000 0.0000 21.9941
#
#
#
# Elastic Compliance Matrix: (Units=1/GPa)
#
#
# Indices 1 2 3 4 5 6 
#
# 1 0.053155 -0.038728 -0.014174 0.000000 0.000000 0.000000
# 2 -0.038728 0.226704 -0.029574 0.000000 0.000000 0.000000
# 3 -0.014174 -0.029574 0.016654 0.000000 0.000000 0.000000
# 4 0.000000 0.000000 0.000000 0.037720 0.000000 0.000000
# 5 0.000000 0.000000 0.000000 0.000000 0.018714 0.000000
# 6 0.000000 0.000000 0.000000 0.000000 0.000000 0.045467
#
#
# Mechanical properties :
#
#
# Convention : Reuss Voigt Hill
#
# Bulk Modulus (GPa) = 7.60102 63.40776 35.50439
# Shear Modulus (GPa) = 8.23424 28.97021 18.60223
#
# Velocity S-wave (km/s) = 2.20137 4.12912 3.30875
# Velocity P-wave (km/s) = 3.30677 7.74917 5.95754
#
# Compressibility (1/GPa) = 0.13156130
#
# Stress axis : x y z
#
# Youngs Moduli (GPa) = 18.81290 4.41104 60.04392
#
# Poissons Ratio (x) = 0.17083 0.85108
# Poissons Ratio (y) = 0.72859 1.77572
# Poissons Ratio (z) = 0.26666 0.13045
#
# Static dielectric constant tensor:
#      x y z
#    x 1.544430 0.000000 0.000000 
#    y 0.000000 1.576560 0.000000 
#    z 0.000000 0.000000 1.609250 
# 
# From -- ./inp_files/71002.got.cif
#   From: 2010.05.17/outbox.cif.g08.bks.cpg/sg65_36_cif.got.tgz:71002.got - 2010.06.03 17:01:31.
