data_PCOD9491893
_publ_section_title
;
Structure prediction by ZEFSAII (Michael W. Deem and Ramdas Pophale) SiO2 
 PCOD9491893
Probable space group: C M M M
;
_chemical_formula_sum "Si O2"
_cell_formula_units_Z 104
_cell_length_a 27.377800
_cell_length_b 9.647361
_cell_length_c 23.806362
_cell_angle_alpha 90.000000
_cell_angle_beta 90.000000
_cell_angle_gamma 90.000000
_cell_volume 6287.820129
_symmetry_space_group_name_H-M "C M M M"
_symmetry_group_IT_number 65
_symmetry_cell_setting 'orthorhombic'
loop_
_space_group_symop_operation_xyz
x,y,z
-x,-y,z
x,-y,-z
-x,y,-z
-x,-y,-z
x,y,-z
-x,y,z
x,-y,z
1/2+x,1/2+y,z
1/2-x,1/2-y,z
1/2+x,1/2-y,-z
1/2-x,1/2+y,-z
1/2-x,1/2-y,-z
1/2+x,1/2+y,-z
1/2-x,1/2+y,z
1/2+x,1/2-y,z
loop_
_atom_site_type_symbol
_atom_site_label
_atom_site_fract_x
_atom_site_fract_y
_atom_site_fract_z
Si Si1 0.396313 0.832547 0.287627
Si Si2 0.941093 0.836803 0.391154
Si Si3 0.442501 0.667745 0.939696
Si Si4 0.940566 0.337465 0.500000
Si Si5 0.059288 0.834936 0.185115
Si Si6 0.818178 0.000000 0.434301
Si Si7 0.299716 0.000000 0.562324
Si Si8 0.308036 0.754997 0.355333
O O1 0.424694 0.751845 0.337402
O O2 0.415804 0.763167 0.230722
O O3 0.340239 0.791508 0.301418
O O4 0.402422 0.000000 0.289188
O O5 0.924730 0.750301 0.445761
O O6 0.000000 0.838791 0.391680
O O7 0.926327 0.000000 0.391719
O O8 0.500000 0.704171 0.940159
O O9 0.440290 0.500000 0.939915
O O10 0.424098 0.707415 0.878016
O O11 0.421459 0.715985 0.000000
O O12 0.926643 0.500000 0.500000
O O13 0.000000 0.337178 0.500000
O O14 0.000000 0.822537 0.188221
O O15 0.069897 0.000000 0.194173
O O16 0.826887 0.873598 0.391834
O O17 0.836714 0.000000 0.500000
O O18 0.759071 0.000000 0.441276
O O19 0.315297 0.127259 0.598907
O O20 0.319011 0.000000 0.500000
O O21 0.250000 0.750000 0.342858
#
# Coordination Sequence:
#
# PCOD9491893 Si02
#       8
#    16  16  16   8  16   8   8  16
#     4  12  24  36  48  70  97 130 166 199 242 293
#     4  10  21  37  54  70  90 120 160 204 243 284
#     4   7  10  20  42  72 102 130 161 198 237 274
#     4   9  17  33  55  73  90 115 150 197 253 297
#     4   9  18  32  51  75 103 135 171 206 237 276
#     4   9  18  32  56  78  89 111 146 191 249 311
#     4   9  16  34  56  72  93 117 144 185 247 313
#     4  10  21  37  53  72  96 122 153 195 247 302
#
# _framework density 16.539914
#
# number of rings (size 3 to 8) (size 9 to 14) (size 15 to 20)
#    0.000    2.538    0.769    3.462    2.154    5.846 
#    2.769    0.000    0.000    0.462    0.000    2.154 
#    0.000    0.615    0.000    0.769    0.000    0.769 
#
# Total GULP energy -289540.445344 kJ/mol
# GULP energy per Si atom -5568.085487 kJ/mol
# Density = 1.650227 g / cm^3
# Si number density = 16.539914 Si / 1000 Ang^3
#
#
#
# Elastic Constant Matrix: (Units=GPa)
#
#
# Indices 1 2 3 4 5 6 
#
# 1 60.8674 31.7281 34.1299 0.0000 0.0000 0.0000
# 2 31.7281 139.5006 73.4403 0.0000 0.0000 0.0000
# 3 34.1299 73.4403 170.5509 0.0000 0.0000 0.0000
# 4 0.0000 0.0000 0.0000 16.2431 0.0000 0.0000
# 5 0.0000 0.0000 0.0000 0.0000 -10.3040 0.0000
# 6 0.0000 0.0000 0.0000 0.0000 0.0000 18.1499
#
#
#
# Elastic Compliance Matrix: (Units=1/GPa)
#
#
# Indices 1 2 3 4 5 6 
#
# 1 0.019475 -0.003075 -0.002573 0.000000 0.000000 0.000000
# 2 -0.003075 0.009755 -0.003585 0.000000 0.000000 0.000000
# 3 -0.002573 -0.003585 0.007922 0.000000 0.000000 0.000000
# 4 0.000000 0.000000 0.000000 0.061565 0.000000 0.000000
# 5 0.000000 0.000000 0.000000 0.000000 -0.097050 0.000000
# 6 0.000000 0.000000 0.000000 0.000000 0.000000 0.055097
#
#
# Mechanical properties :
#
#
# Convention : Reuss Voigt Hill
#
# Bulk Modulus (GPa) = 53.51704 72.16836 62.84270
# Shear Modulus (GPa) = 61.38060 20.25918 40.81989
#
# Velocity S-wave (km/s) = 6.09846 3.50361 4.97325
# Velocity P-wave (km/s) = 9.05620 7.75207 8.42939
#
# Compressibility (1/GPa) = 0.01868564
#
# Stress axis : x y z
#
# Youngs Moduli (GPa) = 51.34853 102.50873 126.22776
#
# Poissons Ratio (x) = 0.31518 0.32481
# Poissons Ratio (y) = 0.15788 0.45258
# Poissons Ratio (z) = 0.13213 0.36753
#
# Static dielectric constant tensor:
#      x y z
#    x 1.606710 0.000000 0.000000 
#    y 0.000000 1.534520 0.000000 
#    z 0.000000 0.000000 1.570520 
# 
# From -- ./inp_files/72199.got.cif
#   From: 2010.05.17/outbox.cif.g08.bks.cpg/sg65_37_cif.got.tgz:72199.got - 2010.06.03 17:01:31.
