data_PCOD9491375
_publ_section_title
;
Structure prediction by ZEFSAII (Michael W. Deem and Ramdas Pophale) SiO2 
 PCOD9491375
Probable space group: C M M M
;
_chemical_formula_sum "Si O2"
_cell_formula_units_Z 80
_cell_length_a 19.169206
_cell_length_b 7.876224
_cell_length_c 28.008340
_cell_angle_alpha 90.000000
_cell_angle_beta 90.000000
_cell_angle_gamma 90.000000
_cell_volume 4228.726071
_symmetry_space_group_name_H-M "C M M M"
_symmetry_group_IT_number 65
_symmetry_cell_setting 'orthorhombic'
loop_
_space_group_symop_operation_xyz
x,y,z
-x,-y,z
x,-y,-z
-x,y,-z
-x,-y,-z
x,y,-z
-x,y,z
x,-y,z
1/2+x,1/2+y,z
1/2-x,1/2-y,z
1/2+x,1/2-y,-z
1/2-x,1/2+y,-z
1/2-x,1/2-y,-z
1/2+x,1/2+y,-z
1/2-x,1/2+y,z
1/2+x,1/2-y,z
loop_
_atom_site_type_symbol
_atom_site_label
_atom_site_fract_x
_atom_site_fract_y
_atom_site_fract_z
Si Si1 0.078362 0.299918 0.307460
Si Si2 0.831810 0.794720 0.891796
Si Si3 0.170150 0.201052 0.218212
Si Si4 0.330905 0.294796 0.500000
Si Si5 0.417964 0.000000 0.057237
Si Si6 0.920323 0.201922 0.589168
O O1 0.073608 0.500000 0.314328
O O2 0.122107 0.269649 0.260058
O O3 0.107594 0.229772 0.357302
O O4 0.000000 0.228315 0.301598
O O5 0.750000 0.750000 0.900188
O O6 0.846933 0.748442 0.836226
O O7 0.879389 0.669158 0.922993
O O8 0.841565 0.000000 0.898513
O O9 0.250000 0.250000 0.227172
O O10 0.164501 0.000000 0.219433
O O11 0.334798 0.500000 0.500000
O O12 0.250000 0.250000 0.500000
O O13 0.371193 0.231133 0.452779
O O14 0.500000 0.000000 0.070796
O O15 0.413412 0.000000 0.000000
O O16 0.000000 0.270452 0.586852
O O17 0.925333 0.000000 0.582169
#
# Coordination Sequence:
#
# PCOD9491375 Si02
#       6
#    16  16  16   8   8  16
#     4  10  21  35  53  81 114 148 186 229 279 341
#     4  10  21  41  67  95 126 167 219 265 310 380
#     4  10  21  36  59  86 116 152 192 239 292 342
#     4  10  21  35  53  77 101 132 172 222 284 340
#     4  11  26  44  64  96 135 171 211 266 327 373
#     4   9  18  35  56  74  99 137 184 230 271 328
#
# _framework density 18.918227000000002
#
# number of rings (size 3 to 8) (size 9 to 14) (size 15 to 20)
#    0.000    2.100    1.000    1.500    2.800    6.000 
#    0.000    5.000    0.000    3.000    0.000    0.000 
#    0.000    0.000    0.000    0.000    0.000    0.000 
#
# Total GULP energy -223113.461311 kJ/mol
# GULP energy per Si atom -5577.836533 kJ/mol
# Density = 1.887517 g / cm^3
# Si number density = 18.918227 Si / 1000 Ang^3
#
#
#
# Elastic Constant Matrix: (Units=GPa)
#
#
# Indices 1 2 3 4 5 6 
#
# 1 97.6569 38.8869 88.2911 0.0000 0.0000 0.0000
# 2 38.8869 67.0057 44.6459 0.0000 0.0000 0.0000
# 3 88.2911 44.6459 128.9316 0.0000 0.0000 0.0000
# 4 0.0000 0.0000 0.0000 14.6962 0.0000 0.0000
# 5 0.0000 0.0000 0.0000 0.0000 37.7184 0.0000
# 6 0.0000 0.0000 0.0000 0.0000 0.0000 24.4534
#
#
#
# Elastic Compliance Matrix: (Units=1/GPa)
#
#
# Indices 1 2 3 4 5 6 
#
# 1 0.027890 -0.004498 -0.017541 0.000000 0.000000 0.000000
# 2 -0.004498 0.020126 -0.003889 0.000000 0.000000 0.000000
# 3 -0.017541 -0.003889 0.021115 0.000000 0.000000 0.000000
# 4 0.000000 0.000000 0.000000 0.068045 0.000000 0.000000
# 5 0.000000 0.000000 0.000000 0.000000 0.026512 0.000000
# 6 0.000000 0.000000 0.000000 0.000000 0.000000 0.040894
#
#
# Mechanical properties :
#
#
# Convention : Reuss Voigt Hill
#
# Bulk Modulus (GPa) = 57.89017 70.80468 64.34743
# Shear Modulus (GPa) = 19.06970 23.49162 21.28066
#
# Velocity S-wave (km/s) = 3.17836 3.52766 3.35756
# Velocity P-wave (km/s) = 6.64349 7.35530 7.00844
#
# Compressibility (1/GPa) = 0.01727409
#
# Stress axis : x y z
#
# Youngs Moduli (GPa) = 35.85500 49.68762 47.36050
#
# Poissons Ratio (x) = 0.22351 0.83076
# Poissons Ratio (y) = 0.16129 0.18417
# Poissons Ratio (z) = 0.62894 0.19322
#
# Static dielectric constant tensor:
#      x y z
#    x 1.653250 0.000000 0.000000 
#    y 0.000000 1.667130 0.000000 
#    z 0.000000 0.000000 1.674310 
# 
# From -- ./inp_files/70856.got.cif
#   From: 2010.05.17/outbox.cif.g08.bks.cpg/sg65_36_cif.got.tgz:70856.got - 2010.06.03 17:01:31.
