data_PCOD9491200
_publ_section_title
;
Structure prediction by ZEFSAII (Michael W. Deem and Ramdas Pophale) SiO2 
 PCOD9491200
Probable space group: C M M M
;
_chemical_formula_sum "Si O2"
_cell_formula_units_Z 76
_cell_length_a 14.660786
_cell_length_b 25.041523
_cell_length_c 10.887255
_cell_angle_alpha 90.000000
_cell_angle_beta 90.000000
_cell_angle_gamma 90.000000
_cell_volume 3997.020615
_symmetry_space_group_name_H-M "C M M M"
_symmetry_group_IT_number 65
_symmetry_cell_setting 'orthorhombic'
loop_
_space_group_symop_operation_xyz
x,y,z
-x,-y,z
x,-y,-z
-x,y,-z
-x,-y,-z
x,y,-z
-x,y,z
x,-y,z
1/2+x,1/2+y,z
1/2-x,1/2-y,z
1/2+x,1/2-y,-z
1/2-x,1/2+y,-z
1/2-x,1/2-y,-z
1/2+x,1/2+y,-z
1/2-x,1/2+y,z
1/2+x,1/2-y,z
loop_
_atom_site_type_symbol
_atom_site_label
_atom_site_fract_x
_atom_site_fract_y
_atom_site_fract_z
Si Si1 0.000000 0.654837 0.500000
Si Si2 0.787405 0.061093 0.000000
Si Si3 0.000000 0.348315 0.147478
Si Si4 0.391909 0.668904 0.000000
Si Si5 0.183438 0.200858 0.259494
Si Si6 0.500000 0.248356 0.694879
Si Si7 0.809650 0.399626 0.246285
Si Si8 0.359741 0.941328 0.500000
O O1 0.000000 0.696258 0.610345
O O2 0.082555 0.613446 0.500000
O O3 0.728974 0.072503 0.876595
O O4 0.865757 0.106109 0.000000
O O5 0.818862 0.000000 0.000000
O O6 0.000000 0.284346 0.175540
O O7 0.091427 0.375090 0.206336
O O8 0.000000 0.356503 0.000000
O O9 0.346139 0.694895 0.118258
O O10 0.500000 0.674802 0.000000
O O11 0.250000 0.250000 0.279355
O O12 0.088818 0.215568 0.325001
O O13 0.240909 0.147925 0.285303
O O14 0.813119 0.436713 0.366353
O O15 0.403795 0.000000 0.500000
#
# Coordination Sequence:
#
# PCOD9491200 Si02
#       8
#     4   8   8   8  16   8  16   8
#     4  12  23  40  56  86 124 158 209 246 288 374
#     4  10  22  41  60  87 123 158 204 259 312 356
#     4  12  22  37  58  90 128 162 196 240 299 358
#     4  10  21  34  57  88 120 154 208 251 298 354
#     4  11  21  36  56  88 123 162 196 242 300 361
#     4  12  24  37  60  87 127 169 196 241 304 358
#     4  11  23  40  62  90 124 159 205 253 297 365
#     4  12  23  41  66  88 117 161 205 257 305 352
#
# _framework density 19.014163
#
# number of rings (size 3 to 8) (size 9 to 14) (size 15 to 20)
#    0.000    0.842    6.316    1.105    1.474    1.053 
#    0.000    4.211    0.000    0.000    0.000    0.737 
#    0.000    0.000    0.000    0.000    0.000    0.000 
#
# Total GULP energy -211869.145451 kJ/mol
# GULP energy per Si atom -5575.503828 kJ/mol
# Density = 1.897089 g / cm^3
# Si number density = 19.014163 Si / 1000 Ang^3
#
#
#
# Elastic Constant Matrix: (Units=GPa)
#
#
# Indices 1 2 3 4 5 6 
#
# 1 114.3244 34.1253 23.3253 0.0000 0.0000 0.0000
# 2 34.1253 94.5495 36.8516 0.0000 0.0000 0.0000
# 3 23.3253 36.8516 104.2334 0.0000 0.0000 0.0000
# 4 0.0000 0.0000 0.0000 15.9295 0.0000 0.0000
# 5 0.0000 0.0000 0.0000 0.0000 5.5712 0.0000
# 6 0.0000 0.0000 0.0000 0.0000 0.0000 52.6029
#
#
#
# Elastic Compliance Matrix: (Units=1/GPa)
#
#
# Indices 1 2 3 4 5 6 
#
# 1 0.009912 -0.003147 -0.001106 0.000000 0.000000 0.000000
# 2 -0.003147 0.013266 -0.003986 0.000000 0.000000 0.000000
# 3 -0.001106 -0.003986 0.011251 0.000000 0.000000 0.000000
# 4 0.000000 0.000000 0.000000 0.062777 0.000000 0.000000
# 5 0.000000 0.000000 0.000000 0.000000 0.179495 0.000000
# 6 0.000000 0.000000 0.000000 0.000000 0.000000 0.019010
#
#
# Mechanical properties :
#
#
# Convention : Reuss Voigt Hill
#
# Bulk Modulus (GPa) = 55.70452 55.74576 55.72514
# Shear Modulus (GPa) = 15.71484 29.40771 22.56127
#
# Velocity S-wave (km/s) = 2.87798 3.93698 3.44837
# Velocity P-wave (km/s) = 6.35638 7.07446 6.72501
#
# Compressibility (1/GPa) = 0.01795187
#
# Stress axis : x y z
#
# Youngs Moduli (GPa) = 100.88947 75.38248 88.88491
#
# Poissons Ratio (x) = 0.23719 0.09827
# Poissons Ratio (y) = 0.31745 0.35429
# Poissons Ratio (z) = 0.11155 0.30047
#
# Static dielectric constant tensor:
#      x y z
#    x 1.670190 0.000000 0.000000 
#    y 0.000000 1.630010 0.000000 
#    z 0.000000 0.000000 1.645440 
# 
# From -- ./inp_files/24768.got.cif
#   From: 2010.05.17/outbox.cif.g08.bks.cpg/sg65_13_cif.got.tgz:24768.got - 2010.06.03 17:01:31.
