data_PCOD9491203
_publ_section_title
;
Structure prediction by ZEFSAII (Michael W. Deem and Ramdas Pophale) SiO2 
 PCOD9491203
Probable space group: C M M M
;
_chemical_formula_sum "Si O2"
_cell_formula_units_Z 64
_cell_length_a 17.135577
_cell_length_b 7.718816
_cell_length_c 24.135789
_cell_angle_alpha 90.000000
_cell_angle_beta 90.000000
_cell_angle_gamma 90.000000
_cell_volume 3192.353100
_symmetry_space_group_name_H-M "C M M M"
_symmetry_group_IT_number 65
_symmetry_cell_setting 'orthorhombic'
loop_
_space_group_symop_operation_xyz
x,y,z
-x,-y,z
x,-y,-z
-x,y,-z
-x,-y,-z
x,y,-z
-x,y,z
x,-y,z
1/2+x,1/2+y,z
1/2-x,1/2-y,z
1/2+x,1/2-y,-z
1/2-x,1/2+y,-z
1/2-x,1/2-y,-z
1/2+x,1/2+y,-z
1/2-x,1/2+y,z
1/2+x,1/2-y,z
loop_
_atom_site_type_symbol
_atom_site_label
_atom_site_fract_x
_atom_site_fract_y
_atom_site_fract_z
Si Si1 0.588823 0.708226 0.614885
Si Si2 0.095305 0.000000 0.063472
Si Si3 0.660035 0.708020 0.500000
Si Si4 0.904415 0.699929 0.146154
Si Si5 0.589250 0.207591 0.266621
O O1 0.500000 0.774428 0.616746
O O2 0.586994 0.500000 0.611668
O O3 0.625480 0.774656 0.557949
O O4 0.627147 0.750545 0.674232
O O5 0.119534 0.830539 0.098061
O O6 0.000000 0.000000 0.062776
O O7 0.121739 0.000000 0.000000
O O8 0.647904 0.500000 0.500000
O O9 0.750000 0.750000 0.500000
O O10 0.881208 0.500000 0.136846
O O11 0.877091 0.762469 0.207244
O O12 0.000000 0.701015 0.148624
O O13 0.500000 0.277929 0.269237
O O14 0.584643 0.000000 0.262885
#
# Coordination Sequence:
#
# PCOD9491203 Si02
#       5
#    16   8   8  16  16
#     4   9  17  29  47  67  85 108 143 190 232 266
#     4   9  16  22  30  46  68 101 145 179 209 262
#     4  10  21  35  47  63  89 120 150 178 218 280
#     4   8  14  23  33  47  71 100 132 177 223 259
#     4   8  14  24  38  58  80 100 129 175 226 268
#
# _framework density 20.047908
#
# number of rings (size 3 to 8) (size 9 to 14) (size 15 to 20)
#    0.000    3.375    0.000    1.875    1.750    3.000 
#    0.000    2.500    0.000    3.750    0.000    0.000 
#    0.000    0.000    0.000    0.000    0.000    1.250 
#
# Total GULP energy -178137.435614 kJ/mol
# GULP energy per Si atom -5566.794863 kJ/mol
# Density = 2.000228 g / cm^3
# Si number density = 20.047908 Si / 1000 Ang^3
#
#
#
# Elastic Constant Matrix: (Units=GPa)
#
#
# Indices 1 2 3 4 5 6 
#
# 1 6.2378 3.6054 27.9473 0.0000 0.0000 0.0000
# 2 3.6054 66.7411 69.1361 0.0000 0.0000 0.0000
# 3 27.9473 69.1361 263.4456 0.0000 0.0000 0.0000
# 4 0.0000 0.0000 0.0000 111.1273 0.0000 0.0000
# 5 0.0000 0.0000 0.0000 0.0000 -8.2650 0.0000
# 6 0.0000 0.0000 0.0000 0.0000 0.0000 5.8559
#
#
#
# Elastic Compliance Matrix: (Units=1/GPa)
#
#
# Indices 1 2 3 4 5 6 
#
# 1 0.334790 0.025688 -0.042257 0.000000 0.000000 0.000000
# 2 0.025688 0.022548 -0.008642 0.000000 0.000000 0.000000
# 3 -0.042257 -0.008642 0.010547 0.000000 0.000000 0.000000
# 4 0.000000 0.000000 0.000000 0.008999 0.000000 0.000000
# 5 0.000000 0.000000 0.000000 0.000000 -0.120993 0.000000
# 6 0.000000 0.000000 0.000000 0.000000 0.000000 0.170769
#
#
# Mechanical properties :
#
#
# Convention : Reuss Voigt Hill
#
# Bulk Modulus (GPa) = 3.14999 59.75579 31.45289
# Shear Modulus (GPa) = 8.57775 37.45935 23.01855
#
# Velocity S-wave (km/s) = 2.07073 4.32730 3.39215
# Velocity P-wave (km/s) = 2.70035 7.40530 5.57362
#
# Compressibility (1/GPa) = 0.31746163
#
# Stress axis : x y z
#
# Youngs Moduli (GPa) = 2.98695 44.34964 94.81669
#
# Poissons Ratio (x) = -1.13925 4.00668
# Poissons Ratio (y) = -0.07673 0.81944
# Poissons Ratio (z) = 0.12622 0.38329
#
# Static dielectric constant tensor:
#      x y z
#    x 1.668810 0.000000 0.000000 
#    y 0.000000 1.721830 0.000000 
#    z 0.000000 0.000000 1.774360 
# 
# From -- ./inp_files/58854.got.cif
#   From: 2010.05.17/outbox.cif.g08.bks.cpg/sg65_30_cif.got.tgz:58854.got - 2010.06.03 17:01:31.
