data_PCOD9491568
_publ_section_title
;
Structure prediction by ZEFSAII (Michael W. Deem and Ramdas Pophale) SiO2 
 PCOD9491568
Probable space group: C M M M
;
_chemical_formula_sum "Si O2"
_cell_formula_units_Z 72
_cell_length_a 29.186145
_cell_length_b 8.545627
_cell_length_c 16.248074
_cell_angle_alpha 90.000000
_cell_angle_beta 90.000000
_cell_angle_gamma 90.000000
_cell_volume 4052.495646
_symmetry_space_group_name_H-M "C M M M"
_symmetry_group_IT_number 65
_symmetry_cell_setting 'orthorhombic'
loop_
_space_group_symop_operation_xyz
x,y,z
-x,-y,z
x,-y,-z
-x,y,-z
-x,-y,-z
x,y,-z
-x,y,z
x,-y,z
1/2+x,1/2+y,z
1/2-x,1/2-y,z
1/2+x,1/2-y,-z
1/2-x,1/2+y,-z
1/2-x,1/2-y,-z
1/2+x,1/2+y,-z
1/2-x,1/2+y,z
1/2+x,1/2-y,z
loop_
_atom_site_type_symbol
_atom_site_label
_atom_site_fract_x
_atom_site_fract_y
_atom_site_fract_z
Si Si1 0.553496 0.176942 0.683555
Si Si2 0.555042 0.500000 0.410599
Si Si3 0.352120 0.820517 0.753701
Si Si4 0.301978 0.688011 0.593345
Si Si5 0.698958 0.313692 0.091509
O O1 0.500000 0.189217 0.708539
O O2 0.564566 0.332544 0.630918
O O3 0.592684 0.182891 0.752212
O O4 0.558218 0.000000 0.645152
O O5 0.500000 0.500000 0.417199
O O6 0.577276 0.500000 0.500000
O O7 0.332747 0.750618 0.668148
O O8 0.332524 0.737063 0.833440
O O9 0.336817 0.000000 0.756175
O O10 0.316505 0.735354 0.500000
O O11 0.301766 0.500000 0.596773
O O12 0.250000 0.750000 0.604505
O O13 0.701073 0.500000 0.090190
O O14 0.750000 0.250000 0.105617
O O15 0.684093 0.258805 0.000000
#
# Coordination Sequence:
#
# PCOD9491568 Si02
#       5
#    16   8  16  16  16
#     4   9  20  37  54  77 109 145 187 234 283 334
#     4   9  18  32  52  76 103 141 185 233 288 334
#     4  11  22  35  56  81 107 144 184 225 275 332
#     4  10  21  36  53  74 105 143 182 225 268 319
#     4  10  21  37  58  84 114 144 177 222 274 331
#
# _framework density 17.766829999999999
#
# number of rings (size 3 to 8) (size 9 to 14) (size 15 to 20)
#    0.000    2.111    0.000    2.667    3.111    4.000 
#    0.000    4.444    0.000    0.667    0.000    4.667 
#    0.000    0.000    0.000    0.000    0.000    0.000 
#
# Total GULP energy -200558.354680 kJ/mol
# GULP energy per Si atom -5571.065408 kJ/mol
# Density = 1.772639 g / cm^3
# Si number density = 17.766830 Si / 1000 Ang^3
#
#
#
# Elastic Constant Matrix: (Units=GPa)
#
#
# Indices 1 2 3 4 5 6 
#
# 1 82.9420 38.9555 66.5794 0.0000 0.0000 0.0000
# 2 38.9555 116.6226 55.5987 0.0000 0.0000 0.0000
# 3 66.5794 55.5987 113.0797 0.0000 0.0000 0.0000
# 4 0.0000 0.0000 0.0000 19.9010 0.0000 0.0000
# 5 0.0000 0.0000 0.0000 0.0000 8.8568 0.0000
# 6 0.0000 0.0000 0.0000 0.0000 0.0000 23.1538
#
#
#
# Elastic Compliance Matrix: (Units=1/GPa)
#
#
# Indices 1 2 3 4 5 6 
#
# 1 0.023090 -0.001609 -0.012804 0.000000 0.000000 0.000000
# 2 -0.001609 0.011312 -0.004615 0.000000 0.000000 0.000000
# 3 -0.012804 -0.004615 0.018651 0.000000 0.000000 0.000000
# 4 0.000000 0.000000 0.000000 0.050249 0.000000 0.000000
# 5 0.000000 0.000000 0.000000 0.000000 0.112907 0.000000
# 6 0.000000 0.000000 0.000000 0.000000 0.000000 0.043190
#
#
# Mechanical properties :
#
#
# Convention : Reuss Voigt Hill
#
# Bulk Modulus (GPa) = 66.67391 70.54571 68.60981
# Shear Modulus (GPa) = 16.53142 20.48303 18.50722
#
# Velocity S-wave (km/s) = 3.05366 3.39909 3.23100
# Velocity P-wave (km/s) = 7.07402 7.42952 7.25395
#
# Compressibility (1/GPa) = 0.01499837
#
# Stress axis : x y z
#
# Youngs Moduli (GPa) = 43.30790 88.40159 53.61563
#
# Poissons Ratio (x) = 0.14220 0.68651
# Poissons Ratio (y) = 0.06966 0.24742
# Poissons Ratio (z) = 0.55453 0.40795
#
# Static dielectric constant tensor:
#      x y z
#    x 1.603640 0.000000 0.000000 
#    y 0.000000 1.538700 0.000000 
#    z 0.000000 0.000000 1.609890 
# 
# From -- ./inp_files/36611.got.cif
#   From: 2010.05.17/outbox.cif.g08.bks.cpg/sg65_19_cif.got.tgz:36611.got - 2010.06.03 17:01:31.
