data_PCOD9491182
_publ_section_title
;
Structure prediction by ZEFSAII (Michael W. Deem and Ramdas Pophale) SiO2 
 PCOD9491182
Probable space group: C M M M
;
_chemical_formula_sum "Si O2"
_cell_formula_units_Z 88
_cell_length_a 8.955790
_cell_length_b 30.668656
_cell_length_c 17.893948
_cell_angle_alpha 90.000000
_cell_angle_beta 90.000000
_cell_angle_gamma 90.000000
_cell_volume 4914.788310
_symmetry_space_group_name_H-M "C M M M"
_symmetry_group_IT_number 65
_symmetry_cell_setting 'orthorhombic'
loop_
_space_group_symop_operation_xyz
x,y,z
-x,-y,z
x,-y,-z
-x,y,-z
-x,-y,-z
x,y,-z
-x,y,z
x,-y,z
1/2+x,1/2+y,z
1/2-x,1/2-y,z
1/2+x,1/2-y,-z
1/2-x,1/2+y,-z
1/2-x,1/2-y,-z
1/2+x,1/2+y,-z
1/2-x,1/2+y,z
1/2+x,1/2-y,z
loop_
_atom_site_type_symbol
_atom_site_label
_atom_site_fract_x
_atom_site_fract_y
_atom_site_fract_z
Si Si1 0.179793 0.550640 0.343418
Si Si2 0.678256 0.590853 0.086572
Si Si3 0.679517 0.798139 0.500000
Si Si4 0.180104 0.297903 0.337339
Si Si5 0.332030 0.000000 0.090266
Si Si6 0.170904 0.052995 0.500000
Si Si7 0.819937 0.374359 0.772576
O O1 0.222993 0.500000 0.328896
O O2 0.246813 0.565089 0.423176
O O3 0.223943 0.583662 0.277704
O O4 0.000000 0.551945 0.349400
O O5 0.500000 0.589717 0.090370
O O6 0.744879 0.543769 0.108993
O O7 0.745993 0.623578 0.146548
O O8 0.720865 0.599380 0.000000
O O9 0.500000 0.795026 0.500000
O O10 0.750000 0.750000 0.500000
O O11 0.722230 0.817108 0.419438
O O12 0.250000 0.250000 0.329429
O O13 0.224185 0.331470 0.273370
O O14 0.000000 0.293881 0.335643
O O15 0.500000 0.000000 0.122014
O O16 0.342855 0.000000 0.000000
O O17 0.000000 0.068160 0.500000
O O18 0.170683 0.000000 0.500000
O O19 0.000000 0.375319 0.779955
#
# Coordination Sequence:
#
# PCOD9491182 Si02
#       7
#    16  16   8  16   8   8  16
#     4   9  18  32  49  70  99 135 173 212 251 300
#     4  10  21  36  53  76 107 140 174 215 267 322
#     4   8  14  27  48  72 100 133 166 207 260 311
#     4   9  18  33  53  78 107 138 173 216 263 313
#     4   9  17  31  53  77 101 134 173 212 255 307
#     4   9  17  30  47  67  95 135 178 214 250 293
#     4  10  21  34  52  79 105 135 177 220 264 314
#
# _framework density 17.905145000000001
#
# number of rings (size 3 to 8) (size 9 to 14) (size 15 to 20)
#    0.000    2.727    0.000    1.091    1.273    5.455 
#    0.000    2.727    0.000    4.909    0.000    0.000 
#    0.000    0.000    0.000    0.000    0.000    0.000 
#
# Total GULP energy -245309.346501 kJ/mol
# GULP energy per Si atom -5575.212420 kJ/mol
# Density = 1.786439 g / cm^3
# Si number density = 17.905145 Si / 1000 Ang^3
#
#
#
# Elastic Constant Matrix: (Units=GPa)
#
#
# Indices 1 2 3 4 5 6 
#
# 1 26.0339 25.0491 42.6571 0.0000 0.0000 0.0000
# 2 25.0491 77.9188 66.6956 0.0000 0.0000 0.0000
# 3 42.6571 66.6956 148.0484 0.0000 0.0000 0.0000
# 4 0.0000 0.0000 0.0000 30.5153 0.0000 0.0000
# 5 0.0000 0.0000 0.0000 0.0000 19.9206 0.0000
# 6 0.0000 0.0000 0.0000 0.0000 0.0000 18.0189
#
#
#
# Elastic Compliance Matrix: (Units=1/GPa)
#
#
# Indices 1 2 3 4 5 6 
#
# 1 0.076730 -0.009348 -0.017897 0.000000 0.000000 0.000000
# 2 -0.009348 0.022028 -0.007230 0.000000 0.000000 0.000000
# 3 -0.017897 -0.007230 0.015168 0.000000 0.000000 0.000000
# 4 0.000000 0.000000 0.000000 0.032770 0.000000 0.000000
# 5 0.000000 0.000000 0.000000 0.000000 0.050199 0.000000
# 6 0.000000 0.000000 0.000000 0.000000 0.000000 0.055497
#
#
# Mechanical properties :
#
#
# Convention : Reuss Voigt Hill
#
# Bulk Modulus (GPa) = 22.23384 57.86720 40.05052
# Shear Modulus (GPa) = 14.86611 21.53090 18.19851
#
# Velocity S-wave (km/s) = 2.88457 3.47147 3.19154
# Velocity P-wave (km/s) = 4.85168 6.96111 5.99983
#
# Compressibility (1/GPa) = 0.04497649
#
# Stress axis : x y z
#
# Youngs Moduli (GPa) = 13.03267 45.39759 65.92657
#
# Poissons Ratio (x) = 0.42436 1.17990
# Poissons Ratio (y) = 0.12182 0.47665
# Poissons Ratio (z) = 0.23325 0.32823
#
# Static dielectric constant tensor:
#      x y z
#    x 1.604590 0.000000 0.000000 
#    y 0.000000 1.597840 0.000000 
#    z 0.000000 0.000000 1.635800 
# 
# From -- ./inp_files/50493.got.cif
#   From: 2010.05.17/outbox.cif.g08.bks.cpg/sg65_26_cif.got.tgz:50493.got - 2010.06.03 17:01:31.
