data_PCOD9491464
_publ_section_title
;
Structure prediction by ZEFSAII (Michael W. Deem and Ramdas Pophale) SiO2 
 PCOD9491464
Probable space group: C M M M
;
_chemical_formula_sum "Si O2"
_cell_formula_units_Z 104
_cell_length_a 31.323196
_cell_length_b 23.312579
_cell_length_c 7.905097
_cell_angle_alpha 90.000000
_cell_angle_beta 90.000000
_cell_angle_gamma 90.000000
_cell_volume 5772.495356
_symmetry_space_group_name_H-M "C M M M"
_symmetry_group_IT_number 65
_symmetry_cell_setting 'orthorhombic'
loop_
_space_group_symop_operation_xyz
x,y,z
-x,-y,z
x,-y,-z
-x,y,-z
-x,-y,-z
x,y,-z
-x,y,z
x,-y,z
1/2+x,1/2+y,z
1/2-x,1/2-y,z
1/2+x,1/2-y,-z
1/2-x,1/2+y,-z
1/2-x,1/2-y,-z
1/2+x,1/2+y,-z
1/2-x,1/2+y,z
1/2+x,1/2-y,z
loop_
_atom_site_type_symbol
_atom_site_label
_atom_site_fract_x
_atom_site_fract_y
_atom_site_fract_z
Si Si1 0.548172 0.150365 0.299266
Si Si2 0.602492 0.387565 0.701085
Si Si3 0.451171 0.500000 0.797450
Si Si4 0.451747 0.278247 0.200429
Si Si5 0.308192 0.433010 0.292562
Si Si6 0.121994 0.566562 0.292113
Si Si7 0.715408 0.930261 0.303072
O O1 0.545652 0.139586 0.500000
O O2 0.500000 0.143107 0.229069
O O3 0.560687 0.216707 0.275227
O O4 0.583923 0.107199 0.232037
O O5 0.605414 0.383676 0.500000
O O6 0.574037 0.443220 0.742742
O O7 0.579682 0.330291 0.763002
O O8 0.650531 0.398324 0.766533
O O9 0.500000 0.500000 0.733245
O O10 0.452755 0.500000 0.000000
O O11 0.500000 0.292079 0.262411
O O12 0.453785 0.270708 0.000000
O O13 0.307099 0.431735 0.500000
O O14 0.314021 0.500000 0.246418
O O15 0.261481 0.412850 0.231007
O O16 0.123226 0.567897 0.500000
O O17 0.115317 0.500000 0.245284
O O18 0.169165 0.585926 0.231392
O O19 0.715322 0.912314 0.500000
O O20 0.715861 0.000000 0.301589
#
# Coordination Sequence:
#
# PCOD9491464 Si02
#       7
#    16  16   8  16  16  16  16
#     4   9  17  29  46  69  96 123 153 190 227 267
#     4  11  20  31  49  71  92 115 151 198 242 277
#     4  11  23  35  45  63  95 129 155 183 228 283
#     4  10  21  36  50  63  84 119 161 196 229 276
#     4   8  13  23  39  63  93 118 143 181 231 274
#     4   8  13  22  40  70 102 126 148 178 225 275
#     4   7  10  18  35  60  93 125 146 173 218 270
#
# _framework density 18.016470999999999
#
# number of rings (size 3 to 8) (size 9 to 14) (size 15 to 20)
#    0.000    3.000    0.769    3.462    0.000    3.692 
#    0.000    1.538    0.000    1.385    0.000   10.769 
#    0.000    0.000    0.000    0.000    0.000    0.000 
#
# Total GULP energy -289628.471295 kJ/mol
# GULP energy per Si atom -5569.778294 kJ/mol
# Density = 1.797547 g / cm^3
# Si number density = 18.016471 Si / 1000 Ang^3
#
#
#
# Elastic Constant Matrix: (Units=GPa)
#
#
# Indices 1 2 3 4 5 6 
#
# 1 176.3523 90.1098 1.3566 0.0000 0.0000 0.0000
# 2 90.1098 78.8940 -5.2773 0.0000 0.0000 0.0000
# 3 1.3566 -5.2773 17.2549 0.0000 0.0000 0.0000
# 4 0.0000 0.0000 0.0000 -75.8221 0.0000 0.0000
# 5 0.0000 0.0000 0.0000 0.0000 -10.8817 0.0000
# 6 0.0000 0.0000 0.0000 0.0000 0.0000 13.3329
#
#
#
# Elastic Compliance Matrix: (Units=1/GPa)
#
#
# Indices 1 2 3 4 5 6 
#
# 1 0.014244 -0.016685 -0.006223 0.000000 0.000000 0.000000
# 2 -0.016685 0.032484 0.011247 0.000000 0.000000 0.000000
# 3 -0.006223 0.011247 0.061884 0.000000 0.000000 0.000000
# 4 0.000000 0.000000 0.000000 -0.013189 0.000000 0.000000
# 5 0.000000 0.000000 0.000000 0.000000 -0.091898 0.000000
# 6 0.000000 0.000000 0.000000 0.000000 0.000000 0.075003
#
#
# Mechanical properties :
#
#
# Convention : Reuss Voigt Hill
#
# Bulk Modulus (GPa) = 11.72467 49.43106 30.57786
# Shear Modulus (GPa) = 38.37889 -2.25338 18.06276
#
# Velocity S-wave (km/s) = 4.62043 -1.11957 3.16977
# Velocity P-wave (km/s) = 5.91493 5.08182 5.51413
#
# Compressibility (1/GPa) = 0.08529028
#
# Stress axis : x y z
#
# Youngs Moduli (GPa) = 70.20623 30.78395 16.15933
#
# Poissons Ratio (x) = 0.51363 0.10056
# Poissons Ratio (y) = 1.17139 -0.18174
# Poissons Ratio (z) = 0.43688 -0.34623
#
# Static dielectric constant tensor:
#      x y z
#    x 1.682140 0.000000 0.000000 
#    y 0.000000 1.552470 0.000000 
#    z 0.000000 0.000000 1.644440 
# 
# From -- ./inp_files/18888.got.cif
#   From: 2010.05.17/outbox.cif.g08.bks.cpg/sg65_10_cif.got.tgz:18888.got - 2010.06.03 17:01:31.
