data_PCOD9491425
_publ_section_title
;
Structure prediction by ZEFSAII (Michael W. Deem and Ramdas Pophale) SiO2 
 PCOD9491425
Probable space group: C M M M
;
_chemical_formula_sum "Si O2"
_cell_formula_units_Z 120
_cell_length_a 13.272979
_cell_length_b 20.864270
_cell_length_c 20.452065
_cell_angle_alpha 90.000000
_cell_angle_beta 90.000000
_cell_angle_gamma 90.000000
_cell_volume 5663.811172
_symmetry_space_group_name_H-M "C M M M"
_symmetry_group_IT_number 65
_symmetry_cell_setting 'orthorhombic'
loop_
_space_group_symop_operation_xyz
x,y,z
-x,-y,z
x,-y,-z
-x,y,-z
-x,-y,-z
x,y,-z
-x,y,z
x,-y,z
1/2+x,1/2+y,z
1/2-x,1/2-y,z
1/2+x,1/2-y,-z
1/2-x,1/2+y,-z
1/2-x,1/2-y,-z
1/2+x,1/2+y,-z
1/2-x,1/2+y,z
1/2+x,1/2-y,z
loop_
_atom_site_type_symbol
_atom_site_label
_atom_site_fract_x
_atom_site_fract_y
_atom_site_fract_z
Si Si1 0.877628 0.804056 0.924930
Si Si2 0.331355 0.343257 0.428270
Si Si3 0.121470 0.661795 0.878505
Si Si4 0.883650 0.373758 0.730557
Si Si5 0.112201 0.698434 0.397544
Si Si6 0.881050 0.927180 0.841883
Si Si7 0.323495 0.427559 0.305902
Si Si8 0.122258 0.572703 0.000000
O O1 0.850434 0.734341 0.896712
O O2 0.844456 0.865793 0.883087
O O3 0.000000 0.805232 0.925185
O O4 0.844233 0.809119 0.000000
O O5 0.362262 0.366729 0.500000
O O6 0.209040 0.337464 0.426476
O O7 0.373441 0.271887 0.417309
O O8 0.359735 0.384013 0.365198
O O9 0.147025 0.643302 0.804321
O O10 0.000000 0.661104 0.879247
O O11 0.150506 0.611920 0.935170
O O12 0.880941 0.313257 0.680851
O O13 0.797716 0.420132 0.702650
O O14 0.000000 0.397342 0.730354
O O15 0.000000 0.676494 0.417196
O O16 0.867551 0.911892 0.765284
O O17 0.000000 0.931862 0.855912
O O18 0.838441 0.000000 0.853412
O O19 0.350217 0.500000 0.320698
O O20 0.161464 0.500000 0.000000
O O21 0.000000 0.569362 0.000000
#
# Coordination Sequence:
#
# PCOD9491425 Si02
#       8
#    16  16  16  16  16  16  16   8
#     4   9  16  28  51  80 109 140 177 231 287 333
#     4  10  21  35  54  83 112 142 184 223 267 334
#     4   9  16  28  46  74 107 137 177 223 270 326
#     4   9  19  34  56  83 108 139 180 226 276 331
#     4   9  18  34  56  83 113 142 174 223 280 328
#     4   9  19  35  55  79 106 143 190 234 281 333
#     4  10  22  39  56  77 109 145 184 230 273 323
#     4   9  16  26  42  66 100 143 186 224 266 324
#
# _framework density 21.187147
#
# number of rings (size 3 to 8) (size 9 to 14) (size 15 to 20)
#    0.000    2.733    0.667    0.800    1.867    2.933 
#    0.000    2.667    1.467    0.800    0.000    6.533 
#    0.000    0.000    0.000    0.000    0.000    0.000 
#
# Total GULP energy -334795.725186 kJ/mol
# GULP energy per Si atom -5579.928753 kJ/mol
# Density = 2.113892 g / cm^3
# Si number density = 21.187147 Si / 1000 Ang^3
#
#
#
# Elastic Constant Matrix: (Units=GPa)
#
#
# Indices 1 2 3 4 5 6 
#
# 1 51.4768 -13.5816 -16.0789 0.0000 0.0000 0.0000
# 2 -13.5816 109.4587 67.9019 0.0000 0.0000 0.0000
# 3 -16.0789 67.9019 127.8932 0.0000 0.0000 0.0000
# 4 0.0000 0.0000 0.0000 7.1146 0.0000 0.0000
# 5 0.0000 0.0000 0.0000 0.0000 19.2680 0.0000
# 6 0.0000 0.0000 0.0000 0.0000 0.0000 -5.1411
#
#
#
# Elastic Compliance Matrix: (Units=1/GPa)
#
#
# Indices 1 2 3 4 5 6 
#
# 1 0.020363 0.001399 0.001817 0.000000 0.000000 0.000000
# 2 0.001399 0.013719 -0.007108 0.000000 0.000000 0.000000
# 3 0.001817 -0.007108 0.011821 0.000000 0.000000 0.000000
# 4 0.000000 0.000000 0.000000 0.140556 0.000000 0.000000
# 5 0.000000 0.000000 0.000000 0.000000 0.051899 0.000000
# 6 0.000000 0.000000 0.000000 0.000000 0.000000 -0.194513
#
#
# Mechanical properties :
#
#
# Convention : Reuss Voigt Hill
#
# Bulk Modulus (GPa) = 26.23260 40.59016 33.41138
# Shear Modulus (GPa) = 77.71858 20.95414 49.33636
#
# Velocity S-wave (km/s) = 6.06313 3.14825 4.83079
# Velocity P-wave (km/s) = 7.83733 5.69340 6.84976
#
# Compressibility (1/GPa) = 0.03812050
#
# Stress axis : x y z
#
# Youngs Moduli (GPa) = 49.10860 72.89317 84.59431
#
# Poissons Ratio (x) = -0.10201 -0.15371
# Poissons Ratio (y) = -0.06872 0.60127
# Poissons Ratio (z) = -0.08923 0.51810
#
# Static dielectric constant tensor:
#      x y z
#    x 1.828000 0.000000 0.000000 
#    y 0.000000 1.730360 0.000000 
#    z 0.000000 0.000000 1.744200 
# 
# From -- ./inp_files/63040.got.cif
#   From: 2010.05.17/outbox.cif.g08.bks.cpg/sg65_32_cif.got.tgz:63040.got - 2010.06.03 17:01:31.
