data_PCOD9491310
_publ_section_title
;
Structure prediction by ZEFSAII (Michael W. Deem and Ramdas Pophale) SiO2 
 PCOD9491310
Probable space group: C M M M
;
_chemical_formula_sum "Si O2"
_cell_formula_units_Z 88
_cell_length_a 17.937106
_cell_length_b 30.604205
_cell_length_c 7.554989
_cell_angle_alpha 90.000000
_cell_angle_beta 90.000000
_cell_angle_gamma 90.000000
_cell_volume 4147.317778
_symmetry_space_group_name_H-M "C M M M"
_symmetry_group_IT_number 65
_symmetry_cell_setting 'orthorhombic'
loop_
_space_group_symop_operation_xyz
x,y,z
-x,-y,z
x,-y,-z
-x,y,-z
-x,-y,-z
x,y,-z
-x,y,z
x,-y,z
1/2+x,1/2+y,z
1/2-x,1/2-y,z
1/2+x,1/2-y,-z
1/2-x,1/2+y,-z
1/2-x,1/2-y,-z
1/2+x,1/2+y,-z
1/2-x,1/2+y,z
1/2+x,1/2-y,z
loop_
_atom_site_type_symbol
_atom_site_label
_atom_site_fract_x
_atom_site_fract_y
_atom_site_fract_z
Si Si1 0.414057 0.312370 0.213812
Si Si2 0.500000 0.449534 0.283703
Si Si3 0.090824 0.717094 0.205043
Si Si4 0.198268 0.549210 0.206770
Si Si5 0.913594 0.378049 0.217453
Si Si6 0.149975 0.096427 0.291388
O O1 0.500000 0.321026 0.273901
O O2 0.389323 0.264507 0.281056
O O3 0.360492 0.352030 0.262298
O O4 0.416883 0.309922 0.000000
O O5 0.500000 0.500000 0.233118
O O6 0.500000 0.552533 0.500000
O O7 0.425583 0.425684 0.220736
O O8 0.113246 0.670014 0.279903
O O9 0.000000 0.716631 0.205073
O O10 0.115492 0.717387 0.000000
O O11 0.201432 0.500000 0.281572
O O12 0.137108 0.582405 0.282534
O O13 0.277368 0.573521 0.215766
O O14 0.179241 0.544853 0.000000
O O15 0.000000 0.383805 0.266193
O O16 0.911259 0.376665 0.000000
O O17 0.153140 0.088253 0.500000
#
# Coordination Sequence:
#
# PCOD9491310 Si02
#       6
#    16   8  16  16  16  16
#     4   9  16  28  49  76 104 130 162 208 254 292
#     4   9  18  32  49  67  87 119 169 215 242 281
#     4   7  11  22  44  74 102 129 161 198 243 295
#     4  10  21  35  51  75 105 132 163 210 262 301
#     4   8  14  28  52  79 104 130 164 204 247 302
#     4  11  21  34  51  71  99 136 175 210 248 297
#
# _framework density 21.218533000000001
#
# number of rings (size 3 to 8) (size 9 to 14) (size 15 to 20)
#    0.000    3.000    0.909    3.273    0.000    1.455 
#    0.000    2.727    0.000    9.273    0.000    3.818 
#    0.000    0.000    0.000    0.000    0.000    0.000 
#
# Total GULP energy -245342.154143 kJ/mol
# GULP energy per Si atom -5575.958049 kJ/mol
# Density = 2.117024 g / cm^3
# Si number density = 21.218533 Si / 1000 Ang^3
#
#
#
# Elastic Constant Matrix: (Units=GPa)
#
#
# Indices 1 2 3 4 5 6 
#
# 1 68.6750 83.8850 -9.8836 0.0000 0.0000 0.0000
# 2 83.8850 234.0504 -2.9445 0.0000 0.0000 0.0000
# 3 -9.8836 -2.9445 48.1039 0.0000 0.0000 0.0000
# 4 0.0000 0.0000 0.0000 -36.0076 0.0000 0.0000
# 5 0.0000 0.0000 0.0000 0.0000 -29.0293 0.0000
# 6 0.0000 0.0000 0.0000 0.0000 0.0000 41.1393
#
#
#
# Elastic Compliance Matrix: (Units=1/GPa)
#
#
# Indices 1 2 3 4 5 6 
#
# 1 0.027035 -0.009627 0.004965 0.000000 0.000000 0.000000
# 2 -0.009627 0.007704 -0.001506 0.000000 0.000000 0.000000
# 3 0.004965 -0.001506 0.021716 0.000000 0.000000 0.000000
# 4 0.000000 0.000000 0.000000 -0.027772 0.000000 0.000000
# 5 0.000000 0.000000 0.000000 0.000000 -0.034448 0.000000
# 6 0.000000 0.000000 0.000000 0.000000 0.000000 0.024308
#
#
# Mechanical properties :
#
#
# Convention : Reuss Voigt Hill
#
# Bulk Modulus (GPa) = 22.66576 54.77146 38.71861
# Shear Modulus (GPa) = 109.68262 13.87199 61.77730
#
# Velocity S-wave (km/s) = 7.19751 2.55966 5.40167
# Velocity P-wave (km/s) = 8.93182 5.88259 7.56248
#
# Compressibility (1/GPa) = 0.04411942
#
# Stress axis : x y z
#
# Youngs Moduli (GPa) = 36.98871 129.80190 46.04831
#
# Poissons Ratio (x) = 1.24962 -0.22865
# Poissons Ratio (y) = 0.35609 0.06937
# Poissons Ratio (z) = -0.18367 0.19554
#
# Static dielectric constant tensor:
#      x y z
#    x 1.729190 0.000000 0.000000 
#    y 0.000000 1.806330 0.000000 
#    z 0.000000 0.000000 1.806670 
# 
# From -- ./inp_files/10044.got.cif
#   From: 2010.05.17/outbox.cif.g08.bks.cpg/sg65_6_cif.got.tgz:10044.got - 2010.06.03 17:01:31.
