data_PCOD9491190
_publ_section_title
;
Structure prediction by ZEFSAII (Michael W. Deem and Ramdas Pophale) SiO2 
 PCOD9491190
Probable space group: C M M M
;
_chemical_formula_sum "Si O2"
_cell_formula_units_Z 82
_cell_length_a 9.697926
_cell_length_b 15.276499
_cell_length_c 26.262925
_cell_angle_alpha 90.000000
_cell_angle_beta 90.000000
_cell_angle_gamma 90.000000
_cell_volume 3890.861710
_symmetry_space_group_name_H-M "C M M M"
_symmetry_group_IT_number 65
_symmetry_cell_setting 'orthorhombic'
loop_
_space_group_symop_operation_xyz
x,y,z
-x,-y,z
x,-y,-z
-x,y,-z
-x,-y,-z
x,y,-z
-x,y,z
x,-y,z
1/2+x,1/2+y,z
1/2-x,1/2-y,z
1/2+x,1/2-y,-z
1/2-x,1/2+y,-z
1/2-x,1/2-y,-z
1/2+x,1/2+y,-z
1/2-x,1/2+y,z
1/2+x,1/2-y,z
loop_
_atom_site_type_symbol
_atom_site_label
_atom_site_fract_x
_atom_site_fract_y
_atom_site_fract_z
Si Si1 0.345293 0.392636 0.611243
Si Si2 0.847576 0.103791 0.090412
Si Si3 0.665180 0.660777 0.204674
Si Si4 0.655256 0.896342 0.298898
Si Si5 0.655968 0.892315 0.000000
Si Si6 0.283468 0.402151 0.500000
Si Si7 0.500000 0.000000 0.500000
O O1 0.500000 0.371901 0.628944
O O2 0.334073 0.500000 0.609618
O O3 0.230013 0.360639 0.650634
O O4 0.323955 0.360422 0.553577
O O5 0.815594 0.115705 0.149832
O O6 0.736249 0.137318 0.050509
O O7 0.000000 0.141829 0.080911
O O8 0.855654 0.000000 0.081181
O O9 0.500000 0.669470 0.212976
O O10 0.750000 0.750000 0.200539
O O11 0.741034 0.614827 0.251743
O O12 0.500000 0.860593 0.290276
O O13 0.640736 0.000000 0.306585
O O14 0.500000 0.861725 0.000000
O O15 0.652881 0.000000 0.000000
O O16 0.350164 0.500000 0.500000
O O17 0.121934 0.425024 0.500000
#
# Coordination Sequence:
#
# PCOD9491190 Si02
#       7
#    16  16  16  16   8   8   2
#     4   9  16  26  42  66  98 133 170 211 258 312
#     4   9  18  34  57  81 107 140 176 213 256 310
#     4  11  23  39  57  77 105 140 180 222 269 318
#     4  10  21  34  53  78 106 137 176 220 267 316
#     4   9  17  29  50  83 114 139 167 211 258 303
#     4   8  15  22  38  59  96 133 167 203 258 313
#     4   8  16  20  34  60  96 136 166 204 260 314
#
# _framework density 21.075023999999999
#
# number of rings (size 3 to 8) (size 9 to 14) (size 15 to 20)
#    0.293    2.244    0.000    2.341    1.366    5.854 
#    0.000    2.439    0.000    0.000    0.000    0.683 
#    0.000    0.000    0.000    0.000    0.000    0.000 
#
# Total GULP energy -228316.498095 kJ/mol
# GULP energy per Si atom -5568.695075 kJ/mol
# Density = 2.102706 g / cm^3
# Si number density = 21.075024 Si / 1000 Ang^3
#
#
#
# Elastic Constant Matrix: (Units=GPa)
#
#
# Indices 1 2 3 4 5 6 
#
# 1 191.3910 11.2717 109.1974 0.0000 0.0000 0.0000
# 2 11.2717 15.8625 -1.5742 0.0000 0.0000 0.0000
# 3 109.1974 -1.5742 165.8709 0.0000 0.0000 0.0000
# 4 0.0000 0.0000 0.0000 -36.3996 0.0000 0.0000
# 5 0.0000 0.0000 0.0000 0.0000 -2.0777 0.0000
# 6 0.0000 0.0000 0.0000 0.0000 0.0000 13.5565
#
#
#
# Elastic Compliance Matrix: (Units=1/GPa)
#
#
# Indices 1 2 3 4 5 6 
#
# 1 0.009096 -0.007064 -0.006055 0.000000 0.000000 0.000000
# 2 -0.007064 0.068587 0.005301 0.000000 0.000000 0.000000
# 3 -0.006055 0.005301 0.010065 0.000000 0.000000 0.000000
# 4 0.000000 0.000000 0.000000 -0.027473 0.000000 0.000000
# 5 0.000000 0.000000 0.000000 0.000000 -0.481304 0.000000
# 6 0.000000 0.000000 0.000000 0.000000 0.000000 0.073765
#
#
# Mechanical properties :
#
#
# Convention : Reuss Voigt Hill
#
# Bulk Modulus (GPa) = 13.86711 67.87933 40.87322
# Shear Modulus (GPa) = -16.25537 11.96447 -2.14545
#
# Velocity S-wave (km/s) = -2.78026 2.38525 -1.01006
# Velocity P-wave (km/s) = 1.92673 6.31381 4.25158
#
# Compressibility (1/GPa) = 0.07211309
#
# Stress axis : x y z
#
# Youngs Moduli (GPa) = 109.94426 14.57994 99.35231
#
# Poissons Ratio (x) = 0.10299 0.60157
# Poissons Ratio (y) = 0.77665 -0.52671
# Poissons Ratio (z) = 0.66570 -0.07729
#
# Static dielectric constant tensor:
#      x y z
#    x 1.751570 0.000000 0.000000 
#    y 0.000000 1.806680 0.000000 
#    z 0.000000 0.000000 1.820690 
# 
# From -- ./inp_files/67420.got.cif
#   From: 2010.05.17/outbox.cif.g08.bks.cpg/sg65_34_cif.got.tgz:67420.got - 2010.06.03 17:01:31.
