data_PCOD9491011
_publ_section_title
;
Structure prediction by ZEFSAII (Michael W. Deem and Ramdas Pophale) SiO2 
 PCOD9491011
Probable space group: C M M M
;
_chemical_formula_sum "Si O2"
_cell_formula_units_Z 72
_cell_length_a 15.806589
_cell_length_b 8.668041
_cell_length_c 27.450793
_cell_angle_alpha 90.000000
_cell_angle_beta 90.000000
_cell_angle_gamma 90.000000
_cell_volume 3761.092484
_symmetry_space_group_name_H-M "C M M M"
_symmetry_group_IT_number 65
_symmetry_cell_setting 'orthorhombic'
loop_
_space_group_symop_operation_xyz
x,y,z
-x,-y,z
x,-y,-z
-x,y,-z
-x,-y,-z
x,y,-z
-x,y,z
x,-y,z
1/2+x,1/2+y,z
1/2-x,1/2-y,z
1/2+x,1/2-y,-z
1/2-x,1/2+y,-z
1/2-x,1/2-y,-z
1/2+x,1/2+y,-z
1/2-x,1/2+y,z
1/2+x,1/2-y,z
loop_
_atom_site_type_symbol
_atom_site_label
_atom_site_fract_x
_atom_site_fract_y
_atom_site_fract_z
Si Si1 0.400720 0.671438 0.500000
Si Si2 0.500000 0.312469 0.771192
Si Si3 0.155712 0.683737 0.600723
Si Si4 0.500000 0.314578 0.116490
Si Si5 0.341943 0.184788 0.057087
Si Si6 0.654150 0.314391 0.297572
O O1 0.359344 0.500000 0.500000
O O2 0.500000 0.651904 0.500000
O O3 0.380070 0.761132 0.549324
O O4 0.500000 0.500000 0.770494
O O5 0.500000 0.262828 0.827220
O O6 0.414216 0.265608 0.743020
O O7 0.154204 0.500000 0.604133
O O8 0.250000 0.750000 0.600817
O O9 0.118835 0.755867 0.650223
O O10 0.500000 0.500000 0.115256
O O11 0.416996 0.253347 0.089105
O O12 0.250000 0.250000 0.071215
O O13 0.341490 0.000000 0.061046
O O14 0.355702 0.225037 0.000000
O O15 0.659842 0.500000 0.298682
O O16 0.750000 0.250000 0.290283
#
# Coordination Sequence:
#
# PCOD9491011 Si02
#       6
#     8   8  16   8  16  16
#     4  11  24  39  56  81 113 149 182 219 278 341
#     4   9  22  40  60  84 117 156 196 241 295 352
#     4  11  22  38  59  84 112 143 182 229 280 337
#     4  11  22  38  59  88 123 161 202 247 302 356
#     4  10  21  38  60  88 122 161 204 249 298 354
#     4  10  20  39  62  85 112 150 194 239 291 347
#
# _framework density 19.143374000000001
#
# number of rings (size 3 to 8) (size 9 to 14) (size 15 to 20)
#    0.000    1.667    0.000    6.000    1.556    4.444 
#    0.000    8.333    0.000    0.000    0.000    0.000 
#    0.000    0.000    0.000    0.000    0.000    0.000 
#
# Total GULP energy -201016.393232 kJ/mol
# GULP energy per Si atom -5583.788701 kJ/mol
# Density = 1.909980 g / cm^3
# Si number density = 19.143374 Si / 1000 Ang^3
#
#
#
# Elastic Constant Matrix: (Units=GPa)
#
#
# Indices 1 2 3 4 5 6 
#
# 1 130.2336 46.7645 109.0576 0.0000 0.0000 0.0000
# 2 46.7645 103.3862 56.8247 0.0000 0.0000 0.0000
# 3 109.0576 56.8247 169.3767 0.0000 0.0000 0.0000
# 4 0.0000 0.0000 0.0000 31.5932 0.0000 0.0000
# 5 0.0000 0.0000 0.0000 0.0000 1.1096 0.0000
# 6 0.0000 0.0000 0.0000 0.0000 0.0000 28.4540
#
#
#
# Elastic Compliance Matrix: (Units=1/GPa)
#
#
# Indices 1 2 3 4 5 6 
#
# 1 0.017011 -0.002053 -0.010264 0.000000 0.000000 0.000000
# 2 -0.002053 0.012107 -0.002740 0.000000 0.000000 0.000000
# 3 -0.010264 -0.002740 0.013432 0.000000 0.000000 0.000000
# 4 0.000000 0.000000 0.000000 0.031652 0.000000 0.000000
# 5 0.000000 0.000000 0.000000 0.000000 0.901246 0.000000
# 6 0.000000 0.000000 0.000000 0.000000 0.000000 0.035144
#
#
# Mechanical properties :
#
#
# Convention : Reuss Voigt Hill
#
# Bulk Modulus (GPa) = 80.41266 92.03225 86.22245
# Shear Modulus (GPa) = 4.78537 24.92132 14.85335
#
# Velocity S-wave (km/s) = 1.58278 3.61200 2.78852
# Velocity P-wave (km/s) = 6.74069 8.09784 7.45023
#
# Compressibility (1/GPa) = 0.01243585
#
# Stress axis : x y z
#
# Youngs Moduli (GPa) = 58.78583 82.59628 74.44855
#
# Poissons Ratio (x) = 0.16957 0.76415
# Poissons Ratio (y) = 0.12069 0.20399
# Poissons Ratio (z) = 0.60339 0.22631
#
# Static dielectric constant tensor:
#      x y z
#    x 1.636250 0.000000 0.000000 
#    y 0.000000 1.675590 0.000000 
#    z 0.000000 0.000000 1.727070 
# 
# From -- ./inp_files/74678.got.cif
#   From: 2010.05.17/outbox.cif.g08.bks.cpg/sg65_38_cif.got.tgz:74678.got - 2010.06.03 17:01:31.
