data_PCOD9491754
_publ_section_title
;
Structure prediction by ZEFSAII (Michael W. Deem and Ramdas Pophale) SiO2 
 PCOD9491754
Probable space group: C M M M
;
_chemical_formula_sum "Si O2"
_cell_formula_units_Z 72
_cell_length_a 29.319344
_cell_length_b 9.863751
_cell_length_c 13.857865
_cell_angle_alpha 90.000000
_cell_angle_beta 90.000000
_cell_angle_gamma 90.000000
_cell_volume 4007.676663
_symmetry_space_group_name_H-M "C M M M"
_symmetry_group_IT_number 65
_symmetry_cell_setting 'orthorhombic'
loop_
_space_group_symop_operation_xyz
x,y,z
-x,-y,z
x,-y,-z
-x,y,-z
-x,-y,-z
x,y,-z
-x,y,z
x,-y,z
1/2+x,1/2+y,z
1/2-x,1/2-y,z
1/2+x,1/2-y,-z
1/2-x,1/2+y,-z
1/2-x,1/2-y,-z
1/2+x,1/2+y,-z
1/2-x,1/2+y,z
1/2+x,1/2-y,z
loop_
_atom_site_type_symbol
_atom_site_label
_atom_site_fract_x
_atom_site_fract_y
_atom_site_fract_z
Si Si1 0.291804 0.657179 0.115791
Si Si2 0.500000 0.155725 0.384416
Si Si3 0.112397 0.754533 0.192210
Si Si4 0.411997 0.337720 0.612838
Si Si5 0.052442 0.000000 0.115975
Si Si6 0.555349 0.000000 0.883172
O O1 0.291743 0.500000 0.151151
O O2 0.250000 0.750000 0.151662
O O3 0.339353 0.730126 0.139945
O O4 0.288032 0.649692 0.000000
O O5 0.500000 0.143140 0.500000
O O6 0.543476 0.248297 0.362118
O O7 0.500000 0.000000 0.346929
O O8 0.121841 0.782790 0.305566
O O9 0.082684 0.624671 0.163795
O O10 0.079683 0.873516 0.155605
O O11 0.400432 0.314463 0.500000
O O12 0.419588 0.500000 0.623258
O O13 0.000000 0.000000 0.147475
O O14 0.053365 0.000000 0.000000
O O15 0.500000 0.000000 0.867397
O O16 0.561090 0.000000 0.000000
#
# Coordination Sequence:
#
# PCOD9491754 Si02
#       6
#    16   8  16  16   8   8
#     4  10  21  38  61  88 115 146 191 247 304 358
#     4   9  19  33  51  75 108 149 194 245 292 335
#     4  12  23  38  61  85 115 160 199 241 294 355
#     4  10  21  36  55  81 113 151 198 248 292 342
#     4  11  22  36  56  82 114 153 198 238 280 348
#     4  11  26  42  56  84 126 163 200 242 292 356
#
# _framework density 17.965520999999999
#
# number of rings (size 3 to 8) (size 9 to 14) (size 15 to 20)
#    0.000    1.444    2.222    3.000    6.222    3.111 
#    0.000    0.000    0.000    0.667    0.000    0.000 
#    0.000    0.000    0.000    0.000    0.000    0.000 
#
# Total GULP energy -200712.561103 kJ/mol
# GULP energy per Si atom -5575.348920 kJ/mol
# Density = 1.792463 g / cm^3
# Si number density = 17.965521 Si / 1000 Ang^3
#
#
#
# Elastic Constant Matrix: (Units=GPa)
#
#
# Indices 1 2 3 4 5 6 
#
# 1 116.4727 58.2379 16.5922 0.0000 0.0000 0.0000
# 2 58.2379 154.9043 33.1616 0.0000 0.0000 0.0000
# 3 16.5922 33.1616 80.9115 0.0000 0.0000 0.0000
# 4 0.0000 0.0000 0.0000 28.0681 0.0000 0.0000
# 5 0.0000 0.0000 0.0000 0.0000 -65.8769 0.0000
# 6 0.0000 0.0000 0.0000 0.0000 0.0000 39.4181
#
#
#
# Elastic Compliance Matrix: (Units=1/GPa)
#
#
# Indices 1 2 3 4 5 6 
#
# 1 0.010599 -0.003858 -0.000592 0.000000 0.000000 0.000000
# 2 -0.003858 0.008481 -0.002685 0.000000 0.000000 0.000000
# 3 -0.000592 -0.002685 0.013581 0.000000 0.000000 0.000000
# 4 0.000000 0.000000 0.000000 0.035628 0.000000 0.000000
# 5 0.000000 0.000000 0.000000 0.000000 -0.015180 0.000000
# 6 0.000000 0.000000 0.000000 0.000000 0.000000 0.025369
#
#
# Mechanical properties :
#
#
# Convention : Reuss Voigt Hill
#
# Bulk Modulus (GPa) = 54.37500 63.14132 58.75816
# Shear Modulus (GPa) = 50.56727 16.60832 33.58780
#
# Velocity S-wave (km/s) = 5.31112 3.04378 4.32854
# Velocity P-wave (km/s) = 8.24273 6.89746 7.59992
#
# Compressibility (1/GPa) = 0.01839080
#
# Stress axis : x y z
#
# Youngs Moduli (GPa) = 94.34710 117.91319 73.63244
#
# Poissons Ratio (x) = 0.45492 0.04361
# Poissons Ratio (y) = 0.36400 0.19768
# Poissons Ratio (z) = 0.05588 0.31656
#
# Static dielectric constant tensor:
#      x y z
#    x 1.589610 0.000000 0.000000 
#    y 0.000000 1.669600 0.000000 
#    z 0.000000 0.000000 1.692690 
# 
# From -- ./inp_files/36668.got.cif
#   From: 2010.05.17/outbox.cif.g08.bks.cpg/sg65_19_cif.got.tgz:36668.got - 2010.06.03 17:01:31.
