data_PCOD9491649
_publ_section_title
;
Structure prediction by ZEFSAII (Michael W. Deem and Ramdas Pophale) SiO2 
 PCOD9491649
Probable space group: C M M M
;
_chemical_formula_sum "Si O2"
_cell_formula_units_Z 96
_cell_length_a 29.475671
_cell_length_b 8.286529
_cell_length_c 21.253140
_cell_angle_alpha 90.000000
_cell_angle_beta 90.000000
_cell_angle_gamma 90.000000
_cell_volume 5191.100752
_symmetry_space_group_name_H-M "C M M M"
_symmetry_group_IT_number 65
_symmetry_cell_setting 'orthorhombic'
loop_
_space_group_symop_operation_xyz
x,y,z
-x,-y,z
x,-y,-z
-x,y,-z
-x,-y,-z
x,y,-z
-x,y,z
x,-y,z
1/2+x,1/2+y,z
1/2-x,1/2-y,z
1/2+x,1/2-y,-z
1/2-x,1/2+y,-z
1/2-x,1/2-y,-z
1/2+x,1/2+y,-z
1/2-x,1/2+y,z
1/2+x,1/2-y,z
loop_
_atom_site_type_symbol
_atom_site_label
_atom_site_fract_x
_atom_site_fract_y
_atom_site_fract_z
Si Si1 0.799884 0.689006 0.888866
Si Si2 0.553130 0.304384 0.806800
Si Si3 0.388693 0.807545 0.688298
Si Si4 0.604578 0.692507 0.931586
Si Si5 0.948096 0.696775 0.571493
Si Si6 0.298036 0.310071 0.253298
O O1 0.803027 0.500000 0.901083
O O2 0.750000 0.750000 0.907790
O O3 0.842207 0.775088 0.921224
O O4 0.804366 0.722255 0.813942
O O5 0.500000 0.264774 0.806351
O O6 0.557597 0.500000 0.803647
O O7 0.578823 0.232064 0.747089
O O8 0.577002 0.246343 0.871178
O O9 0.413353 0.749042 0.624833
O O10 0.340395 0.728242 0.702740
O O11 0.382506 0.000000 0.684401
O O12 0.597500 0.500000 0.932524
O O13 0.590656 0.757742 0.000000
O O14 0.937209 0.746747 0.500000
O O15 0.947970 0.500000 0.572298
O O16 0.000000 0.746735 0.585710
O O17 0.295674 0.500000 0.240059
O O18 0.250000 0.250000 0.279670
#
# Coordination Sequence:
#
# PCOD9491649 Si02
#       6
#    16  16  16  16  16  16
#     4  11  21  35  56  80 106 137 173 219 272 326
#     4  10  21  36  54  77 106 141 181 226 272 319
#     4  11  20  32  55  85 112 143 180 222 269 317
#     4  10  21  37  55  75 104 143 183 223 270 324
#     4   8  15  29  50  79 115 151 185 220 260 310
#     4  11  21  35  55  80 110 141 176 220 268 322
#
# _framework density 18.493188
#
# number of rings (size 3 to 8) (size 9 to 14) (size 15 to 20)
#    0.000    1.833    1.667    5.500    0.000    2.000 
#    0.000    1.667    0.000    2.500    0.000    8.167 
#    0.000    0.000    0.000    0.000    0.000    0.000 
#
# Total GULP energy -268064.696914 kJ/mol
# GULP energy per Si atom -5584.681186 kJ/mol
# Density = 1.845110 g / cm^3
# Si number density = 18.493188 Si / 1000 Ang^3
#
#
#
# Elastic Constant Matrix: (Units=GPa)
#
#
# Indices 1 2 3 4 5 6 
#
# 1 86.5553 -9.1565 44.9384 0.0000 0.0000 0.0000
# 2 -9.1565 12.5590 -6.5284 0.0000 0.0000 0.0000
# 3 44.9384 -6.5284 97.0922 0.0000 0.0000 0.0000
# 4 0.0000 0.0000 0.0000 16.4612 0.0000 0.0000
# 5 0.0000 0.0000 0.0000 0.0000 -105.6642 0.0000
# 6 0.0000 0.0000 0.0000 0.0000 0.0000 19.2040
#
#
#
# Elastic Compliance Matrix: (Units=1/GPa)
#
#
# Indices 1 2 3 4 5 6 
#
# 1 0.015962 0.008079 -0.006844 0.000000 0.000000 0.000000
# 2 0.008079 0.086598 0.002083 0.000000 0.000000 0.000000
# 3 -0.006844 0.002083 0.013607 0.000000 0.000000 0.000000
# 4 0.000000 0.000000 0.000000 0.060749 0.000000 0.000000
# 5 0.000000 0.000000 0.000000 0.000000 -0.009464 0.000000
# 6 0.000000 0.000000 0.000000 0.000000 0.000000 0.052073
#
#
# Mechanical properties :
#
#
# Convention : Reuss Voigt Hill
#
# Bulk Modulus (GPa) = 8.14309 28.30149 18.22229
# Shear Modulus (GPa) = 19.69880 -2.86961 8.41460
#
# Velocity S-wave (km/s) = 3.26727 -1.24703 2.13541
# Velocity P-wave (km/s) = 4.31813 3.64191 3.99436
#
# Compressibility (1/GPa) = 0.12280347
#
# Stress axis : x y z
#
# Youngs Moduli (GPa) = 62.65044 11.54762 73.48900
#
# Poissons Ratio (x) = -0.09330 0.50299
# Poissons Ratio (y) = -0.50618 -0.15310
# Poissons Ratio (z) = 0.42881 -0.02406
#
# Static dielectric constant tensor:
#      x y z
#    x 1.627780 0.000000 0.000000 
#    y 0.000000 1.643590 0.000000 
#    z 0.000000 0.000000 1.640210 
# 
# From -- ./inp_files/60190.got.cif
#   From: 2010.05.17/outbox.cif.g08.bks.cpg/sg65_31_cif.got.tgz:60190.got - 2010.06.03 17:01:31.
