data_PCOD9491606
_publ_section_title
;
Structure prediction by ZEFSAII (Michael W. Deem and Ramdas Pophale) SiO2 
 PCOD9491606
Probable space group: C M M M
;
_chemical_formula_sum "Si O2"
_cell_formula_units_Z 80
_cell_length_a 8.426389
_cell_length_b 19.907299
_cell_length_c 26.978676
_cell_angle_alpha 90.000000
_cell_angle_beta 90.000000
_cell_angle_gamma 90.000000
_cell_volume 4525.582394
_symmetry_space_group_name_H-M "C M M M"
_symmetry_group_IT_number 65
_symmetry_cell_setting 'orthorhombic'
loop_
_space_group_symop_operation_xyz
x,y,z
-x,-y,z
x,-y,-z
-x,y,-z
-x,-y,-z
x,y,-z
-x,y,z
x,-y,z
1/2+x,1/2+y,z
1/2-x,1/2-y,z
1/2+x,1/2-y,-z
1/2-x,1/2+y,-z
1/2-x,1/2-y,-z
1/2+x,1/2+y,-z
1/2-x,1/2+y,z
1/2+x,1/2-y,z
loop_
_atom_site_type_symbol
_atom_site_label
_atom_site_fract_x
_atom_site_fract_y
_atom_site_fract_z
Si Si1 0.191687 0.422557 0.250465
Si Si2 0.692280 0.826700 0.838128
Si Si3 0.810005 0.674742 0.556192
Si Si4 0.308258 0.172887 0.053224
Si Si5 0.689778 0.577236 0.641461
O O1 0.244193 0.500000 0.243230
O O2 0.247540 0.374030 0.206514
O O3 0.248275 0.400183 0.304722
O O4 0.000000 0.422304 0.250145
O O5 0.500000 0.825777 0.837333
O O6 0.750000 0.750000 0.832563
O O7 0.742767 0.853420 0.892795
O O8 0.757575 0.656976 0.500000
O O9 0.750000 0.750000 0.566429
O O10 0.748280 0.623740 0.597194
O O11 0.000000 0.674881 0.557067
O O12 0.500000 0.172095 0.053088
O O13 0.250000 0.250000 0.052999
O O14 0.255404 0.142892 0.000000
O O15 0.500000 0.577745 0.642420
O O16 0.744454 0.500000 0.634435
#
# Coordination Sequence:
#
# PCOD9491606 Si02
#       5
#    16  16  16  16  16
#     4   9  18  33  50  66  90 126 163 197 236 285
#     4   9  17  28  44  67  91 117 152 193 236 281
#     4  10  21  37  57  80 106 135 165 198 239 287
#     4   8  13  22  37  58  85 114 144 182 228 277
#     4  10  21  36  54  76 101 130 166 206 245 287
#
# _framework density 17.677282000000002
#
# number of rings (size 3 to 8) (size 9 to 14) (size 15 to 20)
#    0.000    2.800    0.000    1.200    0.000    4.400 
#    0.000    4.000    0.000    0.600    0.000    4.200 
#    0.000    0.000    0.000   37.400    0.000   20.400 
#
# Total GULP energy -222797.573791 kJ/mol
# GULP energy per Si atom -5569.939345 kJ/mol
# Density = 1.763705 g / cm^3
# Si number density = 17.677282 Si / 1000 Ang^3
#
#
#
# Elastic Constant Matrix: (Units=GPa)
#
#
# Indices 1 2 3 4 5 6 
#
# 1 13.0490 12.3490 25.1833 0.0000 0.0000 0.0000
# 2 12.3490 62.1778 97.7949 0.0000 0.0000 0.0000
# 3 25.1833 97.7949 215.3118 0.0000 0.0000 0.0000
# 4 0.0000 0.0000 0.0000 -31.1569 0.0000 0.0000
# 5 0.0000 0.0000 0.0000 0.0000 16.9219 0.0000
# 6 0.0000 0.0000 0.0000 0.0000 0.0000 20.3613
#
#
#
# Elastic Compliance Matrix: (Units=1/GPa)
#
#
# Indices 1 2 3 4 5 6 
#
# 1 0.099435 -0.005099 -0.009314 0.000000 0.000000 0.000000
# 2 -0.005099 0.056570 -0.025098 0.000000 0.000000 0.000000
# 3 -0.009314 -0.025098 0.017133 0.000000 0.000000 0.000000
# 4 0.000000 0.000000 0.000000 -0.032096 0.000000 0.000000
# 5 0.000000 0.000000 0.000000 0.000000 0.059095 0.000000
# 6 0.000000 0.000000 0.000000 0.000000 0.000000 0.049113
#
#
# Mechanical properties :
#
#
# Convention : Reuss Voigt Hill
#
# Bulk Modulus (GPa) = 10.62513 62.35478 36.48996
# Shear Modulus (GPa) = 13.90257 11.57268 12.73763
#
# Velocity S-wave (km/s) = 2.80744 2.56142 2.68725
# Velocity P-wave (km/s) = 4.06603 6.64066 5.50595
#
# Compressibility (1/GPa) = 0.09411645
#
# Stress axis : x y z
#
# Youngs Moduli (GPa) = 10.05680 17.67711 58.36579
#
# Poissons Ratio (x) = 0.09014 0.54362
# Poissons Ratio (y) = 0.05128 1.46486
# Poissons Ratio (z) = 0.09367 0.44366
#
# Static dielectric constant tensor:
#      x y z
#    x 1.602920 0.000000 0.000000 
#    y 0.000000 1.581650 0.000000 
#    z 0.000000 0.000000 1.639080 
# 
# From -- ./inp_files/72742.got.cif
#   From: 2010.05.17/outbox.cif.g08.bks.cpg/sg65_37_cif.got.tgz:72742.got - 2010.06.03 17:01:31.
