data_PCOD9491669
_publ_section_title
;
Structure prediction by ZEFSAII (Michael W. Deem and Ramdas Pophale) SiO2 
 PCOD9491669
Probable space group: C M M M
;
_chemical_formula_sum "Si O2"
_cell_formula_units_Z 96
_cell_length_a 20.094187
_cell_length_b 27.004748
_cell_length_c 7.806892
_cell_angle_alpha 90.000000
_cell_angle_beta 90.000000
_cell_angle_gamma 90.000000
_cell_volume 4236.319823
_symmetry_space_group_name_H-M "C M M M"
_symmetry_group_IT_number 65
_symmetry_cell_setting 'orthorhombic'
loop_
_space_group_symop_operation_xyz
x,y,z
-x,-y,z
x,-y,-z
-x,y,-z
-x,-y,-z
x,y,-z
-x,y,z
x,-y,z
1/2+x,1/2+y,z
1/2-x,1/2-y,z
1/2+x,1/2-y,-z
1/2-x,1/2+y,-z
1/2-x,1/2-y,-z
1/2+x,1/2+y,-z
1/2-x,1/2+y,z
1/2+x,1/2-y,z
loop_
_atom_site_type_symbol
_atom_site_label
_atom_site_fract_x
_atom_site_fract_y
_atom_site_fract_z
Si Si1 0.286068 0.298994 0.197323
Si Si2 0.785834 0.092133 0.698065
Si Si3 0.850469 0.553658 0.199664
Si Si4 0.927762 0.941165 0.292670
Si Si5 0.078705 0.349414 0.201357
Si Si6 0.075654 0.237887 0.301222
O O1 0.250000 0.250000 0.267988
O O2 0.269517 0.349867 0.289621
O O3 0.365049 0.289882 0.207605
O O4 0.264876 0.304503 0.000000
O O5 0.785480 0.076275 0.500000
O O6 0.728520 0.061671 0.790359
O O7 0.860036 0.083701 0.769697
O O8 0.868005 0.500000 0.274768
O O9 0.883505 0.603045 0.274748
O O10 0.870869 0.552939 0.000000
O O11 0.928737 0.935039 0.500000
O O12 0.000000 0.923049 0.229087
O O13 0.923791 0.000000 0.258967
O O14 0.090398 0.296592 0.288187
O O15 0.000000 0.359256 0.210338
O O16 0.096850 0.342911 0.000000
O O17 0.077255 0.222660 0.500000
O O18 0.000000 0.230465 0.236354
#
# Coordination Sequence:
#
# PCOD9491669 Si02
#       6
#    16  16  16  16  16  16
#     4  11  24  40  57  78 107 144 185 227 273 328
#     4  11  22  35  55  82 109 138 177 225 274 324
#     4  10  21  36  54  78 110 146 182 223 271 323
#     4   8  15  30  52  77 105 136 169 206 250 302
#     4   9  18  34  56  80 107 142 183 224 268 320
#     4  10  21  37  58  84 112 142 179 224 274 329
#
# _framework density 22.661178
#
# number of rings (size 3 to 8) (size 9 to 14) (size 15 to 20)
#    0.000    2.167    0.000    3.500    0.000    9.000 
#    0.000    3.333    0.000    1.500    0.000    9.333 
#    0.000    0.000    0.000    0.000    0.000    0.000 
#
# Total GULP energy -268188.546725 kJ/mol
# GULP energy per Si atom -5587.261390 kJ/mol
# Density = 2.260960 g / cm^3
# Si number density = 22.661178 Si / 1000 Ang^3
#
#
#
# Elastic Constant Matrix: (Units=GPa)
#
#
# Indices 1 2 3 4 5 6 
#
# 1 48.9132 10.8858 -1.5389 0.0000 0.0000 0.0000
# 2 10.8858 45.3840 -5.6054 0.0000 0.0000 0.0000
# 3 -1.5389 -5.6054 33.8633 0.0000 0.0000 0.0000
# 4 0.0000 0.0000 0.0000 5.4581 0.0000 0.0000
# 5 0.0000 0.0000 0.0000 0.0000 21.3795 0.0000
# 6 0.0000 0.0000 0.0000 0.0000 0.0000 35.2385
#
#
#
# Elastic Compliance Matrix: (Units=1/GPa)
#
#
# Indices 1 2 3 4 5 6 
#
# 1 0.021598 -0.005165 0.000127 0.000000 0.000000 0.000000
# 2 -0.005165 0.023729 0.003693 0.000000 0.000000 0.000000
# 3 0.000127 0.003693 0.030148 0.000000 0.000000 0.000000
# 4 0.000000 0.000000 0.000000 0.183215 0.000000 0.000000
# 5 0.000000 0.000000 0.000000 0.000000 0.046774 0.000000
# 6 0.000000 0.000000 0.000000 0.000000 0.000000 0.028378
#
#
# Mechanical properties :
#
#
# Convention : Reuss Voigt Hill
#
# Bulk Modulus (GPa) = 13.73921 15.07150 14.40536
# Shear Modulus (GPa) = 13.85838 20.70982 17.28410
#
# Velocity S-wave (km/s) = 2.47563 3.02634 2.76473
# Velocity P-wave (km/s) = 3.77461 4.34475 4.06968
#
# Compressibility (1/GPa) = 0.07278440
#
# Stress axis : x y z
#
# Youngs Moduli (GPa) = 46.30101 42.14222 33.17016
#
# Poissons Ratio (x) = 0.21766 -0.00420
# Poissons Ratio (y) = 0.23914 -0.12250
# Poissons Ratio (z) = -0.00586 -0.15564
#
# Static dielectric constant tensor:
#      x y z
#    x 1.852490 0.000000 0.000000 
#    y 0.000000 1.828700 0.000000 
#    z 0.000000 0.000000 1.821640 
# 
# From -- ./inp_files/12232.got.cif
#   From: 2010.05.17/outbox.cif.g08.bks.cpg/sg65_7_cif.got.tgz:12232.got - 2010.06.03 17:01:31.
