data_PCOD9491454
_publ_section_title
;
Structure prediction by ZEFSAII (Michael W. Deem and Ramdas Pophale) SiO2 
 PCOD9491454
Probable space group: C M M M
;
_chemical_formula_sum "Si O2"
_cell_formula_units_Z 92
_cell_length_a 18.587610
_cell_length_b 27.767049
_cell_length_c 9.683994
_cell_angle_alpha 90.000000
_cell_angle_beta 90.000000
_cell_angle_gamma 90.000000
_cell_volume 4998.132787
_symmetry_space_group_name_H-M "C M M M"
_symmetry_group_IT_number 65
_symmetry_cell_setting 'orthorhombic'
loop_
_space_group_symop_operation_xyz
x,y,z
-x,-y,z
x,-y,-z
-x,y,-z
-x,-y,-z
x,y,-z
-x,y,z
x,-y,z
1/2+x,1/2+y,z
1/2-x,1/2-y,z
1/2+x,1/2-y,-z
1/2-x,1/2+y,-z
1/2-x,1/2-y,-z
1/2+x,1/2+y,-z
1/2-x,1/2+y,z
1/2+x,1/2-y,z
loop_
_atom_site_type_symbol
_atom_site_label
_atom_site_fract_x
_atom_site_fract_y
_atom_site_fract_z
Si Si1 0.298256 0.553125 0.837043
Si Si2 0.161786 0.159559 0.835537
Si Si3 0.414759 0.055326 0.000000
Si Si4 0.399279 0.000000 0.500000
Si Si5 0.698543 0.182879 0.656193
Si Si6 0.918141 0.765264 0.337026
Si Si7 0.147613 0.421194 0.285248
O O1 0.331112 0.500000 0.814989
O O2 0.343044 0.601777 0.812248
O O3 0.227664 0.557640 0.742063
O O4 0.276885 0.555441 0.000000
O O5 0.236433 0.177143 0.764218
O O6 0.100493 0.189388 0.758385
O O7 0.162833 0.168066 0.000000
O O8 0.387985 0.081242 0.863851
O O9 0.500000 0.053223 0.000000
O O10 0.386867 0.000000 0.000000
O O11 0.395130 0.957851 0.619286
O O12 0.726757 0.191486 0.500000
O O13 0.641734 0.224477 0.690950
O O14 0.657640 0.131894 0.656283
O O15 0.912452 0.777553 0.500000
O O16 0.000000 0.748436 0.312675
#
# Coordination Sequence:
#
# PCOD9491454 Si02
#       7
#    16  16   8   4  16  16  16
#     4   9  16  30  55  80 110 143 173 212 268 336
#     4  10  21  35  57  89 117 144 183 234 280 333
#     4  11  22  36  50  64  97 148 193 227 275 338
#     4  12  20  30  55  80 110 142 183 238 288 320
#     4  10  21  36  58  84 113 146 185 236 283 334
#     4  10  22  41  60  77 106 152 195 231 284 344
#     4  11  20  34  52  79 108 141 183 230 279 328
#
# _framework density 18.406873000000001
#
# number of rings (size 3 to 8) (size 9 to 14) (size 15 to 20)
#    0.000    1.826    3.478    1.043    1.217    3.826 
#    0.000    0.870    0.000    0.522    0.000    3.652 
#    0.000    0.000    0.000    0.000    0.000    0.000 
#
# Total GULP energy -256080.774460 kJ/mol
# GULP energy per Si atom -5566.973358 kJ/mol
# Density = 1.836498 g / cm^3
# Si number density = 18.406873 Si / 1000 Ang^3
#
#
#
# Elastic Constant Matrix: (Units=GPa)
#
#
# Indices 1 2 3 4 5 6 
#
# 1 28.3371 20.1233 12.0806 0.0000 0.0000 0.0000
# 2 20.1233 115.8064 32.0653 0.0000 0.0000 0.0000
# 3 12.0806 32.0653 87.0759 0.0000 0.0000 0.0000
# 4 0.0000 0.0000 0.0000 37.1336 0.0000 0.0000
# 5 0.0000 0.0000 0.0000 0.0000 14.6126 0.0000
# 6 0.0000 0.0000 0.0000 0.0000 0.0000 6.8892
#
#
#
# Elastic Compliance Matrix: (Units=1/GPa)
#
#
# Indices 1 2 3 4 5 6 
#
# 1 0.041155 -0.006203 -0.003425 0.000000 0.000000 0.000000
# 2 -0.006203 0.010550 -0.003025 0.000000 0.000000 0.000000
# 3 -0.003425 -0.003025 0.013073 0.000000 0.000000 0.000000
# 4 0.000000 0.000000 0.000000 0.026930 0.000000 0.000000
# 5 0.000000 0.000000 0.000000 0.000000 0.068434 0.000000
# 6 0.000000 0.000000 0.000000 0.000000 0.000000 0.145155
#
#
# Mechanical properties :
#
#
# Convention : Reuss Voigt Hill
#
# Bulk Modulus (GPa) = 25.33408 39.97311 32.65360
# Shear Modulus (GPa) = 14.54501 22.85708 18.70105
#
# Velocity S-wave (km/s) = 2.81409 3.52770 3.19090
# Velocity P-wave (km/s) = 4.93478 6.19326 5.59949
#
# Compressibility (1/GPa) = 0.03947252
#
# Stress axis : x y z
#
# Youngs Moduli (GPa) = 24.29858 94.78298 76.49201
#
# Poissons Ratio (x) = 0.58792 0.26202
# Poissons Ratio (y) = 0.15072 0.23136
# Poissons Ratio (z) = 0.08323 0.28668
#
# Static dielectric constant tensor:
#      x y z
#    x 1.631980 0.000000 0.000000 
#    y 0.000000 1.648970 0.000000 
#    z 0.000000 0.000000 1.656740 
# 
# From -- ./inp_files/12336.got.cif
#   From: 2010.05.17/outbox.cif.g08.bks.cpg/sg65_7_cif.got.tgz:12336.got - 2010.06.03 17:01:31.
