data_PCOD9491729
_publ_section_title
;
Structure prediction by ZEFSAII (Michael W. Deem and Ramdas Pophale) SiO2 
 PCOD9491729
Probable space group: C M M M
;
_chemical_formula_sum "Si O2"
_cell_formula_units_Z 96
_cell_length_a 9.120504
_cell_length_b 19.042897
_cell_length_c 30.970548
_cell_angle_alpha 90.000000
_cell_angle_beta 90.000000
_cell_angle_gamma 90.000000
_cell_volume 5378.990119
_symmetry_space_group_name_H-M "C M M M"
_symmetry_group_IT_number 65
_symmetry_cell_setting 'orthorhombic'
loop_
_space_group_symop_operation_xyz
x,y,z
-x,-y,z
x,-y,-z
-x,y,-z
-x,-y,-z
x,y,-z
-x,y,z
x,-y,z
1/2+x,1/2+y,z
1/2-x,1/2-y,z
1/2+x,1/2-y,-z
1/2-x,1/2+y,-z
1/2-x,1/2-y,-z
1/2+x,1/2+y,-z
1/2-x,1/2+y,z
1/2+x,1/2-y,z
loop_
_atom_site_type_symbol
_atom_site_label
_atom_site_fract_x
_atom_site_fract_y
_atom_site_fract_z
Si Si1 0.826919 0.415988 0.548658
Si Si2 0.175469 0.418022 0.207705
Si Si3 0.824901 0.918287 0.050781
Si Si4 0.674953 0.674463 0.720296
Si Si5 0.325896 0.675221 0.620380
Si Si6 0.824779 0.674273 0.122938
O O1 0.782866 0.394007 0.500000
O O2 0.810717 0.500000 0.551117
O O3 0.736833 0.378938 0.585953
O O4 0.000000 0.400155 0.553625
O O5 0.213375 0.500000 0.202520
O O6 0.259229 0.382366 0.247322
O O7 0.208921 0.373917 0.164579
O O8 0.000000 0.413354 0.214981
O O9 0.737262 0.866124 0.081292
O O10 0.000000 0.909608 0.057274
O O11 0.788996 0.000000 0.060402
O O12 0.795156 0.906421 0.000000
O O13 0.500000 0.680898 0.725827
O O14 0.750000 0.750000 0.728661
O O15 0.705209 0.655275 0.670263
O O16 0.500000 0.682076 0.615869
O O17 0.250000 0.750000 0.612785
O O18 0.750000 0.750000 0.127336
O O19 0.000000 0.682231 0.119950
#
# Coordination Sequence:
#
# PCOD9491729 Si02
#       6
#    16  16  16  16  16  16
#     4   9  19  36  56  78 106 141 180 221 267 320
#     4  10  22  39  58  82 111 142 179 223 270 322
#     4   9  19  37  60  85 113 145 182 225 273 324
#     4  10  21  37  57  81 109 142 180 221 267 320
#     4  10  21  36  55  80 109 141 179 222 267 318
#     4  11  23  38  57  82 112 146 185 227 271 321
#
# _framework density 17.847216
#
# number of rings (size 3 to 8) (size 9 to 14) (size 15 to 20)
#    0.000    2.167    0.000    3.500    0.000    8.333 
#    0.000    5.000    0.000    0.000    0.000    0.000 
#    0.000    0.000    0.000    0.000    0.000    0.000 
#
# Total GULP energy -268046.700333 kJ/mol
# GULP energy per Si atom -5584.306257 kJ/mol
# Density = 1.780659 g / cm^3
# Si number density = 17.847216 Si / 1000 Ang^3
#
#
#
# Elastic Constant Matrix: (Units=GPa)
#
#
# Indices 1 2 3 4 5 6 
#
# 1 66.9219 75.6405 76.0414 0.0000 0.0000 0.0000
# 2 75.6405 133.9663 100.6859 0.0000 0.0000 0.0000
# 3 76.0414 100.6859 118.9012 0.0000 0.0000 0.0000
# 4 0.0000 0.0000 0.0000 40.4227 0.0000 0.0000
# 5 0.0000 0.0000 0.0000 0.0000 35.7912 0.0000
# 6 0.0000 0.0000 0.0000 0.0000 0.0000 31.6687
#
#
#
# Elastic Compliance Matrix: (Units=1/GPa)
#
#
# Indices 1 2 3 4 5 6 
#
# 1 0.063723 -0.014717 -0.028291 0.000000 0.000000 0.000000
# 2 -0.014717 0.023931 -0.010853 0.000000 0.000000 0.000000
# 3 -0.028291 -0.010853 0.035693 0.000000 0.000000 0.000000
# 4 0.000000 0.000000 0.000000 0.024739 0.000000 0.000000
# 5 0.000000 0.000000 0.000000 0.000000 0.027940 0.000000
# 6 0.000000 0.000000 0.000000 0.000000 0.000000 0.031577
#
#
# Mechanical properties :
#
#
# Convention : Reuss Voigt Hill
#
# Bulk Modulus (GPa) = 63.99413 91.61390 77.80401
# Shear Modulus (GPa) = 15.59916 26.07128 20.83522
#
# Velocity S-wave (km/s) = 2.95962 3.82619 3.42046
# Velocity P-wave (km/s) = 6.90026 8.42398 7.69990
#
# Compressibility (1/GPa) = 0.01562643
#
# Stress axis : x y z
#
# Youngs Moduli (GPa) = 15.69304 41.78759 28.01660
#
# Poissons Ratio (x) = 0.61498 0.79260
# Poissons Ratio (y) = 0.23095 0.30405
# Poissons Ratio (z) = 0.44396 0.45350
#
# Static dielectric constant tensor:
#      x y z
#    x 1.591790 0.000000 0.000000 
#    y 0.000000 1.580030 0.000000 
#    z 0.000000 0.000000 1.596600 
# 
# From -- ./inp_files/73171.got.cif
#   From: 2010.05.17/outbox.cif.g08.bks.cpg/sg65_37_cif.got.tgz:73171.got - 2010.06.03 17:01:31.
