data_PCOD9491782
_publ_section_title
;
Structure prediction by ZEFSAII (Michael W. Deem and Ramdas Pophale) SiO2 
 PCOD9491782
Probable space group: C M M M
;
_chemical_formula_sum "Si O2"
_cell_formula_units_Z 88
_cell_length_a 22.621255
_cell_length_b 22.888575
_cell_length_c 8.971358
_cell_angle_alpha 90.000000
_cell_angle_beta 90.000000
_cell_angle_gamma 90.000000
_cell_volume 4645.084706
_symmetry_space_group_name_H-M "C M M M"
_symmetry_group_IT_number 65
_symmetry_cell_setting 'orthorhombic'
loop_
_space_group_symop_operation_xyz
x,y,z
-x,-y,z
x,-y,-z
-x,y,-z
-x,-y,-z
x,y,-z
-x,y,z
x,-y,z
1/2+x,1/2+y,z
1/2-x,1/2-y,z
1/2+x,1/2-y,-z
1/2-x,1/2+y,-z
1/2-x,1/2-y,-z
1/2+x,1/2+y,-z
1/2-x,1/2+y,z
1/2+x,1/2-y,z
loop_
_atom_site_type_symbol
_atom_site_label
_atom_site_fract_x
_atom_site_fract_y
_atom_site_fract_z
Si Si1 0.342554 0.593520 0.823230
Si Si2 0.070111 0.000000 0.320384
Si Si3 0.376990 0.292893 0.678084
Si Si4 0.500000 0.707194 0.829925
Si Si5 0.623143 0.157010 0.677849
Si Si6 0.207583 0.564451 0.177184
Si Si7 0.500000 0.848401 0.831371
O O1 0.393699 0.555714 0.743729
O O2 0.337786 0.658821 0.758195
O O3 0.277992 0.566165 0.799205
O O4 0.354555 0.594790 0.000000
O O5 0.073539 0.000000 0.500000
O O6 0.000000 0.000000 0.279557
O O7 0.373594 0.298049 0.500000
O O8 0.442180 0.308637 0.737991
O O9 0.365722 0.225202 0.719326
O O10 0.500000 0.777660 0.838494
O O11 0.500000 0.684564 0.000000
O O12 0.618744 0.155178 0.500000
O O13 0.674225 0.115237 0.736503
O O14 0.560579 0.136998 0.747408
O O15 0.185533 0.500000 0.220817
O O16 0.197707 0.572151 0.000000
O O17 0.500000 0.871222 0.000000
#
# Coordination Sequence:
#
# PCOD9491782 Si02
#       7
#    16   8  16   8  16  16   8
#     4  11  23  41  63  87 118 157 205 251 293 349
#     4  11  25  43  63  89 123 162 203 250 304 352
#     4  10  21  36  55  85 122 156 193 242 299 353
#     4   9  17  31  53  81 113 153 197 234 284 349
#     4  10  21  37  60  90 123 157 194 242 297 356
#     4  10  22  42  63  84 114 154 200 247 297 354
#     4   9  17  33  58  86 118 154 191 235 288 345
#
# _framework density 18.944756000000002
#
# number of rings (size 3 to 8) (size 9 to 14) (size 15 to 20)
#    0.000    1.909    0.909    2.455    1.273    7.636 
#    0.000    4.091    0.000    2.727    0.000    0.000 
#    0.000    0.000    0.000    0.000    0.000    0.000 
#
# Total GULP energy -245578.939791 kJ/mol
# GULP energy per Si atom -5581.339541 kJ/mol
# Density = 1.890164 g / cm^3
# Si number density = 18.944756 Si / 1000 Ang^3
#
#
#
# Elastic Constant Matrix: (Units=GPa)
#
#
# Indices 1 2 3 4 5 6 
#
# 1 75.5663 54.0358 53.4502 0.0000 0.0000 0.0000
# 2 54.0358 114.7524 58.8884 0.0000 0.0000 0.0000
# 3 53.4502 58.8884 83.1492 0.0000 0.0000 0.0000
# 4 0.0000 0.0000 0.0000 30.0242 0.0000 0.0000
# 5 0.0000 0.0000 0.0000 0.0000 40.6050 0.0000
# 6 0.0000 0.0000 0.0000 0.0000 0.0000 -7.0245
#
#
#
# Elastic Compliance Matrix: (Units=1/GPa)
#
#
# Indices 1 2 3 4 5 6 
#
# 1 0.026580 -0.005888 -0.012916 0.000000 0.000000 0.000000
# 2 -0.005888 0.014994 -0.006834 0.000000 0.000000 0.000000
# 3 -0.012916 -0.006834 0.025170 0.000000 0.000000 0.000000
# 4 0.000000 0.000000 0.000000 0.033306 0.000000 0.000000
# 5 0.000000 0.000000 0.000000 0.000000 0.024627 0.000000
# 6 0.000000 0.000000 0.000000 0.000000 0.000000 -0.142359
#
#
# Mechanical properties :
#
#
# Convention : Reuss Voigt Hill
#
# Bulk Modulus (GPa) = 64.65475 67.35739 66.00607
# Shear Modulus (GPa) = 129.03010 19.86052 74.44531
#
# Velocity S-wave (km/s) = 8.26175 3.24132 6.27545
# Velocity P-wave (km/s) = 11.18976 7.04557 9.35015
#
# Compressibility (1/GPa) = 0.01546677
#
# Stress axis : x y z
#
# Youngs Moduli (GPa) = 37.62288 66.69231 39.73039
#
# Poissons Ratio (x) = 0.39267 0.51316
# Poissons Ratio (y) = 0.22152 0.27154
# Poissons Ratio (z) = 0.48594 0.45581
#
# Static dielectric constant tensor:
#      x y z
#    x 1.743600 0.000000 0.000000 
#    y 0.000000 1.661990 0.000000 
#    z 0.000000 0.000000 1.634320 
# 
# From -- ./inp_files/11892.got.cif
#   From: 2010.05.17/outbox.cif.g08.bks.cpg/sg65_6_cif.got.tgz:11892.got - 2010.06.03 17:01:31.
