data_PCOD9491515
_publ_section_title
;
Structure prediction by ZEFSAII (Michael W. Deem and Ramdas Pophale) SiO2 
 PCOD9491515
Probable space group: C M M M
;
_chemical_formula_sum "Si O2"
_cell_formula_units_Z 104
_cell_length_a 8.529458
_cell_length_b 27.355957
_cell_length_c 22.576268
_cell_angle_alpha 90.000000
_cell_angle_beta 90.000000
_cell_angle_gamma 90.000000
_cell_volume 5267.754167
_symmetry_space_group_name_H-M "C M M M"
_symmetry_group_IT_number 65
_symmetry_cell_setting 'orthorhombic'
loop_
_space_group_symop_operation_xyz
x,y,z
-x,-y,z
x,-y,-z
-x,y,-z
-x,-y,-z
x,y,-z
-x,y,z
x,-y,z
1/2+x,1/2+y,z
1/2-x,1/2-y,z
1/2+x,1/2-y,-z
1/2-x,1/2+y,-z
1/2-x,1/2-y,-z
1/2+x,1/2+y,-z
1/2-x,1/2+y,z
1/2+x,1/2-y,z
loop_
_atom_site_type_symbol
_atom_site_label
_atom_site_fract_x
_atom_site_fract_y
_atom_site_fract_z
Si Si1 0.189657 0.500000 0.801589
Si Si2 0.188426 0.442367 0.000000
Si Si3 0.680559 0.679064 0.564591
Si Si4 0.189059 0.500000 0.665567
Si Si5 0.815020 0.576014 0.434470
Si Si6 0.813191 0.193710 0.812297
Si Si7 0.688509 0.594197 0.125124
Si Si8 0.316115 0.803327 0.307891
O O1 0.245809 0.500000 0.732764
O O2 0.246454 0.549685 0.834002
O O3 0.000000 0.500000 0.802749
O O4 0.255121 0.417808 0.059031
O O5 0.230954 0.500000 0.000000
O O6 0.000000 0.439254 0.000000
O O7 0.739944 0.696367 0.500000
O O8 0.500000 0.694668 0.571281
O O9 0.698413 0.621035 0.562444
O O10 0.775300 0.689801 0.623617
O O11 0.228938 0.545254 0.623006
O O12 0.000000 0.500000 0.668959
O O13 0.808595 0.552317 0.500000
O O14 0.000000 0.591163 0.427742
O O15 0.750000 0.250000 0.822970
O O16 0.762921 0.149581 0.856060
O O17 0.765887 0.170802 0.747562
O O18 0.000000 0.198546 0.813787
O O19 0.500000 0.592464 0.128582
O O20 0.500000 0.807746 0.299994
O O21 0.250000 0.750000 0.296722
#
# Coordination Sequence:
#
# PCOD9491515 Si02
#       8
#     8   8  16   8  16  16  16  16
#     4  11  23  37  56  90 130 167 213 257 309 371
#     4  11  23  41  68 101 131 168 215 255 300 358
#     4  10  21  36  52  74 106 142 185 240 299 361
#     4   9  19  33  51  79 110 145 192 245 298 355
#     4   9  17  32  53  75 102 142 191 241 297 360
#     4  10  22  41  65  95 128 166 210 254 306 365
#     4  11  24  42  66  95 131 170 209 254 306 361
#     4  11  22  37  59  83 110 147 191 241 300 362
#
# _framework density 19.742760000000001
#
# number of rings (size 3 to 8) (size 9 to 14) (size 15 to 20)
#    0.000    1.769    0.769    4.385    2.154    4.923 
#    0.000    1.538    0.000    1.846    0.000    0.000 
#    0.000    0.000    0.000    0.000    0.000    0.000 
#
# Total GULP energy -289499.062261 kJ/mol
# GULP energy per Si atom -5567.289659 kJ/mol
# Density = 1.969782 g / cm^3
# Si number density = 19.742760 Si / 1000 Ang^3
#
#
#
# Elastic Constant Matrix: (Units=GPa)
#
#
# Indices 1 2 3 4 5 6 
#
# 1 49.7633 32.5462 29.4525 0.0000 0.0000 0.0000
# 2 32.5462 104.1549 69.2644 0.0000 0.0000 0.0000
# 3 29.4525 69.2644 178.6133 0.0000 0.0000 0.0000
# 4 0.0000 0.0000 0.0000 41.5961 0.0000 0.0000
# 5 0.0000 0.0000 0.0000 0.0000 21.9705 0.0000
# 6 0.0000 0.0000 0.0000 0.0000 0.0000 26.9466
#
#
#
# Elastic Compliance Matrix: (Units=1/GPa)
#
#
# Indices 1 2 3 4 5 6 
#
# 1 0.025554 -0.006984 -0.001505 0.000000 0.000000 0.000000
# 2 -0.006984 0.014846 -0.004606 0.000000 0.000000 0.000000
# 3 -0.001505 -0.004606 0.007633 0.000000 0.000000 0.000000
# 4 0.000000 0.000000 0.000000 0.024041 0.000000 0.000000
# 5 0.000000 0.000000 0.000000 0.000000 0.045516 0.000000
# 6 0.000000 0.000000 0.000000 0.000000 0.000000 0.037110
#
#
# Mechanical properties :
#
#
# Convention : Reuss Voigt Hill
#
# Bulk Modulus (GPa) = 45.78113 66.11752 55.94932
# Shear Modulus (GPa) = 26.57165 31.52052 29.04609
#
# Velocity S-wave (km/s) = 3.67262 4.00003 3.83982
# Velocity P-wave (km/s) = 6.42054 7.40918 6.93251
#
# Compressibility (1/GPa) = 0.02184306
#
# Stress axis : x y z
#
# Youngs Moduli (GPa) = 39.13322 67.35745 131.01146
#
# Poissons Ratio (x) = 0.47042 0.19723
# Poissons Ratio (y) = 0.27330 0.60338
# Poissons Ratio (z) = 0.05891 0.31022
#
# Static dielectric constant tensor:
#      x y z
#    x 1.679860 0.000000 0.000000 
#    y 0.000000 1.742600 0.000000 
#    z 0.000000 0.000000 1.812510 
# 
# From -- ./inp_files/60977.got.cif
#   From: 2010.05.17/outbox.cif.g08.bks.cpg/sg65_31_cif.got.tgz:60977.got - 2010.06.03 17:01:31.
