data_PCOD9491811
_publ_section_title
;
Structure prediction by ZEFSAII (Michael W. Deem and Ramdas Pophale) SiO2 
 PCOD9491811
Probable space group: C M M M
;
_chemical_formula_sum "Si O2"
_cell_formula_units_Z 72
_cell_length_a 20.134295
_cell_length_b 19.065512
_cell_length_c 9.276448
_cell_angle_alpha 90.000000
_cell_angle_beta 90.000000
_cell_angle_gamma 90.000000
_cell_volume 3560.956058
_symmetry_space_group_name_H-M "C M M M"
_symmetry_group_IT_number 65
_symmetry_cell_setting 'orthorhombic'
loop_
_space_group_symop_operation_xyz
x,y,z
-x,-y,z
x,-y,-z
-x,y,-z
-x,-y,-z
x,y,-z
-x,y,z
x,-y,z
1/2+x,1/2+y,z
1/2-x,1/2-y,z
1/2+x,1/2-y,-z
1/2-x,1/2+y,-z
1/2-x,1/2-y,-z
1/2+x,1/2+y,-z
1/2-x,1/2+y,z
1/2+x,1/2-y,z
loop_
_atom_site_type_symbol
_atom_site_label
_atom_site_fract_x
_atom_site_fract_y
_atom_site_fract_z
Si Si1 0.572756 0.808782 0.330187
Si Si2 0.697163 0.188328 0.838098
Si Si3 0.000000 0.417349 0.166519
Si Si4 0.074769 0.914671 0.833620
Si Si5 0.209333 0.084221 0.670043
O O1 0.584041 0.813942 0.500000
O O2 0.500000 0.774467 0.307465
O O3 0.634788 0.779734 0.246690
O O4 0.561335 0.884694 0.255093
O O5 0.750000 0.250000 0.847467
O O6 0.732429 0.125496 0.751676
O O7 0.678356 0.166172 0.000000
O O8 0.000000 0.500000 0.168446
O O9 0.000000 0.393013 0.000000
O O10 0.137401 0.894835 0.735940
O O11 0.000000 0.893092 0.787999
O O12 0.074162 0.000000 0.834509
O O13 0.085061 0.891878 0.000000
O O14 0.211122 0.099845 0.500000
O O15 0.216340 0.000000 0.688791
#
# Coordination Sequence:
#
# PCOD9491811 Si02
#       5
#    16  16   8  16  16
#     4   9  20  37  59  85 114 151 192 241 297 352
#     4  11  24  41  62  87 116 156 201 246 300 360
#     4   9  17  31  55  87 121 157 196 241 294 351
#     4   8  14  27  49  76 108 146 186 231 281 332
#     4  10  21  36  56  84 116 151 192 240 295 355
#
# _framework density 20.219289
#
# number of rings (size 3 to 8) (size 9 to 14) (size 15 to 20)
#    0.667    1.889    0.000    2.667    0.000    5.333 
#    0.000    3.333    0.000    1.333    0.000    0.000 
#    0.000    0.000    0.000    0.000    0.000    0.000 
#
# Total GULP energy -200642.990646 kJ/mol
# GULP energy per Si atom -5573.416407 kJ/mol
# Density = 2.017327 g / cm^3
# Si number density = 20.219289 Si / 1000 Ang^3
#
#
#
# Elastic Constant Matrix: (Units=GPa)
#
#
# Indices 1 2 3 4 5 6 
#
# 1 127.0407 12.8715 88.9727 0.0000 0.0000 0.0000
# 2 12.8715 41.1801 32.4747 0.0000 0.0000 0.0000
# 3 88.9727 32.4747 148.2288 0.0000 0.0000 0.0000
# 4 0.0000 0.0000 0.0000 7.7351 0.0000 0.0000
# 5 0.0000 0.0000 0.0000 0.0000 -408.1214 0.0000
# 6 0.0000 0.0000 0.0000 0.0000 0.0000 16.3886
#
#
#
# Elastic Compliance Matrix: (Units=1/GPa)
#
#
# Indices 1 2 3 4 5 6 
#
# 1 0.013822 0.002687 -0.008885 0.000000 0.000000 0.000000
# 2 0.002687 0.029878 -0.008158 0.000000 0.000000 0.000000
# 3 -0.008885 -0.008158 0.013867 0.000000 0.000000 0.000000
# 4 0.000000 0.000000 0.000000 0.129281 0.000000 0.000000
# 5 0.000000 0.000000 0.000000 0.000000 -0.002450 0.000000
# 6 0.000000 0.000000 0.000000 0.000000 0.000000 0.061018
#
#
# Mechanical properties :
#
#
# Convention : Reuss Voigt Hill
#
# Bulk Modulus (GPa) = 34.65884 65.00970 49.83427
# Shear Modulus (GPa) = 17.62135 -64.65751 -23.51808
#
# Velocity S-wave (km/s) = 2.95534 -5.66106 -3.41420
# Velocity P-wave (km/s) = 5.36881 3.24160 3.02623
#
# Compressibility (1/GPa) = 0.02885267
#
# Stress axis : x y z
#
# Youngs Moduli (GPa) = 72.34890 33.47000 72.11457
#
# Poissons Ratio (x) = -0.08992 0.64074
# Poissons Ratio (y) = -0.19437 0.58833
# Poissons Ratio (z) = 0.64282 0.27306
#
# Static dielectric constant tensor:
#      x y z
#    x -3.656930 0.000000 0.000000 
#    y 0.000000 1.729300 0.000000 
#    z 0.000000 0.000000 1.683420 
# 
# From -- ./inp_files/11228.got.cif
#   From: 2010.05.17/outbox.cif.g08.bks.cpg/sg65_6_cif.got.tgz:11228.got - 2010.06.03 17:01:31.
