data_PCOD9491923
_publ_section_title
;
Structure prediction by ZEFSAII (Michael W. Deem and Ramdas Pophale) SiO2 
 PCOD9491923
Probable space group: C M M M
;
_chemical_formula_sum "Si O2"
_cell_formula_units_Z 72
_cell_length_a 18.432904
_cell_length_b 7.722646
_cell_length_c 25.019979
_cell_angle_alpha 90.000000
_cell_angle_beta 90.000000
_cell_angle_gamma 90.000000
_cell_volume 3561.613835
_symmetry_space_group_name_H-M "C M M M"
_symmetry_group_IT_number 65
_symmetry_cell_setting 'orthorhombic'
loop_
_space_group_symop_operation_xyz
x,y,z
-x,-y,z
x,-y,-z
-x,y,-z
-x,-y,-z
x,y,-z
-x,y,z
x,-y,z
1/2+x,1/2+y,z
1/2-x,1/2-y,z
1/2+x,1/2-y,-z
1/2-x,1/2+y,-z
1/2-x,1/2-y,-z
1/2+x,1/2+y,-z
1/2-x,1/2+y,z
1/2+x,1/2-y,z
loop_
_atom_site_type_symbol
_atom_site_label
_atom_site_fract_x
_atom_site_fract_y
_atom_site_fract_z
Si Si1 0.835251 0.208933 0.788719
Si Si2 0.835978 0.791660 0.672479
Si Si3 0.836185 0.208704 0.442472
Si Si4 0.334404 0.796125 0.000000
Si Si5 0.918522 0.206508 0.892671
O O1 0.750000 0.250000 0.794032
O O2 0.862431 0.272255 0.730375
O O3 0.878343 0.276526 0.839996
O O4 0.841172 0.000000 0.788031
O O5 0.750000 0.750000 0.672575
O O6 0.865072 0.726901 0.615040
O O7 0.844178 0.000000 0.672187
O O8 0.865025 0.272942 0.500000
O O9 0.750000 0.250000 0.442433
O O10 0.843688 0.000000 0.442514
O O11 0.250000 0.750000 0.000000
O O12 0.373010 0.731850 0.053640
O O13 0.341324 0.000000 0.000000
O O14 0.000000 0.276066 0.898499
O O15 0.923803 0.000000 0.885149
#
# Coordination Sequence:
#
# PCOD9491923 Si02
#       5
#    16  16  16   8  16
#     4   9  17  29  46  67  90 119 154 191 231 275
#     4   8  13  21  33  51  76 105 140 180 220 265
#     4   8  12  17  26  42  67 100 135 171 214 263
#     4  12  25  40  59  81 103 127 157 190 227 274
#     4  10  21  37  55  75 101 130 159 194 236 278
#
# _framework density 20.215554999999998
#
# number of rings (size 3 to 8) (size 9 to 14) (size 15 to 20)
#    0.000    2.889    0.000    2.000    0.000    4.444 
#    0.000    0.000    0.000    0.000    0.000    0.000 
#    0.000    0.889    0.000   12.444    0.000    4.222 
#
# Total GULP energy -200435.498596 kJ/mol
# GULP energy per Si atom -5567.652739 kJ/mol
# Density = 2.016954 g / cm^3
# Si number density = 20.215555 Si / 1000 Ang^3
#
#
#
# Elastic Constant Matrix: (Units=GPa)
#
#
# Indices 1 2 3 4 5 6 
#
# 1 70.6314 -0.3290 81.1066 0.0000 0.0000 0.0000
# 2 -0.3290 36.8758 3.7758 0.0000 0.0000 0.0000
# 3 81.1066 3.7758 277.5018 0.0000 0.0000 0.0000
# 4 0.0000 0.0000 0.0000 -0.3338 0.0000 0.0000
# 5 0.0000 0.0000 0.0000 0.0000 -6.2466 0.0000
# 6 0.0000 0.0000 0.0000 0.0000 0.0000 8.7341
#
#
#
# Elastic Compliance Matrix: (Units=1/GPa)
#
#
# Indices 1 2 3 4 5 6 
#
# 1 0.021335 0.000830 -0.006247 0.000000 0.000000 0.000000
# 2 0.000830 0.027188 -0.000613 0.000000 0.000000 0.000000
# 3 -0.006247 -0.000613 0.005438 0.000000 0.000000 0.000000
# 4 0.000000 0.000000 0.000000 -2.995941 0.000000 0.000000
# 5 0.000000 0.000000 0.000000 0.000000 -0.160087 0.000000
# 6 0.000000 0.000000 0.000000 0.000000 0.000000 0.114494
#
#
# Mechanical properties :
#
#
# Convention : Reuss Voigt Hill
#
# Bulk Modulus (GPa) = 23.86510 61.56844 42.71677
# Shear Modulus (GPa) = -1.68831 20.46111 9.38640
#
# Velocity S-wave (km/s) = -0.91486 3.18488 2.15714
# Velocity P-wave (km/s) = 3.27338 6.63677 5.23267
#
# Compressibility (1/GPa) = 0.04190219
#
# Stress axis : x y z
#
# Youngs Moduli (GPa) = 46.87028 36.78069 183.89852
#
# Poissons Ratio (x) = -0.03053 1.14883
# Poissons Ratio (y) = -0.03890 0.11264
# Poissons Ratio (z) = 0.29280 0.02253
#
# Static dielectric constant tensor:
#      x y z
#    x 1.660340 0.000000 0.000000 
#    y 0.000000 1.722400 0.000000 
#    z 0.000000 0.000000 1.869050 
# 
# From -- ./inp_files/67053.got.cif
#   From: 2010.05.17/outbox.cif.g08.bks.cpg/sg65_34_cif.got.tgz:67053.got - 2010.06.03 17:01:31.
