data_PCOD9491587
_publ_section_title
;
Structure prediction by ZEFSAII (Michael W. Deem and Ramdas Pophale) SiO2 
 PCOD9491587
Probable space group: C M M M
;
_chemical_formula_sum "Si O2"
_cell_formula_units_Z 88
_cell_length_a 8.292815
_cell_length_b 18.798667
_cell_length_c 29.380351
_cell_angle_alpha 90.000000
_cell_angle_beta 90.000000
_cell_angle_gamma 90.000000
_cell_volume 4580.216551
_symmetry_space_group_name_H-M "C M M M"
_symmetry_group_IT_number 65
_symmetry_cell_setting 'orthorhombic'
loop_
_space_group_symop_operation_xyz
x,y,z
-x,-y,z
x,-y,-z
-x,y,-z
-x,-y,-z
x,y,-z
-x,y,z
x,-y,z
1/2+x,1/2+y,z
1/2-x,1/2-y,z
1/2+x,1/2-y,-z
1/2-x,1/2+y,-z
1/2-x,1/2-y,-z
1/2+x,1/2+y,-z
1/2-x,1/2+y,z
1/2+x,1/2-y,z
loop_
_atom_site_type_symbol
_atom_site_label
_atom_site_fract_x
_atom_site_fract_y
_atom_site_fract_z
Si Si1 0.804734 0.331912 0.400635
Si Si2 0.193215 0.168864 0.775447
Si Si3 0.806914 0.669989 0.051690
Si Si4 0.195113 0.418343 0.687627
Si Si5 0.305546 0.581067 0.863200
Si Si6 0.305508 0.168002 0.500000
O O1 0.750000 0.250000 0.395488
O O2 0.748482 0.379367 0.358486
O O3 0.751250 0.359970 0.450616
O O4 0.000000 0.331991 0.400263
O O5 0.250000 0.250000 0.774183
O O6 0.250857 0.126084 0.731307
O O7 0.252649 0.129093 0.821065
O O8 0.000000 0.168338 0.775970
O O9 0.750000 0.750000 0.062645
O O10 0.743728 0.616073 0.089288
O O11 0.000000 0.668918 0.052132
O O12 0.751582 0.653739 0.000000
O O13 0.250920 0.500000 0.690102
O O14 0.000000 0.418899 0.686736
O O15 0.500000 0.579881 0.861169
O O16 0.247166 0.500000 0.859168
O O17 0.500000 0.164937 0.500000
O O18 0.250000 0.250000 0.500000
#
# Coordination Sequence:
#
# PCOD9491587 Si02
#       6
#    16  16  16  16  16   8
#     4   9  17  30  49  73 100 132 172 216 260 309
#     4  11  23  39  59  82 107 137 177 221 265 316
#     4  10  21  37  58  84 113 146 185 226 266 311
#     4  10  21  36  53  76 107 140 175 217 265 316
#     4  10  22  39  58  82 112 144 178 218 265 317
#     4   8  14  26  45  69  97 129 167 212 259 304
#
# _framework density 19.213065
#
# number of rings (size 3 to 8) (size 9 to 14) (size 15 to 20)
#    0.000    2.182    0.000    2.727    0.000    8.000 
#    0.000    2.273    0.000    2.727    0.000    0.000 
#    0.000    8.727    0.000    0.000    0.000    0.000 
#
# Total GULP energy -245595.115641 kJ/mol
# GULP energy per Si atom -5581.707174 kJ/mol
# Density = 1.916933 g / cm^3
# Si number density = 19.213065 Si / 1000 Ang^3
#
#
#
# Elastic Constant Matrix: (Units=GPa)
#
#
# Indices 1 2 3 4 5 6 
#
# 1 12.5146 17.6841 17.7834 0.0000 0.0000 0.0000
# 2 17.6841 163.9870 117.9752 0.0000 0.0000 0.0000
# 3 17.7834 117.9752 174.9458 0.0000 0.0000 0.0000
# 4 0.0000 0.0000 0.0000 -24.6152 0.0000 0.0000
# 5 0.0000 0.0000 0.0000 0.0000 14.2007 0.0000
# 6 0.0000 0.0000 0.0000 0.0000 0.0000 18.5174
#
#
#
# Elastic Compliance Matrix: (Units=1/GPa)
#
#
# Indices 1 2 3 4 5 6 
#
# 1 0.096869 -0.006530 -0.005443 0.000000 0.000000 0.000000
# 2 -0.006530 0.012284 -0.007620 0.000000 0.000000 0.000000
# 3 -0.005443 -0.007620 0.011408 0.000000 0.000000 0.000000
# 4 0.000000 0.000000 0.000000 -0.040625 0.000000 0.000000
# 5 0.000000 0.000000 0.000000 0.000000 0.070419 0.000000
# 6 0.000000 0.000000 0.000000 0.000000 0.000000 0.054003
#
#
# Mechanical properties :
#
#
# Convention : Reuss Voigt Hill
#
# Bulk Modulus (GPa) = 12.28885 73.14809 42.71847
# Shear Modulus (GPa) = 18.47261 14.82089 16.64675
#
# Velocity S-wave (km/s) = 3.10411 2.78042 2.94671
# Velocity P-wave (km/s) = 4.38831 6.96149 5.81892
#
# Compressibility (1/GPa) = 0.08137456
#
# Stress axis : x y z
#
# Youngs Moduli (GPa) = 10.32317 81.40436 87.65758
#
# Poissons Ratio (x) = 0.53161 0.47713
# Poissons Ratio (y) = 0.06741 0.66797
# Poissons Ratio (z) = 0.05619 0.62031
#
# Static dielectric constant tensor:
#      x y z
#    x 1.665190 0.000000 0.000000 
#    y 0.000000 1.630170 0.000000 
#    z 0.000000 0.000000 1.683480 
# 
# From -- ./inp_files/67513.got.cif
#   From: 2010.05.17/outbox.cif.g08.bks.cpg/sg65_34_cif.got.tgz:67513.got - 2010.06.03 17:01:31.
