data_PCOD9491800
_publ_section_title
;
Structure prediction by ZEFSAII (Michael W. Deem and Ramdas Pophale) SiO2 
 PCOD9491800
Probable space group: C M M M
;
_chemical_formula_sum "Si O2"
_cell_formula_units_Z 96
_cell_length_a 8.931850
_cell_length_b 18.903603
_cell_length_c 31.185573
_cell_angle_alpha 90.000000
_cell_angle_beta 90.000000
_cell_angle_gamma 90.000000
_cell_volume 5265.501455
_symmetry_space_group_name_H-M "C M M M"
_symmetry_group_IT_number 65
_symmetry_cell_setting 'orthorhombic'
loop_
_space_group_symop_operation_xyz
x,y,z
-x,-y,z
x,-y,-z
-x,y,-z
-x,-y,-z
x,y,-z
-x,y,z
x,-y,z
1/2+x,1/2+y,z
1/2-x,1/2-y,z
1/2+x,1/2-y,-z
1/2-x,1/2+y,-z
1/2-x,1/2-y,-z
1/2+x,1/2+y,-z
1/2-x,1/2+y,z
1/2+x,1/2-y,z
loop_
_atom_site_type_symbol
_atom_site_label
_atom_site_fract_x
_atom_site_fract_y
_atom_site_fract_z
Si Si1 0.679497 0.082396 0.285468
Si Si2 0.679064 0.416707 0.123612
Si Si3 0.677923 0.826187 0.050716
Si Si4 0.680117 0.827927 0.798817
Si Si5 0.324049 0.415478 0.624256
Si Si6 0.678802 0.172469 0.451529
O O1 0.500000 0.084886 0.291152
O O2 0.718691 0.131416 0.245321
O O3 0.756876 0.105308 0.329610
O O4 0.720308 0.000000 0.276921
O O5 0.500000 0.407057 0.124765
O O6 0.711853 0.500000 0.127529
O O7 0.744668 0.385066 0.079720
O O8 0.754774 0.373328 0.162032
O O9 0.500000 0.823997 0.058815
O O10 0.750000 0.750000 0.061347
O O11 0.701452 0.838620 0.000000
O O12 0.500000 0.823904 0.802226
O O13 0.750000 0.750000 0.799319
O O14 0.500000 0.399432 0.623014
O O15 0.304094 0.500000 0.620556
O O16 0.242499 0.377383 0.585228
O O17 0.715240 0.147290 0.500000
O O18 0.500000 0.177537 0.448019
O O19 0.750000 0.250000 0.446715
#
# Coordination Sequence:
#
# PCOD9491800 Si02
#       6
#    16  16  16  16  16  16
#     4   9  19  37  59  81 108 145 187 230 277 328
#     4  11  24  40  59  84 115 151 189 232 282 334
#     4  10  21  38  61  87 116 151 190 233 280 331
#     4  11  23  39  60  85 114 148 187 231 278 330
#     4  10  21  36  56  83 114 148 184 225 274 328
#     4  10  21  37  57  80 108 144 185 230 279 330
#
# _framework density 18.231881000000001
#
# number of rings (size 3 to 8) (size 9 to 14) (size 15 to 20)
#    0.000    1.833    0.000    3.500    0.000    7.667 
#    0.000    6.667    0.000    0.000    0.000    0.000 
#    0.000    0.000    0.000    0.000    0.000    0.000 
#
# Total GULP energy -268219.287820 kJ/mol
# GULP energy per Si atom -5587.901830 kJ/mol
# Density = 1.819038 g / cm^3
# Si number density = 18.231881 Si / 1000 Ang^3
#
#
#
# Elastic Constant Matrix: (Units=GPa)
#
#
# Indices 1 2 3 4 5 6 
#
# 1 84.2291 72.3319 77.5820 0.0000 0.0000 0.0000
# 2 72.3319 112.7319 89.5718 0.0000 0.0000 0.0000
# 3 77.5820 89.5718 127.0828 0.0000 0.0000 0.0000
# 4 0.0000 0.0000 0.0000 41.7729 0.0000 0.0000
# 5 0.0000 0.0000 0.0000 0.0000 26.4864 0.0000
# 6 0.0000 0.0000 0.0000 0.0000 0.0000 29.9164
#
#
#
# Elastic Compliance Matrix: (Units=1/GPa)
#
#
# Indices 1 2 3 4 5 6 
#
# 1 0.032695 -0.011634 -0.011759 0.000000 0.000000 0.000000
# 2 -0.011634 0.024302 -0.010026 0.000000 0.000000 0.000000
# 3 -0.011759 -0.010026 0.022114 0.000000 0.000000 0.000000
# 4 0.000000 0.000000 0.000000 0.023939 0.000000 0.000000
# 5 0.000000 0.000000 0.000000 0.000000 0.037755 0.000000
# 6 0.000000 0.000000 0.000000 0.000000 0.000000 0.033426
#
#
# Mechanical properties :
#
#
# Convention : Reuss Voigt Hill
#
# Bulk Modulus (GPa) = 81.49003 89.22391 85.35697
# Shear Modulus (GPa) = 20.39470 25.27235 22.83352
#
# Velocity S-wave (km/s) = 3.34822 3.72716 3.54276
# Velocity P-wave (km/s) = 7.72922 8.21991 7.97834
#
# Compressibility (1/GPa) = 0.01227144
#
# Stress axis : x y z
#
# Youngs Moduli (GPa) = 30.58586 41.14929 45.21933
#
# Poissons Ratio (x) = 0.47875 0.53175
# Poissons Ratio (y) = 0.35585 0.45337
# Poissons Ratio (z) = 0.35967 0.41256
#
# Static dielectric constant tensor:
#      x y z
#    x 1.608300 0.000000 0.000000 
#    y 0.000000 1.596530 0.000000 
#    z 0.000000 0.000000 1.608680 
# 
# From -- ./inp_files/73214.got.cif
#   From: 2010.05.17/outbox.cif.g08.bks.cpg/sg65_37_cif.got.tgz:73214.got - 2010.06.03 17:01:31.
