data_PCOD9491745
_publ_section_title
;
Structure prediction by ZEFSAII (Michael W. Deem and Ramdas Pophale) SiO2 
 PCOD9491745
Probable space group: C M M M
;
_chemical_formula_sum "Si O2"
_cell_formula_units_Z 88
_cell_length_a 19.213581
_cell_length_b 27.904965
_cell_length_c 8.661843
_cell_angle_alpha 90.000000
_cell_angle_beta 90.000000
_cell_angle_gamma 90.000000
_cell_volume 4644.084417
_symmetry_space_group_name_H-M "C M M M"
_symmetry_group_IT_number 65
_symmetry_cell_setting 'orthorhombic'
loop_
_space_group_symop_operation_xyz
x,y,z
-x,-y,z
x,-y,-z
-x,y,-z
-x,-y,-z
x,y,-z
-x,y,z
x,-y,z
1/2+x,1/2+y,z
1/2-x,1/2-y,z
1/2+x,1/2-y,-z
1/2-x,1/2+y,-z
1/2-x,1/2-y,-z
1/2+x,1/2+y,-z
1/2-x,1/2+y,z
1/2+x,1/2-y,z
loop_
_atom_site_type_symbol
_atom_site_label
_atom_site_fract_x
_atom_site_fract_y
_atom_site_fract_z
Si Si1 0.324239 0.915202 0.817469
Si Si2 0.334802 0.446090 0.182545
Si Si3 0.646454 0.657713 0.685074
Si Si4 0.697477 0.184867 0.319216
Si Si5 0.422727 0.000000 0.188062
Si Si6 0.422277 0.747446 0.184570
O O1 0.248700 0.939781 0.802378
O O2 0.329308 0.868356 0.714894
O O3 0.381254 0.953023 0.768114
O O4 0.332346 0.902772 0.000000
O O5 0.354152 0.500000 0.238447
O O6 0.362456 0.397356 0.260959
O O7 0.351269 0.444094 0.000000
O O8 0.646387 0.658628 0.500000
O O9 0.722132 0.679592 0.737562
O O10 0.590156 0.693941 0.752434
O O11 0.700316 0.196415 0.500000
O O12 0.642511 0.220713 0.242948
O O13 0.500000 0.000000 0.247623
O O14 0.423599 0.000000 0.000000
O O15 0.500000 0.764446 0.232689
O O16 0.420267 0.747111 0.000000
#
# Coordination Sequence:
#
# PCOD9491745 Si02
#       6
#    16  16  16  16   8  16
#     4   9  16  29  48  72 102 137 179 224 264 307
#     4   9  16  29  52  79 107 140 179 222 266 312
#     4  10  21  36  56  84 114 144 179 221 272 327
#     4  10  21  36  55  81 110 142 179 222 270 323
#     4   9  16  26  43  67  97 135 178 223 264 303
#     4  11  24  40  58  80 106 140 183 227 273 327
#
# _framework density 18.948837000000001
#
# number of rings (size 3 to 8) (size 9 to 14) (size 15 to 20)
#    0.000    2.273    0.909    2.182    0.000    6.909 
#    0.000    2.273    0.000    1.091    0.000    3.818 
#    0.000    0.000    0.000    0.000    0.000    0.000 
#
# Total GULP energy -245284.016098 kJ/mol
# GULP energy per Si atom -5574.636729 kJ/mol
# Density = 1.890571 g / cm^3
# Si number density = 18.948837 Si / 1000 Ang^3
#
#
#
# Elastic Constant Matrix: (Units=GPa)
#
#
# Indices 1 2 3 4 5 6 
#
# 1 28.2836 27.8140 10.8226 0.0000 0.0000 0.0000
# 2 27.8140 102.7154 23.2139 0.0000 0.0000 0.0000
# 3 10.8226 23.2139 29.8889 0.0000 0.0000 0.0000
# 4 0.0000 0.0000 0.0000 75.6353 0.0000 0.0000
# 5 0.0000 0.0000 0.0000 0.0000 14.1524 0.0000
# 6 0.0000 0.0000 0.0000 0.0000 0.0000 13.1340
#
#
#
# Elastic Compliance Matrix: (Units=1/GPa)
#
#
# Indices 1 2 3 4 5 6 
#
# 1 0.050209 -0.011507 -0.009243 0.000000 0.000000 0.000000
# 2 -0.011507 0.014446 -0.007053 0.000000 0.000000 0.000000
# 3 -0.009243 -0.007053 0.042282 0.000000 0.000000 0.000000
# 4 0.000000 0.000000 0.000000 0.013221 0.000000 0.000000
# 5 0.000000 0.000000 0.000000 0.000000 0.070660 0.000000
# 6 0.000000 0.000000 0.000000 0.000000 0.000000 0.076138
#
#
# Mechanical properties :
#
#
# Convention : Reuss Voigt Hill
#
# Bulk Modulus (GPa) = 19.48166 31.62100 25.55133
# Shear Modulus (GPa) = 14.72009 27.18683 20.95346
#
# Velocity S-wave (km/s) = 2.79020 3.79192 3.32895
# Velocity P-wave (km/s) = 4.54794 5.99127 5.31879
#
# Compressibility (1/GPa) = 0.05133033
#
# Stress axis : x y z
#
# Youngs Moduli (GPa) = 19.91679 69.22551 23.65072
#
# Poissons Ratio (x) = 0.79657 0.21861
# Poissons Ratio (y) = 0.22918 0.16681
# Poissons Ratio (z) = 0.18410 0.48824
#
# Static dielectric constant tensor:
#      x y z
#    x 1.669780 0.000000 0.000000 
#    y 0.000000 1.659890 0.000000 
#    z 0.000000 0.000000 1.644780 
# 
# From -- ./inp_files/10161.got.cif
#   From: 2010.05.17/outbox.cif.g08.bks.cpg/sg65_6_cif.got.tgz:10161.got - 2010.06.03 17:01:31.
