data_PCOD9491762
_publ_section_title
;
Structure prediction by ZEFSAII (Michael W. Deem and Ramdas Pophale) SiO2 
 PCOD9491762
Probable space group: C M M M
;
_chemical_formula_sum "Si O2"
_cell_formula_units_Z 112
_cell_length_a 16.612176
_cell_length_b 14.999268
_cell_length_c 22.371394
_cell_angle_alpha 90.000000
_cell_angle_beta 90.000000
_cell_angle_gamma 90.000000
_cell_volume 5574.290979
_symmetry_space_group_name_H-M "C M M M"
_symmetry_group_IT_number 65
_symmetry_cell_setting 'orthorhombic'
loop_
_space_group_symop_operation_xyz
x,y,z
-x,-y,z
x,-y,-z
-x,y,-z
-x,-y,-z
x,y,-z
-x,y,z
x,-y,z
1/2+x,1/2+y,z
1/2-x,1/2-y,z
1/2+x,1/2-y,-z
1/2-x,1/2+y,-z
1/2-x,1/2-y,-z
1/2+x,1/2+y,-z
1/2-x,1/2+y,z
1/2+x,1/2-y,z
loop_
_atom_site_type_symbol
_atom_site_label
_atom_site_fract_x
_atom_site_fract_y
_atom_site_fract_z
Si Si1 0.414128 0.871703 0.568989
Si Si2 0.096542 0.895219 0.839489
Si Si3 0.903388 0.604219 0.837078
Si Si4 0.086873 0.190751 0.624656
Si Si5 0.763633 0.102123 0.567707
Si Si6 0.653230 0.750949 0.069802
Si Si7 0.844190 0.249519 0.254431
O O1 0.412396 0.900606 0.500000
O O2 0.500000 0.902443 0.595329
O O3 0.416894 0.765629 0.573825
O O4 0.326630 0.894343 0.594067
O O5 0.119305 0.838035 0.898302
O O6 0.136943 0.837168 0.786700
O O7 0.000000 0.891657 0.831570
O O8 0.120128 0.000000 0.841269
O O9 0.878399 0.500000 0.839046
O O10 0.879297 0.662003 0.895430
O O11 0.865592 0.662096 0.783220
O O12 0.000000 0.606751 0.831222
O O13 0.168140 0.139768 0.610118
O O14 0.100959 0.240537 0.687211
O O15 0.000000 0.142969 0.625906
O O16 0.762988 0.142457 0.500000
O O17 0.783903 0.000000 0.560421
O O18 0.750000 0.750000 0.076282
O O19 0.632578 0.753246 0.000000
O O20 0.750000 0.250000 0.269769
#
# Coordination Sequence:
#
# PCOD9491762 Si02
#       7
#    16  16  16  16  16  16  16
#     4   9  18  34  57  82 108 143 185 228 279 338
#     4  10  21  37  57  81 112 151 192 234 281 335
#     4  10  21  38  60  84 112 146 182 226 283 342
#     4  11  22  37  57  79 108 146 188 235 282 332
#     4  10  21  36  55  82 115 147 182 229 284 343
#     4  10  21  36  56  84 116 149 187 232 278 328
#     4  11  22  37  59  83 110 146 189 238 287 340
#
# _framework density 20.092241999999999
#
# number of rings (size 3 to 8) (size 9 to 14) (size 15 to 20)
#    0.000    1.857    0.000    6.000    0.000    7.143 
#    0.000    7.143    0.000    0.857    0.000    0.000 
#    0.000    0.000    0.000    0.000    0.000    0.000 
#
# Total GULP energy -312219.759857 kJ/mol
# GULP energy per Si atom -5575.352855 kJ/mol
# Density = 2.004651 g / cm^3
# Si number density = 20.092242 Si / 1000 Ang^3
#
#
#
# Elastic Constant Matrix: (Units=GPa)
#
#
# Indices 1 2 3 4 5 6 
#
# 1 138.6701 41.3553 33.6559 0.0000 0.0000 0.0000
# 2 41.3553 133.2035 27.4082 0.0000 0.0000 0.0000
# 3 33.6559 27.4082 66.9543 0.0000 0.0000 0.0000
# 4 0.0000 0.0000 0.0000 6.2170 0.0000 0.0000
# 5 0.0000 0.0000 0.0000 0.0000 -1.8305 0.0000
# 6 0.0000 0.0000 0.0000 0.0000 0.0000 37.2905
#
#
#
# Elastic Compliance Matrix: (Units=1/GPa)
#
#
# Indices 1 2 3 4 5 6 
#
# 1 0.008657 -0.001957 -0.003550 0.000000 0.000000 0.000000
# 2 -0.001957 0.008640 -0.002553 0.000000 0.000000 0.000000
# 3 -0.003550 -0.002553 0.017765 0.000000 0.000000 0.000000
# 4 0.000000 0.000000 0.000000 0.160850 0.000000 0.000000
# 5 0.000000 0.000000 0.000000 0.000000 -0.546302 0.000000
# 6 0.000000 0.000000 0.000000 0.000000 0.000000 0.026816
#
#
# Mechanical properties :
#
#
# Convention : Reuss Voigt Hill
#
# Bulk Modulus (GPa) = 52.79510 60.40739 56.60124
# Shear Modulus (GPa) = -16.60367 24.09597 3.74615
#
# Velocity S-wave (km/s) = -2.87779 3.46680 1.36694
# Velocity P-wave (km/s) = 3.91040 6.79377 5.54285
#
# Compressibility (1/GPa) = 0.01894115
#
# Stress axis : x y z
#
# Youngs Moduli (GPa) = 115.51747 115.73711 56.28937
#
# Poissons Ratio (x) = 0.22651 0.19984
# Poissons Ratio (y) = 0.22608 0.14372
# Poissons Ratio (z) = 0.41012 0.29550
#
# Static dielectric constant tensor:
#      x y z
#    x 1.753670 0.000000 0.000000 
#    y 0.000000 1.700280 0.000000 
#    z 0.000000 0.000000 1.729890 
# 
# From -- ./inp_files/69951.got.cif
#   From: 2010.05.17/outbox.cif.g08.bks.cpg/sg65_35_cif.got.tgz:69951.got - 2010.06.03 17:01:31.
