data_PCOD9491106
_publ_section_title
;
Structure prediction by ZEFSAII (Michael W. Deem and Ramdas Pophale) SiO2 
 PCOD9491106
Probable space group: C M M M
;
_chemical_formula_sum "Si O2"
_cell_formula_units_Z 96
_cell_length_a 16.616157
_cell_length_b 19.563206
_cell_length_c 14.305942
_cell_angle_alpha 90.000000
_cell_angle_beta 90.000000
_cell_angle_gamma 90.000000
_cell_volume 4650.365361
_symmetry_space_group_name_H-M "C M M M"
_symmetry_group_IT_number 65
_symmetry_cell_setting 'orthorhombic'
loop_
_space_group_symop_operation_xyz
x,y,z
-x,-y,z
x,-y,-z
-x,y,-z
-x,-y,-z
x,y,-z
-x,y,z
x,-y,z
1/2+x,1/2+y,z
1/2-x,1/2-y,z
1/2+x,1/2-y,-z
1/2-x,1/2+y,-z
1/2-x,1/2-y,-z
1/2+x,1/2+y,-z
1/2-x,1/2+y,z
1/2+x,1/2-y,z
loop_
_atom_site_type_symbol
_atom_site_label
_atom_site_fract_x
_atom_site_fract_y
_atom_site_fract_z
Si Si1 0.334082 0.079138 0.112403
Si Si2 0.500000 0.923892 0.188181
Si Si3 0.307026 0.420050 0.387088
Si Si4 0.665885 0.814947 0.392992
Si Si5 0.194631 0.182585 0.108500
Si Si6 0.594591 0.689050 0.713341
Si Si7 0.500000 0.104737 0.601877
O O1 0.416147 0.109167 0.156438
O O2 0.254493 0.120937 0.135677
O O3 0.326427 0.000000 0.141829
O O4 0.343145 0.081559 0.000000
O O5 0.500000 0.931626 0.298931
O O6 0.500000 0.000000 0.143220
O O7 0.315676 0.417457 0.500000
O O8 0.297654 0.500000 0.361365
O O9 0.229540 0.372839 0.362891
O O10 0.380956 0.381579 0.337684
O O11 0.684615 0.795689 0.500000
O O12 0.651779 0.747589 0.331997
O O13 0.579536 0.850361 0.395286
O O14 0.250000 0.250000 0.115786
O O15 0.120676 0.185351 0.178916
O O16 0.170900 0.175182 0.000000
O O17 0.500000 0.704120 0.701288
O O18 0.500000 0.070027 0.500000
#
# Coordination Sequence:
#
# PCOD9491106 Si02
#       7
#    16   8  16  16  16  16   8
#     4   9  19  38  63  90 121 157 200 251 306 368
#     4  10  21  33  58  95 125 161 202 247 302 362
#     4  10  23  42  65  95 129 165 208 262 318 367
#     4  10  21  41  66  92 123 163 211 257 306 370
#     4  10  23  42  62  89 124 162 203 253 315 373
#     4  12  25  40  66  94 123 166 212 261 311 371
#     4  10  22  36  55  88 129 167 205 244 296 368
#
# _framework density 20.643540000000002
#
# number of rings (size 3 to 8) (size 9 to 14) (size 15 to 20)
#    0.000    1.833    0.833    2.250    4.667    5.500 
#    0.000    2.500    0.000    0.000    0.000    3.500 
#    0.000    0.000    0.000    0.000    0.000    0.000 
#
# Total GULP energy -268080.088872 kJ/mol
# GULP energy per Si atom -5585.001851 kJ/mol
# Density = 2.059655 g / cm^3
# Si number density = 20.643540 Si / 1000 Ang^3
#
#
#
# Elastic Constant Matrix: (Units=GPa)
#
#
# Indices 1 2 3 4 5 6 
#
# 1 84.0915 47.3974 29.5317 0.0000 0.0000 0.0000
# 2 47.3974 112.3265 42.6198 0.0000 0.0000 0.0000
# 3 29.5317 42.6198 95.2890 0.0000 0.0000 0.0000
# 4 0.0000 0.0000 0.0000 9.6597 0.0000 0.0000
# 5 0.0000 0.0000 0.0000 0.0000 31.3889 0.0000
# 6 0.0000 0.0000 0.0000 0.0000 0.0000 75.8744
#
#
#
# Elastic Compliance Matrix: (Units=1/GPa)
#
#
# Indices 1 2 3 4 5 6 
#
# 1 0.016024 -0.005874 -0.002339 0.000000 0.000000 0.000000
# 2 -0.005874 0.012876 -0.003938 0.000000 0.000000 0.000000
# 3 -0.002339 -0.003938 0.012981 0.000000 0.000000 0.000000
# 4 0.000000 0.000000 0.000000 0.103523 0.000000 0.000000
# 5 0.000000 0.000000 0.000000 0.000000 0.031858 0.000000
# 6 0.000000 0.000000 0.000000 0.000000 0.000000 0.013180
#
#
# Mechanical properties :
#
#
# Convention : Reuss Voigt Hill
#
# Bulk Modulus (GPa) = 56.88996 58.97831 57.93413
# Shear Modulus (GPa) = 22.66512 34.86181 28.76346
#
# Velocity S-wave (km/s) = 3.31709 4.11390 3.73680
# Velocity P-wave (km/s) = 6.50299 7.15524 6.83690
#
# Compressibility (1/GPa) = 0.01757779
#
# Stress axis : x y z
#
# Youngs Moduli (GPa) = 62.40615 77.66627 77.03717
#
# Poissons Ratio (x) = 0.45622 0.18018
# Poissons Ratio (y) = 0.36658 0.30340
# Poissons Ratio (z) = 0.14596 0.30588
#
# Static dielectric constant tensor:
#      x y z
#    x 1.713720 0.000000 0.000000 
#    y 0.000000 1.756030 0.000000 
#    z 0.000000 0.000000 1.752020 
# 
# From -- ./inp_files/40466.got.cif
#   From: 2010.05.17/outbox.cif.g08.bks.cpg/sg65_21_cif.got.tgz:40466.got - 2010.06.03 17:01:31.
