data_PCOD9491125
_publ_section_title
;
Structure prediction by ZEFSAII (Michael W. Deem and Ramdas Pophale) SiO2 
 PCOD9491125
Probable space group: C M M M
;
_chemical_formula_sum "Si O2"
_cell_formula_units_Z 104
_cell_length_a 21.087025
_cell_length_b 32.697797
_cell_length_c 8.752045
_cell_angle_alpha 90.000000
_cell_angle_beta 90.000000
_cell_angle_gamma 90.000000
_cell_volume 6034.528575
_symmetry_space_group_name_H-M "C M M M"
_symmetry_group_IT_number 65
_symmetry_cell_setting 'orthorhombic'
loop_
_space_group_symop_operation_xyz
x,y,z
-x,-y,z
x,-y,-z
-x,y,-z
-x,-y,-z
x,y,-z
-x,y,z
x,-y,z
1/2+x,1/2+y,z
1/2-x,1/2-y,z
1/2+x,1/2-y,-z
1/2-x,1/2+y,-z
1/2-x,1/2-y,-z
1/2+x,1/2+y,-z
1/2-x,1/2+y,z
1/2+x,1/2-y,z
loop_
_atom_site_type_symbol
_atom_site_label
_atom_site_fract_x
_atom_site_fract_y
_atom_site_fract_z
Si Si1 0.500000 0.454039 0.814050
Si Si2 0.868887 0.914041 0.817944
Si Si3 0.928332 0.771519 0.816130
Si Si4 0.071556 0.675617 0.816057
Si Si5 0.177066 0.830590 0.319409
Si Si6 0.263165 0.045799 0.181991
Si Si7 0.192505 0.368392 0.317060
O O1 0.500000 0.500000 0.756384
O O2 0.436044 0.431605 0.770268
O O3 0.500000 0.455438 0.000000
O O4 0.853712 0.874061 0.721902
O O5 0.812137 0.946380 0.797330
O O6 0.870242 0.903768 0.000000
O O7 0.921579 0.723638 0.776049
O O8 0.869034 0.796944 0.753530
O O9 0.000000 0.784871 0.765965
O O10 0.927818 0.774737 0.000000
O O11 0.126358 0.649226 0.740848
O O12 0.000000 0.663005 0.772613
O O13 0.076453 0.672679 0.000000
O O14 0.178917 0.823404 0.500000
O O15 0.249804 0.838125 0.264601
O O16 0.295298 0.085569 0.256778
O O17 0.280191 0.000000 0.236894
O O18 0.275570 0.047297 0.000000
O O19 0.194568 0.369371 0.500000
#
# Coordination Sequence:
#
# PCOD9491125 Si02
#       7
#     8  16  16  16  16  16  16
#     4   9  16  26  43  67  91 119 163 217 265 303
#     4   9  17  29  46  68  95 129 169 215 260 301
#     4   9  19  35  54  75 100 133 175 217 257 302
#     4   9  19  37  59  81 103 129 164 208 256 307
#     4  10  21  34  47  70 104 139 174 211 252 298
#     4   9  17  31  52  75  99 131 172 214 254 299
#     4  10  21  35  52  77 108 139 170 205 250 307
#
# _framework density 17.234154
#
# number of rings (size 3 to 8) (size 9 to 14) (size 15 to 20)
#    0.000    2.692    0.000    2.308    1.077    5.846 
#    0.000    4.615    0.000    2.308    0.000    3.231 
#    0.000    0.000    0.000    0.000    0.000    0.000 
#
# Total GULP energy -289755.714299 kJ/mol
# GULP energy per Si atom -5572.225275 kJ/mol
# Density = 1.719493 g / cm^3
# Si number density = 17.234154 Si / 1000 Ang^3
#
#
#
# Elastic Constant Matrix: (Units=GPa)
#
#
# Indices 1 2 3 4 5 6 
#
# 1 151.1136 79.9399 35.6525 0.0000 0.0000 0.0000
# 2 79.9399 81.7838 29.3444 0.0000 0.0000 0.0000
# 3 35.6525 29.3444 20.2754 0.0000 0.0000 0.0000
# 4 0.0000 0.0000 0.0000 -59.9591 0.0000 0.0000
# 5 0.0000 0.0000 0.0000 0.0000 19.7900 0.0000
# 6 0.0000 0.0000 0.0000 0.0000 0.0000 12.1295
#
#
#
# Elastic Compliance Matrix: (Units=1/GPa)
#
#
# Indices 1 2 3 4 5 6 
#
# 1 0.014708 -0.010602 -0.010517 0.000000 0.000000 0.000000
# 2 -0.010602 0.033079 -0.029232 0.000000 0.000000 0.000000
# 3 -0.010517 -0.029232 0.110122 0.000000 0.000000 0.000000
# 4 0.000000 0.000000 0.000000 -0.016678 0.000000 0.000000
# 5 0.000000 0.000000 0.000000 0.000000 0.050531 0.000000
# 6 0.000000 0.000000 0.000000 0.000000 0.000000 0.082444
#
#
# Mechanical properties :
#
#
# Convention : Reuss Voigt Hill
#
# Bulk Modulus (GPa) = 17.48090 60.33848 38.90969
# Shear Modulus (GPa) = 12.69112 1.60781 7.14947
#
# Velocity S-wave (km/s) = 2.71660 0.96693 2.03898
# Velocity P-wave (km/s) = 4.47270 6.02774 5.30748
#
# Compressibility (1/GPa) = 0.05720529
#
# Stress axis : x y z
#
# Youngs Moduli (GPa) = 67.99201 30.23052 9.08087
#
# Poissons Ratio (x) = 0.32051 0.09551
# Poissons Ratio (y) = 0.72087 0.26545
# Poissons Ratio (z) = 0.71510 0.88369
#
# Static dielectric constant tensor:
#      x y z
#    x 1.528610 0.000000 0.000000 
#    y 0.000000 1.569510 0.000000 
#    z 0.000000 0.000000 1.585300 
# 
# From -- ./inp_files/12738.got.cif
#   From: 2010.05.17/outbox.cif.g08.bks.cpg/sg65_7_cif.got.tgz:12738.got - 2010.06.03 17:01:31.
