data_PCOD9491678
_publ_section_title
;
Structure prediction by ZEFSAII (Michael W. Deem and Ramdas Pophale) SiO2 
 PCOD9491678
Probable space group: C M M M
;
_chemical_formula_sum "Si O2"
_cell_formula_units_Z 96
_cell_length_a 8.335666
_cell_length_b 18.791552
_cell_length_c 31.737560
_cell_angle_alpha 90.000000
_cell_angle_beta 90.000000
_cell_angle_gamma 90.000000
_cell_volume 4971.374607
_symmetry_space_group_name_H-M "C M M M"
_symmetry_group_IT_number 65
_symmetry_cell_setting 'orthorhombic'
loop_
_space_group_symop_operation_xyz
x,y,z
-x,-y,z
x,-y,-z
-x,y,-z
-x,-y,-z
x,y,-z
-x,y,z
x,-y,z
1/2+x,1/2+y,z
1/2-x,1/2-y,z
1/2+x,1/2-y,-z
1/2-x,1/2+y,-z
1/2-x,1/2-y,-z
1/2+x,1/2+y,-z
1/2-x,1/2+y,z
1/2+x,1/2-y,z
loop_
_atom_site_type_symbol
_atom_site_label
_atom_site_fract_x
_atom_site_fract_y
_atom_site_fract_z
Si Si1 0.191471 0.669425 0.127110
Si Si2 0.306123 0.669668 0.547533
Si Si3 0.305901 0.418645 0.372020
Si Si4 0.303929 0.917962 0.791246
Si Si5 0.692206 0.831090 0.291265
Si Si6 0.806383 0.918190 0.952264
O O1 0.250000 0.750000 0.130759
O O2 0.250462 0.621889 0.166421
O O3 0.244375 0.633910 0.083436
O O4 0.000000 0.669589 0.128663
O O5 0.252345 0.650982 0.500000
O O6 0.500000 0.669194 0.547541
O O7 0.250000 0.750000 0.556507
O O8 0.250906 0.616852 0.584150
O O9 0.500000 0.419269 0.372498
O O10 0.249907 0.500000 0.367752
O O11 0.251151 0.371037 0.332980
O O12 0.500000 0.918276 0.791389
O O13 0.251992 0.874371 0.750043
O O14 0.251474 0.000000 0.790003
O O15 0.500000 0.831247 0.291239
O O16 0.750000 0.750000 0.290143
O O17 0.000000 0.917037 0.951712
O O18 0.755756 0.000000 0.943808
O O19 0.754986 0.899721 0.000000
#
# Coordination Sequence:
#
# PCOD9491678 Si02
#       6
#    16  16  16  16  16  16
#     4  11  22  36  56  81 111 145 182 224 267 315
#     4   9  18  33  53  76 103 138 178 219 266 318
#     4  10  21  36  54  79 110 141 178 224 269 317
#     4   9  19  36  57  81 108 139 177 221 268 318
#     4  11  22  37  58  81 109 144 180 219 266 320
#     4   9  19  37  59  82 110 143 179 222 272 324
#
# _framework density 19.310555000000001
#
# number of rings (size 3 to 8) (size 9 to 14) (size 15 to 20)
#    0.000    2.167    0.000    3.500    0.000    5.000 
#    0.000    5.000    0.000    6.000    0.000    3.500 
#    0.000    0.000    0.000    0.000    0.000    0.000 
#
# Total GULP energy -268093.156457 kJ/mol
# GULP energy per Si atom -5585.274093 kJ/mol
# Density = 1.926660 g / cm^3
# Si number density = 19.310555 Si / 1000 Ang^3
#
#
#
# Elastic Constant Matrix: (Units=GPa)
#
#
# Indices 1 2 3 4 5 6 
#
# 1 15.3715 21.7784 21.7643 0.0000 0.0000 0.0000
# 2 21.7784 200.4929 133.9991 0.0000 0.0000 0.0000
# 3 21.7643 133.9991 173.6081 0.0000 0.0000 0.0000
# 4 0.0000 0.0000 0.0000 42.0012 0.0000 0.0000
# 5 0.0000 0.0000 0.0000 0.0000 13.4223 0.0000
# 6 0.0000 0.0000 0.0000 0.0000 0.0000 -2.1951
#
#
#
# Elastic Compliance Matrix: (Units=1/GPa)
#
#
# Indices 1 2 3 4 5 6 
#
# 1 0.080726 -0.004141 -0.006924 0.000000 0.000000 0.000000
# 2 -0.004141 0.010515 -0.007597 0.000000 0.000000 0.000000
# 3 -0.006924 -0.007597 0.012491 0.000000 0.000000 0.000000
# 4 0.000000 0.000000 0.000000 0.023809 0.000000 0.000000
# 5 0.000000 0.000000 0.000000 0.000000 0.074503 0.000000
# 6 0.000000 0.000000 0.000000 0.000000 0.000000 -0.455563
#
#
# Mechanical properties :
#
#
# Convention : Reuss Voigt Hill
#
# Bulk Modulus (GPa) = 15.05817 82.72846 48.89332
# Shear Modulus (GPa) = -25.76533 24.77439 -0.49547
#
# Velocity S-wave (km/s) = -3.65672 3.58571 -0.50709
# Velocity P-wave (km/s) = 3.16448 7.75094 5.00316
#
# Compressibility (1/GPa) = 0.06640912
#
# Stress axis : x y z
#
# Youngs Moduli (GPa) = 12.38755 95.10466 80.05444
#
# Poissons Ratio (x) = 0.39387 0.55427
# Poissons Ratio (y) = 0.05130 0.60814
# Poissons Ratio (z) = 0.08577 0.72247
#
# Static dielectric constant tensor:
#      x y z
#    x 1.680320 0.000000 0.000000 
#    y 0.000000 1.643550 0.000000 
#    z 0.000000 0.000000 1.663510 
# 
# From -- ./inp_files/73113.got.cif
#   From: 2010.05.17/outbox.cif.g08.bks.cpg/sg65_37_cif.got.tgz:73113.got - 2010.06.03 17:01:31.
