data_PCOD9491113
_publ_section_title
;
Structure prediction by ZEFSAII (Michael W. Deem and Ramdas Pophale) SiO2 
 PCOD9491113
Probable space group: C M M M
;
_chemical_formula_sum "Si O2"
_cell_formula_units_Z 82
_cell_length_a 28.491008
_cell_length_b 9.504976
_cell_length_c 20.949271
_cell_angle_alpha 90.000000
_cell_angle_beta 90.000000
_cell_angle_gamma 90.000000
_cell_volume 5673.195557
_symmetry_space_group_name_H-M "C M M M"
_symmetry_group_IT_number 65
_symmetry_cell_setting 'orthorhombic'
loop_
_space_group_symop_operation_xyz
x,y,z
-x,-y,z
x,-y,-z
-x,y,-z
-x,-y,-z
x,y,-z
-x,y,z
x,-y,z
1/2+x,1/2+y,z
1/2-x,1/2-y,z
1/2+x,1/2-y,-z
1/2-x,1/2+y,-z
1/2-x,1/2-y,-z
1/2+x,1/2+y,-z
1/2-x,1/2+y,z
1/2+x,1/2-y,z
loop_
_atom_site_type_symbol
_atom_site_label
_atom_site_fract_x
_atom_site_fract_y
_atom_site_fract_z
Si Si1 0.384550 0.661864 0.876427
Si Si2 0.442924 0.837710 0.375497
Si Si3 0.797552 0.334425 0.923658
Si Si4 0.000000 0.500000 0.000000
Si Si5 0.052129 0.789213 0.000000
Si Si6 0.444706 0.666423 0.249570
Si Si7 0.557238 0.337040 0.500000
O O1 0.367916 0.500000 0.872033
O O2 0.341276 0.765294 0.887706
O O3 0.414207 0.695296 0.813046
O O4 0.418881 0.672184 0.937292
O O5 0.500000 0.839060 0.376947
O O6 0.429988 0.760044 0.309873
O O7 0.427744 0.747228 0.436791
O O8 0.427365 0.000000 0.378250
O O9 0.792590 0.500000 0.910204
O O10 0.750000 0.250000 0.908766
O O11 0.805963 0.318651 0.000000
O O12 0.959511 0.623677 0.000000
O O13 0.000000 0.853429 0.000000
O O14 0.500000 0.693420 0.236310
O O15 0.440627 0.500000 0.265179
O O16 0.572200 0.500000 0.500000
O O17 0.500000 0.338012 0.500000
#
# Coordination Sequence:
#
# PCOD9491113 Si02
#       7
#    16  16  16   2   8  16   8
#     4  11  21  32  50  69  89 116 150 188 231 276
#     4   9  16  26  38  58  81 110 147 188 222 258
#     4  10  21  35  53  70  90 110 140 183 232 282
#     4   8  24  36  42  64  92 116 150 198 228 264
#     4  10  21  34  47  62  90 118 153 190 227 265
#     4   9  18  31  43  60  88 121 154 186 221 266
#     4   9  15  23  39  57  77 109 144 183 224 261
#
# _framework density 14.453935
#
# number of rings (size 3 to 8) (size 9 to 14) (size 15 to 20)
#    0.293    2.049    0.976    2.341    1.366    6.634 
#    0.000    0.000    0.000    0.000    0.000    0.000 
#    0.000    0.000    0.000    0.878    0.000   11.805 
#
# Total GULP energy -228244.446365 kJ/mol
# GULP energy per Si atom -5566.937716 kJ/mol
# Density = 1.442104 g / cm^3
# Si number density = 14.453935 Si / 1000 Ang^3
#
#
#
# Elastic Constant Matrix: (Units=GPa)
#
#
# Indices 1 2 3 4 5 6 
#
# 1 60.9553 51.4754 41.5492 0.0000 0.0000 0.0000
# 2 51.4754 132.7287 76.9629 0.0000 0.0000 0.0000
# 3 41.5492 76.9629 121.3614 0.0000 0.0000 0.0000
# 4 0.0000 0.0000 0.0000 19.8302 0.0000 0.0000
# 5 0.0000 0.0000 0.0000 0.0000 1.3410 0.0000
# 6 0.0000 0.0000 0.0000 0.0000 0.0000 20.6539
#
#
#
# Elastic Compliance Matrix: (Units=1/GPa)
#
#
# Indices 1 2 3 4 5 6 
#
# 1 0.025505 -0.007636 -0.003889 0.000000 0.000000 0.000000
# 2 -0.007636 0.014202 -0.006392 0.000000 0.000000 0.000000
# 3 -0.003889 -0.006392 0.013625 0.000000 0.000000 0.000000
# 4 0.000000 0.000000 0.000000 0.050428 0.000000 0.000000
# 5 0.000000 0.000000 0.000000 0.000000 0.745694 0.000000
# 6 0.000000 0.000000 0.000000 0.000000 0.000000 0.048417
#
#
# Mechanical properties :
#
#
# Convention : Reuss Voigt Hill
#
# Bulk Modulus (GPa) = 57.15272 72.78005 64.96639
# Shear Modulus (GPa) = 5.32176 18.03555 11.67865
#
# Velocity S-wave (km/s) = 1.92090 3.53625 2.84560
# Velocity P-wave (km/s) = 6.67435 8.19364 7.47271
#
# Compressibility (1/GPa) = 0.01749698
#
# Stress axis : x y z
#
# Youngs Moduli (GPa) = 39.20759 70.41145 73.39435
#
# Poissons Ratio (x) = 0.53769 0.28545
# Poissons Ratio (y) = 0.29940 0.46915
# Poissons Ratio (z) = 0.15249 0.45008
#
# Static dielectric constant tensor:
#      x y z
#    x 1.448060 0.000000 0.000000 
#    y 0.000000 1.491490 0.000000 
#    z 0.000000 0.000000 1.462970 
# 
# From -- ./inp_files/65708.got.cif
#   From: 2010.05.17/outbox.cif.g08.bks.cpg/sg65_33_cif.got.tgz:65708.got - 2010.06.03 17:01:31.
