data_PCOD9491690
_publ_section_title
;
Structure prediction by ZEFSAII (Michael W. Deem and Ramdas Pophale) SiO2 
 PCOD9491690
Probable space group: C M M M
;
_chemical_formula_sum "Si O2"
_cell_formula_units_Z 88
_cell_length_a 8.288778
_cell_length_b 21.806841
_cell_length_c 24.301080
_cell_angle_alpha 90.000000
_cell_angle_beta 90.000000
_cell_angle_gamma 90.000000
_cell_volume 4392.470366
_symmetry_space_group_name_H-M "C M M M"
_symmetry_group_IT_number 65
_symmetry_cell_setting 'orthorhombic'
loop_
_space_group_symop_operation_xyz
x,y,z
-x,-y,z
x,-y,-z
-x,y,-z
-x,-y,-z
x,y,-z
-x,y,z
x,-y,z
1/2+x,1/2+y,z
1/2-x,1/2-y,z
1/2+x,1/2-y,-z
1/2-x,1/2+y,-z
1/2-x,1/2-y,-z
1/2+x,1/2+y,-z
1/2-x,1/2+y,z
1/2+x,1/2-y,z
loop_
_atom_site_type_symbol
_atom_site_label
_atom_site_fract_x
_atom_site_fract_y
_atom_site_fract_z
Si Si1 0.694500 0.931848 0.133493
Si Si2 0.304558 0.366489 0.437313
Si Si3 0.192462 0.816410 0.936928
Si Si4 0.303301 0.932348 0.738147
Si Si5 0.815863 0.000000 0.433098
Si Si6 0.307833 0.185496 0.671897
O O1 0.500000 0.931438 0.131852
O O2 0.754240 0.874650 0.098425
O O3 0.741705 0.926128 0.197689
O O4 0.748130 0.000000 0.114289
O O5 0.252959 0.353169 0.500000
O O6 0.500000 0.369597 0.437867
O O7 0.240500 0.434362 0.419912
O O8 0.248698 0.320399 0.391033
O O9 0.250000 0.750000 0.915496
O O10 0.000000 0.815301 0.938336
O O11 0.253976 0.822282 0.000000
O O12 0.500000 0.932140 0.735978
O O13 0.243882 0.874245 0.703958
O O14 0.250353 0.000000 0.718244
O O15 0.825499 0.000000 0.500000
O O16 0.000000 0.000000 0.412057
O O17 0.500000 0.184230 0.673567
O O18 0.250000 0.250000 0.695712
#
# Coordination Sequence:
#
# PCOD9491690 Si02
#       6
#    16  16  16  16   8  16
#     4   9  18  35  59  84 111 145 184 225 274 331
#     4   9  18  34  55  78 106 138 172 212 262 320
#     4  10  21  36  54  79 114 153 191 232 276 322
#     4   8  17  36  59  81 106 139 178 222 272 320
#     4   7  12  26  49  75 101 129 159 197 248 303
#     4  11  23  37  55  78 108 141 176 219 266 320
#
# _framework density 20.034282999999999
#
# number of rings (size 3 to 8) (size 9 to 14) (size 15 to 20)
#    0.000    2.818    0.000    3.273    1.273    3.273 
#    0.000    5.455    0.000    3.818    0.000    0.000 
#    0.000    0.000    0.000    0.000    0.000    0.000 
#
# Total GULP energy -245381.686396 kJ/mol
# GULP energy per Si atom -5576.856509 kJ/mol
# Density = 1.998868 g / cm^3
# Si number density = 20.034283 Si / 1000 Ang^3
#
#
#
# Elastic Constant Matrix: (Units=GPa)
#
#
# Indices 1 2 3 4 5 6 
#
# 1 20.5801 23.7831 13.5591 0.0000 0.0000 0.0000
# 2 23.7831 205.2271 84.8912 0.0000 0.0000 0.0000
# 3 13.5591 84.8912 67.1313 0.0000 0.0000 0.0000
# 4 0.0000 0.0000 0.0000 21.1105 0.0000 0.0000
# 5 0.0000 0.0000 0.0000 0.0000 13.3783 0.0000
# 6 0.0000 0.0000 0.0000 0.0000 0.0000 24.4942
#
#
#
# Elastic Compliance Matrix: (Units=1/GPa)
#
#
# Indices 1 2 3 4 5 6 
#
# 1 0.057499 -0.003899 -0.006683 0.000000 0.000000 0.000000
# 2 -0.003899 0.010481 -0.012467 0.000000 0.000000 0.000000
# 3 -0.006683 -0.012467 0.032011 0.000000 0.000000 0.000000
# 4 0.000000 0.000000 0.000000 0.047370 0.000000 0.000000
# 5 0.000000 0.000000 0.000000 0.000000 0.074748 0.000000
# 6 0.000000 0.000000 0.000000 0.000000 0.000000 0.040826
#
#
# Mechanical properties :
#
#
# Convention : Reuss Voigt Hill
#
# Bulk Modulus (GPa) = 18.55498 59.71170 39.13334
# Shear Modulus (GPa) = 15.29064 23.17694 19.23379
#
# Velocity S-wave (km/s) = 2.76565 3.40496 3.10182
# Velocity P-wave (km/s) = 4.41363 6.73259 5.69245
#
# Compressibility (1/GPa) = 0.05389390
#
# Stress axis : x y z
#
# Youngs Moduli (GPa) = 17.39146 95.40870 31.23955
#
# Poissons Ratio (x) = 0.37199 0.20878
# Poissons Ratio (y) = 0.06781 0.38945
# Poissons Ratio (z) = 0.11623 1.18942
#
# Static dielectric constant tensor:
#      x y z
#    x 1.699250 0.000000 0.000000 
#    y 0.000000 1.743640 0.000000 
#    z 0.000000 0.000000 1.701040 
# 
# From -- ./inp_files/67595.got.cif
#   From: 2010.05.17/outbox.cif.g08.bks.cpg/sg65_34_cif.got.tgz:67595.got - 2010.06.03 17:01:31.
