data_PCOD9491938
_publ_section_title
;
Structure prediction by ZEFSAII (Michael W. Deem and Ramdas Pophale) SiO2 
 PCOD9491938
Probable space group: C M M M
;
_chemical_formula_sum "Si O2"
_cell_formula_units_Z 72
_cell_length_a 18.821309
_cell_length_b 8.634297
_cell_length_c 23.987842
_cell_angle_alpha 90.000000
_cell_angle_beta 90.000000
_cell_angle_gamma 90.000000
_cell_volume 3898.234742
_symmetry_space_group_name_H-M "C M M M"
_symmetry_group_IT_number 65
_symmetry_cell_setting 'orthorhombic'
loop_
_space_group_symop_operation_xyz
x,y,z
-x,-y,z
x,-y,-z
-x,y,-z
-x,-y,-z
x,y,-z
-x,y,z
x,-y,z
1/2+x,1/2+y,z
1/2-x,1/2-y,z
1/2+x,1/2-y,-z
1/2-x,1/2+y,-z
1/2-x,1/2-y,-z
1/2+x,1/2+y,-z
1/2-x,1/2+y,z
1/2+x,1/2-y,z
loop_
_atom_site_type_symbol
_atom_site_label
_atom_site_fract_x
_atom_site_fract_y
_atom_site_fract_z
Si Si1 0.830285 0.313246 0.500000
Si Si2 0.582766 0.186472 0.935715
Si Si3 0.829259 0.183862 0.833929
Si Si4 0.417847 0.187561 0.730123
Si Si5 0.669719 0.812587 0.378183
O O1 0.829259 0.500000 0.500000
O O2 0.750000 0.250000 0.500000
O O3 0.859712 0.265281 0.560522
O O4 0.500000 0.225899 0.924743
O O5 0.633582 0.265093 0.891360
O O6 0.588888 0.000000 0.930770
O O7 0.598597 0.227639 0.000000
O O8 0.750000 0.250000 0.830774
O O9 0.875703 0.249565 0.783098
O O10 0.826583 0.000000 0.830304
O O11 0.500000 0.236099 0.731145
O O12 0.378791 0.237753 0.673255
O O13 0.416152 0.000000 0.731987
O O14 0.750000 0.750000 0.372201
O O15 0.673071 0.000000 0.377113
#
# Coordination Sequence:
#
# PCOD9491938 Si02
#       5
#     8  16  16  16  16
#     4   8  14  26  45  71 101 131 169 214 259 310
#     4   9  19  38  63  88 115 147 179 213 259 314
#     4  12  25  39  57  81 109 142 181 225 270 315
#     4  10  21  37  55  76 106 142 178 219 270 324
#     4   9  17  30  50  75 102 135 174 217 264 313
#
# _framework density 18.469898000000001
#
# number of rings (size 3 to 8) (size 9 to 14) (size 15 to 20)
#    0.000    2.222    0.000    4.000    0.000    7.111 
#    0.000    1.667    0.000    3.333    0.000    0.000 
#    0.000   10.667    0.000    0.000    0.000    0.000 
#
# Total GULP energy -200893.882795 kJ/mol
# GULP energy per Si atom -5580.385633 kJ/mol
# Density = 1.842786 g / cm^3
# Si number density = 18.469898 Si / 1000 Ang^3
#
#
#
# Elastic Constant Matrix: (Units=GPa)
#
#
# Indices 1 2 3 4 5 6 
#
# 1 139.5102 37.3268 112.4603 0.0000 0.0000 0.0000
# 2 37.3268 25.6564 41.4737 0.0000 0.0000 0.0000
# 3 112.4603 41.4737 169.6027 0.0000 0.0000 0.0000
# 4 0.0000 0.0000 0.0000 -3.5105 0.0000 0.0000
# 5 0.0000 0.0000 0.0000 0.0000 118.5440 0.0000
# 6 0.0000 0.0000 0.0000 0.0000 0.0000 24.6754
#
#
#
# Elastic Compliance Matrix: (Units=1/GPa)
#
#
# Indices 1 2 3 4 5 6 
#
# 1 0.017031 -0.010787 -0.008655 0.000000 0.000000 0.000000
# 2 -0.010787 0.071287 -0.010280 0.000000 0.000000 0.000000
# 3 -0.008655 -0.010280 0.014149 0.000000 0.000000 0.000000
# 4 0.000000 0.000000 0.000000 -0.284859 0.000000 0.000000
# 5 0.000000 0.000000 0.000000 0.000000 0.008436 0.000000
# 6 0.000000 0.000000 0.000000 0.000000 0.000000 0.040526
#
#
# Mechanical properties :
#
#
# Convention : Reuss Voigt Hill
#
# Bulk Modulus (GPa) = 23.24286 79.69899 51.47092
# Shear Modulus (GPa) = -83.82895 37.50900 -23.15997
#
# Velocity S-wave (km/s) = -6.74428 4.51135 -3.54493
# Velocity P-wave (km/s) = 6.93077 8.38933 3.34254
#
# Compressibility (1/GPa) = 0.04302397
#
# Stress axis : x y z
#
# Youngs Moduli (GPa) = 58.71624 14.02771 70.67653
#
# Poissons Ratio (x) = 0.15132 0.61172
# Poissons Ratio (y) = 0.63337 0.72653
# Poissons Ratio (z) = 0.50820 0.14420
#
# Static dielectric constant tensor:
#      x y z
#    x 1.595890 0.000000 0.000000 
#    y 0.000000 1.630660 0.000000 
#    z 0.000000 0.000000 1.655460 
# 
# From -- ./inp_files/70344.got.cif
#   From: 2010.05.17/outbox.cif.g08.bks.cpg/sg65_36_cif.got.tgz:70344.got - 2010.06.03 17:01:31.
