data_PCOD9491855
_publ_section_title
;
Structure prediction by ZEFSAII (Michael W. Deem and Ramdas Pophale) SiO2 
 PCOD9491855
Probable space group: C M M M
;
_chemical_formula_sum "Si O2"
_cell_formula_units_Z 64
_cell_length_a 14.760326
_cell_length_b 10.345577
_cell_length_c 21.670184
_cell_angle_alpha 90.000000
_cell_angle_beta 90.000000
_cell_angle_gamma 90.000000
_cell_volume 3309.125710
_symmetry_space_group_name_H-M "C M M M"
_symmetry_group_IT_number 65
_symmetry_cell_setting 'orthorhombic'
loop_
_space_group_symop_operation_xyz
x,y,z
-x,-y,z
x,-y,-z
-x,y,-z
-x,-y,-z
x,y,-z
-x,y,z
x,-y,z
1/2+x,1/2+y,z
1/2-x,1/2-y,z
1/2+x,1/2-y,-z
1/2-x,1/2+y,-z
1/2-x,1/2-y,-z
1/2+x,1/2+y,-z
1/2-x,1/2+y,z
1/2+x,1/2-y,z
loop_
_atom_site_type_symbol
_atom_site_label
_atom_site_fract_x
_atom_site_fract_y
_atom_site_fract_z
Si Si1 0.000000 0.735240 0.157670
Si Si2 0.360883 0.500000 0.345959
Si Si3 0.140163 0.243768 0.570279
Si Si4 0.500000 0.000000 0.251214
Si Si5 0.357470 0.000000 0.356695
Si Si6 0.500000 0.500000 0.234449
Si Si7 0.166008 0.652375 0.927494
O O1 0.000000 0.873943 0.190894
O O2 0.913381 0.706944 0.115039
O O3 0.000000 0.626911 0.210119
O O4 0.386184 0.625091 0.386344
O O5 0.250688 0.500000 0.342551
O O6 0.413301 0.500000 0.281030
O O7 0.108027 0.231018 0.500000
O O8 0.250000 0.250000 0.567471
O O9 0.115191 0.376105 0.603301
O O10 0.587981 0.000000 0.293900
O O11 0.184958 0.500000 0.912904
O O12 0.250000 0.750000 0.919719
O O13 0.140139 0.656011 0.000000
#
# Coordination Sequence:
#
# PCOD9491855 Si02
#       7
#     8   8  16   4   8   4  16
#     4  12  25  43  64  91 131 178 216 263 305 369
#     4  10  21  40  56  79 116 159 196 262 314 370
#     4   9  17  33  59  85 109 145 194 253 327 388
#     4  12  24  40  60  84 116 172 218 244 300 376
#     4  10  21  36  58  81 116 151 198 260 316 372
#     4  12  28  40  58  88 126 168 230 258 298 366
#     4  10  22  43  72 104 134 165 206 259 318 374
#
# _framework density 19.340456
#
# number of rings (size 3 to 8) (size 9 to 14) (size 15 to 20)
#    0.000    1.750    1.250    2.625    1.750    6.000 
#    0.000    4.375    0.000    0.000    0.000    0.000 
#    0.000    0.000    0.000    0.000    0.000    0.000 
#
# Total GULP energy -178775.949726 kJ/mol
# GULP energy per Si atom -5586.748429 kJ/mol
# Density = 1.929644 g / cm^3
# Si number density = 19.340456 Si / 1000 Ang^3
#
#
#
# Elastic Constant Matrix: (Units=GPa)
#
#
# Indices 1 2 3 4 5 6 
#
# 1 100.2891 64.1273 84.6664 0.0000 0.0000 0.0000
# 2 64.1273 230.9143 113.0962 0.0000 0.0000 0.0000
# 3 84.6664 113.0962 151.0479 0.0000 0.0000 0.0000
# 4 0.0000 0.0000 0.0000 94.2207 0.0000 0.0000
# 5 0.0000 0.0000 0.0000 0.0000 67.0880 0.0000
# 6 0.0000 0.0000 0.0000 0.0000 0.0000 110.2678
#
#
#
# Elastic Compliance Matrix: (Units=1/GPa)
#
#
# Indices 1 2 3 4 5 6 
#
# 1 0.018929 -0.000095 -0.010539 0.000000 0.000000 0.000000
# 2 -0.000095 0.006839 -0.005067 0.000000 0.000000 0.000000
# 3 -0.010539 -0.005067 0.016322 0.000000 0.000000 0.000000
# 4 0.000000 0.000000 0.000000 0.010613 0.000000 0.000000
# 5 0.000000 0.000000 0.000000 0.000000 0.014906 0.000000
# 6 0.000000 0.000000 0.000000 0.000000 0.000000 0.009069
#
#
# Mechanical properties :
#
#
# Convention : Reuss Voigt Hill
#
# Bulk Modulus (GPa) = 93.57032 111.78123 102.67578
# Shear Modulus (GPa) = 44.78519 69.00607 56.89563
#
# Velocity S-wave (km/s) = 4.81731 5.97972 5.42971
# Velocity P-wave (km/s) = 8.91222 10.27610 9.61836
#
# Compressibility (1/GPa) = 0.01068715
#
# Stress axis : x y z
#
# Youngs Moduli (GPa) = 52.82764 146.22402 61.26660
#
# Poissons Ratio (x) = 0.01389 0.64571
# Poissons Ratio (y) = 0.00502 0.31046
# Poissons Ratio (z) = 0.55677 0.74096
#
# Static dielectric constant tensor:
#      x y z
#    x 1.687610 0.000000 0.000000 
#    y 0.000000 1.492160 0.000000 
#    z 0.000000 0.000000 1.635370 
# 
# From -- ./inp_files/52588.got.cif
#   From: 2010.05.17/outbox.cif.g08.bks.cpg/sg65_27_cif.got.tgz:52588.got - 2010.06.03 17:01:31.
