data_PCOD9491082
_publ_section_title
;
Structure prediction by ZEFSAII (Michael W. Deem and Ramdas Pophale) SiO2 
 PCOD9491082
Probable space group: C M M M
;
_chemical_formula_sum "Si O2"
_cell_formula_units_Z 72
_cell_length_a 10.113745
_cell_length_b 26.304936
_cell_length_c 17.865417
_cell_angle_alpha 90.000000
_cell_angle_beta 90.000000
_cell_angle_gamma 90.000000
_cell_volume 4752.940817
_symmetry_space_group_name_H-M "C M M M"
_symmetry_group_IT_number 65
_symmetry_cell_setting 'orthorhombic'
loop_
_space_group_symop_operation_xyz
x,y,z
-x,-y,z
x,-y,-z
-x,y,-z
-x,-y,-z
x,y,-z
-x,y,z
x,-y,z
1/2+x,1/2+y,z
1/2-x,1/2-y,z
1/2+x,1/2-y,-z
1/2-x,1/2+y,-z
1/2-x,1/2-y,-z
1/2+x,1/2+y,-z
1/2-x,1/2+y,z
1/2+x,1/2-y,z
loop_
_atom_site_type_symbol
_atom_site_label
_atom_site_fract_x
_atom_site_fract_y
_atom_site_fract_z
Si Si1 0.841190 0.059873 0.000000
Si Si2 0.349734 0.561592 0.585378
Si Si3 0.249873 0.874551 0.137894
Si Si4 0.658349 0.938901 0.279524
Si Si5 0.500000 0.689897 0.907985
Si Si6 0.000000 0.690083 0.910393
O O1 0.774988 0.084814 0.072167
O O2 0.000000 0.069398 0.000000
O O3 0.822036 0.000000 0.000000
O O4 0.323897 0.578642 0.500000
O O5 0.500000 0.577515 0.606546
O O6 0.351335 0.500000 0.583815
O O7 0.237355 0.575339 0.644800
O O8 0.277212 0.906005 0.213132
O O9 0.124679 0.837530 0.129483
O O10 0.373959 0.838985 0.121055
O O11 0.500000 0.929992 0.284178
O O12 0.676250 0.000000 0.266906
O O13 0.500000 0.750036 0.893571
O O14 0.500000 0.683694 0.000000
O O15 0.000000 0.685246 0.000000
#
# Coordination Sequence:
#
# PCOD9491082 Si02
#       6
#     8  16  16  16   8   8
#     4  11  22  35  50  72 101 138 177 209 242 299
#     4   8  15  29  49  73 100 133 172 207 241 286
#     4  12  20  37  50  75 101 132 171 211 260 303
#     4  10  21  33  47  72 107 143 171 201 245 300
#     4  11  22  38  56  74  93 126 177 223 274 315
#     4  11  22  36  58  74  95 126 169 227 274 309
#
# _framework density 15.148516000000001
#
# number of rings (size 3 to 8) (size 9 to 14) (size 15 to 20)
#    0.000    1.667    4.444    2.000    1.556    2.222 
#    0.000    2.778    0.000    0.000    0.000    0.000 
#    0.000    5.333    0.000    0.000    0.000    0.000 
#
# Total GULP energy -200637.287884 kJ/mol
# GULP energy per Si atom -5573.257997 kJ/mol
# Density = 1.511404 g / cm^3
# Si number density = 15.148516 Si / 1000 Ang^3
#
#
#
# Elastic Constant Matrix: (Units=GPa)
#
#
# Indices 1 2 3 4 5 6 
#
# 1 146.8944 59.9424 76.3973 0.0000 0.0000 0.0000
# 2 59.9424 95.9458 48.3766 0.0000 0.0000 0.0000
# 3 76.3973 48.3766 121.2115 0.0000 0.0000 0.0000
# 4 0.0000 0.0000 0.0000 -3.3754 0.0000 0.0000
# 5 0.0000 0.0000 0.0000 0.0000 34.8058 0.0000
# 6 0.0000 0.0000 0.0000 0.0000 0.0000 7.3466
#
#
#
# Elastic Compliance Matrix: (Units=1/GPa)
#
#
# Indices 1 2 3 4 5 6 
#
# 1 0.011438 -0.004396 -0.005455 0.000000 0.000000 0.000000
# 2 -0.004396 0.014738 -0.003111 0.000000 0.000000 0.000000
# 3 -0.005455 -0.003111 0.012930 0.000000 0.000000 0.000000
# 4 0.000000 0.000000 0.000000 -0.296265 0.000000 0.000000
# 5 0.000000 0.000000 0.000000 0.000000 0.028731 0.000000
# 6 0.000000 0.000000 0.000000 0.000000 0.000000 0.136118
#
#
# Mechanical properties :
#
#
# Convention : Reuss Voigt Hill
#
# Bulk Modulus (GPa) = 75.86236 81.49824 78.68030
# Shear Modulus (GPa) = -80.65554 19.71111 -30.47221
#
# Velocity S-wave (km/s) = -7.30471 3.61112 -4.48991
# Velocity P-wave (km/s) = 4.57791 8.44412 5.01727
#
# Compressibility (1/GPa) = 0.01318177
#
# Stress axis : x y z
#
# Youngs Moduli (GPa) = 87.42469 67.85394 77.33934
#
# Poissons Ratio (x) = 0.29827 0.42189
# Poissons Ratio (y) = 0.38429 0.24063
# Poissons Ratio (z) = 0.47691 0.21112
#
# Static dielectric constant tensor:
#      x y z
#    x 1.451040 0.000000 0.000000 
#    y 0.000000 1.477870 0.000000 
#    z 0.000000 0.000000 1.491830 
# 
# From -- ./inp_files/49793.got.cif
#   From: 2010.05.17/outbox.cif.g08.bks.cpg/sg65_25_cif.got.tgz:49793.got - 2010.06.03 17:01:31.
