data_PCOD9491983
_publ_section_title
;
Structure prediction by ZEFSAII (Michael W. Deem and Ramdas Pophale) SiO2 
 PCOD9491983
Probable space group: C M M M
;
_chemical_formula_sum "Si O2"
_cell_formula_units_Z 104
_cell_length_a 21.236529
_cell_length_b 8.168423
_cell_length_c 31.212474
_cell_angle_alpha 90.000000
_cell_angle_beta 90.000000
_cell_angle_gamma 90.000000
_cell_volume 5414.395152
_symmetry_space_group_name_H-M "C M M M"
_symmetry_group_IT_number 65
_symmetry_cell_setting 'orthorhombic'
loop_
_space_group_symop_operation_xyz
x,y,z
-x,-y,z
x,-y,-z
-x,y,-z
-x,-y,-z
x,y,-z
-x,y,z
x,-y,z
1/2+x,1/2+y,z
1/2-x,1/2-y,z
1/2+x,1/2-y,-z
1/2-x,1/2+y,-z
1/2-x,1/2-y,-z
1/2+x,1/2+y,-z
1/2-x,1/2+y,z
1/2+x,1/2-y,z
loop_
_atom_site_type_symbol
_atom_site_label
_atom_site_fract_x
_atom_site_fract_y
_atom_site_fract_z
Si Si1 0.819908 0.802379 0.549181
Si Si2 0.500000 0.316544 0.948408
Si Si3 0.572850 0.298972 0.384908
Si Si4 0.072259 0.798528 0.196617
Si Si5 0.862590 0.692904 0.048459
Si Si6 0.817063 0.192672 0.136466
Si Si7 0.076306 0.187258 0.709091
O O1 0.828197 0.745011 0.500000
O O2 0.750000 0.750000 0.563496
O O3 0.876509 0.746416 0.579846
O O4 0.821552 0.000000 0.548830
O O5 0.500000 0.500000 0.929632
O O6 0.564843 0.227325 0.938657
O O7 0.500000 0.329568 0.000000
O O8 0.500000 0.251111 0.393478
O O9 0.572747 0.500000 0.383632
O O10 0.592449 0.239953 0.337197
O O11 0.122782 0.739720 0.162080
O O12 0.091852 0.741074 0.244438
O O13 0.000000 0.749475 0.187588
O O14 0.071746 0.000000 0.197528
O O15 0.851982 0.500000 0.047137
O O16 0.822200 0.767429 0.086268
O O17 0.852385 0.758829 0.000000
O O18 0.750000 0.250000 0.153513
O O19 0.819956 0.000000 0.141095
O O20 0.000000 0.179785 0.708937
O O21 0.100206 0.000000 0.709146
#
# Coordination Sequence:
#
# PCOD9491983 Si02
#       7
#    16   8  16  16  16  16  16
#     4   9  17  28  41  59  88 125 161 197 237 284
#     4   9  17  31  53  81 109 135 165 201 241 285
#     4   8  13  22  40  66  91 116 151 198 247 287
#     4   8  15  29  50  74  96 123 161 201 241 288
#     4  10  21  37  56  78 105 135 168 207 249 291
#     4  11  23  37  54  75 104 135 165 204 249 300
#     4   7  10  20  40  66  94 118 146 192 245 290
#
# _framework density 19.208057
#
# number of rings (size 3 to 8) (size 9 to 14) (size 15 to 20)
#    0.000    3.154    0.000    3.000    1.077    2.462 
#    0.000    2.308    0.000    0.462    0.000    3.231 
#    0.000    7.385    0.000    0.000    0.000    0.000 
#
# Total GULP energy -289584.518991 kJ/mol
# GULP energy per Si atom -5568.933058 kJ/mol
# Density = 1.916434 g / cm^3
# Si number density = 19.208057 Si / 1000 Ang^3
#
#
#
# Elastic Constant Matrix: (Units=GPa)
#
#
# Indices 1 2 3 4 5 6 
#
# 1 121.4526 6.9290 85.4292 0.0000 0.0000 0.0000
# 2 6.9290 10.3609 7.8549 0.0000 0.0000 0.0000
# 3 85.4292 7.8549 127.8399 0.0000 0.0000 0.0000
# 4 0.0000 0.0000 0.0000 2.4563 0.0000 0.0000
# 5 0.0000 0.0000 0.0000 0.0000 -0.0028 0.0000
# 6 0.0000 0.0000 0.0000 0.0000 0.0000 20.8299
#
#
#
# Elastic Compliance Matrix: (Units=1/GPa)
#
#
# Indices 1 2 3 4 5 6 
#
# 1 0.015606 -0.002654 -0.010266 0.000000 0.000000 0.000000
# 2 -0.002654 0.101684 -0.004474 0.000000 0.000000 0.000000
# 3 -0.010266 -0.004474 0.014957 0.000000 0.000000 0.000000
# 4 0.000000 0.000000 0.000000 0.407120 0.000000 0.000000
# 5 0.000000 0.000000 0.000000 0.000000********** 0.000000
# 6 0.000000 0.000000 0.000000 0.000000 0.000000 0.048008
#
#
# Mechanical properties :
#
#
# Convention : Reuss Voigt Hill
#
# Bulk Modulus (GPa) = 10.26070 51.11994 30.69032
# Shear Modulus (GPa) = -0.01380 15.28603 7.63612
#
# Velocity S-wave (km/s) = -0.08484 2.82408 1.99602
# Velocity P-wave (km/s) = 2.31168 6.10782 4.61786
#
# Compressibility (1/GPa) = 0.09745922
#
# Stress axis : x y z
#
# Youngs Moduli (GPa) = 64.07868 9.83441 66.85763
#
# Poissons Ratio (x) = 0.02610 0.68633
# Poissons Ratio (y) = 0.17007 0.29914
# Poissons Ratio (z) = 0.65780 0.04400
#
# Static dielectric constant tensor:
#      x y z
#    x 1.655830 0.000000 0.000000 
#    y 0.000000 1.700570 0.000000 
#    z 0.000000 0.000000 1.716470 
# 
# From -- ./inp_files/78259.got.cif
#   From: 2010.05.17/outbox.cif.g08.bks.cpg/sg65_40_cif.got.tgz:78259.got - 2010.06.03 17:01:31.
