data_PCOD9491725
_publ_section_title
;
Structure prediction by ZEFSAII (Michael W. Deem and Ramdas Pophale) SiO2 
 PCOD9491725
Probable space group: C M M M
;
_chemical_formula_sum "Si O2"
_cell_formula_units_Z 104
_cell_length_a 9.292780
_cell_length_b 18.303979
_cell_length_c 34.460656
_cell_angle_alpha 90.000000
_cell_angle_beta 90.000000
_cell_angle_gamma 90.000000
_cell_volume 5861.580112
_symmetry_space_group_name_H-M "C M M M"
_symmetry_group_IT_number 65
_symmetry_cell_setting 'orthorhombic'
loop_
_space_group_symop_operation_xyz
x,y,z
-x,-y,z
x,-y,-z
-x,y,-z
-x,-y,-z
x,y,-z
-x,y,z
x,-y,z
1/2+x,1/2+y,z
1/2-x,1/2-y,z
1/2+x,1/2-y,-z
1/2-x,1/2+y,-z
1/2-x,1/2-y,-z
1/2+x,1/2+y,-z
1/2-x,1/2+y,z
1/2+x,1/2-y,z
loop_
_atom_site_type_symbol
_atom_site_label
_atom_site_fract_x
_atom_site_fract_y
_atom_site_fract_z
Si Si1 0.666039 0.589177 0.000000
Si Si2 0.672185 0.672874 0.543670
Si Si3 0.334279 0.589095 0.154399
Si Si4 0.329782 0.913803 0.231884
Si Si5 0.670817 0.413538 0.620682
Si Si6 0.327960 0.827661 0.311227
Si Si7 0.834013 0.410789 0.922636
O O1 0.748729 0.612408 0.038881
O O2 0.666229 0.500000 0.000000
O O3 0.500000 0.612447 0.000000
O O4 0.709238 0.647080 0.500000
O O5 0.500000 0.684175 0.544696
O O6 0.750000 0.750000 0.550102
O O7 0.708334 0.617985 0.578268
O O8 0.500000 0.612148 0.152244
O O9 0.332019 0.500000 0.154171
O O10 0.260284 0.611490 0.194643
O O11 0.245572 0.612997 0.116631
O O12 0.500000 0.907320 0.223187
O O13 0.298573 0.869427 0.270816
O O14 0.299919 0.000000 0.238483
O O15 0.500000 0.399268 0.627272
O O16 0.693121 0.500000 0.622011
O O17 0.763610 0.373928 0.653353
O O18 0.500000 0.819596 0.315275
O O19 0.250000 0.750000 0.310901
O O20 0.833344 0.500000 0.922564
O O21 0.000000 0.387689 0.923532
#
# Coordination Sequence:
#
# PCOD9491725 Si02
#       7
#     8  16  16  16  16  16  16
#     4   9  15  21  29  43  67 101 144 193 238 281
#     4   9  18  33  53  77 106 141 179 217 258 305
#     4   9  16  25  39  60  84 111 146 190 238 286
#     4   9  18  33  51  70  93 123 159 198 243 296
#     4  10  21  36  55  80 108 138 174 216 260 306
#     4  11  23  38  56  77 103 135 170 209 255 307
#     4   9  15  22  32  47  71 106 147 188 232 285
#
# _framework density 17.742656
#
# number of rings (size 3 to 8) (size 9 to 14) (size 15 to 20)
#    0.000    2.538    0.000    2.538    0.000    8.923 
#    0.000    3.077    0.000    0.000    0.000    3.231 
#    0.000    0.000    0.000    0.692    0.000   10.154 
#
# Total GULP energy -290073.630953 kJ/mol
# GULP energy per Si atom -5578.339057 kJ/mol
# Density = 1.770227 g / cm^3
# Si number density = 17.742656 Si / 1000 Ang^3
#
#
#
# Elastic Constant Matrix: (Units=GPa)
#
#
# Indices 1 2 3 4 5 6 
#
# 1 118.4895 50.5939 114.3378 0.0000 0.0000 0.0000
# 2 50.5939 47.1164 66.3119 0.0000 0.0000 0.0000
# 3 114.3378 66.3119 190.3281 0.0000 0.0000 0.0000
# 4 0.0000 0.0000 0.0000 -15.7168 0.0000 0.0000
# 5 0.0000 0.0000 0.0000 0.0000 38.6401 0.0000
# 6 0.0000 0.0000 0.0000 0.0000 0.0000 13.5727
#
#
#
# Elastic Compliance Matrix: (Units=1/GPa)
#
#
# Indices 1 2 3 4 5 6 
#
# 1 0.022231 -0.009959 -0.009885 0.000000 0.000000 0.000000
# 2 -0.009959 0.046106 -0.010081 0.000000 0.000000 0.000000
# 3 -0.009885 -0.010081 0.014705 0.000000 0.000000 0.000000
# 4 0.000000 0.000000 0.000000 -0.063626 0.000000 0.000000
# 5 0.000000 0.000000 0.000000 0.000000 0.025880 0.000000
# 6 0.000000 0.000000 0.000000 0.000000 0.000000 0.073677
#
#
# Mechanical properties :
#
#
# Convention : Reuss Voigt Hill
#
# Bulk Modulus (GPa) = 43.11957 90.93568 67.02763
# Shear Modulus (GPa) = 26.80201 15.61190 21.20696
#
# Velocity S-wave (km/s) = 3.89086 2.96954 3.46099
# Velocity P-wave (km/s) = 6.67387 7.94490 7.33696
#
# Compressibility (1/GPa) = 0.02319132
#
# Stress axis : x y z
#
# Youngs Moduli (GPa) = 44.98275 21.68907 68.00568
#
# Poissons Ratio (x) = 0.21601 0.67224
# Poissons Ratio (y) = 0.44800 0.68555
# Poissons Ratio (z) = 0.44465 0.21864
#
# Static dielectric constant tensor:
#      x y z
#    x 1.595800 0.000000 0.000000 
#    y 0.000000 1.578110 0.000000 
#    z 0.000000 0.000000 1.594270 
# 
# From -- ./inp_files/76852.got.cif
#   From: 2010.05.17/outbox.cif.g08.bks.cpg/sg65_39_cif.got.tgz:76852.got - 2010.06.03 17:01:31.
