data_PCOD9491613
_publ_section_title
;
Structure prediction by ZEFSAII (Michael W. Deem and Ramdas Pophale) SiO2 
 PCOD9491613
Probable space group: C M M M
;
_chemical_formula_sum "Si O2"
_cell_formula_units_Z 104
_cell_length_a 29.507817
_cell_length_b 8.518494
_cell_length_c 23.578535
_cell_angle_alpha 90.000000
_cell_angle_beta 90.000000
_cell_angle_gamma 90.000000
_cell_volume 5926.751536
_symmetry_space_group_name_H-M "C M M M"
_symmetry_group_IT_number 65
_symmetry_cell_setting 'orthorhombic'
loop_
_space_group_symop_operation_xyz
x,y,z
-x,-y,z
x,-y,-z
-x,y,-z
-x,-y,-z
x,y,-z
-x,y,z
x,-y,z
1/2+x,1/2+y,z
1/2-x,1/2-y,z
1/2+x,1/2-y,-z
1/2-x,1/2+y,-z
1/2-x,1/2-y,-z
1/2+x,1/2+y,-z
1/2-x,1/2+y,z
1/2+x,1/2-y,z
loop_
_atom_site_type_symbol
_atom_site_label
_atom_site_fract_x
_atom_site_fract_y
_atom_site_fract_z
Si Si1 0.449655 0.808973 0.780214
Si Si2 0.801206 0.809890 0.500000
Si Si3 0.949179 0.310758 0.648176
Si Si4 0.855600 0.189041 0.611376
Si Si5 0.143896 0.311547 0.831578
Si Si6 0.200028 0.812047 0.934812
Si Si7 0.301096 0.311170 0.276371
O O1 0.500000 0.756983 0.798113
O O2 0.443033 0.762928 0.714314
O O3 0.407217 0.756625 0.817447
O O4 0.449789 0.000000 0.780837
O O5 0.750000 0.750000 0.500000
O O6 0.827964 0.757479 0.443750
O O7 0.800286 0.000000 0.500000
O O8 0.947890 0.500000 0.646656
O O9 0.907266 0.245732 0.613089
O O10 0.000000 0.261423 0.630643
O O11 0.830105 0.241356 0.668820
O O12 0.855547 0.000000 0.611387
O O13 0.144499 0.500000 0.831554
O O14 0.163647 0.251081 0.890578
O O15 0.175536 0.252015 0.780466
O O16 0.250000 0.750000 0.918959
O O17 0.200785 0.000000 0.932738
O O18 0.191310 0.762654 0.000000
O O19 0.300770 0.500000 0.274830
O O20 0.250000 0.250000 0.280923
#
# Coordination Sequence:
#
# PCOD9491613 Si02
#       7
#    16   8  16  16  16  16  16
#     4   8  15  29  50  77 106 135 168 208 255 305
#     4  10  22  40  57  76 101 137 182 223 265 314
#     4   9  17  32  55  80 106 136 172 213 258 312
#     4  10  21  36  54  76 104 136 173 219 265 315
#     4  11  20  32  54  80 106 136 170 213 261 309
#     4  10  21  37  55  75 104 141 179 218 257 303
#     4  11  22  34  49  73 104 135 169 212 261 313
#
# _framework density 17.547554999999999
#
# number of rings (size 3 to 8) (size 9 to 14) (size 15 to 20)
#    0.000    2.154    1.538    3.231    0.000    2.462 
#    0.000    0.385    0.000    4.615    0.000    3.231 
#    0.000    0.000    0.000    0.000    0.000    0.000 
#
# Total GULP energy -290214.396487 kJ/mol
# GULP energy per Si atom -5581.046086 kJ/mol
# Density = 1.750762 g / cm^3
# Si number density = 17.547555 Si / 1000 Ang^3
#
#
#
# Elastic Constant Matrix: (Units=GPa)
#
#
# Indices 1 2 3 4 5 6 
#
# 1 179.7985 22.0734 78.1630 0.0000 0.0000 0.0000
# 2 22.0734 22.5387 19.2184 0.0000 0.0000 0.0000
# 3 78.1630 19.2184 92.7325 0.0000 0.0000 0.0000
# 4 0.0000 0.0000 0.0000 3.9086 0.0000 0.0000
# 5 0.0000 0.0000 0.0000 0.0000 32.7643 0.0000
# 6 0.0000 0.0000 0.0000 0.0000 0.0000 22.1160
#
#
#
# Elastic Compliance Matrix: (Units=1/GPa)
#
#
# Indices 1 2 3 4 5 6 
#
# 1 0.008924 -0.002825 -0.006936 0.000000 0.000000 0.000000
# 2 -0.002825 0.054786 -0.008973 0.000000 0.000000 0.000000
# 3 -0.006936 -0.008973 0.018490 0.000000 0.000000 0.000000
# 4 0.000000 0.000000 0.000000 0.255844 0.000000 0.000000
# 5 0.000000 0.000000 0.000000 0.000000 0.030521 0.000000
# 6 0.000000 0.000000 0.000000 0.000000 0.000000 0.045216
#
#
# Mechanical properties :
#
#
# Convention : Reuss Voigt Hill
#
# Bulk Modulus (GPa) = 22.35582 59.33102 40.84342
# Shear Modulus (GPa) = 10.72592 23.46545 17.09568
#
# Velocity S-wave (km/s) = 2.47503 3.66081 3.12468
# Velocity P-wave (km/s) = 4.57553 7.19400 6.02864
#
# Compressibility (1/GPa) = 0.04473109
#
# Stress axis : x y z
#
# Youngs Moduli (GPa) = 112.05622 18.25280 54.08345
#
# Poissons Ratio (x) = 0.05157 0.37515
# Poissons Ratio (y) = 0.31659 0.48528
# Poissons Ratio (z) = 0.77728 0.16378
#
# Static dielectric constant tensor:
#      x y z
#    x 1.595180 0.000000 0.000000 
#    y 0.000000 1.600420 0.000000 
#    z 0.000000 0.000000 1.583140 
# 
# From -- ./inp_files/60413.got.cif
#   From: 2010.05.17/outbox.cif.g08.bks.cpg/sg65_31_cif.got.tgz:60413.got - 2010.06.03 17:01:31.
