data_PCOD9491962
_publ_section_title
;
Structure prediction by ZEFSAII (Michael W. Deem and Ramdas Pophale) SiO2 
 PCOD9491962
Probable space group: C M M M
;
_chemical_formula_sum "Si O2"
_cell_formula_units_Z 72
_cell_length_a 10.074161
_cell_length_b 16.504416
_cell_length_c 22.268156
_cell_angle_alpha 90.000000
_cell_angle_beta 90.000000
_cell_angle_gamma 90.000000
_cell_volume 3702.484968
_symmetry_space_group_name_H-M "C M M M"
_symmetry_group_IT_number 65
_symmetry_cell_setting 'orthorhombic'
loop_
_space_group_symop_operation_xyz
x,y,z
-x,-y,z
x,-y,-z
-x,y,-z
-x,-y,-z
x,y,-z
-x,y,z
x,-y,z
1/2+x,1/2+y,z
1/2-x,1/2-y,z
1/2+x,1/2-y,-z
1/2-x,1/2+y,-z
1/2-x,1/2-y,-z
1/2+x,1/2+y,-z
1/2-x,1/2+y,z
1/2+x,1/2-y,z
loop_
_atom_site_type_symbol
_atom_site_label
_atom_site_fract_x
_atom_site_fract_y
_atom_site_fract_z
Si Si1 0.849689 0.597480 0.129133
Si Si2 0.232567 0.407324 0.360705
Si Si3 0.845050 0.673752 0.000000
Si Si4 0.000000 0.317691 0.570346
Si Si5 0.846391 0.900907 0.233260
Si Si6 0.500000 0.376863 0.430546
O O1 0.849475 0.500000 0.131466
O O2 0.822365 0.623985 0.061054
O O3 0.738523 0.626439 0.175829
O O4 0.000000 0.624519 0.145231
O O5 0.182440 0.500000 0.356336
O O6 0.127623 0.352847 0.395626
O O7 0.270374 0.377274 0.294154
O O8 0.369362 0.407268 0.397395
O O9 0.750000 0.750000 0.000000
O O10 0.000000 0.698016 0.000000
O O11 0.000000 0.220780 0.572541
O O12 0.000000 0.342142 0.500000
O O13 0.000000 0.874006 0.232939
O O14 0.849212 0.000000 0.233447
O O15 0.500000 0.400661 0.500000
#
# Coordination Sequence:
#
# PCOD9491962 Si02
#       6
#    16  16   8   8  16   8
#     4   9  18  34  60  86 110 146 191 232 276 334
#     4  11  22  38  62  89 116 148 194 248 296 344
#     4  10  21  37  55  81 119 154 188 232 280 326
#     4  11  25  41  57  83 121 156 191 240 299 357
#     4   9  18  34  56  85 115 142 181 236 287 334
#     4  11  23  41  61  81 113 158 197 234 291 361
#
# _framework density 19.446399
#
# number of rings (size 3 to 8) (size 9 to 14) (size 15 to 20)
#    0.000    2.000    1.111    2.333    1.556    6.667 
#    0.000    2.222    0.000    3.333    0.000    0.000 
#    0.000    0.000    0.000    0.000    0.000    0.000 
#
# Total GULP energy -201080.383180 kJ/mol
# GULP energy per Si atom -5585.566199 kJ/mol
# Density = 1.940214 g / cm^3
# Si number density = 19.446399 Si / 1000 Ang^3
#
#
#
# Elastic Constant Matrix: (Units=GPa)
#
#
# Indices 1 2 3 4 5 6 
#
# 1 113.9984 27.0644 84.3843 0.0000 0.0000 0.0000
# 2 27.0644 34.5184 23.1518 0.0000 0.0000 0.0000
# 3 84.3843 23.1518 168.1696 0.0000 0.0000 0.0000
# 4 0.0000 0.0000 0.0000 92.7315 0.0000 0.0000
# 5 0.0000 0.0000 0.0000 0.0000 40.9540 0.0000
# 6 0.0000 0.0000 0.0000 0.0000 0.0000 26.4013
#
#
#
# Elastic Compliance Matrix: (Units=1/GPa)
#
#
# Indices 1 2 3 4 5 6 
#
# 1 0.015615 -0.007699 -0.006776 0.000000 0.000000 0.000000
# 2 -0.007699 0.035713 -0.001053 0.000000 0.000000 0.000000
# 3 -0.006776 -0.001053 0.009491 0.000000 0.000000 0.000000
# 4 0.000000 0.000000 0.000000 0.010784 0.000000 0.000000
# 5 0.000000 0.000000 0.000000 0.000000 0.024418 0.000000
# 6 0.000000 0.000000 0.000000 0.000000 0.000000 0.037877
#
#
# Mechanical properties :
#
#
# Convention : Reuss Voigt Hill
#
# Bulk Modulus (GPa) = 33.59791 65.09859 49.34825
# Shear Modulus (GPa) = 28.59190 44.15641 36.37416
#
# Velocity S-wave (km/s) = 3.83860 4.77033 4.32960
# Velocity P-wave (km/s) = 6.07957 7.99312 7.10110
#
# Compressibility (1/GPa) = 0.02976376
#
# Stress axis : x y z
#
# Youngs Moduli (GPa) = 64.03999 28.00109 105.36027
#
# Poissons Ratio (x) = 0.21558 0.71387
# Poissons Ratio (y) = 0.49303 0.11099
# Poissons Ratio (z) = 0.43391 0.02950
#
# Static dielectric constant tensor:
#      x y z
#    x 1.642690 0.000000 0.000000 
#    y 0.000000 1.666250 0.000000 
#    z 0.000000 0.000000 1.664410 
# 
# From -- ./inp_files/59335.got.cif
#   From: 2010.05.17/outbox.cif.g08.bks.cpg/sg65_30_cif.got.tgz:59335.got - 2010.06.03 17:01:31.
