data_PCOD9491315
_publ_section_title
;
Structure prediction by ZEFSAII (Michael W. Deem and Ramdas Pophale) SiO2 
 PCOD9491315
Probable space group: C M M M
;
_chemical_formula_sum "Si O2"
_cell_formula_units_Z 96
_cell_length_a 24.254220
_cell_length_b 15.727600
_cell_length_c 13.067547
_cell_angle_alpha 90.000000
_cell_angle_beta 90.000000
_cell_angle_gamma 90.000000
_cell_volume 4984.755240
_symmetry_space_group_name_H-M "C M M M"
_symmetry_group_IT_number 65
_symmetry_cell_setting 'orthorhombic'
loop_
_space_group_symop_operation_xyz
x,y,z
-x,-y,z
x,-y,-z
-x,y,-z
-x,-y,-z
x,y,-z
-x,y,z
x,-y,z
1/2+x,1/2+y,z
1/2-x,1/2-y,z
1/2+x,1/2-y,-z
1/2-x,1/2+y,-z
1/2-x,1/2-y,-z
1/2+x,1/2+y,-z
1/2-x,1/2+y,z
1/2+x,1/2-y,z
loop_
_atom_site_type_symbol
_atom_site_label
_atom_site_fract_x
_atom_site_fract_y
_atom_site_fract_z
Si Si1 0.719321 0.839933 0.191378
Si Si2 0.937518 0.731132 0.667374
Si Si3 0.391081 0.236169 0.888509
Si Si4 0.330598 0.406345 0.835703
Si Si5 0.377256 0.403155 0.384995
Si Si6 0.656785 0.097964 0.386219
O O1 0.750000 0.750000 0.209098
O O2 0.663454 0.821587 0.129407
O O3 0.766531 0.894888 0.138079
O O4 0.699874 0.879437 0.298068
O O5 0.929889 0.726210 0.790467
O O6 0.919682 0.825912 0.632253
O O7 0.893906 0.663374 0.624232
O O8 0.000000 0.713540 0.637608
O O9 0.367034 0.331946 0.882524
O O10 0.415305 0.219859 0.000000
O O11 0.350233 0.500000 0.863053
O O12 0.336114 0.396402 0.711605
O O13 0.353654 0.393846 0.500000
O O14 0.400376 0.500000 0.379291
O O15 0.680672 0.106851 0.500000
O O16 0.638701 0.000000 0.373417
#
# Coordination Sequence:
#
# PCOD9491315 Si02
#       6
#    16  16  16  16  16  16
#     4   9  18  31  50  74 101 133 168 204 240 285
#     4  10  21  36  54  74  96 127 169 215 259 304
#     4   9  19  35  51  69  95 125 161 208 258 302
#     4   9  17  29  47  73 103 133 164 196 235 290
#     4   9  18  32  50  75 107 138 167 202 244 292
#     4  10  21  35  51  75 107 139 169 203 246 295
#
# _framework density 19.258718999999999
#
# number of rings (size 3 to 8) (size 9 to 14) (size 15 to 20)
#    0.000    2.667    0.000    2.000    0.000    6.667 
#    0.000    3.333    0.000   12.000    0.000    9.333 
#    0.000    0.000    0.000    0.000    0.000    0.000 
#
# Total GULP energy -267556.145944 kJ/mol
# GULP energy per Si atom -5574.086374 kJ/mol
# Density = 1.921489 g / cm^3
# Si number density = 19.258719 Si / 1000 Ang^3
#
#
#
# Elastic Constant Matrix: (Units=GPa)
#
#
# Indices 1 2 3 4 5 6 
#
# 1 35.4275 -2.6430 -17.5808 0.0000 0.0000 0.0000
# 2 -2.6430 53.7390 13.3751 0.0000 0.0000 0.0000
# 3 -17.5808 13.3751 99.1984 0.0000 0.0000 0.0000
# 4 0.0000 0.0000 0.0000 -42.8256 0.0000 0.0000
# 5 0.0000 0.0000 0.0000 0.0000 -4.2172 0.0000
# 6 0.0000 0.0000 0.0000 0.0000 0.0000 5.9510
#
#
#
# Elastic Compliance Matrix: (Units=1/GPa)
#
#
# Indices 1 2 3 4 5 6 
#
# 1 0.030950 0.000162 0.005463 0.000000 0.000000 0.000000
# 2 0.000162 0.019255 -0.002567 0.000000 0.000000 0.000000
# 3 0.005463 -0.002567 0.011395 0.000000 0.000000 0.000000
# 4 0.000000 0.000000 0.000000 -0.023351 0.000000 0.000000
# 5 0.000000 0.000000 0.000000 0.000000 -0.237122 0.000000
# 6 0.000000 0.000000 0.000000 0.000000 0.000000 0.168040
#
#
# Mechanical properties :
#
#
# Convention : Reuss Voigt Hill
#
# Bulk Modulus (GPa) = 14.76732 19.40752 17.08742
# Shear Modulus (GPa) = -347.77945 4.79586 -171.49179
#
# Velocity S-wave (km/s) = -13.45269 1.57976 -9.44667
# Velocity P-wave (km/s) = 15.28448 3.66424 10.49258
#
# Compressibility (1/GPa) = 0.06771708
#
# Stress axis : x y z
#
# Youngs Moduli (GPa) = 32.31030 51.93327 87.75594
#
# Poissons Ratio (x) = -0.00843 -0.47944
# Poissons Ratio (y) = -0.00525 0.22531
# Poissons Ratio (z) = -0.17652 0.13334
#
# Static dielectric constant tensor:
#      x y z
#    x 1.627790 0.000000 0.000000 
#    y 0.000000 1.687280 0.000000 
#    z 0.000000 0.000000 1.702750 
# 
# From -- ./inp_files/32434.got.cif
#   From: 2010.05.17/outbox.cif.g08.bks.cpg/sg65_17_cif.got.tgz:32434.got - 2010.06.03 17:01:31.
