data_PCOD9491450
_publ_section_title
;
Structure prediction by ZEFSAII (Michael W. Deem and Ramdas Pophale) SiO2 
 PCOD9491450
Probable space group: C M M M
;
_chemical_formula_sum "Si O2"
_cell_formula_units_Z 64
_cell_length_a 16.432523
_cell_length_b 8.932823
_cell_length_c 24.110662
_cell_angle_alpha 90.000000
_cell_angle_beta 90.000000
_cell_angle_gamma 90.000000
_cell_volume 3539.175610
_symmetry_space_group_name_H-M "C M M M"
_symmetry_group_IT_number 65
_symmetry_cell_setting 'orthorhombic'
loop_
_space_group_symop_operation_xyz
x,y,z
-x,-y,z
x,-y,-z
-x,y,-z
-x,-y,-z
x,y,-z
-x,y,z
x,-y,z
1/2+x,1/2+y,z
1/2-x,1/2-y,z
1/2+x,1/2-y,-z
1/2-x,1/2+y,-z
1/2-x,1/2-y,-z
1/2+x,1/2+y,-z
1/2-x,1/2+y,z
1/2+x,1/2-y,z
loop_
_atom_site_type_symbol
_atom_site_label
_atom_site_fract_x
_atom_site_fract_y
_atom_site_fract_z
Si Si1 0.835769 0.830382 0.339188
Si Si2 0.902977 0.000000 0.436986
Si Si3 0.594703 0.176238 0.765129
Si Si4 0.664962 0.320390 0.872012
Si Si5 0.500000 0.682021 0.936082
O O1 0.750000 0.750000 0.343469
O O2 0.873434 0.859423 0.399926
O O3 0.889995 0.739125 0.296222
O O4 0.825547 0.000000 0.316609
O O5 0.872550 0.000000 0.500000
O O6 0.000000 0.000000 0.437793
O O7 0.500000 0.198415 0.779530
O O8 0.648878 0.264106 0.809466
O O9 0.613201 0.000000 0.767449
O O10 0.670362 0.500000 0.873724
O O11 0.750000 0.250000 0.892150
O O12 0.584059 0.271957 0.906085
O O13 0.500000 0.500000 0.934759
O O14 0.500000 0.730181 0.000000
#
# Coordination Sequence:
#
# PCOD9491450 Si02
#       5
#    16   8  16  16   8
#     4  10  21  35  57  84 117 151 192 239 291 352
#     4   9  20  38  60  84 113 155 199 243 287 350
#     4  11  22  36  58  86 121 156 193 246 302 357
#     4  11  22  38  61  89 121 159 201 247 301 358
#     4   9  20  40  63  87 119 161 205 246 293 354
#
# _framework density 18.083307999999999
#
# number of rings (size 3 to 8) (size 9 to 14) (size 15 to 20)
#    0.750    1.000    1.250    3.750    0.000    2.000 
#    0.000    0.000    0.000    5.250    0.000    5.250 
#    0.000    0.000    0.000    0.000    0.000    0.000 
#
# Total GULP energy -178424.083260 kJ/mol
# GULP energy per Si atom -5575.752602 kJ/mol
# Density = 1.804215 g / cm^3
# Si number density = 18.083308 Si / 1000 Ang^3
#
#
#
# Elastic Constant Matrix: (Units=GPa)
#
#
# Indices 1 2 3 4 5 6 
#
# 1 119.7060 48.8524 47.8732 0.0000 0.0000 0.0000
# 2 48.8524 64.2961 18.2721 0.0000 0.0000 0.0000
# 3 47.8732 18.2721 106.8302 0.0000 0.0000 0.0000
# 4 0.0000 0.0000 0.0000 31.4012 0.0000 0.0000
# 5 0.0000 0.0000 0.0000 0.0000 13.3654 0.0000
# 6 0.0000 0.0000 0.0000 0.0000 0.0000 27.3024
#
#
#
# Elastic Compliance Matrix: (Units=1/GPa)
#
#
# Indices 1 2 3 4 5 6 
#
# 1 0.014041 -0.009334 -0.004696 0.000000 0.000000 0.000000
# 2 -0.009334 0.022552 0.000325 0.000000 0.000000 0.000000
# 3 -0.004696 0.000325 0.011409 0.000000 0.000000 0.000000
# 4 0.000000 0.000000 0.000000 0.031846 0.000000 0.000000
# 5 0.000000 0.000000 0.000000 0.000000 0.074820 0.000000
# 6 0.000000 0.000000 0.000000 0.000000 0.000000 0.036627
#
#
# Mechanical properties :
#
#
# Convention : Reuss Voigt Hill
#
# Bulk Modulus (GPa) = 48.55692 57.86974 53.21333
# Shear Modulus (GPa) = 22.16623 26.13610 24.15117
#
# Velocity S-wave (km/s) = 3.50492 3.80586 3.65848
# Velocity P-wave (km/s) = 6.57946 7.16826 6.88016
#
# Compressibility (1/GPa) = 0.02059439
#
# Stress axis : x y z
#
# Youngs Moduli (GPa) = 71.22076 44.34107 87.64856
#
# Poissons Ratio (x) = 0.41387 0.41156
# Poissons Ratio (y) = 0.66476 -0.02852
# Poissons Ratio (z) = 0.33442 -0.01443
#
# Static dielectric constant tensor:
#      x y z
#    x 1.624960 0.000000 0.000000 
#    y 0.000000 1.604130 0.000000 
#    z 0.000000 0.000000 1.618870 
# 
# From -- ./inp_files/74534.got.cif
#   From: 2010.05.17/outbox.cif.g08.bks.cpg/sg65_38_cif.got.tgz:74534.got - 2010.06.03 17:01:31.
