data_PCOD9491823
_publ_section_title
;
Structure prediction by ZEFSAII (Michael W. Deem and Ramdas Pophale) SiO2 
 PCOD9491823
Probable space group: C M M M
;
_chemical_formula_sum "Si O2"
_cell_formula_units_Z 68
_cell_length_a 7.274864
_cell_length_b 17.185005
_cell_length_c 23.881188
_cell_angle_alpha 90.000000
_cell_angle_beta 90.000000
_cell_angle_gamma 90.000000
_cell_volume 2985.592074
_symmetry_space_group_name_H-M "C M M M"
_symmetry_group_IT_number 65
_symmetry_cell_setting 'orthorhombic'
loop_
_space_group_symop_operation_xyz
x,y,z
-x,-y,z
x,-y,-z
-x,y,-z
-x,-y,-z
x,y,-z
-x,y,z
x,-y,z
1/2+x,1/2+y,z
1/2-x,1/2-y,z
1/2+x,1/2-y,-z
1/2-x,1/2+y,-z
1/2-x,1/2-y,-z
1/2+x,1/2+y,-z
1/2-x,1/2+y,z
1/2+x,1/2-y,z
loop_
_atom_site_type_symbol
_atom_site_label
_atom_site_fract_x
_atom_site_fract_y
_atom_site_fract_z
Si Si1 0.000000 0.151177 0.000000
Si Si2 0.218903 0.342482 0.438980
Si Si3 0.279509 0.909017 0.089930
Si Si4 0.282389 0.159685 0.793359
Si Si5 0.776270 0.589775 0.678074
O O1 0.839026 0.143183 0.951364
O O2 0.289750 0.368922 0.500000
O O3 0.250000 0.250000 0.435473
O O4 0.290157 0.380585 0.382181
O O5 0.000000 0.356132 0.439851
O O6 0.500000 0.895485 0.084393
O O7 0.222181 0.891304 0.153812
O O8 0.244836 0.000000 0.076159
O O9 0.500000 0.146411 0.790327
O O10 0.250000 0.250000 0.805289
O O11 0.210020 0.137331 0.732087
O O12 0.729334 0.500000 0.686032
O O13 0.000000 0.595543 0.676572
#
# Coordination Sequence:
#
# PCOD9491823 Si02
#       5
#     4  16  16  16  16
#     4  12  23  38  66  94 118 152 187 234 289 338
#     4   9  17  29  48  75 107 144 185 227 275 332
#     4  10  21  38  61  88 117 150 192 234 281 342
#     4  10  21  36  57  79 108 144 183 228 282 336
#     4   9  17  31  52  78 106 140 184 232 283 331
#
# _framework density 22.776050999999999
#
# number of rings (size 3 to 8) (size 9 to 14) (size 15 to 20)
#    0.000    2.353    0.000    2.824    1.647    4.235 
#    0.000    2.941    0.000    2.118    0.000    3.294 
#    0.000    0.000    0.000    0.000    0.000    0.000 
#
# Total GULP energy -189447.604445 kJ/mol
# GULP energy per Si atom -5571.988366 kJ/mol
# Density = 2.272421 g / cm^3
# Si number density = 22.776051 Si / 1000 Ang^3
#
#
#
# Elastic Constant Matrix: (Units=GPa)
#
#
# Indices 1 2 3 4 5 6 
#
# 1 110.7311 -7.9219 24.7205 0.0000 0.0000 0.0000
# 2 -7.9219 23.0451 7.2164 0.0000 0.0000 0.0000
# 3 24.7205 7.2164 158.2080 0.0000 0.0000 0.0000
# 4 0.0000 0.0000 0.0000 -116.3169 0.0000 0.0000
# 5 0.0000 0.0000 0.0000 0.0000 186.6673 0.0000
# 6 0.0000 0.0000 0.0000 0.0000 0.0000 8.8945
#
#
#
# Elastic Compliance Matrix: (Units=1/GPa)
#
#
# Indices 1 2 3 4 5 6 
#
# 1 0.009684 0.003858 -0.001689 0.000000 0.000000 0.000000
# 2 0.003858 0.045559 -0.002681 0.000000 0.000000 0.000000
# 3 -0.001689 -0.002681 0.006707 0.000000 0.000000 0.000000
# 4 0.000000 0.000000 0.000000 -0.008597 0.000000 0.000000
# 5 0.000000 0.000000 0.000000 0.000000 0.005357 0.000000
# 6 0.000000 0.000000 0.000000 0.000000 0.000000 0.112428
#
#
# Mechanical properties :
#
#
# Convention : Reuss Voigt Hill
#
# Bulk Modulus (GPa) = 16.41346 37.77935 27.09641
# Shear Modulus (GPa) = 25.97792 33.71360 29.84576
#
# Velocity S-wave (km/s) = 3.38091 3.85154 3.62387
# Velocity P-wave (km/s) = 4.73950 6.03344 5.42519
#
# Compressibility (1/GPa) = 0.06092559
#
# Stress axis : x y z
#
# Youngs Moduli (GPa) = 103.26335 21.94960 149.09772
#
# Poissons Ratio (x) = -0.08468 0.25184
# Poissons Ratio (y) = -0.39838 0.39972
# Poissons Ratio (z) = 0.17442 0.05884
#
# Static dielectric constant tensor:
#      x y z
#    x 1.862630 0.000000 0.000000 
#    y 0.000000 1.795960 0.000000 
#    z 0.000000 0.000000 1.845820 
# 
# From -- ./inp_files/58967.got.cif
#   From: 2010.05.17/outbox.cif.g08.bks.cpg/sg65_30_cif.got.tgz:58967.got - 2010.06.03 17:01:31.
