data_PCOD9491397
_publ_section_title
;
Structure prediction by ZEFSAII (Michael W. Deem and Ramdas Pophale) SiO2 
 PCOD9491397
Probable space group: C M M M
;
_chemical_formula_sum "Si O2"
_cell_formula_units_Z 56
_cell_length_a 19.535871
_cell_length_b 10.118190
_cell_length_c 12.945658
_cell_angle_alpha 90.000000
_cell_angle_beta 90.000000
_cell_angle_gamma 90.000000
_cell_volume 2558.937854
_symmetry_space_group_name_H-M "C M M M"
_symmetry_group_IT_number 65
_symmetry_cell_setting 'orthorhombic'
loop_
_space_group_symop_operation_xyz
x,y,z
-x,-y,z
x,-y,-z
-x,y,-z
-x,-y,-z
x,y,-z
-x,y,z
x,-y,z
1/2+x,1/2+y,z
1/2-x,1/2-y,z
1/2+x,1/2-y,-z
1/2-x,1/2+y,-z
1/2-x,1/2-y,-z
1/2+x,1/2+y,-z
1/2-x,1/2+y,z
1/2+x,1/2-y,z
loop_
_atom_site_type_symbol
_atom_site_label
_atom_site_fract_x
_atom_site_fract_y
_atom_site_fract_z
Si Si1 0.190275 0.855275 0.500000
Si Si2 0.420023 0.855818 0.838615
Si Si3 0.424023 0.232226 0.612121
Si Si4 0.805891 0.149597 0.121475
O O1 0.250000 0.750000 0.500000
O O2 0.138786 0.832369 0.403203
O O3 0.219786 0.000000 0.500000
O O4 0.500000 0.845169 0.867080
O O5 0.416021 0.852213 0.713940
O O6 0.376740 0.730165 0.873133
O O7 0.394170 0.000000 0.874766
O O8 0.422497 0.161048 0.500000
O O9 0.500000 0.295131 0.619415
O O10 0.750000 0.250000 0.169433
O O11 0.807533 0.000000 0.163959
O O12 0.788913 0.136480 0.000000
#
# Coordination Sequence:
#
# PCOD9491397 Si02
#       4
#     8  16  16  16
#     4  10  21  35  53  79 109 144 188 238 290 338
#     4  10  21  37  60  91 122 155 196 241 292 347
#     4   8  18  37  58  81 111 152 199 242 279 329
#     4  10  22  41  64  88 116 153 195 241 296 355
#
# _framework density 21.884080000000001
#
# number of rings (size 3 to 8) (size 9 to 14) (size 15 to 20)
#    0.857    1.714    0.000    0.857    0.000    8.000 
#    0.000    8.571    0.000    0.000    0.000    0.000 
#    0.000    0.000    0.000    0.000    0.000    0.000 
#
# Total GULP energy -155880.332710 kJ/mol
# GULP energy per Si atom -5567.154740 kJ/mol
# Density = 2.183427 g / cm^3
# Si number density = 21.884080 Si / 1000 Ang^3
#
#
#
# Elastic Constant Matrix: (Units=GPa)
#
#
# Indices 1 2 3 4 5 6 
#
# 1 105.2495 89.8450 -3.7044 0.0000 0.0000 0.0000
# 2 89.8450 212.0012 10.5222 0.0000 0.0000 0.0000
# 3 -3.7044 10.5222 54.2560 0.0000 0.0000 0.0000
# 4 0.0000 0.0000 0.0000 -0.3569 0.0000 0.0000
# 5 0.0000 0.0000 0.0000 0.0000 69.5643 0.0000
# 6 0.0000 0.0000 0.0000 0.0000 0.0000 23.9598
#
#
#
# Elastic Compliance Matrix: (Units=1/GPa)
#
#
# Indices 1 2 3 4 5 6 
#
# 1 0.015167 -0.006542 0.002304 0.000000 0.000000 0.000000
# 2 -0.006542 0.007585 -0.001918 0.000000 0.000000 0.000000
# 3 0.002304 -0.001918 0.018960 0.000000 0.000000 0.000000
# 4 0.000000 0.000000 0.000000 -2.802290 0.000000 0.000000
# 5 0.000000 0.000000 0.000000 0.000000 0.014375 0.000000
# 6 0.000000 0.000000 0.000000 0.000000 0.000000 0.041737
#
#
# Mechanical properties :
#
#
# Convention : Reuss Voigt Hill
#
# Bulk Modulus (GPa) = 34.01227 62.75915 48.38571
# Shear Modulus (GPa) = -1.86403 36.95636 17.54616
#
# Velocity S-wave (km/s) = -0.92392 4.11388 2.83464
# Velocity P-wave (km/s) = 3.79968 7.16279 5.73337
#
# Compressibility (1/GPa) = 0.02940116
#
# Stress axis : x y z
#
# Youngs Moduli (GPa) = 65.93337 131.84626 52.74159
#
# Poissons Ratio (x) = 0.86254 -0.12153
# Poissons Ratio (y) = 0.43134 0.10114
# Poissons Ratio (z) = -0.15193 0.25283
#
# Static dielectric constant tensor:
#      x y z
#    x 1.828020 0.000000 0.000000 
#    y 0.000000 1.799090 0.000000 
#    z 0.000000 0.000000 1.869320 
# 
# From -- ./inp_files/41807.got.cif
#   From: 2010.05.17/outbox.cif.g08.bks.cpg/sg65_21_cif.got.tgz:41807.got - 2010.06.03 17:01:31.
