data_PCOD9491647
_publ_section_title
;
Structure prediction by ZEFSAII (Michael W. Deem and Ramdas Pophale) SiO2 
 PCOD9491647
Probable space group: C M M M
;
_chemical_formula_sum "Si O2"
_cell_formula_units_Z 88
_cell_length_a 9.238570
_cell_length_b 18.928835
_cell_length_c 28.780939
_cell_angle_alpha 90.000000
_cell_angle_beta 90.000000
_cell_angle_gamma 90.000000
_cell_volume 5033.077275
_symmetry_space_group_name_H-M "C M M M"
_symmetry_group_IT_number 65
_symmetry_cell_setting 'orthorhombic'
loop_
_space_group_symop_operation_xyz
x,y,z
-x,-y,z
x,-y,-z
-x,y,-z
-x,-y,-z
x,y,-z
-x,y,z
x,-y,z
1/2+x,1/2+y,z
1/2-x,1/2-y,z
1/2+x,1/2-y,-z
1/2-x,1/2+y,-z
1/2-x,1/2-y,-z
1/2+x,1/2+y,-z
1/2-x,1/2+y,z
1/2+x,1/2-y,z
loop_
_atom_site_type_symbol
_atom_site_label
_atom_site_fract_x
_atom_site_fract_y
_atom_site_fract_z
Si Si1 0.172734 0.916208 0.736295
Si Si2 0.666223 0.585922 0.000000
Si Si3 0.831245 0.915485 0.629031
Si Si4 0.326370 0.174193 0.815005
Si Si5 0.328119 0.825261 0.447210
Si Si6 0.827359 0.582636 0.093648
O O1 0.205242 0.897838 0.682562
O O2 0.263831 0.870005 0.771823
O O3 0.000000 0.905614 0.743355
O O4 0.201219 0.000000 0.742678
O O5 0.746522 0.607420 0.952821
O O6 0.669414 0.500000 0.000000
O O7 0.500000 0.608880 0.000000
O O8 0.733358 0.877012 0.591612
O O9 0.000000 0.896614 0.621467
O O10 0.819191 0.000000 0.624693
O O11 0.500000 0.181561 0.811407
O O12 0.250000 0.250000 0.816665
O O13 0.293171 0.129948 0.861784
O O14 0.298571 0.850915 0.500000
O O15 0.500000 0.816514 0.442396
O O16 0.250000 0.750000 0.442119
O O17 0.789560 0.500000 0.102440
O O18 0.000000 0.585331 0.085694
#
# Coordination Sequence:
#
# PCOD9491647 Si02
#       6
#    16   8  16  16  16  16
#     4   9  19  37  59  81 106 137 174 217 264 314
#     4   9  17  29  50  81 108 131 167 213 258 307
#     4   9  19  36  57  81 108 138 173 214 263 317
#     4  11  23  37  54  78 108 142 180 219 263 315
#     4  10  21  36  54  77 106 141 180 220 262 310
#     4   9  18  34  55  77 103 136 173 214 260 310
#
# _framework density 17.484332999999999
#
# number of rings (size 3 to 8) (size 9 to 14) (size 15 to 20)
#    0.000    2.455    0.000    3.000    0.000    6.909 
#    0.000    5.909    0.000    0.000    0.000    0.000 
#    0.000    0.000    0.000    0.000    0.000    0.000 
#
# Total GULP energy -245528.977582 kJ/mol
# GULP energy per Si atom -5580.204036 kJ/mol
# Density = 1.744454 g / cm^3
# Si number density = 17.484333 Si / 1000 Ang^3
#
#
#
# Elastic Constant Matrix: (Units=GPa)
#
#
# Indices 1 2 3 4 5 6 
#
# 1 85.4727 61.9505 101.5707 0.0000 0.0000 0.0000
# 2 61.9505 73.1127 85.4528 0.0000 0.0000 0.0000
# 3 101.5707 85.4528 168.5606 0.0000 0.0000 0.0000
# 4 0.0000 0.0000 0.0000 -64.6068 0.0000 0.0000
# 5 0.0000 0.0000 0.0000 0.0000 31.6923 0.0000
# 6 0.0000 0.0000 0.0000 0.0000 0.0000 26.7439
#
#
#
# Elastic Compliance Matrix: (Units=1/GPa)
#
#
# Indices 1 2 3 4 5 6 
#
# 1 0.048551 -0.017044 -0.020615 0.000000 0.000000 0.000000
# 2 -0.017044 0.039550 -0.009780 0.000000 0.000000 0.000000
# 3 -0.020615 -0.009780 0.023312 0.000000 0.000000 0.000000
# 4 0.000000 0.000000 0.000000 -0.015478 0.000000 0.000000
# 5 0.000000 0.000000 0.000000 0.000000 0.031553 0.000000
# 6 0.000000 0.000000 0.000000 0.000000 0.000000 0.037392
#
#
# Mechanical properties :
#
#
# Convention : Reuss Voigt Hill
#
# Bulk Modulus (GPa) = 60.47526 91.67710 76.07618
# Shear Modulus (GPa) = 18.84882 3.97735 11.41309
#
# Velocity S-wave (km/s) = 3.28691 1.50988 2.55769
# Velocity P-wave (km/s) = 7.00489 7.45569 7.23380
#
# Compressibility (1/GPa) = 0.01653569
#
# Stress axis : x y z
#
# Youngs Moduli (GPa) = 20.59702 25.28471 42.89551
#
# Poissons Ratio (x) = 0.43095 0.88429
# Poissons Ratio (y) = 0.35106 0.41950
# Poissons Ratio (z) = 0.42461 0.24727
#
# Static dielectric constant tensor:
#      x y z
#    x 1.579650 0.000000 0.000000 
#    y 0.000000 1.571650 0.000000 
#    z 0.000000 0.000000 1.578450 
# 
# From -- ./inp_files/76689.got.cif
#   From: 2010.05.17/outbox.cif.g08.bks.cpg/sg65_39_cif.got.tgz:76689.got - 2010.06.03 17:01:31.
