data_PCOD9491970
_publ_section_title
;
Structure prediction by ZEFSAII (Michael W. Deem and Ramdas Pophale) SiO2 
 PCOD9491970
Probable space group: C M M M
;
_chemical_formula_sum "Si O2"
_cell_formula_units_Z 48
_cell_length_a 20.064244
_cell_length_b 17.881859
_cell_length_c 7.320177
_cell_angle_alpha 90.000000
_cell_angle_beta 90.000000
_cell_angle_gamma 90.000000
_cell_volume 2626.376894
_symmetry_space_group_name_H-M "C M M M"
_symmetry_group_IT_number 65
_symmetry_cell_setting 'orthorhombic'
loop_
_space_group_symop_operation_xyz
x,y,z
-x,-y,z
x,-y,-z
-x,y,-z
-x,-y,-z
x,y,-z
-x,y,z
x,-y,z
1/2+x,1/2+y,z
1/2-x,1/2-y,z
1/2+x,1/2-y,-z
1/2-x,1/2+y,-z
1/2-x,1/2-y,-z
1/2+x,1/2+y,-z
1/2-x,1/2+y,z
1/2+x,1/2-y,z
loop_
_atom_site_type_symbol
_atom_site_label
_atom_site_fract_x
_atom_site_fract_y
_atom_site_fract_z
Si Si1 0.500000 0.329407 0.780168
Si Si2 0.000000 0.652823 0.218562
Si Si3 0.133956 0.089120 0.784164
Si Si4 0.396224 0.089993 0.500000
Si Si5 0.255828 0.590709 0.500000
O O1 0.500000 0.241521 0.743772
O O2 0.432149 0.368667 0.717332
O O3 0.500000 0.339148 0.000000
O O4 0.936353 0.618146 0.322245
O O5 0.000000 0.640421 0.000000
O O6 0.199609 0.112392 0.674105
O O7 0.124170 0.000000 0.757829
O O8 0.142440 0.102453 0.000000
O O9 0.319986 0.117397 0.500000
O O10 0.397517 0.000000 0.500000
O O11 0.252138 0.500000 0.500000
#
# Coordination Sequence:
#
# PCOD9491970 Si02
#       5
#     8   8  16   8   8
#     4   9  18  33  52  77 108 137 171 210 241 289
#     4  10  21  37  56  77 101 131 166 209 263 307
#     4   9  17  31  52  77 106 140 172 202 241 289
#     4  10  22  39  56  77 100 123 168 222 258 306
#     4   9  19  33  50  76 104 129 166 213 254 298
#
# _framework density 18.276128
#
# number of rings (size 3 to 8) (size 9 to 14) (size 15 to 20)
#    0.000    2.667    0.000    1.500    0.000    8.000 
#    0.000    9.167    0.000    6.000    0.000    0.000 
#    0.000    0.000    0.000    0.000    0.000    0.000 
#
# Total GULP energy -133864.815555 kJ/mol
# GULP energy per Si atom -5577.700648 kJ/mol
# Density = 1.823453 g / cm^3
# Si number density = 18.276128 Si / 1000 Ang^3
#
#
#
# Elastic Constant Matrix: (Units=GPa)
#
#
# Indices 1 2 3 4 5 6 
#
# 1 215.7605 63.9815 82.9811 0.0000 0.0000 0.0000
# 2 63.9815 50.3485 52.0763 0.0000 0.0000 0.0000
# 3 82.9811 52.0763 123.9477 0.0000 0.0000 0.0000
# 4 0.0000 0.0000 0.0000 16.1701 0.0000 0.0000
# 5 0.0000 0.0000 0.0000 0.0000 14.3344 0.0000
# 6 0.0000 0.0000 0.0000 0.0000 0.0000 -7.0507
#
#
#
# Elastic Compliance Matrix: (Units=1/GPa)
#
#
# Indices 1 2 3 4 5 6 
#
# 1 0.007667 -0.007842 -0.001838 0.000000 0.000000 0.000000
# 2 -0.007842 0.043147 -0.012878 0.000000 0.000000 0.000000
# 3 -0.001838 -0.012878 0.014709 0.000000 0.000000 0.000000
# 4 0.000000 0.000000 0.000000 0.061843 0.000000 0.000000
# 5 0.000000 0.000000 0.000000 0.000000 0.069762 0.000000
# 6 0.000000 0.000000 0.000000 0.000000 0.000000 -0.141830
#
#
# Mechanical properties :
#
#
# Convention : Reuss Voigt Hill
#
# Bulk Modulus (GPa) = 49.00307 87.57050 68.28679
# Shear Modulus (GPa) = 46.63457 17.42527 32.02992
#
# Velocity S-wave (km/s) = 5.05688 3.09114 4.19089
# Velocity P-wave (km/s) = 7.80813 7.79483 7.80149
#
# Compressibility (1/GPa) = 0.02040688
#
# Stress axis : x y z
#
# Youngs Moduli (GPa) = 130.42540 23.17671 67.98417
#
# Poissons Ratio (x) = 0.18175 0.12498
# Poissons Ratio (y) = 1.02278 0.87550
# Poissons Ratio (z) = 0.23977 0.29847
#
# Static dielectric constant tensor:
#      x y z
#    x 1.614590 0.000000 0.000000 
#    y 0.000000 1.610060 0.000000 
#    z 0.000000 0.000000 1.645200 
# 
# From -- ./inp_files/8219.got.cif
#   From: 2010.05.17/outbox.cif.g08.bks.cpg/sg65_5_cif.got.tgz:8219.got - 2010.06.03 17:01:31.
