data_PCOD9491123
_publ_section_title
;
Structure prediction by ZEFSAII (Michael W. Deem and Ramdas Pophale) SiO2 
 PCOD9491123
Probable space group: C M M M
;
_chemical_formula_sum "Si O2"
_cell_formula_units_Z 88
_cell_length_a 16.765451
_cell_length_b 31.366363
_cell_length_c 7.773881
_cell_angle_alpha 90.000000
_cell_angle_beta 90.000000
_cell_angle_gamma 90.000000
_cell_volume 4088.060301
_symmetry_space_group_name_H-M "C M M M"
_symmetry_group_IT_number 65
_symmetry_cell_setting 'orthorhombic'
loop_
_space_group_symop_operation_xyz
x,y,z
-x,-y,z
x,-y,-z
-x,y,-z
-x,-y,-z
x,y,-z
-x,y,z
x,-y,z
1/2+x,1/2+y,z
1/2-x,1/2-y,z
1/2+x,1/2-y,-z
1/2-x,1/2+y,-z
1/2-x,1/2-y,-z
1/2+x,1/2+y,-z
1/2-x,1/2+y,z
1/2+x,1/2-y,z
loop_
_atom_site_type_symbol
_atom_site_label
_atom_site_fract_x
_atom_site_fract_y
_atom_site_fract_z
Si Si1 0.593974 0.454001 0.792881
Si Si2 0.097552 0.389298 0.199243
Si Si3 0.902259 0.451231 0.500000
Si Si4 0.908040 0.860593 0.295055
Si Si5 0.682816 0.719734 0.694677
Si Si6 0.594060 0.795714 0.198570
O O1 0.500000 0.453878 0.742934
O O2 0.627355 0.500000 0.733774
O O3 0.624856 0.408276 0.732464
O O4 0.597342 0.453742 0.000000
O O5 0.124135 0.425276 0.331441
O O6 0.126532 0.341997 0.254677
O O7 0.000000 0.389800 0.203256
O O8 0.120332 0.396085 0.000000
O O9 0.875942 0.500000 0.500000
O O10 0.000000 0.451369 0.500000
O O11 0.912978 0.853250 0.500000
O O12 0.850823 0.823429 0.224401
O O13 0.000000 0.858051 0.227872
O O14 0.710602 0.709803 0.500000
O O15 0.750000 0.750000 0.777961
O O16 0.612527 0.754233 0.692752
O O17 0.500000 0.801140 0.198059
O O18 0.618067 0.788952 0.000000
#
# Coordination Sequence:
#
# PCOD9491123 Si02
#       6
#    16  16   8  16  16  16
#     4   8  14  25  42  66  95 124 154 191 237 287
#     4   8  15  27  41  62  92 121 154 196 237 286
#     4   9  16  24  38  64  93 122 154 186 239 308
#     4   9  17  29  45  67  96 129 165 202 243 292
#     4  10  21  34  47  68  99 132 166 205 249 296
#     4   9  18  32  50  71  93 122 163 204 244 293
#
# _framework density 21.526101000000001
#
# number of rings (size 3 to 8) (size 9 to 14) (size 15 to 20)
#    0.000    3.182    0.000    2.182    1.273    2.909 
#    0.000    5.455    0.000    0.000    0.000    1.273 
#    0.000    0.000    0.000    0.000    0.000    0.182 
#
# Total GULP energy -244939.815791 kJ/mol
# GULP energy per Si atom -5566.813995 kJ/mol
# Density = 2.147711 g / cm^3
# Si number density = 21.526101 Si / 1000 Ang^3
#
#
#
# Elastic Constant Matrix: (Units=GPa)
#
#
# Indices 1 2 3 4 5 6 
#
# 1 22.7702 35.6184 2.9396 0.0000 0.0000 0.0000
# 2 35.6184 215.4375 36.6969 0.0000 0.0000 0.0000
# 3 2.9396 36.6969 45.9429 0.0000 0.0000 0.0000
# 4 0.0000 0.0000 0.0000 -73.0552 0.0000 0.0000
# 5 0.0000 0.0000 0.0000 0.0000 2.4935 0.0000
# 6 0.0000 0.0000 0.0000 0.0000 0.0000 1.0395
#
#
#
# Elastic Compliance Matrix: (Units=1/GPa)
#
#
# Indices 1 2 3 4 5 6 
#
# 1 0.060114 -0.010746 0.004737 0.000000 0.000000 0.000000
# 2 -0.010746 0.007294 -0.005138 0.000000 0.000000 0.000000
# 3 0.004737 -0.005138 0.025567 0.000000 0.000000 0.000000
# 4 0.000000 0.000000 0.000000 -0.013688 0.000000 0.000000
# 5 0.000000 0.000000 0.000000 0.000000 0.401046 0.000000
# 6 0.000000 0.000000 0.000000 0.000000 0.000000 0.962015
#
#
# Mechanical properties :
#
#
# Convention : Reuss Voigt Hill
#
# Bulk Modulus (GPa) = 14.14808 48.29561 31.22185
# Shear Modulus (GPa) = 3.35976 0.02194 1.69085
#
# Velocity S-wave (km/s) = 1.25067 0.10107 0.88724
# Velocity P-wave (km/s) = 2.94489 4.74322 3.94782
#
# Compressibility (1/GPa) = 0.07068096
#
# Stress axis : x y z
#
# Youngs Moduli (GPa) = 16.63499 137.10831 39.11266
#
# Poissons Ratio (x) = 1.47331 -0.18527
# Poissons Ratio (y) = 0.17875 0.20097
# Poissons Ratio (z) = -0.07880 0.70448
#
# Static dielectric constant tensor:
#      x y z
#    x 1.887240 0.000000 0.000000 
#    y 0.000000 1.837870 0.000000 
#    z 0.000000 0.000000 1.803000 
# 
# From -- ./inp_files/10099.got.cif
#   From: 2010.05.17/outbox.cif.g08.bks.cpg/sg65_6_cif.got.tgz:10099.got - 2010.06.03 17:01:31.
