data_PCOD9491982
_publ_section_title
;
Structure prediction by ZEFSAII (Michael W. Deem and Ramdas Pophale) SiO2 
 PCOD9491982
Probable space group: C M M M
;
_chemical_formula_sum "Si O2"
_cell_formula_units_Z 80
_cell_length_a 18.883349
_cell_length_b 8.331062
_cell_length_c 27.022546
_cell_angle_alpha 90.000000
_cell_angle_beta 90.000000
_cell_angle_gamma 90.000000
_cell_volume 4251.142384
_symmetry_space_group_name_H-M "C M M M"
_symmetry_group_IT_number 65
_symmetry_cell_setting 'orthorhombic'
loop_
_space_group_symop_operation_xyz
x,y,z
-x,-y,z
x,-y,-z
-x,y,-z
-x,-y,-z
x,y,-z
-x,y,z
x,-y,z
1/2+x,1/2+y,z
1/2-x,1/2-y,z
1/2+x,1/2-y,-z
1/2-x,1/2+y,-z
1/2-x,1/2-y,-z
1/2+x,1/2+y,-z
1/2-x,1/2+y,z
1/2+x,1/2-y,z
loop_
_atom_site_type_symbol
_atom_site_label
_atom_site_fract_x
_atom_site_fract_y
_atom_site_fract_z
Si Si1 0.168913 0.694374 0.892444
Si Si2 0.418164 0.196260 0.500000
Si Si3 0.581751 0.691790 0.689873
Si Si4 0.081861 0.306086 0.202482
Si Si5 0.168339 0.693742 0.000000
Si Si6 0.830603 0.308214 0.403928
O O1 0.167646 0.500000 0.891887
O O2 0.250000 0.750000 0.889026
O O3 0.125922 0.751613 0.844759
O O4 0.139301 0.746931 0.946470
O O5 0.500000 0.248423 0.500000
O O6 0.376236 0.249797 0.548914
O O7 0.418588 0.000000 0.500000
O O8 0.500000 0.750019 0.683826
O O9 0.580897 0.500000 0.688177
O O10 0.607198 0.745633 0.744160
O O11 0.630806 0.754787 0.646180
O O12 0.083983 0.500000 0.203087
O O13 0.000000 0.255925 0.197384
O O14 0.250000 0.750000 0.000000
O O15 0.166432 0.500000 0.000000
O O16 0.830113 0.500000 0.405490
O O17 0.750000 0.250000 0.406363
#
# Coordination Sequence:
#
# PCOD9491982 Si02
#       6
#    16   8  16  16   8  16
#     4   9  17  29  47  70  95 125 162 204 249 300
#     4   9  19  36  59  85 110 141 180 215 252 304
#     4  10  21  37  56  78 104 136 176 218 260 310
#     4   9  18  33  51  71  98 133 170 207 252 306
#     4   8  14  26  43  65  93 123 157 198 246 298
#     4  11  22  37  58  83 113 144 175 215 260 305
#
# _framework density 18.818470000000001
#
# number of rings (size 3 to 8) (size 9 to 14) (size 15 to 20)
#    0.000    2.500    0.000    2.100    0.000    3.600 
#    0.000    4.000    0.000    6.600    0.000    0.000 
#    0.000   11.200    0.000    0.000    0.000    0.000 
#
# Total GULP energy -223082.586284 kJ/mol
# GULP energy per Si atom -5577.064657 kJ/mol
# Density = 1.877564 g / cm^3
# Si number density = 18.818470 Si / 1000 Ang^3
#
#
#
# Elastic Constant Matrix: (Units=GPa)
#
#
# Indices 1 2 3 4 5 6 
#
# 1 102.0441 14.9585 110.3388 0.0000 0.0000 0.0000
# 2 14.9585 16.9770 27.1703 0.0000 0.0000 0.0000
# 3 110.3388 27.1703 238.3223 0.0000 0.0000 0.0000
# 4 0.0000 0.0000 0.0000 12.6198 0.0000 0.0000
# 5 0.0000 0.0000 0.0000 0.0000 39.9056 0.0000
# 6 0.0000 0.0000 0.0000 0.0000 0.0000 19.0837
#
#
#
# Elastic Compliance Matrix: (Units=1/GPa)
#
#
# Indices 1 2 3 4 5 6 
#
# 1 0.019782 -0.003391 -0.008772 0.000000 0.000000 0.000000
# 2 -0.003391 0.072630 -0.006710 0.000000 0.000000 0.000000
# 3 -0.008772 -0.006710 0.009022 0.000000 0.000000 0.000000
# 4 0.000000 0.000000 0.000000 0.079240 0.000000 0.000000
# 5 0.000000 0.000000 0.000000 0.000000 0.025059 0.000000
# 6 0.000000 0.000000 0.000000 0.000000 0.000000 0.052401
#
#
# Mechanical properties :
#
#
# Convention : Reuss Voigt Hill
#
# Bulk Modulus (GPa) = 15.70160 73.58649 44.64404
# Shear Modulus (GPa) = 15.76736 27.98022 21.87379
#
# Velocity S-wave (km/s) = 2.89773 3.86015 3.41304
# Velocity P-wave (km/s) = 4.42240 7.68478 6.26951
#
# Compressibility (1/GPa) = 0.06368779
#
# Stress axis : x y z
#
# Youngs Moduli (GPa) = 50.55148 13.76835 110.83644
#
# Poissons Ratio (x) = 0.04669 0.97226
# Poissons Ratio (y) = 0.17142 0.74375
# Poissons Ratio (z) = 0.44344 0.09239
#
# Static dielectric constant tensor:
#      x y z
#    x 1.623450 0.000000 0.000000 
#    y 0.000000 1.647600 0.000000 
#    z 0.000000 0.000000 1.670890 
# 
# From -- ./inp_files/72958.got.cif
#   From: 2010.05.17/outbox.cif.g08.bks.cpg/sg65_37_cif.got.tgz:72958.got - 2010.06.03 17:01:31.
