data_PCOD9491293
_publ_section_title
;
Structure prediction by ZEFSAII (Michael W. Deem and Ramdas Pophale) SiO2 
 PCOD9491293
Probable space group: C M M M
;
_chemical_formula_sum "Si O2"
_cell_formula_units_Z 104
_cell_length_a 7.575341
_cell_length_b 26.892480
_cell_length_c 23.309901
_cell_angle_alpha 90.000000
_cell_angle_beta 90.000000
_cell_angle_gamma 90.000000
_cell_volume 4748.686186
_symmetry_space_group_name_H-M "C M M M"
_symmetry_group_IT_number 65
_symmetry_cell_setting 'orthorhombic'
loop_
_space_group_symop_operation_xyz
x,y,z
-x,-y,z
x,-y,-z
-x,y,-z
-x,-y,-z
x,y,-z
-x,y,z
x,-y,z
1/2+x,1/2+y,z
1/2-x,1/2-y,z
1/2+x,1/2-y,-z
1/2-x,1/2+y,-z
1/2-x,1/2-y,-z
1/2+x,1/2+y,-z
1/2-x,1/2+y,z
1/2+x,1/2-y,z
loop_
_atom_site_type_symbol
_atom_site_label
_atom_site_fract_x
_atom_site_fract_y
_atom_site_fract_z
Si Si1 0.783849 0.096489 0.135560
Si Si2 0.284356 0.500000 0.065183
Si Si3 0.706726 0.945754 0.387780
Si Si4 0.210833 0.803828 0.318508
Si Si5 0.294405 0.339796 0.562923
Si Si6 0.288184 0.306887 0.065973
Si Si7 0.213898 0.094159 0.734728
O O1 0.729082 0.050341 0.096502
O O2 0.725466 0.149148 0.108152
O O3 0.727036 0.085054 0.200626
O O4 0.000000 0.097942 0.136613
O O5 0.500000 0.500000 0.065755
O O6 0.225709 0.500000 0.000000
O O7 0.500000 0.944550 0.401947
O O8 0.788241 0.897787 0.418432
O O9 0.725322 0.938700 0.319020
O O10 0.778445 0.000000 0.403971
O O11 0.250000 0.750000 0.294652
O O12 0.284505 0.810345 0.383086
O O13 0.272577 0.849974 0.281242
O O14 0.000000 0.809124 0.322117
O O15 0.214891 0.332569 0.500000
O O16 0.500000 0.325727 0.559221
O O17 0.500000 0.311534 0.063701
O O18 0.250000 0.250000 0.084022
O O19 0.222622 0.313122 0.000000
O O20 0.000000 0.091330 0.733996
#
# Coordination Sequence:
#
# PCOD9491293 Si02
#       7
#    16   8  16  16  16  16  16
#     4   9  17  29  47  73 101 131 169 213 258 305
#     4   9  16  26  44  74 107 133 162 209 266 313
#     4  10  21  35  51  73 102 133 164 204 254 302
#     4   9  18  32  49  71  99 131 164 203 248 294
#     4   9  19  36  55  76 102 131 168 209 246 294
#     4   9  17  30  48  71 101 134 167 207 255 306
#     4   9  19  34  51  72  98 129 170 212 249 297
#
# _framework density 21.900793
#
# number of rings (size 3 to 8) (size 9 to 14) (size 15 to 20)
#    0.000    2.846    0.000    1.846    1.077    7.077 
#    0.000    2.308    0.000    0.000    0.000    0.000 
#    0.000    3.692    0.000    0.000    0.000    0.000 
#
# Total GULP energy -290146.421299 kJ/mol
# GULP energy per Si atom -5579.738871 kJ/mol
# Density = 2.185095 g / cm^3
# Si number density = 21.900793 Si / 1000 Ang^3
#
#
#
# Elastic Constant Matrix: (Units=GPa)
#
#
# Indices 1 2 3 4 5 6 
#
# 1 48.7614 -9.5050 0.0384 0.0000 0.0000 0.0000
# 2 -9.5050 60.7162 -12.1640 0.0000 0.0000 0.0000
# 3 0.0384 -12.1640 77.5957 0.0000 0.0000 0.0000
# 4 0.0000 0.0000 0.0000 -2.7789 0.0000 0.0000
# 5 0.0000 0.0000 0.0000 0.0000 -33.4245 0.0000
# 6 0.0000 0.0000 0.0000 0.0000 0.0000 11.0787
#
#
#
# Elastic Compliance Matrix: (Units=1/GPa)
#
#
# Indices 1 2 3 4 5 6 
#
# 1 0.021174 0.003420 0.000526 0.000000 0.000000 0.000000
# 2 0.003420 0.017557 0.002750 0.000000 0.000000 0.000000
# 3 0.000526 0.002750 0.013318 0.000000 0.000000 0.000000
# 4 0.000000 0.000000 0.000000 -0.359854 0.000000 0.000000
# 5 0.000000 0.000000 0.000000 0.000000 -0.029918 0.000000
# 6 0.000000 0.000000 0.000000 0.000000 0.000000 0.090263
#
#
# Mechanical properties :
#
#
# Convention : Reuss Voigt Hill
#
# Bulk Modulus (GPa) = 15.28081 15.97912 15.62997
# Shear Modulus (GPa) = -20.91713 8.88867 -6.01423
#
# Velocity S-wave (km/s) = -3.09380 2.01678 -1.65894
# Velocity P-wave (km/s) = 2.40202 3.56864 1.86621
#
# Compressibility (1/GPa) = 0.06544156
#
# Stress axis : x y z
#
# Youngs Moduli (GPa) = 47.22706 56.95891 75.08516
#
# Poissons Ratio (x) = -0.19481 -0.03947
# Poissons Ratio (y) = -0.16152 -0.20652
# Poissons Ratio (z) = -0.02483 -0.15666
#
# Static dielectric constant tensor:
#      x y z
#    x 1.825220 0.000000 0.000000 
#    y 0.000000 1.774740 0.000000 
#    z 0.000000 0.000000 1.796840 
# 
# From -- ./inp_files/68179.got.cif
#   From: 2010.05.17/outbox.cif.g08.bks.cpg/sg65_35_cif.got.tgz:68179.got - 2010.06.03 17:01:31.
