data_PCOD9491550
_publ_section_title
;
Structure prediction by ZEFSAII (Michael W. Deem and Ramdas Pophale) SiO2 
 PCOD9491550
Probable space group: C M M M
;
_chemical_formula_sum "Si O2"
_cell_formula_units_Z 72
_cell_length_a 8.550858
_cell_length_b 18.965172
_cell_length_c 24.458803
_cell_angle_alpha 90.000000
_cell_angle_beta 90.000000
_cell_angle_gamma 90.000000
_cell_volume 3966.447216
_symmetry_space_group_name_H-M "C M M M"
_symmetry_group_IT_number 65
_symmetry_cell_setting 'orthorhombic'
loop_
_space_group_symop_operation_xyz
x,y,z
-x,-y,z
x,-y,-z
-x,y,-z
-x,-y,-z
x,y,-z
-x,y,z
x,-y,z
1/2+x,1/2+y,z
1/2-x,1/2-y,z
1/2+x,1/2-y,-z
1/2-x,1/2+y,-z
1/2-x,1/2-y,-z
1/2+x,1/2+y,-z
1/2-x,1/2+y,z
1/2+x,1/2-y,z
loop_
_atom_site_type_symbol
_atom_site_label
_atom_site_fract_x
_atom_site_fract_y
_atom_site_fract_z
Si Si1 0.685955 0.170018 0.732595
Si Si2 0.311388 0.330429 0.500000
Si Si3 0.812019 0.169405 0.618239
Si Si4 0.189413 0.081360 0.834340
Si Si5 0.811130 0.171331 0.061707
O O1 0.500000 0.173263 0.732336
O O2 0.750000 0.250000 0.737742
O O3 0.744216 0.139263 0.674357
O O4 0.746282 0.124227 0.782932
O O5 0.500000 0.327865 0.500000
O O6 0.250000 0.250000 0.500000
O O7 0.264950 0.362147 0.441039
O O8 0.750000 0.250000 0.617195
O O9 0.000000 0.169927 0.621911
O O10 0.240255 0.118758 0.890674
O O11 0.000000 0.083743 0.832535
O O12 0.238086 0.000000 0.832734
O O13 0.750000 0.250000 0.072788
O O14 0.000000 0.173066 0.062153
O O15 0.761298 0.151410 0.000000
#
# Coordination Sequence:
#
# PCOD9491550 Si02
#       5
#    16   8  16  16  16
#     4  11  21  33  50  72  99 132 171 211 251 296
#     4   8  14  22  36  60  91 124 155 194 243 295
#     4   9  15  25  41  64  94 126 161 200 246 296
#     4  10  21  36  53  74 101 133 168 207 252 298
#     4   9  18  33  54  79 104 131 164 201 242 291
#
# _framework density 18.152266000000001
#
# number of rings (size 3 to 8) (size 9 to 14) (size 15 to 20)
#    0.000    2.444    0.000    4.667    0.000    4.444 
#    0.000    2.222    0.000    0.000    0.000    5.444 
#    0.000    6.222    0.000    0.000    0.000    0.000 
#
# Total GULP energy -200628.027888 kJ/mol
# GULP energy per Si atom -5573.000775 kJ/mol
# Density = 1.811095 g / cm^3
# Si number density = 18.152266 Si / 1000 Ang^3
#
#
#
# Elastic Constant Matrix: (Units=GPa)
#
#
# Indices 1 2 3 4 5 6 
#
# 1 40.4812 24.6679 42.6675 0.0000 0.0000 0.0000
# 2 24.6679 70.4003 93.1383 0.0000 0.0000 0.0000
# 3 42.6675 93.1383 215.4022 0.0000 0.0000 0.0000
# 4 0.0000 0.0000 0.0000 -3.2084 0.0000 0.0000
# 5 0.0000 0.0000 0.0000 0.0000 21.1559 0.0000
# 6 0.0000 0.0000 0.0000 0.0000 0.0000 16.2099
#
#
#
# Elastic Compliance Matrix: (Units=1/GPa)
#
#
# Indices 1 2 3 4 5 6 
#
# 1 0.032525 -0.006714 -0.003540 0.000000 0.000000 0.000000
# 2 -0.006714 0.034578 -0.013621 0.000000 0.000000 0.000000
# 3 -0.003540 -0.013621 0.011233 0.000000 0.000000 0.000000
# 4 0.000000 0.000000 0.000000 -0.311682 0.000000 0.000000
# 5 0.000000 0.000000 0.000000 0.000000 0.047268 0.000000
# 6 0.000000 0.000000 0.000000 0.000000 0.000000 0.061691
#
#
# Mechanical properties :
#
#
# Convention : Reuss Voigt Hill
#
# Bulk Modulus (GPa) = 32.69397 71.91456 52.30426
# Shear Modulus (GPa) = -75.25160 17.88549 -28.68306
#
# Velocity S-wave (km/s) = -6.44560 3.14236 -3.97941
# Velocity P-wave (km/s) = 6.11100 7.27113 2.78613
#
# Compressibility (1/GPa) = 0.03058668
#
# Stress axis : x y z
#
# Youngs Moduli (GPa) = 30.74584 28.92053 89.02059
#
# Poissons Ratio (x) = 0.19416 0.31511
# Poissons Ratio (y) = 0.20641 1.21257
# Poissons Ratio (z) = 0.10883 0.39393
#
# Static dielectric constant tensor:
#      x y z
#    x 1.610060 0.000000 0.000000 
#    y 0.000000 1.568840 0.000000 
#    z 0.000000 0.000000 1.682590 
# 
# From -- ./inp_files/66992.got.cif
#   From: 2010.05.17/outbox.cif.g08.bks.cpg/sg65_34_cif.got.tgz:66992.got - 2010.06.03 17:01:31.
