data_PCOD9491274
_publ_section_title
;
Structure prediction by ZEFSAII (Michael W. Deem and Ramdas Pophale) SiO2 
 PCOD9491274
Probable space group: C M M M
;
_chemical_formula_sum "Si O2"
_cell_formula_units_Z 80
_cell_length_a 14.182006
_cell_length_b 10.108440
_cell_length_c 25.699151
_cell_angle_alpha 90.000000
_cell_angle_beta 90.000000
_cell_angle_gamma 90.000000
_cell_volume 3684.177777
_symmetry_space_group_name_H-M "C M M M"
_symmetry_group_IT_number 65
_symmetry_cell_setting 'orthorhombic'
loop_
_space_group_symop_operation_xyz
x,y,z
-x,-y,z
x,-y,-z
-x,y,-z
-x,-y,-z
x,y,-z
-x,y,z
x,-y,z
1/2+x,1/2+y,z
1/2-x,1/2-y,z
1/2+x,1/2-y,-z
1/2-x,1/2+y,-z
1/2-x,1/2-y,-z
1/2+x,1/2+y,-z
1/2-x,1/2+y,z
1/2+x,1/2-y,z
loop_
_atom_site_type_symbol
_atom_site_label
_atom_site_fract_x
_atom_site_fract_y
_atom_site_fract_z
Si Si1 0.615080 0.151322 0.000000
Si Si2 0.885224 0.850980 0.209268
Si Si3 0.609352 0.354027 0.616449
Si Si4 0.664363 0.348266 0.500000
Si Si5 0.384859 0.849845 0.298834
Si Si6 0.885063 0.850619 0.089881
O O1 0.643683 0.236020 0.949557
O O2 0.500000 0.147492 0.000000
O O3 0.647967 0.000000 0.000000
O O4 0.856738 0.737304 0.249047
O O5 0.855983 0.827754 0.149596
O O6 0.000000 0.851850 0.209450
O O7 0.855824 0.000000 0.224896
O O8 0.500000 0.364698 0.631832
O O9 0.652432 0.500000 0.626232
O O10 0.612042 0.329134 0.554665
O O11 0.645703 0.232229 0.650248
O O12 0.696890 0.500000 0.500000
O O13 0.750000 0.250000 0.500000
O O14 0.500000 0.856418 0.298769
O O15 0.350543 0.000000 0.297631
O O16 0.000000 0.851601 0.089386
O O17 0.855840 0.000000 0.074350
#
# Coordination Sequence:
#
# PCOD9491274 Si02
#       6
#     8  16  16   8  16  16
#     4   9  15  19  23  33  49  71 103 145 192 237
#     4   8  13  21  32  45  62  87 118 152 194 243
#     4   9  17  31  50  68  87 114 148 180 209 250
#     4  10  21  35  51  71  93 118 146 178 216 254
#     4   9  16  24  36  57  81 101 124 160 207 251
#     4   8  13  20  28  36  49  74 109 147 187 233
#
# _framework density 21.714479000000001
#
# number of rings (size 3 to 8) (size 9 to 14) (size 15 to 20)
#    0.000    3.300    0.000    2.400    0.000    6.400 
#    0.000    4.000    0.000    3.000    0.000    0.000 
#    0.000    0.000    0.000    0.000    0.000    0.000 
#
# Total GULP energy -223236.696109 kJ/mol
# GULP energy per Si atom -5580.917403 kJ/mol
# Density = 2.166506 g / cm^3
# Si number density = 21.714479 Si / 1000 Ang^3
#
#
#
# Elastic Constant Matrix: (Units=GPa)
#
#
# Indices 1 2 3 4 5 6 
#
# 1 61.6054 17.2886 -1.0578 0.0000 0.0000 0.0000
# 2 17.2886 240.1173 148.4714 0.0000 0.0000 0.0000
# 3 -1.0578 148.4714 154.3841 0.0000 0.0000 0.0000
# 4 0.0000 0.0000 0.0000 351.5852 0.0000 0.0000
# 5 0.0000 0.0000 0.0000 0.0000 -20.8389 0.0000
# 6 0.0000 0.0000 0.0000 0.0000 0.0000 1.9942
#
#
#
# Elastic Compliance Matrix: (Units=1/GPa)
#
#
# Indices 1 2 3 4 5 6 
#
# 1 0.017195 -0.003234 0.003228 0.000000 0.000000 0.000000
# 2 -0.003234 0.010882 -0.010488 0.000000 0.000000 0.000000
# 3 0.003228 -0.010488 0.016586 0.000000 0.000000 0.000000
# 4 0.000000 0.000000 0.000000 0.002844 0.000000 0.000000
# 5 0.000000 0.000000 0.000000 0.000000 -0.047987 0.000000
# 6 0.000000 0.000000 0.000000 0.000000 0.000000 0.501466
#
#
# Mechanical properties :
#
#
# Convention : Reuss Voigt Hill
#
# Bulk Modulus (GPa) = 42.23738 87.27901 64.75820
# Shear Modulus (GPa) = 9.43635 85.97507 47.70571
#
# Velocity S-wave (km/s) = 2.08688 6.29916 4.69225
# Velocity P-wave (km/s) = 5.02994 9.65334 7.69699
#
# Compressibility (1/GPa) = 0.02367571
#
# Stress axis : x y z
#
# Youngs Moduli (GPa) = 58.15523 91.89189 60.29347
#
# Poissons Ratio (x) = 0.29718 -0.19463
# Poissons Ratio (y) = 0.18808 0.63234
# Poissons Ratio (z) = -0.18773 0.96374
#
# Static dielectric constant tensor:
#      x y z
#    x 1.772670 0.000000 0.000000 
#    y 0.000000 1.761390 0.000000 
#    z 0.000000 0.000000 1.785390 
# 
# From -- ./inp_files/75130.got.cif
#   From: 2010.05.17/outbox.cif.g08.bks.cpg/sg65_38_cif.got.tgz:75130.got - 2010.06.03 17:01:31.
