data_PCOD9491540
_publ_section_title
;
Structure prediction by ZEFSAII (Michael W. Deem and Ramdas Pophale) SiO2 
 PCOD9491540
Probable space group: C M M M
;
_chemical_formula_sum "Si O2"
_cell_formula_units_Z 88
_cell_length_a 8.024804
_cell_length_b 18.642544
_cell_length_c 30.102713
_cell_angle_alpha 90.000000
_cell_angle_beta 90.000000
_cell_angle_gamma 90.000000
_cell_volume 4503.448998
_symmetry_space_group_name_H-M "C M M M"
_symmetry_group_IT_number 65
_symmetry_cell_setting 'orthorhombic'
loop_
_space_group_symop_operation_xyz
x,y,z
-x,-y,z
x,-y,-z
-x,y,-z
-x,-y,-z
x,y,-z
-x,y,z
x,-y,z
1/2+x,1/2+y,z
1/2-x,1/2-y,z
1/2+x,1/2-y,-z
1/2-x,1/2+y,-z
1/2-x,1/2-y,-z
1/2+x,1/2+y,-z
1/2-x,1/2+y,z
1/2+x,1/2-y,z
loop_
_atom_site_type_symbol
_atom_site_label
_atom_site_fract_x
_atom_site_fract_y
_atom_site_fract_z
Si Si1 0.200304 0.582557 0.095448
Si Si2 0.799226 0.918524 0.269187
Si Si3 0.698507 0.582468 0.000000
Si Si4 0.298854 0.334052 0.452287
Si Si5 0.800927 0.332575 0.818436
Si Si6 0.201595 0.833474 0.644580
O O1 0.262890 0.500000 0.098122
O O2 0.263577 0.628478 0.136939
O O3 0.000000 0.579808 0.098010
O O4 0.244908 0.613712 0.047051
O O5 0.756803 0.874057 0.225370
O O6 0.736630 0.878811 0.313572
O O7 0.000000 0.921171 0.272418
O O8 0.736682 0.000000 0.265975
O O9 0.764838 0.500000 0.000000
O O10 0.500000 0.580385 0.000000
O O11 0.239042 0.364208 0.500000
O O12 0.500000 0.339177 0.452431
O O13 0.250000 0.250000 0.452337
O O14 0.240298 0.361045 0.404073
O O15 0.750000 0.250000 0.816959
O O16 0.000000 0.336096 0.819484
O O17 0.250000 0.750000 0.649295
O O18 0.000000 0.836497 0.644542
#
# Coordination Sequence:
#
# PCOD9491540 Si02
#       6
#    16  16   8  16  16  16
#     4   9  18  34  55  77 103 136 171 206 246 293
#     4  10  21  36  53  73  99 132 168 208 255 305
#     4   9  17  29  50  81 110 135 167 207 246 287
#     4   8  13  22  38  61  89 120 155 196 240 287
#     4  11  23  38  56  78 104 134 170 211 256 305
#     4   9  17  29  46  69  96 126 161 202 249 298
#
# _framework density 19.540579000000001
#
# number of rings (size 3 to 8) (size 9 to 14) (size 15 to 20)
#    0.000    2.636    0.000    1.909    0.000    5.818 
#    0.000    2.273    0.000    0.545    0.000    3.818 
#    0.000    0.000    0.000   31.091    0.000   15.636 
#
# Total GULP energy -245245.983268 kJ/mol
# GULP energy per Si atom -5573.772347 kJ/mol
# Density = 1.949610 g / cm^3
# Si number density = 19.540579 Si / 1000 Ang^3
#
#
#
# Elastic Constant Matrix: (Units=GPa)
#
#
# Indices 1 2 3 4 5 6 
#
# 1 17.0890 5.8950 12.2217 0.0000 0.0000 0.0000
# 2 5.8950 95.8925 96.3924 0.0000 0.0000 0.0000
# 3 12.2217 96.3924 254.9235 0.0000 0.0000 0.0000
# 4 0.0000 0.0000 0.0000 56.1358 0.0000 0.0000
# 5 0.0000 0.0000 0.0000 0.0000 19.7086 0.0000
# 6 0.0000 0.0000 0.0000 0.0000 0.0000 9.6476
#
#
#
# Elastic Compliance Matrix: (Units=1/GPa)
#
#
# Indices 1 2 3 4 5 6 
#
# 1 0.060695 -0.001300 -0.002418 0.000000 0.000000 0.000000
# 2 -0.001300 0.016850 -0.006309 0.000000 0.000000 0.000000
# 3 -0.002418 -0.006309 0.006424 0.000000 0.000000 0.000000
# 4 0.000000 0.000000 0.000000 0.017814 0.000000 0.000000
# 5 0.000000 0.000000 0.000000 0.000000 0.050739 0.000000
# 6 0.000000 0.000000 0.000000 0.000000 0.000000 0.103652
#
#
# Mechanical properties :
#
#
# Convention : Reuss Voigt Hill
#
# Bulk Modulus (GPa) = 15.64594 66.32479 40.98537
# Shear Modulus (GPa) = 16.80469 33.99145 25.39807
#
# Velocity S-wave (km/s) = 2.93574 4.17529 3.60913
# Velocity P-wave (km/s) = 4.41766 7.56703 6.19579
#
# Compressibility (1/GPa) = 0.06391434
#
# Stress axis : x y z
#
# Youngs Moduli (GPa) = 16.47576 59.34601 155.65868
#
# Poissons Ratio (x) = 0.07718 0.37641
# Poissons Ratio (y) = 0.02143 0.98207
# Poissons Ratio (z) = 0.03984 0.37442
#
# Static dielectric constant tensor:
#      x y z
#    x 1.702760 0.000000 0.000000 
#    y 0.000000 1.645950 0.000000 
#    z 0.000000 0.000000 1.735160 
# 
# From -- ./inp_files/76569.got.cif
#   From: 2010.05.17/outbox.cif.g08.bks.cpg/sg65_39_cif.got.tgz:76569.got - 2010.06.03 17:01:31.
