data_PCOD9491202
_publ_section_title
;
Structure prediction by ZEFSAII (Michael W. Deem and Ramdas Pophale) SiO2 
 PCOD9491202
Probable space group: C M M M
;
_chemical_formula_sum "Si O2"
_cell_formula_units_Z 80
_cell_length_a 27.101203
_cell_length_b 19.973009
_cell_length_c 7.731811
_cell_angle_alpha 90.000000
_cell_angle_beta 90.000000
_cell_angle_gamma 90.000000
_cell_volume 4185.171858
_symmetry_space_group_name_H-M "C M M M"
_symmetry_group_IT_number 65
_symmetry_cell_setting 'orthorhombic'
loop_
_space_group_symop_operation_xyz
x,y,z
-x,-y,z
x,-y,-z
-x,y,-z
-x,-y,-z
x,y,-z
-x,y,z
x,-y,z
1/2+x,1/2+y,z
1/2-x,1/2-y,z
1/2+x,1/2-y,-z
1/2-x,1/2+y,-z
1/2-x,1/2-y,-z
1/2+x,1/2+y,-z
1/2-x,1/2+y,z
1/2+x,1/2-y,z
loop_
_atom_site_type_symbol
_atom_site_label
_atom_site_fract_x
_atom_site_fract_y
_atom_site_fract_z
Si Si1 0.893560 0.327313 0.707058
Si Si2 0.500000 0.671914 0.300010
Si Si3 0.608087 0.325842 0.286972
Si Si4 0.500000 0.165096 0.699808
Si Si5 0.306058 0.423887 0.293053
Si Si6 0.804171 0.575895 0.794030
O O1 0.899900 0.322298 0.500000
O O2 0.884075 0.251265 0.767837
O O3 0.848193 0.375813 0.740287
O O4 0.946668 0.352919 0.777139
O O5 0.500000 0.649656 0.500000
O O6 0.446718 0.652255 0.226959
O O7 0.500000 0.753375 0.301163
O O8 0.607377 0.326212 0.500000
O O9 0.651675 0.374290 0.227997
O O10 0.500000 0.141380 0.500000
O O11 0.311886 0.427193 0.500000
O O12 0.310327 0.500000 0.224561
O O13 0.250342 0.400075 0.258695
O O14 0.810344 0.500000 0.724165
O O15 0.804812 0.572332 0.000000
#
# Coordination Sequence:
#
# PCOD9491202 Si02
#       6
#    16   8  16   8  16  16
#     4   9  16  29  50  71  90 114 147 184 218 258
#     4   7  10  20  39  64  95 122 140 169 218 264
#     4   8  14  25  44  70  95 118 146 181 219 258
#     4   7  12  24  44  69  91 113 142 175 214 260
#     4   9  17  30  47  66  90 121 154 184 216 258
#     4  10  21  35  47  61  86 119 151 184 226 271
#
# _framework density 19.115106999999998
#
# number of rings (size 3 to 8) (size 9 to 14) (size 15 to 20)
#    0.000    3.400    0.000    3.000    0.000    2.000 
#    0.000    6.500    0.000    6.000    0.000    2.100 
#    0.000    3.200    0.000    0.000    0.000    0.000 
#
# Total GULP energy -222710.044784 kJ/mol
# GULP energy per Si atom -5567.751120 kJ/mol
# Density = 1.907160 g / cm^3
# Si number density = 19.115107 Si / 1000 Ang^3
#
#
#
# Elastic Constant Matrix: (Units=GPa)
#
#
# Indices 1 2 3 4 5 6 
#
# 1 238.2571 103.6833 2.1225 0.0000 0.0000 0.0000
# 2 103.6833 68.6250 3.8469 0.0000 0.0000 0.0000
# 3 2.1225 3.8469 27.1639 0.0000 0.0000 0.0000
# 4 0.0000 0.0000 0.0000 -5.0428 0.0000 0.0000
# 5 0.0000 0.0000 0.0000 0.0000 -41.2934 0.0000
# 6 0.0000 0.0000 0.0000 0.0000 0.0000 -82.1165
#
#
#
# Elastic Compliance Matrix: (Units=1/GPa)
#
#
# Indices 1 2 3 4 5 6 
#
# 1 0.012330 -0.018724 0.001688 0.000000 0.000000 0.000000
# 2 -0.018724 0.043122 -0.004644 0.000000 0.000000 0.000000
# 3 0.001688 -0.004644 0.037339 0.000000 0.000000 0.000000
# 4 0.000000 0.000000 0.000000 -0.198303 0.000000 0.000000
# 5 0.000000 0.000000 0.000000 0.000000 -0.024217 0.000000
# 6 0.000000 0.000000 0.000000 0.000000 0.000000 -0.012178
#
#
# Mechanical properties :
#
#
# Convention : Reuss Voigt Hill
#
# Bulk Modulus (GPa) = 20.22973 61.48349 40.85661
# Shear Modulus (GPa) = -60.92417 -10.73097 -35.82757
#
# Velocity S-wave (km/s) = -5.65168 -2.37193 -4.33402
# Velocity P-wave (km/s) = 5.65531 4.97326 1.90384
#
# Compressibility (1/GPa) = 0.04943220
#
# Stress axis : x y z
#
# Youngs Moduli (GPa) = 81.10020 23.18994 26.78141
#
# Poissons Ratio (x) = 0.43421 -0.04521
# Poissons Ratio (y) = 1.51854 0.12437
# Poissons Ratio (z) = -0.13692 0.10769
#
# Static dielectric constant tensor:
#      x y z
#    x 1.698490 0.000000 0.000000 
#    y 0.000000 1.662200 0.000000 
#    z 0.000000 0.000000 1.703130 
# 
# From -- ./inp_files/11583.got.cif
#   From: 2010.05.17/outbox.cif.g08.bks.cpg/sg65_6_cif.got.tgz:11583.got - 2010.06.03 17:01:31.
