data_PCOD9491931
_publ_section_title
;
Structure prediction by ZEFSAII (Michael W. Deem and Ramdas Pophale) SiO2 
 PCOD9491931
Probable space group: C M M M
;
_chemical_formula_sum "Si O2"
_cell_formula_units_Z 104
_cell_length_a 8.497160
_cell_length_b 24.218713
_cell_length_c 29.755388
_cell_angle_alpha 90.000000
_cell_angle_beta 90.000000
_cell_angle_gamma 90.000000
_cell_volume 6123.369609
_symmetry_space_group_name_H-M "C M M M"
_symmetry_group_IT_number 65
_symmetry_cell_setting 'orthorhombic'
loop_
_space_group_symop_operation_xyz
x,y,z
-x,-y,z
x,-y,-z
-x,y,-z
-x,-y,-z
x,y,-z
-x,y,z
x,-y,z
1/2+x,1/2+y,z
1/2-x,1/2-y,z
1/2+x,1/2-y,-z
1/2-x,1/2+y,-z
1/2-x,1/2-y,-z
1/2+x,1/2+y,-z
1/2-x,1/2+y,z
1/2+x,1/2-y,z
loop_
_atom_site_type_symbol
_atom_site_label
_atom_site_fract_x
_atom_site_fract_y
_atom_site_fract_z
Si Si1 0.809659 0.812811 0.695217
Si Si2 0.190103 0.186922 0.596711
Si Si3 0.690545 0.686599 0.500000
Si Si4 0.688627 0.884045 0.050987
Si Si5 0.686645 0.000000 0.810767
Si Si6 0.309207 0.383927 0.219135
Si Si7 0.811735 0.811976 0.867474
Si Si8 0.687321 0.500000 0.087594
O O1 0.750000 0.750000 0.700695
O O2 0.759665 0.834712 0.645707
O O3 0.758478 0.851393 0.736170
O O4 0.000000 0.810851 0.696055
O O5 0.250000 0.250000 0.596478
O O6 0.241711 0.162194 0.548415
O O7 0.000000 0.186854 0.596629
O O8 0.500000 0.687102 0.500000
O O9 0.750000 0.750000 0.500000
O O10 0.500000 0.882982 0.052542
O O11 0.753318 0.841071 0.087224
O O12 0.745435 0.944971 0.064886
O O13 0.739853 0.871754 0.000000
O O14 0.740138 0.055166 0.785379
O O15 0.500000 0.000000 0.817012
O O16 0.766292 0.000000 0.859964
O O17 0.500000 0.387556 0.219118
O O18 0.260870 0.348737 0.175259
O O19 0.750000 0.750000 0.863495
O O20 0.000000 0.811085 0.867638
O O21 0.500000 0.500000 0.083718
#
# Coordination Sequence:
#
# PCOD9491931 Si02
#       8
#    16  16   8  16   8  16  16   8
#     4   9  17  29  46  69  99 134 169 204 245 292
#     4   8  13  21  34  55  85 123 164 202 240 283
#     4   8  12  18  30  50  80 119 162 203 239 278
#     4  11  24  41  61  85 111 138 171 210 249 293
#     4  12  24  37  59  82 102 130 163 204 250 296
#     4  10  21  37  55  76 102 132 165 205 251 300
#     4  11  23  38  58  80 106 139 173 208 248 297
#     4  12  23  39  62  87 112 136 165 203 251 302
#
# _framework density 16.984113000000001
#
# number of rings (size 3 to 8) (size 9 to 14) (size 15 to 20)
#    0.000    2.000    1.538    3.000    0.000    3.692 
#    0.000    0.000    0.000    0.000    0.000    0.000 
#    0.000    0.615    0.000    7.846    0.000    1.231 
#
# Total GULP energy -289966.275905 kJ/mol
# GULP energy per Si atom -5576.274537 kJ/mol
# Density = 1.694546 g / cm^3
# Si number density = 16.984113 Si / 1000 Ang^3
#
#
#
# Elastic Constant Matrix: (Units=GPa)
#
#
# Indices 1 2 3 4 5 6 
#
# 1 22.9810 19.7391 24.6104 0.0000 0.0000 0.0000
# 2 19.7391 106.8619 69.8417 0.0000 0.0000 0.0000
# 3 24.6104 69.8417 186.2894 0.0000 0.0000 0.0000
# 4 0.0000 0.0000 0.0000 155.6445 0.0000 0.0000
# 5 0.0000 0.0000 0.0000 0.0000 14.1895 0.0000
# 6 0.0000 0.0000 0.0000 0.0000 0.0000 -30.2303
#
#
#
# Elastic Compliance Matrix: (Units=1/GPa)
#
#
# Indices 1 2 3 4 5 6 
#
# 1 0.054466 -0.007097 -0.004535 0.000000 0.000000 0.000000
# 2 -0.007097 0.013320 -0.004056 0.000000 0.000000 0.000000
# 3 -0.004535 -0.004056 0.007488 0.000000 0.000000 0.000000
# 4 0.000000 0.000000 0.000000 0.006425 0.000000 0.000000
# 5 0.000000 0.000000 0.000000 0.000000 0.070475 0.000000
# 6 0.000000 0.000000 0.000000 0.000000 0.000000 -0.033079
#
#
# Mechanical properties :
#
#
# Convention : Reuss Voigt Hill
#
# Bulk Modulus (GPa) = 22.78004 60.50162 41.64083
# Shear Modulus (GPa) = 30.28420 41.38347 35.83383
#
# Velocity S-wave (km/s) = 4.22725 4.94155 4.59829
# Velocity P-wave (km/s) = 6.10474 8.26186 7.26382
#
# Compressibility (1/GPa) = 0.04389807
#
# Stress axis : x y z
#
# Youngs Moduli (GPa) = 18.35997 75.07631 133.55143
#
# Poissons Ratio (x) = 0.53282 0.60562
# Poissons Ratio (y) = 0.13030 0.54170
# Poissons Ratio (z) = 0.08326 0.30452
#
# Static dielectric constant tensor:
#      x y z
#    x 1.576240 0.000000 0.000000 
#    y 0.000000 1.527400 0.000000 
#    z 0.000000 0.000000 1.631400 
# 
# From -- ./inp_files/76966.got.cif
#   From: 2010.05.17/outbox.cif.g08.bks.cpg/sg65_39_cif.got.tgz:76966.got - 2010.06.03 17:01:31.
