data_PCOD9491036
_publ_section_title
;
Structure prediction by ZEFSAII (Michael W. Deem and Ramdas Pophale) SiO2 
 PCOD9491036
Probable space group: C M M M
;
_chemical_formula_sum "Si O2"
_cell_formula_units_Z 64
_cell_length_a 16.965096
_cell_length_b 11.236564
_cell_length_c 15.304667
_cell_angle_alpha 90.000000
_cell_angle_beta 90.000000
_cell_angle_gamma 90.000000
_cell_volume 2917.519288
_symmetry_space_group_name_H-M "C M M M"
_symmetry_group_IT_number 65
_symmetry_cell_setting 'orthorhombic'
loop_
_space_group_symop_operation_xyz
x,y,z
-x,-y,z
x,-y,-z
-x,y,-z
-x,-y,-z
x,y,-z
-x,y,z
x,-y,z
1/2+x,1/2+y,z
1/2-x,1/2-y,z
1/2+x,1/2-y,-z
1/2-x,1/2+y,-z
1/2-x,1/2-y,-z
1/2+x,1/2+y,-z
1/2-x,1/2+y,z
1/2+x,1/2-y,z
loop_
_atom_site_type_symbol
_atom_site_label
_atom_site_fract_x
_atom_site_fract_y
_atom_site_fract_z
Si Si1 0.689023 0.000000 0.097639
Si Si2 0.909361 0.000000 0.347885
Si Si3 0.407478 0.237373 0.142702
Si Si4 0.841522 0.754868 0.335756
Si Si5 0.087679 0.361561 0.500000
Si Si6 0.858574 0.000000 0.149280
O O1 0.638917 0.878737 0.108124
O O2 0.764059 0.000000 0.161833
O O3 0.723742 0.000000 0.000000
O O4 0.864231 0.882679 0.374742
O O5 0.903754 0.000000 0.241786
O O6 0.000000 0.000000 0.374640
O O7 0.500000 0.225466 0.124743
O O8 0.390799 0.235979 0.247116
O O9 0.379730 0.369398 0.110260
O O10 0.750000 0.750000 0.312528
O O11 0.865334 0.667839 0.412435
O O12 0.076528 0.500000 0.500000
O O13 0.000000 0.303128 0.500000
#
# Coordination Sequence:
#
# PCOD9491036 Si02
#       6
#     8   8  16  16   8   8
#     4  12  27  44  64  97 135 171 214 266 324 392
#     4  10  20  39  67  94 124 161 217 269 312 377
#     4  11  23  42  70  97 130 171 217 268 325 389
#     4  11  23  40  65  94 127 167 215 265 320 373
#     4  11  25  41  59  89 135 173 213 263 311 375
#     4  10  20  41  67  95 125 166 214 265 321 379
#
# _framework density 21.936444000000002
#
# number of rings (size 3 to 8) (size 9 to 14) (size 15 to 20)
#    0.000    1.125    0.000    9.375    3.500    3.500 
#    0.000    1.250    0.000    4.125    0.000    0.000 
#    0.000    0.000    0.000    0.000    0.000    0.000 
#
# Total GULP energy -178760.931659 kJ/mol
# GULP energy per Si atom -5586.279114 kJ/mol
# Density = 2.188652 g / cm^3
# Si number density = 21.936444 Si / 1000 Ang^3
#
#
#
# Elastic Constant Matrix: (Units=GPa)
#
#
# Indices 1 2 3 4 5 6 
#
# 1 137.8594 39.9150 -16.1994 0.0000 0.0000 0.0000
# 2 39.9150 155.5388 10.1658 0.0000 0.0000 0.0000
# 3 -16.1994 10.1658 63.4303 0.0000 0.0000 0.0000
# 4 0.0000 0.0000 0.0000 21.6182 0.0000 0.0000
# 5 0.0000 0.0000 0.0000 0.0000 13.6388 0.0000
# 6 0.0000 0.0000 0.0000 0.0000 0.0000 43.2330
#
#
#
# Elastic Compliance Matrix: (Units=1/GPa)
#
#
# Indices 1 2 3 4 5 6 
#
# 1 0.008198 -0.002264 0.002457 0.000000 0.000000 0.000000
# 2 -0.002264 0.007123 -0.001720 0.000000 0.000000 0.000000
# 3 0.002457 -0.001720 0.016668 0.000000 0.000000 0.000000
# 4 0.000000 0.000000 0.000000 0.046257 0.000000 0.000000
# 5 0.000000 0.000000 0.000000 0.000000 0.073320 0.000000
# 6 0.000000 0.000000 0.000000 0.000000 0.000000 0.023130
#
#
# Mechanical properties :
#
#
# Convention : Reuss Voigt Hill
#
# Bulk Modulus (GPa) = 34.56152 47.17683 40.86918
# Shear Modulus (GPa) = 26.68131 37.22780 31.95455
#
# Velocity S-wave (km/s) = 3.49133 4.12403 3.82080
# Velocity P-wave (km/s) = 5.66057 6.65054 6.17542
#
# Compressibility (1/GPa) = 0.02893391
#
# Stress axis : x y z
#
# Youngs Moduli (GPa) = 121.98030 140.39494 59.99392
#
# Poissons Ratio (x) = 0.31791 -0.14738
# Poissons Ratio (y) = 0.27621 0.10318
# Poissons Ratio (z) = -0.29966 0.24146
#
# Static dielectric constant tensor:
#      x y z
#    x 1.666390 0.000000 0.000000 
#    y 0.000000 1.784790 0.000000 
#    z 0.000000 0.000000 1.784200 
# 
# From -- ./inp_files/52560.got.cif
#   From: 2010.05.17/outbox.cif.g08.bks.cpg/sg65_27_cif.got.tgz:52560.got - 2010.06.03 17:01:31.
