data_PCOD9491188
_publ_section_title
;
Structure prediction by ZEFSAII (Michael W. Deem and Ramdas Pophale) SiO2 
 PCOD9491188
Probable space group: C M M M
;
_chemical_formula_sum "Si O2"
_cell_formula_units_Z 56
_cell_length_a 29.121852
_cell_length_b 7.827376
_cell_length_c 11.174222
_cell_angle_alpha 90.000000
_cell_angle_beta 90.000000
_cell_angle_gamma 90.000000
_cell_volume 2547.138041
_symmetry_space_group_name_H-M "C M M M"
_symmetry_group_IT_number 65
_symmetry_cell_setting 'orthorhombic'
loop_
_space_group_symop_operation_xyz
x,y,z
-x,-y,z
x,-y,-z
-x,y,-z
-x,-y,-z
x,y,-z
-x,y,z
x,-y,z
1/2+x,1/2+y,z
1/2-x,1/2-y,z
1/2+x,1/2-y,-z
1/2-x,1/2+y,-z
1/2-x,1/2-y,-z
1/2+x,1/2+y,-z
1/2-x,1/2+y,z
1/2+x,1/2-y,z
loop_
_atom_site_type_symbol
_atom_site_label
_atom_site_fract_x
_atom_site_fract_y
_atom_site_fract_z
Si Si1 0.055854 0.695103 0.500000
Si Si2 0.855795 0.704729 0.871688
Si Si3 0.447736 0.209878 0.238537
Si Si4 0.196340 0.202863 0.629800
O O1 0.073070 0.500000 0.500000
O O2 0.067121 0.772295 0.628567
O O3 0.000000 0.687245 0.500000
O O4 0.856807 0.500000 0.878393
O O5 0.908330 0.762894 0.851965
O O6 0.828277 0.742518 0.751131
O O7 0.837737 0.769803 0.000000
O O8 0.500000 0.263210 0.213113
O O9 0.448514 0.000000 0.243423
O O10 0.178873 0.271425 0.500000
O O11 0.250000 0.250000 0.637036
O O12 0.192460 0.000000 0.625298
#
# Coordination Sequence:
#
# PCOD9491188 Si02
#       4
#     8  16  16  16
#     4   7  10  18  34  60  92 129 176 223 266 307
#     4  10  21  34  52  84 120 153 189 227 274 330
#     4   8  14  25  43  71 109 149 188 230 272 315
#     4  10  22  41  64  87 109 138 180 229 283 340
#
# _framework density 21.985461000000001
#
# number of rings (size 3 to 8) (size 9 to 14) (size 15 to 20)
#    0.000    3.000    0.000    2.571    2.000    3.429 
#    0.000    2.857    0.000    0.857    0.000    4.000 
#    0.000    0.000    0.000    0.000    0.000    0.000 
#
# Total GULP energy -156082.214447 kJ/mol
# GULP energy per Si atom -5574.364802 kJ/mol
# Density = 2.193542 g / cm^3
# Si number density = 21.985461 Si / 1000 Ang^3
#
#
#
# Elastic Constant Matrix: (Units=GPa)
#
#
# Indices 1 2 3 4 5 6 
#
# 1 74.4889 4.9943 85.3560 0.0000 0.0000 0.0000
# 2 4.9943 30.9236 24.7933 0.0000 0.0000 0.0000
# 3 85.3560 24.7933 223.3665 0.0000 0.0000 0.0000
# 4 0.0000 0.0000 0.0000 15.8690 0.0000 0.0000
# 5 0.0000 0.0000 0.0000 0.0000 18.2339 0.0000
# 6 0.0000 0.0000 0.0000 0.0000 0.0000 -3.8908
#
#
#
# Elastic Compliance Matrix: (Units=1/GPa)
#
#
# Indices 1 2 3 4 5 6 
#
# 1 0.024296 0.003864 -0.009713 0.000000 0.000000 0.000000
# 2 0.003864 0.036111 -0.005485 0.000000 0.000000 0.000000
# 3 -0.009713 -0.005485 0.008797 0.000000 0.000000 0.000000
# 4 0.000000 0.000000 0.000000 0.063016 0.000000 0.000000
# 5 0.000000 0.000000 0.000000 0.000000 0.054843 0.000000
# 6 0.000000 0.000000 0.000000 0.000000 0.000000 -0.257016
#
#
# Mechanical properties :
#
#
# Convention : Reuss Voigt Hill
#
# Bulk Modulus (GPa) = 21.48862 62.11848 41.80355
# Shear Modulus (GPa) = -157.37282 20.28477 -68.54403
#
# Velocity S-wave (km/s) = -8.46970 3.04080 -5.58969
# Velocity P-wave (km/s) = 9.26566 6.37529 4.75438
#
# Compressibility (1/GPa) = 0.04653626
#
# Stress axis : x y z
#
# Youngs Moduli (GPa) = 41.15898 27.69224 113.66872
#
# Poissons Ratio (x) = -0.10700 1.10409
# Poissons Ratio (y) = -0.15903 0.62344
# Poissons Ratio (z) = 0.39979 0.15188
#
# Static dielectric constant tensor:
#      x y z
#    x 1.789470 0.000000 0.000000 
#    y 0.000000 1.831870 0.000000 
#    z 0.000000 0.000000 1.890250 
# 
# From -- ./inp_files/20795.got.cif
#   From: 2010.05.17/outbox.cif.g08.bks.cpg/sg65_11_cif.got.tgz:20795.got - 2010.06.03 17:01:31.
