data_PCOD9491902
_publ_section_title
;
Structure prediction by ZEFSAII (Michael W. Deem and Ramdas Pophale) SiO2 
 PCOD9491902
Probable space group: C M M M
;
_chemical_formula_sum "Si O2"
_cell_formula_units_Z 64
_cell_length_a 8.472586
_cell_length_b 26.334068
_cell_length_c 17.770283
_cell_angle_alpha 90.000000
_cell_angle_beta 90.000000
_cell_angle_gamma 90.000000
_cell_volume 3964.863887
_symmetry_space_group_name_H-M "C M M M"
_symmetry_group_IT_number 65
_symmetry_cell_setting 'orthorhombic'
loop_
_space_group_symop_operation_xyz
x,y,z
-x,-y,z
x,-y,-z
-x,y,-z
-x,-y,-z
x,y,-z
-x,y,z
x,-y,z
1/2+x,1/2+y,z
1/2-x,1/2-y,z
1/2+x,1/2-y,-z
1/2-x,1/2+y,-z
1/2-x,1/2-y,-z
1/2+x,1/2+y,-z
1/2-x,1/2+y,z
1/2+x,1/2-y,z
loop_
_atom_site_type_symbol
_atom_site_label
_atom_site_fract_x
_atom_site_fract_y
_atom_site_fract_z
Si Si1 0.683957 0.061794 0.000000
Si Si2 0.310682 0.901810 0.676960
Si Si3 0.810452 0.000000 0.412623
Si Si4 0.811004 0.194258 0.586858
Si Si5 0.692888 0.940814 0.836359
O O1 0.751510 0.076884 0.081335
O O2 0.500000 0.077494 0.000000
O O3 0.685276 0.000000 0.000000
O O4 0.500000 0.902523 0.676297
O O5 0.251488 0.850239 0.639531
O O6 0.257154 0.909540 0.763418
O O7 0.251016 0.949935 0.629253
O O8 0.760346 0.000000 0.500000
O O9 0.000000 0.000000 0.410508
O O10 0.759648 0.185043 0.500000
O O11 0.750000 0.250000 0.608605
O O12 0.000000 0.194188 0.588222
O O13 0.500000 0.940128 0.839179
O O14 0.737500 0.000000 0.825504
#
# Coordination Sequence:
#
# PCOD9491902 Si02
#       5
#     8  16   8  16  16
#     4   7  10  18  36  60  91 126 155 186 225 267
#     4  11  20  31  49  73  99 125 157 197 241 285
#     4  11  23  35  45  62  93 132 168 197 231 281
#     4  10  21  37  54  71  92 121 160 202 242 284
#     4   8  13  23  39  65  97 126 156 190 227 274
#
# _framework density 16.14179
#
# number of rings (size 3 to 8) (size 9 to 14) (size 15 to 20)
#    0.000    2.500    1.250    4.125    0.000    5.500 
#    0.000    0.000    0.000    0.000    0.000    5.250 
#    0.000    0.000    0.000    0.000    0.000    0.000 
#
# Total GULP energy -178353.706163 kJ/mol
# GULP energy per Si atom -5573.553318 kJ/mol
# Density = 1.610505 g / cm^3
# Si number density = 16.141790 Si / 1000 Ang^3
#
#
#
# Elastic Constant Matrix: (Units=GPa)
#
#
# Indices 1 2 3 4 5 6 
#
# 1 26.1833 22.3679 28.9989 0.0000 0.0000 0.0000
# 2 22.3679 111.2321 93.8547 0.0000 0.0000 0.0000
# 3 28.9989 93.8547 177.0583 0.0000 0.0000 0.0000
# 4 0.0000 0.0000 0.0000 14.5785 0.0000 0.0000
# 5 0.0000 0.0000 0.0000 0.0000 0.0482 0.0000
# 6 0.0000 0.0000 0.0000 0.0000 0.0000 26.8978
#
#
#
# Elastic Compliance Matrix: (Units=1/GPa)
#
#
# Indices 1 2 3 4 5 6 
#
# 1 0.048455 -0.005514 -0.005013 0.000000 0.000000 0.000000
# 2 -0.005514 0.016892 -0.008051 0.000000 0.000000 0.000000
# 3 -0.005013 -0.008051 0.010737 0.000000 0.000000 0.000000
# 4 0.000000 0.000000 0.000000 0.068594 0.000000 0.000000
# 5 0.000000 0.000000 0.000000 0.000000 20.727538 0.000000
# 6 0.000000 0.000000 0.000000 0.000000 0.000000 0.037178
#
#
# Mechanical properties :
#
#
# Convention : Reuss Voigt Hill
#
# Bulk Modulus (GPa) = 25.68877 67.21295 46.45086
# Shear Modulus (GPa) = 0.23856 19.58838 9.91347
#
# Velocity S-wave (km/s) = 0.38485 3.48734 2.48089
# Velocity P-wave (km/s) = 4.01827 7.61215 6.08652
#
# Compressibility (1/GPa) = 0.03892752
#
# Stress axis : x y z
#
# Youngs Moduli (GPa) = 20.63766 59.19812 93.13823
#
# Poissons Ratio (x) = 0.32641 0.46693
# Poissons Ratio (y) = 0.11379 0.74988
# Poissons Ratio (z) = 0.10346 0.47662
#
# Static dielectric constant tensor:
#      x y z
#    x 1.555400 0.000000 0.000000 
#    y 0.000000 1.446250 0.000000 
#    z 0.000000 0.000000 1.586170 
# 
# From -- ./inp_files/49363.got.cif
#   From: 2010.05.17/outbox.cif.g08.bks.cpg/sg65_25_cif.got.tgz:49363.got - 2010.06.03 17:01:31.
