data_PCOD9491991
_publ_section_title
;
Structure prediction by ZEFSAII (Michael W. Deem and Ramdas Pophale) SiO2 
 PCOD9491991
Probable space group: C M M M
;
_chemical_formula_sum "Si O2"
_cell_formula_units_Z 58
_cell_length_a 8.358121
_cell_length_b 16.372771
_cell_length_c 21.496850
_cell_angle_alpha 90.000000
_cell_angle_beta 90.000000
_cell_angle_gamma 90.000000
_cell_volume 2941.749361
_symmetry_space_group_name_H-M "C M M M"
_symmetry_group_IT_number 65
_symmetry_cell_setting 'orthorhombic'
loop_
_space_group_symop_operation_xyz
x,y,z
-x,-y,z
x,-y,-z
-x,y,-z
-x,-y,-z
x,y,-z
-x,y,z
x,-y,z
1/2+x,1/2+y,z
1/2-x,1/2-y,z
1/2+x,1/2-y,-z
1/2-x,1/2+y,-z
1/2-x,1/2-y,-z
1/2+x,1/2+y,-z
1/2-x,1/2+y,z
1/2+x,1/2-y,z
loop_
_atom_site_type_symbol
_atom_site_label
_atom_site_fract_x
_atom_site_fract_y
_atom_site_fract_z
Si Si1 0.808478 0.156639 0.568026
Si Si2 0.687777 0.335319 0.820481
Si Si3 0.696818 0.500000 0.900436
Si Si4 0.500000 0.000000 0.000000
Si Si5 0.809665 0.409831 0.302198
O O1 0.756379 0.123884 0.500000
O O2 0.750000 0.250000 0.571472
O O3 0.746259 0.111789 0.628794
O O4 0.000000 0.155421 0.569536
O O5 0.500000 0.327251 0.813986
O O6 0.750000 0.250000 0.848235
O O7 0.718275 0.416711 0.860724
O O8 0.757345 0.348708 0.751646
O O9 0.500000 0.500000 0.919795
O O10 0.850582 0.500000 0.947027
O O11 0.746436 0.500000 0.285587
O O12 0.000000 0.411443 0.302429
#
# Coordination Sequence:
#
# PCOD9491991 Si02
#       5
#    16  16   8   2  16
#     4  10  21  37  56  78 112 158 210 268 333 399
#     4  11  23  41  69  99 137 174 223 279 328 394
#     4  10  25  47  73 108 142 186 229 269 336 393
#     4  12  26  44  88  98 152 186 220 284 320 394
#     4  11  23  37  58  88 122 164 216 271 332 398
#
# _framework density 19.716159999999999
#
# number of rings (size 3 to 8) (size 9 to 14) (size 15 to 20)
#    0.000    1.379    1.379    3.517    3.862    3.862 
#    0.000    3.448    0.000    0.000    0.000    0.000 
#    0.000    0.000    0.000    0.000    0.000    0.000 
#
# Total GULP energy -161494.123063 kJ/mol
# GULP energy per Si atom -5568.762864 kJ/mol
# Density = 1.967128 g / cm^3
# Si number density = 19.716160 Si / 1000 Ang^3
#
#
#
# Elastic Constant Matrix: (Units=GPa)
#
#
# Indices 1 2 3 4 5 6 
#
# 1 103.1824 41.8584 67.5470 0.0000 0.0000 0.0000
# 2 41.8584 115.9996 43.0945 0.0000 0.0000 0.0000
# 3 67.5470 43.0945 103.0878 0.0000 0.0000 0.0000
# 4 0.0000 0.0000 0.0000 -22.4878 0.0000 0.0000
# 5 0.0000 0.0000 0.0000 0.0000 37.2172 0.0000
# 6 0.0000 0.0000 0.0000 0.0000 0.0000 25.5860
#
#
#
# Elastic Compliance Matrix: (Units=1/GPa)
#
#
# Indices 1 2 3 4 5 6 
#
# 1 0.017535 -0.002438 -0.010470 0.000000 0.000000 0.000000
# 2 -0.002438 0.010545 -0.002811 0.000000 0.000000 0.000000
# 3 -0.010470 -0.002811 0.017736 0.000000 0.000000 0.000000
# 4 0.000000 0.000000 0.000000 -0.044468 0.000000 0.000000
# 5 0.000000 0.000000 0.000000 0.000000 0.026869 0.000000
# 6 0.000000 0.000000 0.000000 0.000000 0.000000 0.039084
#
#
# Mechanical properties :
#
#
# Convention : Reuss Voigt Hill
#
# Bulk Modulus (GPa) = 69.55186 69.69663 69.62425
# Shear Modulus (GPa) = 48.29498 19.38107 33.83802
#
# Velocity S-wave (km/s) = 4.95462 3.13869 4.14727
# Velocity P-wave (km/s) = 8.25132 6.96864 7.63695
#
# Compressibility (1/GPa) = 0.01437776
#
# Stress axis : x y z
#
# Youngs Moduli (GPa) = 57.02951 94.83560 56.38212
#
# Poissons Ratio (x) = 0.23117 0.59035
# Poissons Ratio (y) = 0.13901 0.15848
# Poissons Ratio (z) = 0.59712 0.26657
#
# Static dielectric constant tensor:
#      x y z
#    x 1.693830 0.000000 0.000000 
#    y 0.000000 1.746690 0.000000 
#    z 0.000000 0.000000 1.691180 
# 
# From -- ./inp_files/58630.got.cif
#   From: 2010.05.17/outbox.cif.g08.bks.cpg/sg65_30_cif.got.tgz:58630.got - 2010.06.03 17:01:31.
