data_PCOD9491940
_publ_section_title
;
Structure prediction by ZEFSAII (Michael W. Deem and Ramdas Pophale) SiO2 
 PCOD9491940
Probable space group: C M M M
;
_chemical_formula_sum "Si O2"
_cell_formula_units_Z 104
_cell_length_a 29.583732
_cell_length_b 8.510189
_cell_length_c 23.455489
_cell_angle_alpha 90.000000
_cell_angle_beta 90.000000
_cell_angle_gamma 90.000000
_cell_volume 5905.227811
_symmetry_space_group_name_H-M "C M M M"
_symmetry_group_IT_number 65
_symmetry_cell_setting 'orthorhombic'
loop_
_space_group_symop_operation_xyz
x,y,z
-x,-y,z
x,-y,-z
-x,y,-z
-x,-y,-z
x,y,-z
-x,y,z
x,-y,z
1/2+x,1/2+y,z
1/2-x,1/2-y,z
1/2+x,1/2-y,-z
1/2-x,1/2+y,-z
1/2-x,1/2-y,-z
1/2+x,1/2+y,-z
1/2-x,1/2+y,z
1/2+x,1/2-y,z
loop_
_atom_site_type_symbol
_atom_site_label
_atom_site_fract_x
_atom_site_fract_y
_atom_site_fract_z
Si Si1 0.550119 0.191200 0.648132
Si Si2 0.644395 0.811113 0.830031
Si Si3 0.301095 0.312225 0.721196
Si Si4 0.301056 0.686825 0.500000
Si Si5 0.800051 0.188287 0.065750
Si Si6 0.853430 0.689051 0.610164
Si Si7 0.949938 0.308899 0.218892
O O1 0.500000 0.243934 0.629537
O O2 0.594124 0.242118 0.613460
O O3 0.556203 0.236128 0.714665
O O4 0.549748 0.000000 0.646927
O O5 0.675333 0.743972 0.779350
O O6 0.664105 0.755757 0.890013
O O7 0.592981 0.757663 0.817643
O O8 0.645824 0.000000 0.827017
O O9 0.301040 0.500000 0.718548
O O10 0.250000 0.250000 0.718931
O O11 0.328850 0.244309 0.667770
O O12 0.299550 0.500000 0.500000
O O13 0.250000 0.750000 0.500000
O O14 0.327239 0.745818 0.444140
O O15 0.750000 0.250000 0.080884
O O16 0.799831 0.000000 0.069028
O O17 0.808906 0.234791 0.000000
O O18 0.852547 0.500000 0.608350
O O19 0.950200 0.500000 0.218040
O O20 0.000000 0.256067 0.200477
#
# Coordination Sequence:
#
# PCOD9491940 Si02
#       7
#    16  16  16   8  16  16  16
#     4   8  14  28  54  85 113 140 175 219 265 317
#     4  11  20  33  55  83 111 141 180 226 273 321
#     4  12  24  37  53  77 111 145 179 222 274 327
#     4  12  26  44  61  80 107 145 188 227 273 328
#     4  10  21  37  55  76 106 145 186 227 272 326
#     4  11  21  38  61  85 110 141 183 227 272 320
#     4   8  14  27  50  81 112 141 175 218 266 316
#
# _framework density 17.611514
#
# number of rings (size 3 to 8) (size 9 to 14) (size 15 to 20)
#    0.000    1.846    1.538    5.308    0.000    0.923 
#    0.000    0.385    0.000    7.385    0.000    3.231 
#    0.000    0.000    0.000    0.000    0.000    0.000 
#
# Total GULP energy -290313.898369 kJ/mol
# GULP energy per Si atom -5582.959584 kJ/mol
# Density = 1.757143 g / cm^3
# Si number density = 17.611514 Si / 1000 Ang^3
#
#
#
# Elastic Constant Matrix: (Units=GPa)
#
#
# Indices 1 2 3 4 5 6 
#
# 1 196.2424 40.2836 82.1844 0.0000 0.0000 0.0000
# 2 40.2836 69.0496 28.9374 0.0000 0.0000 0.0000
# 3 82.1844 28.9374 91.5864 0.0000 0.0000 0.0000
# 4 0.0000 0.0000 0.0000 32.7645 0.0000 0.0000
# 5 0.0000 0.0000 0.0000 0.0000 35.9660 0.0000
# 6 0.0000 0.0000 0.0000 0.0000 0.0000 18.6475
#
#
#
# Elastic Compliance Matrix: (Units=1/GPa)
#
#
# Indices 1 2 3 4 5 6 
#
# 1 0.008398 -0.002007 -0.006902 0.000000 0.000000 0.000000
# 2 -0.002007 0.017172 -0.003625 0.000000 0.000000 0.000000
# 3 -0.006902 -0.003625 0.018257 0.000000 0.000000 0.000000
# 4 0.000000 0.000000 0.000000 0.030521 0.000000 0.000000
# 5 0.000000 0.000000 0.000000 0.000000 0.027804 0.000000
# 6 0.000000 0.000000 0.000000 0.000000 0.000000 0.053626
#
#
# Mechanical properties :
#
#
# Convention : Reuss Voigt Hill
#
# Bulk Modulus (GPa) = 53.30364 73.29881 63.30122
# Shear Modulus (GPa) = 26.72367 31.17379 28.94873
#
# Velocity S-wave (km/s) = 3.89961 4.21180 4.05870
# Velocity P-wave (km/s) = 7.11393 8.08471 7.61480
#
# Compressibility (1/GPa) = 0.01876045
#
# Stress axis : x y z
#
# Youngs Moduli (GPa) = 119.07323 58.23326 54.77259
#
# Poissons Ratio (x) = 0.11688 0.37804
# Poissons Ratio (y) = 0.23899 0.19854
# Poissons Ratio (z) = 0.82183 0.21108
#
# Static dielectric constant tensor:
#      x y z
#    x 1.610470 0.000000 0.000000 
#    y 0.000000 1.605010 0.000000 
#    z 0.000000 0.000000 1.569090 
# 
# From -- ./inp_files/65927.got.cif
#   From: 2010.05.17/outbox.cif.g08.bks.cpg/sg65_33_cif.got.tgz:65927.got - 2010.06.03 17:01:31.
