data_PCOD9491324
_publ_section_title
;
Structure prediction by ZEFSAII (Michael W. Deem and Ramdas Pophale) SiO2 
 PCOD9491324
Probable space group: C M M M
;
_chemical_formula_sum "Si O2"
_cell_formula_units_Z 88
_cell_length_a 14.472571
_cell_length_b 16.328465
_cell_length_c 19.901006
_cell_angle_alpha 90.000000
_cell_angle_beta 90.000000
_cell_angle_gamma 90.000000
_cell_volume 4702.903627
_symmetry_space_group_name_H-M "C M M M"
_symmetry_group_IT_number 65
_symmetry_cell_setting 'orthorhombic'
loop_
_space_group_symop_operation_xyz
x,y,z
-x,-y,z
x,-y,-z
-x,y,-z
-x,-y,-z
x,y,-z
-x,y,z
x,-y,z
1/2+x,1/2+y,z
1/2-x,1/2-y,z
1/2+x,1/2-y,-z
1/2-x,1/2+y,-z
1/2-x,1/2-y,-z
1/2+x,1/2+y,-z
1/2-x,1/2+y,z
1/2+x,1/2-y,z
loop_
_atom_site_type_symbol
_atom_site_label
_atom_site_fract_x
_atom_site_fract_y
_atom_site_fract_z
Si Si1 0.254295 0.905041 0.576959
Si Si2 0.000000 0.592908 0.918521
Si Si3 0.895562 0.170148 0.672754
Si Si4 0.798537 0.401256 0.076109
Si Si5 0.395062 0.866920 0.310356
Si Si6 0.735911 0.652089 0.788803
O O1 0.269125 0.879657 0.500000
O O2 0.175141 0.852815 0.613701
O O3 0.346303 0.898177 0.621988
O O4 0.225166 0.000000 0.577728
O O5 0.099121 0.631492 0.902675
O O6 0.000000 0.500000 0.891279
O O7 0.000000 0.587110 0.000000
O O8 0.896527 0.268217 0.682018
O O9 0.850790 0.134255 0.740876
O O10 0.000000 0.142236 0.660676
O O11 0.805694 0.500000 0.073754
O O12 0.729898 0.377076 0.135014
O O13 0.777126 0.373730 0.000000
O O14 0.500000 0.895260 0.300474
O O15 0.325411 0.885941 0.249088
O O16 0.750000 0.750000 0.789427
#
# Coordination Sequence:
#
# PCOD9491324 Si02
#       6
#    16   8  16  16  16  16
#     4  10  21  35  51  76 108 134 161 203 251 297
#     4   7  12  24  40  62  92 122 150 182 226 281
#     4   9  19  37  56  72  96 132 174 214 248 288
#     4   9  17  29  46  69  99 132 163 197 241 295
#     4   9  19  35  54  75 100 133 169 202 245 301
#     4   9  18  31  49  74  99 126 161 209 253 292
#
# _framework density 18.711845
#
# number of rings (size 3 to 8) (size 9 to 14) (size 15 to 20)
#    0.000    3.000    0.000    2.727    1.273    6.182 
#    0.000    3.636    0.000    0.545    0.000    1.273 
#    0.000    0.000    0.000    0.000    0.000    0.000 
#
# Total GULP energy -245137.748005 kJ/mol
# GULP energy per Si atom -5571.312455 kJ/mol
# Density = 1.866926 g / cm^3
# Si number density = 18.711845 Si / 1000 Ang^3
#
#
#
# Elastic Constant Matrix: (Units=GPa)
#
#
# Indices 1 2 3 4 5 6 
#
# 1 68.2813 11.4174 21.1807 0.0000 0.0000 0.0000
# 2 11.4174 12.4056 7.4374 0.0000 0.0000 0.0000
# 3 21.1807 7.4374 120.7642 0.0000 0.0000 0.0000
# 4 0.0000 0.0000 0.0000 24.6768 0.0000 0.0000
# 5 0.0000 0.0000 0.0000 0.0000 11.0502 0.0000
# 6 0.0000 0.0000 0.0000 0.0000 0.0000 6.5531
#
#
#
# Elastic Compliance Matrix: (Units=1/GPa)
#
#
# Indices 1 2 3 4 5 6 
#
# 1 0.017855 -0.015113 -0.002201 0.000000 0.000000 0.000000
# 2 -0.015113 0.096492 -0.003292 0.000000 0.000000 0.000000
# 3 -0.002201 -0.003292 0.008869 0.000000 0.000000 0.000000
# 4 0.000000 0.000000 0.000000 0.040524 0.000000 0.000000
# 5 0.000000 0.000000 0.000000 0.000000 0.090496 0.000000
# 6 0.000000 0.000000 0.000000 0.000000 0.000000 0.152598
#
#
# Mechanical properties :
#
#
# Convention : Reuss Voigt Hill
#
# Bulk Modulus (GPa) = 12.19448 31.28024 21.73736
# Shear Modulus (GPa) = 10.51785 19.21706 14.86746
#
# Velocity S-wave (km/s) = 2.37343 3.20816 2.82183
# Velocity P-wave (km/s) = 3.74727 5.52052 4.71795
#
# Compressibility (1/GPa) = 0.08200435
#
# Stress axis : x y z
#
# Youngs Moduli (GPa) = 56.00633 10.36354 112.74813
#
# Poissons Ratio (x) = 0.15663 0.24814
# Poissons Ratio (y) = 0.84645 0.37114
# Poissons Ratio (z) = 0.12326 0.03411
#
# Static dielectric constant tensor:
#      x y z
#    x 1.666440 0.000000 0.000000 
#    y 0.000000 1.663620 0.000000 
#    z 0.000000 0.000000 1.644390 
# 
# From -- ./inp_files/53049.got.cif
#   From: 2010.05.17/outbox.cif.g08.bks.cpg/sg65_27_cif.got.tgz:53049.got - 2010.06.03 17:01:31.
