data_PCOD9491169
_publ_section_title
;
Structure prediction by ZEFSAII (Michael W. Deem and Ramdas Pophale) SiO2 
 PCOD9491169
Probable space group: C M M M
;
_chemical_formula_sum "Si O2"
_cell_formula_units_Z 72
_cell_length_a 8.701838
_cell_length_b 16.754366
_cell_length_c 25.628159
_cell_angle_alpha 90.000000
_cell_angle_beta 90.000000
_cell_angle_gamma 90.000000
_cell_volume 3736.426142
_symmetry_space_group_name_H-M "C M M M"
_symmetry_group_IT_number 65
_symmetry_cell_setting 'orthorhombic'
loop_
_space_group_symop_operation_xyz
x,y,z
-x,-y,z
x,-y,-z
-x,y,-z
-x,-y,-z
x,y,-z
-x,y,z
x,-y,z
1/2+x,1/2+y,z
1/2-x,1/2-y,z
1/2+x,1/2-y,-z
1/2-x,1/2+y,-z
1/2-x,1/2-y,-z
1/2+x,1/2+y,-z
1/2-x,1/2+y,z
1/2+x,1/2-y,z
loop_
_atom_site_type_symbol
_atom_site_label
_atom_site_fract_x
_atom_site_fract_y
_atom_site_fract_z
Si Si1 0.817592 0.336203 0.735612
Si Si2 0.682055 0.500000 0.437690
Si Si3 0.685591 0.160490 0.615525
Si Si4 0.172683 0.093275 0.835172
Si Si5 0.813544 0.160842 0.056201
O O1 0.750000 0.250000 0.748403
O O2 0.769064 0.354966 0.676226
O O3 0.761953 0.391984 0.781903
O O4 0.000000 0.333185 0.735248
O O5 0.500000 0.500000 0.425623
O O6 0.701902 0.500000 0.500000
O O7 0.753834 0.582996 0.415734
O O8 0.500000 0.163818 0.611452
O O9 0.750000 0.250000 0.601647
O O10 0.242535 0.126074 0.888892
O O11 0.000000 0.127744 0.828494
O O12 0.159404 0.000000 0.843306
O O13 0.750000 0.250000 0.054625
O O14 0.000000 0.159635 0.058053
O O15 0.770162 0.122516 0.000000
#
# Coordination Sequence:
#
# PCOD9491169 Si02
#       5
#    16   8  16  16  16
#     4  10  21  37  58  83 112 146 187 233 284 339
#     4  11  25  43  65  95 129 167 208 251 302 357
#     4  10  22  41  65  93 125 164 209 255 306 362
#     4  10  21  34  50  77 109 143 182 225 280 339
#     4   9  18  33  52  72  97 133 179 228 276 331
#
# _framework density 19.269750999999999
#
# number of rings (size 3 to 8) (size 9 to 14) (size 15 to 20)
#    0.000    2.111    0.000    2.333    1.556    7.556 
#    0.000    2.222    0.000    0.000    0.000    4.667 
#    0.000    0.000    0.000    0.000    0.000    0.000 
#
# Total GULP energy -200576.617819 kJ/mol
# GULP energy per Si atom -5571.572717 kJ/mol
# Density = 1.922589 g / cm^3
# Si number density = 19.269751 Si / 1000 Ang^3
#
#
#
# Elastic Constant Matrix: (Units=GPa)
#
#
# Indices 1 2 3 4 5 6 
#
# 1 41.0207 35.1261 35.5711 0.0000 0.0000 0.0000
# 2 35.1261 106.4889 73.7053 0.0000 0.0000 0.0000
# 3 35.5711 73.7053 94.4336 0.0000 0.0000 0.0000
# 4 0.0000 0.0000 0.0000 53.2483 0.0000 0.0000
# 5 0.0000 0.0000 0.0000 0.0000 52.1404 0.0000
# 6 0.0000 0.0000 0.0000 0.0000 0.0000 26.8759
#
#
#
# Elastic Compliance Matrix: (Units=1/GPa)
#
#
# Indices 1 2 3 4 5 6 
#
# 1 0.037715 -0.005672 -0.009780 0.000000 0.000000 0.000000
# 2 -0.005672 0.021277 -0.014470 0.000000 0.000000 0.000000
# 3 -0.009780 -0.014470 0.025567 0.000000 0.000000 0.000000
# 4 0.000000 0.000000 0.000000 0.018780 0.000000 0.000000
# 5 0.000000 0.000000 0.000000 0.000000 0.019179 0.000000
# 6 0.000000 0.000000 0.000000 0.000000 0.000000 0.037208
#
#
# Mechanical properties :
#
#
# Convention : Reuss Voigt Hill
#
# Bulk Modulus (GPa) = 40.45952 58.97203 49.71577
# Shear Modulus (GPa) = 21.94829 32.95563 27.45196
#
# Velocity S-wave (km/s) = 3.37857 4.13997 3.77850
# Velocity P-wave (km/s) = 6.02176 7.31590 6.70015
#
# Compressibility (1/GPa) = 0.02471606
#
# Stress axis : x y z
#
# Youngs Moduli (GPa) = 26.51452 46.99943 39.11253
#
# Poissons Ratio (x) = 0.26656 0.38251
# Poissons Ratio (y) = 0.15038 0.56597
# Poissons Ratio (z) = 0.25931 0.68009
#
# Static dielectric constant tensor:
#      x y z
#    x 1.703160 0.000000 0.000000 
#    y 0.000000 1.641940 0.000000 
#    z 0.000000 0.000000 1.714840 
# 
# From -- ./inp_files/72482.got.cif
#   From: 2010.05.17/outbox.cif.g08.bks.cpg/sg65_37_cif.got.tgz:72482.got - 2010.06.03 17:01:31.
