data_PCOD9491604
_publ_section_title
;
Structure prediction by ZEFSAII (Michael W. Deem and Ramdas Pophale) SiO2 
 PCOD9491604
Probable space group: C M M M
;
_chemical_formula_sum "Si O2"
_cell_formula_units_Z 88
_cell_length_a 8.233036
_cell_length_b 19.818561
_cell_length_c 29.973754
_cell_angle_alpha 90.000000
_cell_angle_beta 90.000000
_cell_angle_gamma 90.000000
_cell_volume 4890.725306
_symmetry_space_group_name_H-M "C M M M"
_symmetry_group_IT_number 65
_symmetry_cell_setting 'orthorhombic'
loop_
_space_group_symop_operation_xyz
x,y,z
-x,-y,z
x,-y,-z
-x,y,-z
-x,-y,-z
x,y,-z
-x,y,z
x,-y,z
1/2+x,1/2+y,z
1/2-x,1/2-y,z
1/2+x,1/2-y,-z
1/2-x,1/2+y,-z
1/2-x,1/2-y,-z
1/2+x,1/2+y,-z
1/2-x,1/2+y,z
1/2+x,1/2-y,z
loop_
_atom_site_type_symbol
_atom_site_label
_atom_site_fract_x
_atom_site_fract_y
_atom_site_fract_z
Si Si1 0.696629 0.328576 0.000000
Si Si2 0.693817 0.077036 0.371111
Si Si3 0.303242 0.672257 0.193608
Si Si4 0.803855 0.171780 0.095954
Si Si5 0.694216 0.673635 0.550196
Si Si6 0.195744 0.077456 0.273567
O O1 0.750000 0.250000 0.000000
O O2 0.752364 0.357428 0.048030
O O3 0.500000 0.330677 0.000000
O O4 0.500000 0.075447 0.369296
O O5 0.745617 0.123588 0.411860
O O6 0.756238 0.101340 0.322949
O O7 0.754589 0.000000 0.377161
O O8 0.500000 0.671430 0.193992
O O9 0.250000 0.750000 0.198604
O O10 0.249293 0.645966 0.144487
O O11 0.244504 0.625820 0.234122
O O12 0.750000 0.250000 0.095793
O O13 0.000000 0.168936 0.095793
O O14 0.752457 0.655676 0.500000
O O15 0.500000 0.672303 0.549925
O O16 0.750000 0.750000 0.559268
O O17 0.000000 0.076177 0.271298
O O18 0.254118 0.000000 0.268507
#
# Coordination Sequence:
#
# PCOD9491604 Si02
#       6
#     8  16  16  16  16  16
#     4   8  12  18  30  48  73 105 135 167 211 262
#     4  10  21  36  54  76 101 129 162 201 242 283
#     4   9  17  28  43  64  88 114 146 186 230 274
#     4   8  13  21  33  52  78 106 137 173 216 265
#     4  10  21  37  57  80 106 135 165 197 234 278
#     4   9  18  33  50  66  88 121 159 195 231 275
#
# _framework density 17.993241999999999
#
# number of rings (size 3 to 8) (size 9 to 14) (size 15 to 20)
#    0.000    2.909    0.000    1.091    0.000    4.000 
#    0.000    3.636    0.000    0.000    0.000    0.636 
#    0.000    5.091    0.000    0.000    0.000  181.909 
#
# Total GULP energy -244956.455059 kJ/mol
# GULP energy per Si atom -5567.192160 kJ/mol
# Density = 1.795229 g / cm^3
# Si number density = 17.993242 Si / 1000 Ang^3
#
#
#
# Elastic Constant Matrix: (Units=GPa)
#
#
# Indices 1 2 3 4 5 6 
#
# 1 12.9206 6.5393 16.3282 0.0000 0.0000 0.0000
# 2 6.5393 49.0260 87.3020 0.0000 0.0000 0.0000
# 3 16.3282 87.3020 224.4153 0.0000 0.0000 0.0000
# 4 0.0000 0.0000 0.0000 -16.4394 0.0000 0.0000
# 5 0.0000 0.0000 0.0000 0.0000 14.6872 0.0000
# 6 0.0000 0.0000 0.0000 0.0000 0.0000 17.1887
#
#
#
# Elastic Compliance Matrix: (Units=1/GPa)
#
#
# Indices 1 2 3 4 5 6 
#
# 1 0.085250 -0.001060 -0.005790 0.000000 0.000000 0.000000
# 2 -0.001060 0.066398 -0.025753 0.000000 0.000000 0.000000
# 3 -0.005790 -0.025753 0.014896 0.000000 0.000000 0.000000
# 4 0.000000 0.000000 0.000000 -0.060830 0.000000 0.000000
# 5 0.000000 0.000000 0.000000 0.000000 0.068086 0.000000
# 6 0.000000 0.000000 0.000000 0.000000 0.000000 0.058178
#
#
# Mechanical properties :
#
#
# Convention : Reuss Voigt Hill
#
# Bulk Modulus (GPa) = 9.86806 56.30011 33.08408
# Shear Modulus (GPa) = 15.10739 14.83345 14.97042
#
# Velocity S-wave (km/s) = 2.90075 2.87433 2.88757
# Velocity P-wave (km/s) = 4.08845 6.50947 5.43547
#
# Compressibility (1/GPa) = 0.10133709
#
# Stress axis : x y z
#
# Youngs Moduli (GPa) = 11.73020 15.06073 67.13324
#
# Poissons Ratio (x) = 0.01596 0.38873
# Poissons Ratio (y) = 0.01243 1.72888
# Poissons Ratio (z) = 0.06792 0.38786
#
# Static dielectric constant tensor:
#      x y z
#    x 1.626050 0.000000 0.000000 
#    y 0.000000 1.575930 0.000000 
#    z 0.000000 0.000000 1.672430 
# 
# From -- ./inp_files/73117.got.cif
#   From: 2010.05.17/outbox.cif.g08.bks.cpg/sg65_37_cif.got.tgz:73117.got - 2010.06.03 17:01:31.
