data_PCOD9491429
_publ_section_title
;
Structure prediction by ZEFSAII (Michael W. Deem and Ramdas Pophale) SiO2 
 PCOD9491429
Probable space group: C M M M
;
_chemical_formula_sum "Si O2"
_cell_formula_units_Z 64
_cell_length_a 19.306507
_cell_length_b 7.663875
_cell_length_c 23.086375
_cell_angle_alpha 90.000000
_cell_angle_beta 90.000000
_cell_angle_gamma 90.000000
_cell_volume 3415.921370
_symmetry_space_group_name_H-M "C M M M"
_symmetry_group_IT_number 65
_symmetry_cell_setting 'orthorhombic'
loop_
_space_group_symop_operation_xyz
x,y,z
-x,-y,z
x,-y,-z
-x,y,-z
-x,-y,-z
x,y,-z
-x,y,z
x,-y,z
1/2+x,1/2+y,z
1/2-x,1/2-y,z
1/2+x,1/2-y,-z
1/2-x,1/2+y,-z
1/2-x,1/2-y,-z
1/2+x,1/2+y,-z
1/2-x,1/2+y,z
1/2+x,1/2-y,z
loop_
_atom_site_type_symbol
_atom_site_label
_atom_site_fract_x
_atom_site_fract_y
_atom_site_fract_z
Si Si1 0.081468 0.000000 0.569403
Si Si2 0.577868 0.291769 0.875588
Si Si3 0.415296 0.297553 0.000000
Si Si4 0.668394 0.209972 0.634649
Si Si5 0.670396 0.205947 0.233601
O O1 0.120589 0.829290 0.594340
O O2 0.086098 0.000000 0.500000
O O3 0.000000 0.000000 0.585648
O O4 0.500000 0.223480 0.866105
O O5 0.572636 0.500000 0.883824
O O6 0.623528 0.265591 0.819219
O O7 0.605328 0.220852 0.937538
O O8 0.392432 0.500000 0.000000
O O9 0.500000 0.295268 0.000000
O O10 0.750000 0.250000 0.624150
O O11 0.653786 0.268240 0.701328
O O12 0.657759 0.000000 0.628673
O O13 0.750000 0.250000 0.221665
O O14 0.663710 0.000000 0.236657
#
# Coordination Sequence:
#
# PCOD9491429 Si02
#       5
#     8  16   8  16  16
#     4  11  26  44  64  96 133 164 200 250 304 356
#     4   9  17  30  51  77 104 140 183 228 280 338
#     4   7  12  26  46  69 100 137 181 227 272 331
#     4  10  21  41  66  92 122 162 210 254 297 359
#     4  10  21  35  55  80 110 143 183 233 284 336
#
# _framework density 18.735793999999999
#
# number of rings (size 3 to 8) (size 9 to 14) (size 15 to 20)
#    0.000    2.500    1.250    2.250    3.500    3.000 
#    0.000    5.000    0.000    2.250    0.000    0.000 
#    0.000    0.000    0.000    0.000    0.000    0.000 
#
# Total GULP energy -178296.320227 kJ/mol
# GULP energy per Si atom -5571.760007 kJ/mol
# Density = 1.869315 g / cm^3
# Si number density = 18.735794 Si / 1000 Ang^3
#
#
#
# Elastic Constant Matrix: (Units=GPa)
#
#
# Indices 1 2 3 4 5 6 
#
# 1 87.5108 35.2562 93.8637 0.0000 0.0000 0.0000
# 2 35.2562 80.7616 44.1445 0.0000 0.0000 0.0000
# 3 93.8637 44.1445 145.5274 0.0000 0.0000 0.0000
# 4 0.0000 0.0000 0.0000 -212.3623 0.0000 0.0000
# 5 0.0000 0.0000 0.0000 0.0000 52.9923 0.0000
# 6 0.0000 0.0000 0.0000 0.0000 0.0000 3.4174
#
#
#
# Elastic Compliance Matrix: (Units=1/GPa)
#
#
# Indices 1 2 3 4 5 6 
#
# 1 0.038042 -0.003830 -0.023375 0.000000 0.000000 0.000000
# 2 -0.003830 0.015229 -0.002149 0.000000 0.000000 0.000000
# 3 -0.023375 -0.002149 0.022600 0.000000 0.000000 0.000000
# 4 0.000000 0.000000 0.000000 -0.004709 0.000000 0.000000
# 5 0.000000 0.000000 0.000000 0.000000 0.018871 0.000000
# 6 0.000000 0.000000 0.000000 0.000000 0.000000 0.292624
#
#
# Mechanical properties :
#
#
# Convention : Reuss Voigt Hill
#
# Bulk Modulus (GPa) = 58.26650 73.36985 65.81818
# Shear Modulus (GPa) = 11.18351 -21.82150 -5.31899
#
# Velocity S-wave (km/s) = 2.44582 -3.41647 -1.68675
# Velocity P-wave (km/s) = 6.25640 4.86644 5.60468
#
# Compressibility (1/GPa) = 0.01716252
#
# Stress axis : x y z
#
# Youngs Moduli (GPa) = 26.28659 65.66458 44.24773
#
# Poissons Ratio (x) = 0.25152 1.03429
# Poissons Ratio (y) = 0.10069 0.09509
# Poissons Ratio (z) = 0.61445 0.14111
#
# Static dielectric constant tensor:
#      x y z
#    x 1.611240 0.000000 0.000000 
#    y 0.000000 1.680530 0.000000 
#    z 0.000000 0.000000 1.708190 
# 
# From -- ./inp_files/55288.got.cif
#   From: 2010.05.17/outbox.cif.g08.bks.cpg/sg65_28_cif.got.tgz:55288.got - 2010.06.03 17:01:31.
