data_PCOD9491145
_publ_section_title
;
Structure prediction by ZEFSAII (Michael W. Deem and Ramdas Pophale) SiO2 
 PCOD9491145
Probable space group: C M M M
;
_chemical_formula_sum "Si O2"
_cell_formula_units_Z 72
_cell_length_a 18.021481
_cell_length_b 27.708603
_cell_length_c 7.610097
_cell_angle_alpha 90.000000
_cell_angle_beta 90.000000
_cell_angle_gamma 90.000000
_cell_volume 3800.102413
_symmetry_space_group_name_H-M "C M M M"
_symmetry_group_IT_number 65
_symmetry_cell_setting 'orthorhombic'
loop_
_space_group_symop_operation_xyz
x,y,z
-x,-y,z
x,-y,-z
-x,y,-z
-x,-y,-z
x,y,-z
-x,y,z
x,-y,z
1/2+x,1/2+y,z
1/2-x,1/2-y,z
1/2+x,1/2-y,-z
1/2-x,1/2+y,-z
1/2-x,1/2-y,-z
1/2+x,1/2+y,-z
1/2-x,1/2+y,z
1/2+x,1/2-y,z
loop_
_atom_site_type_symbol
_atom_site_label
_atom_site_fract_x
_atom_site_fract_y
_atom_site_fract_z
Si Si1 0.762585 0.802606 0.203421
Si Si2 0.143695 0.053592 0.788659
Si Si3 0.695574 0.903083 0.212160
Si Si4 0.581503 0.344395 0.704716
Si Si5 0.913798 0.442101 0.500000
O O1 0.750000 0.750000 0.284764
O O2 0.717143 0.848689 0.271721
O O3 0.848733 0.817831 0.209957
O O4 0.739630 0.799235 0.000000
O O5 0.230127 0.065495 0.752319
O O6 0.096570 0.098274 0.718465
O O7 0.124320 0.000000 0.725668
O O8 0.135510 0.054503 0.000000
O O9 0.628675 0.922575 0.327959
O O10 0.683174 0.904196 0.000000
O O11 0.582696 0.331258 0.500000
O O12 0.500000 0.333337 0.777591
O O13 0.909395 0.500000 0.500000
O O14 0.000000 0.427873 0.500000
#
# Coordination Sequence:
#
# PCOD9491145 Si02
#       5
#    16  16  16  16   8
#     4   9  19  37  61  84 103 135 183 227 273 328
#     4   9  18  32  52  77 102 138 185 222 260 311
#     4   9  19  37  58  82 112 142 182 234 279 330
#     4  10  21  34  48  75 113 144 173 213 263 316
#     4  11  24  38  55  82 111 147 192 231 286 348
#
# _framework density 18.946857999999999
#
# number of rings (size 3 to 8) (size 9 to 14) (size 15 to 20)
#    0.000    2.556    0.000    2.667    6.222    4.889 
#    0.000    4.444    0.000    4.000    0.000    0.000 
#    0.000    0.000    0.000    0.000    0.000    0.000 
#
# Total GULP energy -200774.470227 kJ/mol
# GULP energy per Si atom -5577.068617 kJ/mol
# Density = 1.890373 g / cm^3
# Si number density = 18.946858 Si / 1000 Ang^3
#
#
#
# Elastic Constant Matrix: (Units=GPa)
#
#
# Indices 1 2 3 4 5 6 
#
# 1 97.9142 26.2864 15.7644 0.0000 0.0000 0.0000
# 2 26.2864 105.9406 0.5192 0.0000 0.0000 0.0000
# 3 15.7644 0.5192 49.7142 0.0000 0.0000 0.0000
# 4 0.0000 0.0000 0.0000 41.1318 0.0000 0.0000
# 5 0.0000 0.0000 0.0000 0.0000 26.3345 0.0000
# 6 0.0000 0.0000 0.0000 0.0000 0.0000 8.4611
#
#
#
# Elastic Compliance Matrix: (Units=1/GPa)
#
#
# Indices 1 2 3 4 5 6 
#
# 1 0.011564 -0.002852 -0.003637 0.000000 0.000000 0.000000
# 2 -0.002852 0.010143 0.000798 0.000000 0.000000 0.000000
# 3 -0.003637 0.000798 0.021260 0.000000 0.000000 0.000000
# 4 0.000000 0.000000 0.000000 0.024312 0.000000 0.000000
# 5 0.000000 0.000000 0.000000 0.000000 0.037973 0.000000
# 6 0.000000 0.000000 0.000000 0.000000 0.000000 0.118188
#
#
# Mechanical properties :
#
#
# Convention : Reuss Voigt Hill
#
# Bulk Modulus (GPa) = 31.65947 37.63434 34.64690
# Shear Modulus (GPa) = 20.37906 29.25208 24.81557
#
# Velocity S-wave (km/s) = 3.28318 3.93351 3.62297
# Velocity P-wave (km/s) = 5.57837 6.36681 5.98559
#
# Compressibility (1/GPa) = 0.03158612
#
# Stress axis : x y z
#
# Youngs Moduli (GPa) = 86.47415 98.59146 47.03666
#
# Poissons Ratio (x) = 0.28113 0.17108
# Poissons Ratio (y) = 0.24658 -0.03755
# Poissons Ratio (z) = 0.31453 -0.07870
#
# Static dielectric constant tensor:
#      x y z
#    x 1.630020 0.000000 0.000000 
#    y 0.000000 1.682370 0.000000 
#    z 0.000000 0.000000 1.706140 
# 
# From -- ./inp_files/9456.got.cif
#   From: 2010.05.17/outbox.cif.g08.bks.cpg/sg65_5_cif.got.tgz:9456.got - 2010.06.03 17:01:31.
