data_PCOD9491112
_publ_section_title
;
Structure prediction by ZEFSAII (Michael W. Deem and Ramdas Pophale) SiO2 
 PCOD9491112
Probable space group: C M M M
;
_chemical_formula_sum "Si O2"
_cell_formula_units_Z 64
_cell_length_a 22.164121
_cell_length_b 17.761674
_cell_length_c 7.333287
_cell_angle_alpha 90.000000
_cell_angle_beta 90.000000
_cell_angle_gamma 90.000000
_cell_volume 2886.908966
_symmetry_space_group_name_H-M "C M M M"
_symmetry_group_IT_number 65
_symmetry_cell_setting 'orthorhombic'
loop_
_space_group_symop_operation_xyz
x,y,z
-x,-y,z
x,-y,-z
-x,y,-z
-x,-y,-z
x,y,-z
-x,y,z
x,-y,z
1/2+x,1/2+y,z
1/2-x,1/2-y,z
1/2+x,1/2-y,-z
1/2-x,1/2+y,-z
1/2-x,1/2-y,-z
1/2+x,1/2+y,-z
1/2-x,1/2+y,z
1/2+x,1/2-y,z
loop_
_atom_site_type_symbol
_atom_site_label
_atom_site_fract_x
_atom_site_fract_y
_atom_site_fract_z
Si Si1 0.130072 0.914456 0.721472
Si Si2 0.427149 0.000000 0.206589
Si Si3 0.315419 0.737036 0.790499
Si Si4 0.569743 0.168080 0.776763
Si Si5 0.500000 0.591575 0.292878
O O1 0.127726 0.914662 0.500000
O O2 0.175575 0.852236 0.785104
O O3 0.063835 0.889098 0.790616
O O4 0.141852 0.000000 0.778339
O O5 0.413320 0.082648 0.283888
O O6 0.500000 0.000000 0.197738
O O7 0.402799 0.000000 0.000000
O O8 0.250000 0.750000 0.704835
O O9 0.376508 0.776290 0.716431
O O10 0.312082 0.763935 0.000000
O O11 0.500000 0.185592 0.720593
O O12 0.567892 0.167902 0.000000
O O13 0.500000 0.500000 0.301516
O O14 0.500000 0.620285 0.500000
#
# Coordination Sequence:
#
# PCOD9491112 Si02
#       5
#    16   8  16  16   8
#     4   9  18  34  55  75  97 131 173 210 248 301
#     4   7  10  20  40  64  85 111 156 202 235 276
#     4  10  21  34  46  72 109 135 162 205 255 299
#     4   8  14  26  45  67  92 125 163 201 241 291
#     4   7  12  26  49  75  97 118 157 212 252 284
#
# _framework density 22.169041
#
# number of rings (size 3 to 8) (size 9 to 14) (size 15 to 20)
#    0.000    3.500    0.000    3.000    1.750    1.000 
#    2.250    0.000    0.000    2.250    0.000    0.000 
#    0.000    3.000    0.000    0.000    0.000    0.000 
#
# Total GULP energy -178243.693258 kJ/mol
# GULP energy per Si atom -5570.115414 kJ/mol
# Density = 2.211858 g / cm^3
# Si number density = 22.169041 Si / 1000 Ang^3
#
#
#
# Elastic Constant Matrix: (Units=GPa)
#
#
# Indices 1 2 3 4 5 6 
#
# 1 161.0769 87.7409 8.1050 0.0000 0.0000 0.0000
# 2 87.7409 119.3736 -3.0961 0.0000 0.0000 0.0000
# 3 8.1050 -3.0961 87.2676 0.0000 0.0000 0.0000
# 4 0.0000 0.0000 0.0000 4.2004 0.0000 0.0000
# 5 0.0000 0.0000 0.0000 0.0000 -7.0579 0.0000
# 6 0.0000 0.0000 0.0000 0.0000 0.0000 35.5697
#
#
#
# Elastic Compliance Matrix: (Units=1/GPa)
#
#
# Indices 1 2 3 4 5 6 
#
# 1 0.010488 -0.007741 -0.001249 0.000000 0.000000 0.000000
# 2 -0.007741 0.014098 0.001219 0.000000 0.000000 0.000000
# 3 -0.001249 0.001219 0.011618 0.000000 0.000000 0.000000
# 4 0.000000 0.000000 0.000000 0.238074 0.000000 0.000000
# 5 0.000000 0.000000 0.000000 0.000000 -0.141686 0.000000
# 6 0.000000 0.000000 0.000000 0.000000 0.000000 0.028114
#
#
# Mechanical properties :
#
#
# Convention : Reuss Voigt Hill
#
# Bulk Modulus (GPa) = 48.39505 61.46862 54.93184
# Shear Modulus (GPa) = 27.30233 24.87366 26.08799
#
# Velocity S-wave (km/s) = 3.51315 3.35326 3.43414
# Velocity P-wave (km/s) = 6.19143 6.54063 6.36842
#
# Compressibility (1/GPa) = 0.02066327
#
# Stress axis : x y z
#
# Youngs Moduli (GPa) = 95.35042 70.93036 86.07163
#
# Poissons Ratio (x) = 0.54907 0.10748
# Poissons Ratio (y) = 0.73810 -0.10493
# Poissons Ratio (z) = 0.11906 -0.08647
#
# Static dielectric constant tensor:
#      x y z
#    x 1.815510 0.000000 0.000000 
#    y 0.000000 1.817500 0.000000 
#    z 0.000000 0.000000 1.857180 
# 
# From -- ./inp_files/13536.got.cif
#   From: 2010.05.17/outbox.cif.g08.bks.cpg/sg65_7_cif.got.tgz:13536.got - 2010.06.03 17:01:31.
