data_PCOD9491382
_publ_section_title
;
Structure prediction by ZEFSAII (Michael W. Deem and Ramdas Pophale) SiO2 
 PCOD9491382
Probable space group: C M M M
;
_chemical_formula_sum "Si O2"
_cell_formula_units_Z 72
_cell_length_a 19.348243
_cell_length_b 13.466744
_cell_length_c 13.333322
_cell_angle_alpha 90.000000
_cell_angle_beta 90.000000
_cell_angle_gamma 90.000000
_cell_volume 3474.101518
_symmetry_space_group_name_H-M "C M M M"
_symmetry_group_IT_number 65
_symmetry_cell_setting 'orthorhombic'
loop_
_space_group_symop_operation_xyz
x,y,z
-x,-y,z
x,-y,-z
-x,y,-z
-x,-y,-z
x,y,-z
-x,y,z
x,-y,z
1/2+x,1/2+y,z
1/2-x,1/2-y,z
1/2+x,1/2-y,-z
1/2-x,1/2+y,-z
1/2-x,1/2-y,-z
1/2+x,1/2+y,-z
1/2-x,1/2+y,z
1/2+x,1/2-y,z
loop_
_atom_site_type_symbol
_atom_site_label
_atom_site_fract_x
_atom_site_fract_y
_atom_site_fract_z
Si Si1 0.690074 0.617014 0.388205
Si Si2 0.869815 0.731111 0.110361
Si Si3 0.743994 0.612890 0.828070
Si Si4 0.921298 0.720883 0.324791
Si Si5 0.416301 0.000000 0.386198
O O1 0.720219 0.630790 0.500000
O O2 0.668017 0.500000 0.382231
O O3 0.739221 0.633066 0.291942
O O4 0.628172 0.696110 0.373421
O O5 0.818728 0.638252 0.128721
O O6 0.814563 0.820316 0.121245
O O7 0.919250 0.738103 0.205220
O O8 0.900864 0.729059 0.000000
O O9 0.726862 0.500000 0.844979
O O10 0.896731 0.606962 0.341394
O O11 0.000000 0.729233 0.362658
O O12 0.500000 0.000000 0.383949
O O13 0.391410 0.000000 0.500000
#
# Coordination Sequence:
#
# PCOD9491382 Si02
#       5
#    16  16  16  16   8
#     4   9  18  34  57  83 110 139 170 213 268 323
#     4  10  21  35  53  78 104 138 181 220 268 317
#     4   9  18  34  55  78 107 135 173 220 266 321
#     4  10  21  36  53  77 109 141 180 223 259 310
#     4   9  18  34  53  71  99 139 176 210 252 303
#
# _framework density 20.724782999999999
#
# number of rings (size 3 to 8) (size 9 to 14) (size 15 to 20)
#    0.000    2.556    0.000    2.000    1.556    4.000 
#    0.000   11.111    0.000    2.000    0.000    6.222 
#    0.000    0.000    0.000    0.000    0.000    0.000 
#
# Total GULP energy -200843.091141 kJ/mol
# GULP energy per Si atom -5578.974754 kJ/mol
# Density = 2.067761 g / cm^3
# Si number density = 20.724783 Si / 1000 Ang^3
#
#
#
# Elastic Constant Matrix: (Units=GPa)
#
#
# Indices 1 2 3 4 5 6 
#
# 1 45.6931 12.9740 -7.1069 0.0000 0.0000 0.0000
# 2 12.9740 111.1142 21.2962 0.0000 0.0000 0.0000
# 3 -7.1069 21.2962 129.3512 0.0000 0.0000 0.0000
# 4 0.0000 0.0000 0.0000 17.0909 0.0000 0.0000
# 5 0.0000 0.0000 0.0000 0.0000 5.8038 0.0000
# 6 0.0000 0.0000 0.0000 0.0000 0.0000 15.5832
#
#
#
# Elastic Compliance Matrix: (Units=1/GPa)
#
#
# Indices 1 2 3 4 5 6 
#
# 1 0.023018 -0.003026 0.001763 0.000000 0.000000 0.000000
# 2 -0.003026 0.009691 -0.001762 0.000000 0.000000 0.000000
# 3 0.001763 -0.001762 0.008118 0.000000 0.000000 0.000000
# 4 0.000000 0.000000 0.000000 0.058511 0.000000 0.000000
# 5 0.000000 0.000000 0.000000 0.000000 0.172302 0.000000
# 6 0.000000 0.000000 0.000000 0.000000 0.000000 0.064172
#
#
# Mechanical properties :
#
#
# Convention : Reuss Voigt Hill
#
# Bulk Modulus (GPa) = 28.75382 37.83166 33.29274
# Shear Modulus (GPa) = 14.14617 24.96192 19.55404
#
# Velocity S-wave (km/s) = 2.61544 3.47428 3.07499
# Velocity P-wave (km/s) = 4.79843 5.86414 5.35785
#
# Compressibility (1/GPa) = 0.03477799
#
# Stress axis : x y z
#
# Youngs Moduli (GPa) = 43.44356 103.19204 123.18625
#
# Poissons Ratio (x) = 0.31221 -0.21715
# Poissons Ratio (y) = 0.13144 0.21702
# Poissons Ratio (z) = -0.07658 0.18179
#
# Static dielectric constant tensor:
#      x y z
#    x 1.718780 0.000000 0.000000 
#    y 0.000000 1.755590 0.000000 
#    z 0.000000 0.000000 1.777950 
# 
# From -- ./inp_files/42169.got.cif
#   From: 2010.05.17/outbox.cif.g08.bks.cpg/sg65_22_cif.got.tgz:42169.got - 2010.06.03 17:01:31.
