data_PCOD9491549
_publ_section_title
;
Structure prediction by ZEFSAII (Michael W. Deem and Ramdas Pophale) SiO2 
 PCOD9491549
Probable space group: C M M M
;
_chemical_formula_sum "Si O2"
_cell_formula_units_Z 96
_cell_length_a 20.889836
_cell_length_b 8.748183
_cell_length_c 30.369337
_cell_angle_alpha 90.000000
_cell_angle_beta 90.000000
_cell_angle_gamma 90.000000
_cell_volume 5549.938883
_symmetry_space_group_name_H-M "C M M M"
_symmetry_group_IT_number 65
_symmetry_cell_setting 'orthorhombic'
loop_
_space_group_symop_operation_xyz
x,y,z
-x,-y,z
x,-y,-z
-x,y,-z
-x,-y,-z
x,y,-z
-x,y,z
x,-y,z
1/2+x,1/2+y,z
1/2-x,1/2-y,z
1/2+x,1/2-y,-z
1/2-x,1/2+y,-z
1/2-x,1/2-y,-z
1/2+x,1/2+y,-z
1/2-x,1/2+y,z
1/2+x,1/2-y,z
loop_
_atom_site_type_symbol
_atom_site_label
_atom_site_fract_x
_atom_site_fract_y
_atom_site_fract_z
Si Si1 0.680431 0.815329 0.550779
Si Si2 0.181106 0.817224 0.885906
Si Si3 0.072501 0.686194 0.381222
Si Si4 0.926679 0.315749 0.051103
Si Si5 0.073793 0.315624 0.720143
Si Si6 0.681027 0.682852 0.216354
O O1 0.666500 0.772125 0.500000
O O2 0.750000 0.750000 0.562391
O O3 0.625601 0.761838 0.584208
O O4 0.683141 0.000000 0.552584
O O5 0.250000 0.750000 0.899281
O O6 0.124869 0.756518 0.916699
O O7 0.170126 0.772119 0.834786
O O8 0.183892 0.000000 0.888035
O O9 0.072349 0.500000 0.382096
O O10 0.086425 0.729952 0.330688
O O11 0.000000 0.735270 0.392189
O O12 0.922991 0.500000 0.053946
O O13 0.000000 0.271454 0.061907
O O14 0.914789 0.273853 0.000000
O O15 0.078138 0.500000 0.722438
O O16 0.124640 0.243852 0.752986
O O17 0.000000 0.273821 0.730423
O O18 0.683749 0.500000 0.218536
O O19 0.750000 0.750000 0.229714
#
# Coordination Sequence:
#
# PCOD9491549 Si02
#       6
#    16  16  16  16  16  16
#     4   9  17  29  46  68  94 124 157 195 239 285
#     4  10  21  36  54  76 102 133 168 207 250 294
#     4   8  15  29  48  70  95 122 157 200 239 280
#     4   9  19  36  56  78 105 136 169 205 245 291
#     4   9  18  33  52  73  99 131 164 200 246 298
#     4  10  21  36  53  74 101 131 166 208 249 293
#
# _framework density 17.297488000000001
#
# number of rings (size 3 to 8) (size 9 to 14) (size 15 to 20)
#    0.000    2.833    0.000    2.500    0.000    5.000 
#    0.000    8.333    0.000    1.500    0.000    2.333 
#    0.000    0.000    0.000    0.000    0.000    0.000 
#
# Total GULP energy -267654.315117 kJ/mol
# GULP energy per Si atom -5576.131565 kJ/mol
# Density = 1.725812 g / cm^3
# Si number density = 17.297488 Si / 1000 Ang^3
#
#
#
# Elastic Constant Matrix: (Units=GPa)
#
#
# Indices 1 2 3 4 5 6 
#
# 1 184.2243 43.7208 128.2221 0.0000 0.0000 0.0000
# 2 43.7208 19.3522 34.0796 0.0000 0.0000 0.0000
# 3 128.2221 34.0796 109.7829 0.0000 0.0000 0.0000
# 4 0.0000 0.0000 0.0000 20.9534 0.0000 0.0000
# 5 0.0000 0.0000 0.0000 0.0000 43.3653 0.0000
# 6 0.0000 0.0000 0.0000 0.0000 0.0000 33.7131
#
#
#
# Elastic Compliance Matrix: (Units=1/GPa)
#
#
# Indices 1 2 3 4 5 6 
#
# 1 0.030565 -0.013648 -0.031462 0.000000 0.000000 0.000000
# 2 -0.013648 0.120080 -0.021336 0.000000 0.000000 0.000000
# 3 -0.031462 -0.021336 0.052479 0.000000 0.000000 0.000000
# 4 0.000000 0.000000 0.000000 0.047725 0.000000 0.000000
# 5 0.000000 0.000000 0.000000 0.000000 0.023060 0.000000
# 6 0.000000 0.000000 0.000000 0.000000 0.000000 0.029662
#
#
# Mechanical properties :
#
#
# Convention : Reuss Voigt Hill
#
# Bulk Modulus (GPa) = 14.23861 80.60050 47.41955
# Shear Modulus (GPa) = 10.87257 26.76215 18.81736
#
# Velocity S-wave (km/s) = 2.50984 3.93768 3.30186
# Velocity P-wave (km/s) = 4.08026 8.20802 6.48151
#
# Compressibility (1/GPa) = 0.07023159
#
# Stress axis : x y z
#
# Youngs Moduli (GPa) = 32.71704 8.32782 19.05529
#
# Poissons Ratio (x) = 0.11365 0.59952
# Poissons Ratio (y) = 0.44651 0.40657
# Poissons Ratio (z) = 1.02935 0.17768
#
# Static dielectric constant tensor:
#      x y z
#    x 1.560240 0.000000 0.000000 
#    y 0.000000 1.586750 0.000000 
#    z 0.000000 0.000000 1.579270 
# 
# From -- ./inp_files/71411.got.cif
#   From: 2010.05.17/outbox.cif.g08.bks.cpg/sg65_36_cif.got.tgz:71411.got - 2010.06.03 17:01:31.
