data_PCOD9491122
_publ_section_title
;
Structure prediction by ZEFSAII (Michael W. Deem and Ramdas Pophale) SiO2 
 PCOD9491122
Probable space group: C M M M
;
_chemical_formula_sum "Si O2"
_cell_formula_units_Z 72
_cell_length_a 17.569177
_cell_length_b 26.450469
_cell_length_c 7.468099
_cell_angle_alpha 90.000000
_cell_angle_beta 90.000000
_cell_angle_gamma 90.000000
_cell_volume 3470.522478
_symmetry_space_group_name_H-M "C M M M"
_symmetry_group_IT_number 65
_symmetry_cell_setting 'orthorhombic'
loop_
_space_group_symop_operation_xyz
x,y,z
-x,-y,z
x,-y,-z
-x,y,-z
-x,-y,-z
x,y,-z
-x,y,z
x,-y,z
1/2+x,1/2+y,z
1/2-x,1/2-y,z
1/2+x,1/2-y,-z
1/2-x,1/2+y,-z
1/2-x,1/2-y,-z
1/2+x,1/2+y,-z
1/2-x,1/2+y,z
1/2+x,1/2-y,z
loop_
_atom_site_type_symbol
_atom_site_label
_atom_site_fract_x
_atom_site_fract_y
_atom_site_fract_z
Si Si1 0.412012 0.000000 0.281099
Si Si2 0.873288 0.944933 0.716586
Si Si3 0.252037 0.305396 0.296054
Si Si4 0.797104 0.412977 0.282013
Si Si5 0.081624 0.835891 0.794222
O O1 0.365117 0.050147 0.224504
O O2 0.500000 0.000000 0.224633
O O3 0.411202 0.000000 0.500000
O O4 0.878624 0.942682 0.500000
O O5 0.784083 0.938044 0.763821
O O6 0.915985 0.896634 0.790130
O O7 0.899925 0.000000 0.774457
O O8 0.223065 0.299817 0.500000
O O9 0.250000 0.250000 0.209901
O O10 0.208587 0.354560 0.218742
O O11 0.341138 0.319750 0.300587
O O12 0.799457 0.410943 0.500000
O O13 0.000000 0.818788 0.720509
O O14 0.087099 0.819035 0.000000
#
# Coordination Sequence:
#
# PCOD9491122 Si02
#       5
#     8  16  16  16  16
#     4   9  14  20  36  64  96 125 148 182 237 291
#     4   9  16  28  48  69  92 128 166 199 238 286
#     4   9  18  33  53  73  92 122 164 207 248 291
#     4   8  13  24  41  63  93 122 152 189 232 285
#     4  10  21  34  47  68  99 130 159 197 245 294
#
# _framework density 20.746155999999999
#
# number of rings (size 3 to 8) (size 9 to 14) (size 15 to 20)
#    0.000    3.000    1.111    2.000    0.000    3.111 
#    0.000    3.333    0.000    4.000    0.000    0.000 
#    0.000   22.222    0.000    0.000    0.000    0.000 
#
# Total GULP energy -200623.580089 kJ/mol
# GULP energy per Si atom -5572.877225 kJ/mol
# Density = 2.069894 g / cm^3
# Si number density = 20.746156 Si / 1000 Ang^3
#
#
#
# Elastic Constant Matrix: (Units=GPa)
#
#
# Indices 1 2 3 4 5 6 
#
# 1 120.4962 49.9449 -0.7795 0.0000 0.0000 0.0000
# 2 49.9449 162.8340 0.9165 0.0000 0.0000 0.0000
# 3 -0.7795 0.9165 58.8536 0.0000 0.0000 0.0000
# 4 0.0000 0.0000 0.0000 11.2030 0.0000 0.0000
# 5 0.0000 0.0000 0.0000 0.0000 6.9729 0.0000
# 6 0.0000 0.0000 0.0000 0.0000 0.0000 9.2530
#
#
#
# Elastic Compliance Matrix: (Units=1/GPa)
#
#
# Indices 1 2 3 4 5 6 
#
# 1 0.009510 -0.002918 0.000171 0.000000 0.000000 0.000000
# 2 -0.002918 0.007037 -0.000148 0.000000 0.000000 0.000000
# 3 0.000171 -0.000148 0.016996 0.000000 0.000000 0.000000
# 4 0.000000 0.000000 0.000000 0.089262 0.000000 0.000000
# 5 0.000000 0.000000 0.000000 0.000000 0.143413 0.000000
# 6 0.000000 0.000000 0.000000 0.000000 0.000000 0.108073
#
#
# Mechanical properties :
#
#
# Convention : Reuss Voigt Hill
#
# Bulk Modulus (GPa) = 36.03186 49.14974 42.59080
# Shear Modulus (GPa) = 12.84256 24.95924 18.90090
#
# Velocity S-wave (km/s) = 2.49074 3.47230 3.02164
# Velocity P-wave (km/s) = 5.06728 6.31017 5.72257
#
# Compressibility (1/GPa) = 0.02775321
#
# Stress axis : x y z
#
# Youngs Moduli (GPa) = 105.15789 142.10611 58.83779
#
# Poissons Ratio (x) = 0.41463 -0.01008
# Poissons Ratio (y) = 0.30682 0.00872
# Poissons Ratio (z) = -0.01802 0.02106
#
# Static dielectric constant tensor:
#      x y z
#    x 1.716470 0.000000 0.000000 
#    y 0.000000 1.766620 0.000000 
#    z 0.000000 0.000000 1.820500 
# 
# From -- ./inp_files/9457.got.cif
#   From: 2010.05.17/outbox.cif.g08.bks.cpg/sg65_5_cif.got.tgz:9457.got - 2010.06.03 17:01:31.
