data_PCOD9491032
_publ_section_title
;
Structure prediction by ZEFSAII (Michael W. Deem and Ramdas Pophale) SiO2 
 PCOD9491032
Probable space group: C M M M
;
_chemical_formula_sum "Si O2"
_cell_formula_units_Z 80
_cell_length_a 18.739492
_cell_length_b 7.705902
_cell_length_c 28.161987
_cell_angle_alpha 90.000000
_cell_angle_beta 90.000000
_cell_angle_gamma 90.000000
_cell_volume 4066.722971
_symmetry_space_group_name_H-M "C M M M"
_symmetry_group_IT_number 65
_symmetry_cell_setting 'orthorhombic'
loop_
_space_group_symop_operation_xyz
x,y,z
-x,-y,z
x,-y,-z
-x,y,-z
-x,-y,-z
x,y,-z
-x,y,z
x,-y,z
1/2+x,1/2+y,z
1/2-x,1/2-y,z
1/2+x,1/2-y,-z
1/2-x,1/2+y,-z
1/2-x,1/2-y,-z
1/2+x,1/2+y,-z
1/2-x,1/2+y,z
1/2+x,1/2-y,z
loop_
_atom_site_type_symbol
_atom_site_label
_atom_site_fract_x
_atom_site_fract_y
_atom_site_fract_z
Si Si1 0.084739 0.500000 0.943637
Si Si2 0.580312 0.205591 0.500000
Si Si3 0.832426 0.207568 0.222306
Si Si4 0.917767 0.213168 0.686338
Si Si5 0.333006 0.704616 0.405372
Si Si6 0.833705 0.208345 0.886254
O O1 0.119956 0.670846 0.920326
O O2 0.000000 0.500000 0.935233
O O3 0.097631 0.500000 0.000000
O O4 0.500000 0.281288 0.500000
O O5 0.624043 0.251981 0.452941
O O6 0.573843 0.000000 0.500000
O O7 0.750000 0.250000 0.232685
O O8 0.882739 0.273053 0.264297
O O9 0.849101 0.262998 0.168517
O O10 0.838613 0.000000 0.221725
O O11 0.871569 0.277200 0.641580
O O12 0.000000 0.265134 0.681826
O O13 0.916568 0.000000 0.686640
O O14 0.336274 0.500000 0.400117
O O15 0.250000 0.750000 0.408938
O O16 0.750000 0.250000 0.894204
O O17 0.844950 0.000000 0.891482
#
# Coordination Sequence:
#
# PCOD9491032 Si02
#       6
#     8   8  16  16  16  16
#     4  11  26  44  62  92 133 169 209 268 327 379
#     4  11  24  41  60  81 109 143 178 231 292 345
#     4   9  18  32  57  85 115 151 190 239 292 351
#     4   9  18  33  53  81 114 148 188 234 286 345
#     4  11  22  37  59  83 110 146 190 235 282 341
#     4  10  20  39  66  95 125 166 217 264 315 377
#
# _framework density 19.671859000000001
#
# number of rings (size 3 to 8) (size 9 to 14) (size 15 to 20)
#    0.000    2.000    1.000    2.400    1.400    3.600 
#    0.000    4.000    0.000    2.400    0.000    0.000 
#    0.000    0.000    0.000    0.000    0.000    0.000 
#
# Total GULP energy -223369.529481 kJ/mol
# GULP energy per Si atom -5584.238237 kJ/mol
# Density = 1.962709 g / cm^3
# Si number density = 19.671859 Si / 1000 Ang^3
#
#
#
# Elastic Constant Matrix: (Units=GPa)
#
#
# Indices 1 2 3 4 5 6 
#
# 1 174.5659 39.0442 132.5635 0.0000 0.0000 0.0000
# 2 39.0442 75.7298 46.4252 0.0000 0.0000 0.0000
# 3 132.5635 46.4252 173.3692 0.0000 0.0000 0.0000
# 4 0.0000 0.0000 0.0000 -18.7786 0.0000 0.0000
# 5 0.0000 0.0000 0.0000 0.0000 44.9880 0.0000
# 6 0.0000 0.0000 0.0000 0.0000 0.0000 13.1493
#
#
#
# Elastic Compliance Matrix: (Units=1/GPa)
#
#
# Indices 1 2 3 4 5 6 
#
# 1 0.013698 -0.000767 -0.010268 0.000000 0.000000 0.000000
# 2 -0.000767 0.015841 -0.003655 0.000000 0.000000 0.000000
# 3 -0.010268 -0.003655 0.014598 0.000000 0.000000 0.000000
# 4 0.000000 0.000000 0.000000 -0.053252 0.000000 0.000000
# 5 0.000000 0.000000 0.000000 0.000000 0.022228 0.000000
# 6 0.000000 0.000000 0.000000 0.000000 0.000000 0.076049
#
#
# Mechanical properties :
#
#
# Convention : Reuss Voigt Hill
#
# Bulk Modulus (GPa) = 67.77104 95.52563 81.64833
# Shear Modulus (GPa) = 40.49801 21.58055 31.03928
#
# Velocity S-wave (km/s) = 4.54219 3.31573 3.97653
# Velocity P-wave (km/s) = 7.87618 7.95762 7.91700
#
# Compressibility (1/GPa) = 0.01475557
#
# Stress axis : x y z
#
# Youngs Moduli (GPa) = 73.00496 63.12619 68.50137
#
# Poissons Ratio (x) = 0.04844 0.70339
# Poissons Ratio (y) = 0.05602 0.25039
# Poissons Ratio (z) = 0.74963 0.23074
#
# Static dielectric constant tensor:
#      x y z
#    x 1.585750 0.000000 0.000000 
#    y 0.000000 1.703200 0.000000 
#    z 0.000000 0.000000 2.290940 
# 
# From -- ./inp_files/75119.got.cif
#   From: 2010.05.17/outbox.cif.g08.bks.cpg/sg65_38_cif.got.tgz:75119.got - 2010.06.03 17:01:31.
