data_PCOD9491439
_publ_section_title
;
Structure prediction by ZEFSAII (Michael W. Deem and Ramdas Pophale) SiO2 
 PCOD9491439
Probable space group: C M M M
;
_chemical_formula_sum "Si O2"
_cell_formula_units_Z 56
_cell_length_a 14.843448
_cell_length_b 10.011777
_cell_length_c 17.806263
_cell_angle_alpha 90.000000
_cell_angle_beta 90.000000
_cell_angle_gamma 90.000000
_cell_volume 2646.176125
_symmetry_space_group_name_H-M "C M M M"
_symmetry_group_IT_number 65
_symmetry_cell_setting 'orthorhombic'
loop_
_space_group_symop_operation_xyz
x,y,z
-x,-y,z
x,-y,-z
-x,y,-z
-x,-y,-z
x,y,-z
-x,y,z
x,-y,z
1/2+x,1/2+y,z
1/2-x,1/2-y,z
1/2+x,1/2-y,-z
1/2-x,1/2+y,-z
1/2-x,1/2-y,-z
1/2+x,1/2+y,-z
1/2-x,1/2+y,z
1/2+x,1/2-y,z
loop_
_atom_site_type_symbol
_atom_site_label
_atom_site_fract_x
_atom_site_fract_y
_atom_site_fract_z
Si Si1 0.896491 0.712326 0.192729
Si Si2 0.400759 0.500000 0.116875
Si Si3 0.606311 0.349201 0.666823
Si Si4 0.695561 0.000000 0.914522
Si Si5 0.164674 0.843356 0.500000
O O1 0.859615 0.732895 0.277423
O O2 0.838340 0.625098 0.135280
O O3 0.000000 0.660776 0.192937
O O4 0.899403 0.864224 0.164021
O O5 0.500000 0.500000 0.078979
O O6 0.303481 0.500000 0.078334
O O7 0.500000 0.356531 0.683832
O O8 0.644184 0.500000 0.679363
O O9 0.615088 0.318792 0.578776
O O10 0.658141 0.000000 0.000000
O O11 0.250000 0.750000 0.500000
O O12 0.188467 0.000000 0.500000
#
# Coordination Sequence:
#
# PCOD9491439 Si02
#       5
#    16   8  16   8   8
#     4  10  21  41  67  94 126 166 212 261 319 385
#     4  10  22  42  67  91 118 163 218 262 306 377
#     4   9  17  36  65  91 119 162 215 258 301 364
#     4  12  27  43  62  94 131 163 205 265 337 396
#     4  10  21  35  55  91 131 164 204 256 307 355
#
# _framework density 21.162613
#
# number of rings (size 3 to 8) (size 9 to 14) (size 15 to 20)
#    0.000    2.000    1.429    1.714    0.000    7.714 
#    2.571    2.857    0.000    0.857    0.000    0.000 
#    0.000    0.000    0.000    0.000    0.000    0.000 
#
# Total GULP energy -156038.610512 kJ/mol
# GULP energy per Si atom -5572.807518 kJ/mol
# Density = 2.111445 g / cm^3
# Si number density = 21.162613 Si / 1000 Ang^3
#
#
#
# Elastic Constant Matrix: (Units=GPa)
#
#
# Indices 1 2 3 4 5 6 
#
# 1 100.2387 25.9313 46.1537 0.0000 0.0000 0.0000
# 2 25.9313 94.1109 70.7372 0.0000 0.0000 0.0000
# 3 46.1537 70.7372 195.7479 0.0000 0.0000 0.0000
# 4 0.0000 0.0000 0.0000 44.7204 0.0000 0.0000
# 5 0.0000 0.0000 0.0000 0.0000 18.2421 0.0000
# 6 0.0000 0.0000 0.0000 0.0000 0.0000 31.0632
#
#
#
# Elastic Compliance Matrix: (Units=1/GPa)
#
#
# Indices 1 2 3 4 5 6 
#
# 1 0.011350 -0.001532 -0.002122 0.000000 0.000000 0.000000
# 2 -0.001532 0.014795 -0.004985 0.000000 0.000000 0.000000
# 3 -0.002122 -0.004985 0.007411 0.000000 0.000000 0.000000
# 4 0.000000 0.000000 0.000000 0.022361 0.000000 0.000000
# 5 0.000000 0.000000 0.000000 0.000000 0.054818 0.000000
# 6 0.000000 0.000000 0.000000 0.000000 0.000000 0.032192
#
#
# Mechanical properties :
#
#
# Convention : Reuss Voigt Hill
#
# Bulk Modulus (GPa) = 61.44042 75.08245 68.26144
# Shear Modulus (GPa) = 30.18744 35.29016 32.73880
#
# Velocity S-wave (km/s) = 3.78094 4.08802 3.93747
# Velocity P-wave (km/s) = 6.93947 7.60516 7.27992
#
# Compressibility (1/GPa) = 0.01627593
#
# Stress axis : x y z
#
# Youngs Moduli (GPa) = 88.10759 67.59055 134.94274
#
# Poissons Ratio (x) = 0.10355 0.28641
# Poissons Ratio (y) = 0.13498 0.67272
# Poissons Ratio (z) = 0.18700 0.33695
#
# Static dielectric constant tensor:
#      x y z
#    x 1.789720 0.000000 0.000000 
#    y 0.000000 1.748690 0.000000 
#    z 0.000000 0.000000 1.860760 
# 
# From -- ./inp_files/52467.got.cif
#   From: 2010.05.17/outbox.cif.g08.bks.cpg/sg65_27_cif.got.tgz:52467.got - 2010.06.03 17:01:31.
