data_PCOD9491657
_publ_section_title
;
Structure prediction by ZEFSAII (Michael W. Deem and Ramdas Pophale) SiO2 
 PCOD9491657
Probable space group: C M M M
;
_chemical_formula_sum "Si O2"
_cell_formula_units_Z 72
_cell_length_a 27.200737
_cell_length_b 9.074520
_cell_length_c 16.188145
_cell_angle_alpha 90.000000
_cell_angle_beta 90.000000
_cell_angle_gamma 90.000000
_cell_volume 3995.778624
_symmetry_space_group_name_H-M "C M M M"
_symmetry_group_IT_number 65
_symmetry_cell_setting 'orthorhombic'
loop_
_space_group_symop_operation_xyz
x,y,z
-x,-y,z
x,-y,-z
-x,y,-z
-x,-y,-z
x,y,-z
-x,y,z
x,-y,z
1/2+x,1/2+y,z
1/2-x,1/2-y,z
1/2+x,1/2-y,-z
1/2-x,1/2+y,-z
1/2-x,1/2-y,-z
1/2+x,1/2+y,-z
1/2-x,1/2+y,z
1/2+x,1/2-y,z
loop_
_atom_site_type_symbol
_atom_site_label
_atom_site_fract_x
_atom_site_fract_y
_atom_site_fract_z
Si Si1 0.657920 0.323097 0.093156
Si Si2 0.945373 0.823920 0.171223
Si Si3 0.095749 0.324593 0.666549
Si Si4 0.700621 0.825247 0.746001
Si Si5 0.941235 0.174442 0.500000
O O1 0.664310 0.500000 0.101125
O O2 0.600245 0.290311 0.111169
O O3 0.688223 0.242191 0.164141
O O4 0.670975 0.279860 0.000000
O O5 0.935164 0.741641 0.257216
O O6 0.000000 0.787911 0.139720
O O7 0.943691 0.000000 0.186416
O O8 0.088318 0.500000 0.661697
O O9 0.152750 0.296317 0.689946
O O10 0.080653 0.248295 0.581834
O O11 0.750000 0.750000 0.713956
O O12 0.707186 0.000000 0.752724
O O13 0.000000 0.195664 0.500000
O O14 0.931321 0.000000 0.500000
#
# Coordination Sequence:
#
# PCOD9491657 Si02
#       5
#    16  16  16  16   8
#     4   9  18  32  50  74 104 137 174 216 260 306
#     4   9  17  30  49  73 103 139 176 213 255 305
#     4  10  21  36  54  78 106 135 171 213 255 303
#     4  10  21  37  57  78 101 133 172 214 261 310
#     4  11  23  37  56  83 112 141 172 205 244 293
#
# _framework density 18.019016000000001
#
# number of rings (size 3 to 8) (size 9 to 14) (size 15 to 20)
#    0.000    2.333    0.000    2.333    0.000    8.000 
#    0.000    2.778    0.000    0.000    0.000    6.222 
#    0.000    0.000    0.000    0.000    0.000    0.000 
#
# Total GULP energy -200946.400902 kJ/mol
# GULP energy per Si atom -5581.844469 kJ/mol
# Density = 1.797800 g / cm^3
# Si number density = 18.019016 Si / 1000 Ang^3
#
#
#
# Elastic Constant Matrix: (Units=GPa)
#
#
# Indices 1 2 3 4 5 6 
#
# 1 69.2547 34.8927 -1.0437 0.0000 0.0000 0.0000
# 2 34.8927 44.6978 32.7171 0.0000 0.0000 0.0000
# 3 -1.0437 32.7171 77.0723 0.0000 0.0000 0.0000
# 4 0.0000 0.0000 0.0000 2.9582 0.0000 0.0000
# 5 0.0000 0.0000 0.0000 0.0000 4.2885 0.0000
# 6 0.0000 0.0000 0.0000 0.0000 0.0000 28.2326
#
#
#
# Elastic Compliance Matrix: (Units=1/GPa)
#
#
# Indices 1 2 3 4 5 6 
#
# 1 0.034827 -0.039943 0.017427 0.000000 0.000000 0.000000
# 2 -0.039943 0.078269 -0.033766 0.000000 0.000000 0.000000
# 3 0.017427 -0.033766 0.027544 0.000000 0.000000 0.000000
# 4 0.000000 0.000000 0.000000 0.338047 0.000000 0.000000
# 5 0.000000 0.000000 0.000000 0.000000 0.233181 0.000000
# 6 0.000000 0.000000 0.000000 0.000000 0.000000 0.035420
#
#
# Mechanical properties :
#
#
# Convention : Reuss Voigt Hill
#
# Bulk Modulus (GPa) = 35.61676 36.01744 35.81710
# Shear Modulus (GPa) = 5.75236 15.39310 10.57273
#
# Velocity S-wave (km/s) = 1.78866 2.92596 2.42493
# Velocity P-wave (km/s) = 4.90661 5.60776 5.26886
#
# Compressibility (1/GPa) = 0.02807667
#
# Stress axis : x y z
#
# Youngs Moduli (GPa) = 28.71369 12.77653 36.30508
#
# Poissons Ratio (x) = 0.51033 -0.63270
# Poissons Ratio (y) = 1.14691 1.22587
# Poissons Ratio (z) = -0.50040 0.43141
#
# Static dielectric constant tensor:
#      x y z
#    x 1.633540 0.000000 0.000000 
#    y 0.000000 1.596630 0.000000 
#    z 0.000000 0.000000 1.577640 
# 
# From -- ./inp_files/36526.got.cif
#   From: 2010.05.17/outbox.cif.g08.bks.cpg/sg65_19_cif.got.tgz:36526.got - 2010.06.03 17:01:31.
