data_PCOD9491248
_publ_section_title
;
Structure prediction by ZEFSAII (Michael W. Deem and Ramdas Pophale) SiO2 
 PCOD9491248
Probable space group: C M M M
;
_chemical_formula_sum "Si O2"
_cell_formula_units_Z 112
_cell_length_a 15.913250
_cell_length_b 17.536055
_cell_length_c 23.403648
_cell_angle_alpha 90.000000
_cell_angle_beta 90.000000
_cell_angle_gamma 90.000000
_cell_volume 6530.919672
_symmetry_space_group_name_H-M "C M M M"
_symmetry_group_IT_number 65
_symmetry_cell_setting 'orthorhombic'
loop_
_space_group_symop_operation_xyz
x,y,z
-x,-y,z
x,-y,-z
-x,y,-z
-x,-y,-z
x,y,-z
-x,y,z
x,-y,z
1/2+x,1/2+y,z
1/2-x,1/2-y,z
1/2+x,1/2-y,-z
1/2-x,1/2+y,-z
1/2-x,1/2-y,-z
1/2+x,1/2+y,-z
1/2-x,1/2+y,z
1/2+x,1/2-y,z
loop_
_atom_site_type_symbol
_atom_site_label
_atom_site_fract_x
_atom_site_fract_y
_atom_site_fract_z
Si Si1 0.260640 0.409105 0.345715
Si Si2 0.163911 0.200362 0.435120
Si Si3 0.405455 0.351217 0.868216
Si Si4 0.406062 0.188230 0.655392
Si Si5 0.750117 0.587555 0.933525
Si Si6 0.168355 0.201811 0.750447
Si Si7 0.092771 0.689323 0.931331
O O1 0.263030 0.500000 0.342254
O O2 0.312443 0.375281 0.399641
O O3 0.165813 0.375828 0.350340
O O4 0.299722 0.366244 0.290616
O O5 0.136824 0.186430 0.500000
O O6 0.250000 0.250000 0.436411
O O7 0.102798 0.253331 0.397797
O O8 0.500000 0.382556 0.872950
O O9 0.332414 0.401500 0.895772
O O10 0.382971 0.330755 0.803226
O O11 0.402465 0.271823 0.903025
O O12 0.500000 0.157663 0.658987
O O13 0.383643 0.239797 0.710651
O O14 0.777365 0.500000 0.932153
O O15 0.827428 0.639600 0.913302
O O16 0.731078 0.607288 0.000000
O O17 0.250000 0.250000 0.770554
O O18 0.000000 0.656532 0.917259
O O19 0.096852 0.696355 0.000000
#
# Coordination Sequence:
#
# PCOD9491248 Si02
#       7
#    16  16  16  16  16  16  16
#     4   9  18  31  48  72  99 127 159 196 240 286
#     4   8  15  29  48  68  92 128 168 195 221 268
#     4  11  21  33  53  76  96 125 166 208 248 289
#     4   9  17  30  49  73  99 124 154 196 243 290
#     4  10  21  35  50  71 102 135 161 192 240 297
#     4   9  18  33  51  69  92 126 166 203 239 284
#     4   9  18  33  54  78  99 122 159 205 247 288
#
# _framework density 17.149193
#
# number of rings (size 3 to 8) (size 9 to 14) (size 15 to 20)
#    0.000    2.714    0.000    3.857    0.000    4.000 
#    0.000    2.143    0.000   10.286    0.000   12.000 
#    0.000    0.000    0.000    0.000    0.000    0.000 
#
# Total GULP energy -312104.095426 kJ/mol
# GULP energy per Si atom -5573.287418 kJ/mol
# Density = 1.711016 g / cm^3
# Si number density = 17.149193 Si / 1000 Ang^3
#
#
#
# Elastic Constant Matrix: (Units=GPa)
#
#
# Indices 1 2 3 4 5 6 
#
# 1 67.3409 8.3642 11.5828 0.0000 0.0000 0.0000
# 2 8.3642 69.7636 2.3871 0.0000 0.0000 0.0000
# 3 11.5828 2.3871 28.4212 0.0000 0.0000 0.0000
# 4 0.0000 0.0000 0.0000 -69.4744 0.0000 0.0000
# 5 0.0000 0.0000 0.0000 0.0000 9.8205 0.0000
# 6 0.0000 0.0000 0.0000 0.0000 0.0000 -1.9908
#
#
#
# Elastic Compliance Matrix: (Units=1/GPa)
#
#
# Indices 1 2 3 4 5 6 
#
# 1 0.016172 -0.001718 -0.006446 0.000000 0.000000 0.000000
# 2 -0.001718 0.014558 -0.000522 0.000000 0.000000 0.000000
# 3 -0.006446 -0.000522 0.037856 0.000000 0.000000 0.000000
# 4 0.000000 0.000000 0.000000 -0.014394 0.000000 0.000000
# 5 0.000000 0.000000 0.000000 0.000000 0.101828 0.000000
# 6 0.000000 0.000000 0.000000 0.000000 0.000000 -0.502308
#
#
# Mechanical properties :
#
#
# Convention : Reuss Voigt Hill
#
# Bulk Modulus (GPa) = 19.52682 23.35490 21.44086
# Shear Modulus (GPa) = -16.03372 -2.78284 -9.40828
#
# Velocity S-wave (km/s) = -3.06102 -1.27524 -2.34479
# Velocity P-wave (km/s) = 1.04018 3.38820 2.28012
#
# Compressibility (1/GPa) = 0.05121162
#
# Stress axis : x y z
#
# Youngs Moduli (GPa) = 61.83510 68.69068 26.41587
#
# Poissons Ratio (x) = 0.11803 0.17029
# Poissons Ratio (y) = 0.10625 0.01380
# Poissons Ratio (z) = 0.39862 0.03589
#
# Static dielectric constant tensor:
#      x y z
#    x 1.598090 0.000000 0.000000 
#    y 0.000000 1.544940 0.000000 
#    z 0.000000 0.000000 1.585590 
# 
# From -- ./inp_files/69962.got.cif
#   From: 2010.05.17/outbox.cif.g08.bks.cpg/sg65_35_cif.got.tgz:69962.got - 2010.06.03 17:01:31.
