data_PCOD9491912
_publ_section_title
;
Structure prediction by ZEFSAII (Michael W. Deem and Ramdas Pophale) SiO2 
 PCOD9491912
Probable space group: C M M M
;
_chemical_formula_sum "Si O2"
_cell_formula_units_Z 80
_cell_length_a 8.457404
_cell_length_b 18.834398
_cell_length_c 26.953266
_cell_angle_alpha 90.000000
_cell_angle_beta 90.000000
_cell_angle_gamma 90.000000
_cell_volume 4293.388786
_symmetry_space_group_name_H-M "C M M M"
_symmetry_group_IT_number 65
_symmetry_cell_setting 'orthorhombic'
loop_
_space_group_symop_operation_xyz
x,y,z
-x,-y,z
x,-y,-z
-x,y,-z
-x,-y,-z
x,y,-z
-x,y,z
x,-y,z
1/2+x,1/2+y,z
1/2-x,1/2-y,z
1/2+x,1/2-y,-z
1/2-x,1/2+y,-z
1/2-x,1/2-y,-z
1/2+x,1/2+y,-z
1/2-x,1/2+y,z
1/2+x,1/2-y,z
loop_
_atom_site_type_symbol
_atom_site_label
_atom_site_fract_x
_atom_site_fract_y
_atom_site_fract_z
Si Si1 0.308785 0.081375 0.742480
Si Si2 0.812727 0.829958 0.350954
Si Si3 0.190857 0.417614 0.443248
Si Si4 0.808896 0.331441 0.946711
Si Si5 0.191490 0.331006 0.838205
O O1 0.500000 0.080609 0.743365
O O2 0.256299 0.124201 0.694213
O O3 0.253951 0.121414 0.792306
O O4 0.253742 0.000000 0.740774
O O5 0.750000 0.750000 0.348533
O O6 0.763262 0.866583 0.402467
O O7 0.000000 0.828936 0.346756
O O8 0.236675 0.400491 0.500000
O O9 0.234443 0.500000 0.433617
O O10 0.000000 0.413472 0.440365
O O11 0.750000 0.250000 0.946833
O O12 0.758353 0.359685 0.892741
O O13 0.000000 0.331901 0.946841
O O14 0.756667 0.363162 0.000000
O O15 0.250000 0.250000 0.832869
O O16 0.000000 0.329640 0.837418
#
# Coordination Sequence:
#
# PCOD9491912 Si02
#       5
#    16  16  16  16  16
#     4  10  21  37  55  74 101 137 174 214 262 316
#     4  12  25  39  57  81 109 140 176 219 264 309
#     4   9  19  38  63  88 115 147 179 211 252 303
#     4   8  13  22  38  62  92 123 157 200 248 298
#     4   9  17  29  47  71  97 128 166 208 256 306
#
# _framework density 18.633299999999998
#
# number of rings (size 3 to 8) (size 9 to 14) (size 15 to 20)
#    0.000    2.400    0.000    3.600    0.000    6.400 
#    0.000    1.000    0.000    0.600    0.000    4.200 
#    0.000    0.000    0.000   34.200    0.000   17.200 
#
# Total GULP energy -223050.305666 kJ/mol
# GULP energy per Si atom -5576.257642 kJ/mol
# Density = 1.859089 g / cm^3
# Si number density = 18.633300 Si / 1000 Ang^3
#
#
#
# Elastic Constant Matrix: (Units=GPa)
#
#
# Indices 1 2 3 4 5 6 
#
# 1 15.5473 19.7760 23.4980 0.0000 0.0000 0.0000
# 2 19.7760 116.4046 102.2931 0.0000 0.0000 0.0000
# 3 23.4980 102.2931 180.9997 0.0000 0.0000 0.0000
# 4 0.0000 0.0000 0.0000 -70.2773 0.0000 0.0000
# 5 0.0000 0.0000 0.0000 0.0000 -2.9541 0.0000
# 6 0.0000 0.0000 0.0000 0.0000 0.0000 20.6435
#
#
#
# Elastic Compliance Matrix: (Units=1/GPa)
#
#
# Indices 1 2 3 4 5 6 
#
# 1 0.084914 -0.009414 -0.005703 0.000000 0.000000 0.000000
# 2 -0.009414 0.018111 -0.009013 0.000000 0.000000 0.000000
# 3 -0.005703 -0.009013 0.011359 0.000000 0.000000 0.000000
# 4 0.000000 0.000000 0.000000 -0.014229 0.000000 0.000000
# 5 0.000000 0.000000 0.000000 0.000000 -0.338516 0.000000
# 6 0.000000 0.000000 0.000000 0.000000 0.000000 0.048441
#
#
# Mechanical properties :
#
#
# Convention : Reuss Voigt Hill
#
# Bulk Modulus (GPa) = 15.12338 67.12065 41.12202
# Shear Modulus (GPa) = -41.79998 0.64141 -20.57928
#
# Velocity S-wave (km/s) = -4.74148 0.58735 -3.32691
# Velocity P-wave (km/s) = 4.67350 6.04649 2.71279
#
# Compressibility (1/GPa) = 0.06612277
#
# Stress axis : x y z
#
# Youngs Moduli (GPa) = 11.77656 55.21637 88.03484
#
# Poissons Ratio (x) = 0.51981 0.50210
# Poissons Ratio (y) = 0.11087 0.79347
# Poissons Ratio (z) = 0.06717 0.49767
#
# Static dielectric constant tensor:
#      x y z
#    x 1.659320 0.000000 0.000000 
#    y 0.000000 1.534440 0.000000 
#    z 0.000000 0.000000 1.681530 
# 
# From -- ./inp_files/72793.got.cif
#   From: 2010.05.17/outbox.cif.g08.bks.cpg/sg65_37_cif.got.tgz:72793.got - 2010.06.03 17:01:31.
