data_PCOD9491805
_publ_section_title
;
Structure prediction by ZEFSAII (Michael W. Deem and Ramdas Pophale) SiO2 
 PCOD9491805
Probable space group: C M M M
;
_chemical_formula_sum "Si O2"
_cell_formula_units_Z 90
_cell_length_a 24.910713
_cell_length_b 21.890867
_cell_length_c 7.664848
_cell_angle_alpha 90.000000
_cell_angle_beta 90.000000
_cell_angle_gamma 90.000000
_cell_volume 4179.772723
_symmetry_space_group_name_H-M "C M M M"
_symmetry_group_IT_number 65
_symmetry_cell_setting 'orthorhombic'
loop_
_space_group_symop_operation_xyz
x,y,z
-x,-y,z
x,-y,-z
-x,y,-z
-x,-y,-z
x,y,-z
-x,y,z
x,-y,z
1/2+x,1/2+y,z
1/2-x,1/2-y,z
1/2+x,1/2-y,-z
1/2-x,1/2+y,-z
1/2-x,1/2-y,-z
1/2+x,1/2+y,-z
1/2-x,1/2+y,z
1/2+x,1/2-y,z
loop_
_atom_site_type_symbol
_atom_site_label
_atom_site_fract_x
_atom_site_fract_y
_atom_site_fract_z
Si Si1 0.289849 0.066229 0.212262
Si Si2 0.500000 0.612863 0.284953
Si Si3 0.500000 0.500000 0.000000
Si Si4 0.230534 0.185078 0.202105
Si Si5 0.584919 0.066259 0.703737
Si Si6 0.889381 0.184381 0.697187
Si Si7 0.441732 0.799475 0.797812
O O1 0.258621 0.125181 0.278725
O O2 0.350892 0.068080 0.276311
O O3 0.266621 0.000000 0.263363
O O4 0.291095 0.067372 0.000000
O O5 0.500000 0.601689 0.500000
O O6 0.555114 0.651291 0.245784
O O7 0.500000 0.554170 0.156966
O O8 0.250000 0.250000 0.279254
O O9 0.166625 0.175047 0.205820
O O10 0.248206 0.186990 0.000000
O O11 0.570513 0.068619 0.500000
O O12 0.564768 0.128178 0.788124
O O13 0.567013 0.000000 0.773743
O O14 0.880029 0.164130 0.500000
O O15 0.899264 0.257307 0.703212
O O16 0.500000 0.784194 0.723729
O O17 0.439254 0.781554 0.000000
#
# Coordination Sequence:
#
# PCOD9491805 Si02
#       7
#    16   8   2  16  16  16  16
#     4   9  18  35  56  81 114 153 195 245 297 355
#     4  10  25  47  69 106 138 168 225 275 336 407
#     4  12  26  44  84  98 128 192 208 280 344 408
#     4  10  21  36  57  88 124 160 207 260 310 380
#     4  10  21  36  56  83 119 161 201 245 302 367
#     4  11  23  41  65  91 129 165 204 268 321 385
#     4  11  23  37  59  86 114 153 206 253 301 366
#
# _framework density 21.532271000000001
#
# number of rings (size 3 to 8) (size 9 to 14) (size 15 to 20)
#    0.000    1.778    0.889    2.800    2.489    4.978 
#    1.600    1.778    0.000    0.000    0.000    0.000 
#    0.000    0.000    0.000    0.000    0.000    0.000 
#
# Total GULP energy -250765.390629 kJ/mol
# GULP energy per Si atom -5572.564236 kJ/mol
# Density = 2.148326 g / cm^3
# Si number density = 21.532271 Si / 1000 Ang^3
#
#
#
# Elastic Constant Matrix: (Units=GPa)
#
#
# Indices 1 2 3 4 5 6 
#
# 1 82.3525 49.3306 -2.0154 0.0000 0.0000 0.0000
# 2 49.3306 143.5196 24.1793 0.0000 0.0000 0.0000
# 3 -2.0154 24.1793 59.7775 0.0000 0.0000 0.0000
# 4 0.0000 0.0000 0.0000 19.9599 0.0000 0.0000
# 5 0.0000 0.0000 0.0000 0.0000 23.5246 0.0000
# 6 0.0000 0.0000 0.0000 0.0000 0.0000 25.5682
#
#
#
# Elastic Compliance Matrix: (Units=1/GPa)
#
#
# Indices 1 2 3 4 5 6 
#
# 1 0.015752 -0.005906 0.002920 0.000000 0.000000 0.000000
# 2 -0.005906 0.009692 -0.004119 0.000000 0.000000 0.000000
# 3 0.002920 -0.004119 0.018493 0.000000 0.000000 0.000000
# 4 0.000000 0.000000 0.000000 0.050101 0.000000 0.000000
# 5 0.000000 0.000000 0.000000 0.000000 0.042509 0.000000
# 6 0.000000 0.000000 0.000000 0.000000 0.000000 0.039111
#
#
# Mechanical properties :
#
#
# Convention : Reuss Voigt Hill
#
# Bulk Modulus (GPa) = 33.64004 47.62648 40.63326
# Shear Modulus (GPa) = 25.02777 28.08754 26.55765
#
# Velocity S-wave (km/s) = 3.41301 3.61562 3.51577
# Velocity P-wave (km/s) = 5.58466 6.29261 5.94918
#
# Compressibility (1/GPa) = 0.02972648
#
# Stress axis : x y z
#
# Youngs Moduli (GPa) = 63.48227 103.17950 54.07331
#
# Poissons Ratio (x) = 0.60942 -0.15790
# Poissons Ratio (y) = 0.37495 0.22275
# Poissons Ratio (z) = -0.18538 0.42504
#
# Static dielectric constant tensor:
#      x y z
#    x 1.774480 0.000000 0.000000 
#    y 0.000000 1.813270 0.000000 
#    z 0.000000 0.000000 1.776770 
# 
# From -- ./inp_files/14024.got.cif
#   From: 2010.05.17/outbox.cif.g08.bks.cpg/sg65_8_cif.got.tgz:14024.got - 2010.06.03 17:01:31.
