data_PCOD9491237
_publ_section_title
;
Structure prediction by ZEFSAII (Michael W. Deem and Ramdas Pophale) SiO2 
 PCOD9491237
Probable space group: C M M M
;
_chemical_formula_sum "Si O2"
_cell_formula_units_Z 80
_cell_length_a 7.969234
_cell_length_b 14.857365
_cell_length_c 31.233416
_cell_angle_alpha 90.000000
_cell_angle_beta 90.000000
_cell_angle_gamma 90.000000
_cell_volume 3698.093246
_symmetry_space_group_name_H-M "C M M M"
_symmetry_group_IT_number 65
_symmetry_cell_setting 'orthorhombic'
loop_
_space_group_symop_operation_xyz
x,y,z
-x,-y,z
x,-y,-z
-x,y,-z
-x,-y,-z
x,y,-z
-x,y,z
x,-y,z
1/2+x,1/2+y,z
1/2-x,1/2-y,z
1/2+x,1/2-y,-z
1/2-x,1/2+y,-z
1/2-x,1/2-y,-z
1/2+x,1/2+y,-z
1/2-x,1/2+y,z
1/2+x,1/2-y,z
loop_
_atom_site_type_symbol
_atom_site_label
_atom_site_fract_x
_atom_site_fract_y
_atom_site_fract_z
Si Si1 0.198063 0.104649 0.141788
Si Si2 0.000000 0.389845 0.705205
Si Si3 0.189513 0.890163 0.549216
Si Si4 0.195917 0.889367 0.765397
Si Si5 0.301325 0.853335 0.045251
Si Si6 0.000000 0.389526 0.606836
O O1 0.258799 0.142845 0.187324
O O2 0.251249 0.123803 0.093469
O O3 0.000000 0.121232 0.142617
O O4 0.233995 0.000000 0.146031
O O5 0.168227 0.361172 0.730333
O O6 0.000000 0.500000 0.705470
O O7 0.000000 0.360362 0.656027
O O8 0.224919 0.863961 0.500000
O O9 0.334388 0.860117 0.581167
O O10 0.000000 0.861650 0.560402
O O11 0.189874 0.000000 0.549827
O O12 0.000000 0.863000 0.758702
O O13 0.194093 0.000000 0.765345
O O14 0.500000 0.865631 0.044097
O O15 0.250000 0.750000 0.042491
O O16 0.234501 0.894756 0.000000
O O17 0.000000 0.500000 0.606721
#
# Coordination Sequence:
#
# PCOD9491237 Si02
#       6
#    16   8  16  16  16   8
#     4   9  18  32  50  70  90 116 149 183 220 265
#     4   9  16  23  34  51  71  98 125 160 214 261
#     4   8  13  20  28  37  52  78 113 155 202 248
#     4   8  15  27  40  56  78 102 131 167 207 254
#     4  10  21  35  50  69  94 122 148 178 220 269
#     4   9  15  20  27  42  60  81 114 153 201 258
#
# _framework density 21.632769
#
# number of rings (size 3 to 8) (size 9 to 14) (size 15 to 20)
#    0.000    3.200    0.000    2.700    1.400    4.000 
#    0.000    6.000    0.000    0.000    0.000    0.000 
#    0.000    0.000    0.000    0.000    0.000    0.000 
#
# Total GULP energy -222702.621475 kJ/mol
# GULP energy per Si atom -5567.565537 kJ/mol
# Density = 2.158353 g / cm^3
# Si number density = 21.632769 Si / 1000 Ang^3
#
#
#
# Elastic Constant Matrix: (Units=GPa)
#
#
# Indices 1 2 3 4 5 6 
#
# 1 130.4642 -0.5422 142.3713 0.0000 0.0000 0.0000
# 2 -0.5422 36.8246 9.7163 0.0000 0.0000 0.0000
# 3 142.3713 9.7163 258.5388 0.0000 0.0000 0.0000
# 4 0.0000 0.0000 0.0000 28.0763 0.0000 0.0000
# 5 0.0000 0.0000 0.0000 0.0000 -8.0962 0.0000
# 6 0.0000 0.0000 0.0000 0.0000 0.0000 8.1724
#
#
#
# Elastic Compliance Matrix: (Units=1/GPa)
#
#
# Indices 1 2 3 4 5 6 
#
# 1 0.019565 0.003162 -0.010893 0.000000 0.000000 0.000000
# 2 0.003162 0.027939 -0.002791 0.000000 0.000000 0.000000
# 3 -0.010893 -0.002791 0.009971 0.000000 0.000000 0.000000
# 4 0.000000 0.000000 0.000000 0.035617 0.000000 0.000000
# 5 0.000000 0.000000 0.000000 0.000000 -0.123514 0.000000
# 6 0.000000 0.000000 0.000000 0.000000 0.000000 0.122362
#
#
# Mechanical properties :
#
#
# Convention : Reuss Voigt Hill
#
# Bulk Modulus (GPa) = 27.44907 80.99095 54.22001
# Shear Modulus (GPa) = 39.95898 23.91598 31.93748
#
# Velocity S-wave (km/s) = 4.30251 3.32858 3.84650
# Velocity P-wave (km/s) = 6.11542 7.23138 6.69669
#
# Compressibility (1/GPa) = 0.03643110
#
# Stress axis : x y z
#
# Youngs Moduli (GPa) = 51.11126 35.79254 100.28813
#
# Poissons Ratio (x) = -0.11318 1.09243
# Poissons Ratio (y) = -0.16162 0.27994
# Poissons Ratio (z) = 0.55675 0.09991
#
# Static dielectric constant tensor:
#      x y z
#    x 1.760300 0.000000 0.000000 
#    y 0.000000 1.833380 0.000000 
#    z 0.000000 0.000000 1.848280 
# 
# From -- ./inp_files/71336.got.cif
#   From: 2010.05.17/outbox.cif.g08.bks.cpg/sg65_36_cif.got.tgz:71336.got - 2010.06.03 17:01:31.
