data_PCOD9491668
_publ_section_title
;
Structure prediction by ZEFSAII (Michael W. Deem and Ramdas Pophale) SiO2 
 PCOD9491668
Probable space group: C M M M
;
_chemical_formula_sum "Si O2"
_cell_formula_units_Z 72
_cell_length_a 15.871329
_cell_length_b 29.734738
_cell_length_c 8.006162
_cell_angle_alpha 90.000000
_cell_angle_beta 90.000000
_cell_angle_gamma 90.000000
_cell_volume 3778.346508
_symmetry_space_group_name_H-M "C M M M"
_symmetry_group_IT_number 65
_symmetry_cell_setting 'orthorhombic'
loop_
_space_group_symop_operation_xyz
x,y,z
-x,-y,z
x,-y,-z
-x,y,-z
-x,-y,-z
x,y,-z
-x,y,z
x,-y,z
1/2+x,1/2+y,z
1/2-x,1/2-y,z
1/2+x,1/2-y,-z
1/2-x,1/2+y,-z
1/2-x,1/2-y,-z
1/2+x,1/2+y,-z
1/2-x,1/2+y,z
1/2+x,1/2-y,z
loop_
_atom_site_type_symbol
_atom_site_label
_atom_site_fract_x
_atom_site_fract_y
_atom_site_fract_z
Si Si1 0.405611 0.184995 0.199261
Si Si2 0.766121 0.860295 0.199939
Si Si3 0.092564 0.446144 0.000000
Si Si4 0.212118 0.448010 0.690219
Si Si5 0.404552 0.287896 0.700068
O O1 0.500000 0.174462 0.265774
O O2 0.324566 0.158170 0.264293
O O3 0.389682 0.237884 0.230057
O O4 0.407599 0.177578 0.000000
O O5 0.780630 0.909100 0.281730
O O6 0.836590 0.823712 0.240445
O O7 0.762508 0.865375 0.000000
O O8 0.143005 0.436304 0.831198
O O9 0.084600 0.500000 0.000000
O O10 0.000000 0.425355 0.000000
O O11 0.180452 0.445722 0.500000
O O12 0.238893 0.500000 0.719144
O O13 0.400800 0.284935 0.500000
O O14 0.500000 0.300889 0.749087
#
# Coordination Sequence:
#
# PCOD9491668 Si02
#       5
#    16  16   8  16  16
#     4   9  19  35  53  77 111 147 183 225 275 333
#     4  11  21  34  56  84 109 147 190 233 283 338
#     4   9  18  34  54  76 106 143 185 233 280 330
#     4  10  21  37  56  80 111 148 190 236 285 335
#     4  10  21  36  54  78 110 145 184 234 286 337
#
# _framework density 19.055954
#
# number of rings (size 3 to 8) (size 9 to 14) (size 15 to 20)
#    0.000    2.111    1.111    2.000    0.000    7.111 
#    0.000    2.222    0.000    0.667    0.000    4.667 
#    0.000    0.000    0.000    0.000    0.000    0.000 
#
# Total GULP energy -200834.498125 kJ/mol
# GULP energy per Si atom -5578.736059 kJ/mol
# Density = 1.901258 g / cm^3
# Si number density = 19.055954 Si / 1000 Ang^3
#
#
#
# Elastic Constant Matrix: (Units=GPa)
#
#
# Indices 1 2 3 4 5 6 
#
# 1 73.7920 65.7092 13.6633 0.0000 0.0000 0.0000
# 2 65.7092 112.9661 14.2420 0.0000 0.0000 0.0000
# 3 13.6633 14.2420 59.8564 0.0000 0.0000 0.0000
# 4 0.0000 0.0000 0.0000 18.0028 0.0000 0.0000
# 5 0.0000 0.0000 0.0000 0.0000 13.1685 0.0000
# 6 0.0000 0.0000 0.0000 0.0000 0.0000 13.0801
#
#
#
# Elastic Compliance Matrix: (Units=1/GPa)
#
#
# Indices 1 2 3 4 5 6 
#
# 1 0.028512 -0.016252 -0.002642 0.000000 0.000000 0.000000
# 2 -0.016252 0.018389 -0.000666 0.000000 0.000000 0.000000
# 3 -0.002642 -0.000666 0.017468 0.000000 0.000000 0.000000
# 4 0.000000 0.000000 0.000000 0.055547 0.000000 0.000000
# 5 0.000000 0.000000 0.000000 0.000000 0.075939 0.000000
# 6 0.000000 0.000000 0.000000 0.000000 0.000000 0.076452
#
#
# Mechanical properties :
#
#
# Convention : Reuss Voigt Hill
#
# Bulk Modulus (GPa) = 39.60152 48.20485 43.90319
# Shear Modulus (GPa) = 15.63266 19.05028 17.34147
#
# Velocity S-wave (km/s) = 2.86729 3.16524 3.01994
# Velocity P-wave (km/s) = 5.63814 6.22171 5.93710
#
# Compressibility (1/GPa) = 0.02525155
#
# Stress axis : x y z
#
# Youngs Moduli (GPa) = 35.07237 54.37913 57.24744
#
# Poissons Ratio (x) = 0.88376 0.15122
# Poissons Ratio (y) = 0.56999 0.03811
# Poissons Ratio (z) = 0.09265 0.03620
#
# Static dielectric constant tensor:
#      x y z
#    x 1.674350 0.000000 0.000000 
#    y 0.000000 1.680580 0.000000 
#    z 0.000000 0.000000 1.672030 
# 
# From -- ./inp_files/7694.got.cif
#   From: 2010.05.17/outbox.cif.g08.bks.cpg/sg65_4_cif.got.tgz:7694.got - 2010.06.03 17:01:31.
