data_PCOD9491292
_publ_section_title
;
Structure prediction by ZEFSAII (Michael W. Deem and Ramdas Pophale) SiO2 
 PCOD9491292
Probable space group: C M M M
;
_chemical_formula_sum "Si O2"
_cell_formula_units_Z 80
_cell_length_a 17.166821
_cell_length_b 15.604630
_cell_length_c 15.747353
_cell_angle_alpha 90.000000
_cell_angle_beta 90.000000
_cell_angle_gamma 90.000000
_cell_volume 4218.430684
_symmetry_space_group_name_H-M "C M M M"
_symmetry_group_IT_number 65
_symmetry_cell_setting 'orthorhombic'
loop_
_space_group_symop_operation_xyz
x,y,z
-x,-y,z
x,-y,-z
-x,y,-z
-x,-y,-z
x,y,-z
-x,y,z
x,-y,z
1/2+x,1/2+y,z
1/2-x,1/2-y,z
1/2+x,1/2-y,-z
1/2-x,1/2+y,-z
1/2-x,1/2-y,-z
1/2+x,1/2+y,-z
1/2-x,1/2+y,z
1/2+x,1/2-y,z
loop_
_atom_site_type_symbol
_atom_site_label
_atom_site_fract_x
_atom_site_fract_y
_atom_site_fract_z
Si Si1 0.868637 0.094389 0.833171
Si Si2 0.907981 0.722905 0.094954
Si Si3 0.290602 0.842662 0.227133
Si Si4 0.915539 0.101301 0.638297
Si Si5 0.243100 0.396354 0.592565
O O1 0.890799 0.176260 0.888616
O O2 0.776246 0.097704 0.813038
O O3 0.907974 0.106331 0.740458
O O4 0.889885 0.000000 0.866034
O O5 0.863863 0.668479 0.166380
O O6 0.000000 0.709990 0.099952
O O7 0.880288 0.700868 0.000000
O O8 0.250000 0.750000 0.229195
O O9 0.303971 0.867962 0.324572
O O10 0.833192 0.134907 0.603382
O O11 0.000000 0.137503 0.612187
O O12 0.916747 0.000000 0.616316
O O13 0.214023 0.369093 0.500000
O O14 0.245634 0.500000 0.594529
#
# Coordination Sequence:
#
# PCOD9491292 Si02
#       5
#    16  16  16  16  16
#     4   9  17  30  50  75 102 134 171 208 246 292
#     4  10  21  35  51  73 101 134 171 210 255 307
#     4   9  18  32  51  72 100 138 174 206 246 299
#     4   8  13  22  38  63  98 136 166 193 233 286
#     4   9  17  29  47  72  99 129 170 216 257 298
#
# _framework density 18.964400000000001
#
# number of rings (size 3 to 8) (size 9 to 14) (size 15 to 20)
#    0.000    3.000    0.000    2.400    0.000    6.000 
#    0.000    3.000    0.000    4.800    0.000    7.000 
#    0.000    0.000    0.000    0.000    0.000    0.200 
#
# Total GULP energy -222864.365048 kJ/mol
# GULP energy per Si atom -5571.609126 kJ/mol
# Density = 1.892124 g / cm^3
# Si number density = 18.964400 Si / 1000 Ang^3
#
#
#
# Elastic Constant Matrix: (Units=GPa)
#
#
# Indices 1 2 3 4 5 6 
#
# 1 60.2861 18.1562 60.7108 0.0000 0.0000 0.0000
# 2 18.1562 29.7287 19.6822 0.0000 0.0000 0.0000
# 3 60.7108 19.6822 140.2960 0.0000 0.0000 0.0000
# 4 0.0000 0.0000 0.0000 18.8266 0.0000 0.0000
# 5 0.0000 0.0000 0.0000 0.0000 29.8110 0.0000
# 6 0.0000 0.0000 0.0000 0.0000 0.0000 14.3416
#
#
#
# Elastic Compliance Matrix: (Units=1/GPa)
#
#
# Indices 1 2 3 4 5 6 
#
# 1 0.032713 -0.011693 -0.012516 0.000000 0.000000 0.000000
# 2 -0.011693 0.041261 -0.000729 0.000000 0.000000 0.000000
# 3 -0.012516 -0.000729 0.012646 0.000000 0.000000 0.000000
# 4 0.000000 0.000000 0.000000 0.053116 0.000000 0.000000
# 5 0.000000 0.000000 0.000000 0.000000 0.033545 0.000000
# 6 0.000000 0.000000 0.000000 0.000000 0.000000 0.069727
#
#
# Mechanical properties :
#
#
# Convention : Reuss Voigt Hill
#
# Bulk Modulus (GPa) = 27.21389 47.48990 37.35190
# Shear Modulus (GPa) = 16.38645 21.37995 18.88320
#
# Velocity S-wave (km/s) = 2.94269 3.36128 3.15892
# Velocity P-wave (km/s) = 5.09186 6.33721 5.74836
#
# Compressibility (1/GPa) = 0.03674594
#
# Stress axis : x y z
#
# Youngs Moduli (GPa) = 30.56916 24.23596 79.07679
#
# Poissons Ratio (x) = 0.28338 0.98969
# Poissons Ratio (y) = 0.35743 0.05763
# Poissons Ratio (z) = 0.38259 0.01766
#
# Static dielectric constant tensor:
#      x y z
#    x 1.673650 0.000000 0.000000 
#    y 0.000000 1.687160 0.000000 
#    z 0.000000 0.000000 1.700410 
# 
# From -- ./inp_files/42342.got.cif
#   From: 2010.05.17/outbox.cif.g08.bks.cpg/sg65_22_cif.got.tgz:42342.got - 2010.06.03 17:01:31.
