data_PCOD9491967
_publ_section_title
;
Structure prediction by ZEFSAII (Michael W. Deem and Ramdas Pophale) SiO2 
 PCOD9491967
Probable space group: C M M M
;
_chemical_formula_sum "Si O2"
_cell_formula_units_Z 88
_cell_length_a 20.782531
_cell_length_b 24.818433
_cell_length_c 7.416061
_cell_angle_alpha 90.000000
_cell_angle_beta 90.000000
_cell_angle_gamma 90.000000
_cell_volume 3825.129014
_symmetry_space_group_name_H-M "C M M M"
_symmetry_group_IT_number 65
_symmetry_cell_setting 'orthorhombic'
loop_
_space_group_symop_operation_xyz
x,y,z
-x,-y,z
x,-y,-z
-x,y,-z
-x,-y,-z
x,y,-z
-x,y,z
x,-y,z
1/2+x,1/2+y,z
1/2-x,1/2-y,z
1/2+x,1/2-y,-z
1/2-x,1/2+y,-z
1/2-x,1/2-y,-z
1/2+x,1/2+y,-z
1/2-x,1/2+y,z
1/2+x,1/2-y,z
loop_
_atom_site_type_symbol
_atom_site_label
_atom_site_fract_x
_atom_site_fract_y
_atom_site_fract_z
Si Si1 0.883995 0.559493 0.780451
Si Si2 0.568934 0.827305 0.779165
Si Si3 0.119755 0.862827 0.295960
Si Si4 0.735303 0.438968 0.217475
Si Si5 0.821906 0.749389 0.792189
Si Si6 0.500000 0.436515 0.279668
O O1 0.903987 0.500000 0.719406
O O2 0.924414 0.610686 0.723926
O O3 0.809402 0.568787 0.729079
O O4 0.885276 0.558341 0.000000
O O5 0.500000 0.804650 0.723562
O O6 0.629356 0.793774 0.711526
O O7 0.570196 0.825970 0.000000
O O8 0.100611 0.849254 0.500000
O O9 0.184528 0.897953 0.294848
O O10 0.141233 0.806569 0.208577
O O11 0.062775 0.901502 0.222610
O O12 0.716913 0.500000 0.265618
O O13 0.733053 0.434139 0.000000
O O14 0.750000 0.750000 0.712444
O O15 0.812496 0.732317 0.000000
O O16 0.500000 0.500000 0.221817
O O17 0.500000 0.438561 0.500000
#
# Coordination Sequence:
#
# PCOD9491967 Si02
#       6
#    16  16  16  16  16   8
#     4   8  14  26  46  72 102 134 166 203 253 312
#     4   9  17  28  45  71 101 133 171 213 256 305
#     4  11  22  35  55  79 105 140 183 228 275 327
#     4   9  17  31  52  77 105 138 175 214 261 318
#     4  10  21  37  56  76 104 144 183 224 279 333
#     4   9  20  38  55  75 109 149 182 219 280 348
#
# _framework density 23.005759000000001
#
# number of rings (size 3 to 8) (size 9 to 14) (size 15 to 20)
#    0.000    2.636    0.000    3.273    1.273    4.727 
#    0.000    3.182    0.000    3.273    0.000    0.000 
#    0.000    0.000    0.000   11.091    0.000   10.909 
#
# Total GULP energy -245644.162977 kJ/mol
# GULP energy per Si atom -5582.821886 kJ/mol
# Density = 2.295340 g / cm^3
# Si number density = 23.005759 Si / 1000 Ang^3
#
#
#
# Elastic Constant Matrix: (Units=GPa)
#
#
# Indices 1 2 3 4 5 6 
#
# 1 139.8944 88.4229 5.5186 0.0000 0.0000 0.0000
# 2 88.4229 119.2376 -3.7499 0.0000 0.0000 0.0000
# 3 5.5186 -3.7499 68.9376 0.0000 0.0000 0.0000
# 4 0.0000 0.0000 0.0000 148.5499 0.0000 0.0000
# 5 0.0000 0.0000 0.0000 0.0000 26.6054 0.0000
# 6 0.0000 0.0000 0.0000 0.0000 0.0000 34.8624
#
#
#
# Elastic Compliance Matrix: (Units=1/GPa)
#
#
# Indices 1 2 3 4 5 6 
#
# 1 0.013639 -0.010166 -0.001645 0.000000 0.000000 0.000000
# 2 -0.010166 0.015978 0.001683 0.000000 0.000000 0.000000
# 3 -0.001645 0.001683 0.014729 0.000000 0.000000 0.000000
# 4 0.000000 0.000000 0.000000 0.006732 0.000000 0.000000
# 5 0.000000 0.000000 0.000000 0.000000 0.037586 0.000000
# 6 0.000000 0.000000 0.000000 0.000000 0.000000 0.028684
#
#
# Mechanical properties :
#
#
# Convention : Reuss Voigt Hill
#
# Bulk Modulus (GPa) = 41.50976 56.49474 49.00225
# Shear Modulus (GPa) = 34.33286 57.86207 46.09746
#
# Velocity S-wave (km/s) = 3.86730 5.02053 4.48117
# Velocity P-wave (km/s) = 6.16634 7.63005 6.93691
#
# Compressibility (1/GPa) = 0.02409072
#
# Stress axis : x y z
#
# Youngs Moduli (GPa) = 73.32178 62.58583 67.89291
#
# Poissons Ratio (x) = 0.63622 0.11167
# Poissons Ratio (y) = 0.74536 -0.11426
# Poissons Ratio (z) = 0.12060 -0.10533
#
# Static dielectric constant tensor:
#      x y z
#    x 1.833840 0.000000 0.000000 
#    y 0.000000 1.844160 0.000000 
#    z 0.000000 0.000000 1.875840 
# 
# From -- ./inp_files/11759.got.cif
#   From: 2010.05.17/outbox.cif.g08.bks.cpg/sg65_6_cif.got.tgz:11759.got - 2010.06.03 17:01:31.
