data_PCOD9491185
_publ_section_title
;
Structure prediction by ZEFSAII (Michael W. Deem and Ramdas Pophale) SiO2 
 PCOD9491185
Probable space group: C M M M
;
_chemical_formula_sum "Si O2"
_cell_formula_units_Z 58
_cell_length_a 14.353013
_cell_length_b 25.190164
_cell_length_c 9.768100
_cell_angle_alpha 90.000000
_cell_angle_beta 90.000000
_cell_angle_gamma 90.000000
_cell_volume 3531.702967
_symmetry_space_group_name_H-M "C M M M"
_symmetry_group_IT_number 65
_symmetry_cell_setting 'orthorhombic'
loop_
_space_group_symop_operation_xyz
x,y,z
-x,-y,z
x,-y,-z
-x,y,-z
-x,-y,-z
x,y,-z
-x,y,z
x,-y,z
1/2+x,1/2+y,z
1/2-x,1/2-y,z
1/2+x,1/2-y,-z
1/2-x,1/2+y,-z
1/2-x,1/2-y,-z
1/2+x,1/2+y,-z
1/2-x,1/2+y,z
1/2+x,1/2-y,z
loop_
_atom_site_type_symbol
_atom_site_label
_atom_site_fract_x
_atom_site_fract_y
_atom_site_fract_z
Si Si1 0.837100 0.384379 0.655402
Si Si2 0.500000 0.842924 0.154179
Si Si3 0.000000 0.215715 0.842899
Si Si4 0.500000 0.000000 0.000000
Si Si5 0.394550 0.000000 0.716780
Si Si6 0.319262 0.299739 0.339734
O O1 0.867927 0.371494 0.500000
O O2 0.910681 0.362436 0.763821
O O3 0.839824 0.447422 0.673857
O O4 0.740630 0.353447 0.675337
O O5 0.500000 0.779718 0.150013
O O6 0.500000 0.865538 0.000000
O O7 0.907774 0.200306 0.758848
O O8 0.000000 0.195968 0.000000
O O9 0.580270 0.000000 0.122333
O O10 0.500000 0.000000 0.653796
O O11 0.347005 0.294036 0.500000
O O12 0.250000 0.250000 0.309187
#
# Coordination Sequence:
#
# PCOD9491185 Si02
#       6
#    16   8   8   2   8  16
#     4  11  22  35  55  80 109 146 185 223 269 318
#     4  11  22  31  51  79 117 147 177 219 267 324
#     4  11  23  38  53  82 114 148 180 223 276 324
#     4   8  20  36  50  80 112 154 178 208 268 334
#     4  10  21  34  52  80 115 142 183 214 275 318
#     4  10  21  37  57  81 106 143 186 227 270 320
#
# _framework density 16.422671000000001
#
# number of rings (size 3 to 8) (size 9 to 14) (size 15 to 20)
#    0.414    1.103    4.138    1.241    3.862    3.310 
#    0.000    0.000    0.000    0.828    0.000    4.828 
#    0.000    0.000    0.000    0.000    0.000    0.000 
#
# Total GULP energy -161527.509732 kJ/mol
# GULP energy per Si atom -5569.914129 kJ/mol
# Density = 1.638529 g / cm^3
# Si number density = 16.422671 Si / 1000 Ang^3
#
#
#
# Elastic Constant Matrix: (Units=GPa)
#
#
# Indices 1 2 3 4 5 6 
#
# 1 110.6099 49.1615 88.2435 0.0000 0.0000 0.0000
# 2 49.1615 98.3588 32.2618 0.0000 0.0000 0.0000
# 3 88.2435 32.2618 159.1325 0.0000 0.0000 0.0000
# 4 0.0000 0.0000 0.0000 12.1209 0.0000 0.0000
# 5 0.0000 0.0000 0.0000 0.0000 90.0582 0.0000
# 6 0.0000 0.0000 0.0000 0.0000 0.0000 25.9952
#
#
#
# Elastic Compliance Matrix: (Units=1/GPa)
#
#
# Indices 1 2 3 4 5 6 
#
# 1 0.019598 -0.006675 -0.009514 0.000000 0.000000 0.000000
# 2 -0.006675 0.013164 0.001032 0.000000 0.000000 0.000000
# 3 -0.009514 0.001032 0.011351 0.000000 0.000000 0.000000
# 4 0.000000 0.000000 0.000000 0.082502 0.000000 0.000000
# 5 0.000000 0.000000 0.000000 0.000000 0.011104 0.000000
# 6 0.000000 0.000000 0.000000 0.000000 0.000000 0.038469
#
#
# Mechanical properties :
#
#
# Convention : Reuss Voigt Hill
#
# Bulk Modulus (GPa) = 72.46526 78.60386 75.53456
# Shear Modulus (GPa) = 23.68534 38.86382 31.27458
#
# Velocity S-wave (km/s) = 3.80180 4.86992 4.36862
# Velocity P-wave (km/s) = 7.96822 8.92123 8.45816
#
# Compressibility (1/GPa) = 0.01379972
#
# Stress axis : x y z
#
# Youngs Moduli (GPa) = 51.02604 75.96286 88.09984
#
# Poissons Ratio (x) = 0.50702 0.83821
# Poissons Ratio (y) = 0.34058 -0.09095
# Poissons Ratio (z) = 0.48548 -0.07842
#
# Static dielectric constant tensor:
#      x y z
#    x 1.517760 0.000000 0.000000 
#    y 0.000000 1.594910 0.000000 
#    z 0.000000 0.000000 1.573810 
# 
# From -- ./inp_files/4550.got.cif
#   From: 2010.05.17/outbox.cif.g08.bks.cpg/sg65_3_cif.got.tgz:4550.got - 2010.06.03 17:01:31.
