data_PCOD9491264
_publ_section_title
;
Structure prediction by ZEFSAII (Michael W. Deem and Ramdas Pophale) SiO2 
 PCOD9491264
Probable space group: C M M M
;
_chemical_formula_sum "Si O2"
_cell_formula_units_Z 100
_cell_length_a 28.900141
_cell_length_b 7.455652
_cell_length_c 20.779045
_cell_angle_alpha 90.000000
_cell_angle_beta 90.000000
_cell_angle_gamma 90.000000
_cell_volume 4477.248235
_symmetry_space_group_name_H-M "C M M M"
_symmetry_group_IT_number 65
_symmetry_cell_setting 'orthorhombic'
loop_
_space_group_symop_operation_xyz
x,y,z
-x,-y,z
x,-y,-z
-x,y,-z
-x,-y,-z
x,y,-z
-x,y,z
x,-y,z
1/2+x,1/2+y,z
1/2-x,1/2-y,z
1/2+x,1/2-y,-z
1/2-x,1/2+y,-z
1/2-x,1/2-y,-z
1/2+x,1/2+y,-z
1/2-x,1/2+y,z
1/2+x,1/2-y,z
loop_
_atom_site_type_symbol
_atom_site_label
_atom_site_fract_x
_atom_site_fract_y
_atom_site_fract_z
Si Si1 0.105315 0.205363 0.400106
Si Si2 0.552571 0.216913 0.873896
Si Si3 0.304181 0.285508 0.196226
Si Si4 0.196238 0.785663 0.340077
Si Si5 0.553982 0.784043 0.728335
Si Si6 0.353008 0.290795 0.930571
Si Si7 0.424714 0.000000 0.500000
O O1 0.158276 0.274110 0.391661
O O2 0.084579 0.206424 0.328234
O O3 0.077726 0.342311 0.444208
O O4 0.104810 0.000000 0.423586
O O5 0.500000 0.275038 0.887390
O O6 0.565468 0.274712 0.800998
O O7 0.591890 0.280212 0.921698
O O8 0.552423 0.000000 0.874390
O O9 0.311938 0.500000 0.198903
O O10 0.250000 0.250000 0.185998
O O11 0.314677 0.214318 0.268038
O O12 0.331414 0.211880 0.134694
O O13 0.250000 0.750000 0.354510
O O14 0.191110 0.000000 0.337590
O O15 0.500000 0.739984 0.717594
O O16 0.558189 0.000000 0.726525
O O17 0.339400 0.500000 0.931639
O O18 0.339611 0.212854 0.000000
#
# Coordination Sequence:
#
# PCOD9491264 Si02
#       7
#    16  16  16  16  16  16   4
#     4  11  23  41  64  89 121 160 202 241 287 351
#     4   9  19  35  56  83 113 143 186 241 292 343
#     4   9  18  34  53  80 110 140 183 241 295 340
#     4   9  19  34  59  87 112 142 191 247 297 352
#     4   9  18  36  62  91 118 148 189 243 303 352
#     4  10  21  35  50  72 110 156 197 237 289 349
#     4  12  26  44  63  88 126 170 192 240 289 344
#
# _framework density 22.335146999999999
#
# number of rings (size 3 to 8) (size 9 to 14) (size 15 to 20)
#    0.000    2.400    0.800    2.160    1.120    4.160 
#    0.000    4.400    0.000    0.960    0.000    0.000 
#    0.000    0.000    0.000    0.000    0.000    0.000 
#
# Total GULP energy -278724.982232 kJ/mol
# GULP energy per Si atom -5574.499645 kJ/mol
# Density = 2.228431 g / cm^3
# Si number density = 22.335147 Si / 1000 Ang^3
#
#
#
# Elastic Constant Matrix: (Units=GPa)
#
#
# Indices 1 2 3 4 5 6 
#
# 1 26.3587 -3.4981 10.2874 0.0000 0.0000 0.0000
# 2 -3.4981 91.2548 4.5137 0.0000 0.0000 0.0000
# 3 10.2874 4.5137 22.6541 0.0000 0.0000 0.0000
# 4 0.0000 0.0000 0.0000 7.9908 0.0000 0.0000
# 5 0.0000 0.0000 0.0000 0.0000 -119.0180 0.0000
# 6 0.0000 0.0000 0.0000 0.0000 0.0000 11.4956
#
#
#
# Elastic Compliance Matrix: (Units=1/GPa)
#
#
# Indices 1 2 3 4 5 6 
#
# 1 0.046846 0.002876 -0.021846 0.000000 0.000000 0.000000
# 2 0.002876 0.011244 -0.003546 0.000000 0.000000 0.000000
# 3 -0.021846 -0.003546 0.054769 0.000000 0.000000 0.000000
# 4 0.000000 0.000000 0.000000 0.125143 0.000000 0.000000
# 5 0.000000 0.000000 0.000000 0.000000 -0.008402 0.000000
# 6 0.000000 0.000000 0.000000 0.000000 0.000000 0.086990
#
#
# Mechanical properties :
#
#
# Convention : Reuss Voigt Hill
#
# Bulk Modulus (GPa) = 14.74351 18.09710 16.42030
# Shear Modulus (GPa) = 13.01297 -11.30866 0.85216
#
# Velocity S-wave (km/s) = 2.41638 -2.25259 0.61835
# Velocity P-wave (km/s) = 3.79480 1.16386 2.80670
#
# Compressibility (1/GPa) = 0.06782647
#
# Stress axis : x y z
#
# Youngs Moduli (GPa) = 21.34648 88.93628 18.25842
#
# Poissons Ratio (x) = -0.25581 0.39888
# Poissons Ratio (y) = -0.06140 0.06475
# Poissons Ratio (z) = 0.46634 0.31541
#
# Static dielectric constant tensor:
#      x y z
#    x 1.852290 0.000000 0.000000 
#    y 0.000000 1.841480 0.000000 
#    z 0.000000 0.000000 1.831960 
# 
# From -- ./inp_files/65870.got.cif
#   From: 2010.05.17/outbox.cif.g08.bks.cpg/sg65_33_cif.got.tgz:65870.got - 2010.06.03 17:01:31.
