data_PCOD9491599
_publ_section_title
;
Structure prediction by ZEFSAII (Michael W. Deem and Ramdas Pophale) SiO2 
 PCOD9491599
Probable space group: C M M M
;
_chemical_formula_sum "Si O2"
_cell_formula_units_Z 112
_cell_length_a 17.821556
_cell_length_b 23.318011
_cell_length_c 13.453007
_cell_angle_alpha 90.000000
_cell_angle_beta 90.000000
_cell_angle_gamma 90.000000
_cell_volume 5590.575161
_symmetry_space_group_name_H-M "C M M M"
_symmetry_group_IT_number 65
_symmetry_cell_setting 'orthorhombic'
loop_
_space_group_symop_operation_xyz
x,y,z
-x,-y,z
x,-y,-z
-x,y,-z
-x,-y,-z
x,y,-z
-x,y,z
x,-y,z
1/2+x,1/2+y,z
1/2-x,1/2-y,z
1/2+x,1/2-y,-z
1/2-x,1/2+y,-z
1/2-x,1/2-y,-z
1/2+x,1/2+y,-z
1/2-x,1/2+y,z
1/2+x,1/2-y,z
loop_
_atom_site_type_symbol
_atom_site_label
_atom_site_fract_x
_atom_site_fract_y
_atom_site_fract_z
Si Si1 0.728554 0.434991 0.114029
Si Si2 0.083310 0.933425 0.781282
Si Si3 0.204056 0.190771 0.881750
Si Si4 0.914754 0.234356 0.271751
Si Si5 0.851738 0.858097 0.612281
Si Si6 0.083710 0.435588 0.620172
Si Si7 0.680802 0.171030 0.381657
O O1 0.747411 0.500000 0.156556
O O2 0.638039 0.430500 0.124446
O O3 0.747149 0.368971 0.148380
O O4 0.753010 0.437415 0.000000
O O5 0.129797 0.906971 0.690548
O O6 0.000000 0.907834 0.792384
O O7 0.074611 0.000000 0.759559
O O8 0.250000 0.250000 0.867713
O O9 0.129150 0.201173 0.816578
O O10 0.188780 0.185937 0.000000
O O11 0.912169 0.190519 0.364215
O O12 0.864375 0.286554 0.310952
O O13 0.000000 0.249891 0.246671
O O14 0.853532 0.878956 0.500000
O O15 0.770280 0.829173 0.629260
O O16 0.081610 0.438335 0.500000
O O17 0.096067 0.500000 0.657426
O O18 0.148969 0.391781 0.643532
O O19 0.000000 0.416230 0.651845
O O20 0.665336 0.182739 0.500000
#
# Coordination Sequence:
#
# PCOD9491599 Si02
#       7
#    16  16  16  16  16  16  16
#     4   9  18  34  59  89 116 144 183 231 284 342
#     4  10  21  36  53  77 112 152 190 232 284 338
#     4  10  21  38  62  89 119 152 184 229 289 347
#     4  12  24  37  56  80 109 145 185 234 288 346
#     4  11  23  37  53  74 104 145 192 240 284 333
#     4   8  14  27  49  76 104 132 167 220 284 341
#     4  10  21  36  55  78 106 144 190 238 288 346
#
# _framework density 20.033716999999999
#
# number of rings (size 3 to 8) (size 9 to 14) (size 15 to 20)
#    0.000    2.000    1.429    3.000    0.000    5.143 
#    0.000    5.000    0.000    0.000    0.000    0.000 
#    0.000    0.000    0.000    8.571    0.000    0.286 
#
# Total GULP energy -311766.919131 kJ/mol
# GULP energy per Si atom -5567.266413 kJ/mol
# Density = 1.998812 g / cm^3
# Si number density = 20.033717 Si / 1000 Ang^3
#
#
#
# Elastic Constant Matrix: (Units=GPa)
#
#
# Indices 1 2 3 4 5 6 
#
# 1 69.2487 23.1699 11.7350 0.0000 0.0000 0.0000
# 2 23.1699 110.9660 9.1329 0.0000 0.0000 0.0000
# 3 11.7350 9.1329 51.9218 0.0000 0.0000 0.0000
# 4 0.0000 0.0000 0.0000 27.3742 0.0000 0.0000
# 5 0.0000 0.0000 0.0000 0.0000 12.5610 0.0000
# 6 0.0000 0.0000 0.0000 0.0000 0.0000 29.3499
#
#
#
# Elastic Compliance Matrix: (Units=1/GPa)
#
#
# Indices 1 2 3 4 5 6 
#
# 1 0.015994 -0.003087 -0.003072 0.000000 0.000000 0.000000
# 2 -0.003087 0.009740 -0.001016 0.000000 0.000000 0.000000
# 3 -0.003072 -0.001016 0.020133 0.000000 0.000000 0.000000
# 4 0.000000 0.000000 0.000000 0.036531 0.000000 0.000000
# 5 0.000000 0.000000 0.000000 0.000000 0.079611 0.000000
# 6 0.000000 0.000000 0.000000 0.000000 0.000000 0.034072
#
#
# Mechanical properties :
#
#
# Convention : Reuss Voigt Hill
#
# Bulk Modulus (GPa) = 31.72778 35.57912 33.65345
# Shear Modulus (GPa) = 22.63111 26.39693 24.51402
#
# Velocity S-wave (km/s) = 3.36467 3.63385 3.50185
# Velocity P-wave (km/s) = 5.56474 5.95018 5.76068
#
# Compressibility (1/GPa) = 0.03151812
#
# Stress axis : x y z
#
# Youngs Moduli (GPa) = 62.52311 102.67072 49.67057
#
# Poissons Ratio (x) = 0.31692 0.15258
# Poissons Ratio (y) = 0.19299 0.05044
# Poissons Ratio (z) = 0.19207 0.10427
#
# Static dielectric constant tensor:
#      x y z
#    x 1.729670 0.000000 0.000000 
#    y 0.000000 1.795530 0.000000 
#    z 0.000000 0.000000 1.716120 
# 
# From -- ./inp_files/40878.got.cif
#   From: 2010.05.17/outbox.cif.g08.bks.cpg/sg65_21_cif.got.tgz:40878.got - 2010.06.03 17:01:31.
