data_PCOD9491661
_publ_section_title
;
Structure prediction by ZEFSAII (Michael W. Deem and Ramdas Pophale) SiO2 
 PCOD9491661
Probable space group: C M M M
;
_chemical_formula_sum "Si O2"
_cell_formula_units_Z 104
_cell_length_a 20.811542
_cell_length_b 27.834967
_cell_length_c 7.439774
_cell_angle_alpha 90.000000
_cell_angle_beta 90.000000
_cell_angle_gamma 90.000000
_cell_volume 4309.776152
_symmetry_space_group_name_H-M "C M M M"
_symmetry_group_IT_number 65
_symmetry_cell_setting 'orthorhombic'
loop_
_space_group_symop_operation_xyz
x,y,z
-x,-y,z
x,-y,-z
-x,y,-z
-x,-y,-z
x,y,-z
-x,y,z
x,-y,z
1/2+x,1/2+y,z
1/2-x,1/2-y,z
1/2+x,1/2-y,-z
1/2-x,1/2+y,-z
1/2-x,1/2-y,-z
1/2+x,1/2+y,-z
1/2-x,1/2+y,z
1/2+x,1/2-y,z
loop_
_atom_site_type_symbol
_atom_site_label
_atom_site_fract_x
_atom_site_fract_y
_atom_site_fract_z
Si Si1 0.425011 0.500000 0.784664
Si Si2 0.743505 0.053668 0.282076
Si Si3 0.864799 0.898664 0.294679
Si Si4 0.070866 0.340817 0.219112
Si Si5 0.178123 0.734731 0.780657
Si Si6 0.594401 0.946911 0.791764
Si Si7 0.069860 0.805564 0.205378
O O1 0.500000 0.500000 0.741388
O O2 0.394280 0.548406 0.710566
O O3 0.417520 0.500000 0.000000
O O4 0.742767 0.055197 0.500000
O O5 0.793106 0.094010 0.218728
O O6 0.671496 0.057815 0.215438
O O7 0.765866 0.000000 0.229262
O O8 0.859866 0.882440 0.500000
O O9 0.910633 0.861091 0.201105
O O10 0.135789 0.312367 0.274727
O O11 0.071212 0.396164 0.283596
O O12 0.000000 0.319707 0.267516
O O13 0.072756 0.341496 0.000000
O O14 0.250000 0.750000 0.720448
O O15 0.129868 0.776815 0.719903
O O16 0.182345 0.732316 0.000000
O O17 0.578539 0.000000 0.714400
O O18 0.574345 0.948318 0.000000
O O19 0.000000 0.799669 0.289911
O O20 0.065040 0.788071 0.000000
#
# Coordination Sequence:
#
# PCOD9491661 Si02
#       7
#     8  16  16  16  16  16  16
#     4  11  23  37  53  77 109 143 184 233 280 327
#     4   9  18  34  51  70 102 142 180 218 266 320
#     4  11  22  36  54  77 106 145 188 228 276 336
#     4   9  17  30  50  77 111 147 180 220 276 337
#     4   9  18  32  52  79 108 141 183 230 278 331
#     4   9  18  30  49  81 113 140 177 221 269 326
#     4  10  21  36  54  78 108 140 178 229 284 332
#
# _framework density 24.131183
#
# number of rings (size 3 to 8) (size 9 to 14) (size 15 to 20)
#    0.000    2.385    0.769    1.615    2.154    6.154 
#    0.000    1.538    0.000    1.846    0.000    2.154 
#    0.000    0.000    0.000    0.000    0.000    0.000 
#
# Total GULP energy -290217.688083 kJ/mol
# GULP energy per Si atom -5581.109386 kJ/mol
# Density = 2.407626 g / cm^3
# Si number density = 24.131183 Si / 1000 Ang^3
#
#
#
# Elastic Constant Matrix: (Units=GPa)
#
#
# Indices 1 2 3 4 5 6 
#
# 1 218.6355 74.1931 10.2069 0.0000 0.0000 0.0000
# 2 74.1931 144.8714 -1.9841 0.0000 0.0000 0.0000
# 3 10.2069 -1.9841 74.4892 0.0000 0.0000 0.0000
# 4 0.0000 0.0000 0.0000 -145.1927 0.0000 0.0000
# 5 0.0000 0.0000 0.0000 0.0000 14.6758 0.0000
# 6 0.0000 0.0000 0.0000 0.0000 0.0000 8.2005
#
#
#
# Elastic Compliance Matrix: (Units=1/GPa)
#
#
# Indices 1 2 3 4 5 6 
#
# 1 0.005588 -0.002873 -0.000842 0.000000 0.000000 0.000000
# 2 -0.002873 0.008383 0.000617 0.000000 0.000000 0.000000
# 3 -0.000842 0.000617 0.013557 0.000000 0.000000 0.000000
# 4 0.000000 0.000000 0.000000 -0.006887 0.000000 0.000000
# 5 0.000000 0.000000 0.000000 0.000000 0.068139 0.000000
# 6 0.000000 0.000000 0.000000 0.000000 0.000000 0.121944
#
#
# Mechanical properties :
#
#
# Convention : Reuss Voigt Hill
#
# Bulk Modulus (GPa) = 46.88194 66.98086 56.93140
# Shear Modulus (GPa) = 22.31834 -0.75794 10.78020
#
# Velocity S-wave (km/s) = 3.04448 -0.56105 2.11590
# Velocity P-wave (km/s) = 5.64168 5.23427 5.44179
#
# Compressibility (1/GPa) = 0.02133017
#
# Stress axis : x y z
#
# Youngs Moduli (GPa) = 178.94746 119.29328 73.76472
#
# Poissons Ratio (x) = 0.34278 0.06213
# Poissons Ratio (y) = 0.51419 -0.04551
# Poissons Ratio (z) = 0.15072 -0.07361
#
# Static dielectric constant tensor:
#      x y z
#    x 1.936310 0.000000 0.000000 
#    y 0.000000 1.936560 0.000000 
#    z 0.000000 0.000000 2.232830 
# 
# From -- ./inp_files/12381.got.cif
#   From: 2010.05.17/outbox.cif.g08.bks.cpg/sg65_7_cif.got.tgz:12381.got - 2010.06.03 17:01:31.
