data_PCOD9491477
_publ_section_title
;
Structure prediction by ZEFSAII (Michael W. Deem and Ramdas Pophale) SiO2 
 PCOD9491477
Probable space group: C M M M
;
_chemical_formula_sum "Si O2"
_cell_formula_units_Z 88
_cell_length_a 14.748389
_cell_length_b 18.501505
_cell_length_c 15.882324
_cell_angle_alpha 90.000000
_cell_angle_beta 90.000000
_cell_angle_gamma 90.000000
_cell_volume 4333.768342
_symmetry_space_group_name_H-M "C M M M"
_symmetry_group_IT_number 65
_symmetry_cell_setting 'orthorhombic'
loop_
_space_group_symop_operation_xyz
x,y,z
-x,-y,z
x,-y,-z
-x,y,-z
-x,-y,-z
x,y,-z
-x,y,z
x,-y,z
1/2+x,1/2+y,z
1/2-x,1/2-y,z
1/2+x,1/2-y,-z
1/2-x,1/2+y,-z
1/2-x,1/2-y,-z
1/2+x,1/2+y,-z
1/2-x,1/2+y,z
1/2+x,1/2-y,z
loop_
_atom_site_type_symbol
_atom_site_label
_atom_site_fract_x
_atom_site_fract_y
_atom_site_fract_z
Si Si1 0.356862 0.758212 0.408311
Si Si2 0.391293 0.921615 0.649450
Si Si3 0.107088 0.799236 0.771364
Si Si4 0.611085 0.583255 0.904222
Si Si5 0.611373 0.141875 0.177038
Si Si6 0.610833 0.917192 0.000000
O O1 0.394977 0.738497 0.500000
O O2 0.250000 0.750000 0.411199
O O3 0.372735 0.844014 0.392917
O O4 0.385886 0.708158 0.329801
O O5 0.500000 0.926132 0.647654
O O6 0.362044 0.910250 0.746491
O O7 0.356852 0.000000 0.617329
O O8 0.143297 0.865006 0.828094
O O9 0.143863 0.722256 0.802611
O O10 0.000000 0.798619 0.789179
O O11 0.500000 0.582838 0.903015
O O12 0.639868 0.500000 0.892598
O O13 0.636398 0.606548 0.000000
O O14 0.500000 0.141891 0.177231
O O15 0.642361 0.118473 0.085768
O O16 0.500000 0.914149 0.000000
O O17 0.637454 0.000000 0.000000
#
# Coordination Sequence:
#
# PCOD9491477 Si02
#       6
#    16  16  16  16  16   8
#     4  10  21  36  51  69  98 133 169 208 254 313
#     4   9  17  31  52  77 102 127 164 214 261 302
#     4   9  17  29  48  72  96 124 162 206 250 299
#     4   8  14  25  44  72 101 124 152 199 252 293
#     4   8  14  22  35  61  95 127 155 189 235 288
#     4   9  14  18  28  52  90 129 155 179 222 280
#
# _framework density 20.305653
#
# number of rings (size 3 to 8) (size 9 to 14) (size 15 to 20)
#    0.000    3.182    0.000    2.727    1.273    4.000 
#    0.000    1.818    0.000    2.182    0.000    2.545 
#    0.000    0.000    0.000    0.000    0.000    0.000 
#
# Total GULP energy -245064.389049 kJ/mol
# GULP energy per Si atom -5569.645206 kJ/mol
# Density = 2.025944 g / cm^3
# Si number density = 20.305653 Si / 1000 Ang^3
#
#
#
# Elastic Constant Matrix: (Units=GPa)
#
#
# Indices 1 2 3 4 5 6 
#
# 1 32.3569 13.1567 -2.6277 0.0000 0.0000 0.0000
# 2 13.1567 113.6331 77.7988 0.0000 0.0000 0.0000
# 3 -2.6277 77.7988 154.9527 0.0000 0.0000 0.0000
# 4 0.0000 0.0000 0.0000 12.9502 0.0000 0.0000
# 5 0.0000 0.0000 0.0000 0.0000 -4.0694 0.0000
# 6 0.0000 0.0000 0.0000 0.0000 0.0000 5.0658
#
#
#
# Elastic Compliance Matrix: (Units=1/GPa)
#
#
# Indices 1 2 3 4 5 6 
#
# 1 0.033896 -0.006580 0.003878 0.000000 0.000000 0.000000
# 2 -0.006580 0.014687 -0.007486 0.000000 0.000000 0.000000
# 3 0.003878 -0.007486 0.010278 0.000000 0.000000 0.000000
# 4 0.000000 0.000000 0.000000 0.077219 0.000000 0.000000
# 5 0.000000 0.000000 0.000000 0.000000 -0.245735 0.000000
# 6 0.000000 0.000000 0.000000 0.000000 0.000000 0.197404
#
#
# Mechanical properties :
#
#
# Convention : Reuss Voigt Hill
#
# Bulk Modulus (GPa) = 25.98324 53.06650 39.52487
# Shear Modulus (GPa) = 41.33867 16.96362 29.15115
#
# Velocity S-wave (km/s) = 4.51690 2.89349 3.79306
# Velocity P-wave (km/s) = 6.32669 6.11176 6.22016
#
# Compressibility (1/GPa) = 0.03848634
#
# Stress axis : x y z
#
# Youngs Moduli (GPa) = 29.50222 68.08651 97.29706
#
# Poissons Ratio (x) = 0.44800 -0.37736
# Poissons Ratio (y) = 0.19412 0.72834
# Poissons Ratio (z) = -0.11442 0.50968
#
# Static dielectric constant tensor:
#      x y z
#    x 1.772600 0.000000 0.000000 
#    y 0.000000 1.635920 0.000000 
#    z 0.000000 0.000000 1.769870 
# 
# From -- ./inp_files/42531.got.cif
#   From: 2010.05.17/outbox.cif.g08.bks.cpg/sg65_22_cif.got.tgz:42531.got - 2010.06.03 17:01:31.
