data_PCOD9491262
_publ_section_title
;
Structure prediction by ZEFSAII (Michael W. Deem and Ramdas Pophale) SiO2 
 PCOD9491262
Probable space group: C M M M
;
_chemical_formula_sum "Si O2"
_cell_formula_units_Z 112
_cell_length_a 14.611146
_cell_length_b 14.353257
_cell_length_c 27.984606
_cell_angle_alpha 90.000000
_cell_angle_beta 90.000000
_cell_angle_gamma 90.000000
_cell_volume 5868.862549
_symmetry_space_group_name_H-M "C M M M"
_symmetry_group_IT_number 65
_symmetry_cell_setting 'orthorhombic'
loop_
_space_group_symop_operation_xyz
x,y,z
-x,-y,z
x,-y,-z
-x,y,-z
-x,-y,-z
x,y,-z
-x,y,z
x,-y,z
1/2+x,1/2+y,z
1/2-x,1/2-y,z
1/2+x,1/2-y,-z
1/2-x,1/2+y,-z
1/2-x,1/2-y,-z
1/2+x,1/2+y,-z
1/2-x,1/2+y,z
1/2+x,1/2-y,z
loop_
_atom_site_type_symbol
_atom_site_label
_atom_site_fract_x
_atom_site_fract_y
_atom_site_fract_z
Si Si1 0.395729 0.387264 0.945640
Si Si2 0.105589 0.243076 0.553501
Si Si3 0.871494 0.103985 0.360405
Si Si4 0.656807 0.103557 0.624752
Si Si5 0.605606 0.768773 0.182872
Si Si6 0.226686 0.112470 0.144053
Si Si7 0.139390 0.263416 0.707911
O O1 0.500000 0.357558 0.931834
O O2 0.398345 0.500000 0.946471
O O3 0.315763 0.364157 0.908310
O O4 0.378774 0.355230 0.000000
O O5 0.138249 0.221443 0.500000
O O6 0.107927 0.157294 0.590262
O O7 0.154889 0.329221 0.578981
O O8 0.000000 0.271834 0.550548
O O9 0.762054 0.097344 0.360331
O O10 0.897184 0.168173 0.315587
O O11 0.906581 0.000000 0.358864
O O12 0.612966 0.158336 0.669092
O O13 0.620546 0.000000 0.616185
O O14 0.500000 0.771860 0.166459
O O15 0.675314 0.839952 0.155887
O O16 0.652760 0.666811 0.176972
O O17 0.607779 0.788147 0.239400
O O18 0.229045 0.000000 0.150063
O O19 0.250000 0.250000 0.710105
#
# Coordination Sequence:
#
# PCOD9491262 Si02
#       7
#    16  16  16  16  16  16  16
#     4   8  14  28  55  89 120 154 201 251 296 347
#     4  10  21  35  50  72 106 140 166 206 268 329
#     4   9  19  35  57  80 100 130 174 221 266 321
#     4   9  19  35  57  79  98 129 174 220 263 318
#     4  11  23  38  56  84 118 155 200 246 295 355
#     4  10  21  38  59  84 118 158 195 244 300 349
#     4   9  17  35  53  77 106 142 175 223 281 335
#
# _framework density 19.083766000000001
#
# number of rings (size 3 to 8) (size 9 to 14) (size 15 to 20)
#    0.000    2.571    1.429    2.143    0.000    6.857 
#    0.000    4.286    0.000    1.286    0.000    2.000 
#    0.000    0.000    0.000    0.000    0.000    0.000 
#
# Total GULP energy -311910.338932 kJ/mol
# GULP energy per Si atom -5569.827481 kJ/mol
# Density = 1.904033 g / cm^3
# Si number density = 19.083766 Si / 1000 Ang^3
#
#
#
# Elastic Constant Matrix: (Units=GPa)
#
#
# Indices 1 2 3 4 5 6 
#
# 1 124.4997 41.3591 33.9468 0.0000 0.0000 0.0000
# 2 41.3591 120.1866 39.0701 0.0000 0.0000 0.0000
# 3 33.9468 39.0701 121.1722 0.0000 0.0000 0.0000
# 4 0.0000 0.0000 0.0000 5.0830 0.0000 0.0000
# 5 0.0000 0.0000 0.0000 0.0000 44.3848 0.0000
# 6 0.0000 0.0000 0.0000 0.0000 0.0000 -21.0912
#
#
#
# Elastic Compliance Matrix: (Units=1/GPa)
#
#
# Indices 1 2 3 4 5 6 
#
# 1 0.009399 -0.002657 -0.001777 0.000000 0.000000 0.000000
# 2 -0.002657 0.010046 -0.002495 0.000000 0.000000 0.000000
# 3 -0.001777 -0.002495 0.009555 0.000000 0.000000 0.000000
# 4 0.000000 0.000000 0.000000 0.196736 0.000000 0.000000
# 5 0.000000 0.000000 0.000000 0.000000 0.022530 0.000000
# 6 0.000000 0.000000 0.000000 0.000000 0.000000 -0.047413
#
#
# Mechanical properties :
#
#
# Convention : Reuss Voigt Hill
#
# Bulk Modulus (GPa) = 66.03596 66.06786 66.05191
# Shear Modulus (GPa) = 22.75241 22.44081 22.59661
#
# Velocity S-wave (km/s) = 3.45663 3.43288 3.44477
# Velocity P-wave (km/s) = 7.11403 7.09985 7.10694
#
# Compressibility (1/GPa) = 0.01514326
#
# Stress axis : x y z
#
# Youngs Moduli (GPa) = 106.39199 99.54501 104.65947
#
# Poissons Ratio (x) = 0.26449 0.18593
# Poissons Ratio (y) = 0.28268 0.26110
# Poissons Ratio (z) = 0.18901 0.24834
#
# Static dielectric constant tensor:
#      x y z
#    x 1.741760 0.000000 0.000000 
#    y 0.000000 1.671820 0.000000 
#    z 0.000000 0.000000 1.677270 
# 
# From -- ./inp_files/74846.got.cif
#   From: 2010.05.17/outbox.cif.g08.bks.cpg/sg65_38_cif.got.tgz:74846.got - 2010.06.03 17:01:31.
