data_PCOD9491662
_publ_section_title
;
Structure prediction by ZEFSAII (Michael W. Deem and Ramdas Pophale) SiO2 
 PCOD9491662
Probable space group: C M M M
;
_chemical_formula_sum "Si O2"
_cell_formula_units_Z 88
_cell_length_a 18.574701
_cell_length_b 7.864103
_cell_length_c 31.062541
_cell_angle_alpha 90.000000
_cell_angle_beta 90.000000
_cell_angle_gamma 90.000000
_cell_volume 4537.409792
_symmetry_space_group_name_H-M "C M M M"
_symmetry_group_IT_number 65
_symmetry_cell_setting 'orthorhombic'
loop_
_space_group_symop_operation_xyz
x,y,z
-x,-y,z
x,-y,-z
-x,y,-z
-x,-y,-z
x,y,-z
-x,y,z
x,-y,z
1/2+x,1/2+y,z
1/2-x,1/2-y,z
1/2+x,1/2-y,-z
1/2-x,1/2+y,-z
1/2-x,1/2-y,-z
1/2+x,1/2+y,-z
1/2-x,1/2+y,z
1/2+x,1/2-y,z
loop_
_atom_site_type_symbol
_atom_site_label
_atom_site_fract_x
_atom_site_fract_y
_atom_site_fract_z
Si Si1 0.082125 0.204026 0.953307
Si Si2 0.334573 0.294362 0.397478
Si Si3 0.415328 0.000000 0.551566
Si Si4 0.333073 0.201575 0.868091
Si Si5 0.918959 0.202424 0.688574
Si Si6 0.666187 0.797003 0.773519
O O1 0.124564 0.245987 0.910393
O O2 0.000000 0.266696 0.949848
O O3 0.079796 0.000000 0.955305
O O4 0.111562 0.263959 0.000000
O O5 0.343887 0.500000 0.404471
O O6 0.250000 0.250000 0.398877
O O7 0.376643 0.169886 0.430157
O O8 0.367538 0.245638 0.350748
O O9 0.500000 0.000000 0.563860
O O10 0.410487 0.000000 0.500000
O O11 0.250000 0.250000 0.873287
O O12 0.356179 0.270355 0.820990
O O13 0.338605 0.000000 0.865485
O O14 0.882667 0.237662 0.734353
O O15 0.000000 0.274624 0.685483
O O16 0.924740 0.000000 0.684501
O O17 0.750000 0.750000 0.766797
O O18 0.662033 0.000000 0.774235
#
# Coordination Sequence:
#
# PCOD9491662 Si02
#       6
#    16  16   8  16  16  16
#     4   9  19  36  56  77 102 136 177 222 277 341
#     4  11  23  43  68 100 133 174 223 274 324 386
#     4  11  26  46  70 102 137 177 223 273 335 391
#     4  10  21  36  54  78 108 141 184 231 283 342
#     4  10  22  38  59  88 122 159 202 249 302 363
#     4  10  21  36  55  80 110 150 191 236 288 347
#
# _framework density 19.394324999999998
#
# number of rings (size 3 to 8) (size 9 to 14) (size 15 to 20)
#    0.000    1.909    0.909    2.727    1.273    7.636 
#    0.000    5.455    0.000    0.000    0.000    0.000 
#    0.000    0.000    0.000    0.000    0.000    0.000 
#
# Total GULP energy -245444.804071 kJ/mol
# GULP energy per Si atom -5578.291002 kJ/mol
# Density = 1.935018 g / cm^3
# Si number density = 19.394325 Si / 1000 Ang^3
#
#
#
# Elastic Constant Matrix: (Units=GPa)
#
#
# Indices 1 2 3 4 5 6 
#
# 1 125.6468 33.6064 92.3132 0.0000 0.0000 0.0000
# 2 33.6064 64.8875 40.5676 0.0000 0.0000 0.0000
# 3 92.3132 40.5676 162.3728 0.0000 0.0000 0.0000
# 4 0.0000 0.0000 0.0000 40.0535 0.0000 0.0000
# 5 0.0000 0.0000 0.0000 0.0000 38.6779 0.0000
# 6 0.0000 0.0000 0.0000 0.0000 0.0000 16.0944
#
#
#
# Elastic Compliance Matrix: (Units=1/GPa)
#
#
# Indices 1 2 3 4 5 6 
#
# 1 0.014058 -0.002707 -0.007316 0.000000 0.000000 0.000000
# 2 -0.002707 0.018785 -0.003154 0.000000 0.000000 0.000000
# 3 -0.007316 -0.003154 0.011106 0.000000 0.000000 0.000000
# 4 0.000000 0.000000 0.000000 0.024967 0.000000 0.000000
# 5 0.000000 0.000000 0.000000 0.000000 0.025855 0.000000
# 6 0.000000 0.000000 0.000000 0.000000 0.000000 0.062133
#
#
# Mechanical properties :
#
#
# Convention : Reuss Voigt Hill
#
# Bulk Modulus (GPa) = 56.83512 76.20906 66.52209
# Shear Modulus (GPa) = 26.43774 31.39314 28.91544
#
# Velocity S-wave (km/s) = 3.69612 4.02764 3.86544
# Velocity P-wave (km/s) = 6.89809 7.81083 7.36861
#
# Compressibility (1/GPa) = 0.01759475
#
# Stress axis : x y z
#
# Youngs Moduli (GPa) = 71.13429 53.23284 90.04046
#
# Poissons Ratio (x) = 0.14410 0.65874
# Poissons Ratio (y) = 0.19255 0.28403
# Poissons Ratio (z) = 0.52042 0.16792
#
# Static dielectric constant tensor:
#      x y z
#    x 1.647050 0.000000 0.000000 
#    y 0.000000 1.697870 0.000000 
#    z 0.000000 0.000000 1.710600 
# 
# From -- ./inp_files/77846.got.cif
#   From: 2010.05.17/outbox.cif.g08.bks.cpg/sg65_39_cif.got.tgz:77846.got - 2010.06.03 17:01:31.
