data_PCOD9491656
_publ_section_title
;
Structure prediction by ZEFSAII (Michael W. Deem and Ramdas Pophale) SiO2 
 PCOD9491656
Probable space group: C M M M
;
_chemical_formula_sum "Si O2"
_cell_formula_units_Z 120
_cell_length_a 7.971695
_cell_length_b 28.710948
_cell_length_c 26.832348
_cell_angle_alpha 90.000000
_cell_angle_beta 90.000000
_cell_angle_gamma 90.000000
_cell_volume 6141.251518
_symmetry_space_group_name_H-M "C M M M"
_symmetry_group_IT_number 65
_symmetry_cell_setting 'orthorhombic'
loop_
_space_group_symop_operation_xyz
x,y,z
-x,-y,z
x,-y,-z
-x,y,-z
-x,-y,-z
x,y,-z
-x,y,z
x,-y,z
1/2+x,1/2+y,z
1/2-x,1/2-y,z
1/2+x,1/2-y,-z
1/2-x,1/2+y,-z
1/2-x,1/2-y,-z
1/2+x,1/2+y,-z
1/2-x,1/2+y,z
1/2+x,1/2-y,z
loop_
_atom_site_type_symbol
_atom_site_label
_atom_site_fract_x
_atom_site_fract_y
_atom_site_fract_z
Si Si1 0.297210 0.303709 0.500000
Si Si2 0.194916 0.551614 0.559875
Si Si3 0.809328 0.623694 0.866196
Si Si4 0.689925 0.302242 0.792681
Si Si5 0.189320 0.144693 0.598557
Si Si6 0.704783 0.053820 0.783195
Si Si7 0.202784 0.698264 0.057603
Si Si8 0.696461 0.136328 0.709922
O O1 0.500000 0.309863 0.500000
O O2 0.250000 0.250000 0.500000
O O3 0.234999 0.327336 0.551409
O O4 0.201900 0.552035 0.500000
O O5 0.239865 0.500000 0.577265
O O6 0.309651 0.591581 0.580455
O O7 0.000000 0.560525 0.573856
O O8 0.807280 0.664764 0.825356
O O9 0.736834 0.580297 0.834179
O O10 0.733490 0.652554 0.912713
O O11 0.000000 0.610507 0.879790
O O12 0.500000 0.306329 0.811425
O O13 0.750000 0.250000 0.794043
O O14 0.702512 0.323361 0.737727
O O15 0.280003 0.142573 0.651316
O O16 0.000000 0.161889 0.606686
O O17 0.500000 0.053397 0.784946
O O18 0.749859 0.087170 0.736063
O O19 0.760061 0.000000 0.779474
O O20 0.250000 0.750000 0.077729
O O21 0.000000 0.696287 0.059185
O O22 0.258293 0.696781 0.000000
O O23 0.500000 0.141661 0.721224
#
# Coordination Sequence:
#
# PCOD9491656 Si02
#       8
#     8  16  16  16  16  16  16  16
#     4  10  24  42  59  78 101 133 172 209 247 298
#     4   9  18  33  54  79 103 130 166 203 243 297
#     4   9  17  30  49  73 100 134 176 217 260 311
#     4  11  21  34  52  74 101 132 166 209 258 311
#     4  11  22  38  56  79 108 136 167 209 258 310
#     4   8  15  30  52  75  99 130 170 213 257 307
#     4   9  17  28  43  67 101 139 177 219 266 316
#     4  10  21  36  54  78 104 134 170 209 254 306
#
# _framework density 19.539992000000002
#
# number of rings (size 3 to 8) (size 9 to 14) (size 15 to 20)
#    0.000    2.400    0.667    3.600    0.000    4.000 
#    0.000    3.333    0.000   10.000    0.000    2.800 
#    0.000    0.000    0.000    8.133    0.000    8.800 
#
# Total GULP energy -334242.752016 kJ/mol
# GULP energy per Si atom -5570.712534 kJ/mol
# Density = 1.949552 g / cm^3
# Si number density = 19.539992 Si / 1000 Ang^3
#
#
#
# Elastic Constant Matrix: (Units=GPa)
#
#
# Indices 1 2 3 4 5 6 
#
# 1 32.2194 3.2270 4.6104 0.0000 0.0000 0.0000
# 2 3.2270 86.5176 37.7086 0.0000 0.0000 0.0000
# 3 4.6104 37.7086 98.6257 0.0000 0.0000 0.0000
# 4 0.0000 0.0000 0.0000 -0.1307 0.0000 0.0000
# 5 0.0000 0.0000 0.0000 0.0000 22.1241 0.0000
# 6 0.0000 0.0000 0.0000 0.0000 0.0000 15.3885
#
#
#
# Elastic Compliance Matrix: (Units=1/GPa)
#
#
# Indices 1 2 3 4 5 6 
#
# 1 0.031275 -0.000635 -0.001219 0.000000 0.000000 0.000000
# 2 -0.000635 0.013883 -0.005278 0.000000 0.000000 0.000000
# 3 -0.001219 -0.005278 0.012214 0.000000 0.000000 0.000000
# 4 0.000000 0.000000 0.000000 -7.648525 0.000000 0.000000
# 5 0.000000 0.000000 0.000000 0.000000 0.045199 0.000000
# 6 0.000000 0.000000 0.000000 0.000000 0.000000 0.064984
#
#
# Mechanical properties :
#
#
# Convention : Reuss Voigt Hill
#
# Bulk Modulus (GPa) = 23.19798 34.27275 28.73537
# Shear Modulus (GPa) = -0.67093 18.93083 9.12995
#
# Velocity S-wave (km/s) = -0.58661 3.11597 2.16393
# Velocity P-wave (km/s) = 3.38216 5.52482 4.58053
#
# Compressibility (1/GPa) = 0.04310720
#
# Stress axis : x y z
#
# Youngs Moduli (GPa) = 31.97417 72.03309 81.87066
#
# Poissons Ratio (x) = 0.04575 0.09981
# Poissons Ratio (y) = 0.02031 0.43213
# Poissons Ratio (z) = 0.03898 0.38020
#
# Static dielectric constant tensor:
#      x y z
#    x 1.771750 0.000000 0.000000 
#    y 0.000000 1.674170 0.000000 
#    z 0.000000 0.000000 1.739630 
# 
# From -- ./inp_files/73908.got.cif
#   From: 2010.05.17/outbox.cif.g08.bks.cpg/sg65_37_cif.got.tgz:73908.got - 2010.06.03 17:01:31.
