data_PCOD9491936
_publ_section_title
;
Structure prediction by ZEFSAII (Michael W. Deem and Ramdas Pophale) SiO2 
 PCOD9491936
Probable space group: C M M M
;
_chemical_formula_sum "Si O2"
_cell_formula_units_Z 80
_cell_length_a 7.706690
_cell_length_b 18.672769
_cell_length_c 27.352175
_cell_angle_alpha 90.000000
_cell_angle_beta 90.000000
_cell_angle_gamma 90.000000
_cell_volume 3936.121366
_symmetry_space_group_name_H-M "C M M M"
_symmetry_group_IT_number 65
_symmetry_cell_setting 'orthorhombic'
loop_
_space_group_symop_operation_xyz
x,y,z
-x,-y,z
x,-y,-z
-x,y,-z
-x,-y,-z
x,y,-z
-x,y,z
x,-y,z
1/2+x,1/2+y,z
1/2-x,1/2-y,z
1/2+x,1/2-y,-z
1/2-x,1/2+y,-z
1/2-x,1/2-y,-z
1/2+x,1/2+y,-z
1/2-x,1/2+y,z
1/2+x,1/2-y,z
loop_
_atom_site_type_symbol
_atom_site_label
_atom_site_fract_x
_atom_site_fract_y
_atom_site_fract_z
Si Si1 0.291014 0.834229 0.595965
Si Si2 0.708380 0.165319 0.297794
Si Si3 0.793161 0.419284 0.097346
Si Si4 0.290586 0.834270 0.808660
Si Si5 0.795600 0.833624 0.000000
Si Si6 0.712719 0.917366 0.500000
O O1 0.500000 0.840686 0.596645
O O2 0.250000 0.750000 0.591032
O O3 0.226541 0.860829 0.649319
O O4 0.227138 0.877242 0.548995
O O5 0.500000 0.156238 0.297817
O O6 0.750000 0.250000 0.297823
O O7 0.773070 0.139482 0.244833
O O8 0.723984 0.500000 0.091880
O O9 0.723031 0.378700 0.145224
O O10 0.768213 0.373048 0.048700
O O11 0.000000 0.424817 0.104284
O O12 0.500000 0.839814 0.808062
O O13 0.250000 0.750000 0.814173
O O14 0.750000 0.750000 0.000000
O O15 0.000000 0.839785 0.000000
O O16 0.500000 0.915037 0.500000
O O17 0.763954 0.000000 0.500000
#
# Coordination Sequence:
#
# PCOD9491936 Si02
#       6
#    16  16  16  16   8   8
#     4   9  16  27  45  66  88 117 154 196 237 278
#     4   8  14  25  42  66  92 117 151 194 237 277
#     4  10  21  37  55  76 105 137 165 198 242 288
#     4   9  17  30  49  72  97 126 160 197 237 282
#     4  12  25  40  59  81 103 129 165 206 245 288
#     4   9  17  28  41  61  90 121 152 188 234 285
#
# _framework density 20.324574999999999
#
# number of rings (size 3 to 8) (size 9 to 14) (size 15 to 20)
#    0.000    2.700    0.000    2.100    0.000    4.000 
#    0.000    1.000    0.000    7.200    0.000    0.000 
#    0.000   16.000    0.000    0.000    0.000    0.000 
#
# Total GULP energy -222990.544864 kJ/mol
# GULP energy per Si atom -5574.763622 kJ/mol
# Density = 2.027832 g / cm^3
# Si number density = 20.324575 Si / 1000 Ang^3
#
#
#
# Elastic Constant Matrix: (Units=GPa)
#
#
# Indices 1 2 3 4 5 6 
#
# 1 36.5136 -0.6700 4.8862 0.0000 0.0000 0.0000
# 2 -0.6700 113.6726 111.0008 0.0000 0.0000 0.0000
# 3 4.8862 111.0008 266.3650 0.0000 0.0000 0.0000
# 4 0.0000 0.0000 0.0000 -9.1374 0.0000 0.0000
# 5 0.0000 0.0000 0.0000 0.0000 -0.1825 0.0000
# 6 0.0000 0.0000 0.0000 0.0000 0.0000 14.4296
#
#
#
# Elastic Compliance Matrix: (Units=1/GPa)
#
#
# Indices 1 2 3 4 5 6 
#
# 1 0.027537 0.001105 -0.000966 0.000000 0.000000 0.000000
# 2 0.001105 0.014878 -0.006220 0.000000 0.000000 0.000000
# 3 -0.000966 -0.006220 0.006364 0.000000 0.000000 0.000000
# 4 0.000000 0.000000 0.000000 -0.109441 0.000000 0.000000
# 5 0.000000 0.000000 0.000000 0.000000 -5.480294 0.000000
# 6 0.000000 0.000000 0.000000 0.000000 0.000000 0.069302
#
#
# Mechanical properties :
#
#
# Convention : Reuss Voigt Hill
#
# Bulk Modulus (GPa) = 27.30960 71.88724 49.59842
# Shear Modulus (GPa) = -0.91789 21.11089 10.09650
#
# Velocity S-wave (km/s) = -0.67275 3.22636 2.23124
# Velocity P-wave (km/s) = 3.58643 7.02322 5.57620
#
# Compressibility (1/GPa) = 0.03661715
#
# Stress axis : x y z
#
# Youngs Moduli (GPa) = 36.31535 67.21478 157.13240
#
# Poissons Ratio (x) = -0.07430 0.15175
# Poissons Ratio (y) = -0.04014 0.97739
# Poissons Ratio (z) = 0.03507 0.41809
#
# Static dielectric constant tensor:
#      x y z
#    x 1.730970 0.000000 0.000000 
#    y 0.000000 1.662580 0.000000 
#    z 0.000000 0.000000 1.828050 
# 
# From -- ./inp_files/72965.got.cif
#   From: 2010.05.17/outbox.cif.g08.bks.cpg/sg65_37_cif.got.tgz:72965.got - 2010.06.03 17:01:31.
