data_PCOD9491452
_publ_section_title
;
Structure prediction by ZEFSAII (Michael W. Deem and Ramdas Pophale) SiO2 
 PCOD9491452
Probable space group: C M M M
;
_chemical_formula_sum "Si O2"
_cell_formula_units_Z 80
_cell_length_a 28.788241
_cell_length_b 17.328976
_cell_length_c 8.066572
_cell_angle_alpha 90.000000
_cell_angle_beta 90.000000
_cell_angle_gamma 90.000000
_cell_volume 4024.176722
_symmetry_space_group_name_H-M "C M M M"
_symmetry_group_IT_number 65
_symmetry_cell_setting 'orthorhombic'
loop_
_space_group_symop_operation_xyz
x,y,z
-x,-y,z
x,-y,-z
-x,y,-z
-x,-y,-z
x,y,-z
-x,y,z
x,-y,z
1/2+x,1/2+y,z
1/2-x,1/2-y,z
1/2+x,1/2-y,-z
1/2-x,1/2+y,-z
1/2-x,1/2-y,-z
1/2+x,1/2+y,-z
1/2-x,1/2+y,z
1/2+x,1/2-y,z
loop_
_atom_site_type_symbol
_atom_site_label
_atom_site_fract_x
_atom_site_fract_y
_atom_site_fract_z
Si Si1 0.052413 0.500000 0.737437
Si Si2 0.147444 0.500000 0.186501
Si Si3 0.448406 0.169050 0.303330
Si Si4 0.357817 0.261270 0.804814
Si Si5 0.789125 0.364247 0.695778
Si Si6 0.814085 0.910848 0.700378
O O1 0.106007 0.500000 0.681079
O O2 0.053188 0.589063 0.800104
O O3 0.000000 0.500000 0.665106
O O4 0.178718 0.425574 0.211982
O O5 0.127535 0.500000 0.000000
O O6 0.445107 0.147448 0.500000
O O7 0.500000 0.203466 0.278433
O O8 0.405321 0.223462 0.261750
O O9 0.313587 0.217645 0.723930
O O10 0.352291 0.351522 0.766085
O O11 0.355787 0.248039 0.000000
O O12 0.790202 0.381638 0.500000
O O13 0.736420 0.377644 0.752192
O O14 0.815601 0.909602 0.500000
O O15 0.818448 0.000000 0.753501
#
# Coordination Sequence:
#
# PCOD9491452 Si02
#       6
#     8   8  16  16  16  16
#     4  10  21  35  57  87 118 156 200 243 286 336
#     4  12  23  34  54  86 123 161 195 241 299 345
#     4  10  21  38  61  87 116 154 200 244 285 339
#     4  12  25  38  57  89 123 156 190 237 298 349
#     4  11  22  39  61  84 115 159 202 242 285 339
#     4  10  22  42  64  86 111 150 201 245 290 346
#
# _framework density 19.879843999999999
#
# number of rings (size 3 to 8) (size 9 to 14) (size 15 to 20)
#    0.000    1.200    3.000    3.600    0.000    7.000 
#    0.000    2.000    0.000    0.600    0.000    4.200 
#    0.000    0.000    0.000    0.000    0.000    0.000 
#
# Total GULP energy -222958.178468 kJ/mol
# GULP energy per Si atom -5573.954462 kJ/mol
# Density = 1.983460 g / cm^3
# Si number density = 19.879844 Si / 1000 Ang^3
#
#
#
# Elastic Constant Matrix: (Units=GPa)
#
#
# Indices 1 2 3 4 5 6 
#
# 1 130.7018 77.8896 23.0422 0.0000 0.0000 0.0000
# 2 77.8896 132.2059 12.1814 0.0000 0.0000 0.0000
# 3 23.0422 12.1814 69.8226 0.0000 0.0000 0.0000
# 4 0.0000 0.0000 0.0000 12.7129 0.0000 0.0000
# 5 0.0000 0.0000 0.0000 0.0000 18.7556 0.0000
# 6 0.0000 0.0000 0.0000 0.0000 0.0000 -82.2291
#
#
#
# Elastic Compliance Matrix: (Units=1/GPa)
#
#
# Indices 1 2 3 4 5 6 
#
# 1 0.012323 -0.006998 -0.002846 0.000000 0.000000 0.000000
# 2 -0.006998 0.011661 0.000275 0.000000 0.000000 0.000000
# 3 -0.002846 0.000275 0.015213 0.000000 0.000000 0.000000
# 4 0.000000 0.000000 0.000000 0.078660 0.000000 0.000000
# 5 0.000000 0.000000 0.000000 0.000000 0.053317 0.000000
# 6 0.000000 0.000000 0.000000 0.000000 0.000000 -0.012161
#
#
# Mechanical properties :
#
#
# Convention : Reuss Voigt Hill
#
# Bulk Modulus (GPa) = 49.85058 62.10634 55.97846
# Shear Modulus (GPa) = 27.05060 4.48902 15.76981
#
# Velocity S-wave (km/s) = 3.69278 1.50432 2.81954
# Velocity P-wave (km/s) = 6.58122 5.85884 6.23051
#
# Compressibility (1/GPa) = 0.02005995
#
# Stress axis : x y z
#
# Youngs Moduli (GPa) = 81.14889 85.75233 65.73230
#
# Poissons Ratio (x) = 0.60009 0.18706
# Poissons Ratio (y) = 0.56788 -0.01807
# Poissons Ratio (z) = 0.23094 -0.02357
#
# Static dielectric constant tensor:
#      x y z
#    x 1.686170 0.000000 0.000000 
#    y 0.000000 1.699730 0.000000 
#    z 0.000000 0.000000 1.820800 
# 
# From -- ./inp_files/16120.got.cif
#   From: 2010.05.17/outbox.cif.g08.bks.cpg/sg65_9_cif.got.tgz:16120.got - 2010.06.03 17:01:31.
