data_PCOD9491675
_publ_section_title
;
Structure prediction by ZEFSAII (Michael W. Deem and Ramdas Pophale) SiO2 
 PCOD9491675
Probable space group: C M M M
;
_chemical_formula_sum "Si O2"
_cell_formula_units_Z 72
_cell_length_a 24.468304
_cell_length_b 18.377401
_cell_length_c 7.686284
_cell_angle_alpha 90.000000
_cell_angle_beta 90.000000
_cell_angle_gamma 90.000000
_cell_volume 3456.243936
_symmetry_space_group_name_H-M "C M M M"
_symmetry_group_IT_number 65
_symmetry_cell_setting 'orthorhombic'
loop_
_space_group_symop_operation_xyz
x,y,z
-x,-y,z
x,-y,-z
-x,y,-z
-x,-y,-z
x,y,-z
-x,y,z
x,-y,z
1/2+x,1/2+y,z
1/2-x,1/2-y,z
1/2+x,1/2-y,-z
1/2-x,1/2+y,-z
1/2-x,1/2-y,-z
1/2+x,1/2+y,-z
1/2-x,1/2+y,z
1/2+x,1/2-y,z
loop_
_atom_site_type_symbol
_atom_site_label
_atom_site_fract_x
_atom_site_fract_y
_atom_site_fract_z
Si Si1 0.061606 0.204652 0.794953
Si Si2 0.855808 0.083396 0.212795
Si Si3 0.379934 0.147219 0.704247
Si Si4 0.063415 0.500000 0.712602
Si Si5 0.732016 0.083435 0.790091
O O1 0.099683 0.140487 0.721965
O O2 0.093232 0.280755 0.779651
O O3 0.000000 0.208851 0.722350
O O4 0.056454 0.189339 0.000000
O O5 0.793634 0.101802 0.266483
O O6 0.867143 0.000000 0.263626
O O7 0.855655 0.084904 0.000000
O O8 0.391506 0.149952 0.500000
O O9 0.315308 0.137259 0.730484
O O10 0.407329 0.073270 0.775392
O O11 0.066683 0.500000 0.500000
O O12 0.000000 0.500000 0.760312
O O13 0.720088 0.000000 0.731712
O O14 0.731529 0.082899 0.000000
#
# Coordination Sequence:
#
# PCOD9491675 Si02
#       5
#    16  16  16   8  16
#     4  10  21  36  54  79 109 138 176 224 266 309
#     4   8  16  33  57  82 106 137 174 215 268 322
#     4  11  21  34  53  76 107 144 180 218 260 313
#     4   9  18  32  49  69  95 135 180 213 248 300
#     4   9  17  32  55  80 107 137 174 219 264 313
#
# _framework density 20.831865000000001
#
# number of rings (size 3 to 8) (size 9 to 14) (size 15 to 20)
#    0.000    2.556    1.111    2.667    0.000    2.667 
#    0.000    7.778    0.000    4.667    0.000    1.556 
#    0.000    0.000    0.000    0.000    0.000    0.000 
#
# Total GULP energy -200963.963258 kJ/mol
# GULP energy per Si atom -5582.332313 kJ/mol
# Density = 2.078445 g / cm^3
# Si number density = 20.831865 Si / 1000 Ang^3
#
#
#
# Elastic Constant Matrix: (Units=GPa)
#
#
# Indices 1 2 3 4 5 6 
#
# 1 183.1428 118.4207 -1.7404 0.0000 0.0000 0.0000
# 2 118.4207 136.5793 -7.3467 0.0000 0.0000 0.0000
# 3 -1.7404 -7.3467 30.2774 0.0000 0.0000 0.0000
# 4 0.0000 0.0000 0.0000 -5.8866 0.0000 0.0000
# 5 0.0000 0.0000 0.0000 0.0000 -10.6280 0.0000
# 6 0.0000 0.0000 0.0000 0.0000 0.0000 22.7417
#
#
#
# Elastic Compliance Matrix: (Units=1/GPa)
#
#
# Indices 1 2 3 4 5 6 
#
# 1 0.012539 -0.010977 -0.001943 0.000000 0.000000 0.000000
# 2 -0.010977 0.017027 0.003501 0.000000 0.000000 0.000000
# 3 -0.001943 0.003501 0.033766 0.000000 0.000000 0.000000
# 4 0.000000 0.000000 0.000000 -0.169879 0.000000 0.000000
# 5 0.000000 0.000000 0.000000 0.000000 -0.094092 0.000000
# 6 0.000000 0.000000 0.000000 0.000000 0.000000 0.043972
#
#
# Mechanical properties :
#
#
# Convention : Reuss Voigt Hill
#
# Bulk Modulus (GPa) = 22.47445 63.18519 42.82982
# Shear Modulus (GPa) = -40.65148 17.28983 -11.68083
#
# Velocity S-wave (km/s) = -4.42227 2.88405 -2.37052
# Velocity P-wave (km/s) = 3.90683 6.44105 3.62104
#
# Compressibility (1/GPa) = 0.04449496
#
# Stress axis : x y z
#
# Youngs Moduli (GPa) = 79.74925 58.72909 29.61589
#
# Poissons Ratio (x) = 0.64465 0.05753
# Poissons Ratio (y) = 0.87538 -0.10368
# Poissons Ratio (z) = 0.15493 -0.20559
#
# Static dielectric constant tensor:
#      x y z
#    x 1.747930 0.000000 0.000000 
#    y 0.000000 1.717770 0.000000 
#    z 0.000000 0.000000 1.776210 
# 
# From -- ./inp_files/9228.got.cif
#   From: 2010.05.17/outbox.cif.g08.bks.cpg/sg65_5_cif.got.tgz:9228.got - 2010.06.03 17:01:31.
