data_PCOD9491761
_publ_section_title
;
Structure prediction by ZEFSAII (Michael W. Deem and Ramdas Pophale) SiO2 
 PCOD9491761
Probable space group: C M M M
;
_chemical_formula_sum "Si O2"
_cell_formula_units_Z 112
_cell_length_a 13.980349
_cell_length_b 18.152718
_cell_length_c 23.189702
_cell_angle_alpha 90.000000
_cell_angle_beta 90.000000
_cell_angle_gamma 90.000000
_cell_volume 5885.113484
_symmetry_space_group_name_H-M "C M M M"
_symmetry_group_IT_number 65
_symmetry_cell_setting 'orthorhombic'
loop_
_space_group_symop_operation_xyz
x,y,z
-x,-y,z
x,-y,-z
-x,y,-z
-x,-y,-z
x,y,-z
-x,y,z
x,-y,z
1/2+x,1/2+y,z
1/2-x,1/2-y,z
1/2+x,1/2-y,-z
1/2-x,1/2+y,-z
1/2-x,1/2-y,-z
1/2+x,1/2+y,-z
1/2-x,1/2+y,z
1/2+x,1/2-y,z
loop_
_atom_site_type_symbol
_atom_site_label
_atom_site_fract_x
_atom_site_fract_y
_atom_site_fract_z
Si Si1 0.231611 0.581752 0.434047
Si Si2 0.224942 0.665176 0.770613
Si Si3 0.890273 0.795039 0.433715
Si Si4 0.224383 0.835852 0.934318
Si Si5 0.389103 0.841732 0.347487
Si Si6 0.387864 0.412173 0.831418
Si Si7 0.111688 0.412229 0.872789
O O1 0.197936 0.590891 0.500000
O O2 0.271883 0.500000 0.428385
O O3 0.313893 0.641416 0.423351
O O4 0.146836 0.594024 0.389322
O O5 0.250000 0.750000 0.783666
O O6 0.177879 0.661348 0.708094
O O7 0.321603 0.618066 0.779784
O O8 0.151027 0.630946 0.816820
O O9 0.876335 0.768035 0.500000
O O10 0.878120 0.730898 0.387242
O O11 0.000000 0.821555 0.429940
O O12 0.250000 0.750000 0.924168
O O13 0.150245 0.868250 0.887681
O O14 0.321155 0.882361 0.923698
O O15 0.190574 0.843587 0.000000
O O16 0.500000 0.848783 0.331007
O O17 0.500000 0.398882 0.822144
O O18 0.373084 0.500000 0.839052
O O19 0.124863 0.500000 0.865172
O O20 0.000000 0.397739 0.882085
#
# Coordination Sequence:
#
# PCOD9491761 Si02
#       7
#    16  16  16  16  16  16  16
#     4  10  21  36  55  82 115 147 181 226 279 333
#     4  11  22  37  59  83 109 142 183 233 281 329
#     4   9  18  35  59  83 109 144 184 226 274 329
#     4  10  21  36  57  87 119 150 186 229 274 321
#     4  11  23  38  57  81 109 144 187 231 276 331
#     4  10  22  40  61  84 112 148 187 228 277 331
#     4  10  21  37  57  81 112 151 190 227 271 324
#
# _framework density 19.031068999999999
#
# number of rings (size 3 to 8) (size 9 to 14) (size 15 to 20)
#    0.000    1.857    0.000    5.571    0.000    8.286 
#    0.000    5.714    0.000    0.000    0.000    0.000 
#    0.000    0.000    0.000    0.000    0.000    0.000 
#
# Total GULP energy -312675.414355 kJ/mol
# GULP energy per Si atom -5583.489542 kJ/mol
# Density = 1.898775 g / cm^3
# Si number density = 19.031069 Si / 1000 Ang^3
#
#
#
# Elastic Constant Matrix: (Units=GPa)
#
#
# Indices 1 2 3 4 5 6 
#
# 1 130.7705 50.0411 52.0727 0.0000 0.0000 0.0000
# 2 50.0411 89.9773 34.4465 0.0000 0.0000 0.0000
# 3 52.0727 34.4465 105.2744 0.0000 0.0000 0.0000
# 4 0.0000 0.0000 0.0000 16.0260 0.0000 0.0000
# 5 0.0000 0.0000 0.0000 0.0000 14.0526 0.0000
# 6 0.0000 0.0000 0.0000 0.0000 0.0000 17.3940
#
#
#
# Elastic Compliance Matrix: (Units=1/GPa)
#
#
# Indices 1 2 3 4 5 6 
#
# 1 0.010968 -0.004599 -0.003920 0.000000 0.000000 0.000000
# 2 -0.004599 0.014634 -0.002513 0.000000 0.000000 0.000000
# 3 -0.003920 -0.002513 0.012261 0.000000 0.000000 0.000000
# 4 0.000000 0.000000 0.000000 0.062399 0.000000 0.000000
# 5 0.000000 0.000000 0.000000 0.000000 0.071161 0.000000
# 6 0.000000 0.000000 0.000000 0.000000 0.000000 0.057491
#
#
# Mechanical properties :
#
#
# Convention : Reuss Voigt Hill
#
# Bulk Modulus (GPa) = 63.30403 66.57142 64.93773
# Shear Modulus (GPa) = 19.51260 22.12530 20.81895
#
# Velocity S-wave (km/s) = 3.20551 3.41337 3.31107
# Velocity P-wave (km/s) = 6.85829 7.11275 6.98668
#
# Compressibility (1/GPa) = 0.01579678
#
# Stress axis : x y z
#
# Youngs Moduli (GPa) = 91.17494 68.33443 81.56243
#
# Poissons Ratio (x) = 0.31427 0.31975
# Poissons Ratio (y) = 0.41931 0.20501
# Poissons Ratio (z) = 0.35744 0.17176
#
# Static dielectric constant tensor:
#      x y z
#    x 1.657350 0.000000 0.000000 
#    y 0.000000 1.655130 0.000000 
#    z 0.000000 0.000000 1.664350 
# 
# From -- ./inp_files/70055.got.cif
#   From: 2010.05.17/outbox.cif.g08.bks.cpg/sg65_36_cif.got.tgz:70055.got - 2010.06.03 17:01:31.
