data_PCOD9491268
_publ_section_title
;
Structure prediction by ZEFSAII (Michael W. Deem and Ramdas Pophale) SiO2 
 PCOD9491268
Probable space group: C M M M
;
_chemical_formula_sum "Si O2"
_cell_formula_units_Z 64
_cell_length_a 21.035389
_cell_length_b 17.767926
_cell_length_c 9.412941
_cell_angle_alpha 90.000000
_cell_angle_beta 90.000000
_cell_angle_gamma 90.000000
_cell_volume 3518.135977
_symmetry_space_group_name_H-M "C M M M"
_symmetry_group_IT_number 65
_symmetry_cell_setting 'orthorhombic'
loop_
_space_group_symop_operation_xyz
x,y,z
-x,-y,z
x,-y,-z
-x,y,-z
-x,-y,-z
x,y,-z
-x,y,z
x,-y,z
1/2+x,1/2+y,z
1/2-x,1/2-y,z
1/2+x,1/2-y,-z
1/2-x,1/2+y,-z
1/2-x,1/2-y,-z
1/2+x,1/2+y,-z
1/2-x,1/2+y,z
1/2+x,1/2-y,z
loop_
_atom_site_type_symbol
_atom_site_label
_atom_site_fract_x
_atom_site_fract_y
_atom_site_fract_z
Si Si1 0.319112 0.786740 0.164861
Si Si2 0.000000 0.408903 0.839893
Si Si3 0.077017 0.000000 0.162031
Si Si4 0.926657 0.166221 0.173249
Si Si5 0.126070 0.588748 0.667205
O O1 0.250000 0.750000 0.170069
O O2 0.374119 0.727996 0.211229
O O3 0.320846 0.859347 0.264161
O O4 0.332203 0.807645 0.000000
O O5 0.062374 0.389013 0.752310
O O6 0.000000 0.500000 0.849615
O O7 0.000000 0.377640 0.000000
O O8 0.092519 0.081990 0.225065
O O9 0.000000 0.000000 0.154200
O O10 0.102068 0.000000 0.000000
O O11 0.000000 0.182881 0.216437
O O12 0.927372 0.162569 0.000000
O O13 0.118088 0.601162 0.500000
O O14 0.137143 0.500000 0.689534
#
# Coordination Sequence:
#
# PCOD9491268 Si02
#       5
#    16   8   8  16  16
#     4  10  21  35  50  78 113 141 179 230 279 325
#     4   9  17  31  55  85 111 136 171 224 283 325
#     4   7  10  20  40  66  93 121 160 208 258 313
#     4   8  14  26  46  71  99 133 171 213 264 322
#     4  10  21  37  56  78 107 146 190 228 268 332
#
# _framework density 18.19145
#
# number of rings (size 3 to 8) (size 9 to 14) (size 15 to 20)
#    0.000    3.000    0.000    2.625    1.750    3.500 
#    2.250    0.000    0.000    0.000    0.000    0.000 
#    0.000    3.000    0.000    0.000    0.000    0.000 
#
# Total GULP energy -178244.754941 kJ/mol
# GULP energy per Si atom -5570.148592 kJ/mol
# Density = 1.815005 g / cm^3
# Si number density = 18.191450 Si / 1000 Ang^3
#
#
#
# Elastic Constant Matrix: (Units=GPa)
#
#
# Indices 1 2 3 4 5 6 
#
# 1 59.9406 40.4843 30.1270 0.0000 0.0000 0.0000
# 2 40.4843 88.7365 55.9571 0.0000 0.0000 0.0000
# 3 30.1270 55.9571 72.0823 0.0000 0.0000 0.0000
# 4 0.0000 0.0000 0.0000 19.0378 0.0000 0.0000
# 5 0.0000 0.0000 0.0000 0.0000 18.1477 0.0000
# 6 0.0000 0.0000 0.0000 0.0000 0.0000 22.1442
#
#
#
# Elastic Compliance Matrix: (Units=1/GPa)
#
#
# Indices 1 2 3 4 5 6 
#
# 1 0.024452 -0.009229 -0.003055 0.000000 0.000000 0.000000
# 2 -0.009229 0.025560 -0.015985 0.000000 0.000000 0.000000
# 3 -0.003055 -0.015985 0.027559 0.000000 0.000000 0.000000
# 4 0.000000 0.000000 0.000000 0.052527 0.000000 0.000000
# 5 0.000000 0.000000 0.000000 0.000000 0.055104 0.000000
# 6 0.000000 0.000000 0.000000 0.000000 0.000000 0.045159
#
#
# Mechanical properties :
#
#
# Convention : Reuss Voigt Hill
#
# Bulk Modulus (GPa) = 47.54509 52.65514 50.10012
# Shear Modulus (GPa) = 17.01205 18.14533 17.57869
#
# Velocity S-wave (km/s) = 3.06137 3.16169 3.11193
# Velocity P-wave (km/s) = 6.22002 6.50663 6.36494
#
# Compressibility (1/GPa) = 0.02103267
#
# Stress axis : x y z
#
# Youngs Moduli (GPa) = 40.89591 39.12386 36.28613
#
# Poissons Ratio (x) = 0.36108 0.11086
# Poissons Ratio (y) = 0.37744 0.58002
# Poissons Ratio (z) = 0.12495 0.62538
#
# Static dielectric constant tensor:
#      x y z
#    x 1.604730 0.000000 0.000000 
#    y 0.000000 1.681170 0.000000 
#    z 0.000000 0.000000 1.597430 
# 
# From -- ./inp_files/8817.got.cif
#   From: 2010.05.17/outbox.cif.g08.bks.cpg/sg65_5_cif.got.tgz:8817.got - 2010.06.03 17:01:31.
