data_PCOD9491242
_publ_section_title
;
Structure prediction by ZEFSAII (Michael W. Deem and Ramdas Pophale) SiO2 
 PCOD9491242
Probable space group: C M M M
;
_chemical_formula_sum "Si O2"
_cell_formula_units_Z 80
_cell_length_a 19.146790
_cell_length_b 7.700016
_cell_length_c 27.523436
_cell_angle_alpha 90.000000
_cell_angle_beta 90.000000
_cell_angle_gamma 90.000000
_cell_volume 4057.796390
_symmetry_space_group_name_H-M "C M M M"
_symmetry_group_IT_number 65
_symmetry_cell_setting 'orthorhombic'
loop_
_space_group_symop_operation_xyz
x,y,z
-x,-y,z
x,-y,-z
-x,y,-z
-x,-y,-z
x,y,-z
-x,y,z
x,-y,z
1/2+x,1/2+y,z
1/2-x,1/2-y,z
1/2+x,1/2-y,-z
1/2-x,1/2+y,-z
1/2-x,1/2-y,-z
1/2+x,1/2+y,-z
1/2-x,1/2+y,z
1/2+x,1/2-y,z
loop_
_atom_site_type_symbol
_atom_site_label
_atom_site_fract_x
_atom_site_fract_y
_atom_site_fract_z
Si Si1 0.833000 0.290764 0.552306
Si Si2 0.830301 0.206649 0.945513
Si Si3 0.832051 0.709503 0.237264
Si Si4 0.832748 0.291200 0.656792
Si Si5 0.421516 0.206783 0.853174
O O1 0.860656 0.226124 0.500000
O O2 0.840375 0.500000 0.552270
O O3 0.750000 0.250000 0.552333
O O4 0.860749 0.225975 0.604590
O O5 0.750000 0.250000 0.933382
O O6 0.881538 0.268593 0.903713
O O7 0.836251 0.000000 0.947467
O O8 0.844506 0.276357 0.000000
O O9 0.837293 0.500000 0.237970
O O10 0.750000 0.750000 0.231536
O O11 0.857535 0.773123 0.290479
O O12 0.876216 0.777227 0.191857
O O13 0.840985 0.500000 0.656538
O O14 0.750000 0.250000 0.656760
O O15 0.500000 0.277857 0.854685
O O16 0.426380 0.000000 0.845609
#
# Coordination Sequence:
#
# PCOD9491242 Si02
#       5
#    16  16  16  16  16
#     4   8  12  17  26  42  66  96 128 162 204 255
#     4  10  21  37  57  79 101 125 154 187 223 267
#     4   9  17  29  45  64  86 114 149 187 226 269
#     4   8  13  21  33  50  73 101 134 172 213 258
#     4  10  21  35  50  70  97 127 158 193 232 273
#
# _framework density 19.715133000000002
#
# number of rings (size 3 to 8) (size 9 to 14) (size 15 to 20)
#    0.000    3.000    0.000    1.200    0.000    4.400 
#    0.000    2.000    0.000    0.000    0.000    0.000 
#    0.000    0.800    0.000   11.200    0.000    3.800 
#
# Total GULP energy -222678.715862 kJ/mol
# GULP energy per Si atom -5566.967897 kJ/mol
# Density = 1.967026 g / cm^3
# Si number density = 19.715133 Si / 1000 Ang^3
#
#
#
# Elastic Constant Matrix: (Units=GPa)
#
#
# Indices 1 2 3 4 5 6 
#
# 1 69.4849 1.3188 99.1243 0.0000 0.0000 0.0000
# 2 1.3188 36.8678 5.8698 0.0000 0.0000 0.0000
# 3 99.1243 5.8698 220.6349 0.0000 0.0000 0.0000
# 4 0.0000 0.0000 0.0000 -12.5392 0.0000 0.0000
# 5 0.0000 0.0000 0.0000 0.0000 -4.2199 0.0000
# 6 0.0000 0.0000 0.0000 0.0000 0.0000 9.5631
#
#
#
# Elastic Compliance Matrix: (Units=1/GPa)
#
#
# Indices 1 2 3 4 5 6 
#
# 1 0.040154 0.001442 -0.018078 0.000000 0.000000 0.000000
# 2 0.001442 0.027291 -0.001374 0.000000 0.000000 0.000000
# 3 -0.018078 -0.001374 0.012691 0.000000 0.000000 0.000000
# 4 0.000000 0.000000 0.000000 -0.079750 0.000000 0.000000
# 5 0.000000 0.000000 0.000000 0.000000 -0.236972 0.000000
# 6 0.000000 0.000000 0.000000 0.000000 0.000000 0.104569
#
#
# Mechanical properties :
#
#
# Convention : Reuss Voigt Hill
#
# Bulk Modulus (GPa) = 22.66771 59.95702 41.31237
# Shear Modulus (GPa) = -61.50758 13.27243 -24.11757
#
# Velocity S-wave (km/s) = -5.59159 2.59744 -3.50137
# Velocity P-wave (km/s) = 5.49229 6.28278 2.15732
#
# Compressibility (1/GPa) = 0.04411561
#
# Stress axis : x y z
#
# Youngs Moduli (GPa) = 24.90415 36.64195 78.79654
#
# Poissons Ratio (x) = -0.05284 1.42450
# Poissons Ratio (y) = -0.03591 0.10826
# Poissons Ratio (z) = 0.45022 0.05034
#
# Static dielectric constant tensor:
#      x y z
#    x 1.632260 0.000000 0.000000 
#    y 0.000000 1.727930 0.000000 
#    z 0.000000 0.000000 1.789170 
# 
# From -- ./inp_files/72815.got.cif
#   From: 2010.05.17/outbox.cif.g08.bks.cpg/sg65_37_cif.got.tgz:72815.got - 2010.06.03 17:01:31.
