data_PCOD9491671
_publ_section_title
;
Structure prediction by ZEFSAII (Michael W. Deem and Ramdas Pophale) SiO2 
 PCOD9491671
Probable space group: C M M M
;
_chemical_formula_sum "Si O2"
_cell_formula_units_Z 72
_cell_length_a 14.088649
_cell_length_b 27.654953
_cell_length_c 8.643763
_cell_angle_alpha 90.000000
_cell_angle_beta 90.000000
_cell_angle_gamma 90.000000
_cell_volume 3367.790944
_symmetry_space_group_name_H-M "C M M M"
_symmetry_group_IT_number 65
_symmetry_cell_setting 'orthorhombic'
loop_
_space_group_symop_operation_xyz
x,y,z
-x,-y,z
x,-y,-z
-x,y,-z
-x,-y,-z
x,y,-z
-x,y,z
x,-y,z
1/2+x,1/2+y,z
1/2-x,1/2-y,z
1/2+x,1/2-y,-z
1/2-x,1/2+y,-z
1/2-x,1/2-y,-z
1/2+x,1/2+y,-z
1/2-x,1/2+y,z
1/2+x,1/2-y,z
loop_
_atom_site_type_symbol
_atom_site_label
_atom_site_fract_x
_atom_site_fract_y
_atom_site_fract_z
Si Si1 0.884418 0.000000 0.318817
Si Si2 0.266078 0.302961 0.822739
Si Si3 0.111692 0.895192 0.813393
Si Si4 0.112729 0.647934 0.668815
Si Si5 0.615441 0.053796 0.825737
O O1 0.854487 0.051922 0.246096
O O2 0.861248 0.000000 0.500000
O O3 0.000000 0.000000 0.301634
O O4 0.250000 0.250000 0.749317
O O5 0.332254 0.346679 0.758863
O O6 0.161105 0.324486 0.808105
O O7 0.297223 0.295553 0.000000
O O8 0.000000 0.890215 0.772943
O O9 0.119589 0.896331 0.000000
O O10 0.146127 0.664503 0.500000
O O11 0.139702 0.592420 0.697487
O O12 0.000000 0.652321 0.673804
O O13 0.500000 0.052589 0.830919
O O14 0.648898 0.000000 0.792340
O O15 0.646888 0.067458 0.000000
#
# Coordination Sequence:
#
# PCOD9491671 Si02
#       5
#     8  16  16  16  16
#     4   9  17  31  55  87 118 147 184 231 285 348
#     4  10  22  39  59  84 112 146 192 241 286 338
#     4   9  18  35  59  86 116 149 186 233 291 349
#     4  10  21  36  54  78 110 148 187 227 275 330
#     4   8  14  27  49  75 102 135 176 221 266 312
#
# _framework density 21.379000000000001
#
# number of rings (size 3 to 8) (size 9 to 14) (size 15 to 20)
#    0.000    2.778    0.000    1.667    0.000    5.333 
#    2.000    4.444    0.000    2.667    0.000    0.000 
#    0.000    0.000    0.000    0.000    0.000    0.000 
#
# Total GULP energy -200483.745917 kJ/mol
# GULP energy per Si atom -5568.992942 kJ/mol
# Density = 2.133034 g / cm^3
# Si number density = 21.379000 Si / 1000 Ang^3
#
#
#
# Elastic Constant Matrix: (Units=GPa)
#
#
# Indices 1 2 3 4 5 6 
#
# 1 68.4246 49.6416 10.5184 0.0000 0.0000 0.0000
# 2 49.6416 172.6459 31.9070 0.0000 0.0000 0.0000
# 3 10.5184 31.9070 19.4631 0.0000 0.0000 0.0000
# 4 0.0000 0.0000 0.0000 5.5987 0.0000 0.0000
# 5 0.0000 0.0000 0.0000 0.0000 13.6958 0.0000
# 6 0.0000 0.0000 0.0000 0.0000 0.0000 26.0182
#
#
#
# Elastic Compliance Matrix: (Units=1/GPa)
#
#
# Indices 1 2 3 4 5 6 
#
# 1 0.018512 -0.004984 -0.001834 0.000000 0.000000 0.000000
# 2 -0.004984 0.009652 -0.013129 0.000000 0.000000 0.000000
# 3 -0.001834 -0.013129 0.073894 0.000000 0.000000 0.000000
# 4 0.000000 0.000000 0.000000 0.178614 0.000000 0.000000
# 5 0.000000 0.000000 0.000000 0.000000 0.073015 0.000000
# 6 0.000000 0.000000 0.000000 0.000000 0.000000 0.038435
#
#
# Mechanical properties :
#
#
# Convention : Reuss Voigt Hill
#
# Bulk Modulus (GPa) = 16.08659 49.40750 32.74704
# Shear Modulus (GPa) = 11.04394 20.29365 15.66880
#
# Velocity S-wave (km/s) = 2.27530 3.08430 2.71016
# Velocity P-wave (km/s) = 3.80046 5.98702 5.01437
#
# Compressibility (1/GPa) = 0.06216359
#
# Stress axis : x y z
#
# Youngs Moduli (GPa) = 54.01779 103.60894 13.53294
#
# Poissons Ratio (x) = 0.51639 0.02482
# Poissons Ratio (y) = 0.26922 0.17768
# Poissons Ratio (z) = 0.09907 1.36029
#
# Static dielectric constant tensor:
#      x y z
#    x 1.816330 0.000000 0.000000 
#    y 0.000000 1.830180 0.000000 
#    z 0.000000 0.000000 1.810240 
# 
# From -- ./inp_files/7250.got.cif
#   From: 2010.05.17/outbox.cif.g08.bks.cpg/sg65_4_cif.got.tgz:7250.got - 2010.06.03 17:01:31.
