data_PCOD9491423
_publ_section_title
;
Structure prediction by ZEFSAII (Michael W. Deem and Ramdas Pophale) SiO2 
 PCOD9491423
Probable space group: C M M M
;
_chemical_formula_sum "Si O2"
_cell_formula_units_Z 112
_cell_length_a 15.528474
_cell_length_b 16.088675
_cell_length_c 23.598041
_cell_angle_alpha 90.000000
_cell_angle_beta 90.000000
_cell_angle_gamma 90.000000
_cell_volume 5895.559264
_symmetry_space_group_name_H-M "C M M M"
_symmetry_group_IT_number 65
_symmetry_cell_setting 'orthorhombic'
loop_
_space_group_symop_operation_xyz
x,y,z
-x,-y,z
x,-y,-z
-x,y,-z
-x,-y,-z
x,y,-z
-x,y,z
x,-y,z
1/2+x,1/2+y,z
1/2-x,1/2-y,z
1/2+x,1/2-y,-z
1/2-x,1/2+y,-z
1/2-x,1/2-y,-z
1/2+x,1/2+y,-z
1/2-x,1/2+y,z
1/2+x,1/2-y,z
loop_
_atom_site_type_symbol
_atom_site_label
_atom_site_fract_x
_atom_site_fract_y
_atom_site_fract_z
Si Si1 0.402597 0.252556 0.640090
Si Si2 0.628463 0.907830 0.434518
Si Si3 0.210233 0.594458 0.150993
Si Si4 0.344566 0.782859 0.234815
Si Si5 0.663829 0.594584 0.434567
Si Si6 0.594713 0.650803 0.850236
Si Si7 0.099229 0.296356 0.066744
O O1 0.500000 0.274759 0.654144
O O2 0.400907 0.171116 0.600693
O O3 0.358331 0.227359 0.698845
O O4 0.364090 0.331518 0.606813
O O5 0.601676 0.900229 0.500000
O O6 0.732510 0.906331 0.434127
O O7 0.602160 0.000000 0.413911
O O8 0.189455 0.500000 0.138794
O O9 0.160934 0.625707 0.208024
O O10 0.314546 0.602892 0.156143
O O11 0.169731 0.652389 0.102128
O O12 0.250000 0.750000 0.220667
O O13 0.404731 0.721667 0.198891
O O14 0.636334 0.610909 0.500000
O O15 0.635097 0.500000 0.419587
O O16 0.500000 0.608818 0.848291
O O17 0.601512 0.703096 0.908389
O O18 0.000000 0.326163 0.076923
O O19 0.115574 0.299131 0.000000
#
# Coordination Sequence:
#
# PCOD9491423 Si02
#       7
#    16  16  16  16  16  16  16
#     4  12  23  33  52  81 109 138 173 217 273 331
#     4   9  19  36  55  74  99 135 179 220 257 308
#     4  10  21  35  54  82 112 143 179 224 282 336
#     4   9  19  37  56  72  97 136 181 222 257 307
#     4   9  19  37  59  80 104 137 176 219 270 330
#     4   9  18  35  57  79 107 142 179 221 270 328
#     4   9  18  34  57  82 108 145 193 236 270 312
#
# _framework density 18.997349
#
# number of rings (size 3 to 8) (size 9 to 14) (size 15 to 20)
#    0.000    2.429    0.000    4.286    0.000    6.000 
#    0.000    6.429    0.000    3.429    0.000    3.000 
#    0.000    0.000    0.000    0.000    0.000    0.000 
#
# Total GULP energy -311952.164587 kJ/mol
# GULP energy per Si atom -5570.574368 kJ/mol
# Density = 1.895411 g / cm^3
# Si number density = 18.997349 Si / 1000 Ang^3
#
#
#
# Elastic Constant Matrix: (Units=GPa)
#
#
# Indices 1 2 3 4 5 6 
#
# 1 66.1849 14.6538 16.5429 0.0000 0.0000 0.0000
# 2 14.6538 77.2121 39.9769 0.0000 0.0000 0.0000
# 3 16.5429 39.9769 90.5616 0.0000 0.0000 0.0000
# 4 0.0000 0.0000 0.0000 6.6743 0.0000 0.0000
# 5 0.0000 0.0000 0.0000 0.0000 30.3932 0.0000
# 6 0.0000 0.0000 0.0000 0.0000 0.0000 64.5668
#
#
#
# Elastic Compliance Matrix: (Units=1/GPa)
#
#
# Indices 1 2 3 4 5 6 
#
# 1 0.016063 -0.001982 -0.002059 0.000000 0.000000 0.000000
# 2 -0.001982 0.017033 -0.007157 0.000000 0.000000 0.000000
# 3 -0.002059 -0.007157 0.014578 0.000000 0.000000 0.000000
# 4 0.000000 0.000000 0.000000 0.149828 0.000000 0.000000
# 5 0.000000 0.000000 0.000000 0.000000 0.032902 0.000000
# 6 0.000000 0.000000 0.000000 0.000000 0.000000 0.015488
#
#
# Mechanical properties :
#
#
# Convention : Reuss Voigt Hill
#
# Bulk Modulus (GPa) = 39.56198 41.81176 40.68687
# Shear Modulus (GPa) = 18.06919 31.17917 24.62418
#
# Velocity S-wave (km/s) = 3.08741 4.05561 3.60417
# Velocity P-wave (km/s) = 5.79479 6.63232 6.22765
#
# Compressibility (1/GPa) = 0.02527679
#
# Stress axis : x y z
#
# Youngs Moduli (GPa) = 62.25572 58.70932 68.59829
#
# Poissons Ratio (x) = 0.11639 0.14125
# Poissons Ratio (y) = 0.12342 0.49095
# Poissons Ratio (z) = 0.12819 0.42017
#
# Static dielectric constant tensor:
#      x y z
#    x 1.697620 0.000000 0.000000 
#    y 0.000000 1.660470 0.000000 
#    z 0.000000 0.000000 1.670010 
# 
# From -- ./inp_files/70041.got.cif
#   From: 2010.05.17/outbox.cif.g08.bks.cpg/sg65_36_cif.got.tgz:70041.got - 2010.06.03 17:01:31.
