data_PCOD9491412
_publ_section_title
;
Structure prediction by ZEFSAII (Michael W. Deem and Ramdas Pophale) SiO2 
 PCOD9491412
Probable space group: C M M M
;
_chemical_formula_sum "Si O2"
_cell_formula_units_Z 88
_cell_length_a 14.054646
_cell_length_b 27.674598
_cell_length_c 12.235109
_cell_angle_alpha 90.000000
_cell_angle_beta 90.000000
_cell_angle_gamma 90.000000
_cell_volume 4758.927353
_symmetry_space_group_name_H-M "C M M M"
_symmetry_group_IT_number 65
_symmetry_cell_setting 'orthorhombic'
loop_
_space_group_symop_operation_xyz
x,y,z
-x,-y,z
x,-y,-z
-x,y,-z
-x,-y,-z
x,y,-z
-x,y,z
x,-y,z
1/2+x,1/2+y,z
1/2-x,1/2-y,z
1/2+x,1/2-y,-z
1/2-x,1/2+y,-z
1/2-x,1/2-y,-z
1/2+x,1/2+y,-z
1/2-x,1/2+y,z
1/2+x,1/2-y,z
loop_
_atom_site_type_symbol
_atom_site_label
_atom_site_fract_x
_atom_site_fract_y
_atom_site_fract_z
Si Si1 0.694354 0.588429 0.726290
Si Si2 0.384851 0.216820 0.123532
Si Si3 0.613922 0.945183 0.000000
Si Si4 0.614627 0.500000 0.868310
Si Si5 0.387393 0.114453 0.780499
Si Si6 0.613094 0.555206 0.500000
Si Si7 0.614725 0.673721 0.128181
O O1 0.661801 0.545710 0.808164
O O2 0.807458 0.591856 0.703825
O O3 0.644670 0.580842 0.610798
O O4 0.661671 0.636397 0.789836
O O5 0.500000 0.219267 0.117385
O O6 0.366733 0.171180 0.199996
O O7 0.354382 0.271061 0.152428
O O8 0.351001 0.206132 0.000000
O O9 0.634753 0.913677 0.106330
O O10 0.500000 0.949973 0.000000
O O11 0.653261 0.000000 0.000000
O O12 0.500000 0.500000 0.848475
O O13 0.627185 0.500000 0.000000
O O14 0.500000 0.108417 0.755575
O O15 0.650619 0.500000 0.500000
O O16 0.500000 0.552825 0.500000
O O17 0.500000 0.670568 0.138743
O O18 0.635956 0.663510 0.000000
#
# Coordination Sequence:
#
# PCOD9491412 Si02
#       7
#    16  16   8   8  16   8  16
#     4  12  24  37  61  86 113 152 200 240 294 349
#     4   8  14  29  52  79 119 167 200 230 284 356
#     4   9  18  30  48  73 112 162 200 234 273 328
#     4  11  24  39  58  88 123 147 173 231 309 372
#     4  10  21  35  53  82 122 161 198 236 284 345
#     4  11  24  46  69  84 107 149 202 250 289 355
#     4   9  18  32  54  87 123 153 191 246 304 359
#
# _framework density 18.491561000000001
#
# number of rings (size 3 to 8) (size 9 to 14) (size 15 to 20)
#    0.000    2.091    1.818    3.273    3.818    2.182 
#    0.000    2.273    0.000    2.727    0.000    3.818 
#    0.000    0.000    0.000    0.000    0.000    0.000 
#
# Total GULP energy -245499.435861 kJ/mol
# GULP energy per Si atom -5579.532633 kJ/mol
# Density = 1.844947 g / cm^3
# Si number density = 18.491561 Si / 1000 Ang^3
#
#
#
# Elastic Constant Matrix: (Units=GPa)
#
#
# Indices 1 2 3 4 5 6 
#
# 1 113.6083 45.9442 42.8725 0.0000 0.0000 0.0000
# 2 45.9442 108.1450 40.7002 0.0000 0.0000 0.0000
# 3 42.8725 40.7002 77.9035 0.0000 0.0000 0.0000
# 4 0.0000 0.0000 0.0000 -23.1344 0.0000 0.0000
# 5 0.0000 0.0000 0.0000 0.0000 -31.8179 0.0000
# 6 0.0000 0.0000 0.0000 0.0000 0.0000 19.4970
#
#
#
# Elastic Compliance Matrix: (Units=1/GPa)
#
#
# Indices 1 2 3 4 5 6 
#
# 1 0.011957 -0.003240 -0.004887 0.000000 0.000000 0.000000
# 2 -0.003240 0.012388 -0.004689 0.000000 0.000000 0.000000
# 3 -0.004887 -0.004689 0.017976 0.000000 0.000000 0.000000
# 4 0.000000 0.000000 0.000000 -0.043226 0.000000 0.000000
# 5 0.000000 0.000000 0.000000 0.000000 -0.031429 0.000000
# 6 0.000000 0.000000 0.000000 0.000000 0.000000 0.051290
#
#
# Mechanical properties :
#
#
# Convention : Reuss Voigt Hill
#
# Bulk Modulus (GPa) = 59.92455 62.07674 61.00065
# Shear Modulus (GPa) = 99.69714 4.25159 51.97436
#
# Velocity S-wave (km/s) = 7.35064 1.51796 5.30736
# Velocity P-wave (km/s) = 10.22347 6.05933 8.40342
#
# Compressibility (1/GPa) = 0.01668765
#
# Stress axis : x y z
#
# Youngs Moduli (GPa) = 83.63319 80.72240 55.63081
#
# Poissons Ratio (x) = 0.26158 0.27188
# Poissons Ratio (y) = 0.27101 0.26084
# Poissons Ratio (z) = 0.40874 0.37849
#
# Static dielectric constant tensor:
#      x y z
#    x 1.706530 0.000000 0.000000 
#    y 0.000000 1.661400 0.000000 
#    z 0.000000 0.000000 1.639000 
# 
# From -- ./inp_files/25171.got.cif
#   From: 2010.05.17/outbox.cif.g08.bks.cpg/sg65_13_cif.got.tgz:25171.got - 2010.06.03 17:01:31.
