data_PCOD9491395
_publ_section_title
;
Structure prediction by ZEFSAII (Michael W. Deem and Ramdas Pophale) SiO2 
 PCOD9491395
Probable space group: C M M M
;
_chemical_formula_sum "Si O2"
_cell_formula_units_Z 88
_cell_length_a 8.771197
_cell_length_b 19.412710
_cell_length_c 28.787002
_cell_angle_alpha 90.000000
_cell_angle_beta 90.000000
_cell_angle_gamma 90.000000
_cell_volume 4901.640662
_symmetry_space_group_name_H-M "C M M M"
_symmetry_group_IT_number 65
_symmetry_cell_setting 'orthorhombic'
loop_
_space_group_symop_operation_xyz
x,y,z
-x,-y,z
x,-y,-z
-x,y,-z
-x,-y,-z
x,y,-z
-x,y,z
x,-y,z
1/2+x,1/2+y,z
1/2-x,1/2-y,z
1/2+x,1/2-y,-z
1/2-x,1/2+y,-z
1/2-x,1/2-y,-z
1/2+x,1/2+y,-z
1/2-x,1/2+y,z
1/2+x,1/2-y,z
loop_
_atom_site_type_symbol
_atom_site_label
_atom_site_fract_x
_atom_site_fract_y
_atom_site_fract_z
Si Si1 0.316366 0.419825 0.412643
Si Si2 0.818623 0.326089 0.866684
Si Si3 0.317888 0.418393 0.946814
Si Si4 0.815709 0.173420 0.500000
Si Si5 0.680787 0.081601 0.312209
Si Si6 0.181791 0.173652 0.768551
O O1 0.500000 0.415873 0.407701
O O2 0.279120 0.500000 0.423276
O O3 0.269557 0.369813 0.454372
O O4 0.240004 0.401089 0.363777
O O5 0.750000 0.250000 0.874486
O O6 0.770456 0.374743 0.908850
O O7 0.748496 0.351559 0.817873
O O8 0.000000 0.321456 0.862451
O O9 0.500000 0.407486 0.941410
O O10 0.289673 0.500000 0.941209
O O11 0.277520 0.399730 0.000000
O O12 0.750000 0.250000 0.500000
O O13 0.000000 0.176793 0.500000
O O14 0.500000 0.093902 0.309111
O O15 0.766053 0.125088 0.273206
O O16 0.708814 0.000000 0.305483
O O17 0.250000 0.250000 0.761291
O O18 0.000000 0.177699 0.771334
#
# Coordination Sequence:
#
# PCOD9491395 Si02
#       6
#    16  16  16   8  16  16
#     4   9  18  35  57  78 103 140 184 224 265 315
#     4  11  22  37  57  81 111 145 183 226 271 323
#     4   9  19  37  59  82 110 144 182 225 273 324
#     4  10  21  35  53  79 109 140 176 222 270 320
#     4  10  21  37  57  83 113 143 180 225 270 320
#     4  11  22  38  59  81 109 144 182 224 272 325
#
# _framework density 17.953171999999999
#
# number of rings (size 3 to 8) (size 9 to 14) (size 15 to 20)
#    0.000    2.000    0.000    5.727    0.000    5.455 
#    0.000    2.727    0.000    2.727    0.000    0.000 
#    0.000    0.000    0.000    0.000    0.000    0.000 
#
# Total GULP energy -245760.295078 kJ/mol
# GULP energy per Si atom -5585.461252 kJ/mol
# Density = 1.791231 g / cm^3
# Si number density = 17.953172 Si / 1000 Ang^3
#
#
#
# Elastic Constant Matrix: (Units=GPa)
#
#
# Indices 1 2 3 4 5 6 
#
# 1 114.7116 61.7091 93.3807 0.0000 0.0000 0.0000
# 2 61.7091 73.1729 95.0244 0.0000 0.0000 0.0000
# 3 93.3807 95.0244 175.1630 0.0000 0.0000 0.0000
# 4 0.0000 0.0000 0.0000 48.6860 0.0000 0.0000
# 5 0.0000 0.0000 0.0000 0.0000 31.2716 0.0000
# 6 0.0000 0.0000 0.0000 0.0000 0.0000 29.2787
#
#
#
# Elastic Compliance Matrix: (Units=1/GPa)
#
#
# Indices 1 2 3 4 5 6 
#
# 1 0.016869 -0.008621 -0.004316 0.000000 0.000000 0.000000
# 2 -0.008621 0.050653 -0.022883 0.000000 0.000000 0.000000
# 3 -0.004316 -0.022883 0.020424 0.000000 0.000000 0.000000
# 4 0.000000 0.000000 0.000000 0.020540 0.000000 0.000000
# 5 0.000000 0.000000 0.000000 0.000000 0.031978 0.000000
# 6 0.000000 0.000000 0.000000 0.000000 0.000000 0.034155
#
#
# Mechanical properties :
#
#
# Convention : Reuss Voigt Hill
#
# Bulk Modulus (GPa) = 61.32898 95.91956 78.62427
# Shear Modulus (GPa) = 19.86548 29.37612 24.62080
#
# Velocity S-wave (km/s) = 3.33004 4.04946 3.70725
# Velocity P-wave (km/s) = 7.00145 8.68377 7.88759
#
# Compressibility (1/GPa) = 0.01630551
#
# Stress axis : x y z
#
# Youngs Moduli (GPa) = 59.28183 19.74208 48.96287
#
# Poissons Ratio (x) = 0.17020 0.21132
# Poissons Ratio (y) = 0.51107 1.12042
# Poissons Ratio (z) = 0.25585 0.45176
#
# Static dielectric constant tensor:
#      x y z
#    x 1.600650 0.000000 0.000000 
#    y 0.000000 1.590690 0.000000 
#    z 0.000000 0.000000 1.594980 
# 
# From -- ./inp_files/67479.got.cif
#   From: 2010.05.17/outbox.cif.g08.bks.cpg/sg65_34_cif.got.tgz:67479.got - 2010.06.03 17:01:31.
