data_PCOD9491525
_publ_section_title
;
Structure prediction by ZEFSAII (Michael W. Deem and Ramdas Pophale) SiO2 
 PCOD9491525
Probable space group: C M M M
;
_chemical_formula_sum "Si O2"
_cell_formula_units_Z 96
_cell_length_a 9.453721
_cell_length_b 19.594609
_cell_length_c 31.460495
_cell_angle_alpha 90.000000
_cell_angle_beta 90.000000
_cell_angle_gamma 90.000000
_cell_volume 5827.803964
_symmetry_space_group_name_H-M "C M M M"
_symmetry_group_IT_number 65
_symmetry_cell_setting 'orthorhombic'
loop_
_space_group_symop_operation_xyz
x,y,z
-x,-y,z
x,-y,-z
-x,y,-z
-x,-y,-z
x,y,-z
-x,y,z
x,-y,z
1/2+x,1/2+y,z
1/2-x,1/2-y,z
1/2+x,1/2-y,-z
1/2-x,1/2+y,-z
1/2-x,1/2-y,-z
1/2+x,1/2+y,-z
1/2-x,1/2+y,z
1/2+x,1/2-y,z
loop_
_atom_site_type_symbol
_atom_site_label
_atom_site_fract_x
_atom_site_fract_y
_atom_site_fract_z
Si Si1 0.662382 0.416977 0.209267
Si Si2 0.330819 0.679217 0.548416
Si Si3 0.667165 0.179273 0.949931
Si Si4 0.668740 0.580258 0.625335
Si Si5 0.668269 0.418547 0.112650
Si Si6 0.662269 0.916794 0.290614
O O1 0.500000 0.396100 0.217026
O O2 0.663254 0.500000 0.209551
O O3 0.703070 0.397384 0.161277
O O4 0.762466 0.393466 0.247267
O O5 0.299373 0.656302 0.500000
O O6 0.500000 0.690425 0.550969
O O7 0.250000 0.750000 0.555634
O O8 0.292624 0.624211 0.584117
O O9 0.500000 0.186843 0.941146
O O10 0.750000 0.250000 0.942511
O O11 0.738462 0.122268 0.920702
O O12 0.682854 0.162358 0.000000
O O13 0.500000 0.586608 0.632536
O O14 0.698576 0.500000 0.618263
O O15 0.751477 0.603267 0.667410
O O16 0.500000 0.406161 0.106290
O O17 0.690344 0.500000 0.108981
O O18 0.500000 0.894756 0.292705
O O19 0.664157 0.000000 0.289825
#
# Coordination Sequence:
#
# PCOD9491525 Si02
#       6
#    16  16  16  16  16  16
#     4   8  14  26  44  66  94 127 159 189 226 276
#     4   9  18  32  49  68  90 119 154 189 228 276
#     4  10  21  36  53  72  96 129 167 204 243 290
#     4   9  17  29  46  68  93 121 153 190 231 272
#     4   9  18  32  51  76 103 130 161 199 243 288
#     4   9  16  25  40  65  95 124 154 189 229 273
#
# _framework density 16.472757999999999
#
# number of rings (size 3 to 8) (size 9 to 14) (size 15 to 20)
#    0.000    3.000    0.000    2.000    0.000    5.333 
#    0.000    5.000    0.000    1.000    0.000    9.333 
#    0.000    0.000    0.000    0.000    0.000    0.000 
#
# Total GULP energy -267404.996516 kJ/mol
# GULP energy per Si atom -5570.937427 kJ/mol
# Density = 1.643527 g / cm^3
# Si number density = 16.472758 Si / 1000 Ang^3
#
#
#
# Elastic Constant Matrix: (Units=GPa)
#
#
# Indices 1 2 3 4 5 6 
#
# 1 86.9289 49.3277 96.3873 0.0000 0.0000 0.0000
# 2 49.3277 42.7226 67.7908 0.0000 0.0000 0.0000
# 3 96.3873 67.7908 147.7596 0.0000 0.0000 0.0000
# 4 0.0000 0.0000 0.0000 -10.6639 0.0000 0.0000
# 5 0.0000 0.0000 0.0000 0.0000 25.8372 0.0000
# 6 0.0000 0.0000 0.0000 0.0000 0.0000 21.9697
#
#
#
# Elastic Compliance Matrix: (Units=1/GPa)
#
#
# Indices 1 2 3 4 5 6 
#
# 1 0.045852 -0.020147 -0.020667 0.000000 0.000000 0.000000
# 2 -0.020147 0.094905 -0.030399 0.000000 0.000000 0.000000
# 3 -0.020667 -0.030399 0.034196 0.000000 0.000000 0.000000
# 4 0.000000 0.000000 0.000000 -0.093774 0.000000 0.000000
# 5 0.000000 0.000000 0.000000 0.000000 0.038704 0.000000
# 6 0.000000 0.000000 0.000000 0.000000 0.000000 0.045517
#
#
# Mechanical properties :
#
#
# Convention : Reuss Voigt Hill
#
# Bulk Modulus (GPa) = 30.74402 78.26919 54.50660
# Shear Modulus (GPa) = 15.69033 11.68896 13.68964
#
# Velocity S-wave (km/s) = 3.08961 2.66671 2.88592
# Velocity P-wave (km/s) = 5.60639 7.55640 6.65323
#
# Compressibility (1/GPa) = 0.03252666
#
# Stress axis : x y z
#
# Youngs Moduli (GPa) = 21.80948 10.53686 29.24305
#
# Poissons Ratio (x) = 0.21229 0.60436
# Poissons Ratio (y) = 0.43939 0.88896
# Poissons Ratio (z) = 0.45073 0.32031
#
# Static dielectric constant tensor:
#      x y z
#    x 1.547530 0.000000 0.000000 
#    y 0.000000 1.526630 0.000000 
#    z 0.000000 0.000000 1.552460 
# 
# From -- ./inp_files/73071.got.cif
#   From: 2010.05.17/outbox.cif.g08.bks.cpg/sg65_37_cif.got.tgz:73071.got - 2010.06.03 17:01:31.
