data_PCOD9491527
_publ_section_title
;
Structure prediction by ZEFSAII (Michael W. Deem and Ramdas Pophale) SiO2 
 PCOD9491527
Probable space group: C M M M
;
_chemical_formula_sum "Si O2"
_cell_formula_units_Z 112
_cell_length_a 23.469228
_cell_length_b 19.276270
_cell_length_c 13.456539
_cell_angle_alpha 90.000000
_cell_angle_beta 90.000000
_cell_angle_gamma 90.000000
_cell_volume 6087.727150
_symmetry_space_group_name_H-M "C M M M"
_symmetry_group_IT_number 65
_symmetry_cell_setting 'orthorhombic'
loop_
_space_group_symop_operation_xyz
x,y,z
-x,-y,z
x,-y,-z
-x,y,-z
-x,-y,-z
x,y,-z
-x,y,z
x,-y,z
1/2+x,1/2+y,z
1/2-x,1/2-y,z
1/2+x,1/2-y,-z
1/2-x,1/2+y,-z
1/2-x,1/2-y,-z
1/2+x,1/2+y,-z
1/2-x,1/2+y,z
1/2+x,1/2-y,z
loop_
_atom_site_type_symbol
_atom_site_label
_atom_site_fract_x
_atom_site_fract_y
_atom_site_fract_z
Si Si1 0.565257 0.315877 0.114321
Si Si2 0.846825 0.691310 0.887206
Si Si3 0.680945 0.417366 0.612159
Si Si4 0.935091 0.581593 0.185297
Si Si5 0.063268 0.917659 0.296523
Si Si6 0.871088 0.580426 0.612870
Si Si7 0.728131 0.824372 0.304469
O O1 0.500000 0.288725 0.124446
O O2 0.612096 0.257003 0.132571
O O3 0.571645 0.376431 0.194288
O O4 0.571323 0.339588 0.000000
O O5 0.888649 0.625527 0.873777
O O6 0.797975 0.686731 0.804880
O O7 0.825534 0.695010 0.000000
O O8 0.698253 0.398072 0.500000
O O9 0.688645 0.500000 0.622658
O O10 0.614710 0.401130 0.629911
O O11 0.718597 0.375942 0.690238
O O12 0.930889 0.500000 0.161784
O O13 0.918386 0.589641 0.301814
O O14 0.000000 0.604044 0.166896
O O15 0.000000 0.900791 0.335386
O O16 0.065227 0.000000 0.277939
O O17 0.891818 0.588110 0.500000
O O18 0.849792 0.500000 0.623008
O O19 0.821458 0.635958 0.634538
O O20 0.750000 0.750000 0.343066
#
# Coordination Sequence:
#
# PCOD9491527 Si02
#       7
#    16  16  16  16  16  16  16
#     4   9  17  31  53  78 104 137 173 206 247 301
#     4  10  21  36  53  73 100 135 172 211 256 303
#     4  10  21  37  56  76 101 135 170 204 249 306
#     4   9  18  32  51  77 106 135 170 210 250 295
#     4   9  18  33  54  81 109 133 162 204 250 296
#     4   9  18  33  52  74 103 138 172 207 249 296
#     4  11  22  35  53  75  99 130 170 217 257 296
#
# _framework density 18.397670000000002
#
# number of rings (size 3 to 8) (size 9 to 14) (size 15 to 20)
#    0.000    2.429    0.000    2.143    0.000    5.143 
#    0.000    5.714    0.000    0.857    0.000    4.000 
#    0.000    0.000    0.000    0.000    0.000    0.000 
#
# Total GULP energy -312269.427953 kJ/mol
# GULP energy per Si atom -5576.239785 kJ/mol
# Density = 1.835580 g / cm^3
# Si number density = 18.397670 Si / 1000 Ang^3
#
#
#
# Elastic Constant Matrix: (Units=GPa)
#
#
# Indices 1 2 3 4 5 6 
#
# 1 73.7370 20.1049 18.7154 0.0000 0.0000 0.0000
# 2 20.1049 28.4327 7.3384 0.0000 0.0000 0.0000
# 3 18.7154 7.3384 58.0983 0.0000 0.0000 0.0000
# 4 0.0000 0.0000 0.0000 20.0378 0.0000 0.0000
# 5 0.0000 0.0000 0.0000 0.0000 19.5222 0.0000
# 6 0.0000 0.0000 0.0000 0.0000 0.0000 29.0632
#
#
#
# Elastic Compliance Matrix: (Units=1/GPa)
#
#
# Indices 1 2 3 4 5 6 
#
# 1 0.017773 -0.011463 -0.004277 0.000000 0.000000 0.000000
# 2 -0.011463 0.043750 -0.001833 0.000000 0.000000 0.000000
# 3 -0.004277 -0.001833 0.018822 0.000000 0.000000 0.000000
# 4 0.000000 0.000000 0.000000 0.049906 0.000000 0.000000
# 5 0.000000 0.000000 0.000000 0.000000 0.051224 0.000000
# 6 0.000000 0.000000 0.000000 0.000000 0.000000 0.034408
#
#
# Mechanical properties :
#
#
# Convention : Reuss Voigt Hill
#
# Bulk Modulus (GPa) = 22.12565 28.06504 25.09534
# Shear Modulus (GPa) = 18.79028 21.33192 20.06110
#
# Velocity S-wave (km/s) = 3.19931 3.40882 3.30573
# Velocity P-wave (km/s) = 5.06950 5.54808 5.31418
#
# Compressibility (1/GPa) = 0.04519641
#
# Stress axis : x y z
#
# Youngs Moduli (GPa) = 56.26539 22.85727 53.13031
#
# Poissons Ratio (x) = 0.26202 0.22726
# Poissons Ratio (y) = 0.64499 0.09740
# Poissons Ratio (z) = 0.24067 0.04190
#
# Static dielectric constant tensor:
#      x y z
#    x 1.643130 0.000000 0.000000 
#    y 0.000000 1.625980 0.000000 
#    z 0.000000 0.000000 1.613210 
# 
# From -- ./inp_files/45752.got.cif
#   From: 2010.05.17/outbox.cif.g08.bks.cpg/sg65_23_cif.got.tgz:45752.got - 2010.06.03 17:01:31.
