data_PCOD9491367
_publ_section_title
;
Structure prediction by ZEFSAII (Michael W. Deem and Ramdas Pophale) SiO2 
 PCOD9491367
Probable space group: C M M M
;
_chemical_formula_sum "Si O2"
_cell_formula_units_Z 80
_cell_length_a 15.575291
_cell_length_b 18.608467
_cell_length_c 14.653728
_cell_angle_alpha 90.000000
_cell_angle_beta 90.000000
_cell_angle_gamma 90.000000
_cell_volume 4247.123523
_symmetry_space_group_name_H-M "C M M M"
_symmetry_group_IT_number 65
_symmetry_cell_setting 'orthorhombic'
loop_
_space_group_symop_operation_xyz
x,y,z
-x,-y,z
x,-y,-z
-x,y,-z
-x,-y,-z
x,y,-z
-x,y,z
x,-y,z
1/2+x,1/2+y,z
1/2-x,1/2-y,z
1/2+x,1/2-y,-z
1/2-x,1/2+y,-z
1/2-x,1/2-y,-z
1/2+x,1/2+y,-z
1/2-x,1/2+y,z
1/2+x,1/2-y,z
loop_
_atom_site_type_symbol
_atom_site_label
_atom_site_fract_x
_atom_site_fract_y
_atom_site_fract_z
Si Si1 0.220158 0.587433 0.895696
Si Si2 0.093886 0.083064 0.389164
Si Si3 0.762854 0.333030 0.390056
Si Si4 0.398825 0.913763 0.271080
Si Si5 0.092426 0.915789 0.110875
O O1 0.225521 0.500000 0.898077
O O2 0.145151 0.605327 0.825653
O O3 0.314283 0.613947 0.862678
O O4 0.204910 0.611146 0.000000
O O5 0.094039 0.084406 0.500000
O O6 0.177037 0.125549 0.359152
O O7 0.000000 0.110451 0.360056
O O8 0.100863 0.000000 0.361467
O O9 0.769193 0.338233 0.500000
O O10 0.750000 0.250000 0.366105
O O11 0.845331 0.369936 0.345648
O O12 0.500000 0.898728 0.272497
O O13 0.387433 0.000000 0.285143
O O14 0.000000 0.884272 0.139775
O O15 0.091041 0.000000 0.137463
O O16 0.093751 0.914564 0.000000
#
# Coordination Sequence:
#
# PCOD9491367 Si02
#       5
#    16  16  16  16  16
#     4   8  14  26  45  70 102 139 177 218 264 314
#     4   8  14  27  49  74  97 122 155 199 250 301
#     4  10  21  36  54  75 101 136 174 212 258 315
#     4  10  21  35  52  78 110 141 177 223 270 316
#     4   7   9  15  31  57  89 124 159 195 239 292
#
# _framework density 18.836278
#
# number of rings (size 3 to 8) (size 9 to 14) (size 15 to 20)
#    0.000    3.400    0.000    3.000    0.000    2.800 
#    0.000    6.000    0.000    4.200    0.000    0.000 
#    0.000    0.000    0.000    0.000    0.000    0.000 
#
# Total GULP energy -222792.243130 kJ/mol
# GULP energy per Si atom -5569.806078 kJ/mol
# Density = 1.879341 g / cm^3
# Si number density = 18.836278 Si / 1000 Ang^3
#
#
#
# Elastic Constant Matrix: (Units=GPa)
#
#
# Indices 1 2 3 4 5 6 
#
# 1 210.5606 70.9255 53.8888 0.0000 0.0000 0.0000
# 2 70.9255 38.8648 30.3700 0.0000 0.0000 0.0000
# 3 53.8888 30.3700 75.2389 0.0000 0.0000 0.0000
# 4 0.0000 0.0000 0.0000 8.0093 0.0000 0.0000
# 5 0.0000 0.0000 0.0000 0.0000 21.2178 0.0000
# 6 0.0000 0.0000 0.0000 0.0000 0.0000 -0.7936
#
#
#
# Elastic Compliance Matrix: (Units=1/GPa)
#
#
# Indices 1 2 3 4 5 6 
#
# 1 0.012333 -0.022795 0.000367 0.000000 0.000000 0.000000
# 2 -0.022795 0.079715 -0.015850 0.000000 0.000000 0.000000
# 3 0.000367 -0.015850 0.019426 0.000000 0.000000 0.000000
# 4 0.000000 0.000000 0.000000 0.124854 0.000000 0.000000
# 5 0.000000 0.000000 0.000000 0.000000 0.047130 0.000000
# 6 0.000000 0.000000 0.000000 0.000000 0.000000 -1.260040
#
#
# Mechanical properties :
#
#
# Convention : Reuss Voigt Hill
#
# Bulk Modulus (GPa) = 28.63788 70.55923 49.59855
# Shear Modulus (GPa) = -5.62818 16.98536 5.67859
#
# Velocity S-wave (km/s) = -1.73044 3.00615 1.73818
# Velocity P-wave (km/s) = 3.35321 7.04200 5.51515
#
# Compressibility (1/GPa) = 0.03491879
#
# Stress axis : x y z
#
# Youngs Moduli (GPa) = 81.08069 12.54470 51.47789
#
# Poissons Ratio (x) = 0.28595 -0.01891
# Poissons Ratio (y) = 1.84821 0.81595
# Poissons Ratio (z) = -0.02979 0.19884
#
# Static dielectric constant tensor:
#      x y z
#    x 1.673710 0.000000 0.000000 
#    y 0.000000 1.611130 0.000000 
#    z 0.000000 0.000000 1.698080 
# 
# From -- ./inp_files/40014.got.cif
#   From: 2010.05.17/outbox.cif.g08.bks.cpg/sg65_21_cif.got.tgz:40014.got - 2010.06.03 17:01:31.
