data_PCOD9491044
_publ_section_title
;
Structure prediction by ZEFSAII (Michael W. Deem and Ramdas Pophale) SiO2 
 PCOD9491044
Probable space group: C M M M
;
_chemical_formula_sum "Si O2"
_cell_formula_units_Z 90
_cell_length_a 22.635276
_cell_length_b 18.519972
_cell_length_c 11.796239
_cell_angle_alpha 90.000000
_cell_angle_beta 90.000000
_cell_angle_gamma 90.000000
_cell_volume 4945.038568
_symmetry_space_group_name_H-M "C M M M"
_symmetry_group_IT_number 65
_symmetry_cell_setting 'orthorhombic'
loop_
_space_group_symop_operation_xyz
x,y,z
-x,-y,z
x,-y,-z
-x,y,-z
-x,-y,-z
x,y,-z
-x,y,z
x,-y,z
1/2+x,1/2+y,z
1/2-x,1/2-y,z
1/2+x,1/2-y,-z
1/2-x,1/2+y,-z
1/2-x,1/2-y,-z
1/2+x,1/2+y,-z
1/2-x,1/2+y,z
1/2+x,1/2-y,z
loop_
_atom_site_type_symbol
_atom_site_label
_atom_site_fract_x
_atom_site_fract_y
_atom_site_fract_z
Si Si1 0.500000 0.000000 0.500000
Si Si2 0.068038 0.317934 0.749990
Si Si3 0.591913 0.860528 0.500000
Si Si4 0.266006 0.163772 0.500000
Si Si5 0.614847 0.325145 0.136548
Si Si6 0.262187 0.336452 0.750700
Si Si7 0.500000 0.582034 0.137312
Si Si8 0.846626 0.414818 0.130866
O O1 0.446924 0.064944 0.500000
O O2 0.074996 0.318820 0.614964
O O3 0.102473 0.252924 0.809423
O O4 0.096928 0.390989 0.796630
O O5 0.000000 0.312630 0.781563
O O6 0.664295 0.858972 0.500000
O O7 0.250000 0.250000 0.500000
O O8 0.239541 0.138513 0.619784
O O9 0.676127 0.352056 0.188473
O O10 0.559230 0.375164 0.168947
O O11 0.618341 0.320660 0.000000
O O12 0.250000 0.250000 0.753344
O O13 0.209451 0.374646 0.817194
O O14 0.500000 0.500000 0.179272
O O15 0.500000 0.579863 0.000000
O O16 0.837845 0.500000 0.136685
O O17 0.855139 0.393656 0.000000
#
# Coordination Sequence:
#
# PCOD9491044 Si02
#       8
#     2  16   8   8  16  16   8  16
#     4  12  28  40  68  96 126 176 230 278 332 410
#     4  12  23  39  62  90 123 163 214 263 312 376
#     4  12  24  42  62  92 125 165 224 275 329 371
#     4  10  20  40  64  90 122 165 207 270 319 366
#     4  11  22  37  64  96 126 163 205 256 316 386
#     4  11  21  38  64  90 121 161 209 256 309 369
#     4   9  20  39  62  90 122 157 199 251 308 364
#     4  11  25  40  57  88 128 166 205 255 317 378
#
# _framework density 18.200060000000001
#
# number of rings (size 3 to 8) (size 9 to 14) (size 15 to 20)
#    0.000    0.978    5.333    2.133    1.244    2.844 
#    0.000    2.667    0.000    0.000    0.000    3.111 
#    0.000    0.000    0.000    0.000    0.000    0.000 
#
# Total GULP energy -250907.455810 kJ/mol
# GULP energy per Si atom -5575.721240 kJ/mol
# Density = 1.815864 g / cm^3
# Si number density = 18.200060 Si / 1000 Ang^3
#
#
#
# Elastic Constant Matrix: (Units=GPa)
#
#
# Indices 1 2 3 4 5 6 
#
# 1 94.6560 10.1008 41.2436 0.0000 0.0000 0.0000
# 2 10.1008 50.7700 21.0988 0.0000 0.0000 0.0000
# 3 41.2436 21.0988 106.5704 0.0000 0.0000 0.0000
# 4 0.0000 0.0000 0.0000 -8.8733 0.0000 0.0000
# 5 0.0000 0.0000 0.0000 0.0000 26.1648 0.0000
# 6 0.0000 0.0000 0.0000 0.0000 0.0000 30.2776
#
#
#
# Elastic Compliance Matrix: (Units=1/GPa)
#
#
# Indices 1 2 3 4 5 6 
#
# 1 0.012720 -0.000528 -0.004818 0.000000 0.000000 0.000000
# 2 -0.000528 0.021484 -0.004049 0.000000 0.000000 0.000000
# 3 -0.004818 -0.004049 0.012050 0.000000 0.000000 0.000000
# 4 0.000000 0.000000 0.000000 -0.112697 0.000000 0.000000
# 5 0.000000 0.000000 0.000000 0.000000 0.038219 0.000000
# 6 0.000000 0.000000 0.000000 0.000000 0.000000 0.033028
#
#
# Mechanical properties :
#
#
# Convention : Reuss Voigt Hill
#
# Bulk Modulus (GPa) = 36.41226 44.09812 40.25519
# Shear Modulus (GPa) = 152.67158 21.48403 87.07780
#
# Velocity S-wave (km/s) = 9.16882 3.43948 6.92450
# Velocity P-wave (km/s) = 11.49521 6.32895 9.27889
#
# Compressibility (1/GPa) = 0.02746328
#
# Stress axis : x y z
#
# Youngs Moduli (GPa) = 78.61401 46.54529 82.98883
#
# Poissons Ratio (x) = 0.02459 0.39986
# Poissons Ratio (y) = 0.04154 0.33602
# Poissons Ratio (z) = 0.37878 0.18846
#
# Static dielectric constant tensor:
#      x y z
#    x 1.625750 0.000000 0.000000 
#    y 0.000000 1.622610 0.000000 
#    z 0.000000 0.000000 1.631050 
# 
# From -- ./inp_files/28815.got.cif
#   From: 2010.05.17/outbox.cif.g08.bks.cpg/sg65_15_cif.got.tgz:28815.got - 2010.06.03 17:01:31.
