data_PCOD9491327
_publ_section_title
;
Structure prediction by ZEFSAII (Michael W. Deem and Ramdas Pophale) SiO2 
 PCOD9491327
Probable space group: C M M M
;
_chemical_formula_sum "Si O2"
_cell_formula_units_Z 112
_cell_length_a 13.935411
_cell_length_b 26.111485
_cell_length_c 16.273088
_cell_angle_alpha 90.000000
_cell_angle_beta 90.000000
_cell_angle_gamma 90.000000
_cell_volume 5921.358103
_symmetry_space_group_name_H-M "C M M M"
_symmetry_group_IT_number 65
_symmetry_cell_setting 'orthorhombic'
loop_
_space_group_symop_operation_xyz
x,y,z
-x,-y,z
x,-y,-z
-x,y,-z
-x,-y,-z
x,y,-z
-x,y,z
x,-y,z
1/2+x,1/2+y,z
1/2-x,1/2-y,z
1/2+x,1/2-y,-z
1/2-x,1/2+y,-z
1/2-x,1/2-y,-z
1/2+x,1/2+y,-z
1/2-x,1/2+y,z
1/2+x,1/2-y,z
loop_
_atom_site_type_symbol
_atom_site_label
_atom_site_fract_x
_atom_site_fract_y
_atom_site_fract_z
Si Si1 0.885869 0.702953 0.737443
Si Si2 0.396718 0.057676 0.401880
Si Si3 0.885459 0.664004 0.093045
Si Si4 0.612882 0.716783 0.590778
Si Si5 0.111269 0.058992 0.779421
Si Si6 0.216934 0.442939 0.098082
Si Si7 0.267715 0.371987 0.340226
O O1 0.867297 0.706196 0.835749
O O2 0.869128 0.748400 0.671477
O O3 0.809867 0.660487 0.710772
O O4 0.000000 0.690525 0.728901
O O5 0.401937 0.055260 0.500000
O O6 0.500000 0.080419 0.373772
O O7 0.300710 0.086911 0.381833
O O8 0.391589 0.000000 0.368807
O O9 0.843999 0.607981 0.118038
O O10 0.000000 0.658409 0.088967
O O11 0.851149 0.676260 0.000000
O O12 0.630353 0.741302 0.500000
O O13 0.500000 0.703770 0.593156
O O14 0.677802 0.666905 0.600179
O O15 0.180401 0.062040 0.858239
O O16 0.154528 0.098980 0.715060
O O17 0.000000 0.069408 0.797424
O O18 0.118131 0.000000 0.748802
O O19 0.177873 0.500000 0.122151
O O20 0.226266 0.443255 0.000000
#
# Coordination Sequence:
#
# PCOD9491327 Si02
#       7
#    16  16  16  16  16  16  16
#     4  10  21  36  55  82 112 144 184 231 286 341
#     4   9  19  35  54  80 114 147 180 223 276 336
#     4   9  17  32  55  83 115 151 188 228 280 344
#     4  10  23  41  59  82 112 144 187 243 293 337
#     4  10  21  35  51  76 110 148 189 232 278 330
#     4   9  17  31  52  79 111 147 189 234 279 332
#     4  12  20  34  57  81 107 145 189 229 282 338
#
# _framework density 18.914579
#
# number of rings (size 3 to 8) (size 9 to 14) (size 15 to 20)
#    0.000    2.143    1.429    2.571    0.000    2.286 
#    0.000    4.286    0.000    2.571    0.000    8.000 
#    0.000    0.000    0.000    0.000    0.000    0.000 
#
# Total GULP energy -311750.198858 kJ/mol
# GULP energy per Si atom -5566.967837 kJ/mol
# Density = 1.887153 g / cm^3
# Si number density = 18.914579 Si / 1000 Ang^3
#
#
#
# Elastic Constant Matrix: (Units=GPa)
#
#
# Indices 1 2 3 4 5 6 
#
# 1 62.0689 24.7830 25.2697 0.0000 0.0000 0.0000
# 2 24.7830 55.5137 43.3953 0.0000 0.0000 0.0000
# 3 25.2697 43.3953 76.4685 0.0000 0.0000 0.0000
# 4 0.0000 0.0000 0.0000 -17.1560 0.0000 0.0000
# 5 0.0000 0.0000 0.0000 0.0000 14.9422 0.0000
# 6 0.0000 0.0000 0.0000 0.0000 0.0000 59.2507
#
#
#
# Elastic Compliance Matrix: (Units=1/GPa)
#
#
# Indices 1 2 3 4 5 6 
#
# 1 0.019925 -0.006736 -0.002762 0.000000 0.000000 0.000000
# 2 -0.006736 0.034653 -0.017439 0.000000 0.000000 0.000000
# 3 -0.002762 -0.017439 0.023887 0.000000 0.000000 0.000000
# 4 0.000000 0.000000 0.000000 -0.058289 0.000000 0.000000
# 5 0.000000 0.000000 0.000000 0.000000 0.066925 0.000000
# 6 0.000000 0.000000 0.000000 0.000000 0.000000 0.016877
#
#
# Mechanical properties :
#
#
# Convention : Reuss Voigt Hill
#
# Bulk Modulus (GPa) = 40.66646 42.32744 41.49695
# Shear Modulus (GPa) = 30.11134 18.11423 24.11279
#
# Velocity S-wave (km/s) = 3.99427 3.09801 3.57434
# Velocity P-wave (km/s) = 6.54362 5.93495 6.24671
#
# Compressibility (1/GPa) = 0.02459029
#
# Stress axis : x y z
#
# Youngs Moduli (GPa) = 50.18771 28.85718 41.86451
#
# Poissons Ratio (x) = 0.19440 0.11561
# Poissons Ratio (y) = 0.33809 0.73009
# Poissons Ratio (z) = 0.13860 0.50325
#
# Static dielectric constant tensor:
#      x y z
#    x 1.640460 0.000000 0.000000 
#    y 0.000000 1.690770 0.000000 
#    z 0.000000 0.000000 1.695570 
# 
# From -- ./inp_files/40804.got.cif
#   From: 2010.05.17/outbox.cif.g08.bks.cpg/sg65_21_cif.got.tgz:40804.got - 2010.06.03 17:01:31.
