data_PCOD9491553
_publ_section_title
;
Structure prediction by ZEFSAII (Michael W. Deem and Ramdas Pophale) SiO2 
 PCOD9491553
Probable space group: C M M M
;
_chemical_formula_sum "Si O2"
_cell_formula_units_Z 104
_cell_length_a 23.312464
_cell_length_b 30.990337
_cell_length_c 8.508143
_cell_angle_alpha 90.000000
_cell_angle_beta 90.000000
_cell_angle_gamma 90.000000
_cell_volume 6146.802484
_symmetry_space_group_name_H-M "C M M M"
_symmetry_group_IT_number 65
_symmetry_cell_setting 'orthorhombic'
loop_
_space_group_symop_operation_xyz
x,y,z
-x,-y,z
x,-y,-z
-x,y,-z
-x,-y,-z
x,y,-z
-x,y,z
x,-y,z
1/2+x,1/2+y,z
1/2-x,1/2-y,z
1/2+x,1/2-y,-z
1/2-x,1/2+y,-z
1/2-x,1/2-y,-z
1/2+x,1/2+y,-z
1/2-x,1/2+y,z
1/2+x,1/2-y,z
loop_
_atom_site_type_symbol
_atom_site_label
_atom_site_fract_x
_atom_site_fract_y
_atom_site_fract_z
Si Si1 0.069714 0.285712 0.182056
Si Si2 0.066418 0.619888 0.190613
Si Si3 0.066853 0.191576 0.809473
Si Si4 0.500000 0.450291 0.308377
Si Si5 0.845250 0.549545 0.688245
Si Si6 0.112087 0.103187 0.688257
Si Si7 0.718652 0.549691 0.188236
O O1 0.085626 0.332400 0.249804
O O2 0.086319 0.239047 0.249309
O O3 0.000000 0.285434 0.180293
O O4 0.088762 0.285766 0.000000
O O5 0.107683 0.582475 0.248529
O O6 0.000000 0.612917 0.237845
O O7 0.067229 0.621225 0.000000
O O8 0.103209 0.151650 0.748736
O O9 0.000000 0.185166 0.762548
O O10 0.067961 0.192393 0.000000
O O11 0.500000 0.500000 0.256091
O O12 0.500000 0.450498 0.500000
O O13 0.557003 0.424964 0.257286
O O14 0.845033 0.550607 0.500000
O O15 0.857030 0.500000 0.738952
O O16 0.781847 0.560937 0.749632
O O17 0.111960 0.103286 0.500000
O O18 0.169652 0.080831 0.748127
O O19 0.706661 0.500000 0.238058
O O20 0.719117 0.551053 0.000000
#
# Coordination Sequence:
#
# PCOD9491553 Si02
#       7
#    16  16  16   8  16  16  16
#     4   7  12  25  46  71  98 131 166 201 242 290
#     4   9  17  31  53  80 107 134 167 203 242 289
#     4   9  16  28  47  70  99 132 168 208 249 292
#     4   9  18  30  43  63  95 133 165 197 244 299
#     4  10  21  36  53  74 102 135 167 200 244 298
#     4  11  20  31  48  71 101 133 167 206 252 303
#     4  10  21  37  55  73  93 124 170 215 251 293
#
# _framework density 16.919364999999999
#
# number of rings (size 3 to 8) (size 9 to 14) (size 15 to 20)
#    0.000    2.692    0.769    3.692    0.000    3.077 
#    0.000    2.308    0.000    5.538    0.000    6.462 
#    0.000    0.000    0.000    0.000    0.000    0.000 
#
# Total GULP energy -289776.119658 kJ/mol
# GULP energy per Si atom -5572.617686 kJ/mol
# Density = 1.688086 g / cm^3
# Si number density = 16.919365 Si / 1000 Ang^3
#
#
#
# Elastic Constant Matrix: (Units=GPa)
#
#
# Indices 1 2 3 4 5 6 
#
# 1 102.5457 102.4450 25.7463 0.0000 0.0000 0.0000
# 2 102.4450 171.8608 30.0376 0.0000 0.0000 0.0000
# 3 25.7463 30.0376 22.6005 0.0000 0.0000 0.0000
# 4 0.0000 0.0000 0.0000 14.6201 0.0000 0.0000
# 5 0.0000 0.0000 0.0000 0.0000 17.8545 0.0000
# 6 0.0000 0.0000 0.0000 0.0000 0.0000 14.3289
#
#
#
# Elastic Compliance Matrix: (Units=1/GPa)
#
#
# Indices 1 2 3 4 5 6 
#
# 1 0.026361 -0.013631 -0.011913 0.000000 0.000000 0.000000
# 2 -0.013631 0.014628 -0.003913 0.000000 0.000000 0.000000
# 3 -0.011913 -0.003913 0.063019 0.000000 0.000000 0.000000
# 4 0.000000 0.000000 0.000000 0.068399 0.000000 0.000000
# 5 0.000000 0.000000 0.000000 0.000000 0.056008 0.000000
# 6 0.000000 0.000000 0.000000 0.000000 0.000000 0.069789
#
#
# Mechanical properties :
#
#
# Convention : Reuss Voigt Hill
#
# Bulk Modulus (GPa) = 22.17652 68.16277 45.16965
# Shear Modulus (GPa) = 13.43548 18.61258 16.02403
#
# Velocity S-wave (km/s) = 2.82102 3.32034 3.08081
# Velocity P-wave (km/s) = 4.87304 7.42117 6.27775
#
# Compressibility (1/GPa) = 0.04509274
#
# Stress axis : x y z
#
# Youngs Moduli (GPa) = 37.93540 68.36158 15.86835
#
# Poissons Ratio (x) = 0.93185 0.18904
# Poissons Ratio (y) = 0.51711 0.06210
# Poissons Ratio (z) = 0.45192 0.26751
#
# Static dielectric constant tensor:
#      x y z
#    x 1.533670 0.000000 0.000000 
#    y 0.000000 1.599990 0.000000 
#    z 0.000000 0.000000 1.578100 
# 
# From -- ./inp_files/14748.got.cif
#   From: 2010.05.17/outbox.cif.g08.bks.cpg/sg65_8_cif.got.tgz:14748.got - 2010.06.03 17:01:31.
