data_PCOD9491786
_publ_section_title
;
Structure prediction by ZEFSAII (Michael W. Deem and Ramdas Pophale) SiO2 
 PCOD9491786
Probable space group: C M M M
;
_chemical_formula_sum "Si O2"
_cell_formula_units_Z 104
_cell_length_a 9.246240
_cell_length_b 24.172012
_cell_length_c 25.638280
_cell_angle_alpha 90.000000
_cell_angle_beta 90.000000
_cell_angle_gamma 90.000000
_cell_volume 5730.161329
_symmetry_space_group_name_H-M "C M M M"
_symmetry_group_IT_number 65
_symmetry_cell_setting 'orthorhombic'
loop_
_space_group_symop_operation_xyz
x,y,z
-x,-y,z
x,-y,-z
-x,y,-z
-x,-y,-z
x,y,-z
-x,y,z
x,-y,z
1/2+x,1/2+y,z
1/2-x,1/2-y,z
1/2+x,1/2-y,-z
1/2-x,1/2+y,-z
1/2-x,1/2-y,-z
1/2+x,1/2+y,-z
1/2-x,1/2+y,z
1/2+x,1/2-y,z
loop_
_atom_site_type_symbol
_atom_site_label
_atom_site_fract_x
_atom_site_fract_y
_atom_site_fract_z
Si Si1 0.326778 0.613049 0.249255
Si Si2 0.327094 0.390404 0.439562
Si Si3 0.827050 0.808156 0.847905
Si Si4 0.828480 0.500000 0.398148
Si Si5 0.671260 0.000000 0.273107
Si Si6 0.834238 0.500000 0.936476
Si Si7 0.173245 0.191219 0.347406
Si Si8 0.326828 0.388394 0.939136
O O1 0.500000 0.603054 0.250268
O O2 0.292185 0.649297 0.198476
O O3 0.244292 0.555229 0.250934
O O4 0.289505 0.649969 0.299921
O O5 0.297522 0.377930 0.500000
O O6 0.500000 0.400022 0.433834
O O7 0.244336 0.445545 0.422231
O O8 0.288205 0.340386 0.400887
O O9 0.750000 0.750000 0.840652
O O10 0.786795 0.837498 0.902286
O O11 0.000000 0.799826 0.847305
O O12 0.805140 0.500000 0.335779
O O13 0.000000 0.500000 0.408063
O O14 0.500000 0.000000 0.263427
O O15 0.751714 0.555696 0.920870
O O16 0.000000 0.500000 0.918946
O O17 0.833144 0.500000 0.000000
O O18 0.250000 0.250000 0.342355
O O19 0.000000 0.199372 0.346143
O O20 0.500000 0.396669 0.935345
O O21 0.291694 0.378682 0.000000
#
# Coordination Sequence:
#
# PCOD9491786 Si02
#       8
#    16  16  16   8   8   8  16  16
#     4  10  21  39  60  81 108 144 182 221 271 331
#     4  10  21  37  57  81 110 147 187 222 265 327
#     4  10  22  38  57  82 110 145 188 229 272 324
#     4  11  22  36  56  85 115 141 176 225 278 326
#     4  11  23  37  59  89 114 139 176 225 277 327
#     4   9  17  30  51  80 109 139 180 228 275 320
#     4  10  21  36  56  79 105 142 183 223 269 317
#     4   9  18  34  55  79 111 150 187 224 272 331
#
# _framework density 18.149577000000001
#
# number of rings (size 3 to 8) (size 9 to 14) (size 15 to 20)
#    0.000    2.077    1.538    1.385    0.000    6.462 
#    0.000    3.077    0.000    0.000    0.000    0.000 
#    0.000    0.000    0.000    0.000    0.000    0.000 
#
# Total GULP energy -290387.093959 kJ/mol
# GULP energy per Si atom -5584.367192 kJ/mol
# Density = 1.810827 g / cm^3
# Si number density = 18.149577 Si / 1000 Ang^3
#
#
#
# Elastic Constant Matrix: (Units=GPa)
#
#
# Indices 1 2 3 4 5 6 
#
# 1 40.5190 70.5238 50.8370 0.0000 0.0000 0.0000
# 2 70.5238 183.1842 81.9753 0.0000 0.0000 0.0000
# 3 50.8370 81.9753 103.4672 0.0000 0.0000 0.0000
# 4 0.0000 0.0000 0.0000 14.7731 0.0000 0.0000
# 5 0.0000 0.0000 0.0000 0.0000 15.7115 0.0000
# 6 0.0000 0.0000 0.0000 0.0000 0.0000 34.3165
#
#
#
# Elastic Compliance Matrix: (Units=1/GPa)
#
#
# Indices 1 2 3 4 5 6 
#
# 1 0.128147 -0.032782 -0.036990 0.000000 0.000000 0.000000
# 2 -0.032782 0.016844 0.002762 0.000000 0.000000 0.000000
# 3 -0.036990 0.002762 0.025651 0.000000 0.000000 0.000000
# 4 0.000000 0.000000 0.000000 0.067691 0.000000 0.000000
# 5 0.000000 0.000000 0.000000 0.000000 0.063648 0.000000
# 6 0.000000 0.000000 0.000000 0.000000 0.000000 0.029140
#
#
# Mechanical properties :
#
#
# Convention : Reuss Voigt Hill
#
# Bulk Modulus (GPa) = 27.30660 81.53807 54.42234
# Shear Modulus (GPa) = 10.47452 21.21583 15.84518
#
# Velocity S-wave (km/s) = 2.40494 3.42269 2.95792
# Velocity P-wave (km/s) = 4.77385 7.78735 6.45881
#
# Compressibility (1/GPa) = 0.03662118
#
# Stress axis : x y z
#
# Youngs Moduli (GPa) = 7.80354 59.36947 38.98424
#
# Poissons Ratio (x) = 1.94624 1.44205
# Poissons Ratio (y) = 0.25581 -0.10767
# Poissons Ratio (z) = 0.28866 -0.16397
#
# Static dielectric constant tensor:
#      x y z
#    x 1.605710 0.000000 0.000000 
#    y 0.000000 1.571990 0.000000 
#    z 0.000000 0.000000 1.634440 
# 
# From -- ./inp_files/73391.got.cif
#   From: 2010.05.17/outbox.cif.g08.bks.cpg/sg65_37_cif.got.tgz:73391.got - 2010.06.03 17:01:31.
