data_PCOD9491314
_publ_section_title
;
Structure prediction by ZEFSAII (Michael W. Deem and Ramdas Pophale) SiO2 
 PCOD9491314
Probable space group: C M M M
;
_chemical_formula_sum "Si O2"
_cell_formula_units_Z 80
_cell_length_a 8.209245
_cell_length_b 18.704039
_cell_length_c 26.688793
_cell_angle_alpha 90.000000
_cell_angle_beta 90.000000
_cell_angle_gamma 90.000000
_cell_volume 4097.958441
_symmetry_space_group_name_H-M "C M M M"
_symmetry_group_IT_number 65
_symmetry_cell_setting 'orthorhombic'
loop_
_space_group_symop_operation_xyz
x,y,z
-x,-y,z
x,-y,-z
-x,y,-z
-x,-y,-z
x,y,-z
-x,y,z
x,-y,z
1/2+x,1/2+y,z
1/2-x,1/2-y,z
1/2+x,1/2-y,-z
1/2-x,1/2+y,-z
1/2-x,1/2-y,-z
1/2+x,1/2+y,-z
1/2-x,1/2+y,z
1/2+x,1/2-y,z
loop_
_atom_site_type_symbol
_atom_site_label
_atom_site_fract_x
_atom_site_fract_y
_atom_site_fract_z
Si Si1 0.696544 0.917648 0.402772
Si Si2 0.696736 0.917886 0.098374
Si Si3 0.197031 0.332196 0.000000
Si Si4 0.304920 0.331752 0.196119
Si Si5 0.803610 0.917501 0.293196
Si Si6 0.302968 0.831494 0.500000
O O1 0.500000 0.917933 0.403622
O O2 0.750892 0.891697 0.348100
O O3 0.754694 0.871355 0.449683
O O4 0.752186 0.000000 0.408060
O O5 0.500000 0.919580 0.096431
O O6 0.747012 0.877357 0.148658
O O7 0.754863 0.000000 0.097821
O O8 0.753737 0.873832 0.049719
O O9 0.250000 0.250000 0.000000
O O10 0.000000 0.333668 0.000000
O O11 0.500000 0.333226 0.196762
O O12 0.250000 0.250000 0.192305
O O13 0.244705 0.368795 0.247476
O O14 0.000000 0.918460 0.291887
O O15 0.746826 0.000000 0.287281
O O16 0.500000 0.834965 0.500000
O O17 0.250000 0.750000 0.500000
#
# Coordination Sequence:
#
# PCOD9491314 Si02
#       6
#    16  16   8  16  16   8
#     4   9  18  34  56  78 101 134 176 218 259 309
#     4  10  21  38  60  84 111 145 185 227 271 322
#     4  10  21  37  57  83 115 148 181 222 272 322
#     4  11  23  38  56  80 112 147 183 225 273 323
#     4   9  19  36  56  78 105 137 174 219 269 318
#     4  10  21  35  51  75 107 138 170 212 262 312
#
# _framework density 19.521915
#
# number of rings (size 3 to 8) (size 9 to 14) (size 15 to 20)
#    0.000    2.200    0.000    2.400    0.000    9.200 
#    0.000    6.000    0.000    4.800    0.000    0.000 
#    0.000    0.000    0.000    0.000    0.000    0.000 
#
# Total GULP energy -223396.397449 kJ/mol
# GULP energy per Si atom -5584.909936 kJ/mol
# Density = 1.947748 g / cm^3
# Si number density = 19.521915 Si / 1000 Ang^3
#
#
#
# Elastic Constant Matrix: (Units=GPa)
#
#
# Indices 1 2 3 4 5 6 
#
# 1 10.1376 14.6821 18.0259 0.0000 0.0000 0.0000
# 2 14.6821 166.5255 134.8444 0.0000 0.0000 0.0000
# 3 18.0259 134.8444 232.7691 0.0000 0.0000 0.0000
# 4 0.0000 0.0000 0.0000 160.5417 0.0000 0.0000
# 5 0.0000 0.0000 0.0000 0.0000 -4.5529 0.0000
# 6 0.0000 0.0000 0.0000 0.0000 0.0000 23.9007
#
#
#
# Elastic Compliance Matrix: (Units=1/GPa)
#
#
# Indices 1 2 3 4 5 6 
#
# 1 0.117118 -0.005616 -0.005816 0.000000 0.000000 0.000000
# 2 -0.005616 0.011580 -0.006274 0.000000 0.000000 0.000000
# 3 -0.005816 -0.006274 0.008381 0.000000 0.000000 0.000000
# 4 0.000000 0.000000 0.000000 0.006229 0.000000 0.000000
# 5 0.000000 0.000000 0.000000 0.000000 -0.219640 0.000000
# 6 0.000000 0.000000 0.000000 0.000000 0.000000 0.041840
#
#
# Mechanical properties :
#
#
# Convention : Reuss Voigt Hill
#
# Bulk Modulus (GPa) = 9.83600 82.72631 46.28115
# Shear Modulus (GPa) = 143.63759 52.10324 97.87041
#
# Velocity S-wave (km/s) = 8.58704 5.17180 7.08819
# Velocity P-wave (km/s) = 10.16690 8.83920 9.52621
#
# Compressibility (1/GPa) = 0.10166739
#
# Stress axis : x y z
#
# Youngs Moduli (GPa) = 8.53836 86.35332 119.31962
#
# Poissons Ratio (x) = 0.48499 0.69399
# Poissons Ratio (y) = 0.04795 0.74857
# Poissons Ratio (z) = 0.04966 0.54175
#
# Static dielectric constant tensor:
#      x y z
#    x 1.691910 0.000000 0.000000 
#    y 0.000000 1.658360 0.000000 
#    z 0.000000 0.000000 1.668170 
# 
# From -- ./inp_files/72863.got.cif
#   From: 2010.05.17/outbox.cif.g08.bks.cpg/sg65_37_cif.got.tgz:72863.got - 2010.06.03 17:01:31.
