data_PCOD9491466
_publ_section_title
;
Structure prediction by ZEFSAII (Michael W. Deem and Ramdas Pophale) SiO2 
 PCOD9491466
Probable space group: C M M M
;
_chemical_formula_sum "Si O2"
_cell_formula_units_Z 88
_cell_length_a 8.122287
_cell_length_b 29.392538
_cell_length_c 21.979659
_cell_angle_alpha 90.000000
_cell_angle_beta 90.000000
_cell_angle_gamma 90.000000
_cell_volume 5247.305743
_symmetry_space_group_name_H-M "C M M M"
_symmetry_group_IT_number 65
_symmetry_cell_setting 'orthorhombic'
loop_
_space_group_symop_operation_xyz
x,y,z
-x,-y,z
x,-y,-z
-x,y,-z
-x,-y,-z
x,y,-z
-x,y,z
x,-y,z
1/2+x,1/2+y,z
1/2-x,1/2-y,z
1/2+x,1/2-y,-z
1/2-x,1/2+y,-z
1/2-x,1/2-y,-z
1/2+x,1/2+y,-z
1/2-x,1/2+y,z
1/2+x,1/2-y,z
loop_
_atom_site_type_symbol
_atom_site_label
_atom_site_fract_x
_atom_site_fract_y
_atom_site_fract_z
Si Si1 0.198560 0.051501 0.632342
Si Si2 0.195735 0.641589 0.314230
Si Si3 0.312637 0.555342 0.500000
Si Si4 0.197099 0.802557 0.567663
Si Si5 0.198747 0.303012 0.934626
Si Si6 0.199412 0.697312 0.198285
O O1 0.243655 0.090031 0.679731
O O2 0.263769 0.066306 0.565237
O O3 0.000000 0.049930 0.626777
O O4 0.254686 0.000000 0.645548
O O5 0.241690 0.668164 0.375863
O O6 0.261624 0.668127 0.255170
O O7 0.000000 0.640919 0.309761
O O8 0.323766 0.500000 0.500000
O O9 0.500000 0.574099 0.500000
O O10 0.254709 0.817640 0.500000
O O11 0.250000 0.750000 0.575104
O O12 0.000000 0.804685 0.567850
O O13 0.250000 0.250000 0.934752
O O14 0.255609 0.320198 0.868479
O O15 0.000000 0.305526 0.934780
O O16 0.257055 0.322371 0.000000
O O17 0.250000 0.750000 0.204997
O O18 0.000000 0.696142 0.198717
#
# Coordination Sequence:
#
# PCOD9491466 Si02
#       6
#    16  16   8  16  16  16
#     4   9  18  33  51  68  86 110 143 183 227 274
#     4  11  22  32  45  66  93 120 146 179 221 271
#     4   7  12  26  47  65  78  95 124 167 217 263
#     4  10  21  36  51  65  84 113 151 192 227 259
#     4   8  13  23  40  60  83 113 147 178 208 245
#     4   9  18  30  43  63  91 121 150 180 214 252
#
# _framework density 16.770510999999999
#
# number of rings (size 3 to 8) (size 9 to 14) (size 15 to 20)
#    0.000    2.818    0.000    2.727    1.273    4.364 
#    0.000    0.000    0.000    1.636    0.000    0.000 
#    0.000    0.727    0.000    9.091    0.000    1.455 
#
# Total GULP energy -245065.238910 kJ/mol
# GULP energy per Si atom -5569.664521 kJ/mol
# Density = 1.673234 g / cm^3
# Si number density = 16.770511 Si / 1000 Ang^3
#
#
#
# Elastic Constant Matrix: (Units=GPa)
#
#
# Indices 1 2 3 4 5 6 
#
# 1 14.4051 6.9900 12.2205 0.0000 0.0000 0.0000
# 2 6.9900 74.0747 74.3108 0.0000 0.0000 0.0000
# 3 12.2205 74.3108 160.3020 0.0000 0.0000 0.0000
# 4 0.0000 0.0000 0.0000 9.6591 0.0000 0.0000
# 5 0.0000 0.0000 0.0000 0.0000 10.0828 0.0000
# 6 0.0000 0.0000 0.0000 0.0000 0.0000 18.3254
#
#
#
# Elastic Compliance Matrix: (Units=1/GPa)
#
#
# Indices 1 2 3 4 5 6 
#
# 1 0.074465 -0.002490 -0.004523 0.000000 0.000000 0.000000
# 2 -0.002490 0.025319 -0.011547 0.000000 0.000000 0.000000
# 3 -0.004523 -0.011547 0.011936 0.000000 0.000000 0.000000
# 4 0.000000 0.000000 0.000000 0.103529 0.000000 0.000000
# 5 0.000000 0.000000 0.000000 0.000000 0.099178 0.000000
# 6 0.000000 0.000000 0.000000 0.000000 0.000000 0.054569
#
#
# Mechanical properties :
#
#
# Convention : Reuss Voigt Hill
#
# Bulk Modulus (GPa) = 13.40478 48.42492 30.91485
# Shear Modulus (GPa) = 11.60141 17.96417 14.78279
#
# Velocity S-wave (km/s) = 2.63301 3.27643 2.97219
# Velocity P-wave (km/s) = 4.15381 6.57656 5.50024
#
# Compressibility (1/GPa) = 0.07460027
#
# Stress axis : x y z
#
# Youngs Moduli (GPa) = 13.42920 39.49640 83.78105
#
# Poissons Ratio (x) = 0.09834 0.37890
# Poissons Ratio (y) = 0.03344 0.96743
# Poissons Ratio (z) = 0.06073 0.45607
#
# Static dielectric constant tensor:
#      x y z
#    x 1.603090 0.000000 0.000000 
#    y 0.000000 1.548760 0.000000 
#    z 0.000000 0.000000 1.632970 
# 
# From -- ./inp_files/60700.got.cif
#   From: 2010.05.17/outbox.cif.g08.bks.cpg/sg65_31_cif.got.tgz:60700.got - 2010.06.03 17:01:31.
