data_PCOD9491211
_publ_section_title
;
Structure prediction by ZEFSAII (Michael W. Deem and Ramdas Pophale) SiO2 
 PCOD9491211
Probable space group: C M M M
;
_chemical_formula_sum "Si O2"
_cell_formula_units_Z 96
_cell_length_a 25.359025
_cell_length_b 24.516483
_cell_length_c 7.468225
_cell_angle_alpha 90.000000
_cell_angle_beta 90.000000
_cell_angle_gamma 90.000000
_cell_volume 4643.100824
_symmetry_space_group_name_H-M "C M M M"
_symmetry_group_IT_number 65
_symmetry_cell_setting 'orthorhombic'
loop_
_space_group_symop_operation_xyz
x,y,z
-x,-y,z
x,-y,-z
-x,y,-z
-x,-y,-z
x,y,-z
-x,y,z
x,-y,z
1/2+x,1/2+y,z
1/2-x,1/2-y,z
1/2+x,1/2-y,-z
1/2-x,1/2+y,-z
1/2-x,1/2-y,-z
1/2+x,1/2+y,-z
1/2-x,1/2+y,z
1/2+x,1/2-y,z
loop_
_atom_site_type_symbol
_atom_site_label
_atom_site_fract_x
_atom_site_fract_y
_atom_site_fract_z
Si Si1 0.154273 0.141181 0.781264
Si Si2 0.058447 0.340999 0.789341
Si Si3 0.654379 0.232677 0.219410
Si Si4 0.229440 0.361093 0.787794
Si Si5 0.440131 0.436996 0.781650
Si Si6 0.131683 0.561361 0.286425
O O1 0.151628 0.204616 0.727660
O O2 0.212739 0.123125 0.720952
O O3 0.105748 0.103779 0.719882
O O4 0.152151 0.139401 0.000000
O O5 0.102355 0.299527 0.717922
O O6 0.083311 0.400988 0.773601
O O7 0.000000 0.337166 0.712191
O O8 0.054807 0.328709 0.000000
O O9 0.704093 0.195852 0.279642
O O10 0.655597 0.231909 0.000000
O O11 0.185368 0.407092 0.761698
O O12 0.235766 0.353060 0.000000
O O13 0.500000 0.422103 0.726581
O O14 0.430396 0.500000 0.728866
O O15 0.439916 0.436173 0.000000
O O16 0.129396 0.559210 0.500000
O O17 0.130419 0.500000 0.215569
#
# Coordination Sequence:
#
# PCOD9491211 Si02
#       6
#    16  16  16  16  16  16
#     4   9  15  23  41  66  89 119 155 185 220 272
#     4   9  18  32  50  72  96 122 154 193 234 275
#     4   8  14  25  41  63  91 117 142 180 228 270
#     4   9  17  29  46  68  93 119 149 190 234 272
#     4   8  14  23  32  48  82 121 149 177 216 260
#     4  10  21  35  49  66  91 124 159 194 235 282
#
# _framework density 20.675839
#
# number of rings (size 3 to 8) (size 9 to 14) (size 15 to 20)
#    0.000    3.167    0.000    2.500    0.000    5.333 
#    0.000    6.667    0.000    8.000    0.000    0.000 
#    0.000    0.667    0.000    3.667    0.000    3.000 
#
# Total GULP energy -267673.850528 kJ/mol
# GULP energy per Si atom -5576.538553 kJ/mol
# Density = 2.062878 g / cm^3
# Si number density = 20.675839 Si / 1000 Ang^3
#
#
#
# Elastic Constant Matrix: (Units=GPa)
#
#
# Indices 1 2 3 4 5 6 
#
# 1 315.9684 209.8254 -12.2191 0.0000 0.0000 0.0000
# 2 209.8254 231.1388 -24.2959 0.0000 0.0000 0.0000
# 3 -12.2191 -24.2959 59.6289 0.0000 0.0000 0.0000
# 4 0.0000 0.0000 0.0000 27.2496 0.0000 0.0000
# 5 0.0000 0.0000 0.0000 0.0000 -22.2233 0.0000
# 6 0.0000 0.0000 0.0000 0.0000 0.0000 26.1904
#
#
#
# Elastic Compliance Matrix: (Units=1/GPa)
#
#
# Indices 1 2 3 4 5 6 
#
# 1 0.008078 -0.007479 -0.001392 0.000000 0.000000 0.000000
# 2 -0.007479 0.011445 0.003131 0.000000 0.000000 0.000000
# 3 -0.001392 0.003131 0.017761 0.000000 0.000000 0.000000
# 4 0.000000 0.000000 0.000000 0.036698 0.000000 0.000000
# 5 0.000000 0.000000 0.000000 0.000000 -0.044998 0.000000
# 6 0.000000 0.000000 0.000000 0.000000 0.000000 0.038182
#
#
# Mechanical properties :
#
#
# Convention : Reuss Voigt Hill
#
# Bulk Modulus (GPa) = 38.75651 105.92853 72.34252
# Shear Modulus (GPa) = 57.30811 35.13840 46.22325
#
# Velocity S-wave (km/s) = 5.27045 4.12696 4.73336
# Velocity P-wave (km/s) = 7.47143 8.60542 8.05840
#
# Compressibility (1/GPa) = 0.02580211
#
# Stress axis : x y z
#
# Youngs Moduli (GPa) = 123.79595 87.37368 56.30402
#
# Poissons Ratio (x) = 0.65349 0.07838
# Poissons Ratio (y) = 0.92590 -0.17627
# Poissons Ratio (z) = 0.17234 -0.27354
#
# Static dielectric constant tensor:
#      x y z
#    x 1.730720 0.000000 0.000000 
#    y 0.000000 1.708420 0.000000 
#    z 0.000000 0.000000 1.787220 
# 
# From -- ./inp_files/12249.got.cif
#   From: 2010.05.17/outbox.cif.g08.bks.cpg/sg65_7_cif.got.tgz:12249.got - 2010.06.03 17:01:31.
