data_PCOD9491591
_publ_section_title
;
Structure prediction by ZEFSAII (Michael W. Deem and Ramdas Pophale) SiO2 
 PCOD9491591
Probable space group: C M M M
;
_chemical_formula_sum "Si O2"
_cell_formula_units_Z 88
_cell_length_a 8.621651
_cell_length_b 19.006836
_cell_length_c 29.417537
_cell_angle_alpha 90.000000
_cell_angle_beta 90.000000
_cell_angle_gamma 90.000000
_cell_volume 4820.660808
_symmetry_space_group_name_H-M "C M M M"
_symmetry_group_IT_number 65
_symmetry_cell_setting 'orthorhombic'
loop_
_space_group_symop_operation_xyz
x,y,z
-x,-y,z
x,-y,-z
-x,y,-z
-x,-y,-z
x,y,-z
-x,y,z
x,-y,z
1/2+x,1/2+y,z
1/2-x,1/2-y,z
1/2+x,1/2-y,-z
1/2-x,1/2+y,-z
1/2-x,1/2-y,-z
1/2+x,1/2+y,-z
1/2-x,1/2+y,z
1/2+x,1/2-y,z
loop_
_atom_site_type_symbol
_atom_site_label
_atom_site_fract_x
_atom_site_fract_y
_atom_site_fract_z
Si Si1 0.185065 0.329930 0.415393
Si Si2 0.686366 0.417536 0.500000
Si Si3 0.313753 0.329740 0.320571
Si Si4 0.814232 0.327968 0.947968
Si Si5 0.687636 0.419087 0.133859
Si Si6 0.687085 0.329234 0.220526
O O1 0.250000 0.250000 0.420025
O O2 0.248313 0.377666 0.455926
O O3 0.241001 0.359755 0.366548
O O4 0.000000 0.326393 0.416510
O O5 0.729363 0.500000 0.500000
O O6 0.500000 0.412492 0.500000
O O7 0.500000 0.329234 0.325056
O O8 0.250000 0.250000 0.319075
O O9 0.271828 0.358962 0.270691
O O10 0.750000 0.250000 0.938259
O O11 0.751123 0.118606 0.911144
O O12 0.000000 0.326321 0.945489
O O13 0.730709 0.154062 0.000000
O O14 0.500000 0.417177 0.133223
O O15 0.737055 0.500000 0.135808
O O16 0.740153 0.376649 0.178599
O O17 0.500000 0.325379 0.219318
O O18 0.750000 0.250000 0.216012
#
# Coordination Sequence:
#
# PCOD9491591 Si02
#       6
#    16   8  16  16  16  16
#     4  11  21  35  57  83 111 140 176 220 264 312
#     4  11  24  41  58  77 105 141 180 219 264 319
#     4   9  16  29  50  77 106 135 173 218 264 310
#     4  10  21  37  57  80 105 134 172 218 266 317
#     4  10  21  36  53  76 108 144 180 217 260 311
#     4   9  18  32  52  77 104 136 175 219 263 309
#
# _framework density 18.254759
#
# number of rings (size 3 to 8) (size 9 to 14) (size 15 to 20)
#    0.000    2.091    0.000    4.909    0.000    5.455 
#    0.000    2.727    0.000    3.273    0.000    0.000 
#    0.000    0.000    0.000    0.000    0.000    0.000 
#
# Total GULP energy -245526.279691 kJ/mol
# GULP energy per Si atom -5580.142720 kJ/mol
# Density = 1.821321 g / cm^3
# Si number density = 18.254759 Si / 1000 Ang^3
#
#
#
# Elastic Constant Matrix: (Units=GPa)
#
#
# Indices 1 2 3 4 5 6 
#
# 1 62.1133 37.6296 48.9008 0.0000 0.0000 0.0000
# 2 37.6296 104.5197 107.8279 0.0000 0.0000 0.0000
# 3 48.9008 107.8279 191.9895 0.0000 0.0000 0.0000
# 4 0.0000 0.0000 0.0000 -5.4394 0.0000 0.0000
# 5 0.0000 0.0000 0.0000 0.0000 38.3129 0.0000
# 6 0.0000 0.0000 0.0000 0.0000 0.0000 21.9179
#
#
#
# Elastic Compliance Matrix: (Units=1/GPa)
#
#
# Indices 1 2 3 4 5 6 
#
# 1 0.021138 -0.004888 -0.002639 0.000000 0.000000 0.000000
# 2 -0.004888 0.023878 -0.012166 0.000000 0.000000 0.000000
# 3 -0.002639 -0.012166 0.012713 0.000000 0.000000 0.000000
# 4 0.000000 0.000000 0.000000 -0.183842 0.000000 0.000000
# 5 0.000000 0.000000 0.000000 0.000000 0.026101 0.000000
# 6 0.000000 0.000000 0.000000 0.000000 0.000000 0.045625
#
#
# Mechanical properties :
#
#
# Convention : Reuss Voigt Hill
#
# Bulk Modulus (GPa) = 54.51131 83.03768 68.77449
# Shear Modulus (GPa) = -562.66330 21.90922 -270.37704
#
# Velocity S-wave (km/s) = -17.57548 3.46814 -12.18338
# Velocity P-wave (km/s) = 19.54321 7.85011 12.65529
#
# Compressibility (1/GPa) = 0.01834482
#
# Stress axis : x y z
#
# Youngs Moduli (GPa) = 47.30743 41.87903 78.65660
#
# Poissons Ratio (x) = 0.20471 0.20756
# Poissons Ratio (y) = 0.23124 0.95693
# Poissons Ratio (z) = 0.12483 0.50949
#
# Static dielectric constant tensor:
#      x y z
#    x 1.621000 0.000000 0.000000 
#    y 0.000000 1.558110 0.000000 
#    z 0.000000 0.000000 1.658140 
# 
# From -- ./inp_files/76602.got.cif
#   From: 2010.05.17/outbox.cif.g08.bks.cpg/sg65_39_cif.got.tgz:76602.got - 2010.06.03 17:01:31.
