data_PCOD9491089
_publ_section_title
;
Structure prediction by ZEFSAII (Michael W. Deem and Ramdas Pophale) SiO2 
 PCOD9491089
Probable space group: C M M M
;
_chemical_formula_sum "Si O2"
_cell_formula_units_Z 112
_cell_length_a 25.410702
_cell_length_b 17.722333
_cell_length_c 13.898898
_cell_angle_alpha 90.000000
_cell_angle_beta 90.000000
_cell_angle_gamma 90.000000
_cell_volume 6259.186953
_symmetry_space_group_name_H-M "C M M M"
_symmetry_group_IT_number 65
_symmetry_cell_setting 'orthorhombic'
loop_
_space_group_symop_operation_xyz
x,y,z
-x,-y,z
x,-y,-z
-x,y,-z
-x,-y,-z
x,y,-z
-x,y,z
x,-y,z
1/2+x,1/2+y,z
1/2-x,1/2-y,z
1/2+x,1/2-y,-z
1/2-x,1/2+y,-z
1/2-x,1/2-y,-z
1/2+x,1/2+y,-z
1/2-x,1/2+y,z
1/2+x,1/2-y,z
loop_
_atom_site_type_symbol
_atom_site_label
_atom_site_fract_x
_atom_site_fract_y
_atom_site_fract_z
Si Si1 0.840199 0.409547 0.109466
Si Si2 0.339454 0.587243 0.733287
Si Si3 0.441170 0.910830 0.235362
Si Si4 0.440444 0.618088 0.611618
Si Si5 0.267950 0.336954 0.886133
Si Si6 0.696070 0.283145 0.385095
Si Si7 0.411535 0.209773 0.388351
O O1 0.839196 0.500000 0.106807
O O2 0.892749 0.388677 0.166740
O O3 0.783941 0.382375 0.148215
O O4 0.843896 0.380319 0.000000
O O5 0.325944 0.500000 0.747142
O O6 0.399632 0.591912 0.693623
O O7 0.318591 0.635716 0.824855
O O8 0.310057 0.631118 0.647495
O O9 0.500000 0.901955 0.192831
O O10 0.436274 0.856195 0.326419
O O11 0.435316 0.000000 0.259363
O O12 0.424181 0.599271 0.500000
O O13 0.500000 0.590979 0.625317
O O14 0.440263 0.709387 0.616274
O O15 0.250000 0.250000 0.877223
O O16 0.276820 0.352261 0.000000
O O17 0.695147 0.280156 0.500000
O O18 0.750000 0.250000 0.347834
O O19 0.646913 0.232586 0.352169
O O20 0.408922 0.187414 0.500000
#
# Coordination Sequence:
#
# PCOD9491089 Si02
#       7
#    16  16  16  16  16  16  16
#     4   9  19  36  56  77 104 137 172 214 268 324
#     4  11  22  33  54  85 111 140 178 224 276 322
#     4  10  21  33  49  77 107 137 176 222 269 316
#     4   9  19  36  57  81 110 147 188 225 267 323
#     4  10  22  39  59  82 108 141 182 224 267 323
#     4   9  19  35  53  75 106 143 180 219 266 321
#     4   9  18  33  52  73 102 142 183 218 259 315
#
# _framework density 17.893698000000001
#
# number of rings (size 3 to 8) (size 9 to 14) (size 15 to 20)
#    0.000    2.429    0.000    2.571    6.000    3.714 
#    0.000    2.857    0.000    3.000    0.000    1.000 
#    0.000    0.000    0.000    0.000    0.000    0.000 
#
# Total GULP energy -311859.731131 kJ/mol
# GULP energy per Si atom -5568.923770 kJ/mol
# Density = 1.785297 g / cm^3
# Si number density = 17.893698 Si / 1000 Ang^3
#
#
#
# Elastic Constant Matrix: (Units=GPa)
#
#
# Indices 1 2 3 4 5 6 
#
# 1 119.0377 28.6900 50.1586 0.0000 0.0000 0.0000
# 2 28.6900 54.1160 22.2055 0.0000 0.0000 0.0000
# 3 50.1586 22.2055 61.8722 0.0000 0.0000 0.0000
# 4 0.0000 0.0000 0.0000 17.3786 0.0000 0.0000
# 5 0.0000 0.0000 0.0000 0.0000 24.3239 0.0000
# 6 0.0000 0.0000 0.0000 0.0000 0.0000 9.3464
#
#
#
# Elastic Compliance Matrix: (Units=1/GPa)
#
#
# Indices 1 2 3 4 5 6 
#
# 1 0.013175 -0.003052 -0.009586 0.000000 0.000000 0.000000
# 2 -0.003052 0.022377 -0.005557 0.000000 0.000000 0.000000
# 3 -0.009586 -0.005557 0.025928 0.000000 0.000000 0.000000
# 4 0.000000 0.000000 0.000000 0.057542 0.000000 0.000000
# 5 0.000000 0.000000 0.000000 0.000000 0.041112 0.000000
# 6 0.000000 0.000000 0.000000 0.000000 0.000000 0.106993
#
#
# Mechanical properties :
#
#
# Convention : Reuss Voigt Hill
#
# Bulk Modulus (GPa) = 39.85475 48.57045 44.21260
# Shear Modulus (GPa) = 16.03182 19.14122 17.58652
#
# Velocity S-wave (km/s) = 2.99649 3.27420 3.13842
# Velocity P-wave (km/s) = 5.85605 6.44179 6.15589
#
# Compressibility (1/GPa) = 0.02509111
#
# Stress axis : x y z
#
# Youngs Moduli (GPa) = 75.89942 44.68893 38.56876
#
# Poissons Ratio (x) = 0.13638 0.36971
# Poissons Ratio (y) = 0.23162 0.21433
# Poissons Ratio (z) = 0.72755 0.24834
#
# Static dielectric constant tensor:
#      x y z
#    x 1.658540 0.000000 0.000000 
#    y 0.000000 1.610600 0.000000 
#    z 0.000000 0.000000 1.622680 
# 
# From -- ./inp_files/47042.got.cif
#   From: 2010.05.17/outbox.cif.g08.bks.cpg/sg65_24_cif.got.tgz:47042.got - 2010.06.03 17:01:31.
