data_PCOD9491890
_publ_section_title
;
Structure prediction by ZEFSAII (Michael W. Deem and Ramdas Pophale) SiO2 
 PCOD9491890
Probable space group: C M M M
;
_chemical_formula_sum "Si O2"
_cell_formula_units_Z 104
_cell_length_a 14.404602
_cell_length_b 18.176819
_cell_length_c 17.951997
_cell_angle_alpha 90.000000
_cell_angle_beta 90.000000
_cell_angle_gamma 90.000000
_cell_volume 4700.368562
_symmetry_space_group_name_H-M "C M M M"
_symmetry_group_IT_number 65
_symmetry_cell_setting 'orthorhombic'
loop_
_space_group_symop_operation_xyz
x,y,z
-x,-y,z
x,-y,-z
-x,y,-z
-x,-y,-z
x,y,-z
-x,y,z
x,-y,z
1/2+x,1/2+y,z
1/2-x,1/2-y,z
1/2+x,1/2-y,-z
1/2-x,1/2+y,-z
1/2-x,1/2-y,-z
1/2+x,1/2+y,-z
1/2-x,1/2+y,z
1/2+x,1/2-y,z
loop_
_atom_site_type_symbol
_atom_site_label
_atom_site_fract_x
_atom_site_fract_y
_atom_site_fract_z
Si Si1 0.304560 0.584087 0.639335
Si Si2 0.105744 0.411174 0.000000
Si Si3 0.857637 0.728233 0.258501
Si Si4 0.887848 0.000000 0.083596
Si Si5 0.106289 0.885661 0.791744
Si Si6 0.500000 0.584495 0.412121
Si Si7 0.661274 0.196636 0.417382
Si Si8 0.387557 0.915964 0.837392
O O1 0.302823 0.500000 0.615230
O O2 0.322562 0.589643 0.727525
O O3 0.401577 0.618718 0.609962
O O4 0.213138 0.621830 0.608047
O O5 0.148488 0.393517 0.080132
O O6 0.099357 0.500000 0.000000
O O7 0.000000 0.381235 0.000000
O O8 0.750000 0.750000 0.266349
O O9 0.895866 0.797034 0.211245
O O10 0.893740 0.721046 0.343400
O O11 0.867288 0.650146 0.218540
O O12 0.866271 0.927613 0.132810
O O13 0.000000 0.000000 0.076872
O O14 0.847986 0.000000 0.000000
O O15 0.000000 0.909610 0.773425
O O16 0.500000 0.500000 0.382259
O O17 0.500000 0.580899 0.500000
O O18 0.617932 0.192203 0.500000
O O19 0.750000 0.250000 0.424366
O O20 0.500000 0.920049 0.842936
O O21 0.356827 0.000000 0.818994
#
# Coordination Sequence:
#
# PCOD9491890 Si02
#       8
#    16   8  16   8  16   8  16  16
#     4  11  19  31  53  78 104 143 187 232 284 339
#     4   7  12  28  57  88 110 133 177 235 288 336
#     4  11  22  38  55  85 116 153 193 240 295 352
#     4   9  20  38  62  88 116 156 199 229 268 343
#     4  11  20  35  59  83 113 150 193 239 283 340
#     4   9  18  28  44  76 112 132 165 229 292 333
#     4  10  21  37  53  71 106 150 192 232 278 345
#     4   9  18  36  63  88 111 146 194 245 294 349
#
# _framework density 22.125924000000001
#
# number of rings (size 3 to 8) (size 9 to 14) (size 15 to 20)
#    0.000    2.077    4.615    1.846    0.000    1.538 
#    2.769    0.385    0.000    1.385    0.000    1.077 
#    0.000    0.000    0.000    0.000    0.000    0.000 
#
# Total GULP energy -289972.607125 kJ/mol
# GULP energy per Si atom -5576.396291 kJ/mol
# Density = 2.207556 g / cm^3
# Si number density = 22.125924 Si / 1000 Ang^3
#
#
#
# Elastic Constant Matrix: (Units=GPa)
#
#
# Indices 1 2 3 4 5 6 
#
# 1 62.5160 15.8675 12.5497 0.0000 0.0000 0.0000
# 2 15.8675 141.2147 77.8888 0.0000 0.0000 0.0000
# 3 12.5497 77.8888 197.0733 0.0000 0.0000 0.0000
# 4 0.0000 0.0000 0.0000 21.7652 0.0000 0.0000
# 5 0.0000 0.0000 0.0000 0.0000 4.6104 0.0000
# 6 0.0000 0.0000 0.0000 0.0000 0.0000 3.0956
#
#
#
# Elastic Compliance Matrix: (Units=1/GPa)
#
#
# Indices 1 2 3 4 5 6 
#
# 1 0.016491 -0.001629 -0.000406 0.000000 0.000000 0.000000
# 2 -0.001629 0.009216 -0.003539 0.000000 0.000000 0.000000
# 3 -0.000406 -0.003539 0.006499 0.000000 0.000000 0.000000
# 4 0.000000 0.000000 0.000000 0.045945 0.000000 0.000000
# 5 0.000000 0.000000 0.000000 0.000000 0.216902 0.000000
# 6 0.000000 0.000000 0.000000 0.000000 0.000000 0.323039
#
#
# Mechanical properties :
#
#
# Convention : Reuss Voigt Hill
#
# Bulk Modulus (GPa) = 47.48811 68.15735 57.82273
# Shear Modulus (GPa) = 7.85843 25.52744 16.69294
#
# Velocity S-wave (km/s) = 1.88664 3.40035 2.74971
# Velocity P-wave (km/s) = 5.12397 6.80351 6.02257
#
# Compressibility (1/GPa) = 0.02105790
#
# Stress axis : x y z
#
# Youngs Moduli (GPa) = 60.63950 108.50315 153.87523
#
# Poissons Ratio (x) = 0.17673 0.06253
# Poissons Ratio (y) = 0.09877 0.54454
# Poissons Ratio (z) = 0.02464 0.38397
#
# Static dielectric constant tensor:
#      x y z
#    x 1.922300 0.000000 0.000000 
#    y 0.000000 1.833950 0.000000 
#    z 0.000000 0.000000 1.880000 
# 
# From -- ./inp_files/54654.got.cif
#   From: 2010.05.17/outbox.cif.g08.bks.cpg/sg65_28_cif.got.tgz:54654.got - 2010.06.03 17:01:31.
