data_PCOD9491289
_publ_section_title
;
Structure prediction by ZEFSAII (Michael W. Deem and Ramdas Pophale) SiO2 
 PCOD9491289
Probable space group: C M M M
;
_chemical_formula_sum "Si O2"
_cell_formula_units_Z 104
_cell_length_a 18.608373
_cell_length_b 9.504966
_cell_length_c 34.498221
_cell_angle_alpha 90.000000
_cell_angle_beta 90.000000
_cell_angle_gamma 90.000000
_cell_volume 6101.767712
_symmetry_space_group_name_H-M "C M M M"
_symmetry_group_IT_number 65
_symmetry_cell_setting 'orthorhombic'
loop_
_space_group_symop_operation_xyz
x,y,z
-x,-y,z
x,-y,-z
-x,y,-z
-x,-y,-z
x,y,-z
-x,y,z
x,-y,z
1/2+x,1/2+y,z
1/2-x,1/2-y,z
1/2+x,1/2-y,-z
1/2-x,1/2+y,-z
1/2-x,1/2-y,-z
1/2+x,1/2+y,-z
1/2-x,1/2+y,z
1/2+x,1/2-y,z
loop_
_atom_site_type_symbol
_atom_site_label
_atom_site_fract_x
_atom_site_fract_y
_atom_site_fract_z
Si Si1 0.914827 0.333156 0.270297
Si Si2 0.824649 0.668111 0.043338
Si Si3 0.324636 0.831570 0.652858
Si Si4 0.085251 0.333252 0.424054
Si Si5 0.912435 0.161884 0.805792
Si Si6 0.912526 0.838238 0.500000
Si Si7 0.914192 0.665620 0.881053
O O1 0.906675 0.500000 0.262383
O O2 0.870506 0.297616 0.308726
O O3 0.890972 0.244297 0.233028
O O4 0.000000 0.308065 0.276888
O O5 0.812079 0.500000 0.045276
O O6 0.750000 0.750000 0.047287
O O7 0.876511 0.705476 0.078736
O O8 0.853902 0.698317 0.000000
O O9 0.250000 0.750000 0.652773
O O10 0.370717 0.797957 0.614493
O O11 0.312527 0.000000 0.652895
O O12 0.093634 0.500000 0.432085
O O13 0.109347 0.243670 0.461160
O O14 0.000000 0.308630 0.417588
O O15 0.888981 0.242330 0.844626
O O16 0.000000 0.163877 0.806164
O O17 0.889126 0.000000 0.805354
O O18 0.000000 0.837075 0.500000
O O19 0.888735 0.000000 0.500000
O O20 0.900498 0.500000 0.873436
O O21 0.000000 0.682450 0.884899
#
# Coordination Sequence:
#
# PCOD9491289 Si02
#       7
#    16  16  16  16  16   8  16
#     4   9  17  32  54  75  95 124 163 201 236 281
#     4   9  18  32  49  69  94 125 160 197 237 282
#     4  10  21  35  51  73 101 131 162 199 243 288
#     4   9  17  32  54  76  98 128 166 202 237 283
#     4   9  17  29  47  73 101 125 153 194 242 287
#     4   9  17  29  48  77 106 127 155 201 250 287
#     4   9  17  30  49  72  97 125 157 194 237 284
#
# _framework density 17.044242000000001
#
# number of rings (size 3 to 8) (size 9 to 14) (size 15 to 20)
#    0.000    2.846    0.000    1.154    0.000    6.769 
#    0.000    2.692    0.000    4.615    0.000    4.308 
#    0.000    0.000    0.000    0.000    0.000    0.000 
#
# Total GULP energy -289860.774274 kJ/mol
# GULP energy per Si atom -5574.245659 kJ/mol
# Density = 1.700545 g / cm^3
# Si number density = 17.044242 Si / 1000 Ang^3
#
#
#
# Elastic Constant Matrix: (Units=GPa)
#
#
# Indices 1 2 3 4 5 6 
#
# 1 47.2810 47.3628 71.1270 0.0000 0.0000 0.0000
# 2 47.3628 72.2752 102.5399 0.0000 0.0000 0.0000
# 3 71.1270 102.5399 211.9945 0.0000 0.0000 0.0000
# 4 0.0000 0.0000 0.0000 18.6189 0.0000 0.0000
# 5 0.0000 0.0000 0.0000 0.0000 -8.0119 0.0000
# 6 0.0000 0.0000 0.0000 0.0000 0.0000 23.4100
#
#
#
# Elastic Compliance Matrix: (Units=1/GPa)
#
#
# Indices 1 2 3 4 5 6 
#
# 1 0.062456 -0.035691 -0.003691 0.000000 0.000000 0.000000
# 2 -0.035691 0.064492 -0.019220 0.000000 0.000000 0.000000
# 3 -0.003691 -0.019220 0.015252 0.000000 0.000000 0.000000
# 4 0.000000 0.000000 0.000000 0.053709 0.000000 0.000000
# 5 0.000000 0.000000 0.000000 0.000000 -0.124814 0.000000
# 6 0.000000 0.000000 0.000000 0.000000 0.000000 0.042717
#
#
# Mechanical properties :
#
#
# Convention : Reuss Voigt Hill
#
# Bulk Modulus (GPa) = 40.00584 85.95668 62.98126
# Shear Modulus (GPa) = 20.89002 14.17146 17.53074
#
# Velocity S-wave (km/s) = 3.50470 2.88662 3.21057
# Velocity P-wave (km/s) = 6.31664 7.85182 7.12570
#
# Compressibility (1/GPa) = 0.02499635
#
# Stress axis : x y z
#
# Youngs Moduli (GPa) = 16.01128 15.50568 65.56525
#
# Poissons Ratio (x) = 0.55341 0.24203
# Poissons Ratio (y) = 0.57146 1.26014
# Poissons Ratio (z) = 0.05910 0.29801
#
# Static dielectric constant tensor:
#      x y z
#    x 1.548760 0.000000 0.000000 
#    y 0.000000 1.569720 0.000000 
#    z 0.000000 0.000000 1.566240 
# 
# From -- ./inp_files/76931.got.cif
#   From: 2010.05.17/outbox.cif.g08.bks.cpg/sg65_39_cif.got.tgz:76931.got - 2010.06.03 17:01:31.
