data_PCOD9491010
_publ_section_title
;
Structure prediction by ZEFSAII (Michael W. Deem and Ramdas Pophale) SiO2 
 PCOD9491010
Probable space group: C M M M
;
_chemical_formula_sum "Si O2"
_cell_formula_units_Z 64
_cell_length_a 19.216323
_cell_length_b 11.557764
_cell_length_c 15.211019
_cell_angle_alpha 90.000000
_cell_angle_beta 90.000000
_cell_angle_gamma 90.000000
_cell_volume 3378.332733
_symmetry_space_group_name_H-M "C M M M"
_symmetry_group_IT_number 65
_symmetry_cell_setting 'orthorhombic'
loop_
_space_group_symop_operation_xyz
x,y,z
-x,-y,z
x,-y,-z
-x,y,-z
-x,-y,-z
x,y,-z
-x,y,z
x,-y,z
1/2+x,1/2+y,z
1/2-x,1/2-y,z
1/2+x,1/2-y,-z
1/2-x,1/2+y,-z
1/2-x,1/2-y,-z
1/2+x,1/2+y,-z
1/2-x,1/2+y,z
1/2+x,1/2-y,z
loop_
_atom_site_type_symbol
_atom_site_label
_atom_site_fract_x
_atom_site_fract_y
_atom_site_fract_z
Si Si1 0.330231 0.235719 0.643748
Si Si2 0.579632 0.637681 0.500000
Si Si3 0.858583 0.131440 0.184613
Si Si4 0.000000 0.141032 0.898813
Si Si5 0.278511 0.377540 0.000000
Si Si6 0.584437 0.000000 0.606600
O O1 0.250000 0.250000 0.611718
O O2 0.379115 0.316850 0.584431
O O3 0.328643 0.283963 0.742884
O O4 0.369571 0.111574 0.637257
O O5 0.577896 0.500000 0.500000
O O6 0.500000 0.682239 0.500000
O O7 0.933662 0.176272 0.156175
O O8 0.862493 0.000000 0.220949
O O9 0.820570 0.121005 0.091107
O O10 0.000000 0.000000 0.902780
O O11 0.000000 0.180926 0.000000
O O12 0.250000 0.250000 0.000000
O O13 0.236849 0.500000 0.000000
O O14 0.500000 0.000000 0.631325
O O15 0.585106 0.000000 0.500000
#
# Coordination Sequence:
#
# PCOD9491010 Si02
#       6
#    16   8  16   8   8   8
#     4  12  26  42  68  95 131 170 222 270 329 402
#     4  11  25  43  67  97 129 161 209 275 339 391
#     4  10  21  37  62  92 129 161 213 270 328 386
#     4   9  16  32  60  90 117 160 208 260 318 385
#     4  10  20  39  61  89 127 172 213 268 329 400
#     4  11  26  48  70  91 129 181 226 268 338 415
#
# _framework density 18.944257
#
# number of rings (size 3 to 8) (size 9 to 14) (size 15 to 20)
#    0.000    1.375    2.500    2.625    7.000    0.000 
#    2.250    0.000    0.000    0.000    0.000    2.625 
#    0.000    0.000    0.000    0.000    0.000    0.000 
#
# Total GULP energy -178209.329677 kJ/mol
# GULP energy per Si atom -5569.041552 kJ/mol
# Density = 1.890114 g / cm^3
# Si number density = 18.944257 Si / 1000 Ang^3
#
#
#
# Elastic Constant Matrix: (Units=GPa)
#
#
# Indices 1 2 3 4 5 6 
#
# 1 146.1038 61.8317 39.8718 0.0000 0.0000 0.0000
# 2 61.8317 123.6881 37.5601 0.0000 0.0000 0.0000
# 3 39.8718 37.5601 102.2634 0.0000 0.0000 0.0000
# 4 0.0000 0.0000 0.0000 30.0724 0.0000 0.0000
# 5 0.0000 0.0000 0.0000 0.0000 16.6520 0.0000
# 6 0.0000 0.0000 0.0000 0.0000 0.0000 27.0171
#
#
#
# Elastic Compliance Matrix: (Units=1/GPa)
#
#
# Indices 1 2 3 4 5 6 
#
# 1 0.009067 -0.003893 -0.002105 0.000000 0.000000 0.000000
# 2 -0.003893 0.010771 -0.002438 0.000000 0.000000 0.000000
# 3 -0.002105 -0.002438 0.011495 0.000000 0.000000 0.000000
# 4 0.000000 0.000000 0.000000 0.033253 0.000000 0.000000
# 5 0.000000 0.000000 0.000000 0.000000 0.060053 0.000000
# 6 0.000000 0.000000 0.000000 0.000000 0.000000 0.037014
#
#
# Mechanical properties :
#
#
# Convention : Reuss Voigt Hill
#
# Bulk Modulus (GPa) = 69.15665 72.28696 70.72180
# Shear Modulus (GPa) = 27.27093 30.26775 28.76934
#
# Velocity S-wave (km/s) = 3.79824 4.00149 3.90119
# Velocity P-wave (km/s) = 7.47128 7.71944 7.59638
#
# Compressibility (1/GPa) = 0.01445993
#
# Stress axis : x y z
#
# Youngs Moduli (GPa) = 110.29605 92.83791 86.99440
#
# Poissons Ratio (x) = 0.36143 0.18313
# Poissons Ratio (y) = 0.42939 0.21212
# Poissons Ratio (z) = 0.23218 0.22637
#
# Static dielectric constant tensor:
#      x y z
#    x 1.684540 0.000000 0.000000 
#    y 0.000000 2.546640 0.000000 
#    z 0.000000 0.000000 2.241400 
# 
# From -- ./inp_files/37821.got.cif
#   From: 2010.05.17/outbox.cif.g08.bks.cpg/sg65_19_cif.got.tgz:37821.got - 2010.06.03 17:01:31.
