data_PCOD9491227
_publ_section_title
;
Structure prediction by ZEFSAII (Michael W. Deem and Ramdas Pophale) SiO2 
 PCOD9491227
Probable space group: C M M M
;
_chemical_formula_sum "Si O2"
_cell_formula_units_Z 72
_cell_length_a 18.992105
_cell_length_b 9.322856
_cell_length_c 23.893182
_cell_angle_alpha 90.000000
_cell_angle_beta 90.000000
_cell_angle_gamma 90.000000
_cell_volume 4230.542576
_symmetry_space_group_name_H-M "C M M M"
_symmetry_group_IT_number 65
_symmetry_cell_setting 'orthorhombic'
loop_
_space_group_symop_operation_xyz
x,y,z
-x,-y,z
x,-y,-z
-x,y,-z
-x,-y,-z
x,y,-z
-x,y,z
x,-y,z
1/2+x,1/2+y,z
1/2-x,1/2-y,z
1/2+x,1/2-y,-z
1/2-x,1/2+y,-z
1/2-x,1/2-y,-z
1/2+x,1/2+y,-z
1/2-x,1/2+y,z
1/2+x,1/2-y,z
loop_
_atom_site_type_symbol
_atom_site_label
_atom_site_fract_x
_atom_site_fract_y
_atom_site_fract_z
Si Si1 0.084173 0.329185 0.155957
Si Si2 0.175382 0.829774 0.935624
Si Si3 0.082135 0.827982 0.607604
Si Si4 0.675001 0.326623 0.500000
Si Si5 0.914464 0.665465 0.281260
O O1 0.097809 0.500000 0.149560
O O2 0.122722 0.239101 0.108757
O O3 0.107719 0.287361 0.219040
O O4 0.000000 0.309443 0.152322
O O5 0.250000 0.750000 0.929823
O O6 0.183594 0.000000 0.926727
O O7 0.151318 0.808081 0.000000
O O8 0.129975 0.786967 0.555012
O O9 0.107331 0.758697 0.665709
O O10 0.000000 0.786697 0.598189
O O11 0.083754 0.000000 0.612576
O O12 0.683335 0.500000 0.500000
O O13 0.750000 0.250000 0.500000
O O14 0.893228 0.500000 0.289042
O O15 0.000000 0.668335 0.280200
#
# Coordination Sequence:
#
# PCOD9491227 Si02
#       5
#    16  16  16   8  16
#     4   9  18  33  53  77 105 135 165 201 248 298
#     4  10  21  36  53  73  99 132 170 211 252 296
#     4   9  17  31  52  74  95 124 163 202 239 283
#     4  10  21  35  49  69  99 130 160 198 244 290
#     4   8  15  29  49  74 102 128 157 197 242 287
#
# _framework density 17.019093999999999
#
# number of rings (size 3 to 8) (size 9 to 14) (size 15 to 20)
#    0.000    2.889    0.000    2.333    0.000    5.333 
#    0.000    5.556    0.000    6.000    0.000    0.000 
#    0.000    0.000    0.000    0.000    0.000    0.000 
#
# Total GULP energy -200615.868692 kJ/mol
# GULP energy per Si atom -5572.663019 kJ/mol
# Density = 1.698036 g / cm^3
# Si number density = 17.019094 Si / 1000 Ang^3
#
#
#
# Elastic Constant Matrix: (Units=GPa)
#
#
# Indices 1 2 3 4 5 6 
#
# 1 56.4100 45.6581 77.5521 0.0000 0.0000 0.0000
# 2 45.6581 57.6979 88.3462 0.0000 0.0000 0.0000
# 3 77.5521 88.3462 189.7676 0.0000 0.0000 0.0000
# 4 0.0000 0.0000 0.0000 35.8047 0.0000 0.0000
# 5 0.0000 0.0000 0.0000 0.0000 -15.1261 0.0000
# 6 0.0000 0.0000 0.0000 0.0000 0.0000 28.7222
#
#
#
# Elastic Compliance Matrix: (Units=1/GPa)
#
#
# Indices 1 2 3 4 5 6 
#
# 1 0.052062 -0.030020 -0.007300 0.000000 0.000000 0.000000
# 2 -0.030020 0.077666 -0.023889 0.000000 0.000000 0.000000
# 3 -0.007300 -0.023889 0.019375 0.000000 0.000000 0.000000
# 4 0.000000 0.000000 0.000000 0.027929 0.000000 0.000000
# 5 0.000000 0.000000 0.000000 0.000000 -0.066111 0.000000
# 6 0.000000 0.000000 0.000000 0.000000 0.000000 0.034816
#
#
# Mechanical properties :
#
#
# Convention : Reuss Voigt Hill
#
# Bulk Modulus (GPa) = 37.47619 80.77648 59.12634
# Shear Modulus (GPa) = 18.04721 16.03477 17.04099
#
# Velocity S-wave (km/s) = 3.25993 3.07280 3.16774
# Velocity P-wave (km/s) = 6.01975 7.75595 6.94234
#
# Compressibility (1/GPa) = 0.02668361
#
# Stress axis : x y z
#
# Youngs Moduli (GPa) = 19.20787 12.87562 51.61415
#
# Poissons Ratio (x) = 0.38653 0.37680
# Poissons Ratio (y) = 0.57662 1.23302
# Poissons Ratio (z) = 0.14022 0.30759
#
# Static dielectric constant tensor:
#      x y z
#    x 1.555480 0.000000 0.000000 
#    y 0.000000 1.564690 0.000000 
#    z 0.000000 0.000000 1.578060 
# 
# From -- ./inp_files/54100.got.cif
#   From: 2010.05.17/outbox.cif.g08.bks.cpg/sg65_28_cif.got.tgz:54100.got - 2010.06.03 17:01:31.
