data_PCOD9491633
_publ_section_title
;
Structure prediction by ZEFSAII (Michael W. Deem and Ramdas Pophale) SiO2 
 PCOD9491633
Probable space group: C M M M
;
_chemical_formula_sum "Si O2"
_cell_formula_units_Z 88
_cell_length_a 18.712900
_cell_length_b 8.048356
_cell_length_c 29.552154
_cell_angle_alpha 90.000000
_cell_angle_beta 90.000000
_cell_angle_gamma 90.000000
_cell_volume 4450.793203
_symmetry_space_group_name_H-M "C M M M"
_symmetry_group_IT_number 65
_symmetry_cell_setting 'orthorhombic'
loop_
_space_group_symop_operation_xyz
x,y,z
-x,-y,z
x,-y,-z
-x,y,-z
-x,-y,-z
x,y,-z
-x,y,z
x,-y,z
1/2+x,1/2+y,z
1/2-x,1/2-y,z
1/2+x,1/2-y,-z
1/2-x,1/2+y,-z
1/2-x,1/2-y,-z
1/2+x,1/2+y,-z
1/2-x,1/2+y,z
1/2+x,1/2-y,z
loop_
_atom_site_type_symbol
_atom_site_label
_atom_site_fract_x
_atom_site_fract_y
_atom_site_fract_z
Si Si1 0.667591 0.200861 0.185150
Si Si2 0.918535 0.299879 0.273275
Si Si3 0.417664 0.800301 0.902753
Si Si4 0.167955 0.198560 0.362052
Si Si5 0.417771 0.301999 0.000000
Si Si6 0.417219 0.297345 0.449285
O O1 0.750000 0.250000 0.186945
O O2 0.624893 0.260893 0.229413
O O3 0.629081 0.260667 0.139286
O O4 0.664089 0.000000 0.185073
O O5 0.921430 0.500000 0.270069
O O6 0.877326 0.256623 0.319036
O O7 0.000000 0.237353 0.273829
O O8 0.500000 0.738226 0.899703
O O9 0.420593 0.000000 0.900117
O O10 0.386918 0.755202 0.952075
O O11 0.250000 0.250000 0.357997
O O12 0.132603 0.262368 0.408698
O O13 0.164688 0.000000 0.363098
O O14 0.419454 0.500000 0.000000
O O15 0.500000 0.236680 0.000000
O O16 0.396259 0.243403 0.500000
O O17 0.500000 0.249625 0.441589
O O18 0.415655 0.500000 0.449281
#
# Coordination Sequence:
#
# PCOD9491633 Si02
#       6
#    16  16  16  16   8  16
#     4  10  21  36  54  77 105 137 172 211 257 309
#     4  10  21  38  59  81 106 137 174 218 267 317
#     4   9  17  32  54  76  99 132 174 213 250 299
#     4  11  22  35  53  79 110 143 179 218 263 316
#     4   9  17  29  48  77 108 133 163 209 260 303
#     4   8  15  30  52  76 102 135 177 223 267 311
#
# _framework density 19.771754999999999
#
# number of rings (size 3 to 8) (size 9 to 14) (size 15 to 20)
#    0.000    2.455    0.000    3.000    0.000    7.636 
#    0.000    0.455    0.000    4.909    0.000    6.364 
#    0.000    0.000    0.000    0.000    0.000    0.000 
#
# Total GULP energy -245576.766802 kJ/mol
# GULP energy per Si atom -5581.290155 kJ/mol
# Density = 1.972675 g / cm^3
# Si number density = 19.771755 Si / 1000 Ang^3
#
#
#
# Elastic Constant Matrix: (Units=GPa)
#
#
# Indices 1 2 3 4 5 6 
#
# 1 154.3473 8.9056 126.2971 0.0000 0.0000 0.0000
# 2 8.9056 14.5479 13.4314 0.0000 0.0000 0.0000
# 3 126.2971 13.4314 226.1716 0.0000 0.0000 0.0000
# 4 0.0000 0.0000 0.0000 20.2485 0.0000 0.0000
# 5 0.0000 0.0000 0.0000 0.0000 11.0809 0.0000
# 6 0.0000 0.0000 0.0000 0.0000 0.0000 15.9880
#
#
#
# Elastic Compliance Matrix: (Units=1/GPa)
#
#
# Indices 1 2 3 4 5 6 
#
# 1 0.011951 -0.001221 -0.006601 0.000000 0.000000 0.000000
# 2 -0.001221 0.072851 -0.003644 0.000000 0.000000 0.000000
# 3 -0.006601 -0.003644 0.008324 0.000000 0.000000 0.000000
# 4 0.000000 0.000000 0.000000 0.049386 0.000000 0.000000
# 5 0.000000 0.000000 0.000000 0.000000 0.090245 0.000000
# 6 0.000000 0.000000 0.000000 0.000000 0.000000 0.062547
#
#
# Mechanical properties :
#
#
# Convention : Reuss Voigt Hill
#
# Bulk Modulus (GPa) = 14.24663 76.92610 45.58636
# Shear Modulus (GPa) = 14.63556 25.89234 20.26395
#
# Velocity S-wave (km/s) = 2.72366 3.62271 3.20487
# Velocity P-wave (km/s) = 4.13670 7.51600 6.06641
#
# Compressibility (1/GPa) = 0.07019203
#
# Stress axis : x y z
#
# Youngs Moduli (GPa) = 83.67775 13.72673 120.13700
#
# Poissons Ratio (x) = 0.01677 0.79300
# Poissons Ratio (y) = 0.10220 0.43781
# Poissons Ratio (z) = 0.55234 0.05002
#
# Static dielectric constant tensor:
#      x y z
#    x 1.656520 0.000000 0.000000 
#    y 0.000000 1.712500 0.000000 
#    z 0.000000 0.000000 1.700250 
# 
# From -- ./inp_files/77891.got.cif
#   From: 2010.05.17/outbox.cif.g08.bks.cpg/sg65_39_cif.got.tgz:77891.got - 2010.06.03 17:01:31.
