data_PCOD9491176
_publ_section_title
;
Structure prediction by ZEFSAII (Michael W. Deem and Ramdas Pophale) SiO2 
 PCOD9491176
Probable space group: C M M M
;
_chemical_formula_sum "Si O2"
_cell_formula_units_Z 104
_cell_length_a 7.917323
_cell_length_b 19.072143
_cell_length_c 36.401879
_cell_angle_alpha 90.000000
_cell_angle_beta 90.000000
_cell_angle_gamma 90.000000
_cell_volume 5496.695248
_symmetry_space_group_name_H-M "C M M M"
_symmetry_group_IT_number 65
_symmetry_cell_setting 'orthorhombic'
loop_
_space_group_symop_operation_xyz
x,y,z
-x,-y,z
x,-y,-z
-x,y,-z
-x,-y,-z
x,y,-z
-x,y,z
x,-y,z
1/2+x,1/2+y,z
1/2-x,1/2-y,z
1/2+x,1/2-y,-z
1/2-x,1/2+y,-z
1/2-x,1/2-y,-z
1/2+x,1/2+y,-z
1/2-x,1/2+y,z
1/2+x,1/2-y,z
loop_
_atom_site_type_symbol
_atom_site_label
_atom_site_fract_x
_atom_site_fract_y
_atom_site_fract_z
Si Si1 0.796231 0.419665 0.820214
Si Si2 0.500000 0.084976 0.541800
Si Si3 0.796682 0.920202 0.958896
Si Si4 0.799848 0.330643 0.888723
Si Si5 0.202757 0.168723 0.330675
Si Si6 0.800621 0.084123 0.596235
Si Si7 0.296452 0.580566 0.261463
O O1 0.735090 0.500000 0.824184
O O2 0.729400 0.372130 0.853331
O O3 0.749280 0.394796 0.779434
O O4 0.000000 0.421321 0.822039
O O5 0.500000 0.111241 0.500000
O O6 0.669653 0.104138 0.564151
O O7 0.500000 0.000000 0.540339
O O8 0.747398 0.868888 0.926446
O O9 0.000000 0.922094 0.959963
O O10 0.737378 0.000000 0.951543
O O11 0.738037 0.899948 0.000000
O O12 0.750000 0.250000 0.888857
O O13 0.000000 0.333963 0.885716
O O14 0.250000 0.250000 0.332417
O O15 0.251365 0.125697 0.367080
O O16 0.268070 0.130080 0.294014
O O17 0.000000 0.164918 0.329315
O O18 0.000000 0.098333 0.588195
O O19 0.787053 0.000000 0.602427
O O20 0.500000 0.578548 0.263726
O O21 0.235355 0.500000 0.265655
#
# Coordination Sequence:
#
# PCOD9491176 Si02
#       7
#    16   8  16  16  16  16  16
#     4   9  19  36  55  76 102 134 174 220 266 313
#     4   9  18  32  54  86 114 138 179 231 279 331
#     4   9  19  37  60  84 108 134 169 216 266 320
#     4  11  23  37  54  77 108 144 180 219 265 316
#     4  10  21  34  51  77 106 142 178 220 269 319
#     4   9  18  34  55  79 109 145 182 226 277 326
#     4   9  18  34  55  77 103 136 177 221 265 318
#
# _framework density 18.920461
#
# number of rings (size 3 to 8) (size 9 to 14) (size 15 to 20)
#    0.000    2.538    0.000    1.846    1.077    6.154 
#    0.000    6.923    0.000    0.462    0.000    0.000 
#    0.000    0.000    0.000    0.000    0.000    0.000 
#
# Total GULP energy -290072.434419 kJ/mol
# GULP energy per Si atom -5578.316047 kJ/mol
# Density = 1.887740 g / cm^3
# Si number density = 18.920461 Si / 1000 Ang^3
#
#
#
# Elastic Constant Matrix: (Units=GPa)
#
#
# Indices 1 2 3 4 5 6 
#
# 1 41.7735 26.4587 46.5286 0.0000 0.0000 0.0000
# 2 26.4587 93.0806 107.6649 0.0000 0.0000 0.0000
# 3 46.5286 107.6649 210.8808 0.0000 0.0000 0.0000
# 4 0.0000 0.0000 0.0000 -4.0013 0.0000 0.0000
# 5 0.0000 0.0000 0.0000 0.0000 22.3651 0.0000
# 6 0.0000 0.0000 0.0000 0.0000 0.0000 8.1154
#
#
#
# Elastic Compliance Matrix: (Units=1/GPa)
#
#
# Indices 1 2 3 4 5 6 
#
# 1 0.031933 -0.002265 -0.005889 0.000000 0.000000 0.000000
# 2 -0.002265 0.026399 -0.012978 0.000000 0.000000 0.000000
# 3 -0.005889 -0.012978 0.012667 0.000000 0.000000 0.000000
# 4 0.000000 0.000000 0.000000 -0.249918 0.000000 0.000000
# 5 0.000000 0.000000 0.000000 0.000000 0.044713 0.000000
# 6 0.000000 0.000000 0.000000 0.000000 0.000000 0.123223
#
#
# Mechanical properties :
#
#
# Convention : Reuss Voigt Hill
#
# Bulk Modulus (GPa) = 34.80181 78.55990 56.68086
# Shear Modulus (GPa) = 122.37207 16.30135 69.33671
#
# Velocity S-wave (km/s) = 8.05093 2.93844 6.06020
# Velocity P-wave (km/s) = 10.23997 7.28861 8.88766
#
# Compressibility (1/GPa) = 0.02873413
#
# Stress axis : x y z
#
# Youngs Moduli (GPa) = 31.31571 37.88049 78.94326
#
# Poissons Ratio (x) = 0.08581 0.46491
# Poissons Ratio (y) = 0.07094 1.02453
# Poissons Ratio (z) = 0.18442 0.49162
#
# Static dielectric constant tensor:
#      x y z
#    x 1.677670 0.000000 0.000000 
#    y 0.000000 1.620300 0.000000 
#    z 0.000000 0.000000 1.658330 
# 
# From -- ./inp_files/76908.got.cif
#   From: 2010.05.17/outbox.cif.g08.bks.cpg/sg65_39_cif.got.tgz:76908.got - 2010.06.03 17:01:31.
