data_PCOD9491249
_publ_section_title
;
Structure prediction by ZEFSAII (Michael W. Deem and Ramdas Pophale) SiO2 
 PCOD9491249
Probable space group: C M M M
;
_chemical_formula_sum "Si O2"
_cell_formula_units_Z 104
_cell_length_a 8.657544
_cell_length_b 30.089484
_cell_length_c 20.490766
_cell_angle_alpha 90.000000
_cell_angle_beta 90.000000
_cell_angle_gamma 90.000000
_cell_volume 5337.865683
_symmetry_space_group_name_H-M "C M M M"
_symmetry_group_IT_number 65
_symmetry_cell_setting 'orthorhombic'
loop_
_space_group_symop_operation_xyz
x,y,z
-x,-y,z
x,-y,-z
-x,y,-z
-x,-y,-z
x,y,-z
-x,y,z
x,-y,z
1/2+x,1/2+y,z
1/2-x,1/2-y,z
1/2+x,1/2-y,-z
1/2-x,1/2+y,-z
1/2-x,1/2-y,-z
1/2+x,1/2+y,-z
1/2-x,1/2+y,z
1/2+x,1/2-y,z
loop_
_atom_site_type_symbol
_atom_site_label
_atom_site_fract_x
_atom_site_fract_y
_atom_site_fract_z
Si Si1 0.186637 0.948942 0.339352
Si Si2 0.685704 0.202771 0.265468
Si Si3 0.686363 0.107721 0.070772
Si Si4 0.814506 0.948889 0.810809
Si Si5 0.185793 0.296795 0.114646
Si Si6 0.684628 0.699834 0.500000
Si Si7 0.814591 0.640790 0.382320
O O1 0.235377 0.940210 0.263891
O O2 0.255878 0.909792 0.382895
O O3 0.000000 0.946890 0.341806
O O4 0.230702 0.000000 0.355545
O O5 0.500000 0.204876 0.265582
O O6 0.750000 0.250000 0.289497
O O7 0.736365 0.197270 0.190432
O O8 0.732368 0.163258 0.313301
O O9 0.500000 0.106362 0.072570
O O10 0.746333 0.082131 0.133734
O O11 0.733752 0.159248 0.076744
O O12 0.737203 0.089789 0.000000
O O13 0.000000 0.945263 0.811647
O O14 0.773286 0.000000 0.825361
O O15 0.250000 0.250000 0.090495
O O16 0.000000 0.294508 0.113601
O O17 0.500000 0.702004 0.500000
O O18 0.750000 0.750000 0.500000
O O19 0.743838 0.671990 0.437837
O O20 0.000000 0.641526 0.387466
#
# Coordination Sequence:
#
# PCOD9491249 Si02
#       7
#    16  16  16  16  16   8  16
#     4   9  19  37  60  86 115 146 182 227 282 338
#     4   9  18  31  50  76 104 134 171 219 272 325
#     4  10  21  35  50  71 102 140 181 226 278 336
#     4   9  19  36  57  81 109 141 179 225 276 331
#     4   9  18  33  50  71 100 133 172 219 271 325
#     4  12  26  44  63  86 121 162 200 235 273 321
#     4  11  22  37  59  87 117 151 191 231 275 328
#
# _framework density 19.483443999999999
#
# number of rings (size 3 to 8) (size 9 to 14) (size 15 to 20)
#    0.000    2.308    0.000    3.462    0.000    6.462 
#    0.000    6.538    0.000    2.308    0.000    0.000 
#    0.000    0.000    0.000    0.000    0.000    0.000 
#
# Total GULP energy -290244.216579 kJ/mol
# GULP energy per Si atom -5581.619550 kJ/mol
# Density = 1.943910 g / cm^3
# Si number density = 19.483444 Si / 1000 Ang^3
#
#
#
# Elastic Constant Matrix: (Units=GPa)
#
#
# Indices 1 2 3 4 5 6 
#
# 1 29.0974 38.2288 25.0830 0.0000 0.0000 0.0000
# 2 38.2288 145.7006 61.1692 0.0000 0.0000 0.0000
# 3 25.0830 61.1692 59.2064 0.0000 0.0000 0.0000
# 4 0.0000 0.0000 0.0000 16.3730 0.0000 0.0000
# 5 0.0000 0.0000 0.0000 0.0000 16.6941 0.0000
# 6 0.0000 0.0000 0.0000 0.0000 0.0000 34.2763
#
#
#
# Elastic Compliance Matrix: (Units=1/GPa)
#
#
# Indices 1 2 3 4 5 6 
#
# 1 0.060122 -0.008974 -0.016200 0.000000 0.000000 0.000000
# 2 -0.008974 0.013460 -0.010105 0.000000 0.000000 0.000000
# 3 -0.016200 -0.010105 0.034193 0.000000 0.000000 0.000000
# 4 0.000000 0.000000 0.000000 0.061076 0.000000 0.000000
# 5 0.000000 0.000000 0.000000 0.000000 0.059901 0.000000
# 6 0.000000 0.000000 0.000000 0.000000 0.000000 0.029175
#
#
# Mechanical properties :
#
#
# Convention : Reuss Voigt Hill
#
# Bulk Modulus (GPa) = 26.86818 53.66293 40.26556
# Shear Modulus (GPa) = 14.66752 20.77023 17.71888
#
# Velocity S-wave (km/s) = 2.74673 3.26858 3.01895
# Velocity P-wave (km/s) = 4.88667 6.46896 5.73267
#
# Compressibility (1/GPa) = 0.03721874
#
# Stress axis : x y z
#
# Youngs Moduli (GPa) = 16.63286 74.29401 29.24602
#
# Poissons Ratio (x) = 0.66668 0.47378
# Poissons Ratio (y) = 0.14926 0.29552
# Poissons Ratio (z) = 0.26945 0.75071
#
# Static dielectric constant tensor:
#      x y z
#    x 1.660880 0.000000 0.000000 
#    y 0.000000 1.674050 0.000000 
#    z 0.000000 0.000000 1.701220 
# 
# From -- ./inp_files/60366.got.cif
#   From: 2010.05.17/outbox.cif.g08.bks.cpg/sg65_31_cif.got.tgz:60366.got - 2010.06.03 17:01:31.
