data_PCOD9491085
_publ_section_title
;
Structure prediction by ZEFSAII (Michael W. Deem and Ramdas Pophale) SiO2 
 PCOD9491085
Probable space group: C M M M
;
_chemical_formula_sum "Si O2"
_cell_formula_units_Z 58
_cell_length_a 13.901926
_cell_length_b 33.206105
_cell_length_c 7.403889
_cell_angle_alpha 90.000000
_cell_angle_beta 90.000000
_cell_angle_gamma 90.000000
_cell_volume 3417.848501
_symmetry_space_group_name_H-M "C M M M"
_symmetry_group_IT_number 65
_symmetry_cell_setting 'orthorhombic'
loop_
_space_group_symop_operation_xyz
x,y,z
-x,-y,z
x,-y,-z
-x,y,-z
-x,-y,-z
x,y,-z
-x,y,z
x,-y,z
1/2+x,1/2+y,z
1/2-x,1/2-y,z
1/2+x,1/2-y,-z
1/2-x,1/2+y,-z
1/2-x,1/2-y,-z
1/2+x,1/2+y,-z
1/2-x,1/2+y,z
1/2+x,1/2-y,z
loop_
_atom_site_type_symbol
_atom_site_label
_atom_site_fract_x
_atom_site_fract_y
_atom_site_fract_z
Si Si1 0.500000 0.000000 0.500000
Si Si2 0.271505 0.296942 0.500000
Si Si3 0.612033 0.654295 0.784851
Si Si4 0.233094 0.411462 0.787100
Si Si5 0.613413 0.864727 0.500000
Si Si6 0.176690 0.500000 0.214937
O O1 0.584125 0.000000 0.342013
O O2 0.250000 0.250000 0.500000
O O3 0.333512 0.311394 0.672435
O O4 0.173840 0.323394 0.500000
O O5 0.500000 0.651907 0.736583
O O6 0.669802 0.613071 0.743297
O O7 0.618996 0.661294 0.000000
O O8 0.149178 0.390689 0.671302
O O9 0.234699 0.458850 0.749154
O O10 0.214773 0.406138 0.000000
O O11 0.500000 0.858942 0.500000
O O12 0.151850 0.500000 0.000000
#
# Coordination Sequence:
#
# PCOD9491085 Si02
#       6
#     2   8  16  16   8   8
#     4  12  22  32  44  66  98 136 182 220 252 298
#     4  10  21  36  55  78 106 132 164 214 258 307
#     4   9  18  35  58  80 103 136 172 208 259 315
#     4   9  19  34  50  73 105 135 171 217 254 296
#     4  10  21  34  50  72  98 136 173 204 256 308
#     4  10  21  33  48  72 103 138 178 220 258 296
#
# _framework density 16.969739000000001
#
# number of rings (size 3 to 8) (size 9 to 14) (size 15 to 20)
#    0.000    2.483    0.000    1.448    3.862    2.207 
#    0.000    0.690    0.000    4.138    0.000    6.759 
#    0.000    0.000    0.000    0.000    0.000    0.276 
#
# Total GULP energy -161438.525751 kJ/mol
# GULP energy per Si atom -5566.845716 kJ/mol
# Density = 1.693112 g / cm^3
# Si number density = 16.969739 Si / 1000 Ang^3
#
#
#
# Elastic Constant Matrix: (Units=GPa)
#
#
# Indices 1 2 3 4 5 6 
#
# 1 157.5894 84.8901 55.6357 0.0000 0.0000 0.0000
# 2 84.8901 172.2549 58.0153 0.0000 0.0000 0.0000
# 3 55.6357 58.0153 70.3034 0.0000 0.0000 0.0000
# 4 0.0000 0.0000 0.0000 18.2658 0.0000 0.0000
# 5 0.0000 0.0000 0.0000 0.0000 22.7499 0.0000
# 6 0.0000 0.0000 0.0000 0.0000 0.0000 -0.2949
#
#
#
# Elastic Compliance Matrix: (Units=1/GPa)
#
#
# Indices 1 2 3 4 5 6 
#
# 1 0.009867 -0.003092 -0.005257 0.000000 0.000000 0.000000
# 2 -0.003092 0.009009 -0.004987 0.000000 0.000000 0.000000
# 3 -0.005257 -0.004987 0.022500 0.000000 0.000000 0.000000
# 4 0.000000 0.000000 0.000000 0.054747 0.000000 0.000000
# 5 0.000000 0.000000 0.000000 0.000000 0.043956 0.000000
# 6 0.000000 0.000000 0.000000 0.000000 0.000000 -3.390931
#
#
# Mechanical properties :
#
#
# Convention : Reuss Voigt Hill
#
# Bulk Modulus (GPa) = 68.01210 88.58111 78.29661
# Shear Modulus (GPa) = -1.55314 21.58462 10.01574
#
# Velocity S-wave (km/s) = -0.95772 3.57031 2.43206
# Velocity P-wave (km/s) = 6.24039 8.32520 7.35702
#
# Compressibility (1/GPa) = 0.01470327
#
# Stress axis : x y z
#
# Youngs Moduli (GPa) = 101.34588 111.00081 44.44514
#
# Poissons Ratio (x) = 0.34324 0.23364
# Poissons Ratio (y) = 0.31338 0.22166
# Poissons Ratio (z) = 0.53276 0.55359
#
# Static dielectric constant tensor:
#      x y z
#    x 1.541940 0.000000 0.000000 
#    y 0.000000 1.567340 0.000000 
#    z 0.000000 0.000000 1.602710 
# 
# From -- ./inp_files/4554.got.cif
#   From: 2010.05.17/outbox.cif.g08.bks.cpg/sg65_3_cif.got.tgz:4554.got - 2010.06.03 17:01:31.
