data_PCOD9491476
_publ_section_title
;
Structure prediction by ZEFSAII (Michael W. Deem and Ramdas Pophale) SiO2 
 PCOD9491476
Probable space group: C M M M
;
_chemical_formula_sum "Si O2"
_cell_formula_units_Z 72
_cell_length_a 8.491408
_cell_length_b 29.876547
_cell_length_c 15.919679
_cell_angle_alpha 90.000000
_cell_angle_beta 90.000000
_cell_angle_gamma 90.000000
_cell_volume 4038.726252
_symmetry_space_group_name_H-M "C M M M"
_symmetry_group_IT_number 65
_symmetry_cell_setting 'orthorhombic'
loop_
_space_group_symop_operation_xyz
x,y,z
-x,-y,z
x,-y,-z
-x,y,-z
-x,-y,-z
x,y,-z
-x,y,z
x,-y,z
1/2+x,1/2+y,z
1/2-x,1/2-y,z
1/2+x,1/2-y,-z
1/2-x,1/2+y,-z
1/2-x,1/2-y,-z
1/2+x,1/2+y,-z
1/2-x,1/2+y,z
1/2+x,1/2-y,z
loop_
_atom_site_type_symbol
_atom_site_label
_atom_site_fract_x
_atom_site_fract_y
_atom_site_fract_z
Si Si1 0.689159 0.699136 0.595011
Si Si2 0.688438 0.142401 0.752396
Si Si3 0.321652 0.945709 0.500000
Si Si4 0.811689 0.200357 0.904553
Si Si5 0.692931 0.050864 0.316769
O O1 0.735650 0.684551 0.500000
O O2 0.500000 0.699342 0.599469
O O3 0.750000 0.750000 0.605945
O O4 0.755239 0.668482 0.669092
O O5 0.500000 0.144064 0.753842
O O6 0.752572 0.166285 0.834876
O O7 0.738320 0.090473 0.745174
O O8 0.500000 0.927209 0.500000
O O9 0.248127 0.935304 0.410141
O O10 0.333457 0.000000 0.500000
O O11 0.750000 0.250000 0.884189
O O12 0.000000 0.201355 0.903422
O O13 0.759133 0.189645 0.000000
O O14 0.500000 0.049873 0.321643
O O15 0.742780 0.000000 0.297650
#
# Coordination Sequence:
#
# PCOD9491476 Si02
#       5
#    16  16   8  16  16
#     4  10  21  36  51  69 100 140 178 214 251 300
#     4  11  21  31  52  81 107 135 169 214 261 311
#     4   7  10  20  38  60  90 127 166 207 246 283
#     4  10  21  38  59  80 104 133 167 210 259 313
#     4   8  15  27  44  70 103 137 173 214 256 296
#
# _framework density 17.827404000000001
#
# number of rings (size 3 to 8) (size 9 to 14) (size 15 to 20)
#    0.000    2.556    0.000    4.000    1.556    2.667 
#    0.000    0.000    0.000    3.333    0.000    6.222 
#    0.000    0.000    0.000    0.000    0.000    0.000 
#
# Total GULP energy -200758.619423 kJ/mol
# GULP energy per Si atom -5576.628317 kJ/mol
# Density = 1.778683 g / cm^3
# Si number density = 17.827404 Si / 1000 Ang^3
#
#
#
# Elastic Constant Matrix: (Units=GPa)
#
#
# Indices 1 2 3 4 5 6 
#
# 1 34.3456 25.0536 27.0551 0.0000 0.0000 0.0000
# 2 25.0536 132.4358 101.7751 0.0000 0.0000 0.0000
# 3 27.0551 101.7751 118.0998 0.0000 0.0000 0.0000
# 4 0.0000 0.0000 0.0000 25.8149 0.0000 0.0000
# 5 0.0000 0.0000 0.0000 0.0000 6.2776 0.0000
# 6 0.0000 0.0000 0.0000 0.0000 0.0000 13.5342
#
#
#
# Elastic Compliance Matrix: (Units=1/GPa)
#
#
# Indices 1 2 3 4 5 6 
#
# 1 0.035612 -0.001384 -0.006966 0.000000 0.000000 0.000000
# 2 -0.001384 0.022411 -0.018996 0.000000 0.000000 0.000000
# 3 -0.006966 -0.018996 0.026433 0.000000 0.000000 0.000000
# 4 0.000000 0.000000 0.000000 0.038737 0.000000 0.000000
# 5 0.000000 0.000000 0.000000 0.000000 0.159297 0.000000
# 6 0.000000 0.000000 0.000000 0.000000 0.000000 0.073887
#
#
# Mechanical properties :
#
#
# Convention : Reuss Voigt Hill
#
# Bulk Modulus (GPa) = 33.59606 65.84987 49.72296
# Shear Modulus (GPa) = 11.87676 17.85850 14.86763
#
# Velocity S-wave (km/s) = 2.58390 3.16847 2.89100
# Velocity P-wave (km/s) = 5.27145 7.09952 6.25265
#
# Compressibility (1/GPa) = 0.02976540
#
# Stress axis : x y z
#
# Youngs Moduli (GPa) = 28.08005 44.62163 37.83119
#
# Poissons Ratio (x) = 0.06176 0.26352
# Poissons Ratio (y) = 0.03886 0.71863
# Poissons Ratio (z) = 0.19560 0.84762
#
# Static dielectric constant tensor:
#      x y z
#    x 1.622740 0.000000 0.000000 
#    y 0.000000 1.611000 0.000000 
#    z 0.000000 0.000000 1.615110 
# 
# From -- ./inp_files/36616.got.cif
#   From: 2010.05.17/outbox.cif.g08.bks.cpg/sg65_19_cif.got.tgz:36616.got - 2010.06.03 17:01:31.
