data_PCOD9491195
_publ_section_title
;
Structure prediction by ZEFSAII (Michael W. Deem and Ramdas Pophale) SiO2 
 PCOD9491195
Probable space group: C M M M
;
_chemical_formula_sum "Si O2"
_cell_formula_units_Z 60
_cell_length_a 18.846810
_cell_length_b 21.311850
_cell_length_c 8.139190
_cell_angle_alpha 90.000000
_cell_angle_beta 90.000000
_cell_angle_gamma 90.000000
_cell_volume 3269.190211
_symmetry_space_group_name_H-M "C M M M"
_symmetry_group_IT_number 65
_symmetry_cell_setting 'orthorhombic'
loop_
_space_group_symop_operation_xyz
x,y,z
-x,-y,z
x,-y,-z
-x,y,-z
-x,-y,-z
x,y,-z
-x,y,z
x,-y,z
1/2+x,1/2+y,z
1/2-x,1/2-y,z
1/2+x,1/2-y,-z
1/2-x,1/2+y,-z
1/2-x,1/2-y,-z
1/2+x,1/2+y,-z
1/2-x,1/2+y,z
1/2+x,1/2-y,z
loop_
_atom_site_type_symbol
_atom_site_label
_atom_site_fract_x
_atom_site_fract_y
_atom_site_fract_z
Si Si1 0.874476 0.646073 0.000000
Si Si2 0.000000 0.746334 0.000000
Si Si3 0.085225 0.428534 0.677072
Si Si4 0.000000 0.836637 0.687131
Si Si5 0.764307 0.926179 0.000000
Si Si6 0.134455 0.072056 0.685260
O O1 0.895171 0.610466 0.833804
O O2 0.926286 0.706371 0.000000
O O3 0.790073 0.632520 0.000000
O O4 0.000000 0.786957 0.833601
O O5 0.109842 0.403451 0.500000
O O6 0.111361 0.500000 0.692766
O O7 0.000000 0.431106 0.672708
O O8 0.930781 0.880514 0.702954
O O9 0.000000 0.810012 0.500000
O O10 0.810852 0.920498 0.165578
O O11 0.736246 0.000000 0.000000
O O12 0.165031 0.080551 0.500000
O O13 0.108207 0.000000 0.693714
#
# Coordination Sequence:
#
# PCOD9491195 Si02
#       6
#     8   4  16   8   8  16
#     4  12  22  36  51  73 113 162 198 232 273 318
#     4  12  26  38  54  78 110 158 212 248 260 300
#     4   9  17  30  50  73  95 128 184 249 298 327
#     4  10  21  40  64  87 112 141 182 238 290 338
#     4  10  21  34  54  87 121 149 180 225 282 345
#     4   9  18  36  64  94 117 137 168 222 298 368
#
# _framework density 18.353169999999999
#
# number of rings (size 3 to 8) (size 9 to 14) (size 15 to 20)
#    0.000    2.133    1.333    3.200    0.000    4.800 
#    0.000    8.000    0.000    3.200    0.000    0.000 
#    0.000    0.000    0.000    0.000    0.000    0.000 
#
# Total GULP energy -167030.900273 kJ/mol
# GULP energy per Si atom -5567.696676 kJ/mol
# Density = 1.831140 g / cm^3
# Si number density = 18.353170 Si / 1000 Ang^3
#
#
#
# Elastic Constant Matrix: (Units=GPa)
#
#
# Indices 1 2 3 4 5 6 
#
# 1 63.3787 38.7261 54.0902 0.0000 0.0000 0.0000
# 2 38.7261 72.9174 80.3594 0.0000 0.0000 0.0000
# 3 54.0902 80.3594 197.9896 0.0000 0.0000 0.0000
# 4 0.0000 0.0000 0.0000 41.9034 0.0000 0.0000
# 5 0.0000 0.0000 0.0000 0.0000 31.5495 0.0000
# 6 0.0000 0.0000 0.0000 0.0000 0.0000 -21.6867
#
#
#
# Elastic Compliance Matrix: (Units=1/GPa)
#
#
# Indices 1 2 3 4 5 6 
#
# 1 0.024026 -0.009999 -0.002506 0.000000 0.000000 0.000000
# 2 -0.009999 0.028974 -0.009028 0.000000 0.000000 0.000000
# 3 -0.002506 -0.009028 0.009400 0.000000 0.000000 0.000000
# 4 0.000000 0.000000 0.000000 0.023864 0.000000 0.000000
# 5 0.000000 0.000000 0.000000 0.000000 0.031696 0.000000
# 6 0.000000 0.000000 0.000000 0.000000 0.000000 -0.046111
#
#
# Mechanical properties :
#
#
# Convention : Reuss Voigt Hill
#
# Bulk Modulus (GPa) = 51.72093 75.62633 63.67363
# Shear Modulus (GPa) = 41.19980 21.09391 31.14686
#
# Velocity S-wave (km/s) = 4.74311 3.39386 4.12404
# Velocity P-wave (km/s) = 7.63140 7.52684 7.57930
#
# Compressibility (1/GPa) = 0.01933453
#
# Stress axis : x y z
#
# Youngs Moduli (GPa) = 41.62137 34.51338 106.38675
#
# Poissons Ratio (x) = 0.34510 0.26656
# Poissons Ratio (y) = 0.41617 0.96049
# Poissons Ratio (z) = 0.10428 0.31160
#
# Static dielectric constant tensor:
#      x y z
#    x 1.671430 0.000000 0.000000 
#    y 0.000000 1.623590 0.000000 
#    z 0.000000 0.000000 1.677830 
# 
# From -- ./inp_files/8889.got.cif
#   From: 2010.05.17/outbox.cif.g08.bks.cpg/sg65_5_cif.got.tgz:8889.got - 2010.06.03 17:01:31.
