data_PCOD9491407
_publ_section_title
;
Structure prediction by ZEFSAII (Michael W. Deem and Ramdas Pophale) SiO2 
 PCOD9491407
Probable space group: C M M M
;
_chemical_formula_sum "Si O2"
_cell_formula_units_Z 96
_cell_length_a 15.254923
_cell_length_b 15.214476
_cell_length_c 20.110277
_cell_angle_alpha 90.000000
_cell_angle_beta 90.000000
_cell_angle_gamma 90.000000
_cell_volume 4667.508010
_symmetry_space_group_name_H-M "C M M M"
_symmetry_group_IT_number 65
_symmetry_cell_setting 'orthorhombic'
loop_
_space_group_symop_operation_xyz
x,y,z
-x,-y,z
x,-y,-z
-x,y,-z
-x,-y,-z
x,y,-z
-x,y,z
x,-y,z
1/2+x,1/2+y,z
1/2-x,1/2-y,z
1/2+x,1/2-y,-z
1/2-x,1/2+y,-z
1/2-x,1/2-y,-z
1/2+x,1/2+y,-z
1/2-x,1/2+y,z
1/2+x,1/2-y,z
loop_
_atom_site_type_symbol
_atom_site_label
_atom_site_fract_x
_atom_site_fract_y
_atom_site_fract_z
Si Si1 0.786029 0.397817 0.422995
Si Si2 0.896204 0.907417 0.923206
Si Si3 0.894132 0.400514 0.188099
Si Si4 0.100442 0.098810 0.641283
Si Si5 0.149778 0.724422 0.074287
Si Si6 0.603966 0.790189 0.315963
O O1 0.803919 0.378498 0.500000
O O2 0.811719 0.500000 0.409272
O O3 0.681287 0.393490 0.409728
O O4 0.838633 0.332168 0.375116
O O5 0.884987 0.812899 0.890504
O O6 0.000000 0.915507 0.928165
O O7 0.861789 0.000000 0.894583
O O8 0.862199 0.901119 0.000000
O O9 0.863972 0.500000 0.198648
O O10 0.862704 0.359980 0.119007
O O11 0.867073 0.337926 0.248579
O O12 0.000000 0.400354 0.186522
O O13 0.112088 0.184574 0.687161
O O14 0.000000 0.104859 0.614286
O O15 0.107503 0.000000 0.671234
O O16 0.250000 0.750000 0.067442
O O17 0.111185 0.713355 0.000000
O O18 0.500000 0.809252 0.326819
#
# Coordination Sequence:
#
# PCOD9491407 Si02
#       6
#    16  16  16  16  16  16
#     4  10  21  36  57  87 119 152 192 237 286 341
#     4   8  14  27  48  71  97 132 169 204 248 306
#     4  10  22  40  60  81 108 147 193 235 278 333
#     4   9  19  36  57  82 114 152 193 238 287 340
#     4  10  21  35  53  81 113 141 174 223 280 334
#     4  10  21  38  59  82 113 152 193 241 293 344
#
# _framework density 20.567720000000001
#
# number of rings (size 3 to 8) (size 9 to 14) (size 15 to 20)
#    0.000    2.500    0.000    2.000    0.000    6.333 
#    0.000    7.500    0.000    3.000    0.000    0.000 
#    0.000    0.000    0.000    0.000    0.000    0.000 
#
# Total GULP energy -267311.692939 kJ/mol
# GULP energy per Si atom -5568.993603 kJ/mol
# Density = 2.052091 g / cm^3
# Si number density = 20.567720 Si / 1000 Ang^3
#
#
#
# Elastic Constant Matrix: (Units=GPa)
#
#
# Indices 1 2 3 4 5 6 
#
# 1 47.3543 33.0575 15.6288 0.0000 0.0000 0.0000
# 2 33.0575 148.9081 68.5441 0.0000 0.0000 0.0000
# 3 15.6288 68.5441 80.4670 0.0000 0.0000 0.0000
# 4 0.0000 0.0000 0.0000 29.1294 0.0000 0.0000
# 5 0.0000 0.0000 0.0000 0.0000 25.6061 0.0000
# 6 0.0000 0.0000 0.0000 0.0000 0.0000 -68.7908
#
#
#
# Elastic Compliance Matrix: (Units=1/GPa)
#
#
# Indices 1 2 3 4 5 6 
#
# 1 0.024992 -0.005451 -0.000211 0.000000 0.000000 0.000000
# 2 -0.005451 0.012236 -0.009364 0.000000 0.000000 0.000000
# 3 -0.000211 -0.009364 0.020445 0.000000 0.000000 0.000000
# 4 0.000000 0.000000 0.000000 0.034330 0.000000 0.000000
# 5 0.000000 0.000000 0.000000 0.000000 0.039053 0.000000
# 6 0.000000 0.000000 0.000000 0.000000 0.000000 -0.014537
#
#
# Mechanical properties :
#
#
# Convention : Reuss Voigt Hill
#
# Bulk Modulus (GPa) = 36.20399 56.79892 46.50145
# Shear Modulus (GPa) = 32.09659 7.82221 19.95940
#
# Velocity S-wave (km/s) = 3.95464 1.95228 3.11854
# Velocity P-wave (km/s) = 6.20426 5.72341 5.96868
#
# Compressibility (1/GPa) = 0.02762127
#
# Stress axis : x y z
#
# Youngs Moduli (GPa) = 40.01206 81.72399 48.91114
#
# Poissons Ratio (x) = 0.44551 0.01030
# Poissons Ratio (y) = 0.21812 0.45803
# Poissons Ratio (z) = 0.00842 0.76530
#
# Static dielectric constant tensor:
#      x y z
#    x 1.742400 0.000000 0.000000 
#    y 0.000000 1.825140 0.000000 
#    z 0.000000 0.000000 1.710020 
# 
# From -- ./inp_files/62624.got.cif
#   From: 2010.05.17/outbox.cif.g08.bks.cpg/sg65_32_cif.got.tgz:62624.got - 2010.06.03 17:01:31.
