data_PCOD9491413
_publ_section_title
;
Structure prediction by ZEFSAII (Michael W. Deem and Ramdas Pophale) SiO2 
 PCOD9491413
Probable space group: C M M M
;
_chemical_formula_sum "Si O2"
_cell_formula_units_Z 88
_cell_length_a 20.494467
_cell_length_b 19.374634
_cell_length_c 12.554472
_cell_angle_alpha 90.000000
_cell_angle_beta 90.000000
_cell_angle_gamma 90.000000
_cell_volume 4985.039314
_symmetry_space_group_name_H-M "C M M M"
_symmetry_group_IT_number 65
_symmetry_cell_setting 'orthorhombic'
loop_
_space_group_symop_operation_xyz
x,y,z
-x,-y,z
x,-y,-z
-x,y,-z
-x,-y,-z
x,y,-z
-x,y,z
x,-y,z
1/2+x,1/2+y,z
1/2-x,1/2-y,z
1/2+x,1/2-y,-z
1/2-x,1/2+y,-z
1/2-x,1/2-y,-z
1/2+x,1/2+y,-z
1/2-x,1/2+y,z
1/2+x,1/2-y,z
loop_
_atom_site_type_symbol
_atom_site_label
_atom_site_fract_x
_atom_site_fract_y
_atom_site_fract_z
Si Si1 0.572627 0.417298 0.000000
Si Si2 0.737684 0.863711 0.500000
Si Si3 0.877879 0.921181 0.772473
Si Si4 0.424996 0.720741 0.720466
Si Si5 0.776384 0.421424 0.732789
Si Si6 0.356765 0.734165 0.500000
Si Si7 0.318382 0.791783 0.127921
O O1 0.611261 0.400977 0.105006
O O2 0.565948 0.500000 0.000000
O O3 0.500000 0.386711 0.000000
O O4 0.718904 0.903479 0.392309
O O5 0.695578 0.794759 0.500000
O O6 0.813411 0.836903 0.500000
O O7 0.917320 0.862275 0.713490
O O8 0.801440 0.918044 0.751531
O O9 0.900452 0.000000 0.754755
O O10 0.500000 0.739038 0.741201
O O11 0.399343 0.743557 0.605448
O O12 0.376032 0.751076 0.810205
O O13 0.798202 0.500000 0.754156
O O14 0.808932 0.364523 0.809683
O O15 0.250000 0.750000 0.141700
O O16 0.329654 0.798877 0.000000
#
# Coordination Sequence:
#
# PCOD9491413 Si02
#       7
#     8   8  16  16  16   8  16
#     4   9  18  32  48  69 110 166 204 231 276 337
#     4  11  19  38  66  86 121 156 202 249 301 358
#     4  10  21  35  53  84 123 160 202 244 288 349
#     4  12  24  39  61  88 121 164 208 247 300 361
#     4  11  22  37  63  93 119 155 199 249 307 361
#     4  11  21  38  62  87 122 159 201 251 301 348
#     4  11  23  41  62  90 125 159 202 254 303 356
#
# _framework density 17.652819999999998
#
# number of rings (size 3 to 8) (size 9 to 14) (size 15 to 20)
#    0.000    1.182    5.455    1.091    2.545    1.818 
#    0.000    0.455    0.000    1.636    0.000    2.545 
#    0.000    0.000    0.000    0.000    0.000    0.000 
#
# Total GULP energy -245366.488890 kJ/mol
# GULP energy per Si atom -5576.511111 kJ/mol
# Density = 1.761264 g / cm^3
# Si number density = 17.652820 Si / 1000 Ang^3
#
#
#
# Elastic Constant Matrix: (Units=GPa)
#
#
# Indices 1 2 3 4 5 6 
#
# 1 98.8251 41.9506 56.5816 0.0000 0.0000 0.0000
# 2 41.9506 113.8993 53.5551 0.0000 0.0000 0.0000
# 3 56.5816 53.5551 139.0453 0.0000 0.0000 0.0000
# 4 0.0000 0.0000 0.0000 46.7541 0.0000 0.0000
# 5 0.0000 0.0000 0.0000 0.0000 -10.5482 0.0000
# 6 0.0000 0.0000 0.0000 0.0000 0.0000 44.0265
#
#
#
# Elastic Compliance Matrix: (Units=1/GPa)
#
#
# Indices 1 2 3 4 5 6 
#
# 1 0.013997 -0.003025 -0.004531 0.000000 0.000000 0.000000
# 2 -0.003025 0.011375 -0.003150 0.000000 0.000000 0.000000
# 3 -0.004531 -0.003150 0.010249 0.000000 0.000000 0.000000
# 4 0.000000 0.000000 0.000000 0.021388 0.000000 0.000000
# 5 0.000000 0.000000 0.000000 0.000000 -0.094803 0.000000
# 6 0.000000 0.000000 0.000000 0.000000 0.000000 0.022714
#
#
# Mechanical properties :
#
#
# Convention : Reuss Voigt Hill
#
# Bulk Modulus (GPa) = 70.37739 72.88268 71.63004
# Shear Modulus (GPa) = 451.74109 29.35865 240.54987
#
# Velocity S-wave (km/s) = 16.01433 4.08255 11.68601
# Velocity P-wave (km/s) = 19.54223 7.97492 14.92478
#
# Compressibility (1/GPa) = 0.01420911
#
# Stress axis : x y z
#
# Youngs Moduli (GPa) = 71.44404 87.91138 97.57095
#
# Poissons Ratio (x) = 0.26593 0.44206
# Poissons Ratio (y) = 0.21612 0.30738
# Poissons Ratio (z) = 0.32369 0.27695
#
# Static dielectric constant tensor:
#      x y z
#    x 1.591890 0.000000 0.000000 
#    y 0.000000 1.633140 0.000000 
#    z 0.000000 0.000000 1.615170 
# 
# From -- ./inp_files/26849.got.cif
#   From: 2010.05.17/outbox.cif.g08.bks.cpg/sg65_14_cif.got.tgz:26849.got - 2010.06.03 17:01:31.
