data_PCOD9491667
_publ_section_title
;
Structure prediction by ZEFSAII (Michael W. Deem and Ramdas Pophale) SiO2 
 PCOD9491667
Probable space group: C M M M
;
_chemical_formula_sum "Si O2"
_cell_formula_units_Z 88
_cell_length_a 18.388099
_cell_length_b 7.778187
_cell_length_c 30.584956
_cell_angle_alpha 90.000000
_cell_angle_beta 90.000000
_cell_angle_gamma 90.000000
_cell_volume 4374.446137
_symmetry_space_group_name_H-M "C M M M"
_symmetry_group_IT_number 65
_symmetry_cell_setting 'orthorhombic'
loop_
_space_group_symop_operation_xyz
x,y,z
-x,-y,z
x,-y,-z
-x,y,-z
-x,-y,-z
x,y,-z
-x,y,z
x,-y,z
1/2+x,1/2+y,z
1/2-x,1/2-y,z
1/2+x,1/2-y,-z
1/2-x,1/2+y,-z
1/2-x,1/2-y,-z
1/2+x,1/2+y,-z
1/2-x,1/2+y,z
1/2+x,1/2-y,z
loop_
_atom_site_type_symbol
_atom_site_label
_atom_site_fract_x
_atom_site_fract_y
_atom_site_fract_z
Si Si1 0.915098 0.500000 0.052305
Si Si2 0.165344 0.792728 0.548621
Si Si3 0.665461 0.697721 0.102791
Si Si4 0.415033 0.790788 0.808731
Si Si5 0.418321 0.294276 0.366494
Si Si6 0.834537 0.704281 0.278780
O O1 0.876013 0.667867 0.071809
O O2 0.000000 0.500000 0.065657
O O3 0.910860 0.500000 0.000000
O O4 0.144508 0.729801 0.500000
O O5 0.250000 0.750000 0.555552
O O6 0.118222 0.726089 0.589060
O O7 0.159111 0.000000 0.548002
O O8 0.659246 0.500000 0.088221
O O9 0.750000 0.750000 0.105190
O O10 0.629206 0.717568 0.150452
O O11 0.500000 0.744499 0.810770
O O12 0.379231 0.731163 0.763256
O O13 0.410381 0.000000 0.811104
O O14 0.500000 0.226684 0.359950
O O15 0.423056 0.500000 0.371482
O O16 0.369077 0.263081 0.324274
O O17 0.840724 0.500000 0.278043
O O18 0.750000 0.750000 0.275596
#
# Coordination Sequence:
#
# PCOD9491667 Si02
#       6
#     8  16  16  16  16  16
#     4  11  26  48  72 102 143 183 225 285 343 397
#     4   9  18  33  53  76 102 137 181 229 284 347
#     4  12  24  43  70 103 136 181 229 279 334 397
#     4  10  21  39  63  91 128 166 206 259 318 379
#     4  10  21  36  54  78 110 144 185 238 293 353
#     4  11  23  38  58  84 115 157 199 245 300 360
#
# _framework density 20.116831999999999
#
# number of rings (size 3 to 8) (size 9 to 14) (size 15 to 20)
#    0.000    1.545    1.818    2.727    0.000    8.727 
#    0.000    2.727    0.000    0.000    0.000    3.818 
#    0.000    0.000    0.000    0.000    0.000    0.000 
#
# Total GULP energy -245960.151780 kJ/mol
# GULP energy per Si atom -5590.003450 kJ/mol
# Density = 2.007104 g / cm^3
# Si number density = 20.116832 Si / 1000 Ang^3
#
#
#
# Elastic Constant Matrix: (Units=GPa)
#
#
# Indices 1 2 3 4 5 6 
#
# 1 173.2523 43.5533 84.3643 0.0000 0.0000 0.0000
# 2 43.5533 88.0636 39.5660 0.0000 0.0000 0.0000
# 3 84.3643 39.5660 126.7385 0.0000 0.0000 0.0000
# 4 0.0000 0.0000 0.0000 30.4204 0.0000 0.0000
# 5 0.0000 0.0000 0.0000 0.0000 41.2445 0.0000
# 6 0.0000 0.0000 0.0000 0.0000 0.0000 17.6721
#
#
#
# Elastic Compliance Matrix: (Units=1/GPa)
#
#
# Indices 1 2 3 4 5 6 
#
# 1 0.008835 -0.002009 -0.005254 0.000000 0.000000 0.000000
# 2 -0.002009 0.013665 -0.002929 0.000000 0.000000 0.000000
# 3 -0.005254 -0.002929 0.012302 0.000000 0.000000 0.000000
# 4 0.000000 0.000000 0.000000 0.032873 0.000000 0.000000
# 5 0.000000 0.000000 0.000000 0.000000 0.024246 0.000000
# 6 0.000000 0.000000 0.000000 0.000000 0.000000 0.056586
#
#
# Mechanical properties :
#
#
# Convention : Reuss Voigt Hill
#
# Bulk Modulus (GPa) = 69.35498 80.33574 74.84536
# Shear Modulus (GPa) = 28.78579 32.57214 30.67896
#
# Velocity S-wave (km/s) = 3.78687 4.02823 3.90941
# Velocity P-wave (km/s) = 7.32608 7.85218 7.59369
#
# Compressibility (1/GPa) = 0.01441857
#
# Stress axis : x y z
#
# Youngs Moduli (GPa) = 113.17994 73.18052 81.28745
#
# Poissons Ratio (x) = 0.14703 0.42710
# Poissons Ratio (y) = 0.22739 0.23806
# Poissons Ratio (z) = 0.59467 0.21432
#
# Static dielectric constant tensor:
#      x y z
#    x 1.670510 0.000000 0.000000 
#    y 0.000000 1.728160 0.000000 
#    z 0.000000 0.000000 1.696850 
# 
# From -- ./inp_files/77976.got.cif
#   From: 2010.05.17/outbox.cif.g08.bks.cpg/sg65_39_cif.got.tgz:77976.got - 2010.06.03 17:01:31.
