data_PCOD9491021
_publ_section_title
;
Structure prediction by ZEFSAII (Michael W. Deem and Ramdas Pophale) SiO2 
 PCOD9491021
Probable space group: C M M M
;
_chemical_formula_sum "Si O2"
_cell_formula_units_Z 88
_cell_length_a 21.985983
_cell_length_b 8.352764
_cell_length_c 22.571293
_cell_angle_alpha 90.000000
_cell_angle_beta 90.000000
_cell_angle_gamma 90.000000
_cell_volume 4145.076377
_symmetry_space_group_name_H-M "C M M M"
_symmetry_group_IT_number 65
_symmetry_cell_setting 'orthorhombic'
loop_
_space_group_symop_operation_xyz
x,y,z
-x,-y,z
x,-y,-z
-x,y,-z
-x,-y,-z
x,y,-z
-x,y,z
x,-y,z
1/2+x,1/2+y,z
1/2-x,1/2-y,z
1/2+x,1/2-y,-z
1/2-x,1/2+y,-z
1/2-x,1/2-y,-z
1/2+x,1/2+y,-z
1/2-x,1/2+y,z
1/2+x,1/2-y,z
loop_
_atom_site_type_symbol
_atom_site_label
_atom_site_fract_x
_atom_site_fract_y
_atom_site_fract_z
Si Si1 0.629841 0.307084 0.200503
Si Si2 0.817853 0.312399 0.915748
Si Si3 0.500000 0.692944 0.227183
Si Si4 0.618097 0.306704 0.432969
Si Si5 0.184893 0.808349 0.677957
Si Si6 0.426307 0.691444 0.000000
Si Si7 0.500000 0.190710 0.637072
O O1 0.637425 0.500000 0.195413
O O2 0.673295 0.224698 0.153719
O O3 0.559833 0.263160 0.191002
O O4 0.641033 0.259919 0.268784
O O5 0.818292 0.500000 0.927554
O O6 0.750000 0.250000 0.933100
O O7 0.879523 0.241172 0.946343
O O8 0.500000 0.500000 0.234338
O O9 0.500000 0.759602 0.294047
O O10 0.620670 0.244475 0.500000
O O11 0.620922 0.500000 0.436321
O O12 0.669303 0.246670 0.387469
O O13 0.557284 0.260406 0.398325
O O14 0.250000 0.750000 0.696661
O O15 0.182825 0.000000 0.675213
O O16 0.430299 0.500000 0.000000
O O17 0.500000 0.745867 0.000000
O O18 0.500000 0.000000 0.633247
#
# Coordination Sequence:
#
# PCOD9491021 Si02
#       7
#    16  16   8  16  16   8   8
#     4  10  21  39  65  95 127 166 214 263 318 379
#     4  12  26  45  71 103 142 182 227 274 325 386
#     4  10  20  39  65  89 123 167 209 254 314 388
#     4  10  21  39  60  79 106 153 204 246 302 380
#     4  10  21  37  58  84 115 153 200 253 307 369
#     4  11  26  49  76 105 141 185 230 273 328 387
#     4  12  23  35  56  87 119 147 187 248 319 375
#
# _framework density 21.230004999999998
#
# number of rings (size 3 to 8) (size 9 to 14) (size 15 to 20)
#    0.000    1.364    1.818    3.818    1.273    6.182 
#    0.000    0.000    0.000    0.000    0.000    0.000 
#    0.000    0.000    0.000    0.000    0.000    0.000 
#
# Total GULP energy -245386.950141 kJ/mol
# GULP energy per Si atom -5576.976140 kJ/mol
# Density = 2.118168 g / cm^3
# Si number density = 21.230005 Si / 1000 Ang^3
#
#
#
# Elastic Constant Matrix: (Units=GPa)
#
#
# Indices 1 2 3 4 5 6 
#
# 1 142.2388 27.2081 30.7429 0.0000 0.0000 0.0000
# 2 27.2081 37.4870 22.3434 0.0000 0.0000 0.0000
# 3 30.7429 22.3434 111.6784 0.0000 0.0000 0.0000
# 4 0.0000 0.0000 0.0000 16.5390 0.0000 0.0000
# 5 0.0000 0.0000 0.0000 0.0000 32.0106 0.0000
# 6 0.0000 0.0000 0.0000 0.0000 0.0000 11.6798
#
#
#
# Elastic Compliance Matrix: (Units=1/GPa)
#
#
# Indices 1 2 3 4 5 6 
#
# 1 0.008309 -0.005300 -0.001227 0.000000 0.000000 0.000000
# 2 -0.005300 0.033668 -0.005277 0.000000 0.000000 0.000000
# 3 -0.001227 -0.005277 0.010348 0.000000 0.000000 0.000000
# 4 0.000000 0.000000 0.000000 0.060463 0.000000 0.000000
# 5 0.000000 0.000000 0.000000 0.000000 0.031240 0.000000
# 6 0.000000 0.000000 0.000000 0.000000 0.000000 0.085618
#
#
# Mechanical properties :
#
#
# Convention : Reuss Voigt Hill
#
# Bulk Modulus (GPa) = 34.82198 50.22143 42.52171
# Shear Modulus (GPa) = 19.02404 26.11987 22.57196
#
# Velocity S-wave (km/s) = 2.99673 3.51141 3.26423
# Velocity P-wave (km/s) = 5.33026 6.33618 5.85487
#
# Compressibility (1/GPa) = 0.02871749
#
# Stress axis : x y z
#
# Youngs Moduli (GPa) = 120.34595 29.70216 96.63839
#
# Poissons Ratio (x) = 0.15741 0.11859
# Poissons Ratio (y) = 0.63778 0.50996
# Poissons Ratio (z) = 0.14768 0.15674
#
# Static dielectric constant tensor:
#      x y z
#    x 1.825260 0.000000 0.000000 
#    y 0.000000 1.735220 0.000000 
#    z 0.000000 0.000000 1.781390 
# 
# From -- ./inp_files/71096.got.cif
#   From: 2010.05.17/outbox.cif.g08.bks.cpg/sg65_36_cif.got.tgz:71096.got - 2010.06.03 17:01:31.
