data_PCOD9491542
_publ_section_title
;
Structure prediction by ZEFSAII (Michael W. Deem and Ramdas Pophale) SiO2 
 PCOD9491542
Probable space group: C M M M
;
_chemical_formula_sum "Si O2"
_cell_formula_units_Z 88
_cell_length_a 8.926857
_cell_length_b 18.566301
_cell_length_c 29.521535
_cell_angle_alpha 90.000000
_cell_angle_beta 90.000000
_cell_angle_gamma 90.000000
_cell_volume 4892.861248
_symmetry_space_group_name_H-M "C M M M"
_symmetry_group_IT_number 65
_symmetry_cell_setting 'orthorhombic'
loop_
_space_group_symop_operation_xyz
x,y,z
-x,-y,z
x,-y,-z
-x,y,-z
-x,-y,-z
x,y,-z
-x,y,z
x,-y,z
1/2+x,1/2+y,z
1/2-x,1/2-y,z
1/2+x,1/2-y,-z
1/2-x,1/2+y,-z
1/2-x,1/2-y,-z
1/2+x,1/2+y,-z
1/2-x,1/2+y,z
1/2+x,1/2-y,z
loop_
_atom_site_type_symbol
_atom_site_label
_atom_site_fract_x
_atom_site_fract_y
_atom_site_fract_z
Si Si1 0.325742 0.087542 0.267379
Si Si2 0.180058 0.414783 0.367074
Si Si3 0.181060 0.170453 0.084296
Si Si4 0.679710 0.583291 0.174028
Si Si5 0.678926 0.329128 0.550530
Si Si6 0.679185 0.914216 0.000000
O O1 0.500000 0.107430 0.263141
O O2 0.270237 0.111573 0.316964
O O3 0.239753 0.110233 0.222371
O O4 0.318807 0.000000 0.268542
O O5 0.210448 0.500000 0.369862
O O6 0.256630 0.375603 0.408690
O O7 0.000000 0.405442 0.369110
O O8 0.250000 0.250000 0.081540
O O9 0.223732 0.132635 0.131812
O O10 0.246698 0.122429 0.043783
O O11 0.000000 0.173481 0.081190
O O12 0.500000 0.582082 0.175738
O O13 0.730782 0.500000 0.167330
O O14 0.715252 0.358274 0.500000
O O15 0.500000 0.324016 0.554060
O O16 0.750000 0.250000 0.553329
O O17 0.500000 0.901773 0.000000
O O18 0.705437 0.000000 0.000000
#
# Coordination Sequence:
#
# PCOD9491542 Si02
#       6
#    16  16  16  16  16   8
#     4   8  15  29  50  76 105 136 170 211 258 307
#     4   9  18  33  53  78 107 138 173 213 260 313
#     4  11  23  39  58  81 113 148 181 220 267 315
#     4   9  18  33  54  79 105 137 178 219 260 309
#     4  10  21  36  53  73  99 133 173 216 263 316
#     4  11  24  41  62  87 111 139 180 223 264 317
#
# _framework density 17.985385999999998
#
# number of rings (size 3 to 8) (size 9 to 14) (size 15 to 20)
#    0.000    2.455    0.000    3.273    0.000    5.455 
#    0.000    6.364    0.000    2.182    0.000    0.000 
#    0.000    0.000    0.000    0.000    0.000    0.000 
#
# Total GULP energy -245411.687843 kJ/mol
# GULP energy per Si atom -5577.538360 kJ/mol
# Density = 1.794445 g / cm^3
# Si number density = 17.985386 Si / 1000 Ang^3
#
#
#
# Elastic Constant Matrix: (Units=GPa)
#
#
# Indices 1 2 3 4 5 6 
#
# 1 44.5970 46.2903 68.3719 0.0000 0.0000 0.0000
# 2 46.2903 74.0325 84.0145 0.0000 0.0000 0.0000
# 3 68.3719 84.0145 215.9400 0.0000 0.0000 0.0000
# 4 0.0000 0.0000 0.0000 -59.6525 0.0000 0.0000
# 5 0.0000 0.0000 0.0000 0.0000 35.2004 0.0000
# 6 0.0000 0.0000 0.0000 0.0000 0.0000 23.6795
#
#
#
# Elastic Compliance Matrix: (Units=1/GPa)
#
#
# Indices 1 2 3 4 5 6 
#
# 1 0.073679 -0.035087 -0.009677 0.000000 0.000000 0.000000
# 2 -0.035087 0.040895 -0.004802 0.000000 0.000000 0.000000
# 3 -0.009677 -0.004802 0.009563 0.000000 0.000000 0.000000
# 4 0.000000 0.000000 0.000000 -0.016764 0.000000 0.000000
# 5 0.000000 0.000000 0.000000 0.000000 0.028409 0.000000
# 6 0.000000 0.000000 0.000000 0.000000 0.000000 0.042231
#
#
# Mechanical properties :
#
#
# Convention : Reuss Voigt Hill
#
# Bulk Modulus (GPa) = 39.99122 81.32477 60.65799
# Shear Modulus (GPa) = 17.51441 8.90500 13.20971
#
# Velocity S-wave (km/s) = 3.12398 2.22755 2.71305
# Velocity P-wave (km/s) = 5.94105 7.20634 6.60406
#
# Compressibility (1/GPa) = 0.02500549
#
# Stress axis : x y z
#
# Youngs Moduli (GPa) = 13.57246 24.45276 104.56808
#
# Poissons Ratio (x) = 0.85797 1.01196
# Poissons Ratio (y) = 0.47621 0.50209
# Poissons Ratio (z) = 0.13135 0.11741
#
# Static dielectric constant tensor:
#      x y z
#    x 1.602030 0.000000 0.000000 
#    y 0.000000 1.594880 0.000000 
#    z 0.000000 0.000000 1.622850 
# 
# From -- ./inp_files/67574.got.cif
#   From: 2010.05.17/outbox.cif.g08.bks.cpg/sg65_34_cif.got.tgz:67574.got - 2010.06.03 17:01:31.
