data_PCOD9491629
_publ_section_title
;
Structure prediction by ZEFSAII (Michael W. Deem and Ramdas Pophale) SiO2 
 PCOD9491629
Probable space group: C M M M
;
_chemical_formula_sum "Si O2"
_cell_formula_units_Z 96
_cell_length_a 24.307289
_cell_length_b 7.742970
_cell_length_c 20.657461
_cell_angle_alpha 90.000000
_cell_angle_beta 90.000000
_cell_angle_gamma 90.000000
_cell_volume 3887.953326
_symmetry_space_group_name_H-M "C M M M"
_symmetry_group_IT_number 65
_symmetry_cell_setting 'orthorhombic'
loop_
_space_group_symop_operation_xyz
x,y,z
-x,-y,z
x,-y,-z
-x,y,-z
-x,-y,-z
x,y,-z
-x,y,z
x,-y,z
1/2+x,1/2+y,z
1/2-x,1/2-y,z
1/2+x,1/2-y,-z
1/2-x,1/2+y,-z
1/2-x,1/2-y,-z
1/2+x,1/2+y,-z
1/2-x,1/2+y,z
1/2+x,1/2-y,z
loop_
_atom_site_type_symbol
_atom_site_label
_atom_site_fract_x
_atom_site_fract_y
_atom_site_fract_z
Si Si1 0.941454 0.202114 0.217201
Si Si2 0.062627 0.201621 0.577849
Si Si3 0.812377 0.193393 0.605253
Si Si4 0.824964 0.302768 0.746445
Si Si5 0.806746 0.705467 0.888754
Si Si6 0.923522 0.290514 0.070041
O O1 0.890786 0.303015 0.246155
O O2 0.943267 0.224131 0.139265
O O3 0.000000 0.260200 0.243123
O O4 0.933776 0.000000 0.231037
O O5 0.061184 0.204936 0.500000
O O6 0.125328 0.274256 0.593366
O O7 0.000000 0.267445 0.597617
O O8 0.063669 0.000000 0.600195
O O9 0.750000 0.250000 0.583154
O O10 0.808888 0.200921 0.683103
O O11 0.817868 0.000000 0.580086
O O12 0.805403 0.500000 0.739841
O O13 0.807526 0.222728 0.815427
O O14 0.811637 0.500000 0.881311
O O15 0.750000 0.750000 0.920860
O O16 0.859720 0.760473 0.927066
O O17 0.929528 0.500000 0.071919
O O18 0.944385 0.233067 0.000000
#
# Coordination Sequence:
#
# PCOD9491629 Si02
#       6
#    16  16  16  16  16  16
#     4  10  21  36  54  77 104 134 173 224 280 340
#     4   8  16  34  59  85 115 155 203 250 293 339
#     4  11  22  35  56  88 123 157 195 241 293 350
#     4  10  21  37  55  76 106 143 182 226 277 335
#     4   9  18  31  48  69  93 125 164 206 255 313
#     4   9  19  35  51  69  97 132 171 215 265 327
#
# _framework density 24.691655000000001
#
# number of rings (size 3 to 8) (size 9 to 14) (size 15 to 20)
#    0.000    2.500    0.000    3.500    0.000    8.000 
#    0.000    3.333    0.000    3.000    0.000    4.667 
#    0.000    0.000    0.000    0.000    0.000    0.000 
#
# Total GULP energy -267433.856074 kJ/mol
# GULP energy per Si atom -5571.538668 kJ/mol
# Density = 2.463546 g / cm^3
# Si number density = 24.691655 Si / 1000 Ang^3
#
#
#
# Elastic Constant Matrix: (Units=GPa)
#
#
# Indices 1 2 3 4 5 6 
#
# 1 257.4961 12.0503 23.8818 0.0000 0.0000 0.0000
# 2 12.0503 37.9798 5.9084 0.0000 0.0000 0.0000
# 3 23.8818 5.9084 101.7197 0.0000 0.0000 0.0000
# 4 0.0000 0.0000 0.0000 -5.9239 0.0000 0.0000
# 5 0.0000 0.0000 0.0000 0.0000 -89.6198 0.0000
# 6 0.0000 0.0000 0.0000 0.0000 0.0000 45.6353
#
#
#
# Elastic Compliance Matrix: (Units=1/GPa)
#
#
# Indices 1 2 3 4 5 6 
#
# 1 0.004018 -0.001138 -0.000877 0.000000 0.000000 0.000000
# 2 -0.001138 0.026892 -0.001295 0.000000 0.000000 0.000000
# 3 -0.000877 -0.001295 0.010112 0.000000 0.000000 0.000000
# 4 0.000000 0.000000 0.000000 -0.168809 0.000000 0.000000
# 5 0.000000 0.000000 0.000000 0.000000 -0.011158 0.000000
# 6 0.000000 0.000000 0.000000 0.000000 0.000000 0.021913
#
#
# Mechanical properties :
#
#
# Convention : Reuss Voigt Hill
#
# Bulk Modulus (GPa) = 29.06825 53.43072 41.24949
# Shear Modulus (GPa) = -50.53389 13.70866 -18.41261
#
# Velocity S-wave (km/s) = -4.52884 2.35881 -2.73372
# Velocity P-wave (km/s) = 3.94324 5.39489 2.60343
#
# Compressibility (1/GPa) = 0.03440180
#
# Stress axis : x y z
#
# Youngs Moduli (GPa) = 248.86803 37.18519 98.89133
#
# Poissons Ratio (x) = 0.04233 0.08675
# Poissons Ratio (y) = 0.28332 0.12804
# Poissons Ratio (z) = 0.21832 0.04815
#
# Static dielectric constant tensor:
#      x y z
#    x 2.070950 0.000000 0.000000 
#    y 0.000000 1.952720 0.000000 
#    z 0.000000 0.000000 1.917850 
# 
# From -- ./inp_files/71414.got.cif
#   From: 2010.05.17/outbox.cif.g08.bks.cpg/sg65_36_cif.got.tgz:71414.got - 2010.06.03 17:01:31.
