data_PCOD9491831
_publ_section_title
;
Structure prediction by ZEFSAII (Michael W. Deem and Ramdas Pophale) SiO2 
 PCOD9491831
Probable space group: C M M M
;
_chemical_formula_sum "Si O2"
_cell_formula_units_Z 72
_cell_length_a 15.364105
_cell_length_b 29.301831
_cell_length_c 8.157263
_cell_angle_alpha 90.000000
_cell_angle_beta 90.000000
_cell_angle_gamma 90.000000
_cell_volume 3672.370503
_symmetry_space_group_name_H-M "C M M M"
_symmetry_group_IT_number 65
_symmetry_cell_setting 'orthorhombic'
loop_
_space_group_symop_operation_xyz
x,y,z
-x,-y,z
x,-y,-z
-x,y,-z
-x,-y,-z
x,y,-z
-x,y,z
x,-y,z
1/2+x,1/2+y,z
1/2-x,1/2-y,z
1/2+x,1/2-y,-z
1/2-x,1/2+y,-z
1/2-x,1/2-y,-z
1/2+x,1/2+y,-z
1/2-x,1/2+y,z
1/2+x,1/2-y,z
loop_
_atom_site_type_symbol
_atom_site_label
_atom_site_fract_x
_atom_site_fract_y
_atom_site_fract_z
Si Si1 0.669661 0.141591 0.312465
Si Si2 0.395432 0.949401 0.189752
Si Si3 0.500000 0.702840 0.804326
Si Si4 0.000000 0.693312 0.303390
Si Si5 0.500000 0.552978 0.195816
Si Si6 0.362904 0.628749 0.303496
O O1 0.680209 0.157977 0.500000
O O2 0.637641 0.089658 0.306438
O O3 0.589522 0.170511 0.237665
O O4 0.765826 0.138180 0.236985
O O5 0.500000 0.949751 0.194736
O O6 0.363985 0.000000 0.232383
O O7 0.370741 0.939826 0.000000
O O8 0.500000 0.753214 0.730819
O O9 0.581077 0.672707 0.745217
O O10 0.500000 0.705740 0.000000
O O11 0.000000 0.684681 0.500000
O O12 0.500000 0.500000 0.256870
O O13 0.415780 0.583619 0.246133
O O14 0.500000 0.550983 0.000000
O O15 0.358206 0.625072 0.500000
#
# Coordination Sequence:
#
# PCOD9491831 Si02
#       6
#    16  16   8   8   8  16
#     4  10  21  36  57  84 112 146 188 230 275 327
#     4   9  18  32  50  74 108 149 186 221 266 318
#     4  11  23  40  60  83 108 141 184 230 284 339
#     4  10  21  39  59  80 112 147 182 227 276 332
#     4  10  21  38  60  86 115 150 189 230 278 329
#     4  10  21  38  60  85 113 146 184 230 281 331
#
# _framework density 19.605865999999999
#
# number of rings (size 3 to 8) (size 9 to 14) (size 15 to 20)
#    0.000    2.111    1.111    4.000    0.000    5.778 
#    0.000   10.000    0.000    0.000    0.000    0.000 
#    0.000    0.000    0.000    0.000    0.000    0.000 
#
# Total GULP energy -200642.243200 kJ/mol
# GULP energy per Si atom -5573.395644 kJ/mol
# Density = 1.956124 g / cm^3
# Si number density = 19.605866 Si / 1000 Ang^3
#
#
#
# Elastic Constant Matrix: (Units=GPa)
#
#
# Indices 1 2 3 4 5 6 
#
# 1 161.1574 81.5113 16.1742 0.0000 0.0000 0.0000
# 2 81.5113 128.0827 2.5896 0.0000 0.0000 0.0000
# 3 16.1742 2.5896 23.2652 0.0000 0.0000 0.0000
# 4 0.0000 0.0000 0.0000 34.1291 0.0000 0.0000
# 5 0.0000 0.0000 0.0000 0.0000 -2.8966 0.0000
# 6 0.0000 0.0000 0.0000 0.0000 0.0000 -0.1827
#
#
#
# Elastic Compliance Matrix: (Units=1/GPa)
#
#
# Indices 1 2 3 4 5 6 
#
# 1 0.009981 -0.006225 -0.006246 0.000000 0.000000 0.000000
# 2 -0.006225 0.011708 0.003025 0.000000 0.000000 0.000000
# 3 -0.006246 0.003025 0.046988 0.000000 0.000000 0.000000
# 4 0.000000 0.000000 0.000000 0.029300 0.000000 0.000000
# 5 0.000000 0.000000 0.000000 0.000000 -0.345232 0.000000
# 6 0.000000 0.000000 0.000000 0.000000 0.000000 -5.472280
#
#
# Mechanical properties :
#
#
# Convention : Reuss Voigt Hill
#
# Bulk Modulus (GPa) = 20.08669 57.00614 38.54641
# Shear Modulus (GPa) = -0.87965 20.35864 9.73949
#
# Velocity S-wave (km/s) = -0.67055 3.22591 2.23124
# Velocity P-wave (km/s) = 3.10933 6.55855 5.13237
#
# Compressibility (1/GPa) = 0.04978422
#
# Stress axis : x y z
#
# Youngs Moduli (GPa) = 100.19375 85.41095 21.28195
#
# Poissons Ratio (x) = 0.53172 0.13292
# Poissons Ratio (y) = 0.62374 -0.06437
# Poissons Ratio (z) = 0.62578 -0.25835
#
# Static dielectric constant tensor:
#      x y z
#    x 1.753530 0.000000 0.000000 
#    y 0.000000 1.658130 0.000000 
#    z 0.000000 0.000000 1.706100 
# 
# From -- ./inp_files/7359.got.cif
#   From: 2010.05.17/outbox.cif.g08.bks.cpg/sg65_4_cif.got.tgz:7359.got - 2010.06.03 17:01:31.
