data_PCOD9491131
_publ_section_title
;
Structure prediction by ZEFSAII (Michael W. Deem and Ramdas Pophale) SiO2 
 PCOD9491131
Probable space group: C M M M
;
_chemical_formula_sum "Si O2"
_cell_formula_units_Z 88
_cell_length_a 17.748243
_cell_length_b 31.145686
_cell_length_c 9.292231
_cell_angle_alpha 90.000000
_cell_angle_beta 90.000000
_cell_angle_gamma 90.000000
_cell_volume 5136.570636
_symmetry_space_group_name_H-M "C M M M"
_symmetry_group_IT_number 65
_symmetry_cell_setting 'orthorhombic'
loop_
_space_group_symop_operation_xyz
x,y,z
-x,-y,z
x,-y,-z
-x,y,-z
-x,-y,-z
x,y,-z
-x,y,z
x,-y,z
1/2+x,1/2+y,z
1/2-x,1/2-y,z
1/2+x,1/2-y,-z
1/2-x,1/2+y,-z
1/2-x,1/2-y,-z
1/2+x,1/2+y,-z
1/2-x,1/2+y,z
1/2+x,1/2-y,z
loop_
_atom_site_type_symbol
_atom_site_label
_atom_site_fract_x
_atom_site_fract_y
_atom_site_fract_z
Si Si1 0.691648 0.619818 0.667615
Si Si2 0.590129 0.450588 0.171990
Si Si3 0.139649 0.417865 0.335357
Si Si4 0.588426 0.000000 0.170809
Si Si5 0.418141 0.160386 0.166832
Si Si6 0.256283 0.200736 0.171358
O O1 0.670839 0.625920 0.500000
O O2 0.634940 0.586757 0.745500
O O3 0.774122 0.597791 0.671779
O O4 0.705067 0.665626 0.746673
O O5 0.500000 0.446529 0.195336
O O6 0.611387 0.500000 0.213665
O O7 0.603500 0.446701 0.000000
O O8 0.120357 0.427435 0.500000
O O9 0.127133 0.458632 0.237129
O O10 0.089451 0.379692 0.271962
O O11 0.500000 0.000000 0.209382
O O12 0.594542 0.000000 0.000000
O O13 0.500000 0.181616 0.185652
O O14 0.344106 0.188456 0.191086
O O15 0.414078 0.145439 0.000000
O O16 0.250000 0.250000 0.219020
O O17 0.239444 0.198325 0.000000
#
# Coordination Sequence:
#
# PCOD9491131 Si02
#       6
#    16  16  16   8  16  16
#     4  10  21  35  53  78 107 138 173 214 263 320
#     4   9  19  36  57  81 108 140 180 224 269 319
#     4  10  21  34  48  70 100 133 168 206 248 298
#     4  11  23  35  47  67  96 131 170 209 249 290
#     4   9  17  31  51  73  97 127 167 212 255 302
#     4   9  18  34  55  77 103 137 177 220 269 322
#
# _framework density 17.132052000000002
#
# number of rings (size 3 to 8) (size 9 to 14) (size 15 to 20)
#    0.000    2.455    0.000    2.455    1.273    6.545 
#    0.000    1.818    0.000    3.273    0.000    0.000 
#    0.000    0.000    0.000    0.000    0.000    0.000 
#
# Total GULP energy -245258.983498 kJ/mol
# GULP energy per Si atom -5574.067807 kJ/mol
# Density = 1.709306 g / cm^3
# Si number density = 17.132052 Si / 1000 Ang^3
#
#
#
# Elastic Constant Matrix: (Units=GPa)
#
#
# Indices 1 2 3 4 5 6 
#
# 1 59.6390 43.4703 39.5039 0.0000 0.0000 0.0000
# 2 43.4703 131.6000 62.0637 0.0000 0.0000 0.0000
# 3 39.5039 62.0637 65.0756 0.0000 0.0000 0.0000
# 4 0.0000 0.0000 0.0000 19.3679 0.0000 0.0000
# 5 0.0000 0.0000 0.0000 0.0000 21.5339 0.0000
# 6 0.0000 0.0000 0.0000 0.0000 0.0000 9.3618
#
#
#
# Elastic Compliance Matrix: (Units=1/GPa)
#
#
# Indices 1 2 3 4 5 6 
#
# 1 0.028414 -0.002274 -0.015080 0.000000 0.000000 0.000000
# 2 -0.002274 0.013992 -0.011964 0.000000 0.000000 0.000000
# 3 -0.015080 -0.011964 0.035931 0.000000 0.000000 0.000000
# 4 0.000000 0.000000 0.000000 0.051632 0.000000 0.000000
# 5 0.000000 0.000000 0.000000 0.000000 0.046438 0.000000
# 6 0.000000 0.000000 0.000000 0.000000 0.000000 0.106817
#
#
# Mechanical properties :
#
#
# Convention : Reuss Voigt Hill
#
# Bulk Modulus (GPa) = 50.75783 60.71006 55.73394
# Shear Modulus (GPa) = 14.35018 17.47117 15.91068
#
# Velocity S-wave (km/s) = 2.89731 3.19689 3.05078
# Velocity P-wave (km/s) = 6.39408 7.01001 6.70912
#
# Compressibility (1/GPa) = 0.01970139
#
# Stress axis : x y z
#
# Youngs Moduli (GPa) = 35.19453 71.46722 27.83073
#
# Poissons Ratio (x) = 0.16251 0.41968
# Poissons Ratio (y) = 0.08003 0.33298
# Poissons Ratio (z) = 0.53072 0.85507
#
# Static dielectric constant tensor:
#      x y z
#    x 1.579170 0.000000 0.000000 
#    y 0.000000 1.561650 0.000000 
#    z 0.000000 0.000000 1.579850 
# 
# From -- ./inp_files/10131.got.cif
#   From: 2010.05.17/outbox.cif.g08.bks.cpg/sg65_6_cif.got.tgz:10131.got - 2010.06.03 17:01:31.
