data_PCOD9491605
_publ_section_title
;
Structure prediction by ZEFSAII (Michael W. Deem and Ramdas Pophale) SiO2 
 PCOD9491605
Probable space group: C M M M
;
_chemical_formula_sum "Si O2"
_cell_formula_units_Z 96
_cell_length_a 19.051303
_cell_length_b 33.015508
_cell_length_c 9.120598
_cell_angle_alpha 90.000000
_cell_angle_beta 90.000000
_cell_angle_gamma 90.000000
_cell_volume 5736.750768
_symmetry_space_group_name_H-M "C M M M"
_symmetry_group_IT_number 65
_symmetry_cell_setting 'orthorhombic'
loop_
_space_group_symop_operation_xyz
x,y,z
-x,-y,z
x,-y,-z
-x,y,-z
-x,-y,-z
x,y,-z
-x,y,z
x,-y,z
1/2+x,1/2+y,z
1/2-x,1/2-y,z
1/2+x,1/2-y,-z
1/2-x,1/2+y,-z
1/2-x,1/2-y,-z
1/2+x,1/2+y,-z
1/2-x,1/2+y,z
1/2+x,1/2-y,z
loop_
_atom_site_type_symbol
_atom_site_label
_atom_site_fract_x
_atom_site_fract_y
_atom_site_fract_z
Si Si1 0.582300 0.663831 0.824496
Si Si2 0.207207 0.119119 0.324471
Si Si3 0.344325 0.169620 0.674220
Si Si4 0.419154 0.757251 0.823755
Si Si5 0.287478 0.046953 0.825365
Si Si6 0.418992 0.085821 0.324427
O O1 0.500000 0.656289 0.795044
O O2 0.634108 0.634459 0.739325
O O3 0.597061 0.710751 0.783464
O O4 0.592772 0.660032 0.000000
O O5 0.205663 0.115090 0.500000
O O6 0.267491 0.152392 0.287572
O O7 0.233724 0.077498 0.252573
O O8 0.346460 0.176686 0.500000
O O9 0.367882 0.209835 0.755786
O O10 0.397326 0.132385 0.707122
O O11 0.500000 0.765682 0.778460
O O12 0.416752 0.759576 0.000000
O O13 0.364032 0.058115 0.761203
O O14 0.271631 0.000000 0.796395
O O15 0.286800 0.053686 0.000000
O O16 0.409574 0.080082 0.500000
O O17 0.500000 0.078412 0.287865
#
# Coordination Sequence:
#
# PCOD9491605 Si02
#       6
#    16  16  16  16  16  16
#     4   9  19  36  55  75 101 131 163 202 249 300
#     4  10  21  36  54  76 101 130 165 204 249 302
#     4   9  18  31  46  68 100 136 173 211 247 284
#     4   9  18  31  47  70 100 135 174 211 247 288
#     4  10  21  36  54  76 101 130 165 205 251 302
#     4   9  18  32  49  71 102 140 178 213 251 293
#
# _framework density 16.734210999999998
#
# number of rings (size 3 to 8) (size 9 to 14) (size 15 to 20)
#    0.000    2.667    0.000    3.500    0.000    8.000 
#    0.000    6.667    0.000    0.500    0.000    3.500 
#    0.000    0.000    0.000    0.000    0.000    0.000 
#
# Total GULP energy -267743.969648 kJ/mol
# GULP energy per Si atom -5577.999368 kJ/mol
# Density = 1.669612 g / cm^3
# Si number density = 16.734211 Si / 1000 Ang^3
#
#
#
# Elastic Constant Matrix: (Units=GPa)
#
#
# Indices 1 2 3 4 5 6 
#
# 1 95.2214 86.6889 59.9710 0.0000 0.0000 0.0000
# 2 86.6889 108.1688 63.2504 0.0000 0.0000 0.0000
# 3 59.9710 63.2504 52.7566 0.0000 0.0000 0.0000
# 4 0.0000 0.0000 0.0000 95.8386 0.0000 0.0000
# 5 0.0000 0.0000 0.0000 0.0000 29.9049 0.0000
# 6 0.0000 0.0000 0.0000 0.0000 0.0000 7.3136
#
#
#
# Elastic Compliance Matrix: (Units=1/GPa)
#
#
# Indices 1 2 3 4 5 6 
#
# 1 0.049295 -0.022545 -0.029007 0.000000 0.000000 0.000000
# 2 -0.022545 0.041235 -0.023809 0.000000 0.000000 0.000000
# 3 -0.029007 -0.023809 0.080474 0.000000 0.000000 0.000000
# 4 0.000000 0.000000 0.000000 0.010434 0.000000 0.000000
# 5 0.000000 0.000000 0.000000 0.000000 0.033439 0.000000
# 6 0.000000 0.000000 0.000000 0.000000 0.000000 0.136731
#
#
# Mechanical properties :
#
#
# Convention : Reuss Voigt Hill
#
# Bulk Modulus (GPa) = 49.30533 75.10747 62.20640
# Shear Modulus (GPa) = 9.82142 29.69387 19.75764
#
# Velocity S-wave (km/s) = 2.42524 4.21698 3.43982
# Velocity P-wave (km/s) = 6.11311 8.28798 7.28220
#
# Compressibility (1/GPa) = 0.02028178
#
# Stress axis : x y z
#
# Youngs Moduli (GPa) = 20.28587 24.25147 12.42642
#
# Poissons Ratio (x) = 0.54674 0.36046
# Poissons Ratio (y) = 0.45734 0.29586
# Poissons Ratio (z) = 0.58844 0.57740
#
# Static dielectric constant tensor:
#      x y z
#    x 1.553770 0.000000 0.000000 
#    y 0.000000 1.546250 0.000000 
#    z 0.000000 0.000000 1.555680 
# 
# From -- ./inp_files/12222.got.cif
#   From: 2010.05.17/outbox.cif.g08.bks.cpg/sg65_7_cif.got.tgz:12222.got - 2010.06.03 17:01:31.
