data_PCOD9491996
_publ_section_title
;
Structure prediction by ZEFSAII (Michael W. Deem and Ramdas Pophale) SiO2 
 PCOD9491996
Probable space group: C M M M
;
_chemical_formula_sum "Si O2"
_cell_formula_units_Z 72
_cell_length_a 22.643965
_cell_length_b 7.764689
_cell_length_c 19.106406
_cell_angle_alpha 90.000000
_cell_angle_beta 90.000000
_cell_angle_gamma 90.000000
_cell_volume 3359.352232
_symmetry_space_group_name_H-M "C M M M"
_symmetry_group_IT_number 65
_symmetry_cell_setting 'orthorhombic'
loop_
_space_group_symop_operation_xyz
x,y,z
-x,-y,z
x,-y,-z
-x,y,-z
-x,-y,-z
x,y,-z
-x,y,z
x,-y,z
1/2+x,1/2+y,z
1/2-x,1/2-y,z
1/2+x,1/2-y,-z
1/2-x,1/2+y,-z
1/2-x,1/2-y,-z
1/2+x,1/2+y,-z
1/2-x,1/2+y,z
1/2+x,1/2-y,z
loop_
_atom_site_type_symbol
_atom_site_label
_atom_site_fract_x
_atom_site_fract_y
_atom_site_fract_z
Si Si1 0.318437 0.794865 0.424111
Si Si2 0.066971 0.299496 0.841455
Si Si3 0.684399 0.792504 0.919309
Si Si4 0.403808 0.699957 0.313204
Si Si5 0.500000 0.289291 0.578167
O O1 0.344534 0.732372 0.500000
O O2 0.250000 0.750000 0.427629
O O3 0.341683 0.716822 0.351618
O O4 0.326477 0.000000 0.421452
O O5 0.063247 0.500000 0.862282
O O6 0.125058 0.226203 0.880789
O O7 0.082981 0.291010 0.759317
O O8 0.000000 0.226948 0.852067
O O9 0.750000 0.750000 0.890033
O O10 0.681207 0.000000 0.918905
O O11 0.683375 0.732020 0.000000
O O12 0.417507 0.500000 0.300122
O O13 0.444988 0.766476 0.375677
O O14 0.500000 0.500000 0.575277
O O15 0.500000 0.223495 0.500000
#
# Coordination Sequence:
#
# PCOD9491996 Si02
#       5
#    16  16  16  16   8
#     4  10  21  37  56  79 107 141 184 235 289 344
#     4  10  21  37  57  82 117 155 192 240 290 342
#     4   9  19  37  61  88 116 149 190 235 287 347
#     4  11  21  35  55  79 110 147 186 231 281 339
#     4   9  18  32  51  75 102 137 182 228 275 325
#
# _framework density 21.432703
#
# number of rings (size 3 to 8) (size 9 to 14) (size 15 to 20)
#    0.000    2.111    1.111    2.000    0.000    4.444 
#    0.000    4.444    0.000    2.667    0.000    4.667 
#    0.000    0.000    0.000    0.000    0.000    0.000 
#
# Total GULP energy -200632.517716 kJ/mol
# GULP energy per Si atom -5573.125492 kJ/mol
# Density = 2.138392 g / cm^3
# Si number density = 21.432703 Si / 1000 Ang^3
#
#
#
# Elastic Constant Matrix: (Units=GPa)
#
#
# Indices 1 2 3 4 5 6 
#
# 1 165.7873 -1.0616 74.3442 0.0000 0.0000 0.0000
# 2 -1.0616 42.6260 -2.8107 0.0000 0.0000 0.0000
# 3 74.3442 -2.8107 89.2689 0.0000 0.0000 0.0000
# 4 0.0000 0.0000 0.0000 15.5216 0.0000 0.0000
# 5 0.0000 0.0000 0.0000 0.0000 -39.2496 0.0000
# 6 0.0000 0.0000 0.0000 0.0000 0.0000 16.2961
#
#
#
# Elastic Compliance Matrix: (Units=1/GPa)
#
#
# Indices 1 2 3 4 5 6 
#
# 1 0.009631 -0.000290 -0.008030 0.000000 0.000000 0.000000
# 2 -0.000290 0.023517 0.000982 0.000000 0.000000 0.000000
# 3 -0.008030 0.000982 0.017920 0.000000 0.000000 0.000000
# 4 0.000000 0.000000 0.000000 0.064426 0.000000 0.000000
# 5 0.000000 0.000000 0.000000 0.000000 -0.025478 0.000000
# 6 0.000000 0.000000 0.000000 0.000000 0.000000 0.061364
#
#
# Mechanical properties :
#
#
# Convention : Reuss Voigt Hill
#
# Bulk Modulus (GPa) = 27.47778 48.73623 38.10701
# Shear Modulus (GPa) = 28.06034 13.66097 20.86066
#
# Velocity S-wave (km/s) = 3.62225 2.52740 3.12318
# Velocity P-wave (km/s) = 5.50841 5.59513 5.55194
#
# Compressibility (1/GPa) = 0.03639304
#
# Stress axis : x y z
#
# Youngs Moduli (GPa) = 103.83406 42.52175 55.80270
#
# Poissons Ratio (x) = 0.01232 0.44808
# Poissons Ratio (y) = 0.03007 -0.05478
# Poissons Ratio (z) = 0.83376 -0.04174
#
# Static dielectric constant tensor:
#      x y z
#    x 1.989860 0.000000 0.000000 
#    y 0.000000 1.817240 0.000000 
#    z 0.000000 0.000000 1.747890 
# 
# From -- ./inp_files/49481.got.cif
#   From: 2010.05.17/outbox.cif.g08.bks.cpg/sg65_25_cif.got.tgz:49481.got - 2010.06.03 17:01:31.
