data_PCOD9491212
_publ_section_title
;
Structure prediction by ZEFSAII (Michael W. Deem and Ramdas Pophale) SiO2 
 PCOD9491212
Probable space group: C M M M
;
_chemical_formula_sum "Si O2"
_cell_formula_units_Z 104
_cell_length_a 22.846406
_cell_length_b 28.222518
_cell_length_c 7.474943
_cell_angle_alpha 90.000000
_cell_angle_beta 90.000000
_cell_angle_gamma 90.000000
_cell_volume 4819.716954
_symmetry_space_group_name_H-M "C M M M"
_symmetry_group_IT_number 65
_symmetry_cell_setting 'orthorhombic'
loop_
_space_group_symop_operation_xyz
x,y,z
-x,-y,z
x,-y,-z
-x,y,-z
-x,-y,-z
x,y,-z
-x,y,z
x,-y,z
1/2+x,1/2+y,z
1/2-x,1/2-y,z
1/2+x,1/2-y,-z
1/2-x,1/2+y,-z
1/2-x,1/2-y,-z
1/2+x,1/2+y,-z
1/2-x,1/2+y,z
1/2+x,1/2-y,z
loop_
_atom_site_type_symbol
_atom_site_label
_atom_site_fract_x
_atom_site_fract_y
_atom_site_fract_z
Si Si1 0.906414 0.552400 0.795236
Si Si2 0.724424 0.056437 0.701798
Si Si3 0.568089 0.500000 0.718649
Si Si4 0.681051 0.206726 0.711284
Si Si5 0.937863 0.347476 0.215805
Si Si6 0.690818 0.313920 0.281715
Si Si7 0.148914 0.911840 0.281218
O O1 0.914441 0.500000 0.713830
O O2 0.836984 0.563674 0.796976
O O3 0.934704 0.598736 0.713408
O O4 0.926619 0.549120 0.000000
O O5 0.718001 0.076298 0.500000
O O6 0.785546 0.073933 0.776870
O O7 0.731102 0.000000 0.689251
O O8 0.500000 0.500000 0.773486
O O9 0.568894 0.500000 0.500000
O O10 0.602708 0.547906 0.776203
O O11 0.690292 0.211552 0.500000
O O12 0.621098 0.179412 0.737507
O O13 0.675926 0.260706 0.779707
O O14 0.740621 0.180845 0.775050
O O15 0.000000 0.325668 0.272537
O O16 0.937952 0.350003 0.000000
O O17 0.688903 0.315131 0.500000
O O18 0.647734 0.356562 0.225824
O O19 0.147817 0.913749 0.500000
#
# Coordination Sequence:
#
# PCOD9491212 Si02
#       7
#    16  16   8  16  16  16  16
#     4   9  18  31  46  66  92 119 151 191 229 269
#     4   9  15  24  42  68  94 120 149 183 226 274
#     4   9  16  24  34  54  91 131 158 183 222 274
#     4   9  17  32  51  72  94 121 155 193 237 282
#     4  10  21  35  49  66  92 127 160 190 229 275
#     4   8  15  27  47  70  93 118 149 192 241 286
#     4   9  14  23  39  62  91 123 153 183 225 277
#
# _framework density 21.578032
#
# number of rings (size 3 to 8) (size 9 to 14) (size 15 to 20)
#    0.000    3.000    0.769    1.846    0.000    2.462 
#    0.000    3.846    0.000    3.692    0.000    3.231 
#    0.000    1.231    0.000    0.000    0.000    0.154 
#
# Total GULP energy -289779.852099 kJ/mol
# GULP energy per Si atom -5572.689463 kJ/mol
# Density = 2.152892 g / cm^3
# Si number density = 21.578032 Si / 1000 Ang^3
#
#
#
# Elastic Constant Matrix: (Units=GPa)
#
#
# Indices 1 2 3 4 5 6 
#
# 1 126.8423 93.4554 -0.5159 0.0000 0.0000 0.0000
# 2 93.4554 146.1208 1.8718 0.0000 0.0000 0.0000
# 3 -0.5159 1.8718 57.6241 0.0000 0.0000 0.0000
# 4 0.0000 0.0000 0.0000 2.5489 0.0000 0.0000
# 5 0.0000 0.0000 0.0000 0.0000 6.8996 0.0000
# 6 0.0000 0.0000 0.0000 0.0000 0.0000 19.1918
#
#
#
# Elastic Compliance Matrix: (Units=1/GPa)
#
#
# Indices 1 2 3 4 5 6 
#
# 1 0.014921 -0.009549 0.000444 0.000000 0.000000 0.000000
# 2 -0.009549 0.012957 -0.000506 0.000000 0.000000 0.000000
# 3 0.000444 -0.000506 0.017374 0.000000 0.000000 0.000000
# 4 0.000000 0.000000 0.000000 0.392327 0.000000 0.000000
# 5 0.000000 0.000000 0.000000 0.000000 0.144936 0.000000
# 6 0.000000 0.000000 0.000000 0.000000 0.000000 0.052106
#
#
# Mechanical properties :
#
#
# Convention : Reuss Voigt Hill
#
# Bulk Modulus (GPa) = 38.41757 57.80110 48.10934
# Shear Modulus (GPa) = 7.54693 21.44645 14.49669
#
# Velocity S-wave (km/s) = 1.87219 3.15604 2.59477
# Velocity P-wave (km/s) = 4.74512 6.33451 5.59652
#
# Compressibility (1/GPa) = 0.02602976
#
# Stress axis : x y z
#
# Youngs Moduli (GPa) = 67.01950 77.17630 57.55632
#
# Poissons Ratio (x) = 0.73694 -0.02554
# Poissons Ratio (y) = 0.63996 0.02915
# Poissons Ratio (z) = -0.02974 0.03908
#
# Static dielectric constant tensor:
#      x y z
#    x 1.763780 0.000000 0.000000 
#    y 0.000000 1.825880 0.000000 
#    z 0.000000 0.000000 1.874920 
# 
# From -- ./inp_files/15050.got.cif
#   From: 2010.05.17/outbox.cif.g08.bks.cpg/sg65_8_cif.got.tgz:15050.got - 2010.06.03 17:01:31.
