data_PCOD9491233
_publ_section_title
;
Structure prediction by ZEFSAII (Michael W. Deem and Ramdas Pophale) SiO2 
 PCOD9491233
Probable space group: C M M M
;
_chemical_formula_sum "Si O2"
_cell_formula_units_Z 104
_cell_length_a 23.129943
_cell_length_b 29.015315
_cell_length_c 8.767001
_cell_angle_alpha 90.000000
_cell_angle_beta 90.000000
_cell_angle_gamma 90.000000
_cell_volume 5883.732348
_symmetry_space_group_name_H-M "C M M M"
_symmetry_group_IT_number 65
_symmetry_cell_setting 'orthorhombic'
loop_
_space_group_symop_operation_xyz
x,y,z
-x,-y,z
x,-y,-z
-x,y,-z
-x,-y,-z
x,y,-z
-x,y,z
x,-y,z
1/2+x,1/2+y,z
1/2-x,1/2-y,z
1/2+x,1/2-y,-z
1/2-x,1/2+y,-z
1/2-x,1/2-y,-z
1/2+x,1/2+y,-z
1/2-x,1/2+y,z
1/2+x,1/2-y,z
loop_
_atom_site_type_symbol
_atom_site_label
_atom_site_fract_x
_atom_site_fract_y
_atom_site_fract_z
Si Si1 0.115202 0.602175 0.316792
Si Si2 0.274389 0.053462 0.816419
Si Si3 0.000000 0.445149 0.183730
Si Si4 0.312717 0.297932 0.682760
Si Si5 0.566158 0.444828 0.325918
Si Si6 0.178512 0.304454 0.314524
Si Si7 0.337143 0.610709 0.822154
O O1 0.108979 0.602964 0.500000
O O2 0.167703 0.569095 0.267224
O O3 0.056676 0.581707 0.244970
O O4 0.137370 0.653444 0.264951
O O5 0.221068 0.085320 0.765812
O O6 0.261269 0.000000 0.786291
O O7 0.281915 0.058484 0.000000
O O8 0.000000 0.500000 0.228984
O O9 0.000000 0.444111 0.000000
O O10 0.311018 0.296526 0.500000
O O11 0.246117 0.307770 0.733339
O O12 0.335957 0.247967 0.733408
O O13 0.347938 0.341308 0.739063
O O14 0.582232 0.431808 0.500000
O O15 0.500000 0.430693 0.299695
O O16 0.568418 0.500000 0.317164
O O17 0.609999 0.422807 0.209460
O O18 0.178034 0.306151 0.500000
O O19 0.329514 0.619490 0.000000
#
# Coordination Sequence:
#
# PCOD9491233 Si02
#       7
#    16  16   8  16  16  16  16
#     4  11  21  36  59  85 107 134 182 237 277 315
#     4  10  21  35  49  72 111 150 177 208 262 328
#     4  11  25  43  59  77 109 153 189 221 278 349
#     4   9  16  32  55  79 109 143 176 211 261 321
#     4   9  19  36  56  76 100 136 183 226 263 312
#     4   8  16  31  55  82 107 136 172 218 268 317
#     4  11  21  32  50  80 113 144 176 217 266 317
#
# _framework density 17.675854000000001
#
# number of rings (size 3 to 8) (size 9 to 14) (size 15 to 20)
#    0.000    2.231    1.538    3.462    0.000    4.615 
#    0.000    3.846    1.692    0.000    0.000    0.000 
#    0.000    0.000    0.000    0.000    0.000    0.000 
#
# Total GULP energy -289844.161534 kJ/mol
# GULP energy per Si atom -5573.926183 kJ/mol
# Density = 1.763562 g / cm^3
# Si number density = 17.675854 Si / 1000 Ang^3
#
#
#
# Elastic Constant Matrix: (Units=GPa)
#
#
# Indices 1 2 3 4 5 6 
#
# 1 41.9868 37.3519 13.0653 0.0000 0.0000 0.0000
# 2 37.3519 117.1993 26.1477 0.0000 0.0000 0.0000
# 3 13.0653 26.1477 15.9892 0.0000 0.0000 0.0000
# 4 0.0000 0.0000 0.0000 -7.0222 0.0000 0.0000
# 5 0.0000 0.0000 0.0000 0.0000 26.9340 0.0000
# 6 0.0000 0.0000 0.0000 0.0000 0.0000 23.1889
#
#
#
# Elastic Compliance Matrix: (Units=1/GPa)
#
#
# Indices 1 2 3 4 5 6 
#
# 1 0.035871 -0.007703 -0.016714 0.000000 0.000000 0.000000
# 2 -0.007703 0.015088 -0.018380 0.000000 0.000000 0.000000
# 3 -0.016714 -0.018380 0.106257 0.000000 0.000000 0.000000
# 4 0.000000 0.000000 0.000000 -0.142405 0.000000 0.000000
# 5 0.000000 0.000000 0.000000 0.000000 0.037128 0.000000
# 6 0.000000 0.000000 0.000000 0.000000 0.000000 0.043124
#
#
# Mechanical properties :
#
#
# Convention : Reuss Voigt Hill
#
# Bulk Modulus (GPa) = 13.96214 36.47834 25.22024
# Shear Modulus (GPa) = 24.44632 15.19417 19.82024
#
# Velocity S-wave (km/s) = 3.72295 2.93508 3.35224
# Velocity P-wave (km/s) = 5.13777 5.67172 5.41133
#
# Compressibility (1/GPa) = 0.07162227
#
# Stress axis : x y z
#
# Youngs Moduli (GPa) = 27.87783 66.27734 9.41118
#
# Poissons Ratio (x) = 0.51055 0.15730
# Poissons Ratio (y) = 0.21475 0.17297
# Poissons Ratio (z) = 0.46594 1.21815
#
# Static dielectric constant tensor:
#      x y z
#    x 1.584920 0.000000 0.000000 
#    y 0.000000 1.634890 0.000000 
#    z 0.000000 0.000000 1.611770 
# 
# From -- ./inp_files/12422.got.cif
#   From: 2010.05.17/outbox.cif.g08.bks.cpg/sg65_7_cif.got.tgz:12422.got - 2010.06.03 17:01:31.
