data_PCOD9491715
_publ_section_title
;
Structure prediction by ZEFSAII (Michael W. Deem and Ramdas Pophale) SiO2 
 PCOD9491715
Probable space group: C M M M
;
_chemical_formula_sum "Si O2"
_cell_formula_units_Z 104
_cell_length_a 26.768896
_cell_length_b 8.735114
_cell_length_c 22.690837
_cell_angle_alpha 90.000000
_cell_angle_beta 90.000000
_cell_angle_gamma 90.000000
_cell_volume 5305.783853
_symmetry_space_group_name_H-M "C M M M"
_symmetry_group_IT_number 65
_symmetry_cell_setting 'orthorhombic'
loop_
_space_group_symop_operation_xyz
x,y,z
-x,-y,z
x,-y,-z
-x,y,-z
-x,-y,-z
x,y,-z
-x,y,z
x,-y,z
1/2+x,1/2+y,z
1/2-x,1/2-y,z
1/2+x,1/2-y,-z
1/2-x,1/2+y,-z
1/2-x,1/2-y,-z
1/2+x,1/2+y,-z
1/2-x,1/2+y,z
1/2+x,1/2-y,z
loop_
_atom_site_type_symbol
_atom_site_label
_atom_site_fract_x
_atom_site_fract_y
_atom_site_fract_z
Si Si1 0.405944 0.683646 0.366396
Si Si2 0.444291 0.316995 0.882647
Si Si3 0.300598 0.182356 0.186609
Si Si4 0.155554 0.685031 0.934927
Si Si5 0.407810 0.816807 0.238057
Si Si6 0.500000 0.824564 0.429922
Si Si7 0.804050 0.184577 0.430988
O O1 0.405628 0.500000 0.363511
O O2 0.417731 0.751458 0.302218
O O3 0.450341 0.740344 0.408011
O O4 0.351712 0.733750 0.391971
O O5 0.500000 0.278997 0.903814
O O6 0.438106 0.500000 0.883961
O O7 0.400380 0.240053 0.920130
O O8 0.438134 0.258529 0.815482
O O9 0.250000 0.250000 0.211117
O O10 0.310832 0.239492 0.119774
O O11 0.349907 0.219177 0.223245
O O12 0.296168 0.000000 0.184576
O O13 0.155833 0.500000 0.933843
O O14 0.170993 0.736941 0.000000
O O15 0.414703 0.000000 0.236190
O O16 0.500000 0.827201 0.500000
O O17 0.500000 0.000000 0.407678
O O18 0.812020 0.228166 0.500000
O O19 0.750000 0.250000 0.412594
O O20 0.801570 0.000000 0.428615
#
# Coordination Sequence:
#
# PCOD9491715 Si02
#       7
#    16  16  16  16  16   8  16
#     4  11  23  39  61  88 119 154 195 242 292 346
#     4  10  21  36  55  79 108 141 180 229 284 336
#     4   9  19  35  55  79 109 147 187 231 282 335
#     4   9  19  36  55  78 110 146 187 230 275 336
#     4  10  22  39  57  80 111 146 187 231 278 336
#     4  11  25  43  63  89 121 159 200 241 290 349
#     4   9  19  36  58  84 114 150 190 233 284 340
#
# _framework density 19.60125
#
# number of rings (size 3 to 8) (size 9 to 14) (size 15 to 20)
#    0.000    2.231    0.000    3.000    1.077    8.308 
#    0.000    6.154    0.000    0.000    0.000    0.000 
#    0.000    0.000    0.000    0.000    0.000    0.000 
#
# Total GULP energy -290317.641204 kJ/mol
# GULP energy per Si atom -5583.031562 kJ/mol
# Density = 1.955664 g / cm^3
# Si number density = 19.601250 Si / 1000 Ang^3
#
#
#
# Elastic Constant Matrix: (Units=GPa)
#
#
# Indices 1 2 3 4 5 6 
#
# 1 59.7133 1.8588 -15.8662 0.0000 0.0000 0.0000
# 2 1.8588 7.3663 1.0329 0.0000 0.0000 0.0000
# 3 -15.8662 1.0329 49.2502 0.0000 0.0000 0.0000
# 4 0.0000 0.0000 0.0000 19.2567 0.0000 0.0000
# 5 0.0000 0.0000 0.0000 0.0000 -7.6325 0.0000
# 6 0.0000 0.0000 0.0000 0.0000 0.0000 31.8503
#
#
#
# Elastic Compliance Matrix: (Units=1/GPa)
#
#
# Indices 1 2 3 4 5 6 
#
# 1 0.018536 -0.005531 0.006088 0.000000 0.000000 0.000000
# 2 -0.005531 0.137804 -0.004672 0.000000 0.000000 0.000000
# 3 0.006088 -0.004672 0.022364 0.000000 0.000000 0.000000
# 4 0.000000 0.000000 0.000000 0.051930 0.000000 0.000000
# 5 0.000000 0.000000 0.000000 0.000000 -0.131019 0.000000
# 6 0.000000 0.000000 0.000000 0.000000 0.000000 0.031397
#
#
# Mechanical properties :
#
#
# Convention : Reuss Voigt Hill
#
# Bulk Modulus (GPa) = 5.86605 10.04233 7.95419
# Shear Modulus (GPa) = 25.50151 17.31521 21.40836
#
# Velocity S-wave (km/s) = 3.61087 2.97538 3.30842
# Velocity P-wave (km/s) = 4.51483 4.11562 4.31984
#
# Compressibility (1/GPa) = 0.17047249
#
# Stress axis : x y z
#
# Youngs Moduli (GPa) = 53.94794 7.25669 44.71543
#
# Poissons Ratio (x) = 0.04014 -0.27221
# Poissons Ratio (y) = 0.29840 0.20892
# Poissons Ratio (z) = -0.32841 0.03390
#
# Static dielectric constant tensor:
#      x y z
#    x 1.696680 0.000000 0.000000 
#    y 0.000000 1.666400 0.000000 
#    z 0.000000 0.000000 1.685750 
# 
# From -- ./inp_files/65878.got.cif
#   From: 2010.05.17/outbox.cif.g08.bks.cpg/sg65_33_cif.got.tgz:65878.got - 2010.06.03 17:01:31.
