data_PCOD9491070
_publ_section_title
;
Structure prediction by ZEFSAII (Michael W. Deem and Ramdas Pophale) SiO2 
 PCOD9491070
Probable space group: C M M M
;
_chemical_formula_sum "Si O2"
_cell_formula_units_Z 64
_cell_length_a 28.409679
_cell_length_b 15.515715
_cell_length_c 7.573702
_cell_angle_alpha 90.000000
_cell_angle_beta 90.000000
_cell_angle_gamma 90.000000
_cell_volume 3338.461202
_symmetry_space_group_name_H-M "C M M M"
_symmetry_group_IT_number 65
_symmetry_cell_setting 'orthorhombic'
loop_
_space_group_symop_operation_xyz
x,y,z
-x,-y,z
x,-y,-z
-x,y,-z
-x,-y,-z
x,y,-z
-x,y,z
x,-y,z
1/2+x,1/2+y,z
1/2-x,1/2-y,z
1/2+x,1/2-y,-z
1/2-x,1/2+y,-z
1/2-x,1/2-y,-z
1/2+x,1/2+y,-z
1/2-x,1/2+y,z
1/2+x,1/2-y,z
loop_
_atom_site_type_symbol
_atom_site_label
_atom_site_fract_x
_atom_site_fract_y
_atom_site_fract_z
Si Si1 0.054838 0.334871 0.293187
Si Si2 0.113612 0.500000 0.712661
Si Si3 0.276647 0.000000 0.791618
Si Si4 0.849192 0.897450 0.000000
Si Si5 0.445951 0.690209 0.000000
Si Si6 0.780842 0.167637 0.297807
O O1 0.064902 0.316649 0.500000
O O2 0.087203 0.413352 0.229343
O O3 0.060353 0.252028 0.170119
O O4 0.000000 0.361915 0.281765
O O5 0.110501 0.500000 0.500000
O O6 0.167706 0.500000 0.765024
O O7 0.253130 0.084770 0.710854
O O8 0.266768 0.000000 0.000000
O O9 0.823787 0.854008 0.831384
O O10 0.904546 0.878688 0.000000
O O11 0.840776 0.000000 0.000000
O O12 0.500000 0.658075 0.000000
O O13 0.796131 0.182451 0.500000
O O14 0.750000 0.250000 0.240130
#
# Coordination Sequence:
#
# PCOD9491070 Si02
#       6
#    16   8   8   8   8  16
#     4   9  19  37  58  84 121 162 203 245 292 352
#     4  10  21  32  53  87 124 166 203 239 290 351
#     4  12  24  39  59  90 132 164 200 254 296 357
#     4  12  25  44  67  90 118 157 201 251 308 366
#     4  10  24  41  62  89 117 150 198 257 309 364
#     4  11  24  42  65  91 124 164 204 250 301 358
#
# _framework density 19.170508999999999
#
# number of rings (size 3 to 8) (size 9 to 14) (size 15 to 20)
#    0.000    1.500    2.500    1.875    5.250    2.750 
#    0.000    1.875    0.000    0.000    0.000    5.250 
#    0.000    0.000    0.000    0.000    0.000    0.000 
#
# Total GULP energy -178827.433214 kJ/mol
# GULP energy per Si atom -5588.357288 kJ/mol
# Density = 1.912688 g / cm^3
# Si number density = 19.170509 Si / 1000 Ang^3
#
#
#
# Elastic Constant Matrix: (Units=GPa)
#
#
# Indices 1 2 3 4 5 6 
#
# 1 114.9506 47.1151 30.4014 0.0000 0.0000 0.0000
# 2 47.1151 89.4315 14.5670 0.0000 0.0000 0.0000
# 3 30.4014 14.5670 85.3216 0.0000 0.0000 0.0000
# 4 0.0000 0.0000 0.0000 18.7550 0.0000 0.0000
# 5 0.0000 0.0000 0.0000 0.0000 15.6049 0.0000
# 6 0.0000 0.0000 0.0000 0.0000 0.0000 44.7910
#
#
#
# Elastic Compliance Matrix: (Units=1/GPa)
#
#
# Indices 1 2 3 4 5 6 
#
# 1 0.011919 -0.005747 -0.003266 0.000000 0.000000 0.000000
# 2 -0.005747 0.014273 -0.000389 0.000000 0.000000 0.000000
# 3 -0.003266 -0.000389 0.012950 0.000000 0.000000 0.000000
# 4 0.000000 0.000000 0.000000 0.053319 0.000000 0.000000
# 5 0.000000 0.000000 0.000000 0.000000 0.064082 0.000000
# 6 0.000000 0.000000 0.000000 0.000000 0.000000 0.022326
#
#
# Mechanical properties :
#
#
# Convention : Reuss Voigt Hill
#
# Bulk Modulus (GPa) = 49.16819 52.65231 50.91025
# Shear Modulus (GPa) = 24.45559 29.00486 26.73022
#
# Velocity S-wave (km/s) = 3.57555 3.89394 3.73814
# Velocity P-wave (km/s) = 6.53832 6.90955 6.72650
#
# Compressibility (1/GPa) = 0.02033835
#
# Stress axis : x y z
#
# Youngs Moduli (GPa) = 83.90197 70.06287 77.21791
#
# Poissons Ratio (x) = 0.40266 0.25216
# Poissons Ratio (y) = 0.48220 0.03004
# Poissons Ratio (z) = 0.27399 0.02726
#
# Static dielectric constant tensor:
#      x y z
#    x 1.652930 0.000000 0.000000 
#    y 0.000000 1.633370 0.000000 
#    z 0.000000 0.000000 1.689300 
# 
# From -- ./inp_files/17869.got.cif
#   From: 2010.05.17/outbox.cif.g08.bks.cpg/sg65_9_cif.got.tgz:17869.got - 2010.06.03 17:01:31.
