data_PCOD9491273
_publ_section_title
;
Structure prediction by ZEFSAII (Michael W. Deem and Ramdas Pophale) SiO2 
 PCOD9491273
Probable space group: C M M M
;
_chemical_formula_sum "Si O2"
_cell_formula_units_Z 88
_cell_length_a 10.227040
_cell_length_b 14.170961
_cell_length_c 28.414772
_cell_angle_alpha 90.000000
_cell_angle_beta 90.000000
_cell_angle_gamma 90.000000
_cell_volume 4118.067235
_symmetry_space_group_name_H-M "C M M M"
_symmetry_group_IT_number 65
_symmetry_cell_setting 'orthorhombic'
loop_
_space_group_symop_operation_xyz
x,y,z
-x,-y,z
x,-y,-z
-x,y,-z
-x,-y,-z
x,y,-z
-x,y,z
x,-y,z
1/2+x,1/2+y,z
1/2-x,1/2-y,z
1/2+x,1/2-y,-z
1/2-x,1/2+y,-z
1/2-x,1/2-y,-z
1/2+x,1/2+y,-z
1/2-x,1/2+y,z
1/2+x,1/2-y,z
loop_
_atom_site_type_symbol
_atom_site_label
_atom_site_fract_x
_atom_site_fract_y
_atom_site_fract_z
Si Si1 0.352059 0.885031 0.367797
Si Si2 0.850887 0.884871 0.820043
Si Si3 0.855849 0.390477 0.105236
Si Si4 0.149641 0.885040 0.552991
Si Si5 0.351858 0.167132 0.000000
Si Si6 0.648560 0.885114 0.739715
O O1 0.500000 0.855928 0.379741
O O2 0.247547 0.854692 0.406302
O O3 0.324386 0.855905 0.314065
O O4 0.350990 0.000000 0.367576
O O5 0.768503 0.854478 0.865966
O O6 0.761504 0.856922 0.775686
O O7 0.000000 0.850843 0.818605
O O8 0.857954 0.000000 0.819957
O O9 0.865311 0.500000 0.119188
O O10 0.835837 0.386736 0.049158
O O11 0.000000 0.347828 0.115477
O O12 0.188716 0.856837 0.500000
O O13 0.000000 0.855172 0.561216
O O14 0.149344 0.000000 0.553360
O O15 0.250000 0.250000 0.000000
O O16 0.500000 0.204091 0.000000
O O17 0.500000 0.855347 0.752594
O O18 0.646598 0.000000 0.740298
#
# Coordination Sequence:
#
# PCOD9491273 Si02
#       6
#    16  16  16  16   8  16
#     4   8  13  19  26  36  49  68  97 132 171 217
#     4   9  16  24  36  57  80  99 123 157 197 238
#     4   9  17  31  50  68  87 114 147 177 205 245
#     4   8  13  19  24  30  42  62  90 126 170 219
#     4  10  21  35  51  71  93 118 146 176 212 250
#     4   8  13  21  31  43  62  87 112 140 180 231
#
# _framework density 21.369247000000001
#
# number of rings (size 3 to 8) (size 9 to 14) (size 15 to 20)
#    0.000    3.455    0.000    2.455    0.000    5.091 
#    0.000    5.455    0.000    2.727    0.000    0.000 
#    0.000    0.000    0.000    0.000    0.000    0.000 
#
# Total GULP energy -245460.880160 kJ/mol
# GULP energy per Si atom -5578.656367 kJ/mol
# Density = 2.132061 g / cm^3
# Si number density = 21.369247 Si / 1000 Ang^3
#
#
#
# Elastic Constant Matrix: (Units=GPa)
#
#
# Indices 1 2 3 4 5 6 
#
# 1 208.9646 15.3282 147.3486 0.0000 0.0000 0.0000
# 2 15.3282 61.7893 0.8119 0.0000 0.0000 0.0000
# 3 147.3486 0.8119 169.7061 0.0000 0.0000 0.0000
# 4 0.0000 0.0000 0.0000 -20.0124 0.0000 0.0000
# 5 0.0000 0.0000 0.0000 0.0000 53.7161 0.0000
# 6 0.0000 0.0000 0.0000 0.0000 0.0000 -0.5621
#
#
#
# Elastic Compliance Matrix: (Units=1/GPa)
#
#
# Indices 1 2 3 4 5 6 
#
# 1 0.012892 -0.003051 -0.011179 0.000000 0.000000 0.000000
# 2 -0.003051 0.016907 0.002568 0.000000 0.000000 0.000000
# 3 -0.011179 0.002568 0.015587 0.000000 0.000000 0.000000
# 4 0.000000 0.000000 0.000000 -0.049969 0.000000 0.000000
# 5 0.000000 0.000000 0.000000 0.000000 0.018616 0.000000
# 6 0.000000 0.000000 0.000000 0.000000 0.000000 -1.778935
#
#
# Mechanical properties :
#
#
# Convention : Reuss Voigt Hill
#
# Bulk Modulus (GPa) = 45.32680 85.27081 65.29881
# Shear Modulus (GPa) = -2.88313 25.09306 11.10497
#
# Velocity S-wave (km/s) = -1.16281 3.43047 2.28210
# Velocity P-wave (km/s) = 4.41072 7.46197 6.12925
#
# Compressibility (1/GPa) = 0.02206200
#
# Stress axis : x y z
#
# Youngs Moduli (GPa) = 77.56709 59.14637 64.15796
#
# Poissons Ratio (x) = 0.18047 0.71722
# Poissons Ratio (y) = 0.23668 -0.16478
# Poissons Ratio (z) = 0.86713 -0.15191
#
# Static dielectric constant tensor:
#      x y z
#    x 1.747870 0.000000 0.000000 
#    y 0.000000 1.824410 0.000000 
#    z 0.000000 0.000000 1.765850 
# 
# From -- ./inp_files/76621.got.cif
#   From: 2010.05.17/outbox.cif.g08.bks.cpg/sg65_39_cif.got.tgz:76621.got - 2010.06.03 17:01:31.
