data_PCOD9491403
_publ_section_title
;
Structure prediction by ZEFSAII (Michael W. Deem and Ramdas Pophale) SiO2 
 PCOD9491403
Probable space group: C M M M
;
_chemical_formula_sum "Si O2"
_cell_formula_units_Z 120
_cell_length_a 16.924550
_cell_length_b 19.367788
_cell_length_c 20.039452
_cell_angle_alpha 90.000000
_cell_angle_beta 90.000000
_cell_angle_gamma 90.000000
_cell_volume 6568.753942
_symmetry_space_group_name_H-M "C M M M"
_symmetry_group_IT_number 65
_symmetry_cell_setting 'orthorhombic'
loop_
_space_group_symop_operation_xyz
x,y,z
-x,-y,z
x,-y,-z
-x,y,-z
-x,-y,-z
x,y,-z
-x,y,z
x,-y,z
1/2+x,1/2+y,z
1/2-x,1/2-y,z
1/2+x,1/2-y,-z
1/2-x,1/2+y,-z
1/2-x,1/2-y,-z
1/2+x,1/2+y,-z
1/2-x,1/2+y,z
1/2+x,1/2-y,z
loop_
_atom_site_type_symbol
_atom_site_label
_atom_site_fract_x
_atom_site_fract_y
_atom_site_fract_z
Si Si1 0.000000 0.078201 0.081147
Si Si2 0.906808 0.702069 0.156521
Si Si3 0.588976 0.420399 0.354799
Si Si4 0.746667 0.577288 0.281211
Si Si5 0.151031 0.168007 0.922176
Si Si6 0.204650 0.580666 0.872963
Si Si7 0.169268 0.288999 0.701223
Si Si8 0.906445 0.217021 0.573642
O O1 0.078490 0.119195 0.100452
O O2 0.000000 0.000000 0.106645
O O3 0.000000 0.075159 0.000000
O O4 0.856768 0.762074 0.119944
O O5 0.873789 0.627798 0.131824
O O6 0.888801 0.709595 0.235492
O O7 0.000000 0.709947 0.143074
O O8 0.500000 0.409577 0.328386
O O9 0.594803 0.500000 0.376783
O O10 0.656034 0.408021 0.299826
O O11 0.601658 0.364891 0.412731
O O12 0.764850 0.500000 0.304069
O O13 0.760796 0.580609 0.202345
O O14 0.803065 0.633417 0.313860
O O15 0.230687 0.123724 0.914291
O O16 0.140065 0.185368 0.000000
O O17 0.194697 0.500000 0.893172
O O18 0.250000 0.250000 0.721971
O O19 0.134715 0.254018 0.635579
O O20 0.876063 0.235069 0.500000
O O21 0.000000 0.232479 0.575744
#
# Coordination Sequence:
#
# PCOD9491403 Si02
#       8
#     8  16  16  16  16  16  16  16
#     4   9  18  34  56  82 115 153 188 226 275 336
#     4  11  23  39  61  87 116 156 200 243 297 351
#     4   9  17  31  51  76 109 146 180 216 266 331
#     4   9  18  35  54  77 112 145 182 232 281 334
#     4  11  22  39  60  86 121 155 192 236 287 351
#     4  10  22  39  59  85 116 151 196 246 294 344
#     4  11  20  36  57  84 112 147 188 241 290 342
#     4  10  21  35  53  79 111 149 189 231 282 342
#
# _framework density 18.268305000000002
#
# number of rings (size 3 to 8) (size 9 to 14) (size 15 to 20)
#    0.000    1.933    2.000    2.800    0.000    2.667 
#    1.200    1.333    0.000    1.600    0.000    2.800 
#    0.000    0.000    0.000    0.000    0.000    0.000 
#
# Total GULP energy -334677.285955 kJ/mol
# GULP energy per Si atom -5577.954766 kJ/mol
# Density = 1.822673 g / cm^3
# Si number density = 18.268305 Si / 1000 Ang^3
#
#
#
# Elastic Constant Matrix: (Units=GPa)
#
#
# Indices 1 2 3 4 5 6 
#
# 1 55.6813 32.7922 26.7317 0.0000 0.0000 0.0000
# 2 32.7922 113.7159 41.1554 0.0000 0.0000 0.0000
# 3 26.7317 41.1554 45.2832 0.0000 0.0000 0.0000
# 4 0.0000 0.0000 0.0000 10.0376 0.0000 0.0000
# 5 0.0000 0.0000 0.0000 0.0000 18.5664 0.0000
# 6 0.0000 0.0000 0.0000 0.0000 0.0000 27.5055
#
#
#
# Elastic Compliance Matrix: (Units=1/GPa)
#
#
# Indices 1 2 3 4 5 6 
#
# 1 0.025671 -0.002858 -0.012556 0.000000 0.000000 0.000000
# 2 -0.002858 0.013422 -0.010511 0.000000 0.000000 0.000000
# 3 -0.012556 -0.010511 0.039049 0.000000 0.000000 0.000000
# 4 0.000000 0.000000 0.000000 0.099625 0.000000 0.000000
# 5 0.000000 0.000000 0.000000 0.000000 0.053861 0.000000
# 6 0.000000 0.000000 0.000000 0.000000 0.000000 0.036356
#
#
# Mechanical properties :
#
#
# Convention : Reuss Voigt Hill
#
# Bulk Modulus (GPa) = 38.03765 46.22656 42.13210
# Shear Modulus (GPa) = 15.21608 18.82197 17.01903
#
# Velocity S-wave (km/s) = 2.88917 3.21332 3.05555
# Velocity P-wave (km/s) = 5.65655 6.25511 5.96335
#
# Compressibility (1/GPa) = 0.02628974
#
# Stress axis : x y z
#
# Youngs Moduli (GPa) = 38.95478 74.50251 25.60902
#
# Poissons Ratio (x) = 0.21296 0.32155
# Poissons Ratio (y) = 0.11135 0.26919
# Poissons Ratio (z) = 0.48912 0.78313
#
# Static dielectric constant tensor:
#      x y z
#    x 1.630260 0.000000 0.000000 
#    y 0.000000 1.659750 0.000000 
#    z 0.000000 0.000000 1.608230 
# 
# From -- ./inp_files/63991.got.cif
#   From: 2010.05.17/outbox.cif.g08.bks.cpg/sg65_32_cif.got.tgz:63991.got - 2010.06.03 17:01:31.
