data_PCOD9491838
_publ_section_title
;
Structure prediction by ZEFSAII (Michael W. Deem and Ramdas Pophale) SiO2 
 PCOD9491838
Probable space group: C M M M
;
_chemical_formula_sum "Si O2"
_cell_formula_units_Z 88
_cell_length_a 16.011330
_cell_length_b 16.231865
_cell_length_c 14.891804
_cell_angle_alpha 90.000000
_cell_angle_beta 90.000000
_cell_angle_gamma 90.000000
_cell_volume 3870.286742
_symmetry_space_group_name_H-M "C M M M"
_symmetry_group_IT_number 65
_symmetry_cell_setting 'orthorhombic'
loop_
_space_group_symop_operation_xyz
x,y,z
-x,-y,z
x,-y,-z
-x,y,-z
-x,-y,-z
x,y,-z
-x,y,z
x,-y,z
1/2+x,1/2+y,z
1/2-x,1/2-y,z
1/2+x,1/2-y,-z
1/2-x,1/2+y,-z
1/2-x,1/2-y,-z
1/2+x,1/2+y,-z
1/2-x,1/2+y,z
1/2+x,1/2-y,z
loop_
_atom_site_type_symbol
_atom_site_label
_atom_site_fract_x
_atom_site_fract_y
_atom_site_fract_z
Si Si1 0.652768 0.095139 0.098017
Si Si2 0.412590 0.598472 0.394336
Si Si3 0.242240 0.653120 0.600552
Si Si4 0.817509 0.824065 0.893333
Si Si5 0.500000 0.400390 0.109833
Si Si6 0.410331 0.099635 0.282224
O O1 0.751809 0.100822 0.115882
O O2 0.603796 0.132233 0.181500
O O3 0.628314 0.000000 0.094029
O O4 0.634784 0.131556 0.000000
O O5 0.410363 0.625242 0.500000
O O6 0.500000 0.628666 0.354998
O O7 0.413765 0.500000 0.395126
O O8 0.326895 0.625240 0.351376
O O9 0.237295 0.616158 0.500000
O O10 0.250000 0.750000 0.592571
O O11 0.162584 0.629401 0.655522
O O12 0.750000 0.750000 0.861746
O O13 0.911684 0.853023 0.862540
O O14 0.827714 0.808993 0.000000
O O15 0.500000 0.500000 0.136930
O O16 0.500000 0.401034 0.000000
O O17 0.500000 0.125792 0.317055
O O18 0.407538 0.000000 0.279665
#
# Coordination Sequence:
#
# PCOD9491838 Si02
#       6
#    16  16  16  16   8  16
#     4   9  18  35  59  83 111 154 207 259 309 362
#     4   8  14  27  50  78 105 137 180 227 274 327
#     4  10  21  36  57  85 118 155 190 232 290 355
#     4   9  17  30  50  80 115 149 189 247 313 372
#     4   9  16  28  50  78 107 147 198 246 303 378
#     4  10  22  39  59  85 118 158 201 247 299 359
#
# _framework density 22.737334000000001
#
# number of rings (size 3 to 8) (size 9 to 14) (size 15 to 20)
#    0.000    2.818    0.000    1.636    0.000    5.455 
#    1.636    4.545    2.000    0.000    0.000    0.000 
#    0.000    0.000    0.000    0.000    0.000    0.000 
#
# Total GULP energy -244942.912842 kJ/mol
# GULP energy per Si atom -5566.884383 kJ/mol
# Density = 2.268558 g / cm^3
# Si number density = 22.737334 Si / 1000 Ang^3
#
#
#
# Elastic Constant Matrix: (Units=GPa)
#
#
# Indices 1 2 3 4 5 6 
#
# 1 234.6149 42.8242 64.7765 0.0000 0.0000 0.0000
# 2 42.8242 56.8060 6.5545 0.0000 0.0000 0.0000
# 3 64.7765 6.5545 55.3577 0.0000 0.0000 0.0000
# 4 0.0000 0.0000 0.0000 -3.7103 0.0000 0.0000
# 5 0.0000 0.0000 0.0000 0.0000 26.9165 0.0000
# 6 0.0000 0.0000 0.0000 0.0000 0.0000 82.9877
#
#
#
# Elastic Compliance Matrix: (Units=1/GPa)
#
#
# Indices 1 2 3 4 5 6 
#
# 1 0.007312 -0.004588 -0.008013 0.000000 0.000000 0.000000
# 2 -0.004588 0.020726 0.002914 0.000000 0.000000 0.000000
# 3 -0.008013 0.002914 0.027096 0.000000 0.000000 0.000000
# 4 0.000000 0.000000 0.000000 -0.269521 0.000000 0.000000
# 5 0.000000 0.000000 0.000000 0.000000 0.037152 0.000000
# 6 0.000000 0.000000 0.000000 0.000000 0.000000 0.012050
#
#
# Mechanical properties :
#
#
# Convention : Reuss Voigt Hill
#
# Bulk Modulus (GPa) = 27.96350 63.89877 45.93113
# Shear Modulus (GPa) = -37.34340 36.74700 -0.29820
#
# Velocity S-wave (km/s) = -4.05703 4.02450 -0.36254
# Velocity P-wave (km/s) = 3.10174 7.05404 4.47988
#
# Compressibility (1/GPa) = 0.03576091
#
# Stress axis : x y z
#
# Youngs Moduli (GPa) = 136.76032 48.24842 36.90636
#
# Poissons Ratio (x) = 0.22135 0.29573
# Poissons Ratio (y) = 0.62742 -0.10756
# Poissons Ratio (z) = 1.09586 -0.14061
#
# Static dielectric constant tensor:
#      x y z
#    x 1.878950 0.000000 0.000000 
#    y 0.000000 1.899690 0.000000 
#    z 0.000000 0.000000 1.899280 
# 
# From -- ./inp_files/53039.got.cif
#   From: 2010.05.17/outbox.cif.g08.bks.cpg/sg65_27_cif.got.tgz:53039.got - 2010.06.03 17:01:31.
