data_PCOD9491016
_publ_section_title
;
Structure prediction by ZEFSAII (Michael W. Deem and Ramdas Pophale) SiO2 
 PCOD9491016
Probable space group: C M M M
;
_chemical_formula_sum "Si O2"
_cell_formula_units_Z 66
_cell_length_a 26.352864
_cell_length_b 14.959153
_cell_length_c 8.279451
_cell_angle_alpha 90.000000
_cell_angle_beta 90.000000
_cell_angle_gamma 90.000000
_cell_volume 3263.896399
_symmetry_space_group_name_H-M "C M M M"
_symmetry_group_IT_number 65
_symmetry_cell_setting 'orthorhombic'
loop_
_space_group_symop_operation_xyz
x,y,z
-x,-y,z
x,-y,-z
-x,y,-z
-x,-y,-z
x,y,-z
-x,y,z
x,-y,z
1/2+x,1/2+y,z
1/2-x,1/2-y,z
1/2+x,1/2-y,-z
1/2-x,1/2+y,-z
1/2-x,1/2-y,-z
1/2+x,1/2+y,-z
1/2-x,1/2+y,z
1/2+x,1/2-y,z
loop_
_atom_site_type_symbol
_atom_site_label
_atom_site_fract_x
_atom_site_fract_y
_atom_site_fract_z
Si Si1 0.643548 0.851565 0.687761
Si Si2 0.558720 0.500000 0.806921
Si Si3 0.425349 0.000000 0.183070
Si Si4 0.140058 0.858000 0.692589
Si Si5 0.250163 0.641334 0.183013
Si Si6 0.500000 0.000000 0.500000
O O1 0.629432 0.860221 0.500000
O O2 0.636744 0.747315 0.733197
O O3 0.701974 0.881488 0.708488
O O4 0.609271 0.912609 0.798735
O O5 0.500000 0.500000 0.747157
O O6 0.592199 0.414835 0.752318
O O7 0.556840 0.500000 0.000000
O O8 0.457588 0.000000 0.350272
O O9 0.446940 0.000000 0.000000
O O10 0.142573 0.865743 0.500000
O O11 0.194345 0.889429 0.761845
O O12 0.250000 0.750000 0.185792
O O13 0.240792 0.612356 0.000000
#
# Coordination Sequence:
#
# PCOD9491016 Si02
#       6
#    16   8   8  16  16   2
#     4  10  20  39  63  94 131 164 203 257 312 377
#     4  11  25  44  61  83 118 158 210 271 312 362
#     4  12  25  44  70  94 126 166 210 264 319 378
#     4  10  21  38  63  90 124 165 205 252 315 373
#     4   9  17  31  56  91 128 162 201 247 303 377
#     4  12  26  52  64  90 128 158 214 272 314 378
#
# _framework density 20.221229999999998
#
# number of rings (size 3 to 8) (size 9 to 14) (size 15 to 20)
#    0.000    1.818    1.212    2.727    0.000    7.758 
#    2.182    4.848    0.000    0.000    0.000    0.000 
#    0.000    0.000    0.000    0.000    0.000    0.000 
#
# Total GULP energy -183878.111307 kJ/mol
# GULP energy per Si atom -5572.063979 kJ/mol
# Density = 2.017521 g / cm^3
# Si number density = 20.221230 Si / 1000 Ang^3
#
#
#
# Elastic Constant Matrix: (Units=GPa)
#
#
# Indices 1 2 3 4 5 6 
#
# 1 155.8953 60.3555 44.3698 0.0000 0.0000 0.0000
# 2 60.3555 89.8496 40.0353 0.0000 0.0000 0.0000
# 3 44.3698 40.0353 101.3768 0.0000 0.0000 0.0000
# 4 0.0000 0.0000 0.0000 6.6509 0.0000 0.0000
# 5 0.0000 0.0000 0.0000 0.0000 0.2622 0.0000
# 6 0.0000 0.0000 0.0000 0.0000 0.0000 -30.8512
#
#
#
# Elastic Compliance Matrix: (Units=1/GPa)
#
#
# Indices 1 2 3 4 5 6 
#
# 1 0.008953 -0.005179 -0.001873 0.000000 0.000000 0.000000
# 2 -0.005179 0.016503 -0.004250 0.000000 0.000000 0.000000
# 3 -0.001873 -0.004250 0.012362 0.000000 0.000000 0.000000
# 4 0.000000 0.000000 0.000000 0.150355 0.000000 0.000000
# 5 0.000000 0.000000 0.000000 0.000000 3.814226 0.000000
# 6 0.000000 0.000000 0.000000 0.000000 0.000000 -0.032414
#
#
# Mechanical properties :
#
#
# Convention : Reuss Voigt Hill
#
# Bulk Modulus (GPa) = 65.73472 70.73809 68.23640
# Shear Modulus (GPa) = 1.25073 8.70313 4.97693
#
# Velocity S-wave (km/s) = 0.78732 2.07685 1.57054
# Velocity P-wave (km/s) = 5.77969 6.38820 6.09155
#
# Compressibility (1/GPa) = 0.01521266
#
# Stress axis : x y z
#
# Youngs Moduli (GPa) = 111.69600 60.59579 80.88996
#
# Poissons Ratio (x) = 0.31385 0.15151
# Poissons Ratio (y) = 0.57852 0.34381
# Poissons Ratio (z) = 0.20921 0.25755
#
# Static dielectric constant tensor:
#      x y z
#    x 1.709890 0.000000 0.000000 
#    y 0.000000 1.736000 0.000000 
#    z 0.000000 0.000000 1.695930 
# 
# From -- ./inp_files/15686.got.cif
#   From: 2010.05.17/outbox.cif.g08.bks.cpg/sg65_8_cif.got.tgz:15686.got - 2010.06.03 17:01:31.
