data_PCOD9491758
_publ_section_title
;
Structure prediction by ZEFSAII (Michael W. Deem and Ramdas Pophale) SiO2 
 PCOD9491758
Probable space group: C M M M
;
_chemical_formula_sum "Si O2"
_cell_formula_units_Z 72
_cell_length_a 14.620294
_cell_length_b 21.063655
_cell_length_c 13.934642
_cell_angle_alpha 90.000000
_cell_angle_beta 90.000000
_cell_angle_gamma 90.000000
_cell_volume 4291.268161
_symmetry_space_group_name_H-M "C M M M"
_symmetry_group_IT_number 65
_symmetry_cell_setting 'orthorhombic'
loop_
_space_group_symop_operation_xyz
x,y,z
-x,-y,z
x,-y,-z
-x,y,-z
-x,-y,-z
x,y,-z
-x,y,z
x,-y,z
1/2+x,1/2+y,z
1/2-x,1/2-y,z
1/2+x,1/2-y,-z
1/2-x,1/2+y,-z
1/2-x,1/2-y,-z
1/2+x,1/2+y,-z
1/2-x,1/2+y,z
1/2+x,1/2-y,z
loop_
_atom_site_type_symbol
_atom_site_label
_atom_site_fract_x
_atom_site_fract_y
_atom_site_fract_z
Si Si1 0.889993 0.640873 0.114016
Si Si2 0.389526 0.000000 0.889852
Si Si3 0.000000 0.120970 0.383842
Si Si4 0.688217 0.189147 0.702207
Si Si5 0.800588 0.072643 0.383757
Si Si6 0.500000 0.231879 0.614567
O O1 0.865081 0.569049 0.148527
O O2 0.834109 0.685622 0.184500
O O3 0.000000 0.649194 0.125732
O O4 0.871690 0.646804 0.000000
O O5 0.500000 0.000000 0.892171
O O6 0.357555 0.000000 0.000000
O O7 0.093900 0.086721 0.355380
O O8 0.000000 0.121323 0.500000
O O9 0.000000 0.194441 0.351755
O O10 0.750000 0.250000 0.679181
O O11 0.738438 0.126299 0.664242
O O12 0.590675 0.197803 0.651535
O O13 0.794466 0.078780 0.500000
O O14 0.776284 0.000000 0.358923
O O15 0.500000 0.232548 0.500000
#
# Coordination Sequence:
#
# PCOD9491758 Si02
#       6
#    16   8   8  16  16   8
#     4   9  18  34  54  76 104 136 174 221 269 318
#     4   7  12  26  50  74  94 125 166 207 255 310
#     4   9  17  34  59  78 103 142 185 231 263 301
#     4  12  23  35  55  82 110 142 182 221 273 330
#     4  10  21  36  55  82 112 143 183 228 270 314
#     4  11  22  37  54  78 111 148 185 218 265 323
#
# _framework density 16.778255999999999
#
# number of rings (size 3 to 8) (size 9 to 14) (size 15 to 20)
#    0.000    2.111    3.333    2.333    1.556    2.667 
#    0.000    0.556    0.000    2.000    0.000    0.000 
#    0.000    1.778    0.000    0.000    0.000    0.000 
#
# Total GULP energy -200560.245062 kJ/mol
# GULP energy per Si atom -5571.117918 kJ/mol
# Density = 1.674007 g / cm^3
# Si number density = 16.778256 Si / 1000 Ang^3
#
#
#
# Elastic Constant Matrix: (Units=GPa)
#
#
# Indices 1 2 3 4 5 6 
#
# 1 105.8122 64.9620 37.4665 0.0000 0.0000 0.0000
# 2 64.9620 111.7418 35.0874 0.0000 0.0000 0.0000
# 3 37.4665 35.0874 57.9711 0.0000 0.0000 0.0000
# 4 0.0000 0.0000 0.0000 23.1271 0.0000 0.0000
# 5 0.0000 0.0000 0.0000 0.0000 7.6907 0.0000
# 6 0.0000 0.0000 0.0000 0.0000 0.0000 21.0801
#
#
#
# Elastic Compliance Matrix: (Units=1/GPa)
#
#
# Indices 1 2 3 4 5 6 
#
# 1 0.016170 -0.007555 -0.005878 0.000000 0.000000 0.000000
# 2 -0.007555 0.014579 -0.003941 0.000000 0.000000 0.000000
# 3 -0.005878 -0.003941 0.023434 0.000000 0.000000 0.000000
# 4 0.000000 0.000000 0.000000 0.043239 0.000000 0.000000
# 5 0.000000 0.000000 0.000000 0.000000 0.130028 0.000000
# 6 0.000000 0.000000 0.000000 0.000000 0.000000 0.047438
#
#
# Mechanical properties :
#
#
# Convention : Reuss Voigt Hill
#
# Bulk Modulus (GPa) = 51.45348 61.17297 56.31322
# Shear Modulus (GPa) = 15.81699 19.58020 17.69860
#
# Velocity S-wave (km/s) = 3.07369 3.41984 3.25137
# Velocity P-wave (km/s) = 6.58256 7.22029 6.90879
#
# Compressibility (1/GPa) = 0.01943503
#
# Stress axis : x y z
#
# Youngs Moduli (GPa) = 61.84152 68.59214 42.67224
#
# Poissons Ratio (x) = 0.51822 0.25083
# Poissons Ratio (y) = 0.46721 0.16818
# Poissons Ratio (z) = 0.36351 0.27034
#
# Static dielectric constant tensor:
#      x y z
#    x 1.545380 0.000000 0.000000 
#    y 0.000000 1.590770 0.000000 
#    z 0.000000 0.000000 1.557540 
# 
# From -- ./inp_files/39859.got.cif
#   From: 2010.05.17/outbox.cif.g08.bks.cpg/sg65_20_cif.got.tgz:39859.got - 2010.06.03 17:01:31.
