data_PCOD9491173
_publ_section_title
;
Structure prediction by ZEFSAII (Michael W. Deem and Ramdas Pophale) SiO2 
 PCOD9491173
Probable space group: C M M M
;
_chemical_formula_sum "Si O2"
_cell_formula_units_Z 100
_cell_length_a 21.107101
_cell_length_b 29.493127
_cell_length_c 7.598164
_cell_angle_alpha 90.000000
_cell_angle_beta 90.000000
_cell_angle_gamma 90.000000
_cell_volume 4729.966583
_symmetry_space_group_name_H-M "C M M M"
_symmetry_group_IT_number 65
_symmetry_cell_setting 'orthorhombic'
loop_
_space_group_symop_operation_xyz
x,y,z
-x,-y,z
x,-y,-z
-x,y,-z
-x,-y,-z
x,y,-z
-x,y,z
x,-y,z
1/2+x,1/2+y,z
1/2-x,1/2-y,z
1/2+x,1/2-y,-z
1/2-x,1/2+y,-z
1/2-x,1/2-y,-z
1/2+x,1/2+y,-z
1/2-x,1/2+y,z
1/2+x,1/2-y,z
loop_
_atom_site_type_symbol
_atom_site_label
_atom_site_fract_x
_atom_site_fract_y
_atom_site_fract_z
Si Si1 0.105013 0.728289 0.803373
Si Si2 0.808898 0.805392 0.286524
Si Si3 0.500000 0.245643 0.500000
Si Si4 0.180229 0.647391 0.707611
Si Si5 0.931982 0.142893 0.705353
Si Si6 0.873719 0.948926 0.212824
Si Si7 0.227761 0.448991 0.787984
O O1 0.171524 0.754924 0.768350
O O2 0.055627 0.742834 0.654783
O O3 0.122329 0.675126 0.789069
O O4 0.083296 0.738796 0.000000
O O5 0.806414 0.806406 0.500000
O O6 0.745952 0.830545 0.223594
O O7 0.869889 0.833632 0.220805
O O8 0.176626 0.656307 0.500000
O O9 0.185354 0.593499 0.733622
O O10 0.935253 0.156447 0.500000
O O11 0.919117 0.089538 0.715648
O O12 0.000000 0.154252 0.784796
O O13 0.800754 0.940718 0.270180
O O14 0.890886 0.000000 0.264370
O O15 0.875081 0.946631 0.000000
O O16 0.209691 0.500000 0.728888
O O17 0.228849 0.449842 0.000000
#
# Coordination Sequence:
#
# PCOD9491173 Si02
#       7
#    16  16   4  16  16  16  16
#     4  12  26  43  70  96 125 175 211 252 324 380
#     4  10  21  38  60  87 126 168 210 271 319 362
#     4  12  26  52  66  94 137 158 209 276 294 386
#     4  11  21  38  63  95 131 166 209 267 322 372
#     4  10  21  34  51  74 106 154 204 256 313 363
#     4   9  18  33  50  70 103 148 198 258 315 362
#     4   9  18  33  55  85 122 160 203 260 320 379
#
# _framework density 21.141798000000001
#
# number of rings (size 3 to 8) (size 9 to 14) (size 15 to 20)
#    0.000    1.760    3.200    2.160    1.120    5.120 
#    0.000    3.200    0.000    0.000    0.000    1.120 
#    0.000    2.560    0.000    0.000    0.000    0.000 
#
# Total GULP energy -278868.393595 kJ/mol
# GULP energy per Si atom -5577.367872 kJ/mol
# Density = 2.109368 g / cm^3
# Si number density = 21.141798 Si / 1000 Ang^3
#
#
#
# Elastic Constant Matrix: (Units=GPa)
#
#
# Indices 1 2 3 4 5 6 
#
# 1 32.2465 24.3156 18.7793 0.0000 0.0000 0.0000
# 2 24.3156 112.0127 2.3657 0.0000 0.0000 0.0000
# 3 18.7793 2.3657 104.4892 0.0000 0.0000 0.0000
# 4 0.0000 0.0000 0.0000 29.1095 0.0000 0.0000
# 5 0.0000 0.0000 0.0000 0.0000 6.5998 0.0000
# 6 0.0000 0.0000 0.0000 0.0000 0.0000 -11.0263
#
#
#
# Elastic Compliance Matrix: (Units=1/GPa)
#
#
# Indices 1 2 3 4 5 6 
#
# 1 0.042063 -0.008976 -0.007357 0.000000 0.000000 0.000000
# 2 -0.008976 0.010847 0.001368 0.000000 0.000000 0.000000
# 3 -0.007357 0.001368 0.010862 0.000000 0.000000 0.000000
# 4 0.000000 0.000000 0.000000 0.034353 0.000000 0.000000
# 5 0.000000 0.000000 0.000000 0.000000 0.151519 0.000000
# 6 0.000000 0.000000 0.000000 0.000000 0.000000 -0.090693
#
#
# Mechanical properties :
#
#
# Convention : Reuss Voigt Hill
#
# Bulk Modulus (GPa) = 29.54855 37.74107 33.64481
# Shear Modulus (GPa) = 24.97970 18.48913 21.73441
#
# Velocity S-wave (km/s) = 3.44107 2.96045 3.20977
# Velocity P-wave (km/s) = 5.45845 5.43837 5.44842
#
# Compressibility (1/GPa) = 0.03384261
#
# Stress axis : x y z
#
# Youngs Moduli (GPa) = 23.77358 92.19043 92.06766
#
# Poissons Ratio (x) = 0.82747 0.67731
# Poissons Ratio (y) = 0.21338 -0.12591
# Poissons Ratio (z) = 0.17489 -0.12608
#
# Static dielectric constant tensor:
#      x y z
#    x 1.752160 0.000000 0.000000 
#    y 0.000000 1.821230 0.000000 
#    z 0.000000 0.000000 1.796880 
# 
# From -- ./inp_files/12849.got.cif
#   From: 2010.05.17/outbox.cif.g08.bks.cpg/sg65_7_cif.got.tgz:12849.got - 2010.06.03 17:01:31.
