data_PCOD9491160
_publ_section_title
;
Structure prediction by ZEFSAII (Michael W. Deem and Ramdas Pophale) SiO2 
 PCOD9491160
Probable space group: C M M M
;
_chemical_formula_sum "Si O2"
_cell_formula_units_Z 96
_cell_length_a 19.318592
_cell_length_b 14.794795
_cell_length_c 18.562865
_cell_angle_alpha 90.000000
_cell_angle_beta 90.000000
_cell_angle_gamma 90.000000
_cell_volume 5305.537989
_symmetry_space_group_name_H-M "C M M M"
_symmetry_group_IT_number 65
_symmetry_cell_setting 'orthorhombic'
loop_
_space_group_symop_operation_xyz
x,y,z
-x,-y,z
x,-y,-z
-x,y,-z
-x,-y,-z
x,y,-z
-x,y,z
x,-y,z
1/2+x,1/2+y,z
1/2-x,1/2-y,z
1/2+x,1/2-y,-z
1/2-x,1/2+y,-z
1/2-x,1/2-y,-z
1/2+x,1/2+y,-z
1/2-x,1/2+y,z
1/2+x,1/2-y,z
loop_
_atom_site_type_symbol
_atom_site_label
_atom_site_fract_x
_atom_site_fract_y
_atom_site_fract_z
Si Si1 0.921873 0.391161 0.698903
Si Si2 0.780709 0.150137 0.079517
Si Si3 0.422062 0.391220 0.151581
Si Si4 0.853236 0.891213 0.695998
Si Si5 0.214820 0.604682 0.228335
Si Si6 0.582224 0.258220 0.582962
O O1 0.919857 0.500000 0.688882
O O2 0.861324 0.359956 0.753328
O O3 0.909064 0.336449 0.625330
O O4 0.000000 0.368826 0.723853
O O5 0.750000 0.250000 0.075842
O O6 0.860880 0.149799 0.103577
O O7 0.738482 0.107939 0.145745
O O8 0.773866 0.108729 0.000000
O O9 0.500000 0.361319 0.135036
O O10 0.418133 0.500000 0.141178
O O11 0.403651 0.375440 0.235489
O O12 0.777918 0.858031 0.723838
O O13 0.878619 0.835072 0.628003
O O14 0.852053 0.000000 0.683310
O O15 0.212214 0.500000 0.248526
O O16 0.604296 0.252942 0.500000
O O17 0.500000 0.278501 0.584489
#
# Coordination Sequence:
#
# PCOD9491160 Si02
#       6
#    16  16  16  16  16  16
#     4   9  19  36  56  77 100 130 177 231 268 300
#     4  10  21  34  49  76 111 142 171 208 262 321
#     4   9  18  33  55  80 103 137 184 225 263 308
#     4   9  18  33  52  77 110 141 172 211 255 313
#     4   9  19  35  56  78  98 133 179 215 257 310
#     4  10  21  34  51  78 106 138 176 208 258 322
#
# _framework density 18.0943
#
# number of rings (size 3 to 8) (size 9 to 14) (size 15 to 20)
#    0.000    2.667    0.000    2.000    4.667    3.333 
#    0.000    5.000    0.000    4.500    0.000    2.333 
#    0.000    0.000    0.000    0.000    0.000    0.000 
#
# Total GULP energy -267437.797043 kJ/mol
# GULP energy per Si atom -5571.620772 kJ/mol
# Density = 1.805312 g / cm^3
# Si number density = 18.094300 Si / 1000 Ang^3
#
#
#
# Elastic Constant Matrix: (Units=GPa)
#
#
# Indices 1 2 3 4 5 6 
#
# 1 144.1135 41.8739 85.8413 0.0000 0.0000 0.0000
# 2 41.8739 38.6992 13.2253 0.0000 0.0000 0.0000
# 3 85.8413 13.2253 115.2360 0.0000 0.0000 0.0000
# 4 0.0000 0.0000 0.0000 36.1119 0.0000 0.0000
# 5 0.0000 0.0000 0.0000 0.0000 12.4746 0.0000
# 6 0.0000 0.0000 0.0000 0.0000 0.0000 24.7517
#
#
#
# Elastic Compliance Matrix: (Units=1/GPa)
#
#
# Indices 1 2 3 4 5 6 
#
# 1 0.019015 -0.016376 -0.012285 0.000000 0.000000 0.000000
# 2 -0.016376 0.040999 0.007494 0.000000 0.000000 0.000000
# 3 -0.012285 0.007494 0.016969 0.000000 0.000000 0.000000
# 4 0.000000 0.000000 0.000000 0.027692 0.000000 0.000000
# 5 0.000000 0.000000 0.000000 0.000000 0.080163 0.000000
# 6 0.000000 0.000000 0.000000 0.000000 0.000000 0.040401
#
#
# Mechanical properties :
#
#
# Convention : Reuss Voigt Hill
#
# Bulk Modulus (GPa) = 28.86186 64.43664 46.64925
# Shear Modulus (GPa) = 17.91318 25.14153 21.52735
#
# Velocity S-wave (km/s) = 3.14982 3.73161 3.45299
# Velocity P-wave (km/s) = 5.40499 7.36583 6.46024
#
# Compressibility (1/GPa) = 0.03464780
#
# Stress axis : x y z
#
# Youngs Moduli (GPa) = 52.59007 24.39067 58.93029
#
# Poissons Ratio (x) = 0.39943 0.72397
# Poissons Ratio (y) = 0.86124 -0.44161
# Poissons Ratio (z) = 0.64608 -0.18278
#
# Static dielectric constant tensor:
#      x y z
#    x 1.653270 0.000000 0.000000 
#    y 0.000000 1.655970 0.000000 
#    z 0.000000 0.000000 1.604610 
# 
# From -- ./inp_files/44110.got.cif
#   From: 2010.05.17/outbox.cif.g08.bks.cpg/sg65_23_cif.got.tgz:44110.got - 2010.06.03 17:01:31.
