data_PCOD9491752
_publ_section_title
;
Structure prediction by ZEFSAII (Michael W. Deem and Ramdas Pophale) SiO2 
 PCOD9491752
Probable space group: C M M M
;
_chemical_formula_sum "Si O2"
_cell_formula_units_Z 100
_cell_length_a 30.700941
_cell_length_b 8.142795
_cell_length_c 20.449902
_cell_angle_alpha 90.000000
_cell_angle_beta 90.000000
_cell_angle_gamma 90.000000
_cell_volume 5112.301039
_symmetry_space_group_name_H-M "C M M M"
_symmetry_group_IT_number 65
_symmetry_cell_setting 'orthorhombic'
loop_
_space_group_symop_operation_xyz
x,y,z
-x,-y,z
x,-y,-z
-x,y,-z
-x,-y,-z
x,y,-z
-x,y,z
x,-y,z
1/2+x,1/2+y,z
1/2-x,1/2-y,z
1/2+x,1/2-y,-z
1/2-x,1/2+y,-z
1/2-x,1/2-y,-z
1/2+x,1/2+y,-z
1/2-x,1/2+y,z
1/2+x,1/2-y,z
loop_
_atom_site_type_symbol
_atom_site_label
_atom_site_fract_x
_atom_site_fract_y
_atom_site_fract_z
Si Si1 0.796774 0.197595 0.208075
Si Si2 0.951045 0.697339 0.744739
Si Si3 0.864143 0.195606 0.315425
Si Si4 0.000000 0.789730 0.000000
Si Si5 0.070955 0.302463 0.893386
Si Si6 0.668707 0.300868 0.072094
Si Si7 0.201934 0.303869 0.574852
O O1 0.750000 0.250000 0.233851
O O2 0.835628 0.259979 0.253914
O O3 0.803142 0.256709 0.133763
O O4 0.798601 0.000000 0.207982
O O5 0.952306 0.500000 0.746188
O O6 0.913471 0.746860 0.694365
O O7 0.937656 0.749464 0.818460
O O8 0.000000 0.757269 0.730204
O O9 0.837228 0.245535 0.379381
O O10 0.864440 0.000000 0.312148
O O11 0.037719 0.781275 0.057021
O O12 0.063648 0.500000 0.898725
O O13 0.119830 0.260142 0.914207
O O14 0.668216 0.500000 0.072525
O O15 0.683075 0.245998 0.000000
O O16 0.197356 0.242549 0.500000
O O17 0.201448 0.500000 0.573988
O O18 0.250000 0.250000 0.598567
#
# Coordination Sequence:
#
# PCOD9491752 Si02
#       7
#    16  16  16   4  16  16  16
#     4  10  22  37  53  77 106 140 184 232 282 336
#     4  10  21  36  55  81 112 149 193 240 292 347
#     4  11  22  37  59  86 118 156 194 237 288 342
#     4  12  21  32  53  82 111 136 183 246 303 360
#     4  11  20  32  52  76 103 138 180 232 288 348
#     4  10  21  37  52  69 101 139 177 229 287 341
#     4  10  21  38  62  94 130 163 195 233 279 337
#
# _framework density 19.560663000000002
#
# number of rings (size 3 to 8) (size 9 to 14) (size 15 to 20)
#    0.000    1.600    3.200    2.160    0.000    4.800 
#    0.000    0.800    0.000    0.480    0.000    3.360 
#    0.000    0.000    0.000    0.000    0.000    0.000 
#
# Total GULP energy -278800.539713 kJ/mol
# GULP energy per Si atom -5576.010794 kJ/mol
# Density = 1.951614 g / cm^3
# Si number density = 19.560663 Si / 1000 Ang^3
#
#
#
# Elastic Constant Matrix: (Units=GPa)
#
#
# Indices 1 2 3 4 5 6 
#
# 1 104.5567 1.2235 56.2347 0.0000 0.0000 0.0000
# 2 1.2235 16.2150 11.8847 0.0000 0.0000 0.0000
# 3 56.2347 11.8847 107.5733 0.0000 0.0000 0.0000
# 4 0.0000 0.0000 0.0000 -10.4433 0.0000 0.0000
# 5 0.0000 0.0000 0.0000 0.0000 20.9016 0.0000
# 6 0.0000 0.0000 0.0000 0.0000 0.0000 -826.9320
#
#
#
# Elastic Compliance Matrix: (Units=1/GPa)
#
#
# Indices 1 2 3 4 5 6 
#
# 1 0.013607 0.004556 -0.007617 0.000000 0.000000 0.000000
# 2 0.004556 0.068631 -0.009964 0.000000 0.000000 0.000000
# 3 -0.007617 -0.009964 0.014379 0.000000 0.000000 0.000000
# 4 0.000000 0.000000 0.000000 -0.095755 0.000000 0.000000
# 5 0.000000 0.000000 0.000000 0.000000 0.047843 0.000000
# 6 0.000000 0.000000 0.000000 0.000000 0.000000 -0.001209
#
#
# Mechanical properties :
#
#
# Convention : Reuss Voigt Hill
#
# Bulk Modulus (GPa) = 14.17091 40.78118 27.47605
# Shear Modulus (GPa) = 51.51056 -152.69460 -50.59202
#
# Velocity S-wave (km/s) = 5.13721 -8.84486 -5.09120
# Velocity P-wave (km/s) = 6.51523 9.13318 4.52585
#
# Compressibility (1/GPa) = 0.07056710
#
# Stress axis : x y z
#
# Youngs Moduli (GPa) = 73.48913 14.57075 69.54824
#
# Poissons Ratio (x) = -0.06638 0.52973
# Poissons Ratio (y) = -0.33481 0.69298
# Poissons Ratio (z) = 0.55975 0.14518
#
# Static dielectric constant tensor:
#      x y z
#    x 1.666190 0.000000 0.000000 
#    y 0.000000 1.708980 0.000000 
#    z 0.000000 0.000000 1.700140 
# 
# From -- ./inp_files/60372.got.cif
#   From: 2010.05.17/outbox.cif.g08.bks.cpg/sg65_31_cif.got.tgz:60372.got - 2010.06.03 17:01:31.
