data_PCOD9491151
_publ_section_title
;
Structure prediction by ZEFSAII (Michael W. Deem and Ramdas Pophale) SiO2 
 PCOD9491151
Probable space group: C M M M
;
_chemical_formula_sum "Si O2"
_cell_formula_units_Z 104
_cell_length_a 17.825727
_cell_length_b 22.175556
_cell_length_c 15.870590
_cell_angle_alpha 90.000000
_cell_angle_beta 90.000000
_cell_angle_gamma 90.000000
_cell_volume 6273.571339
_symmetry_space_group_name_H-M "C M M M"
_symmetry_group_IT_number 65
_symmetry_cell_setting 'orthorhombic'
loop_
_space_group_symop_operation_xyz
x,y,z
-x,-y,z
x,-y,-z
-x,y,-z
-x,-y,-z
x,y,-z
-x,y,z
x,-y,z
1/2+x,1/2+y,z
1/2-x,1/2-y,z
1/2+x,1/2-y,-z
1/2-x,1/2+y,-z
1/2-x,1/2-y,-z
1/2+x,1/2+y,-z
1/2-x,1/2+y,z
1/2+x,1/2-y,z
loop_
_atom_site_type_symbol
_atom_site_label
_atom_site_fract_x
_atom_site_fract_y
_atom_site_fract_z
Si Si1 0.255812 0.072662 0.091887
Si Si2 0.083481 0.427702 0.166166
Si Si3 0.410978 0.750377 0.597256
Si Si4 0.291042 0.570052 0.726647
Si Si5 0.088848 0.892892 0.596727
Si Si6 0.143836 0.633522 0.669097
Si Si7 0.410229 0.930801 0.500000
O O1 0.343329 0.087786 0.110699
O O2 0.207183 0.088556 0.174592
O O3 0.252447 0.000000 0.087422
O O4 0.233143 0.096622 0.000000
O O5 0.087201 0.500000 0.181337
O O6 0.095497 0.392965 0.253808
O O7 0.000000 0.414996 0.131565
O O8 0.390986 0.763706 0.500000
O O9 0.500000 0.762778 0.606827
O O10 0.400207 0.679119 0.608726
O O11 0.366558 0.795168 0.657550
O O12 0.265384 0.500000 0.724640
O O13 0.364754 0.575463 0.670107
O O14 0.228121 0.612216 0.685727
O O15 0.112416 0.908021 0.500000
O O16 0.000000 0.905220 0.602246
O O17 0.116865 0.602842 0.583155
O O18 0.500000 0.930745 0.500000
O O19 0.383509 0.000000 0.500000
#
# Coordination Sequence:
#
# PCOD9491151 Si02
#       7
#    16  16  16  16  16  16   8
#     4   8  15  29  47  67  93 124 155 190 240 292
#     4   9  16  25  38  61  95 129 165 203 231 269
#     4   9  17  31  48  66  91 126 168 207 235 267
#     4  10  21  34  49  72 100 126 155 197 244 292
#     4   9  20  37  54  71  92 122 162 206 247 285
#     4  11  19  28  42  65  95 131 164 196 234 276
#     4  11  20  26  36  57  91 137 174 193 221 269
#
# _framework density 16.577479
#
# number of rings (size 3 to 8) (size 9 to 14) (size 15 to 20)
#    0.000    2.538    0.769    4.615    1.077    2.769 
#    0.000    3.846    0.000    0.462    0.000   10.769 
#    0.000    4.923    0.000    0.000    0.000    0.000 
#
# Total GULP energy -289687.573382 kJ/mol
# GULP energy per Si atom -5570.914873 kJ/mol
# Density = 1.653975 g / cm^3
# Si number density = 16.577479 Si / 1000 Ang^3
#
#
#
# Elastic Constant Matrix: (Units=GPa)
#
#
# Indices 1 2 3 4 5 6 
#
# 1 47.7237 10.2216 38.7296 0.0000 0.0000 0.0000
# 2 10.2216 17.2871 15.7769 0.0000 0.0000 0.0000
# 3 38.7296 15.7769 110.8436 0.0000 0.0000 0.0000
# 4 0.0000 0.0000 0.0000 13.8868 0.0000 0.0000
# 5 0.0000 0.0000 0.0000 0.0000 9.8035 0.0000
# 6 0.0000 0.0000 0.0000 0.0000 0.0000 29.3054
#
#
#
# Elastic Compliance Matrix: (Units=1/GPa)
#
#
# Indices 1 2 3 4 5 6 
#
# 1 0.030565 -0.009569 -0.009318 0.000000 0.000000 0.000000
# 2 -0.009569 0.069479 -0.006546 0.000000 0.000000 0.000000
# 3 -0.009318 -0.006546 0.013209 0.000000 0.000000 0.000000
# 4 0.000000 0.000000 0.000000 0.072011 0.000000 0.000000
# 5 0.000000 0.000000 0.000000 0.000000 0.102004 0.000000
# 6 0.000000 0.000000 0.000000 0.000000 0.000000 0.034123
#
#
# Mechanical properties :
#
#
# Convention : Reuss Voigt Hill
#
# Bulk Modulus (GPa) = 16.02872 33.92340 24.97606
# Shear Modulus (GPa) = 12.72094 18.00754 15.36424
#
# Velocity S-wave (km/s) = 2.77314 3.29943 3.04766
# Velocity P-wave (km/s) = 4.46583 5.91802 5.24245
#
# Compressibility (1/GPa) = 0.06238802
#
# Stress axis : x y z
#
# Youngs Moduli (GPa) = 32.71698 14.39291 75.70535
#
# Poissons Ratio (x) = 0.13772 0.70540
# Poissons Ratio (y) = 0.31307 0.49555
# Poissons Ratio (z) = 0.30485 0.09421
#
# Static dielectric constant tensor:
#      x y z
#    x 1.575440 0.000000 0.000000 
#    y 0.000000 1.570530 0.000000 
#    z 0.000000 0.000000 1.569410 
# 
# From -- ./inp_files/43113.got.cif
#   From: 2010.05.17/outbox.cif.g08.bks.cpg/sg65_22_cif.got.tgz:43113.got - 2010.06.03 17:01:31.
