data_PCOD9491178
_publ_section_title
;
Structure prediction by ZEFSAII (Michael W. Deem and Ramdas Pophale) SiO2 
 PCOD9491178
Probable space group: C M M M
;
_chemical_formula_sum "Si O2"
_cell_formula_units_Z 88
_cell_length_a 14.019737
_cell_length_b 28.048811
_cell_length_c 12.782143
_cell_angle_alpha 90.000000
_cell_angle_beta 90.000000
_cell_angle_gamma 90.000000
_cell_volume 5026.410971
_symmetry_space_group_name_H-M "C M M M"
_symmetry_group_IT_number 65
_symmetry_cell_setting 'orthorhombic'
loop_
_space_group_symop_operation_xyz
x,y,z
-x,-y,z
x,-y,-z
-x,y,-z
-x,-y,-z
x,y,-z
-x,y,z
x,-y,z
1/2+x,1/2+y,z
1/2-x,1/2-y,z
1/2+x,1/2-y,-z
1/2-x,1/2+y,-z
1/2-x,1/2-y,-z
1/2+x,1/2+y,-z
1/2-x,1/2+y,z
1/2+x,1/2-y,z
loop_
_atom_site_type_symbol
_atom_site_label
_atom_site_fract_x
_atom_site_fract_y
_atom_site_fract_z
Si Si1 0.892104 0.057438 0.619377
Si Si2 0.385988 0.163654 0.380910
Si Si3 0.612345 0.759968 0.788421
Si Si4 0.225781 0.819314 0.882937
Si Si5 0.721408 0.089377 0.767660
Si Si6 0.885183 0.500000 0.874062
O O1 0.870553 0.073297 0.500000
O O2 0.811951 0.072400 0.700707
O O3 0.000000 0.073628 0.645671
O O4 0.893660 0.000000 0.617729
O O5 0.350820 0.163140 0.500000
O O6 0.500000 0.157297 0.382154
O O7 0.368264 0.213868 0.321977
O O8 0.341636 0.121770 0.310892
O O9 0.500000 0.760735 0.807917
O O10 0.673062 0.792199 0.869098
O O11 0.655843 0.707520 0.802167
O O12 0.242157 0.873930 0.855369
O O13 0.189562 0.812905 0.000000
O O14 0.662544 0.046232 0.819227
O O15 0.000000 0.500000 0.858587
O O16 0.867904 0.500000 0.000000
#
# Coordination Sequence:
#
# PCOD9491178 Si02
#       6
#    16  16  16  16  16   8
#     4   9  18  34  56  79 103 137 180 223 269 321
#     4   9  18  33  54  82 114 144 175 217 272 331
#     4   9  18  34  54  75 104 140 175 216 266 321
#     4  10  21  34  51  78 106 137 182 226 267 315
#     4  11  20  36  56  80 110 146 181 228 275 321
#     4  11  24  40  58  81 110 146 188 229 272 326
#
# _framework density 17.507521000000001
#
# number of rings (size 3 to 8) (size 9 to 14) (size 15 to 20)
#    0.000    2.273    0.909    3.273    0.000    2.909 
#    0.000    8.182    0.000    6.545    0.000    0.000 
#    0.000    0.000    0.000    0.000    0.000    0.000 
#
# Total GULP energy -245194.585746 kJ/mol
# GULP energy per Si atom -5572.604222 kJ/mol
# Density = 1.746767 g / cm^3
# Si number density = 17.507521 Si / 1000 Ang^3
#
#
#
# Elastic Constant Matrix: (Units=GPa)
#
#
# Indices 1 2 3 4 5 6 
#
# 1 102.3179 45.4838 48.6724 0.0000 0.0000 0.0000
# 2 45.4838 106.2896 48.2923 0.0000 0.0000 0.0000
# 3 48.6724 48.2923 107.4108 0.0000 0.0000 0.0000
# 4 0.0000 0.0000 0.0000 15.6848 0.0000 0.0000
# 5 0.0000 0.0000 0.0000 0.0000 26.4722 0.0000
# 6 0.0000 0.0000 0.0000 0.0000 0.0000 22.3469
#
#
#
# Elastic Compliance Matrix: (Units=1/GPa)
#
#
# Indices 1 2 3 4 5 6 
#
# 1 0.013573 -0.003787 -0.004448 0.000000 0.000000 0.000000
# 2 -0.003787 0.012880 -0.004075 0.000000 0.000000 0.000000
# 3 -0.004448 -0.004075 0.013158 0.000000 0.000000 0.000000
# 4 0.000000 0.000000 0.000000 0.063756 0.000000 0.000000
# 5 0.000000 0.000000 0.000000 0.000000 0.037775 0.000000
# 6 0.000000 0.000000 0.000000 0.000000 0.000000 0.044749
#
#
# Mechanical properties :
#
#
# Convention : Reuss Voigt Hill
#
# Bulk Modulus (GPa) = 66.70647 66.76837 66.73742
# Shear Modulus (GPa) = 23.20104 24.47210 23.83657
#
# Velocity S-wave (km/s) = 3.64428 3.74278 3.69386
# Velocity P-wave (km/s) = 7.47610 7.54305 7.50965
#
# Compressibility (1/GPa) = 0.01499105
#
# Stress axis : x y z
#
# Youngs Moduli (GPa) = 73.67682 77.63765 76.00226
#
# Poissons Ratio (x) = 0.29404 0.33803
# Poissons Ratio (y) = 0.27904 0.30970
# Poissons Ratio (z) = 0.32768 0.31636
#
# Static dielectric constant tensor:
#      x y z
#    x 1.590080 0.000000 0.000000 
#    y 0.000000 1.594820 0.000000 
#    z 0.000000 0.000000 1.599260 
# 
# From -- ./inp_files/25106.got.cif
#   From: 2010.05.17/outbox.cif.g08.bks.cpg/sg65_13_cif.got.tgz:25106.got - 2010.06.03 17:01:31.
