data_PCOD9491866
_publ_section_title
;
Structure prediction by ZEFSAII (Michael W. Deem and Ramdas Pophale) SiO2 
 PCOD9491866
Probable space group: C M M M
;
_chemical_formula_sum "Si O2"
_cell_formula_units_Z 72
_cell_length_a 9.560382
_cell_length_b 25.824608
_cell_length_c 13.944046
_cell_angle_alpha 90.000000
_cell_angle_beta 90.000000
_cell_angle_gamma 90.000000
_cell_volume 3442.688987
_symmetry_space_group_name_H-M "C M M M"
_symmetry_group_IT_number 65
_symmetry_cell_setting 'orthorhombic'
loop_
_space_group_symop_operation_xyz
x,y,z
-x,-y,z
x,-y,-z
-x,y,-z
-x,-y,-z
x,y,-z
-x,y,z
x,-y,z
1/2+x,1/2+y,z
1/2-x,1/2-y,z
1/2+x,1/2-y,-z
1/2-x,1/2+y,-z
1/2-x,1/2-y,-z
1/2+x,1/2+y,-z
1/2-x,1/2+y,z
1/2+x,1/2-y,z
loop_
_atom_site_type_symbol
_atom_site_label
_atom_site_fract_x
_atom_site_fract_y
_atom_site_fract_z
Si Si1 0.850979 0.181278 0.392895
Si Si2 0.165319 0.583909 0.389785
Si Si3 0.166714 0.943029 0.206343
Si Si4 0.160647 0.350205 0.113708
Si Si5 0.250000 0.250000 0.231483
O O1 0.846285 0.204167 0.500000
O O2 0.719778 0.143208 0.383548
O O3 0.850436 0.221631 0.307272
O O4 0.000000 0.151686 0.387801
O O5 0.189435 0.567159 0.500000
O O6 0.258801 0.556745 0.310077
O O7 0.000000 0.579516 0.370312
O O8 0.236898 0.895169 0.150919
O O9 0.000000 0.935808 0.213703
O O10 0.191539 0.000000 0.161553
O O11 0.189095 0.295828 0.166546
O O12 0.000000 0.365792 0.133335
O O13 0.177940 0.343382 0.000000
#
# Coordination Sequence:
#
# PCOD9491866 Si02
#       5
#    16  16  16  16   8
#     4  10  21  36  58  92 135 178 217 258 310 377
#     4  10  21  38  63  96 134 174 216 263 316 380
#     4  11  25  45  70  98 129 169 217 273 332 389
#     4  11  26  46  68  97 132 171 218 274 335 395
#     4  12  22  38  68 100 134 178 214 264 322 386
#
# _framework density 20.913882999999998
#
# number of rings (size 3 to 8) (size 9 to 14) (size 15 to 20)
#    0.000    1.333    2.222    2.667    0.000    6.222 
#    0.000    6.667    0.000    0.000    0.000    0.000 
#    0.000    0.000    0.000    0.000    0.000    0.000 
#
# Total GULP energy -200940.677594 kJ/mol
# GULP energy per Si atom -5581.685489 kJ/mol
# Density = 2.086628 g / cm^3
# Si number density = 20.913883 Si / 1000 Ang^3
#
#
#
# Elastic Constant Matrix: (Units=GPa)
#
#
# Indices 1 2 3 4 5 6 
#
# 1 129.5868 53.7321 48.3588 0.0000 0.0000 0.0000
# 2 53.7321 124.7313 59.2344 0.0000 0.0000 0.0000
# 3 48.3588 59.2344 119.5194 0.0000 0.0000 0.0000
# 4 0.0000 0.0000 0.0000 -3.5832 0.0000 0.0000
# 5 0.0000 0.0000 0.0000 0.0000 38.5676 0.0000
# 6 0.0000 0.0000 0.0000 0.0000 0.0000 17.0830
#
#
#
# Elastic Compliance Matrix: (Units=1/GPa)
#
#
# Indices 1 2 3 4 5 6 
#
# 1 0.009927 -0.003098 -0.002481 0.000000 0.000000 0.000000
# 2 -0.003098 0.011452 -0.004422 0.000000 0.000000 0.000000
# 3 -0.002481 -0.004422 0.011562 0.000000 0.000000 0.000000
# 4 0.000000 0.000000 0.000000 -0.279081 0.000000 0.000000
# 5 0.000000 0.000000 0.000000 0.000000 0.025928 0.000000
# 6 0.000000 0.000000 0.000000 0.000000 0.000000 0.058538
#
#
# Mechanical properties :
#
#
# Convention : Reuss Voigt Hill
#
# Bulk Modulus (GPa) = 77.28773 77.38758 77.33766
# Shear Modulus (GPa) = -36.40139 24.58097 -5.91021
#
# Velocity S-wave (km/s) = -4.17650 3.43205 -1.68289
# Velocity P-wave (km/s) = 3.71186 7.26557 5.76916
#
# Compressibility (1/GPa) = 0.01293866
#
# Stress axis : x y z
#
# Youngs Moduli (GPa) = 100.73095 87.32161 86.48743
#
# Poissons Ratio (x) = 0.27054 0.21460
# Poissons Ratio (y) = 0.31209 0.38245
# Poissons Ratio (z) = 0.24994 0.38614
#
# Static dielectric constant tensor:
#      x y z
#    x 1.741250 0.000000 0.000000 
#    y 0.000000 1.777170 0.000000 
#    z 0.000000 0.000000 1.749410 
# 
# From -- ./inp_files/36541.got.cif
#   From: 2010.05.17/outbox.cif.g08.bks.cpg/sg65_19_cif.got.tgz:36541.got - 2010.06.03 17:01:31.
