data_PCOD9491681
_publ_section_title
;
Structure prediction by ZEFSAII (Michael W. Deem and Ramdas Pophale) SiO2 
 PCOD9491681
Probable space group: C M M M
;
_chemical_formula_sum "Si O2"
_cell_formula_units_Z 96
_cell_length_a 24.152313
_cell_length_b 22.162489
_cell_length_c 9.017463
_cell_angle_alpha 90.000000
_cell_angle_beta 90.000000
_cell_angle_gamma 90.000000
_cell_volume 4826.825854
_symmetry_space_group_name_H-M "C M M M"
_symmetry_group_IT_number 65
_symmetry_cell_setting 'orthorhombic'
loop_
_space_group_symop_operation_xyz
x,y,z
-x,-y,z
x,-y,-z
-x,y,-z
-x,-y,-z
x,y,-z
-x,y,z
x,-y,z
1/2+x,1/2+y,z
1/2-x,1/2-y,z
1/2+x,1/2-y,-z
1/2-x,1/2+y,-z
1/2-x,1/2-y,-z
1/2+x,1/2+y,-z
1/2-x,1/2+y,z
1/2+x,1/2-y,z
loop_
_atom_site_type_symbol
_atom_site_label
_atom_site_fract_x
_atom_site_fract_y
_atom_site_fract_z
Si Si1 0.835047 0.243084 0.325322
Si Si2 0.720509 0.385517 0.325294
Si Si3 0.563300 0.686750 0.171612
Si Si4 0.401128 0.431396 0.324473
Si Si5 0.170121 0.370486 0.824635
Si Si6 0.437683 0.072258 0.323323
O O1 0.830338 0.256318 0.500000
O O2 0.797966 0.183911 0.294195
O O3 0.896729 0.223210 0.279918
O O4 0.822442 0.302013 0.231720
O O5 0.733273 0.389506 0.500000
O O6 0.664804 0.423485 0.297407
O O7 0.774697 0.403357 0.235154
O O8 0.500000 0.706358 0.182752
O O9 0.568730 0.617482 0.223767
O O10 0.581404 0.692909 0.000000
O O11 0.409841 0.417423 0.500000
O O12 0.418114 0.500000 0.297902
O O13 0.113286 0.395900 0.756692
O O14 0.167520 0.373269 0.000000
O O15 0.433518 0.083258 0.500000
O O16 0.500000 0.091159 0.275692
O O17 0.433902 0.000000 0.300787
#
# Coordination Sequence:
#
# PCOD9491681 Si02
#       6
#    16  16  16  16  16  16
#     4  10  21  38  59  80 106 144 187 229 271 316
#     4   9  19  36  56  79 109 145 185 228 271 315
#     4  10  21  36  54  79 112 146 180 225 281 331
#     4   9  19  36  57  80 107 144 189 232 272 316
#     4  12  24  35  55  87 117 145 176 214 268 331
#     4   9  20  41  65  84 105 139 183 227 268 312
#
# _framework density 19.888847999999999
#
# number of rings (size 3 to 8) (size 9 to 14) (size 15 to 20)
#    0.000    2.167    0.000    4.500    0.000    9.333 
#    0.000    4.167    0.000    0.000    0.000    0.000 
#    0.000    0.000    0.000    0.000    0.000    0.000 
#
# Total GULP energy -268086.562331 kJ/mol
# GULP energy per Si atom -5585.136715 kJ/mol
# Density = 1.984358 g / cm^3
# Si number density = 19.888848 Si / 1000 Ang^3
#
#
#
# Elastic Constant Matrix: (Units=GPa)
#
#
# Indices 1 2 3 4 5 6 
#
# 1 89.7364 -7.9479 39.1118 0.0000 0.0000 0.0000
# 2 -7.9479 8.8847 2.2840 0.0000 0.0000 0.0000
# 3 39.1118 2.2840 49.6817 0.0000 0.0000 0.0000
# 4 0.0000 0.0000 0.0000 6.2523 0.0000 0.0000
# 5 0.0000 0.0000 0.0000 0.0000 36.9195 0.0000
# 6 0.0000 0.0000 0.0000 0.0000 0.0000 -7.8751
#
#
#
# Elastic Compliance Matrix: (Units=1/GPa)
#
#
# Indices 1 2 3 4 5 6 
#
# 1 0.020778 0.023065 -0.017418 0.000000 0.000000 0.000000
# 2 0.023065 0.139503 -0.024571 0.000000 0.000000 0.000000
# 3 -0.017418 -0.024571 0.034970 0.000000 0.000000 0.000000
# 4 0.000000 0.000000 0.000000 0.159942 0.000000 0.000000
# 5 0.000000 0.000000 0.000000 0.000000 0.027086 0.000000
# 6 0.000000 0.000000 0.000000 0.000000 0.000000 -0.126983
#
#
# Mechanical properties :
#
#
# Convention : Reuss Voigt Hill
#
# Bulk Modulus (GPa) = 6.35314 23.91097 15.13205
# Shear Modulus (GPa) = 14.46710 14.71633 14.59172
#
# Velocity S-wave (km/s) = 2.69996 2.72311 2.71156
# Velocity P-wave (km/s) = 3.59457 4.68354 4.17471
#
# Compressibility (1/GPa) = 0.15740253
#
# Stress axis : x y z
#
# Youngs Moduli (GPa) = 48.12705 7.16832 28.59587
#
# Poissons Ratio (x) = -0.16534 0.49808
# Poissons Ratio (y) = -1.11006 0.70264
# Poissons Ratio (z) = 0.83828 0.17614
#
# Static dielectric constant tensor:
#      x y z
#    x 1.721550 0.000000 0.000000 
#    y 0.000000 1.710050 0.000000 
#    z 0.000000 0.000000 1.663370 
# 
# From -- ./inp_files/14278.got.cif
#   From: 2010.05.17/outbox.cif.g08.bks.cpg/sg65_8_cif.got.tgz:14278.got - 2010.06.03 17:01:31.
