data_PCOD9491865
_publ_section_title
;
Structure prediction by ZEFSAII (Michael W. Deem and Ramdas Pophale) SiO2 
 PCOD9491865
Probable space group: C M M M
;
_chemical_formula_sum "Si O2"
_cell_formula_units_Z 108
_cell_length_a 23.736461
_cell_length_b 15.597534
_cell_length_c 14.431823
_cell_angle_alpha 90.000000
_cell_angle_beta 90.000000
_cell_angle_gamma 90.000000
_cell_volume 5343.097545
_symmetry_space_group_name_H-M "C M M M"
_symmetry_group_IT_number 65
_symmetry_cell_setting 'orthorhombic'
loop_
_space_group_symop_operation_xyz
x,y,z
-x,-y,z
x,-y,-z
-x,y,-z
-x,-y,-z
x,y,-z
-x,y,z
x,-y,z
1/2+x,1/2+y,z
1/2-x,1/2-y,z
1/2+x,1/2-y,-z
1/2-x,1/2+y,-z
1/2-x,1/2-y,-z
1/2+x,1/2+y,-z
1/2-x,1/2+y,z
1/2+x,1/2-y,z
loop_
_atom_site_type_symbol
_atom_site_label
_atom_site_fract_x
_atom_site_fract_y
_atom_site_fract_z
Si Si1 0.910811 0.342525 0.727957
Si Si2 0.893594 0.787180 0.110610
Si Si3 0.500000 0.403560 0.112604
Si Si4 0.321709 0.602917 0.607741
Si Si5 0.000000 0.500000 0.263807
Si Si6 0.217093 0.899236 0.107860
Si Si7 0.286661 0.897236 0.280136
Si Si8 0.439319 0.680802 0.611938
O O1 0.903054 0.296136 0.827272
O O2 0.847333 0.362154 0.694595
O O3 0.936604 0.274123 0.657035
O O4 0.950452 0.424680 0.735309
O O5 0.835098 0.836896 0.128409
O O6 0.944245 0.851368 0.137101
O O7 0.896716 0.769956 0.000000
O O8 0.500000 0.500000 0.148726
O O9 0.500000 0.408330 0.000000
O O10 0.316583 0.626905 0.500000
O O11 0.321807 0.500000 0.613748
O O12 0.267009 0.635219 0.661955
O O13 0.382148 0.634524 0.643360
O O14 0.269405 0.879592 0.173890
O O15 0.201032 0.000000 0.123694
O O16 0.231472 0.890262 0.000000
O O17 0.289254 0.000000 0.291598
O O18 0.437496 0.684675 0.500000
O O19 0.500000 0.640478 0.637113
#
# Coordination Sequence:
#
# PCOD9491865 Si02
#       8
#    16  16   8  16   4  16  16  16
#     4  12  24  43  65  84 116 156 205 264 308 352
#     4  10  21  36  58  89 122 157 198 247 300 356
#     4   9  17  32  55  82 116 157 194 230 288 358
#     4   9  19  37  62  94 130 161 192 233 288 362
#     4  12  26  48  68  82 110 160 212 256 312 356
#     4   9  18  34  57  87 125 161 196 239 293 363
#     4  10  21  38  60  86 116 159 206 251 305 354
#     4  10  22  40  63  91 123 158 198 243 294 355
#
# _framework density 20.212994999999999
#
# number of rings (size 3 to 8) (size 9 to 14) (size 15 to 20)
#    0.000    2.000    1.481    1.778    0.000    5.630 
#    0.000    6.667    0.000    0.000    0.000    0.000 
#    0.000    0.000    0.000    0.000    0.000    0.000 
#
# Total GULP energy -301049.095270 kJ/mol
# GULP energy per Si atom -5574.983246 kJ/mol
# Density = 2.016699 g / cm^3
# Si number density = 20.212995 Si / 1000 Ang^3
#
#
#
# Elastic Constant Matrix: (Units=GPa)
#
#
# Indices 1 2 3 4 5 6 
#
# 1 173.1859 29.4884 32.9292 0.0000 0.0000 0.0000
# 2 29.4884 25.5964 5.9747 0.0000 0.0000 0.0000
# 3 32.9292 5.9747 36.5999 0.0000 0.0000 0.0000
# 4 0.0000 0.0000 0.0000 12.5550 0.0000 0.0000
# 5 0.0000 0.0000 0.0000 0.0000 19.3287 0.0000
# 6 0.0000 0.0000 0.0000 0.0000 0.0000 31.8926
#
#
#
# Elastic Compliance Matrix: (Units=1/GPa)
#
#
# Indices 1 2 3 4 5 6 
#
# 1 0.008337 -0.008165 -0.006168 0.000000 0.000000 0.000000
# 2 -0.008165 0.048612 -0.000589 0.000000 0.000000 0.000000
# 3 -0.006168 -0.000589 0.032968 0.000000 0.000000 0.000000
# 4 0.000000 0.000000 0.000000 0.079649 0.000000 0.000000
# 5 0.000000 0.000000 0.000000 0.000000 0.051737 0.000000
# 6 0.000000 0.000000 0.000000 0.000000 0.000000 0.031355
#
#
# Mechanical properties :
#
#
# Convention : Reuss Voigt Hill
#
# Bulk Modulus (GPa) = 16.64659 41.35188 28.99924
# Shear Modulus (GPa) = 16.52737 23.88792 20.20764
#
# Velocity S-wave (km/s) = 2.86258 3.44148 3.16529
# Velocity P-wave (km/s) = 4.37941 6.02446 5.26657
#
# Compressibility (1/GPa) = 0.06007236
#
# Stress axis : x y z
#
# Youngs Moduli (GPa) = 119.94395 20.57091 30.33220
#
# Poissons Ratio (x) = 0.16796 0.18709
# Poissons Ratio (y) = 0.97936 0.01788
# Poissons Ratio (z) = 0.73983 0.01212
#
# Static dielectric constant tensor:
#      x y z
#    x 1.713450 0.000000 0.000000 
#    y 0.000000 1.704600 0.000000 
#    z 0.000000 0.000000 1.737890 
# 
# From -- ./inp_files/45811.got.cif
#   From: 2010.05.17/outbox.cif.g08.bks.cpg/sg65_23_cif.got.tgz:45811.got - 2010.06.03 17:01:31.
