data_PCOD9491007
_publ_section_title
;
Structure prediction by ZEFSAII (Michael W. Deem and Ramdas Pophale) SiO2 
 PCOD9491007
Probable space group: C M M M
;
_chemical_formula_sum "Si O2"
_cell_formula_units_Z 88
_cell_length_a 7.944964
_cell_length_b 18.759820
_cell_length_c 31.041930
_cell_angle_alpha 90.000000
_cell_angle_beta 90.000000
_cell_angle_gamma 90.000000
_cell_volume 4626.678434
_symmetry_space_group_name_H-M "C M M M"
_symmetry_group_IT_number 65
_symmetry_cell_setting 'orthorhombic'
loop_
_space_group_symop_operation_xyz
x,y,z
-x,-y,z
x,-y,-z
-x,y,-z
-x,-y,-z
x,y,-z
-x,y,z
x,-y,z
1/2+x,1/2+y,z
1/2-x,1/2-y,z
1/2+x,1/2-y,-z
1/2-x,1/2+y,-z
1/2-x,1/2-y,-z
1/2+x,1/2+y,-z
1/2-x,1/2+y,z
1/2+x,1/2-y,z
loop_
_atom_site_type_symbol
_atom_site_label
_atom_site_fract_x
_atom_site_fract_y
_atom_site_fract_z
Si Si1 0.296702 0.334450 0.399718
Si Si2 0.000000 0.415732 0.448432
Si Si3 0.300642 0.333036 0.302553
Si Si4 0.796681 0.167610 0.952092
Si Si5 0.699343 0.420575 0.128971
Si Si6 0.805256 0.332693 0.210253
O O1 0.500000 0.342110 0.407433
O O2 0.250000 0.250000 0.402713
O O3 0.259652 0.359794 0.350429
O O4 0.168225 0.377668 0.429814
O O5 0.000000 0.500000 0.437609
O O6 0.000000 0.408741 0.500000
O O7 0.500000 0.337608 0.297402
O O8 0.250000 0.250000 0.303767
O O9 0.222866 0.362514 0.258603
O O10 0.750000 0.250000 0.945661
O O11 0.730377 0.121290 0.912382
O O12 0.000000 0.163472 0.952353
O O13 0.737567 0.145780 0.000000
O O14 0.500000 0.426659 0.121310
O O15 0.770597 0.500000 0.133163
O O16 0.717915 0.376838 0.172899
O O17 0.750000 0.250000 0.210024
O O18 0.000000 0.334286 0.200332
#
# Coordination Sequence:
#
# PCOD9491007 Si02
#       6
#    16   8  16  16  16  16
#     4  10  20  38  66  97 125 161 209 265 313 369
#     4  11  26  44  62  90 131 173 211 259 319 377
#     4   9  17  30  55  87 116 144 185 236 290 337
#     4   9  18  33  54  78 100 128 170 218 269 326
#     4  10  21  36  52  72 105 143 178 222 272 323
#     4  11  21  33  54  81 109 144 183 226 273 331
#
# _framework density 19.020125
#
# number of rings (size 3 to 8) (size 9 to 14) (size 15 to 20)
#    0.000    2.091    0.909    3.818    2.545    4.000 
#    0.000    3.636    0.000    1.091    0.000    3.818 
#    0.000    0.000    0.000    0.000    0.000    0.000 
#
# Total GULP energy -245275.125455 kJ/mol
# GULP energy per Si atom -5574.434669 kJ/mol
# Density = 1.897683 g / cm^3
# Si number density = 19.020125 Si / 1000 Ang^3
#
#
#
# Elastic Constant Matrix: (Units=GPa)
#
#
# Indices 1 2 3 4 5 6 
#
# 1 63.0145 28.5290 35.5074 0.0000 0.0000 0.0000
# 2 28.5290 82.8030 72.6889 0.0000 0.0000 0.0000
# 3 35.5074 72.6889 137.6258 0.0000 0.0000 0.0000
# 4 0.0000 0.0000 0.0000 -21.2689 0.0000 0.0000
# 5 0.0000 0.0000 0.0000 0.0000 19.5555 0.0000
# 6 0.0000 0.0000 0.0000 0.0000 0.0000 16.0384
#
#
#
# Elastic Compliance Matrix: (Units=1/GPa)
#
#
# Indices 1 2 3 4 5 6 
#
# 1 0.019342 -0.004257 -0.002742 0.000000 0.000000 0.000000
# 2 -0.004257 0.023454 -0.011289 0.000000 0.000000 0.000000
# 3 -0.002742 -0.011289 0.013936 0.000000 0.000000 0.000000
# 4 0.000000 0.000000 0.000000 -0.047017 0.000000 0.000000
# 5 0.000000 0.000000 0.000000 0.000000 0.051136 0.000000
# 6 0.000000 0.000000 0.000000 0.000000 0.000000 0.062350
#
#
# Mechanical properties :
#
#
# Convention : Reuss Voigt Hill
#
# Bulk Modulus (GPa) = 49.61432 61.87708 55.74570
# Shear Modulus (GPa) = 30.03084 12.64620 21.33852
#
# Velocity S-wave (km/s) = 3.97785 2.58133 3.35310
# Velocity P-wave (km/s) = 6.87310 6.44107 6.66059
#
# Compressibility (1/GPa) = 0.02015547
#
# Stress axis : x y z
#
# Youngs Moduli (GPa) = 51.70196 42.63702 71.75718
#
# Poissons Ratio (x) = 0.18152 0.19673
# Poissons Ratio (y) = 0.22011 0.81007
# Poissons Ratio (z) = 0.14175 0.48133
#
# Static dielectric constant tensor:
#      x y z
#    x 1.664690 0.000000 0.000000 
#    y 0.000000 1.635800 0.000000 
#    z 0.000000 0.000000 1.686410 
# 
# From -- ./inp_files/76603.got.cif
#   From: 2010.05.17/outbox.cif.g08.bks.cpg/sg65_39_cif.got.tgz:76603.got - 2010.06.03 17:01:31.
