data_PCOD9491901
_publ_section_title
;
Structure prediction by ZEFSAII (Michael W. Deem and Ramdas Pophale) SiO2 
 PCOD9491901
Probable space group: C M M M
;
_chemical_formula_sum "Si O2"
_cell_formula_units_Z 72
_cell_length_a 16.664402
_cell_length_b 28.129938
_cell_length_c 7.576980
_cell_angle_alpha 90.000000
_cell_angle_beta 90.000000
_cell_angle_gamma 90.000000
_cell_volume 3551.850269
_symmetry_space_group_name_H-M "C M M M"
_symmetry_group_IT_number 65
_symmetry_cell_setting 'orthorhombic'
loop_
_space_group_symop_operation_xyz
x,y,z
-x,-y,z
x,-y,-z
-x,y,-z
-x,-y,-z
x,y,-z
-x,y,z
x,-y,z
1/2+x,1/2+y,z
1/2-x,1/2-y,z
1/2+x,1/2-y,-z
1/2-x,1/2+y,-z
1/2-x,1/2-y,-z
1/2+x,1/2+y,-z
1/2-x,1/2+y,z
1/2+x,1/2-y,z
loop_
_atom_site_type_symbol
_atom_site_label
_atom_site_fract_x
_atom_site_fract_y
_atom_site_fract_z
Si Si1 0.333855 0.399415 0.292453
Si Si2 0.588128 0.852196 0.285995
Si Si3 0.500000 0.555779 0.283722
Si Si4 0.246939 0.197438 0.796517
Si Si5 0.169617 0.446830 0.715678
O O1 0.335973 0.410178 0.500000
O O2 0.419157 0.417389 0.222153
O O3 0.311401 0.343728 0.276215
O O4 0.256854 0.428330 0.221763
O O5 0.591323 0.849567 0.500000
O O6 0.500000 0.836760 0.228353
O O7 0.662924 0.822592 0.216489
O O8 0.605589 0.906791 0.235174
O O9 0.500000 0.500000 0.233926
O O10 0.500000 0.556975 0.500000
O O11 0.250000 0.250000 0.714428
O O12 0.222970 0.202646 0.000000
O O13 0.171436 0.447336 0.500000
O O14 0.153107 0.500000 0.775561
#
# Coordination Sequence:
#
# PCOD9491901 Si02
#       5
#    16  16   8  16  16
#     4   9  17  30  50  76 104 132 167 209 252 298
#     4   9  18  32  51  77 103 126 158 201 247 295
#     4   9  16  28  51  83 113 137 167 211 260 311
#     4  10  21  37  54  70  93 131 174 212 254 302
#     4   8  13  23  43  71 101 131 159 189 230 282
#
# _framework density 20.271125000000001
#
# number of rings (size 3 to 8) (size 9 to 14) (size 15 to 20)
#    0.000    3.000    0.000    2.667    0.000    5.333 
#    2.000    2.778    0.000   17.333    0.000    6.222 
#    0.000    0.000    0.000    0.000    0.000    0.000 
#
# Total GULP energy -200659.447073 kJ/mol
# GULP energy per Si atom -5573.873530 kJ/mol
# Density = 2.022499 g / cm^3
# Si number density = 20.271125 Si / 1000 Ang^3
#
#
#
# Elastic Constant Matrix: (Units=GPa)
#
#
# Indices 1 2 3 4 5 6 
#
# 1 107.0911 38.0814 -6.5017 0.0000 0.0000 0.0000
# 2 38.0814 132.0355 -14.9727 0.0000 0.0000 0.0000
# 3 -6.5017 -14.9727 38.6683 0.0000 0.0000 0.0000
# 4 0.0000 0.0000 0.0000 26.1008 0.0000 0.0000
# 5 0.0000 0.0000 0.0000 0.0000 -42.8787 0.0000
# 6 0.0000 0.0000 0.0000 0.0000 0.0000 11.6238
#
#
#
# Elastic Compliance Matrix: (Units=1/GPa)
#
#
# Indices 1 2 3 4 5 6 
#
# 1 0.010419 -0.002935 0.000615 0.000000 0.000000 0.000000
# 2 -0.002935 0.008748 0.002894 0.000000 0.000000 0.000000
# 3 0.000615 0.002894 0.027085 0.000000 0.000000 0.000000
# 4 0.000000 0.000000 0.000000 0.038313 0.000000 0.000000
# 5 0.000000 0.000000 0.000000 0.000000 -0.023322 0.000000
# 6 0.000000 0.000000 0.000000 0.000000 0.000000 0.086030
#
#
# Mechanical properties :
#
#
# Convention : Reuss Voigt Hill
#
# Bulk Modulus (GPa) = 21.09683 34.55653 27.82668
# Shear Modulus (GPa) = 30.87829 16.38172 23.63001
#
# Velocity S-wave (km/s) = 3.90714 2.84585 3.41794
# Velocity P-wave (km/s) = 5.54835 5.28040 5.41603
#
# Compressibility (1/GPa) = 0.04740049
#
# Stress axis : x y z
#
# Youngs Moduli (GPa) = 95.97878 114.30574 36.92078
#
# Poissons Ratio (x) = 0.33551 -0.02272
# Poissons Ratio (y) = 0.28172 -0.10685
# Poissons Ratio (z) = -0.05906 -0.33080
#
# Static dielectric constant tensor:
#      x y z
#    x 1.700010 0.000000 0.000000 
#    y 0.000000 1.719660 0.000000 
#    z 0.000000 0.000000 1.784070 
# 
# From -- ./inp_files/9486.got.cif
#   From: 2010.05.17/outbox.cif.g08.bks.cpg/sg65_5_cif.got.tgz:9486.got - 2010.06.03 17:01:31.
