data_PCOD9491959
_publ_section_title
;
Structure prediction by ZEFSAII (Michael W. Deem and Ramdas Pophale) SiO2 
 PCOD9491959
Probable space group: C M M M
;
_chemical_formula_sum "Si O2"
_cell_formula_units_Z 72
_cell_length_a 20.665825
_cell_length_b 20.878785
_cell_length_c 7.494444
_cell_angle_alpha 90.000000
_cell_angle_beta 90.000000
_cell_angle_gamma 90.000000
_cell_volume 3233.682590
_symmetry_space_group_name_H-M "C M M M"
_symmetry_group_IT_number 65
_symmetry_cell_setting 'orthorhombic'
loop_
_space_group_symop_operation_xyz
x,y,z
-x,-y,z
x,-y,-z
-x,y,-z
-x,-y,-z
x,y,-z
-x,y,z
x,-y,z
1/2+x,1/2+y,z
1/2-x,1/2-y,z
1/2+x,1/2-y,-z
1/2-x,1/2+y,-z
1/2-x,1/2-y,-z
1/2+x,1/2+y,-z
1/2-x,1/2+y,z
1/2+x,1/2-y,z
loop_
_atom_site_type_symbol
_atom_site_label
_atom_site_fract_x
_atom_site_fract_y
_atom_site_fract_z
Si Si1 0.500000 0.629807 0.217448
Si Si2 0.737638 0.318793 0.798279
Si Si3 0.573463 0.000000 0.717701
Si Si4 0.000000 0.277477 0.213065
Si Si5 0.861626 0.926989 0.781849
Si Si6 0.624770 0.864269 0.710460
O O1 0.500000 0.703976 0.277516
O O2 0.434038 0.594234 0.271178
O O3 0.500000 0.630208 0.000000
O O4 0.750000 0.250000 0.708186
O O5 0.689112 0.372228 0.721953
O O6 0.809611 0.345718 0.805212
O O7 0.712328 0.305628 0.000000
O O8 0.605075 0.065639 0.775249
O O9 0.500000 0.000000 0.776938
O O10 0.573531 0.000000 0.500000
O O11 0.935504 0.315997 0.267361
O O12 0.000000 0.275160 0.000000
O O13 0.847304 0.000000 0.724067
O O14 0.859270 0.927676 0.000000
O O15 0.638966 0.867368 0.500000
#
# Coordination Sequence:
#
# PCOD9491959 Si02
#       6
#     8  16   8   8  16  16
#     4   9  17  31  53  78 108 142 175 220 281 333
#     4  10  21  37  55  80 117 152 182 231 290 333
#     4   9  18  36  56  76 108 145 180 227 283 330
#     4  11  21  35  56  84 113 146 181 224 284 340
#     4   9  17  30  51  79 109 142 183 226 269 327
#     4  11  22  37  58  81 109 148 191 232 275 333
#
# _framework density 22.265637000000002
#
# number of rings (size 3 to 8) (size 9 to 14) (size 15 to 20)
#    0.000    2.111    1.111    2.667    1.556    5.333 
#    0.000    2.222    0.000    0.000    0.000    0.000 
#    0.000    7.111    0.000    0.000    0.000    0.000 
#
# Total GULP energy -201069.751314 kJ/mol
# GULP energy per Si atom -5585.270870 kJ/mol
# Density = 2.221496 g / cm^3
# Si number density = 22.265637 Si / 1000 Ang^3
#
#
#
# Elastic Constant Matrix: (Units=GPa)
#
#
# Indices 1 2 3 4 5 6 
#
# 1 160.5880 98.9272 -2.7099 0.0000 0.0000 0.0000
# 2 98.9272 228.1369 4.9939 0.0000 0.0000 0.0000
# 3 -2.7099 4.9939 72.1839 0.0000 0.0000 0.0000
# 4 0.0000 0.0000 0.0000 28.0198 0.0000 0.0000
# 5 0.0000 0.0000 0.0000 0.0000 330.6817 0.0000
# 6 0.0000 0.0000 0.0000 0.0000 0.0000 89.4507
#
#
#
# Elastic Compliance Matrix: (Units=1/GPa)
#
#
# Indices 1 2 3 4 5 6 
#
# 1 0.008521 -0.003707 0.000576 0.000000 0.000000 0.000000
# 2 -0.003707 0.006003 -0.000555 0.000000 0.000000 0.000000
# 3 0.000576 -0.000555 0.013914 0.000000 0.000000 0.000000
# 4 0.000000 0.000000 0.000000 0.035689 0.000000 0.000000
# 5 0.000000 0.000000 0.000000 0.000000 0.003024 0.000000
# 6 0.000000 0.000000 0.000000 0.000000 0.000000 0.011179
#
#
# Mechanical properties :
#
#
# Convention : Reuss Voigt Hill
#
# Bulk Modulus (GPa) = 47.46940 73.70349 60.58645
# Shear Modulus (GPa) = 53.92393 113.61026 83.76710
#
# Velocity S-wave (km/s) = 4.92656 7.15092 6.14031
# Velocity P-wave (km/s) = 7.32989 10.06751 8.80573
#
# Compressibility (1/GPa) = 0.02106620
#
# Stress axis : x y z
#
# Youngs Moduli (GPa) = 117.36029 166.57911 71.87260
#
# Poissons Ratio (x) = 0.61759 -0.04143
# Poissons Ratio (y) = 0.43511 0.03985
# Poissons Ratio (z) = -0.06764 0.09237
#
# Static dielectric constant tensor:
#      x y z
#    x 1.702880 0.000000 0.000000 
#    y 0.000000 1.791720 0.000000 
#    z 0.000000 0.000000 1.841280 
# 
# From -- ./inp_files/11335.got.cif
#   From: 2010.05.17/outbox.cif.g08.bks.cpg/sg65_6_cif.got.tgz:11335.got - 2010.06.03 17:01:31.
