data_PCOD9491935
_publ_section_title
;
Structure prediction by ZEFSAII (Michael W. Deem and Ramdas Pophale) SiO2 
 PCOD9491935
Probable space group: C M M M
;
_chemical_formula_sum "Si O2"
_cell_formula_units_Z 88
_cell_length_a 7.639985
_cell_length_b 18.780638
_cell_length_c 30.173717
_cell_angle_alpha 90.000000
_cell_angle_beta 90.000000
_cell_angle_gamma 90.000000
_cell_volume 4329.439352
_symmetry_space_group_name_H-M "C M M M"
_symmetry_group_IT_number 65
_symmetry_cell_setting 'orthorhombic'
loop_
_space_group_symop_operation_xyz
x,y,z
-x,-y,z
x,-y,-z
-x,y,-z
-x,-y,-z
x,y,-z
-x,y,z
x,-y,z
1/2+x,1/2+y,z
1/2-x,1/2-y,z
1/2+x,1/2-y,-z
1/2-x,1/2+y,-z
1/2-x,1/2-y,-z
1/2+x,1/2+y,-z
1/2-x,1/2+y,z
1/2+x,1/2-y,z
loop_
_atom_site_type_symbol
_atom_site_label
_atom_site_fract_x
_atom_site_fract_y
_atom_site_fract_z
Si Si1 0.208133 0.080286 0.088052
Si Si2 0.290004 0.334400 0.269294
Si Si3 0.289320 0.333760 0.365361
Si Si4 0.788930 0.833958 0.827306
Si Si5 0.705987 0.833441 0.000000
Si Si6 0.213497 0.917020 0.548817
O O1 0.279541 0.121236 0.131175
O O2 0.230268 0.126913 0.044061
O O3 0.000000 0.074289 0.094846
O O4 0.278149 0.000000 0.082831
O O5 0.500000 0.343904 0.269291
O O6 0.250000 0.250000 0.269447
O O7 0.224182 0.360915 0.317139
O O8 0.224179 0.359496 0.221237
O O9 0.500000 0.341780 0.364915
O O10 0.250000 0.250000 0.368586
O O11 0.222089 0.373743 0.408791
O O12 0.750000 0.750000 0.832633
O O13 0.000000 0.839833 0.826647
O O14 0.750000 0.750000 0.000000
O O15 0.500000 0.839831 0.000000
O O16 0.270174 0.891078 0.500000
O O17 0.000000 0.914039 0.549043
O O18 0.261165 0.000000 0.552675
#
# Coordination Sequence:
#
# PCOD9491935 Si02
#       6
#    16  16  16  16   8  16
#     4  10  21  37  55  76 105 136 162 194 240 286
#     4   8  14  25  41  63  90 117 148 186 228 272
#     4   9  16  26  42  64  88 114 146 187 232 273
#     4   9  17  30  49  71  94 124 160 194 229 273
#     4  12  25  40  59  81 103 129 165 204 239 280
#     4   8  14  25  40  58  82 113 148 184 223 270
#
# _framework density 20.325956000000001
#
# number of rings (size 3 to 8) (size 9 to 14) (size 15 to 20)
#    0.000    2.909    0.000    2.182    0.000    4.000 
#    0.000    0.909    0.000    6.000    0.000    1.273 
#    0.000   14.545    0.000    0.000    0.000    0.000 
#
# Total GULP energy -245196.401466 kJ/mol
# GULP energy per Si atom -5572.645488 kJ/mol
# Density = 2.027969 g / cm^3
# Si number density = 20.325956 Si / 1000 Ang^3
#
#
#
# Elastic Constant Matrix: (Units=GPa)
#
#
# Indices 1 2 3 4 5 6 
#
# 1 42.5080 -0.2961 4.8113 0.0000 0.0000 0.0000
# 2 -0.2961 92.7336 103.4101 0.0000 0.0000 0.0000
# 3 4.8113 103.4101 268.5860 0.0000 0.0000 0.0000
# 4 0.0000 0.0000 0.0000 -26.8379 0.0000 0.0000
# 5 0.0000 0.0000 0.0000 0.0000 -35.0393 0.0000
# 6 0.0000 0.0000 0.0000 0.0000 0.0000 12.7175
#
#
#
# Elastic Compliance Matrix: (Units=1/GPa)
#
#
# Indices 1 2 3 4 5 6 
#
# 1 0.023621 0.000959 -0.000792 0.000000 0.000000 0.000000
# 2 0.000959 0.018936 -0.007308 0.000000 0.000000 0.000000
# 3 -0.000792 -0.007308 0.006551 0.000000 0.000000 0.000000
# 4 0.000000 0.000000 0.000000 -0.037261 0.000000 0.000000
# 5 0.000000 0.000000 0.000000 0.000000 -0.028539 0.000000
# 6 0.000000 0.000000 0.000000 0.000000 0.000000 0.078632
#
#
# Mechanical properties :
#
#
# Convention : Reuss Voigt Hill
#
# Bulk Modulus (GPa) = 28.71428 68.85312 48.78370
# Shear Modulus (GPa) = 56.92786 9.89489 33.41138
#
# Velocity S-wave (km/s) = 5.29795 2.20877 4.05875
# Velocity P-wave (km/s) = 7.18206 6.36026 6.78361
#
# Compressibility (1/GPa) = 0.03482587
#
# Stress axis : x y z
#
# Youngs Moduli (GPa) = 42.33458 52.81019 152.64844
#
# Poissons Ratio (x) = -0.05065 0.12095
# Poissons Ratio (y) = -0.04060 1.11552
# Poissons Ratio (z) = 0.03354 0.38592
#
# Static dielectric constant tensor:
#      x y z
#    x 1.745270 0.000000 0.000000 
#    y 0.000000 1.666450 0.000000 
#    z 0.000000 0.000000 1.845590 
# 
# From -- ./inp_files/76593.got.cif
#   From: 2010.05.17/outbox.cif.g08.bks.cpg/sg65_39_cif.got.tgz:76593.got - 2010.06.03 17:01:31.
