data_PCOD9491646
_publ_section_title
;
Structure prediction by ZEFSAII (Michael W. Deem and Ramdas Pophale) SiO2 
 PCOD9491646
Probable space group: C M M M
;
_chemical_formula_sum "Si O2"
_cell_formula_units_Z 96
_cell_length_a 9.257760
_cell_length_b 18.842210
_cell_length_c 31.692181
_cell_angle_alpha 90.000000
_cell_angle_beta 90.000000
_cell_angle_gamma 90.000000
_cell_volume 5528.278140
_symmetry_space_group_name_H-M "C M M M"
_symmetry_group_IT_number 65
_symmetry_cell_setting 'orthorhombic'
loop_
_space_group_symop_operation_xyz
x,y,z
-x,-y,z
x,-y,-z
-x,y,-z
-x,-y,-z
x,y,-z
-x,y,z
x,-y,z
1/2+x,1/2+y,z
1/2-x,1/2-y,z
1/2+x,1/2-y,-z
1/2-x,1/2+y,-z
1/2-x,1/2-y,-z
1/2+x,1/2+y,-z
1/2-x,1/2+y,z
1/2+x,1/2-y,z
loop_
_atom_site_type_symbol
_atom_site_label
_atom_site_fract_x
_atom_site_fract_y
_atom_site_fract_z
Si Si1 0.169157 0.913873 0.546417
Si Si2 0.828068 0.915588 0.214672
Si Si3 0.828537 0.674499 0.047905
Si Si4 0.672840 0.082671 0.369170
Si Si5 0.831914 0.915023 0.117302
Si Si6 0.826339 0.673887 0.713603
O O1 0.220593 0.889496 0.500000
O O2 0.255401 0.890492 0.587574
O O3 0.000000 0.895895 0.550343
O O4 0.178734 0.000000 0.546051
O O5 0.795995 0.896865 0.165889
O O6 0.734595 0.870500 0.246980
O O7 0.000000 0.903788 0.221451
O O8 0.802006 0.000000 0.220073
O O9 0.750000 0.750000 0.052298
O O10 0.766911 0.622809 0.083276
O O11 0.000000 0.683492 0.052379
O O12 0.799625 0.648382 0.000000
O O13 0.500000 0.083599 0.374080
O O14 0.710164 0.129986 0.328858
O O15 0.716165 0.000000 0.362216
O O16 0.000000 0.895679 0.110136
O O17 0.820817 0.000000 0.113711
O O18 0.750000 0.750000 0.712618
O O19 0.000000 0.680909 0.716128
#
# Coordination Sequence:
#
# PCOD9491646 Si02
#       6
#    16  16  16  16  16  16
#     4   8  14  25  43  70 101 129 160 200 245 295
#     4   9  19  37  59  81 105 134 170 211 256 309
#     4  10  21  36  54  77 106 141 180 219 258 303
#     4   9  18  32  50  73 100 130 165 206 253 303
#     4   9  19  36  57  81 108 137 170 210 257 309
#     4  11  23  37  53  75 104 137 174 215 258 306
#
# _framework density 17.365261
#
# number of rings (size 3 to 8) (size 9 to 14) (size 15 to 20)
#    0.000    2.667    0.000    3.000    0.000    5.667 
#    0.000    6.667    0.000    0.500    0.000    0.000 
#    0.000    0.000    0.000    0.000    0.000    0.000 
#
# Total GULP energy -267658.009245 kJ/mol
# GULP energy per Si atom -5576.208526 kJ/mol
# Density = 1.732574 g / cm^3
# Si number density = 17.365261 Si / 1000 Ang^3
#
#
#
# Elastic Constant Matrix: (Units=GPa)
#
#
# Indices 1 2 3 4 5 6 
#
# 1 68.8778 48.8429 90.7840 0.0000 0.0000 0.0000
# 2 48.8429 58.5471 74.9904 0.0000 0.0000 0.0000
# 3 90.7840 74.9904 170.5219 0.0000 0.0000 0.0000
# 4 0.0000 0.0000 0.0000 -28.8140 0.0000 0.0000
# 5 0.0000 0.0000 0.0000 0.0000 36.5384 0.0000
# 6 0.0000 0.0000 0.0000 0.0000 0.0000 24.2579
#
#
#
# Elastic Compliance Matrix: (Units=1/GPa)
#
#
# Indices 1 2 3 4 5 6 
#
# 1 0.057358 -0.020008 -0.021738 0.000000 0.000000 0.000000
# 2 -0.020008 0.046090 -0.009617 0.000000 0.000000 0.000000
# 3 -0.021738 -0.009617 0.021667 0.000000 0.000000 0.000000
# 4 0.000000 0.000000 0.000000 -0.034705 0.000000 0.000000
# 5 0.000000 0.000000 0.000000 0.000000 0.027368 0.000000
# 6 0.000000 0.000000 0.000000 0.000000 0.000000 0.041224
#
#
# Mechanical properties :
#
#
# Convention : Reuss Voigt Hill
#
# Bulk Modulus (GPa) = 44.66470 80.79790 62.73130
# Shear Modulus (GPa) = 18.57428 11.95177 15.26302
#
# Velocity S-wave (km/s) = 3.27406 2.62631 2.96791
# Velocity P-wave (km/s) = 6.33002 7.47169 6.92442
#
# Compressibility (1/GPa) = 0.02238904
#
# Stress axis : x y z
#
# Youngs Moduli (GPa) = 17.43434 21.69686 46.15382
#
# Poissons Ratio (x) = 0.43410 1.00329
# Poissons Ratio (y) = 0.34882 0.44386
# Poissons Ratio (z) = 0.37899 0.20866
#
# Static dielectric constant tensor:
#      x y z
#    x 1.575130 0.000000 0.000000 
#    y 0.000000 1.570040 0.000000 
#    z 0.000000 0.000000 1.588070 
# 
# From -- ./inp_files/73159.got.cif
#   From: 2010.05.17/outbox.cif.g08.bks.cpg/sg65_37_cif.got.tgz:73159.got - 2010.06.03 17:01:31.
