data_PCOD9491601
_publ_section_title
;
Structure prediction by ZEFSAII (Michael W. Deem and Ramdas Pophale) SiO2 
 PCOD9491601
Probable space group: C M M M
;
_chemical_formula_sum "Si O2"
_cell_formula_units_Z 100
_cell_length_a 29.844990
_cell_length_b 20.480300
_cell_length_c 7.608515
_cell_angle_alpha 90.000000
_cell_angle_beta 90.000000
_cell_angle_gamma 90.000000
_cell_volume 4650.585711
_symmetry_space_group_name_H-M "C M M M"
_symmetry_group_IT_number 65
_symmetry_cell_setting 'orthorhombic'
loop_
_space_group_symop_operation_xyz
x,y,z
-x,-y,z
x,-y,-z
-x,y,-z
-x,-y,-z
x,y,-z
-x,y,z
x,-y,z
1/2+x,1/2+y,z
1/2-x,1/2-y,z
1/2+x,1/2-y,-z
1/2-x,1/2+y,-z
1/2-x,1/2-y,-z
1/2+x,1/2+y,-z
1/2-x,1/2+y,z
1/2+x,1/2-y,z
loop_
_atom_site_type_symbol
_atom_site_label
_atom_site_fract_x
_atom_site_fract_y
_atom_site_fract_z
Si Si1 0.717438 0.197477 0.198481
Si Si2 0.842753 0.500000 0.500000
Si Si3 0.728030 0.574138 0.702906
Si Si4 0.550887 0.825578 0.712909
Si Si5 0.858519 0.611528 0.206140
Si Si6 0.449694 0.676244 0.711548
Si Si7 0.872680 0.926416 0.792829
O O1 0.750000 0.250000 0.288126
O O2 0.744737 0.129649 0.199805
O O3 0.668839 0.176770 0.265082
O O4 0.709534 0.221862 0.000000
O O5 0.845370 0.556321 0.343732
O O6 0.743318 0.573704 0.500000
O O7 0.733755 0.500000 0.770597
O O8 0.675148 0.589422 0.707217
O O9 0.552851 0.827271 0.500000
O O10 0.500000 0.842671 0.763922
O O11 0.588992 0.872839 0.782646
O O12 0.559243 0.750582 0.770198
O O13 0.847233 0.598052 0.000000
O O14 0.450901 0.677947 0.500000
O O15 0.500000 0.657713 0.772187
O O16 0.411558 0.625383 0.761729
O O17 0.885752 0.000000 0.735278
O O18 0.863665 0.928338 0.000000
#
# Coordination Sequence:
#
# PCOD9491601 Si02
#       7
#    16   4  16  16  16  16  16
#     4  10  24  43  62  92 131 167 210 263 317 375
#     4  12  26  48  71 100 140 170 216 274 321 396
#     4  10  22  38  60  86 115 158 207 254 309 374
#     4   9  19  40  67  94 128 168 210 264 327 387
#     4  11  25  44  71 101 133 176 217 265 329 389
#     4   9  19  35  58  86 117 158 206 257 316 378
#     4  10  21  36  53  78 117 161 206 258 315 372
#
# _framework density 21.502668
#
# number of rings (size 3 to 8) (size 9 to 14) (size 15 to 20)
#    0.000    2.080    0.800    2.160    4.480    3.840 
#    0.000    4.000    0.000    0.960    0.000    0.000 
#    0.000    0.000    0.000    0.000    0.000    0.000 
#
# Total GULP energy -278672.998858 kJ/mol
# GULP energy per Si atom -5573.459977 kJ/mol
# Density = 2.145373 g / cm^3
# Si number density = 21.502668 Si / 1000 Ang^3
#
#
#
# Elastic Constant Matrix: (Units=GPa)
#
#
# Indices 1 2 3 4 5 6 
#
# 1 92.5054 39.2825 14.7811 0.0000 0.0000 0.0000
# 2 39.2825 47.7253 17.3670 0.0000 0.0000 0.0000
# 3 14.7811 17.3670 89.9129 0.0000 0.0000 0.0000
# 4 0.0000 0.0000 0.0000 15.4306 0.0000 0.0000
# 5 0.0000 0.0000 0.0000 0.0000 28.3262 0.0000
# 6 0.0000 0.0000 0.0000 0.0000 0.0000 10.6356
#
#
#
# Elastic Compliance Matrix: (Units=1/GPa)
#
#
# Indices 1 2 3 4 5 6 
#
# 1 0.016620 -0.013645 -0.000097 0.000000 0.000000 0.000000
# 2 -0.013645 0.033739 -0.004274 0.000000 0.000000 0.000000
# 3 -0.000097 -0.004274 0.011963 0.000000 0.000000 0.000000
# 4 0.000000 0.000000 0.000000 0.064806 0.000000 0.000000
# 5 0.000000 0.000000 0.000000 0.000000 0.035303 0.000000
# 6 0.000000 0.000000 0.000000 0.000000 0.000000 0.094024
#
#
# Mechanical properties :
#
#
# Convention : Reuss Voigt Hill
#
# Bulk Modulus (GPa) = 38.03397 41.44497 39.73947
# Shear Modulus (GPa) = 16.59756 21.45936 19.02846
#
# Velocity S-wave (km/s) = 2.78129 3.16252 2.97801
# Velocity P-wave (km/s) = 5.29533 5.71415 5.50872
#
# Compressibility (1/GPa) = 0.02629228
#
# Stress axis : x y z
#
# Youngs Moduli (GPa) = 60.16923 29.63912 83.58916
#
# Poissons Ratio (x) = 0.40441 0.00808
# Poissons Ratio (y) = 0.82098 0.35724
# Poissons Ratio (z) = 0.00582 0.12667
#
# Static dielectric constant tensor:
#      x y z
#    x 1.797720 0.000000 0.000000 
#    y 0.000000 1.765940 0.000000 
#    z 0.000000 0.000000 1.811690 
# 
# From -- ./inp_files/16445.got.cif
#   From: 2010.05.17/outbox.cif.g08.bks.cpg/sg65_9_cif.got.tgz:16445.got - 2010.06.03 17:01:31.
