data_PCOD9491843
_publ_section_title
;
Structure prediction by ZEFSAII (Michael W. Deem and Ramdas Pophale) SiO2 
 PCOD9491843
Probable space group: C M M M
;
_chemical_formula_sum "Si O2"
_cell_formula_units_Z 120
_cell_length_a 20.150580
_cell_length_b 15.294098
_cell_length_c 20.292171
_cell_angle_alpha 90.000000
_cell_angle_beta 90.000000
_cell_angle_gamma 90.000000
_cell_volume 6253.741609
_symmetry_space_group_name_H-M "C M M M"
_symmetry_group_IT_number 65
_symmetry_cell_setting 'orthorhombic'
loop_
_space_group_symop_operation_xyz
x,y,z
-x,-y,z
x,-y,-z
-x,y,-z
-x,-y,-z
x,y,-z
-x,y,z
x,-y,z
1/2+x,1/2+y,z
1/2-x,1/2-y,z
1/2+x,1/2-y,-z
1/2-x,1/2+y,-z
1/2-x,1/2-y,-z
1/2+x,1/2+y,-z
1/2-x,1/2+y,z
1/2+x,1/2-y,z
loop_
_atom_site_type_symbol
_atom_site_label
_atom_site_fract_x
_atom_site_fract_y
_atom_site_fract_z
Si Si1 0.362399 0.404625 0.578674
Si Si2 0.927964 0.746992 0.229664
Si Si3 0.768556 0.594624 0.336875
Si Si4 0.078646 0.401438 0.500000
Si Si5 0.386671 0.786031 0.372528
Si Si6 0.790582 0.837846 0.793749
Si Si7 0.925197 0.603927 0.882491
Si Si8 0.721850 0.895101 0.071740
O O1 0.361179 0.399926 0.500000
O O2 0.392479 0.500000 0.597112
O O3 0.288651 0.404685 0.608504
O O4 0.392417 0.314810 0.605438
O O5 0.925482 0.711349 0.304012
O O6 0.867625 0.813040 0.214971
O O7 0.921295 0.663357 0.182242
O O8 0.000000 0.787933 0.217293
O O9 0.804332 0.500000 0.340599
O O10 0.814930 0.677225 0.350523
O O11 0.733847 0.600564 0.265412
O O12 0.108101 0.500000 0.500000
O O13 0.095924 0.346929 0.565584
O O14 0.000000 0.409839 0.500000
O O15 0.750000 0.750000 0.781335
O O16 0.766278 0.866087 0.866300
O O17 0.921670 0.500000 0.868657
O O18 0.856808 0.626864 0.920163
O O19 0.000000 0.618791 0.911756
O O20 0.724729 0.000000 0.071313
O O21 0.744836 0.862517 0.000000
#
# Coordination Sequence:
#
# PCOD9491843 Si02
#       8
#    16  16  16   8  16  16  16  16
#     4  10  21  36  57  86 120 153 195 252 310 364
#     4  11  23  38  59  86 117 156 201 247 305 365
#     4  11  22  35  60  93 119 155 200 250 306 363
#     4  11  26  42  56  83 123 167 207 249 313 392
#     4  12  21  39  61  83 118 157 204 252 312 364
#     4  12  20  38  59  86 119 156 199 250 302 353
#     4   9  18  34  56  85 123 161 197 239 290 358
#     4  10  21  36  58  88 120 158 200 245 301 363
#
# _framework density 19.188510999999998
#
# number of rings (size 3 to 8) (size 9 to 14) (size 15 to 20)
#    0.000    1.267    4.667    1.600    0.933    3.200 
#    0.000    2.667    0.000    5.600    0.000    0.933 
#    0.000    0.000    0.000    0.000    0.000    0.000 
#
# Total GULP energy -334369.977490 kJ/mol
# GULP energy per Si atom -5572.832958 kJ/mol
# Density = 1.914484 g / cm^3
# Si number density = 19.188511 Si / 1000 Ang^3
#
#
#
# Elastic Constant Matrix: (Units=GPa)
#
#
# Indices 1 2 3 4 5 6 
#
# 1 83.0469 13.5426 35.6817 0.0000 0.0000 0.0000
# 2 13.5426 83.5315 21.7230 0.0000 0.0000 0.0000
# 3 35.6817 21.7230 95.8217 0.0000 0.0000 0.0000
# 4 0.0000 0.0000 0.0000 24.3698 0.0000 0.0000
# 5 0.0000 0.0000 0.0000 0.0000 19.0068 0.0000
# 6 0.0000 0.0000 0.0000 0.0000 0.0000 8.0714
#
#
#
# Elastic Compliance Matrix: (Units=1/GPa)
#
#
# Indices 1 2 3 4 5 6 
#
# 1 0.014413 -0.001000 -0.005140 0.000000 0.000000 0.000000
# 2 -0.001000 0.012791 -0.002527 0.000000 0.000000 0.000000
# 3 -0.005140 -0.002527 0.012923 0.000000 0.000000 0.000000
# 4 0.000000 0.000000 0.000000 0.041034 0.000000 0.000000
# 5 0.000000 0.000000 0.000000 0.000000 0.052613 0.000000
# 6 0.000000 0.000000 0.000000 0.000000 0.000000 0.123895
#
#
# Mechanical properties :
#
#
# Convention : Reuss Voigt Hill
#
# Bulk Modulus (GPa) = 43.87552 44.92161 44.39857
# Shear Modulus (GPa) = 17.69274 23.05312 20.37293
#
# Velocity S-wave (km/s) = 3.03982 3.46989 3.26195
# Velocity P-wave (km/s) = 5.93598 6.28609 6.11354
#
# Compressibility (1/GPa) = 0.02279175
#
# Stress axis : x y z
#
# Youngs Moduli (GPa) = 69.38157 78.18057 77.38043
#
# Poissons Ratio (x) = 0.07817 0.39777
# Poissons Ratio (y) = 0.06938 0.19557
# Poissons Ratio (z) = 0.35665 0.19759
#
# Static dielectric constant tensor:
#      x y z
#    x 1.799060 0.000000 0.000000 
#    y 0.000000 1.751330 0.000000 
#    z 0.000000 0.000000 1.699160 
# 
# From -- ./inp_files/64779.got.cif
#   From: 2010.05.17/outbox.cif.g08.bks.cpg/sg65_33_cif.got.tgz:64779.got - 2010.06.03 17:01:31.
