data_PCOD9491206
_publ_section_title
;
Structure prediction by ZEFSAII (Michael W. Deem and Ramdas Pophale) SiO2 
 PCOD9491206
Probable space group: C M M M
;
_chemical_formula_sum "Si O2"
_cell_formula_units_Z 80
_cell_length_a 20.131055
_cell_length_b 27.024191
_cell_length_c 7.692505
_cell_angle_alpha 90.000000
_cell_angle_beta 90.000000
_cell_angle_gamma 90.000000
_cell_volume 4184.918689
_symmetry_space_group_name_H-M "C M M M"
_symmetry_group_IT_number 65
_symmetry_cell_setting 'orthorhombic'
loop_
_space_group_symop_operation_xyz
x,y,z
-x,-y,z
x,-y,-z
-x,y,-z
-x,-y,-z
x,y,-z
-x,y,z
x,-y,z
1/2+x,1/2+y,z
1/2-x,1/2-y,z
1/2+x,1/2-y,-z
1/2-x,1/2+y,-z
1/2-x,1/2-y,-z
1/2+x,1/2+y,-z
1/2-x,1/2+y,z
1/2+x,1/2-y,z
loop_
_atom_site_type_symbol
_atom_site_label
_atom_site_fract_x
_atom_site_fract_y
_atom_site_fract_z
Si Si1 0.577081 0.643509 0.286425
Si Si2 0.580843 0.248425 0.298830
Si Si3 0.821679 0.555498 0.207206
Si Si4 0.329943 0.444497 0.706071
Si Si5 0.075464 0.358809 0.709032
O O1 0.578781 0.644998 0.500000
O O2 0.500000 0.636012 0.238455
O O3 0.599699 0.698105 0.224147
O O4 0.623137 0.598818 0.224752
O O5 0.603343 0.248731 0.500000
O O6 0.500000 0.248314 0.299826
O O7 0.599430 0.195000 0.222397
O O8 0.838680 0.500000 0.272300
O O9 0.747688 0.567651 0.271662
O O10 0.875291 0.596597 0.253904
O O11 0.818291 0.553356 0.000000
O O12 0.343251 0.447126 0.500000
O O13 0.340827 0.500000 0.778475
O O14 0.071705 0.353727 0.500000
O O15 0.000000 0.368203 0.771706
#
# Coordination Sequence:
#
# PCOD9491206 Si02
#       5
#    16  16  16  16  16
#     4   8  13  23  43  71  98 120 145 182 225 265
#     4   7  11  22  41  66  94 119 142 173 218 268
#     4  10  21  35  48  62  86 122 156 184 221 270
#     4   9  17  29  46  68  93 121 153 188 224 261
#     4   9  17  30  50  73  92 112 144 186 226 265
#
# _framework density 19.116261999999999
#
# number of rings (size 3 to 8) (size 9 to 14) (size 15 to 20)
#    0.000    3.400    0.000    3.000    0.000    2.400 
#    0.000    5.000    0.000    7.800    0.000    5.600 
#    0.000    0.000    0.000    0.000    0.000    0.000 
#
# Total GULP energy -222703.293884 kJ/mol
# GULP energy per Si atom -5567.582347 kJ/mol
# Density = 1.907275 g / cm^3
# Si number density = 19.116262 Si / 1000 Ang^3
#
#
#
# Elastic Constant Matrix: (Units=GPa)
#
#
# Indices 1 2 3 4 5 6 
#
# 1 81.6415 113.7349 -2.4863 0.0000 0.0000 0.0000
# 2 113.7349 211.9055 4.8035 0.0000 0.0000 0.0000
# 3 -2.4863 4.8035 31.7518 0.0000 0.0000 0.0000
# 4 0.0000 0.0000 0.0000 -13.8122 0.0000 0.0000
# 5 0.0000 0.0000 0.0000 0.0000 -223.7782 0.0000
# 6 0.0000 0.0000 0.0000 0.0000 0.0000 -1.9326
#
#
#
# Elastic Compliance Matrix: (Units=1/GPa)
#
#
# Indices 1 2 3 4 5 6 
#
# 1 0.050539 -0.027309 0.008089 0.000000 0.000000 0.000000
# 2 -0.027309 0.019492 -0.005087 0.000000 0.000000 0.000000
# 3 0.008089 -0.005087 0.032897 0.000000 0.000000 0.000000
# 4 0.000000 0.000000 0.000000 -0.072400 0.000000 0.000000
# 5 0.000000 0.000000 0.000000 0.000000 -0.004469 0.000000
# 6 0.000000 0.000000 0.000000 0.000000 0.000000 -0.517425
#
#
# Mechanical properties :
#
#
# Convention : Reuss Voigt Hill
#
# Bulk Modulus (GPa) = 18.41158 61.93366 40.17262
# Shear Modulus (GPa) = -11.77451 -33.95481 -22.86466
#
# Velocity S-wave (km/s) = -2.48451 -4.21910 -3.46220
# Velocity P-wave (km/s) = 1.19243 2.95539 2.25346
#
# Compressibility (1/GPa) = 0.05431363
#
# Stress axis : x y z
#
# Youngs Moduli (GPa) = 19.78661 51.30358 30.39762
#
# Poissons Ratio (x) = 1.40105 -0.24588
# Poissons Ratio (y) = 0.54035 0.15464
# Poissons Ratio (z) = -0.16005 0.26099
#
# Static dielectric constant tensor:
#      x y z
#    x 1.620470 0.000000 0.000000 
#    y 0.000000 1.731520 0.000000 
#    z 0.000000 0.000000 1.705560 
# 
# From -- ./inp_files/9647.got.cif
#   From: 2010.05.17/outbox.cif.g08.bks.cpg/sg65_5_cif.got.tgz:9647.got - 2010.06.03 17:01:31.
