data_PCOD9491002
_publ_section_title
;
Structure prediction by ZEFSAII (Michael W. Deem and Ramdas Pophale) SiO2 
 PCOD9491002
Probable space group: C M M M
;
_chemical_formula_sum "Si O2"
_cell_formula_units_Z 104
_cell_length_a 7.701767
_cell_length_b 30.114749
_cell_length_c 23.697829
_cell_angle_alpha 90.000000
_cell_angle_beta 90.000000
_cell_angle_gamma 90.000000
_cell_volume 5496.398153
_symmetry_space_group_name_H-M "C M M M"
_symmetry_group_IT_number 65
_symmetry_cell_setting 'orthorhombic'
loop_
_space_group_symop_operation_xyz
x,y,z
-x,-y,z
x,-y,-z
-x,y,-z
-x,-y,-z
x,y,-z
-x,y,z
x,-y,z
1/2+x,1/2+y,z
1/2-x,1/2-y,z
1/2+x,1/2-y,-z
1/2-x,1/2+y,-z
1/2-x,1/2-y,-z
1/2+x,1/2+y,-z
1/2-x,1/2+y,z
1/2+x,1/2-y,z
loop_
_atom_site_type_symbol
_atom_site_label
_atom_site_fract_x
_atom_site_fract_y
_atom_site_fract_z
Si Si1 0.500000 0.947679 0.627139
Si Si2 0.500000 0.088583 0.246857
Si Si3 0.286860 0.335893 0.755025
Si Si4 0.801798 0.376797 0.436375
Si Si5 0.706320 0.390187 0.932966
Si Si6 0.500000 0.051486 0.875575
Si Si7 0.304586 0.703202 0.361005
Si Si8 0.293854 0.299473 0.123823
O O1 0.500000 0.936294 0.693197
O O2 0.664743 0.922513 0.597736
O O3 0.500000 0.000000 0.616926
O O4 0.673039 0.119314 0.243904
O O5 0.500000 0.058092 0.191802
O O6 0.500000 0.343248 0.754066
O O7 0.222576 0.310349 0.698815
O O8 0.240576 0.308827 0.811503
O O9 0.737310 0.383894 0.500000
O O10 0.705913 0.339005 0.401752
O O11 0.000000 0.359012 0.440041
O O12 0.500000 0.395577 0.919109
O O13 0.765561 0.340814 0.913923
O O14 0.830163 0.424414 0.900977
O O15 0.724666 0.395019 0.000000
O O16 0.500000 0.000000 0.890528
O O17 0.500000 0.711527 0.344615
O O18 0.250000 0.750000 0.387072
O O19 0.500000 0.302003 0.123280
O O20 0.250000 0.250000 0.105076
#
# Coordination Sequence:
#
# PCOD9491002 Si02
#       8
#     8   8  16  16  16   8  16  16
#     4  10  20  38  65  93 116 150 202 253 311 376
#     4  12  21  38  70  86 130 160 190 262 321 364
#     4  10  21  37  58  87 119 167 208 248 306 371
#     4   9  19  36  57  83 115 153 199 245 294 355
#     4  10  23  44  64  87 126 168 207 257 305 361
#     4  12  26  42  67  99 122 156 208 259 319 378
#     4  11  22  35  56  84 122 162 206 251 300 360
#     4  10  21  35  57  88 122 160 207 249 301 361
#
# _framework density 18.921484
#
# number of rings (size 3 to 8) (size 9 to 14) (size 15 to 20)
#    0.462    1.231    3.077    1.385    3.231    2.462 
#    0.000    0.769    0.000    2.769    0.000    1.077 
#    0.000    0.000    0.000    0.000    0.000    0.000 
#
# Total GULP energy -289672.834007 kJ/mol
# GULP energy per Si atom -5570.631423 kJ/mol
# Density = 1.887842 g / cm^3
# Si number density = 18.921484 Si / 1000 Ang^3
#
#
#
# Elastic Constant Matrix: (Units=GPa)
#
#
# Indices 1 2 3 4 5 6 
#
# 1 50.8753 30.4378 23.3849 0.0000 0.0000 0.0000
# 2 30.4378 155.1455 50.5988 0.0000 0.0000 0.0000
# 3 23.3849 50.5988 103.0937 0.0000 0.0000 0.0000
# 4 0.0000 0.0000 0.0000 -1.2275 0.0000 0.0000
# 5 0.0000 0.0000 0.0000 0.0000 17.7414 0.0000
# 6 0.0000 0.0000 0.0000 0.0000 0.0000 19.8744
#
#
#
# Elastic Compliance Matrix: (Units=1/GPa)
#
#
# Indices 1 2 3 4 5 6 
#
# 1 0.023358 -0.003399 -0.003630 0.000000 0.000000 0.000000
# 2 -0.003399 0.008168 -0.003238 0.000000 0.000000 0.000000
# 3 -0.003630 -0.003238 0.012113 0.000000 0.000000 0.000000
# 4 0.000000 0.000000 0.000000 -0.814670 0.000000 0.000000
# 5 0.000000 0.000000 0.000000 0.000000 0.056365 0.000000
# 6 0.000000 0.000000 0.000000 0.000000 0.000000 0.050316
#
#
# Mechanical properties :
#
#
# Convention : Reuss Voigt Hill
#
# Bulk Modulus (GPa) = 43.28085 57.55084 50.41585
# Shear Modulus (GPa) = -7.86023 20.92386 6.53181
#
# Velocity S-wave (km/s) = -2.04038 3.32900 1.85999
# Velocity P-wave (km/s) = 4.16806 6.72741 5.59601
#
# Compressibility (1/GPa) = 0.02310490
#
# Stress axis : x y z
#
# Youngs Moduli (GPa) = 42.81212 122.42272 82.55801
#
# Poissons Ratio (x) = 0.41606 0.29971
# Poissons Ratio (y) = 0.14550 0.26734
# Poissons Ratio (z) = 0.15542 0.39643
#
# Static dielectric constant tensor:
#      x y z
#    x 1.828540 0.000000 0.000000 
#    y 0.000000 1.674210 0.000000 
#    z 0.000000 0.000000 1.673860 
# 
# From -- ./inp_files/68320.got.cif
#   From: 2010.05.17/outbox.cif.g08.bks.cpg/sg65_35_cif.got.tgz:68320.got - 2010.06.03 17:01:31.
