data_PCOD9491689
_publ_section_title
;
Structure prediction by ZEFSAII (Michael W. Deem and Ramdas Pophale) SiO2 
 PCOD9491689
Probable space group: C M M M
;
_chemical_formula_sum "Si O2"
_cell_formula_units_Z 104
_cell_length_a 19.455994
_cell_length_b 29.591310
_cell_length_c 8.282711
_cell_angle_alpha 90.000000
_cell_angle_beta 90.000000
_cell_angle_gamma 90.000000
_cell_volume 4768.591536
_symmetry_space_group_name_H-M "C M M M"
_symmetry_group_IT_number 65
_symmetry_cell_setting 'orthorhombic'
loop_
_space_group_symop_operation_xyz
x,y,z
-x,-y,z
x,-y,-z
-x,y,-z
-x,-y,-z
x,y,-z
-x,y,z
x,-y,z
1/2+x,1/2+y,z
1/2-x,1/2-y,z
1/2+x,1/2-y,-z
1/2-x,1/2+y,-z
1/2-x,1/2-y,-z
1/2+x,1/2+y,-z
1/2-x,1/2+y,z
1/2+x,1/2-y,z
loop_
_atom_site_type_symbol
_atom_site_label
_atom_site_fract_x
_atom_site_fract_y
_atom_site_fract_z
Si Si1 0.634748 0.604845 0.312081
Si Si2 0.254085 0.049600 0.816383
Si Si3 0.579147 0.304931 0.189278
Si Si4 0.000000 0.948474 0.302936
Si Si5 0.424194 0.849630 0.304929
Si Si6 0.901234 0.549570 0.687570
Si Si7 0.181963 0.722888 0.811640
O O1 0.645452 0.593907 0.500000
O O2 0.700683 0.588665 0.216551
O O3 0.617636 0.656939 0.289597
O O4 0.568003 0.577748 0.251325
O O5 0.318870 0.051411 0.700551
O O6 0.220064 0.000000 0.794923
O O7 0.279880 0.051930 0.000000
O O8 0.500000 0.301080 0.240352
O O9 0.620327 0.258801 0.202616
O O10 0.580428 0.318296 0.000000
O O11 0.000000 0.947793 0.500000
O O12 0.000000 0.000000 0.249247
O O13 0.423388 0.850468 0.500000
O O14 0.500000 0.830337 0.255466
O O15 0.423287 0.901802 0.244948
O O16 0.355288 0.822285 0.255416
O O17 0.921785 0.548931 0.500000
O O18 0.920973 0.500000 0.757440
O O19 0.250000 0.750000 0.746185
O O20 0.197883 0.713651 0.000000
#
# Coordination Sequence:
#
# PCOD9491689 Si02
#       7
#    16  16  16   8  16  16  16
#     4  11  21  34  54  80 110 148 193 242 298 354
#     4  10  21  36  54  79 113 153 196 244 297 350
#     4  10  21  38  58  81 115 154 194 243 298 358
#     4   9  18  32  49  73 107 145 189 237 284 341
#     4  10  22  40  63  94 129 163 202 252 307 362
#     4   9  19  37  61  90 124 161 200 241 293 359
#     4  10  23  42  64  91 120 158 204 250 304 364
#
# _framework density 21.809373999999998
#
# number of rings (size 3 to 8) (size 9 to 14) (size 15 to 20)
#    0.000    2.077    0.769    1.846    2.154    4.308 
#    0.000    1.538    0.000    1.846    0.000    3.231 
#    0.000    0.000    0.000    0.000    0.000    0.000 
#
# Total GULP energy -290048.245874 kJ/mol
# GULP energy per Si atom -5577.850882 kJ/mol
# Density = 2.175974 g / cm^3
# Si number density = 21.809374 Si / 1000 Ang^3
#
#
#
# Elastic Constant Matrix: (Units=GPa)
#
#
# Indices 1 2 3 4 5 6 
#
# 1 110.8071 35.0130 19.1220 0.0000 0.0000 0.0000
# 2 35.0130 93.4445 19.2234 0.0000 0.0000 0.0000
# 3 19.1220 19.2234 22.3930 0.0000 0.0000 0.0000
# 4 0.0000 0.0000 0.0000 12.5808 0.0000 0.0000
# 5 0.0000 0.0000 0.0000 0.0000 3.6973 0.0000
# 6 0.0000 0.0000 0.0000 0.0000 0.0000 26.6386
#
#
#
# Elastic Compliance Matrix: (Units=1/GPa)
#
#
# Indices 1 2 3 4 5 6 
#
# 1 0.011113 -0.002686 -0.007184 0.000000 0.000000 0.000000
# 2 -0.002686 0.013646 -0.009421 0.000000 0.000000 0.000000
# 3 -0.007184 -0.009421 0.058879 0.000000 0.000000 0.000000
# 4 0.000000 0.000000 0.000000 0.079486 0.000000 0.000000
# 5 0.000000 0.000000 0.000000 0.000000 0.270468 0.000000
# 6 0.000000 0.000000 0.000000 0.000000 0.000000 0.037540
#
#
# Mechanical properties :
#
#
# Convention : Reuss Voigt Hill
#
# Bulk Modulus (GPa) = 22.19447 41.48459 31.83953
# Shear Modulus (GPa) = 9.52868 18.80243 14.16555
#
# Velocity S-wave (km/s) = 2.09250 2.93938 2.55133
# Velocity P-wave (km/s) = 4.00459 5.53016 4.82801
#
# Compressibility (1/GPa) = 0.04505626
#
# Stress axis : x y z
#
# Youngs Moduli (GPa) = 89.98309 73.28125 16.98410
#
# Poissons Ratio (x) = 0.19685 0.12201
# Poissons Ratio (y) = 0.24171 0.16000
# Poissons Ratio (z) = 0.64643 0.69036
#
# Static dielectric constant tensor:
#      x y z
#    x 1.890570 0.000000 0.000000 
#    y 0.000000 1.866120 0.000000 
#    z 0.000000 0.000000 1.787500 
# 
# From -- ./inp_files/12408.got.cif
#   From: 2010.05.17/outbox.cif.g08.bks.cpg/sg65_7_cif.got.tgz:12408.got - 2010.06.03 17:01:31.
