data_PCOD9491458
_publ_section_title
;
Structure prediction by ZEFSAII (Michael W. Deem and Ramdas Pophale) SiO2 
 PCOD9491458
Probable space group: C M M M
;
_chemical_formula_sum "Si O2"
_cell_formula_units_Z 72
_cell_length_a 9.238958
_cell_length_b 18.210407
_cell_length_c 25.099599
_cell_angle_alpha 90.000000
_cell_angle_beta 90.000000
_cell_angle_gamma 90.000000
_cell_volume 4222.886688
_symmetry_space_group_name_H-M "C M M M"
_symmetry_group_IT_number 65
_symmetry_cell_setting 'orthorhombic'
loop_
_space_group_symop_operation_xyz
x,y,z
-x,-y,z
x,-y,-z
-x,y,-z
-x,-y,-z
x,y,-z
-x,y,z
x,-y,z
1/2+x,1/2+y,z
1/2-x,1/2-y,z
1/2+x,1/2-y,-z
1/2-x,1/2+y,-z
1/2-x,1/2-y,-z
1/2+x,1/2+y,-z
1/2-x,1/2+y,z
1/2+x,1/2-y,z
loop_
_atom_site_type_symbol
_atom_site_label
_atom_site_fract_x
_atom_site_fract_y
_atom_site_fract_z
Si Si1 0.327096 0.085677 0.735714
Si Si2 0.828450 0.912691 0.061743
Si Si3 0.827434 0.672157 0.844516
Si Si4 0.836355 0.176018 0.355043
Si Si5 0.500000 0.587279 0.437113
O O1 0.500000 0.090676 0.726677
O O2 0.297091 0.121460 0.793130
O O3 0.243933 0.130144 0.690303
O O4 0.286030 0.000000 0.735198
O O5 0.735311 0.866908 0.103133
O O6 0.000000 0.899276 0.070204
O O7 0.803945 0.000000 0.068949
O O8 0.795711 0.894947 0.000000
O O9 0.750000 0.750000 0.837221
O O10 0.000000 0.681698 0.848797
O O11 0.750000 0.250000 0.366848
O O12 0.000000 0.195111 0.336455
O O13 0.864917 0.125530 0.406974
O O14 0.500000 0.500000 0.427886
O O15 0.500000 0.600919 0.500000
#
# Coordination Sequence:
#
# PCOD9491458 Si02
#       5
#    16  16  16  16   8
#     4  10  21  37  58  83 115 149 187 236 288 344
#     4   9  19  37  59  81 106 138 179 227 280 339
#     4  11  23  37  54  79 110 145 185 230 283 337
#     4  10  21  35  58  86 117 152 194 235 285 340
#     4   9  20  38  60  86 119 157 198 242 285 338
#
# _framework density 17.049948000000001
#
# number of rings (size 3 to 8) (size 9 to 14) (size 15 to 20)
#    0.667    1.444    0.000    4.000    0.000    6.222 
#    0.000    1.111    0.000    0.000    0.000    4.667 
#    0.000    0.000    0.000    0.000    0.000    0.000 
#
# Total GULP energy -200804.488958 kJ/mol
# GULP energy per Si atom -5577.902471 kJ/mol
# Density = 1.701114 g / cm^3
# Si number density = 17.049948 Si / 1000 Ang^3
#
#
#
# Elastic Constant Matrix: (Units=GPa)
#
#
# Indices 1 2 3 4 5 6 
#
# 1 65.4567 71.7734 66.4034 0.0000 0.0000 0.0000
# 2 71.7734 140.3253 89.2903 0.0000 0.0000 0.0000
# 3 66.4034 89.2903 126.5962 0.0000 0.0000 0.0000
# 4 0.0000 0.0000 0.0000 -23.3974 0.0000 0.0000
# 5 0.0000 0.0000 0.0000 0.0000 8.0272 0.0000
# 6 0.0000 0.0000 0.0000 0.0000 0.0000 4.3054
#
#
#
# Elastic Compliance Matrix: (Units=1/GPa)
#
#
# Indices 1 2 3 4 5 6 
#
# 1 0.044276 -0.014275 -0.013155 0.000000 0.000000 0.000000
# 2 -0.014275 0.017531 -0.004877 0.000000 0.000000 0.000000
# 3 -0.013155 -0.004877 0.018240 0.000000 0.000000 0.000000
# 4 0.000000 0.000000 0.000000 -0.042740 0.000000 0.000000
# 5 0.000000 0.000000 0.000000 0.000000 0.124576 0.000000
# 6 0.000000 0.000000 0.000000 0.000000 0.000000 0.232268
#
#
# Mechanical properties :
#
#
# Convention : Reuss Voigt Hill
#
# Bulk Modulus (GPa) = 64.80569 87.47916 76.14243
# Shear Modulus (GPa) = 10.77795 4.78111 7.77953
#
# Velocity S-wave (km/s) = 2.51697 1.67639 2.13839
# Velocity P-wave (km/s) = 6.82192 7.42738 7.13108
#
# Compressibility (1/GPa) = 0.01543074
#
# Stress axis : x y z
#
# Youngs Moduli (GPa) = 22.58573 57.04112 54.82582
#
# Poissons Ratio (x) = 0.81427 0.72126
# Poissons Ratio (y) = 0.32242 0.26740
# Poissons Ratio (z) = 0.29713 0.27821
#
# Static dielectric constant tensor:
#      x y z
#    x 1.565250 0.000000 0.000000 
#    y 0.000000 1.561760 0.000000 
#    z 0.000000 0.000000 1.546420 
# 
# From -- ./inp_files/72695.got.cif
#   From: 2010.05.17/outbox.cif.g08.bks.cpg/sg65_37_cif.got.tgz:72695.got - 2010.06.03 17:01:31.
