data_PCOD9491523
_publ_section_title
;
Structure prediction by ZEFSAII (Michael W. Deem and Ramdas Pophale) SiO2 
 PCOD9491523
Probable space group: C M M M
;
_chemical_formula_sum "Si O2"
_cell_formula_units_Z 88
_cell_length_a 14.581465
_cell_length_b 9.382982
_cell_length_c 29.679736
_cell_angle_alpha 90.000000
_cell_angle_beta 90.000000
_cell_angle_gamma 90.000000
_cell_volume 4060.710949
_symmetry_space_group_name_H-M "C M M M"
_symmetry_group_IT_number 65
_symmetry_cell_setting 'orthorhombic'
loop_
_space_group_symop_operation_xyz
x,y,z
-x,-y,z
x,-y,-z
-x,y,-z
-x,-y,-z
x,y,-z
-x,y,z
x,-y,z
1/2+x,1/2+y,z
1/2-x,1/2-y,z
1/2+x,1/2-y,-z
1/2-x,1/2+y,-z
1/2-x,1/2-y,-z
1/2+x,1/2+y,-z
1/2-x,1/2+y,z
1/2+x,1/2-y,z
loop_
_atom_site_type_symbol
_atom_site_label
_atom_site_fract_x
_atom_site_fract_y
_atom_site_fract_z
Si Si1 0.612103 0.663024 0.911429
Si Si2 0.392055 0.659185 0.363616
Si Si3 0.387750 0.837403 0.823161
Si Si4 0.112122 0.336762 0.000000
Si Si5 0.388208 0.665552 0.263949
Si Si6 0.653612 0.169917 0.548794
O O1 0.500000 0.659675 0.911575
O O2 0.644031 0.500000 0.913165
O O3 0.639785 0.741997 0.865675
O O4 0.639877 0.752360 0.955227
O O5 0.500000 0.641872 0.357029
O O6 0.353850 0.500000 0.374204
O O7 0.357269 0.707033 0.314498
O O8 0.384261 0.765577 0.405179
O O9 0.500000 0.839485 0.823163
O O10 0.357605 0.766818 0.776291
O O11 0.356515 0.000000 0.827542
O O12 0.143975 0.500000 0.000000
O O13 0.000000 0.340164 0.000000
O O14 0.500000 0.670127 0.262764
O O15 0.362639 0.500000 0.256609
O O16 0.606800 0.198937 0.500000
O O17 0.750000 0.250000 0.545863
O O18 0.662217 0.000000 0.552352
#
# Coordination Sequence:
#
# PCOD9491523 Si02
#       6
#    16  16  16   8  16  16
#     4   9  15  21  28  37  51  75 108 146 191 243
#     4   9  18  32  50  72  97 124 153 187 229 275
#     4   9  15  21  30  45  64  87 117 154 197 243
#     4   9  15  21  27  35  49  69  99 145 196 241
#     4   8  14  25  39  55  77 104 132 163 203 252
#     4  10  21  36  53  72  95 124 157 192 229 271
#
# _framework density 21.671081999999998
#
# number of rings (size 3 to 8) (size 9 to 14) (size 15 to 20)
#    0.000    3.000    0.000    3.000    0.000    8.000 
#    0.000    3.636    0.000    0.000    0.000    0.000 
#    0.000    0.000    0.000    0.000    0.000    0.000 
#
# Total GULP energy -245478.275001 kJ/mol
# GULP energy per Si atom -5579.051705 kJ/mol
# Density = 2.162176 g / cm^3
# Si number density = 21.671082 Si / 1000 Ang^3
#
#
#
# Elastic Constant Matrix: (Units=GPa)
#
#
# Indices 1 2 3 4 5 6 
#
# 1 44.9554 10.1641 6.9873 0.0000 0.0000 0.0000
# 2 10.1641 187.2959 148.5366 0.0000 0.0000 0.0000
# 3 6.9873 148.5366 238.1540 0.0000 0.0000 0.0000
# 4 0.0000 0.0000 0.0000 50.7369 0.0000 0.0000
# 5 0.0000 0.0000 0.0000 0.0000 -24.4233 0.0000
# 6 0.0000 0.0000 0.0000 0.0000 0.0000 7.9252
#
#
#
# Elastic Compliance Matrix: (Units=1/GPa)
#
#
# Indices 1 2 3 4 5 6 
#
# 1 0.022525 -0.001382 0.000201 0.000000 0.000000 0.000000
# 2 -0.001382 0.010650 -0.006602 0.000000 0.000000 0.000000
# 3 0.000201 -0.006602 0.008310 0.000000 0.000000 0.000000
# 4 0.000000 0.000000 0.000000 0.019710 0.000000 0.000000
# 5 0.000000 0.000000 0.000000 0.000000 -0.040944 0.000000
# 6 0.000000 0.000000 0.000000 0.000000 0.000000 0.126180
#
#
# Mechanical properties :
#
#
# Convention : Reuss Voigt Hill
#
# Bulk Modulus (GPa) = 38.57930 89.08683 63.83306
# Shear Modulus (GPa) = 29.30224 27.16224 28.23224
#
# Velocity S-wave (km/s) = 3.68113 3.54416 3.61329
# Velocity P-wave (km/s) = 5.99237 7.61222 6.85034
#
# Compressibility (1/GPa) = 0.02592064
#
# Stress axis : x y z
#
# Youngs Moduli (GPa) = 44.39427 93.90033 120.32981
#
# Poissons Ratio (x) = 0.12975 -0.02417
# Poissons Ratio (y) = 0.06134 0.79437
# Poissons Ratio (z) = -0.00892 0.61989
#
# Static dielectric constant tensor:
#      x y z
#    x 2.060690 0.000000 0.000000 
#    y 0.000000 1.742340 0.000000 
#    z 0.000000 0.000000 1.805340 
# 
# From -- ./inp_files/76524.got.cif
#   From: 2010.05.17/outbox.cif.g08.bks.cpg/sg65_39_cif.got.tgz:76524.got - 2010.06.03 17:01:31.
