data_PCOD9491146
_publ_section_title
;
Structure prediction by ZEFSAII (Michael W. Deem and Ramdas Pophale) SiO2 
 PCOD9491146
Probable space group: C M M M
;
_chemical_formula_sum "Si O2"
_cell_formula_units_Z 72
_cell_length_a 20.916918
_cell_length_b 7.446690
_cell_length_c 21.440349
_cell_angle_alpha 90.000000
_cell_angle_beta 90.000000
_cell_angle_gamma 90.000000
_cell_volume 3339.587441
_symmetry_space_group_name_H-M "C M M M"
_symmetry_group_IT_number 65
_symmetry_cell_setting 'orthorhombic'
loop_
_space_group_symop_operation_xyz
x,y,z
-x,-y,z
x,-y,-z
-x,y,-z
-x,-y,-z
x,y,-z
-x,y,z
x,-y,z
1/2+x,1/2+y,z
1/2-x,1/2-y,z
1/2+x,1/2-y,-z
1/2-x,1/2+y,-z
1/2-x,1/2-y,-z
1/2+x,1/2+y,-z
1/2-x,1/2+y,z
1/2+x,1/2-y,z
loop_
_atom_site_type_symbol
_atom_site_label
_atom_site_fract_x
_atom_site_fract_y
_atom_site_fract_z
Si Si1 0.576693 0.284623 0.566922
Si Si2 0.000000 0.298055 0.075136
Si Si3 0.926015 0.780090 0.704135
Si Si4 0.819856 0.785027 0.800191
Si Si5 0.857305 0.206737 0.930044
O O1 0.601436 0.215081 0.500000
O O2 0.500000 0.256553 0.566773
O O3 0.586656 0.500000 0.566399
O O4 0.597197 0.220380 0.635182
O O5 0.932440 0.208738 0.089350
O O6 0.000000 0.500000 0.100234
O O7 0.000000 0.305754 0.000000
O O8 0.877499 0.718708 0.757224
O O9 0.000000 0.726213 0.714049
O O10 0.926175 0.000000 0.703763
O O11 0.750000 0.750000 0.772977
O O12 0.822670 0.709598 0.870720
O O13 0.828042 0.000000 0.804949
O O14 0.837146 0.000000 0.935480
O O15 0.850651 0.286097 0.000000
#
# Coordination Sequence:
#
# PCOD9491146 Si02
#       5
#    16   8  16  16  16
#     4   7   9  15  31  58  89 114 139 180 229 267
#     4   9  17  29  47  73  99 119 142 183 238 282
#     4   8  14  25  43  66  89 117 154 190 226 273
#     4  10  21  34  49  67  92 125 158 194 237 279
#     4   9  18  32  49  68  90 120 158 194 230 277
#
# _framework density 21.559549000000001
#
# number of rings (size 3 to 8) (size 9 to 14) (size 15 to 20)
#    0.000    3.444    0.000    2.333    1.556    2.667 
#    0.000    0.000    0.000    0.667    0.000    0.000 
#    0.000    0.000    0.000    5.556    0.000    4.444 
#
# Total GULP energy -200493.477661 kJ/mol
# GULP energy per Si atom -5569.263268 kJ/mol
# Density = 2.151048 g / cm^3
# Si number density = 21.559549 Si / 1000 Ang^3
#
#
#
# Elastic Constant Matrix: (Units=GPa)
#
#
# Indices 1 2 3 4 5 6 
#
# 1 84.8050 -5.4083 70.5839 0.0000 0.0000 0.0000
# 2 -5.4083 66.4366 12.9732 0.0000 0.0000 0.0000
# 3 70.5839 12.9732 177.0540 0.0000 0.0000 0.0000
# 4 0.0000 0.0000 0.0000 -14.2862 0.0000 0.0000
# 5 0.0000 0.0000 0.0000 0.0000 -8.2461 0.0000
# 6 0.0000 0.0000 0.0000 0.0000 0.0000 0.9066
#
#
#
# Elastic Compliance Matrix: (Units=1/GPa)
#
#
# Indices 1 2 3 4 5 6 
#
# 1 0.018196 0.002940 -0.007469 0.000000 0.000000 0.000000
# 2 0.002940 0.015745 -0.002326 0.000000 0.000000 0.000000
# 3 -0.007469 -0.002326 0.008796 0.000000 0.000000 0.000000
# 4 0.000000 0.000000 0.000000 -0.069998 0.000000 0.000000
# 5 0.000000 0.000000 0.000000 0.000000 -0.121270 0.000000
# 6 0.000000 0.000000 0.000000 0.000000 0.000000 1.103076
#
#
# Mechanical properties :
#
#
# Convention : Reuss Voigt Hill
#
# Bulk Modulus (GPa) = 34.45054 53.84369 44.14712
# Shear Modulus (GPa) = 5.11283 12.35131 8.73207
#
# Velocity S-wave (km/s) = 1.54164 2.39611 2.01470
# Velocity P-wave (km/s) = 4.37982 5.71697 5.09247
#
# Compressibility (1/GPa) = 0.02902712
#
# Stress axis : x y z
#
# Youngs Moduli (GPa) = 54.95674 63.51052 113.68605
#
# Poissons Ratio (x) = -0.18671 0.84917
# Poissons Ratio (y) = -0.16156 0.26440
# Poissons Ratio (z) = 0.41050 0.14771
#
# Static dielectric constant tensor:
#      x y z
#    x 1.748300 0.000000 0.000000 
#    y 0.000000 1.820470 0.000000 
#    z 0.000000 0.000000 3.997560 
# 
# From -- ./inp_files/64304.got.cif
#   From: 2010.05.17/outbox.cif.g08.bks.cpg/sg65_33_cif.got.tgz:64304.got - 2010.06.03 17:01:31.
