data_PCOD9491570
_publ_section_title
;
Structure prediction by ZEFSAII (Michael W. Deem and Ramdas Pophale) SiO2 
 PCOD9491570
Probable space group: C M M M
;
_chemical_formula_sum "Si O2"
_cell_formula_units_Z 104
_cell_length_a 9.176154
_cell_length_b 20.734902
_cell_length_c 30.197425
_cell_angle_alpha 90.000000
_cell_angle_beta 90.000000
_cell_angle_gamma 90.000000
_cell_volume 5745.563012
_symmetry_space_group_name_H-M "C M M M"
_symmetry_group_IT_number 65
_symmetry_cell_setting 'orthorhombic'
loop_
_space_group_symop_operation_xyz
x,y,z
-x,-y,z
x,-y,-z
-x,y,-z
-x,-y,-z
x,y,-z
-x,y,z
x,-y,z
1/2+x,1/2+y,z
1/2-x,1/2-y,z
1/2+x,1/2-y,-z
1/2-x,1/2+y,-z
1/2-x,1/2-y,-z
1/2+x,1/2+y,-z
1/2-x,1/2+y,z
1/2+x,1/2-y,z
loop_
_atom_site_type_symbol
_atom_site_label
_atom_site_fract_x
_atom_site_fract_y
_atom_site_fract_z
Si Si1 0.326889 0.185668 0.857699
Si Si2 0.175648 0.424165 0.612437
Si Si3 0.334386 0.077953 0.287108
Si Si4 0.162256 0.000000 0.946551
Si Si5 0.673128 0.423850 0.197818
Si Si6 0.173268 0.369266 0.050183
Si Si7 0.827308 0.817551 0.447167
O O1 0.500000 0.187772 0.850592
O O2 0.250000 0.250000 0.840430
O O3 0.258947 0.122708 0.835060
O O4 0.298765 0.180040 0.910462
O O5 0.214800 0.500000 0.606688
O O6 0.209549 0.403462 0.663143
O O7 0.255673 0.376833 0.578889
O O8 0.000000 0.419857 0.607460
O O9 0.500000 0.100894 0.277987
O O10 0.226631 0.094215 0.247341
O O11 0.340950 0.000000 0.288408
O O12 0.248035 0.935320 0.936159
O O13 0.000000 0.000000 0.927217
O O14 0.151299 0.000000 0.000000
O O15 0.500000 0.415574 0.193316
O O16 0.706714 0.500000 0.190578
O O17 0.000000 0.380951 0.048888
O O18 0.219397 0.351091 0.000000
O O19 0.806989 0.826441 0.500000
O O20 0.750000 0.750000 0.434950
O O21 0.000000 0.813722 0.438375
#
# Coordination Sequence:
#
# PCOD9491570 Si02
#       7
#    16  16  16   8  16  16  16
#     4  11  24  40  58  80 110 146 181 222 272 322
#     4   9  18  33  55  83 113 144 179 223 275 328
#     4   8  15  31  55  82 111 142 178 221 269 324
#     4   9  17  29  49  79 109 135 167 213 261 299
#     4  10  21  37  59  86 113 143 180 223 268 321
#     4   9  19  36  56  78 106 141 179 217 262 319
#     4  10  21  36  53  74 105 147 192 236 280 327
#
# _framework density 18.100925
#
# number of rings (size 3 to 8) (size 9 to 14) (size 15 to 20)
#    0.000    2.538    0.000    2.538    1.077    5.538 
#    0.000    3.846    0.000    3.692    0.000    0.000 
#    0.000    0.000    0.000    0.000    0.000    0.000 
#
# Total GULP energy -289957.552033 kJ/mol
# GULP energy per Si atom -5576.106770 kJ/mol
# Density = 1.805973 g / cm^3
# Si number density = 18.100925 Si / 1000 Ang^3
#
#
#
# Elastic Constant Matrix: (Units=GPa)
#
#
# Indices 1 2 3 4 5 6 
#
# 1 65.4673 69.7094 62.1526 0.0000 0.0000 0.0000
# 2 69.7094 103.2340 60.4147 0.0000 0.0000 0.0000
# 3 62.1526 60.4147 89.2826 0.0000 0.0000 0.0000
# 4 0.0000 0.0000 0.0000 -1.8159 0.0000 0.0000
# 5 0.0000 0.0000 0.0000 0.0000 24.2831 0.0000
# 6 0.0000 0.0000 0.0000 0.0000 0.0000 27.0146
#
#
#
# Elastic Compliance Matrix: (Units=1/GPa)
#
#
# Indices 1 2 3 4 5 6 
#
# 1 0.100631 -0.044628 -0.039854 0.000000 0.000000 0.000000
# 2 -0.044628 0.035830 0.006822 0.000000 0.000000 0.000000
# 3 -0.039854 0.006822 0.034328 0.000000 0.000000 0.000000
# 4 0.000000 0.000000 0.000000 -0.550678 0.000000 0.000000
# 5 0.000000 0.000000 0.000000 0.000000 0.041181 0.000000
# 6 0.000000 0.000000 0.000000 0.000000 0.000000 0.037017
#
#
# Mechanical properties :
#
#
# Convention : Reuss Voigt Hill
#
# Bulk Modulus (GPa) = 64.64765 71.39302 68.02033
# Shear Modulus (GPa) = -35.40643 14.27682 -10.56480
#
# Velocity S-wave (km/s) = -4.42753 2.81149 -2.41853
# Velocity P-wave (km/s) = 3.10729 7.07577 5.46451
#
# Compressibility (1/GPa) = 0.01546847
#
# Stress axis : x y z
#
# Youngs Moduli (GPa) = 9.93733 27.90994 29.13113
#
# Poissons Ratio (x) = 1.24557 1.16099
# Poissons Ratio (y) = 0.44348 -0.19874
# Poissons Ratio (z) = 0.39604 -0.19041
#
# Static dielectric constant tensor:
#      x y z
#    x 1.608130 0.000000 0.000000 
#    y 0.000000 1.595060 0.000000 
#    z 0.000000 0.000000 1.642370 
# 
# From -- ./inp_files/73307.got.cif
#   From: 2010.05.17/outbox.cif.g08.bks.cpg/sg65_37_cif.got.tgz:73307.got - 2010.06.03 17:01:31.
