data_PCOD9491143
_publ_section_title
;
Structure prediction by ZEFSAII (Michael W. Deem and Ramdas Pophale) SiO2 
 PCOD9491143
Probable space group: C M M M
;
_chemical_formula_sum "Si O2"
_cell_formula_units_Z 104
_cell_length_a 21.266654
_cell_length_b 32.598344
_cell_length_c 8.859353
_cell_angle_alpha 90.000000
_cell_angle_beta 90.000000
_cell_angle_gamma 90.000000
_cell_volume 6141.814709
_symmetry_space_group_name_H-M "C M M M"
_symmetry_group_IT_number 65
_symmetry_cell_setting 'orthorhombic'
loop_
_space_group_symop_operation_xyz
x,y,z
-x,-y,z
x,-y,-z
-x,y,-z
-x,-y,-z
x,y,-z
-x,y,z
x,-y,z
1/2+x,1/2+y,z
1/2-x,1/2-y,z
1/2+x,1/2-y,-z
1/2-x,1/2+y,-z
1/2-x,1/2-y,-z
1/2+x,1/2+y,-z
1/2-x,1/2+y,z
1/2+x,1/2-y,z
loop_
_atom_site_type_symbol
_atom_site_label
_atom_site_fract_x
_atom_site_fract_y
_atom_site_fract_z
Si Si1 0.570216 0.500000 0.815851
Si Si2 0.843294 0.926735 0.822835
Si Si3 0.928408 0.784759 0.818339
Si Si4 0.071486 0.688263 0.818676
Si Si5 0.179110 0.841495 0.321160
Si Si6 0.300062 0.046207 0.177294
Si Si7 0.181233 0.365882 0.319301
O O1 0.500000 0.500000 0.761449
O O2 0.606141 0.540648 0.770486
O O3 0.571186 0.500000 0.000000
O O4 0.845061 0.886516 0.722811
O O5 0.775413 0.948451 0.813739
O O6 0.853101 0.915882 0.000000
O O7 0.921309 0.736499 0.781658
O O8 0.869785 0.809719 0.751726
O O9 0.000000 0.797325 0.770044
O O10 0.926923 0.788731 0.000000
O O11 0.123544 0.660841 0.739644
O O12 0.000000 0.676261 0.778072
O O13 0.077666 0.684452 0.000000
O O14 0.179663 0.834813 0.500000
O O15 0.252459 0.844612 0.268277
O O16 0.323991 0.087255 0.259606
O O17 0.316902 0.000000 0.231702
O O18 0.317295 0.048542 0.000000
O O19 0.182680 0.367089 0.500000
#
# Coordination Sequence:
#
# PCOD9491143 Si02
#       7
#     8  16  16  16  16  16  16
#     4   9  16  26  43  67  91 119 162 213 258 297
#     4   9  16  29  47  67  93 127 168 213 256 297
#     4   9  19  36  56  76  98 131 176 219 260 306
#     4   9  19  37  59  80 102 130 168 213 258 308
#     4  10  21  34  48  73 107 139 171 210 255 304
#     4   9  16  29  51  74  97 130 172 214 253 296
#     4  10  21  34  50  78 111 140 171 206 253 311
#
# _framework density 16.933105000000001
#
# number of rings (size 3 to 8) (size 9 to 14) (size 15 to 20)
#    0.000    2.692    0.769    1.846    0.000    4.615 
#    0.000    6.538    0.000    0.923    0.000    3.231 
#    0.000    0.000    0.000    0.000    0.000    0.000 
#
# Total GULP energy -289632.985659 kJ/mol
# GULP energy per Si atom -5569.865109 kJ/mol
# Density = 1.689456 g / cm^3
# Si number density = 16.933105 Si / 1000 Ang^3
#
#
#
# Elastic Constant Matrix: (Units=GPa)
#
#
# Indices 1 2 3 4 5 6 
#
# 1 122.9443 87.3665 37.3898 0.0000 0.0000 0.0000
# 2 87.3665 106.2633 37.5290 0.0000 0.0000 0.0000
# 3 37.3898 37.5290 25.8569 0.0000 0.0000 0.0000
# 4 0.0000 0.0000 0.0000 -61.9293 0.0000 0.0000
# 5 0.0000 0.0000 0.0000 0.0000 21.8304 0.0000
# 6 0.0000 0.0000 0.0000 0.0000 0.0000 35.4718
#
#
#
# Elastic Compliance Matrix: (Units=1/GPa)
#
#
# Indices 1 2 3 4 5 6 
#
# 1 0.020953 -0.013390 -0.010864 0.000000 0.000000 0.000000
# 2 -0.013390 0.027864 -0.021080 0.000000 0.000000 0.000000
# 3 -0.010864 -0.021080 0.084981 0.000000 0.000000 0.000000
# 4 0.000000 0.000000 0.000000 -0.016147 0.000000 0.000000
# 5 0.000000 0.000000 0.000000 0.000000 0.045808 0.000000
# 6 0.000000 0.000000 0.000000 0.000000 0.000000 0.028191
#
#
# Mechanical properties :
#
#
# Convention : Reuss Voigt Hill
#
# Bulk Modulus (GPa) = 23.18633 64.40389 43.79511
# Shear Modulus (GPa) = 16.85233 5.25987 11.05610
#
# Velocity S-wave (km/s) = 3.15815 1.76437 2.55802
# Velocity P-wave (km/s) = 5.19819 6.50135 5.88595
#
# Compressibility (1/GPa) = 0.04312886
#
# Stress axis : x y z
#
# Youngs Moduli (GPa) = 47.72597 35.88815 11.76739
#
# Poissons Ratio (x) = 0.48054 0.12784
# Poissons Ratio (y) = 0.63905 0.24806
# Poissons Ratio (z) = 0.51851 0.75653
#
# Static dielectric constant tensor:
#      x y z
#    x 1.573560 0.000000 0.000000 
#    y 0.000000 1.563210 0.000000 
#    z 0.000000 0.000000 1.574390 
# 
# From -- ./inp_files/12737.got.cif
#   From: 2010.05.17/outbox.cif.g08.bks.cpg/sg65_7_cif.got.tgz:12737.got - 2010.06.03 17:01:31.
