data_PCOD9491535
_publ_section_title
;
Structure prediction by ZEFSAII (Michael W. Deem and Ramdas Pophale) SiO2 
 PCOD9491535
Probable space group: C M M M
;
_chemical_formula_sum "Si O2"
_cell_formula_units_Z 88
_cell_length_a 20.247947
_cell_length_b 7.831449
_cell_length_c 28.881213
_cell_angle_alpha 90.000000
_cell_angle_beta 90.000000
_cell_angle_gamma 90.000000
_cell_volume 4579.716019
_symmetry_space_group_name_H-M "C M M M"
_symmetry_group_IT_number 65
_symmetry_cell_setting 'orthorhombic'
loop_
_space_group_symop_operation_xyz
x,y,z
-x,-y,z
x,-y,-z
-x,y,-z
-x,-y,-z
x,y,-z
-x,y,z
x,-y,z
1/2+x,1/2+y,z
1/2-x,1/2-y,z
1/2+x,1/2-y,-z
1/2-x,1/2+y,-z
1/2-x,1/2-y,-z
1/2+x,1/2+y,-z
1/2-x,1/2+y,z
1/2+x,1/2-y,z
loop_
_atom_site_type_symbol
_atom_site_label
_atom_site_fract_x
_atom_site_fract_y
_atom_site_fract_z
Si Si1 0.425439 0.295386 0.132319
Si Si2 0.324812 0.705705 0.314488
Si Si3 0.325140 0.294366 0.580322
Si Si4 0.825363 0.297210 0.948319
Si Si5 0.076332 0.208546 0.764277
Si Si6 0.423508 0.290690 0.500000
O O1 0.500000 0.231318 0.123088
O O2 0.429343 0.500000 0.135447
O O3 0.375553 0.256242 0.091360
O O4 0.404632 0.235039 0.183709
O O5 0.330531 0.500000 0.316047
O O6 0.250000 0.750000 0.301330
O O7 0.335561 0.769258 0.367077
O O8 0.376055 0.770353 0.276324
O O9 0.328726 0.500000 0.581227
O O10 0.250000 0.250000 0.566111
O O11 0.380916 0.234887 0.544626
O O12 0.828850 0.500000 0.951167
O O13 0.750000 0.250000 0.936940
O O14 0.840190 0.226303 0.000000
O O15 0.000000 0.256501 0.756667
O O16 0.078678 0.000000 0.763721
O O17 0.424181 0.500000 0.500000
O O18 0.500000 0.235764 0.500000
#
# Coordination Sequence:
#
# PCOD9491535 Si02
#       6
#    16  16  16  16  16   8
#     4   9  18  33  52  73  98 128 160 194 234 281
#     4   9  17  29  46  68  92 119 153 190 228 272
#     4   9  17  29  46  66  89 120 153 187 229 274
#     4  10  21  36  53  73  98 127 159 197 239 282
#     4   8  15  29  48  69  93 121 154 191 228 269
#     4   9  17  28  43  67  94 115 146 194 236 269
#
# _framework density 19.215164999999999
#
# number of rings (size 3 to 8) (size 9 to 14) (size 15 to 20)
#    0.000    3.000    0.000    1.909    0.000    3.273 
#    0.000    8.182    0.000    2.727    0.000    5.091 
#    0.000    0.000    0.000    0.000    0.000    0.000 
#
# Total GULP energy -245303.535172 kJ/mol
# GULP energy per Si atom -5575.080345 kJ/mol
# Density = 1.917143 g / cm^3
# Si number density = 19.215165 Si / 1000 Ang^3
#
#
#
# Elastic Constant Matrix: (Units=GPa)
#
#
# Indices 1 2 3 4 5 6 
#
# 1 161.2864 3.5112 145.7426 0.0000 0.0000 0.0000
# 2 3.5112 20.9653 9.1415 0.0000 0.0000 0.0000
# 3 145.7426 9.1415 172.9834 0.0000 0.0000 0.0000
# 4 0.0000 0.0000 0.0000 105.9319 0.0000 0.0000
# 5 0.0000 0.0000 0.0000 0.0000 66.9616 0.0000
# 6 0.0000 0.0000 0.0000 0.0000 0.0000 22.7606
#
#
#
# Elastic Compliance Matrix: (Units=1/GPa)
#
#
# Indices 1 2 3 4 5 6 
#
# 1 0.026569 0.005436 -0.022673 0.000000 0.000000 0.000000
# 2 0.005436 0.049935 -0.007219 0.000000 0.000000 0.000000
# 3 -0.022673 -0.007219 0.025265 0.000000 0.000000 0.000000
# 4 0.000000 0.000000 0.000000 0.009440 0.000000 0.000000
# 5 0.000000 0.000000 0.000000 0.000000 0.014934 0.000000
# 6 0.000000 0.000000 0.000000 0.000000 0.000000 0.043936
#
#
# Mechanical properties :
#
#
# Convention : Reuss Voigt Hill
#
# Bulk Modulus (GPa) = 18.91848 74.66953 46.79400
# Shear Modulus (GPa) = 21.13188 52.25346 36.69267
#
# Velocity S-wave (km/s) = 3.31985 5.22043 4.37460
# Velocity P-wave (km/s) = 4.95602 8.67648 7.06553
#
# Compressibility (1/GPa) = 0.05285838
#
# Stress axis : x y z
#
# Youngs Moduli (GPa) = 37.63724 20.02594 39.58096
#
# Poissons Ratio (x) = -0.10887 0.89741
# Poissons Ratio (y) = -0.20461 0.28574
# Poissons Ratio (z) = 0.85334 0.14457
#
# Static dielectric constant tensor:
#      x y z
#    x 1.602340 0.000000 0.000000 
#    y 0.000000 1.716800 0.000000 
#    z 0.000000 0.000000 1.695250 
# 
# From -- ./inp_files/67555.got.cif
#   From: 2010.05.17/outbox.cif.g08.bks.cpg/sg65_34_cif.got.tgz:67555.got - 2010.06.03 17:01:31.
