data_PCOD9491863
_publ_section_title
;
Structure prediction by ZEFSAII (Michael W. Deem and Ramdas Pophale) SiO2 
 PCOD9491863
Probable space group: C M M M
;
_chemical_formula_sum "Si O2"
_cell_formula_units_Z 72
_cell_length_a 17.286290
_cell_length_b 13.806300
_cell_length_c 14.814960
_cell_angle_alpha 90.000000
_cell_angle_beta 90.000000
_cell_angle_gamma 90.000000
_cell_volume 3535.733992
_symmetry_space_group_name_H-M "C M M M"
_symmetry_group_IT_number 65
_symmetry_cell_setting 'orthorhombic'
loop_
_space_group_symop_operation_xyz
x,y,z
-x,-y,z
x,-y,-z
-x,y,-z
-x,-y,-z
x,y,-z
-x,y,z
x,-y,z
1/2+x,1/2+y,z
1/2-x,1/2-y,z
1/2+x,1/2-y,-z
1/2-x,1/2+y,-z
1/2-x,1/2-y,-z
1/2+x,1/2+y,-z
1/2-x,1/2+y,z
1/2+x,1/2-y,z
loop_
_atom_site_type_symbol
_atom_site_label
_atom_site_fract_x
_atom_site_fract_y
_atom_site_fract_z
Si Si1 0.000000 0.617371 0.396997
Si Si2 0.913722 0.226510 0.893676
Si Si3 0.196592 0.883867 0.234742
Si Si4 0.622672 0.884168 0.753016
Si Si5 0.588494 0.618050 0.601433
O O1 0.075147 0.643030 0.337183
O O2 0.000000 0.500000 0.402315
O O3 0.000000 0.653390 0.500000
O O4 0.845712 0.161869 0.851400
O O5 0.910662 0.326013 0.837689
O O6 0.000000 0.183024 0.879091
O O7 0.903294 0.241121 0.000000
O O8 0.286332 0.860219 0.248921
O O9 0.146859 0.851547 0.321234
O O10 0.191588 0.000000 0.227892
O O11 0.614468 0.000000 0.764070
O O12 0.609623 0.648849 0.500000
O O13 0.500000 0.647879 0.620423
O O14 0.588610 0.500000 0.601045
#
# Coordination Sequence:
#
# PCOD9491863 Si02
#       5
#     8  16  16  16  16
#     4   9  18  36  63  91 120 155 195 243 301 361
#     4  11  24  41  62  86 115 156 202 249 300 354
#     4  10  21  36  58  88 122 157 193 241 296 354
#     4  10  21  39  62  88 118 152 195 247 301 354
#     4   8  14  27  49  77 111 151 190 227 273 334
#
# _framework density 20.363523000000001
#
# number of rings (size 3 to 8) (size 9 to 14) (size 15 to 20)
#    0.000    2.333    1.111    2.000    0.000    4.889 
#    0.000   10.000    0.000    2.667    0.000    0.000 
#    0.000    0.000    0.000    0.000    0.000    0.000 
#
# Total GULP energy -201132.714087 kJ/mol
# GULP energy per Si atom -5587.019836 kJ/mol
# Density = 2.031717 g / cm^3
# Si number density = 20.363523 Si / 1000 Ang^3
#
#
#
# Elastic Constant Matrix: (Units=GPa)
#
#
# Indices 1 2 3 4 5 6 
#
# 1 163.1210 42.1560 105.9104 0.0000 0.0000 0.0000
# 2 42.1560 70.0927 34.1454 0.0000 0.0000 0.0000
# 3 105.9104 34.1454 176.7067 0.0000 0.0000 0.0000
# 4 0.0000 0.0000 0.0000 30.7137 0.0000 0.0000
# 5 0.0000 0.0000 0.0000 0.0000 -10.4780 0.0000
# 6 0.0000 0.0000 0.0000 0.0000 0.0000 31.8566
#
#
#
# Elastic Compliance Matrix: (Units=1/GPa)
#
#
# Indices 1 2 3 4 5 6 
#
# 1 0.010842 -0.003704 -0.005783 0.000000 0.000000 0.000000
# 2 -0.003704 0.017015 -0.001068 0.000000 0.000000 0.000000
# 3 -0.005783 -0.001068 0.009331 0.000000 0.000000 0.000000
# 4 0.000000 0.000000 0.000000 0.032559 0.000000 0.000000
# 5 0.000000 0.000000 0.000000 0.000000 -0.095439 0.000000
# 6 0.000000 0.000000 0.000000 0.000000 0.000000 0.031391
#
#
# Mechanical properties :
#
#
# Convention : Reuss Voigt Hill
#
# Bulk Modulus (GPa) = 62.19116 86.03822 74.11469
# Shear Modulus (GPa) = 155.43735 25.59904 90.51820
#
# Velocity S-wave (km/s) = 8.74625 3.54941 6.67440
# Velocity P-wave (km/s) = 11.51533 7.69029 9.79141
#
# Compressibility (1/GPa) = 0.01607946
#
# Stress axis : x y z
#
# Youngs Moduli (GPa) = 92.23301 58.77298 107.16647
#
# Poissons Ratio (x) = 0.21768 0.61970
# Poissons Ratio (y) = 0.34161 0.11444
# Poissons Ratio (z) = 0.53335 0.06276
#
# Static dielectric constant tensor:
#      x y z
#    x 1.718720 0.000000 0.000000 
#    y 0.000000 1.780840 0.000000 
#    z 0.000000 0.000000 1.674510 
# 
# From -- ./inp_files/42142.got.cif
#   From: 2010.05.17/outbox.cif.g08.bks.cpg/sg65_22_cif.got.tgz:42142.got - 2010.06.03 17:01:31.
