data_PCOD9491717
_publ_section_title
;
Structure prediction by ZEFSAII (Michael W. Deem and Ramdas Pophale) SiO2 
 PCOD9491717
Probable space group: C M M M
;
_chemical_formula_sum "Si O2"
_cell_formula_units_Z 104
_cell_length_a 7.978440
_cell_length_b 25.917837
_cell_length_c 22.471401
_cell_angle_alpha 90.000000
_cell_angle_beta 90.000000
_cell_angle_gamma 90.000000
_cell_volume 4646.724104
_symmetry_space_group_name_H-M "C M M M"
_symmetry_group_IT_number 65
_symmetry_cell_setting 'orthorhombic'
loop_
_space_group_symop_operation_xyz
x,y,z
-x,-y,z
x,-y,-z
-x,y,-z
-x,-y,-z
x,y,-z
-x,y,z
x,-y,z
1/2+x,1/2+y,z
1/2-x,1/2-y,z
1/2+x,1/2-y,-z
1/2-x,1/2+y,-z
1/2-x,1/2-y,-z
1/2+x,1/2+y,-z
1/2-x,1/2+y,z
1/2+x,1/2-y,z
loop_
_atom_site_type_symbol
_atom_site_label
_atom_site_fract_x
_atom_site_fract_y
_atom_site_fract_z
Si Si1 0.798680 0.500000 0.568462
Si Si2 0.190640 0.694276 0.192426
Si Si3 0.804259 0.556832 0.096700
Si Si4 0.702260 0.691307 0.568225
Si Si5 0.304485 0.668872 0.934521
Si Si6 0.307926 0.414473 0.775518
Si Si7 0.800432 0.903517 0.354408
O O1 0.749009 0.500000 0.500000
O O2 0.729514 0.449343 0.600008
O O3 0.000000 0.500000 0.572600
O O4 0.250000 0.750000 0.213074
O O5 0.203912 0.691782 0.120648
O O6 0.303045 0.647324 0.214739
O O7 0.000000 0.684479 0.210278
O O8 0.743262 0.500000 0.078729
O O9 0.711452 0.606639 0.071069
O O10 0.787508 0.561900 0.168349
O O11 0.000000 0.561131 0.080646
O O12 0.760678 0.680695 0.500000
O O13 0.500000 0.687859 0.567358
O O14 0.750000 0.750000 0.582975
O O15 0.765168 0.649183 0.615652
O O16 0.500000 0.682575 0.927773
O O17 0.245218 0.684383 0.000000
O O18 0.500000 0.433115 0.778403
O O19 0.233365 0.421098 0.709939
O O20 0.000000 0.896443 0.344776
#
# Coordination Sequence:
#
# PCOD9491717 Si02
#       7
#     8  16  16  16  16  16  16
#     4  11  25  41  59  87 121 157 198 247 298 347
#     4  11  22  38  60  83 113 152 190 231 284 338
#     4  10  21  36  55  79 109 147 186 226 279 338
#     4   9  18  34  56  81 110 144 183 229 280 337
#     4  10  21  37  57  83 113 144 185 235 284 337
#     4  10  21  37  57  83 112 142 186 236 282 336
#     4  10  22  39  60  86 115 153 197 238 290 352
#
# _framework density 22.381357999999999
#
# number of rings (size 3 to 8) (size 9 to 14) (size 15 to 20)
#    0.000    1.923    0.000    5.308    1.077    6.769 
#    0.000    4.615    0.000    0.000    0.000    0.000 
#    0.000    0.000    0.000    0.000    0.000    0.000 
#
# Total GULP energy -290666.961905 kJ/mol
# GULP energy per Si atom -5589.749267 kJ/mol
# Density = 2.233042 g / cm^3
# Si number density = 22.381358 Si / 1000 Ang^3
#
#
#
# Elastic Constant Matrix: (Units=GPa)
#
#
# Indices 1 2 3 4 5 6 
#
# 1 42.5539 -9.7856 -3.8109 0.0000 0.0000 0.0000
# 2 -9.7856 76.5411 -4.4293 0.0000 0.0000 0.0000
# 3 -3.8109 -4.4293 91.2260 0.0000 0.0000 0.0000
# 4 0.0000 0.0000 0.0000 -9.0989 0.0000 0.0000
# 5 0.0000 0.0000 0.0000 0.0000 22.0954 0.0000
# 6 0.0000 0.0000 0.0000 0.0000 0.0000 21.6716
#
#
#
# Elastic Compliance Matrix: (Units=1/GPa)
#
#
# Indices 1 2 3 4 5 6 
#
# 1 0.024336 0.003179 0.001171 0.000000 0.000000 0.000000
# 2 0.003179 0.013517 0.000789 0.000000 0.000000 0.000000
# 3 0.001171 0.000789 0.011049 0.000000 0.000000 0.000000
# 4 0.000000 0.000000 0.000000 -0.109903 0.000000 0.000000
# 5 0.000000 0.000000 0.000000 0.000000 0.045258 0.000000
# 6 0.000000 0.000000 0.000000 0.000000 0.000000 0.046143
#
#
# Mechanical properties :
#
#
# Convention : Reuss Voigt Hill
#
# Bulk Modulus (GPa) = 16.89770 19.36325 18.13048
# Shear Modulus (GPa) = 125.47615 22.15674 73.81644
#
# Velocity S-wave (km/s) = 7.49563 3.14978 5.74916
# Velocity P-wave (km/s) = 9.08179 4.67958 7.22418
#
# Compressibility (1/GPa) = 0.05917963
#
# Stress axis : x y z
#
# Youngs Moduli (GPa) = 41.09219 73.98105 90.50579
#
# Poissons Ratio (x) = -0.23519 -0.10598
# Poissons Ratio (y) = -0.13063 -0.07142
# Poissons Ratio (z) = -0.04812 -0.05838
#
# Static dielectric constant tensor:
#      x y z
#    x 1.782160 0.000000 0.000000 
#    y 0.000000 1.821650 0.000000 
#    z 0.000000 0.000000 1.844940 
# 
# From -- ./inp_files/60442.got.cif
#   From: 2010.05.17/outbox.cif.g08.bks.cpg/sg65_31_cif.got.tgz:60442.got - 2010.06.03 17:01:31.
