data_PCOD9491551
_publ_section_title
;
Structure prediction by ZEFSAII (Michael W. Deem and Ramdas Pophale) SiO2 
 PCOD9491551
Probable space group: C M M M
;
_chemical_formula_sum "Si O2"
_cell_formula_units_Z 80
_cell_length_a 18.652356
_cell_length_b 9.402331
_cell_length_c 26.153325
_cell_angle_alpha 90.000000
_cell_angle_beta 90.000000
_cell_angle_gamma 90.000000
_cell_volume 4586.655719
_symmetry_space_group_name_H-M "C M M M"
_symmetry_group_IT_number 65
_symmetry_cell_setting 'orthorhombic'
loop_
_space_group_symop_operation_xyz
x,y,z
-x,-y,z
x,-y,-z
-x,y,-z
-x,-y,-z
x,y,-z
-x,y,z
x,-y,z
1/2+x,1/2+y,z
1/2-x,1/2-y,z
1/2+x,1/2-y,-z
1/2-x,1/2+y,-z
1/2-x,1/2-y,-z
1/2+x,1/2+y,-z
1/2-x,1/2+y,z
1/2+x,1/2-y,z
loop_
_atom_site_type_symbol
_atom_site_label
_atom_site_fract_x
_atom_site_fract_y
_atom_site_fract_z
Si Si1 0.912918 0.165974 0.943454
Si Si2 0.825241 0.329515 0.257390
Si Si3 0.175992 0.167626 0.560477
Si Si4 0.415836 0.170435 0.157421
Si Si5 0.584388 0.167990 0.640696
O O1 0.889536 0.255918 0.894653
O O2 0.000000 0.173199 0.943914
O O3 0.893774 0.000000 0.937633
O O4 0.888700 0.214593 0.000000
O O5 0.814084 0.500000 0.255785
O O6 0.750000 0.250000 0.259815
O O7 0.869398 0.288600 0.206605
O O8 0.872346 0.298668 0.307605
O O9 0.161087 0.184514 0.500000
O O10 0.250000 0.250000 0.571738
O O11 0.115161 0.237644 0.595019
O O12 0.184056 0.000000 0.571136
O O13 0.500000 0.207320 0.165443
O O14 0.412312 0.000000 0.151758
O O15 0.500000 0.190540 0.648430
O O16 0.595363 0.000000 0.629286
#
# Coordination Sequence:
#
# PCOD9491551 Si02
#       5
#    16  16  16  16  16
#     4   8  14  25  42  67  99 130 159 196 244 295
#     4  10  21  36  53  74 101 133 169 209 254 304
#     4  10  21  37  57  81 110 143 178 216 257 303
#     4   9  17  30  49  72  98 128 163 204 248 295
#     4  10  21  37  57  80 107 139 174 214 261 311
#
# _framework density 17.441903
#
# number of rings (size 3 to 8) (size 9 to 14) (size 15 to 20)
#    0.000    2.600    0.000    2.400    0.000    8.000 
#    0.000    4.000    0.000    4.200    0.000    0.000 
#    0.000    0.000    0.000    0.000    0.000    0.000 
#
# Total GULP energy -223095.636120 kJ/mol
# GULP energy per Si atom -5577.390903 kJ/mol
# Density = 1.740220 g / cm^3
# Si number density = 17.441903 Si / 1000 Ang^3
#
#
#
# Elastic Constant Matrix: (Units=GPa)
#
#
# Indices 1 2 3 4 5 6 
#
# 1 96.0685 57.5124 73.3093 0.0000 0.0000 0.0000
# 2 57.5124 57.8042 70.6661 0.0000 0.0000 0.0000
# 3 73.3093 70.6661 109.7354 0.0000 0.0000 0.0000
# 4 0.0000 0.0000 0.0000 5.5588 0.0000 0.0000
# 5 0.0000 0.0000 0.0000 0.0000 -32.2747 0.0000
# 6 0.0000 0.0000 0.0000 0.0000 0.0000 27.7140
#
#
#
# Elastic Compliance Matrix: (Units=1/GPa)
#
#
# Indices 1 2 3 4 5 6 
#
# 1 0.026000 -0.021784 -0.003341 0.000000 0.000000 0.000000
# 2 -0.021784 0.099570 -0.049566 0.000000 0.000000 0.000000
# 3 -0.003341 -0.049566 0.043264 0.000000 0.000000 0.000000
# 4 0.000000 0.000000 0.000000 0.179895 0.000000 0.000000
# 5 0.000000 0.000000 0.000000 0.000000 -0.030984 0.000000
# 6 0.000000 0.000000 0.000000 0.000000 0.000000 0.036083
#
#
# Mechanical properties :
#
#
# Convention : Reuss Voigt Hill
#
# Bulk Modulus (GPa) = 51.41407 74.06487 62.73947
# Shear Modulus (GPa) = 9.80979 4.34097 7.07538
#
# Velocity S-wave (km/s) = 2.37413 1.57931 2.01627
# Velocity P-wave (km/s) = 6.08741 6.77359 6.43965
#
# Compressibility (1/GPa) = 0.01944993
#
# Stress axis : x y z
#
# Youngs Moduli (GPa) = 38.46099 10.04323 23.11387
#
# Poissons Ratio (x) = 0.21879 0.07723
# Poissons Ratio (y) = 0.83785 1.14567
# Poissons Ratio (z) = 0.12850 0.49781
#
# Static dielectric constant tensor:
#      x y z
#    x 1.571780 0.000000 0.000000 
#    y 0.000000 1.580240 0.000000 
#    z 0.000000 0.000000 1.591130 
# 
# From -- ./inp_files/72729.got.cif
#   From: 2010.05.17/outbox.cif.g08.bks.cpg/sg65_37_cif.got.tgz:72729.got - 2010.06.03 17:01:31.
