data_PCOD9491623
_publ_section_title
;
Structure prediction by ZEFSAII (Michael W. Deem and Ramdas Pophale) SiO2 
 PCOD9491623
Probable space group: C M M M
;
_chemical_formula_sum "Si O2"
_cell_formula_units_Z 80
_cell_length_a 7.647953
_cell_length_b 18.836410
_cell_length_c 27.200461
_cell_angle_alpha 90.000000
_cell_angle_beta 90.000000
_cell_angle_gamma 90.000000
_cell_volume 3918.497823
_symmetry_space_group_name_H-M "C M M M"
_symmetry_group_IT_number 65
_symmetry_cell_setting 'orthorhombic'
loop_
_space_group_symop_operation_xyz
x,y,z
-x,-y,z
x,-y,-z
-x,y,-z
-x,-y,-z
x,y,-z
-x,y,z
x,-y,z
1/2+x,1/2+y,z
1/2-x,1/2-y,z
1/2+x,1/2-y,-z
1/2-x,1/2+y,-z
1/2-x,1/2-y,-z
1/2+x,1/2+y,-z
1/2-x,1/2+y,z
1/2+x,1/2-y,z
loop_
_atom_site_type_symbol
_atom_site_label
_atom_site_fract_x
_atom_site_fract_y
_atom_site_fract_z
Si Si1 0.210419 0.667481 0.055024
Si Si2 0.785848 0.082887 0.339971
Si Si3 0.792576 0.832847 0.245052
Si Si4 0.209878 0.085423 0.552785
Si Si5 0.791363 0.420217 0.852293
O O1 0.250000 0.750000 0.064930
O O2 0.278875 0.618835 0.099049
O O3 0.000000 0.660570 0.053842
O O4 0.275926 0.650283 0.000000
O O5 0.722512 0.129264 0.294289
O O6 0.725678 0.109843 0.393806
O O7 0.000000 0.084049 0.340782
O O8 0.736540 0.000000 0.333882
O O9 0.750000 0.750000 0.243159
O O10 0.735857 0.873360 0.196022
O O11 0.000000 0.839751 0.247214
O O12 0.279067 0.112191 0.500000
O O13 0.000000 0.096704 0.552184
O O14 0.235646 0.000000 0.553164
O O15 0.721610 0.500000 0.846129
O O16 0.000000 0.425449 0.858852
#
# Coordination Sequence:
#
# PCOD9491623 Si02
#       5
#    16  16  16  16  16
#     4   9  18  33  53  76 102 133 166 198 235 281
#     4   8  14  25  42  65  91 119 154 196 241 288
#     4  11  22  35  51  70  96 131 168 205 246 293
#     4   7   9  15  31  57  87 115 144 184 234 283
#     4  10  21  36  54  77 103 129 161 203 247 291
#
# _framework density 20.415987000000001
#
# number of rings (size 3 to 8) (size 9 to 14) (size 15 to 20)
#    0.000    3.000    0.000    3.600    0.000    4.000 
#    0.000    2.000    0.000    0.600    0.000    4.200 
#    0.000    2.400    0.000   22.600    0.000   18.600 
#
# Total GULP energy -222989.935357 kJ/mol
# GULP energy per Si atom -5574.748384 kJ/mol
# Density = 2.036952 g / cm^3
# Si number density = 20.415987 Si / 1000 Ang^3
#
#
#
# Elastic Constant Matrix: (Units=GPa)
#
#
# Indices 1 2 3 4 5 6 
#
# 1 38.9436 0.6691 6.8250 0.0000 0.0000 0.0000
# 2 0.6691 119.9514 122.6675 0.0000 0.0000 0.0000
# 3 6.8250 122.6675 239.5625 0.0000 0.0000 0.0000
# 4 0.0000 0.0000 0.0000 -80.1257 0.0000 0.0000
# 5 0.0000 0.0000 0.0000 0.0000 24.2789 0.0000
# 6 0.0000 0.0000 0.0000 0.0000 0.0000 -4.1207
#
#
#
# Elastic Compliance Matrix: (Units=1/GPa)
#
#
# Indices 1 2 3 4 5 6 
#
# 1 0.025900 0.001281 -0.001394 0.000000 0.000000 0.000000
# 2 0.001281 0.017564 -0.009030 0.000000 0.000000 0.000000
# 3 -0.001394 -0.009030 0.008838 0.000000 0.000000 0.000000
# 4 0.000000 0.000000 0.000000 -0.012480 0.000000 0.000000
# 5 0.000000 0.000000 0.000000 0.000000 0.041188 0.000000
# 6 0.000000 0.000000 0.000000 0.000000 0.000000 -0.242675
#
#
# Mechanical properties :
#
#
# Convention : Reuss Voigt Hill
#
# Bulk Modulus (GPa) = 29.39771 73.19787 51.29779
# Shear Modulus (GPa) = -37.86751 5.89289 -15.98731
#
# Velocity S-wave (km/s) = -4.31141 1.70079 -2.80139
# Velocity P-wave (km/s) = 3.21772 6.30777 3.83629
#
# Compressibility (1/GPa) = 0.03401625
#
# Stress axis : x y z
#
# Youngs Moduli (GPa) = 38.60944 56.93371 113.14903
#
# Poissons Ratio (x) = -0.07292 0.15770
# Poissons Ratio (y) = -0.04945 1.02176
# Poissons Ratio (z) = 0.05381 0.51413
#
# Static dielectric constant tensor:
#      x y z
#    x 1.760720 0.000000 0.000000 
#    y 0.000000 1.673120 0.000000 
#    z 0.000000 0.000000 1.773290 
# 
# From -- ./inp_files/72801.got.cif
#   From: 2010.05.17/outbox.cif.g08.bks.cpg/sg65_37_cif.got.tgz:72801.got - 2010.06.03 17:01:31.
