data_PCOD9491756
_publ_section_title
;
Structure prediction by ZEFSAII (Michael W. Deem and Ramdas Pophale) SiO2 
 PCOD9491756
Probable space group: C M M M
;
_chemical_formula_sum "Si O2"
_cell_formula_units_Z 112
_cell_length_a 14.182623
_cell_length_b 15.803753
_cell_length_c 24.339202
_cell_angle_alpha 90.000000
_cell_angle_beta 90.000000
_cell_angle_gamma 90.000000
_cell_volume 5455.356384
_symmetry_space_group_name_H-M "C M M M"
_symmetry_group_IT_number 65
_symmetry_cell_setting 'orthorhombic'
loop_
_space_group_symop_operation_xyz
x,y,z
-x,-y,z
x,-y,-z
-x,y,-z
-x,-y,-z
x,y,-z
-x,y,z
x,-y,z
1/2+x,1/2+y,z
1/2-x,1/2-y,z
1/2+x,1/2-y,-z
1/2-x,1/2+y,-z
1/2-x,1/2-y,-z
1/2+x,1/2+y,-z
1/2-x,1/2+y,z
1/2+x,1/2-y,z
loop_
_atom_site_type_symbol
_atom_site_label
_atom_site_fract_x
_atom_site_fract_y
_atom_site_fract_z
Si Si1 0.803233 0.594540 0.849508
Si Si2 0.719990 0.843256 0.265844
Si Si3 0.394716 0.600304 0.336042
Si Si4 0.275024 0.348729 0.438574
Si Si5 0.387964 0.219085 0.939622
Si Si6 0.392093 0.097739 0.634053
Si Si7 0.607419 0.405899 0.898751
O O1 0.834381 0.500000 0.866334
O O2 0.825474 0.611294 0.786247
O O3 0.841484 0.665746 0.890800
O O4 0.689389 0.596558 0.853879
O O5 0.750000 0.750000 0.248194
O O6 0.815828 0.883348 0.289915
O O7 0.648168 0.844331 0.317015
O O8 0.500000 0.631556 0.322714
O O9 0.398738 0.500000 0.343744
O O10 0.355188 0.637701 0.393024
O O11 0.300442 0.376891 0.500000
O O12 0.250000 0.250000 0.439926
O O13 0.180619 0.393403 0.415956
O O14 0.500000 0.203445 0.937325
O O15 0.376586 0.320672 0.933531
O O16 0.352682 0.192912 0.000000
O O17 0.500000 0.117584 0.620038
O O18 0.387477 0.000000 0.653392
O O19 0.500000 0.400503 0.877680
O O20 0.615650 0.500000 0.925776
#
# Coordination Sequence:
#
# PCOD9491756 Si02
#       7
#    16  16  16  16  16  16  16
#     4  11  23  39  60  85 116 154 194 239 290 344
#     4  11  22  37  59  84 112 146 186 236 289 343
#     4  10  21  37  58  84 114 148 185 228 281 339
#     4  10  21  36  55  81 114 151 191 236 281 329
#     4  10  22  40  61  86 117 152 192 238 286 343
#     4  10  21  37  57  81 111 148 190 237 288 342
#     4   9  19  36  58  86 118 150 187 233 286 344
#
# _framework density 20.530280999999999
#
# number of rings (size 3 to 8) (size 9 to 14) (size 15 to 20)
#    0.000    1.857    0.000    5.571    0.000    7.143 
#    0.000    7.857    0.000    0.000    0.000    0.000 
#    0.000    0.000    0.000    0.000    0.000    0.000 
#
# Total GULP energy -312472.505598 kJ/mol
# GULP energy per Si atom -5579.866171 kJ/mol
# Density = 2.048355 g / cm^3
# Si number density = 20.530281 Si / 1000 Ang^3
#
#
#
# Elastic Constant Matrix: (Units=GPa)
#
#
# Indices 1 2 3 4 5 6 
#
# 1 70.2152 12.3726 12.0125 0.0000 0.0000 0.0000
# 2 12.3726 92.9081 25.9975 0.0000 0.0000 0.0000
# 3 12.0125 25.9975 100.4946 0.0000 0.0000 0.0000
# 4 0.0000 0.0000 0.0000 13.6544 0.0000 0.0000
# 5 0.0000 0.0000 0.0000 0.0000 7.9839 0.0000
# 6 0.0000 0.0000 0.0000 0.0000 0.0000 22.4676
#
#
#
# Elastic Compliance Matrix: (Units=1/GPa)
#
#
# Indices 1 2 3 4 5 6 
#
# 1 0.014753 -0.001586 -0.001353 0.000000 0.000000 0.000000
# 2 -0.001586 0.011774 -0.002856 0.000000 0.000000 0.000000
# 3 -0.001353 -0.002856 0.010851 0.000000 0.000000 0.000000
# 4 0.000000 0.000000 0.000000 0.073237 0.000000 0.000000
# 5 0.000000 0.000000 0.000000 0.000000 0.125251 0.000000
# 6 0.000000 0.000000 0.000000 0.000000 0.000000 0.044509
#
#
# Mechanical properties :
#
#
# Convention : Reuss Voigt Hill
#
# Bulk Modulus (GPa) = 38.77885 40.48701 39.63293
# Shear Modulus (GPa) = 16.63554 23.03687 19.83621
#
# Velocity S-wave (km/s) = 2.84965 3.35340 3.11174
# Velocity P-wave (km/s) = 5.45500 5.89552 5.67953
#
# Compressibility (1/GPa) = 0.02578725
#
# Stress axis : x y z
#
# Youngs Moduli (GPa) = 67.78330 84.93459 92.15378
#
# Poissons Ratio (x) = 0.13471 0.12470
# Poissons Ratio (y) = 0.10751 0.26321
# Poissons Ratio (z) = 0.09172 0.24259
#
# Static dielectric constant tensor:
#      x y z
#    x 1.731290 0.000000 0.000000 
#    y 0.000000 1.767080 0.000000 
#    z 0.000000 0.000000 1.711950 
# 
# From -- ./inp_files/74895.got.cif
#   From: 2010.05.17/outbox.cif.g08.bks.cpg/sg65_38_cif.got.tgz:74895.got - 2010.06.03 17:01:31.
