data_PCOD9491618
_publ_section_title
;
Structure prediction by ZEFSAII (Michael W. Deem and Ramdas Pophale) SiO2 
 PCOD9491618
Probable space group: C M M M
;
_chemical_formula_sum "Si O2"
_cell_formula_units_Z 58
_cell_length_a 7.673395
_cell_length_b 18.497296
_cell_length_c 22.159440
_cell_angle_alpha 90.000000
_cell_angle_beta 90.000000
_cell_angle_gamma 90.000000
_cell_volume 3145.245735
_symmetry_space_group_name_H-M "C M M M"
_symmetry_group_IT_number 65
_symmetry_cell_setting 'orthorhombic'
loop_
_space_group_symop_operation_xyz
x,y,z
-x,-y,z
x,-y,-z
-x,y,-z
-x,-y,-z
x,y,-z
-x,y,z
x,-y,z
1/2+x,1/2+y,z
1/2-x,1/2-y,z
1/2+x,1/2-y,-z
1/2-x,1/2+y,-z
1/2-x,1/2-y,-z
1/2+x,1/2+y,-z
1/2-x,1/2+y,z
1/2+x,1/2-y,z
loop_
_atom_site_type_symbol
_atom_site_label
_atom_site_fract_x
_atom_site_fract_y
_atom_site_fract_z
Si Si1 0.500000 0.500000 0.500000
Si Si2 0.000000 0.080111 0.624926
Si Si3 0.208881 0.334903 0.306072
Si Si4 0.792796 0.833886 0.067092
Si Si5 0.293428 0.080959 0.813265
O O1 0.500000 0.561883 0.554112
O O2 0.828360 0.123214 0.645742
O O3 0.000000 0.000000 0.654997
O O4 0.250000 0.250000 0.307821
O O5 0.265910 0.367408 0.241031
O O6 0.000000 0.345565 0.314609
O O7 0.750000 0.750000 0.079350
O O8 0.732722 0.883633 0.121564
O O9 0.000000 0.840330 0.064627
O O10 0.722261 0.851632 0.000000
O O11 0.500000 0.075177 0.804422
O O12 0.218686 0.000000 0.810187
#
# Coordination Sequence:
#
# PCOD9491618 Si02
#       5
#     2   8  16  16  16
#     4   8  24  48  70 104 140 170 228 244 314 388
#     4  10  22  44  70  96 136 172 210 263 309 380
#     4  11  22  39  66 100 132 170 218 270 323 378
#     4  10  21  36  54  76 107 151 204 259 319 382
#     4  10  22  37  55  85 118 156 205 257 316 386
#
# _framework density 18.440529000000002
#
# number of rings (size 3 to 8) (size 9 to 14) (size 15 to 20)
#    0.414    1.379    1.379    2.483    1.931    6.621 
#    0.000    4.828    0.000    0.000    0.000    0.000 
#    0.000    0.000    0.000    0.000    0.000    0.000 
#
# Total GULP energy -161476.893670 kJ/mol
# GULP energy per Si atom -5568.168747 kJ/mol
# Density = 1.839856 g / cm^3
# Si number density = 18.440529 Si / 1000 Ang^3
#
#
#
# Elastic Constant Matrix: (Units=GPa)
#
#
# Indices 1 2 3 4 5 6 
#
# 1 84.0671 40.5495 38.7332 0.0000 0.0000 0.0000
# 2 40.5495 154.4841 92.4501 0.0000 0.0000 0.0000
# 3 38.7332 92.4501 150.0066 0.0000 0.0000 0.0000
# 4 0.0000 0.0000 0.0000 21.1281 0.0000 0.0000
# 5 0.0000 0.0000 0.0000 0.0000 -59.5556 0.0000
# 6 0.0000 0.0000 0.0000 0.0000 0.0000 9.0395
#
#
#
# Elastic Compliance Matrix: (Units=1/GPa)
#
#
# Indices 1 2 3 4 5 6 
#
# 1 0.014042 -0.002402 -0.002146 0.000000 0.000000 0.000000
# 2 -0.002402 0.010667 -0.005954 0.000000 0.000000 0.000000
# 3 -0.002146 -0.005954 0.010890 0.000000 0.000000 0.000000
# 4 0.000000 0.000000 0.000000 0.047330 0.000000 0.000000
# 5 0.000000 0.000000 0.000000 0.000000 -0.016791 0.000000
# 6 0.000000 0.000000 0.000000 0.000000 0.000000 0.110625
#
#
# Mechanical properties :
#
#
# Convention : Reuss Voigt Hill
#
# Bulk Modulus (GPa) = 68.51049 81.33593 74.92321
# Shear Modulus (GPa) = 24.67544 8.57742 16.62643
#
# Velocity S-wave (km/s) = 3.66199 2.15905 3.00596
# Velocity P-wave (km/s) = 7.42381 7.10058 7.26399
#
# Compressibility (1/GPa) = 0.01459631
#
# Stress axis : x y z
#
# Youngs Moduli (GPa) = 71.21318 93.75097 91.83003
#
# Poissons Ratio (x) = 0.22518 0.19703
# Poissons Ratio (y) = 0.17104 0.54673
# Poissons Ratio (z) = 0.15279 0.55816
#
# Static dielectric constant tensor:
#      x y z
#    x 1.658940 0.000000 0.000000 
#    y 0.000000 1.623830 0.000000 
#    z 0.000000 0.000000 1.627640 
# 
# From -- ./inp_files/48834.got.cif
#   From: 2010.05.17/outbox.cif.g08.bks.cpg/sg65_25_cif.got.tgz:48834.got - 2010.06.03 17:01:31.
