data_PCOD9491929
_publ_section_title
;
Structure prediction by ZEFSAII (Michael W. Deem and Ramdas Pophale) SiO2 
 PCOD9491929
Probable space group: C M M M
;
_chemical_formula_sum "Si O2"
_cell_formula_units_Z 56
_cell_length_a 13.884908
_cell_length_b 21.011622
_cell_length_c 8.077232
_cell_angle_alpha 90.000000
_cell_angle_beta 90.000000
_cell_angle_gamma 90.000000
_cell_volume 2356.487514
_symmetry_space_group_name_H-M "C M M M"
_symmetry_group_IT_number 65
_symmetry_cell_setting 'orthorhombic'
loop_
_space_group_symop_operation_xyz
x,y,z
-x,-y,z
x,-y,-z
-x,y,-z
-x,-y,-z
x,y,-z
-x,y,z
x,-y,z
1/2+x,1/2+y,z
1/2-x,1/2-y,z
1/2+x,1/2-y,-z
1/2-x,1/2+y,-z
1/2-x,1/2-y,-z
1/2+x,1/2+y,-z
1/2-x,1/2+y,z
1/2+x,1/2-y,z
loop_
_atom_site_type_symbol
_atom_site_label
_atom_site_fract_x
_atom_site_fract_y
_atom_site_fract_z
Si Si1 0.154123 0.293783 0.677327
Si Si2 0.882064 0.000000 0.695962
Si Si3 0.363431 0.735304 0.000000
Si Si4 0.883578 0.427820 0.802210
Si Si5 0.613319 0.413718 0.000000
O O1 0.106874 0.286565 0.500000
O O2 0.250000 0.250000 0.670058
O O3 0.099274 0.267194 0.834811
O O4 0.166774 0.368909 0.711616
O O5 0.852282 0.942659 0.823212
O O6 0.850465 0.000000 0.500000
O O7 0.000000 0.000000 0.684821
O O8 0.250000 0.750000 0.000000
O O9 0.374292 0.660801 0.000000
O O10 0.858052 0.500000 0.749072
O O11 0.000000 0.421476 0.779610
O O12 0.864719 0.423030 0.000000
O O13 0.500000 0.427976 0.000000
#
# Coordination Sequence:
#
# PCOD9491929 Si02
#       5
#    16   8   8  16   8
#     4  10  21  37  58  81 112 155 202 243 286 351
#     4   8  15  31  56  85 115 140 171 228 291 341
#     4  10  21  37  55  75 113 159 189 234 284 330
#     4   9  18  34  59  91 122 152 192 245 303 358
#     4   9  18  32  55  86 112 143 188 230 278 343
#
# _framework density 23.764182000000002
#
# number of rings (size 3 to 8) (size 9 to 14) (size 15 to 20)
#    0.000    2.714    1.429    1.714    0.000    3.429 
#    0.000    1.429   25.143    0.000    0.000    0.000 
#    0.000    0.000    0.000    0.286    0.000    0.000 
#
# Total GULP energy -156203.825769 kJ/mol
# GULP energy per Si atom -5578.708063 kJ/mol
# Density = 2.371009 g / cm^3
# Si number density = 23.764182 Si / 1000 Ang^3
#
#
#
# Elastic Constant Matrix: (Units=GPa)
#
#
# Indices 1 2 3 4 5 6 
#
# 1 103.9054 38.1721 26.6565 0.0000 0.0000 0.0000
# 2 38.1721 225.5947 96.7480 0.0000 0.0000 0.0000
# 3 26.6565 96.7480 262.7868 0.0000 0.0000 0.0000
# 4 0.0000 0.0000 0.0000 -124.2696 0.0000 0.0000
# 5 0.0000 0.0000 0.0000 0.0000 -49.6270 0.0000
# 6 0.0000 0.0000 0.0000 0.0000 0.0000 78.4024
#
#
#
# Elastic Compliance Matrix: (Units=1/GPa)
#
#
# Indices 1 2 3 4 5 6 
#
# 1 0.010313 -0.001539 -0.000479 0.000000 0.000000 0.000000
# 2 -0.001539 0.005494 -0.001866 0.000000 0.000000 0.000000
# 3 -0.000479 -0.001866 0.004541 0.000000 0.000000 0.000000
# 4 0.000000 0.000000 0.000000 -0.008047 0.000000 0.000000
# 5 0.000000 0.000000 0.000000 0.000000 -0.020150 0.000000
# 6 0.000000 0.000000 0.000000 0.000000 0.000000 0.012755
#
#
# Mechanical properties :
#
#
# Convention : Reuss Voigt Hill
#
# Bulk Modulus (GPa) = 79.50941 101.71558 90.61249
# Shear Modulus (GPa) = 296.43036 9.61519 153.02278
#
# Velocity S-wave (km/s) = 11.18075 2.01367 8.03318
# Velocity P-wave (km/s) = 14.14953 6.94993 11.14699
#
# Compressibility (1/GPa) = 0.01257713
#
# Stress axis : x y z
#
# Youngs Moduli (GPa) = 96.96835 182.02942 220.20996
#
# Poissons Ratio (x) = 0.28022 0.10556
# Poissons Ratio (y) = 0.14927 0.41100
# Poissons Ratio (z) = 0.04648 0.33974
#
# Static dielectric constant tensor:
#      x y z
#    x 1.969710 0.000000 0.000000 
#    y 0.000000 1.874730 0.000000 
#    z 0.000000 0.000000 1.933130 
# 
# From -- ./inp_files/10674.got.cif
#   From: 2010.05.17/outbox.cif.g08.bks.cpg/sg65_6_cif.got.tgz:10674.got - 2010.06.03 17:01:31.
