data_PCOD9491639
_publ_section_title
;
Structure prediction by ZEFSAII (Michael W. Deem and Ramdas Pophale) SiO2 
 PCOD9491639
Probable space group: C M M M
;
_chemical_formula_sum "Si O2"
_cell_formula_units_Z 104
_cell_length_a 20.294856
_cell_length_b 8.924022
_cell_length_c 33.767170
_cell_angle_alpha 90.000000
_cell_angle_beta 90.000000
_cell_angle_gamma 90.000000
_cell_volume 6115.630962
_symmetry_space_group_name_H-M "C M M M"
_symmetry_group_IT_number 65
_symmetry_cell_setting 'orthorhombic'
loop_
_space_group_symop_operation_xyz
x,y,z
-x,-y,z
x,-y,-z
-x,y,-z
-x,-y,-z
x,y,-z
-x,y,z
x,-y,z
1/2+x,1/2+y,z
1/2-x,1/2-y,z
1/2+x,1/2-y,-z
1/2-x,1/2+y,-z
1/2-x,1/2-y,-z
1/2+x,1/2+y,-z
1/2-x,1/2+y,z
1/2+x,1/2-y,z
loop_
_atom_site_type_symbol
_atom_site_label
_atom_site_fract_x
_atom_site_fract_y
_atom_site_fract_z
Si Si1 0.821049 0.321063 0.953661
Si Si2 0.422787 0.320986 0.892860
Si Si3 0.923476 0.319746 0.807981
Si Si4 0.423491 0.180653 0.417560
Si Si5 0.678773 0.180802 0.649772
Si Si6 0.080025 0.172360 0.500000
Si Si7 0.321053 0.180580 0.259469
O O1 0.817930 0.500000 0.948923
O O2 0.750000 0.250000 0.944104
O O3 0.876522 0.252923 0.925568
O O4 0.834800 0.288006 0.000000
O O5 0.500000 0.284945 0.899931
O O6 0.415389 0.500000 0.893480
O O7 0.405860 0.258062 0.849360
O O8 0.918440 0.500000 0.812808
O O9 0.875726 0.273482 0.772352
O O10 0.000000 0.284886 0.799098
O O11 0.500000 0.225288 0.411120
O O12 0.376507 0.227964 0.381627
O O13 0.399968 0.246830 0.459459
O O14 0.422239 0.000000 0.420029
O O15 0.750000 0.250000 0.640485
O O16 0.661929 0.222802 0.695181
O O17 0.683556 0.000000 0.648279
O O18 0.000000 0.176618 0.500000
O O19 0.101097 0.000000 0.500000
O O20 0.250000 0.250000 0.250126
O O21 0.316104 0.000000 0.258227
#
# Coordination Sequence:
#
# PCOD9491639 Si02
#       7
#    16  16  16  16  16   8  16
#     4  10  21  37  57  80 106 136 171 212 256 302
#     4  10  21  36  54  77 106 139 173 210 253 301
#     4   9  18  33  52  73  99 131 167 208 250 292
#     4   9  17  30  49  71  94 122 157 196 237 282
#     4   9  18  32  49  70  97 127 158 195 240 289
#     4   9  17  29  46  69  96 123 153 193 238 283
#     4   9  18  32  50  72  97 127 162 199 242 291
#
# _framework density 17.005604999999999
#
# number of rings (size 3 to 8) (size 9 to 14) (size 15 to 20)
#    0.000    2.692    0.000    1.154    0.000    5.538 
#    0.000    6.538    0.000    0.000    0.000    8.615 
#    0.000    0.000    0.000    0.000    0.000    0.000 
#
# Total GULP energy -289960.404853 kJ/mol
# GULP energy per Si atom -5576.161632 kJ/mol
# Density = 1.696690 g / cm^3
# Si number density = 17.005605 Si / 1000 Ang^3
#
#
#
# Elastic Constant Matrix: (Units=GPa)
#
#
# Indices 1 2 3 4 5 6 
#
# 1 109.1368 43.5525 115.6442 0.0000 0.0000 0.0000
# 2 43.5525 29.1951 52.5128 0.0000 0.0000 0.0000
# 3 115.6442 52.5128 153.9138 0.0000 0.0000 0.0000
# 4 0.0000 0.0000 0.0000 20.9095 0.0000 0.0000
# 5 0.0000 0.0000 0.0000 0.0000 360.0159 0.0000
# 6 0.0000 0.0000 0.0000 0.0000 0.0000 27.6845
#
#
#
# Elastic Compliance Matrix: (Units=1/GPa)
#
#
# Indices 1 2 3 4 5 6 
#
# 1 0.048172 -0.017497 -0.030225 0.000000 0.000000 0.000000
# 2 -0.017497 0.095019 -0.019272 0.000000 0.000000 0.000000
# 3 -0.030225 -0.019272 0.035782 0.000000 0.000000 0.000000
# 4 0.000000 0.000000 0.000000 0.047825 0.000000 0.000000
# 5 0.000000 0.000000 0.000000 0.000000 0.002778 0.000000
# 6 0.000000 0.000000 0.000000 0.000000 0.000000 0.036121
#
#
# Mechanical properties :
#
#
# Convention : Reuss Voigt Hill
#
# Bulk Modulus (GPa) = 22.22972 79.51829 50.87400
# Shear Modulus (GPa) = 12.05746 87.09106 49.57426
#
# Velocity S-wave (km/s) = 2.66565 7.16410 5.40509
# Velocity P-wave (km/s) = 4.75127 10.73750 8.30267
#
# Compressibility (1/GPa) = 0.04498482
#
# Stress axis : x y z
#
# Youngs Moduli (GPa) = 20.75877 10.52423 27.94687
#
# Poissons Ratio (x) = 0.18414 0.84469
# Poissons Ratio (y) = 0.36322 0.53860
# Poissons Ratio (z) = 0.62743 0.20282
#
# Static dielectric constant tensor:
#      x y z
#    x 1.551790 0.000000 0.000000 
#    y 0.000000 1.570440 0.000000 
#    z 0.000000 0.000000 1.561680 
# 
# From -- ./inp_files/78163.got.cif
#   From: 2010.05.17/outbox.cif.g08.bks.cpg/sg65_40_cif.got.tgz:78163.got - 2010.06.03 17:01:31.
