data_PCOD9491719
_publ_section_title
;
Structure prediction by ZEFSAII (Michael W. Deem and Ramdas Pophale) SiO2 
 PCOD9491719
Probable space group: C M M M
;
_chemical_formula_sum "Si O2"
_cell_formula_units_Z 88
_cell_length_a 13.676401
_cell_length_b 22.688379
_cell_length_c 14.043450
_cell_angle_alpha 90.000000
_cell_angle_beta 90.000000
_cell_angle_gamma 90.000000
_cell_volume 4357.617503
_symmetry_space_group_name_H-M "C M M M"
_symmetry_group_IT_number 65
_symmetry_cell_setting 'orthorhombic'
loop_
_space_group_symop_operation_xyz
x,y,z
-x,-y,z
x,-y,-z
-x,y,-z
-x,-y,-z
x,y,-z
-x,y,z
x,-y,z
1/2+x,1/2+y,z
1/2-x,1/2-y,z
1/2+x,1/2-y,-z
1/2-x,1/2+y,-z
1/2-x,1/2-y,-z
1/2+x,1/2+y,-z
1/2-x,1/2+y,z
1/2+x,1/2-y,z
loop_
_atom_site_type_symbol
_atom_site_label
_atom_site_fract_x
_atom_site_fract_y
_atom_site_fract_z
Si Si1 0.769391 0.567252 0.793137
Si Si2 0.618005 0.773980 0.700293
Si Si3 0.118574 0.932763 0.500000
Si Si4 0.617545 0.163591 0.894376
Si Si5 0.117695 0.603894 0.607433
Si Si6 0.882435 0.139838 0.688774
O O1 0.747195 0.500000 0.815791
O O2 0.833305 0.601075 0.871306
O O3 0.831534 0.570411 0.694424
O O4 0.673037 0.606036 0.772735
O O5 0.500000 0.770955 0.699458
O O6 0.646928 0.794685 0.806357
O O7 0.640840 0.826982 0.627814
O O8 0.650922 0.707707 0.680039
O O9 0.143878 0.896219 0.593752
O O10 0.000000 0.936087 0.500000
O O11 0.154974 0.000000 0.500000
O O12 0.500000 0.157725 0.889867
O O13 0.643847 0.184654 0.000000
O O14 0.145967 0.586949 0.500000
O O15 0.000000 0.597022 0.615039
O O16 0.000000 0.138424 0.700306
#
# Coordination Sequence:
#
# PCOD9491719 Si02
#       6
#    16  16   8  16  16  16
#     4  11  23  36  53  79 111 146 190 233 271 325
#     4   8  16  33  56  82 111 140 179 225 279 339
#     4   9  18  32  50  73 103 149 202 235 259 295
#     4   9  19  38  63  88 112 138 173 227 289 343
#     4   9  19  34  52  76 109 145 178 221 280 343
#     4  10  21  36  55  79 111 150 191 235 275 317
#
# _framework density 20.194521000000002
#
# number of rings (size 3 to 8) (size 9 to 14) (size 15 to 20)
#    0.000    2.636    0.000    2.182    2.545    6.182 
#    0.000    4.545    0.000    1.636    0.000    1.273 
#    0.000    0.000    0.000    0.000    0.000    0.000 
#
# Total GULP energy -245672.278546 kJ/mol
# GULP energy per Si atom -5583.460876 kJ/mol
# Density = 2.014856 g / cm^3
# Si number density = 20.194521 Si / 1000 Ang^3
#
#
#
# Elastic Constant Matrix: (Units=GPa)
#
#
# Indices 1 2 3 4 5 6 
#
# 1 58.2529 -4.0404 1.3544 0.0000 0.0000 0.0000
# 2 -4.0404 123.0668 0.1378 0.0000 0.0000 0.0000
# 3 1.3544 0.1378 68.4228 0.0000 0.0000 0.0000
# 4 0.0000 0.0000 0.0000 6.1509 0.0000 0.0000
# 5 0.0000 0.0000 0.0000 0.0000 20.1958 0.0000
# 6 0.0000 0.0000 0.0000 0.0000 0.0000 23.9432
#
#
#
# Elastic Compliance Matrix: (Units=1/GPa)
#
#
# Indices 1 2 3 4 5 6 
#
# 1 0.017214 0.000566 -0.000342 0.000000 0.000000 0.000000
# 2 0.000566 0.008144 -0.000028 0.000000 0.000000 0.000000
# 3 -0.000342 -0.000028 0.014622 0.000000 0.000000 0.000000
# 4 0.000000 0.000000 0.000000 0.162579 0.000000 0.000000
# 5 0.000000 0.000000 0.000000 0.000000 0.049515 0.000000
# 6 0.000000 0.000000 0.000000 0.000000 0.000000 0.041766
#
#
# Mechanical properties :
#
#
# Convention : Reuss Voigt Hill
#
# Bulk Modulus (GPa) = 24.76970 27.18289 25.97629
# Shear Modulus (GPa) = 16.29171 26.87735 21.58453
#
# Velocity S-wave (km/s) = 2.84340 3.65214 3.27284
# Velocity P-wave (km/s) = 4.80334 5.59231 5.21277
#
# Compressibility (1/GPa) = 0.04037191
#
# Stress axis : x y z
#
# Youngs Moduli (GPa) = 58.09326 122.78580 68.39084
#
# Poissons Ratio (x) = -0.06944 0.02338
# Poissons Ratio (y) = -0.03285 0.00189
# Poissons Ratio (z) = 0.01986 0.00339
#
# Static dielectric constant tensor:
#      x y z
#    x 1.772460 0.000000 0.000000 
#    y 0.000000 1.706620 0.000000 
#    z 0.000000 0.000000 1.685550 
# 
# From -- ./inp_files/40187.got.cif
#   From: 2010.05.17/outbox.cif.g08.bks.cpg/sg65_21_cif.got.tgz:40187.got - 2010.06.03 17:01:31.
