data_PCOD9491390
_publ_section_title
;
Structure prediction by ZEFSAII (Michael W. Deem and Ramdas Pophale) SiO2 
 PCOD9491390
Probable space group: C M M M
;
_chemical_formula_sum "Si O2"
_cell_formula_units_Z 104
_cell_length_a 8.804692
_cell_length_b 26.721861
_cell_length_c 22.727756
_cell_angle_alpha 90.000000
_cell_angle_beta 90.000000
_cell_angle_gamma 90.000000
_cell_volume 5347.335425
_symmetry_space_group_name_H-M "C M M M"
_symmetry_group_IT_number 65
_symmetry_cell_setting 'orthorhombic'
loop_
_space_group_symop_operation_xyz
x,y,z
-x,-y,z
x,-y,-z
-x,y,-z
-x,-y,-z
x,y,-z
-x,y,z
x,-y,z
1/2+x,1/2+y,z
1/2-x,1/2-y,z
1/2+x,1/2-y,-z
1/2-x,1/2+y,-z
1/2-x,1/2-y,-z
1/2+x,1/2+y,-z
1/2-x,1/2+y,z
1/2+x,1/2-y,z
loop_
_atom_site_type_symbol
_atom_site_label
_atom_site_fract_x
_atom_site_fract_y
_atom_site_fract_z
Si Si1 0.682347 0.596501 0.871251
Si Si2 0.174116 0.500000 0.070062
Si Si3 0.319545 0.300022 0.314263
Si Si4 0.818111 0.695614 0.930182
Si Si5 0.181661 0.907975 0.263897
Si Si6 0.319020 0.055767 0.382453
Si Si7 0.316475 0.344759 0.434836
O O1 0.500000 0.600064 0.874576
O O2 0.742817 0.550123 0.908835
O O3 0.751181 0.648993 0.893790
O O4 0.723048 0.583806 0.803544
O O5 0.000000 0.500000 0.091863
O O6 0.171197 0.500000 0.000000
O O7 0.500000 0.294457 0.316494
O O8 0.250000 0.250000 0.289114
O O9 0.286235 0.349822 0.278041
O O10 0.262391 0.310380 0.380859
O O11 0.750000 0.750000 0.913573
O O12 0.000000 0.696877 0.923565
O O13 0.783674 0.687953 0.000000
O O14 0.267188 0.938262 0.314540
O O15 0.000000 0.916204 0.271148
O O16 0.500000 0.062224 0.386313
O O17 0.238231 0.099477 0.418874
O O18 0.279465 0.000000 0.403054
O O19 0.264790 0.330047 0.500000
O O20 0.500000 0.344430 0.433809
#
# Coordination Sequence:
#
# PCOD9491390 Si02
#       7
#    16   8  16  16  16  16  16
#     4  11  23  39  61  89 117 151 197 246 294 347
#     4  11  25  43  61  85 121 161 196 237 294 357
#     4   9  18  34  54  77 107 142 179 222 270 324
#     4  10  21  38  60  86 117 154 194 238 290 347
#     4   9  21  39  56  78 109 144 183 225 272 329
#     4  10  21  35  53  79 108 139 176 224 280 329
#     4   9  19  36  55  76 105 143 186 226 269 330
#
# _framework density 19.448938999999999
#
# number of rings (size 3 to 8) (size 9 to 14) (size 15 to 20)
#    0.000    2.231    0.000    3.000    1.077    9.846 
#    0.000    3.077    0.000    0.000    0.000    0.000 
#    0.000    0.000    0.000    0.000    0.000    0.000 
#
# Total GULP energy -290291.033568 kJ/mol
# GULP energy per Si atom -5582.519876 kJ/mol
# Density = 1.940467 g / cm^3
# Si number density = 19.448939 Si / 1000 Ang^3
#
#
#
# Elastic Constant Matrix: (Units=GPa)
#
#
# Indices 1 2 3 4 5 6 
#
# 1 18.4629 5.0482 6.8815 0.0000 0.0000 0.0000
# 2 5.0482 57.4568 -13.6263 0.0000 0.0000 0.0000
# 3 6.8815 -13.6263 48.8476 0.0000 0.0000 0.0000
# 4 0.0000 0.0000 0.0000 -12.4451 0.0000 0.0000
# 5 0.0000 0.0000 0.0000 0.0000 13.7000 0.0000
# 6 0.0000 0.0000 0.0000 0.0000 0.0000 31.5055
#
#
#
# Elastic Compliance Matrix: (Units=1/GPa)
#
#
# Indices 1 2 3 4 5 6 
#
# 1 0.060282 -0.007828 -0.010676 0.000000 0.000000 0.000000
# 2 -0.007828 0.019654 0.006585 0.000000 0.000000 0.000000
# 3 -0.010676 0.006585 0.023813 0.000000 0.000000 0.000000
# 4 0.000000 0.000000 0.000000 -0.080353 0.000000 0.000000
# 5 0.000000 0.000000 0.000000 0.000000 0.072993 0.000000
# 6 0.000000 0.000000 0.000000 0.000000 0.000000 0.031740
#
#
# Mechanical properties :
#
#
# Convention : Reuss Voigt Hill
#
# Bulk Modulus (GPa) = 12.51394 13.48603 12.99998
# Shear Modulus (GPa) = 27.99474 14.98301 21.48888
#
# Velocity S-wave (km/s) = 3.79805 2.77858 3.32759
# Velocity P-wave (km/s) = 5.06773 4.15248 4.63276
#
# Compressibility (1/GPa) = 0.07991088
#
# Stress axis : x y z
#
# Youngs Moduli (GPa) = 16.58859 50.88034 41.99405
#
# Poissons Ratio (x) = 0.39831 0.44834
# Poissons Ratio (y) = 0.12986 -0.27655
# Poissons Ratio (z) = 0.17710 -0.33507
#
# Static dielectric constant tensor:
#      x y z
#    x 1.655640 0.000000 0.000000 
#    y 0.000000 1.676370 0.000000 
#    z 0.000000 0.000000 1.688080 
# 
# From -- ./inp_files/65917.got.cif
#   From: 2010.05.17/outbox.cif.g08.bks.cpg/sg65_33_cif.got.tgz:65917.got - 2010.06.03 17:01:31.
