data_PCOD9491330
_publ_section_title
;
Structure prediction by ZEFSAII (Michael W. Deem and Ramdas Pophale) SiO2 
 PCOD9491330
Probable space group: C M M M
;
_chemical_formula_sum "Si O2"
_cell_formula_units_Z 104
_cell_length_a 8.664808
_cell_length_b 29.126193
_cell_length_c 23.565088
_cell_angle_alpha 90.000000
_cell_angle_beta 90.000000
_cell_angle_gamma 90.000000
_cell_volume 5947.188893
_symmetry_space_group_name_H-M "C M M M"
_symmetry_group_IT_number 65
_symmetry_cell_setting 'orthorhombic'
loop_
_space_group_symop_operation_xyz
x,y,z
-x,-y,z
x,-y,-z
-x,y,-z
-x,-y,-z
x,y,-z
-x,y,z
x,-y,z
1/2+x,1/2+y,z
1/2-x,1/2-y,z
1/2+x,1/2-y,-z
1/2-x,1/2+y,-z
1/2-x,1/2-y,-z
1/2+x,1/2+y,-z
1/2-x,1/2+y,z
1/2+x,1/2-y,z
loop_
_atom_site_type_symbol
_atom_site_label
_atom_site_fract_x
_atom_site_fract_y
_atom_site_fract_z
Si Si1 0.184118 0.799424 0.153845
Si Si2 0.814077 0.446855 0.434429
Si Si3 0.683859 0.200892 0.719295
Si Si4 0.815051 0.392136 0.887798
Si Si5 0.185812 0.946401 0.780156
Si Si6 0.811967 0.552776 0.000000
Si Si7 0.315791 0.389067 0.667880
O O1 0.250000 0.750000 0.135698
O O2 0.246145 0.807700 0.217906
O O3 0.241906 0.841720 0.116360
O O4 0.000000 0.797830 0.155474
O O5 0.773177 0.437074 0.500000
O O6 0.771223 0.500000 0.422514
O O7 0.736718 0.413293 0.389690
O O8 0.000000 0.443672 0.429748
O O9 0.500000 0.203212 0.724068
O O10 0.750000 0.250000 0.700305
O O11 0.735588 0.159541 0.679242
O O12 0.763976 0.420252 0.832236
O O13 0.764774 0.420112 0.943520
O O14 0.000000 0.387873 0.888392
O O15 0.226577 0.921973 0.720967
O O16 0.000000 0.943092 0.786704
O O17 0.228302 0.000000 0.779448
O O18 0.758357 0.500000 0.000000
O O19 0.000000 0.551646 0.000000
O O20 0.500000 0.383034 0.668576
#
# Coordination Sequence:
#
# PCOD9491330 Si02
#       7
#    16  16  16  16  16   8  16
#     4  11  21  36  57  83 113 144 180 225 277 334
#     4   9  19  36  56  79 111 152 196 238 278 326
#     4  11  21  35  56  83 113 147 184 225 276 334
#     4  11  21  36  58  82 108 145 187 229 278 334
#     4  10  21  35  51  76 112 147 180 227 280 327
#     4   9  20  38  58  81 110 145 188 233 274 327
#     4  11  21  34  54  82 115 149 185 229 279 332
#
# _framework density 17.487254
#
# number of rings (size 3 to 8) (size 9 to 14) (size 15 to 20)
#    0.000    1.615    1.538    6.000    0.000    2.769 
#    0.000    2.692    0.000    3.231    0.000    0.000 
#    0.000    0.000    0.000    0.000    0.000    0.000 
#
# Total GULP energy -290544.115750 kJ/mol
# GULP energy per Si atom -5587.386841 kJ/mol
# Density = 1.744745 g / cm^3
# Si number density = 17.487254 Si / 1000 Ang^3
#
#
#
# Elastic Constant Matrix: (Units=GPa)
#
#
# Indices 1 2 3 4 5 6 
#
# 1 85.3669 64.7023 44.0944 0.0000 0.0000 0.0000
# 2 64.7023 170.0203 82.5215 0.0000 0.0000 0.0000
# 3 44.0944 82.5215 101.8288 0.0000 0.0000 0.0000
# 4 0.0000 0.0000 0.0000 29.7374 0.0000 0.0000
# 5 0.0000 0.0000 0.0000 0.0000 18.8325 0.0000
# 6 0.0000 0.0000 0.0000 0.0000 0.0000 30.3723
#
#
#
# Elastic Compliance Matrix: (Units=1/GPa)
#
#
# Indices 1 2 3 4 5 6 
#
# 1 0.017201 -0.004831 -0.003533 0.000000 0.000000 0.000000
# 2 -0.004831 0.011052 -0.006864 0.000000 0.000000 0.000000
# 3 -0.003533 -0.006864 0.016913 0.000000 0.000000 0.000000
# 4 0.000000 0.000000 0.000000 0.033628 0.000000 0.000000
# 5 0.000000 0.000000 0.000000 0.000000 0.053100 0.000000
# 6 0.000000 0.000000 0.000000 0.000000 0.000000 0.032925
#
#
# Mechanical properties :
#
#
# Convention : Reuss Voigt Hill
#
# Bulk Modulus (GPa) = 67.98819 82.20579 75.09699
# Shear Modulus (GPa) = 24.97775 26.84831 25.91303
#
# Velocity S-wave (km/s) = 3.78344 3.92255 3.85362
# Velocity P-wave (km/s) = 7.61899 8.22352 7.92702
#
# Compressibility (1/GPa) = 0.01470844
#
# Stress axis : x y z
#
# Youngs Moduli (GPa) = 58.13711 90.48309 59.12483
#
# Poissons Ratio (x) = 0.43711 0.20891
# Poissons Ratio (y) = 0.28085 0.40586
# Poissons Ratio (z) = 0.20542 0.62112
#
# Static dielectric constant tensor:
#      x y z
#    x 1.588370 0.000000 0.000000 
#    y 0.000000 1.590770 0.000000 
#    z 0.000000 0.000000 1.566100 
# 
# From -- ./inp_files/60454.got.cif
#   From: 2010.05.17/outbox.cif.g08.bks.cpg/sg65_31_cif.got.tgz:60454.got - 2010.06.03 17:01:31.
