data_PCOD9491632
_publ_section_title
;
Structure prediction by ZEFSAII (Michael W. Deem and Ramdas Pophale) SiO2 
 PCOD9491632
Probable space group: C M M M
;
_chemical_formula_sum "Si O2"
_cell_formula_units_Z 88
_cell_length_a 20.127356
_cell_length_b 8.518188
_cell_length_c 28.655657
_cell_angle_alpha 90.000000
_cell_angle_beta 90.000000
_cell_angle_gamma 90.000000
_cell_volume 4912.972342
_symmetry_space_group_name_H-M "C M M M"
_symmetry_group_IT_number 65
_symmetry_cell_setting 'orthorhombic'
loop_
_space_group_symop_operation_xyz
x,y,z
-x,-y,z
x,-y,-z
-x,y,-z
-x,-y,-z
x,y,-z
-x,y,z
x,-y,z
1/2+x,1/2+y,z
1/2-x,1/2-y,z
1/2+x,1/2-y,-z
1/2-x,1/2+y,-z
1/2-x,1/2-y,-z
1/2+x,1/2+y,-z
1/2-x,1/2+y,z
1/2+x,1/2-y,z
loop_
_atom_site_type_symbol
_atom_site_label
_atom_site_fract_x
_atom_site_fract_y
_atom_site_fract_z
Si Si1 0.423416 0.191821 0.000000
Si Si2 0.176343 0.687991 0.446624
Si Si3 0.823119 0.310338 0.187658
Si Si4 0.423266 0.687842 0.630990
Si Si5 0.076561 0.310275 0.267679
Si Si6 0.676572 0.810343 0.080803
O O1 0.380621 0.240944 0.954850
O O2 0.500000 0.244732 0.000000
O O3 0.424853 0.000000 0.000000
O O4 0.160897 0.738002 0.500000
O O5 0.177181 0.500000 0.445318
O O6 0.250000 0.750000 0.435449
O O7 0.123317 0.750018 0.409851
O O8 0.822689 0.500000 0.187912
O O9 0.750000 0.250000 0.200031
O O10 0.876854 0.256673 0.225429
O O11 0.837025 0.260230 0.134245
O O12 0.500000 0.739895 0.624382
O O13 0.421940 0.500000 0.631102
O O14 0.401350 0.748602 0.681846
O O15 0.077891 0.500000 0.268802
O O16 0.000000 0.260732 0.260646
O O17 0.750000 0.750000 0.067569
O O18 0.678648 0.000000 0.079791
#
# Coordination Sequence:
#
# PCOD9491632 Si02
#       6
#     8  16  16  16  16  16
#     4   9  17  28  45  71  98 123 156 200 244 285
#     4  10  21  37  57  80 106 136 170 209 253 300
#     4   9  18  31  48  71  96 124 160 201 244 291
#     4  10  21  36  54  77 105 137 172 209 250 298
#     4   9  18  33  51  70  95 128 165 205 248 293
#     4   9  17  30  48  69  94 125 160 197 240 291
#
# _framework density 17.911764000000002
#
# number of rings (size 3 to 8) (size 9 to 14) (size 15 to 20)
#    0.000    2.636    0.000    1.364    0.000    4.727 
#    0.000    7.273    0.000    1.091    0.000    5.091 
#    0.000    0.000    0.000    0.000    0.000    0.000 
#
# Total GULP energy -245428.893869 kJ/mol
# GULP energy per Si atom -5577.929406 kJ/mol
# Density = 1.787100 g / cm^3
# Si number density = 17.911764 Si / 1000 Ang^3
#
#
#
# Elastic Constant Matrix: (Units=GPa)
#
#
# Indices 1 2 3 4 5 6 
#
# 1 134.8383 19.8309 120.6940 0.0000 0.0000 0.0000
# 2 19.8309 11.0780 22.8097 0.0000 0.0000 0.0000
# 3 120.6940 22.8097 148.0522 0.0000 0.0000 0.0000
# 4 0.0000 0.0000 0.0000 15.6961 0.0000 0.0000
# 5 0.0000 0.0000 0.0000 0.0000 67.6644 0.0000
# 6 0.0000 0.0000 0.0000 0.0000 0.0000 27.5976
#
#
#
# Elastic Compliance Matrix: (Units=1/GPa)
#
#
# Indices 1 2 3 4 5 6 
#
# 1 0.027590 -0.004509 -0.021797 0.000000 0.000000 0.000000
# 2 -0.004509 0.132945 -0.016806 0.000000 0.000000 0.000000
# 3 -0.021797 -0.016806 0.027113 0.000000 0.000000 0.000000
# 4 0.000000 0.000000 0.000000 0.063710 0.000000 0.000000
# 5 0.000000 0.000000 0.000000 0.000000 0.014779 0.000000
# 6 0.000000 0.000000 0.000000 0.000000 0.000000 0.036235
#
#
# Mechanical properties :
#
#
# Convention : Reuss Voigt Hill
#
# Bulk Modulus (GPa) = 9.85970 68.95975 39.40972
# Shear Modulus (GPa) = 11.83700 30.90057 21.36878
#
# Velocity S-wave (km/s) = 2.57349 4.15800 3.45773
# Velocity P-wave (km/s) = 3.78775 7.85081 6.16370
#
# Compressibility (1/GPa) = 0.10142294
#
# Stress axis : x y z
#
# Youngs Moduli (GPa) = 36.24495 7.52191 36.88277
#
# Poissons Ratio (x) = 0.03392 0.80394
# Poissons Ratio (y) = 0.16343 0.61987
# Poissons Ratio (z) = 0.79003 0.12642
#
# Static dielectric constant tensor:
#      x y z
#    x 1.587490 0.000000 0.000000 
#    y 0.000000 1.611850 0.000000 
#    z 0.000000 0.000000 1.608110 
# 
# From -- ./inp_files/67486.got.cif
#   From: 2010.05.17/outbox.cif.g08.bks.cpg/sg65_34_cif.got.tgz:67486.got - 2010.06.03 17:01:31.
