data_PCOD9491312
_publ_section_title
;
Structure prediction by ZEFSAII (Michael W. Deem and Ramdas Pophale) SiO2 
 PCOD9491312
Probable space group: C M M M
;
_chemical_formula_sum "Si O2"
_cell_formula_units_Z 80
_cell_length_a 27.240299
_cell_length_b 18.854589
_cell_length_c 9.324379
_cell_angle_alpha 90.000000
_cell_angle_beta 90.000000
_cell_angle_gamma 90.000000
_cell_volume 4789.044337
_symmetry_space_group_name_H-M "C M M M"
_symmetry_group_IT_number 65
_symmetry_cell_setting 'orthorhombic'
loop_
_space_group_symop_operation_xyz
x,y,z
-x,-y,z
x,-y,-z
-x,y,-z
-x,-y,-z
x,y,-z
-x,y,z
x,-y,z
1/2+x,1/2+y,z
1/2-x,1/2-y,z
1/2+x,1/2-y,-z
1/2-x,1/2+y,-z
1/2-x,1/2-y,-z
1/2+x,1/2+y,-z
1/2-x,1/2+y,z
1/2+x,1/2-y,z
loop_
_atom_site_type_symbol
_atom_site_label
_atom_site_fract_x
_atom_site_fract_y
_atom_site_fract_z
Si Si1 0.348551 0.081713 0.329538
Si Si2 0.942154 0.920910 0.671933
Si Si3 0.555837 0.863935 0.828085
Si Si4 0.200802 0.708508 0.829499
Si Si5 0.401396 0.712610 0.831807
O O1 0.351734 0.094317 0.500000
O O2 0.401726 0.095588 0.257124
O O3 0.311263 0.137269 0.257312
O O4 0.334403 0.000000 0.305541
O O5 0.937850 0.917362 0.500000
O O6 0.913786 0.856542 0.742752
O O7 0.000000 0.914208 0.706925
O O8 0.926040 0.000000 0.717521
O O9 0.500000 0.884801 0.793775
O O10 0.564137 0.780246 0.797203
O O11 0.563413 0.873036 0.000000
O O12 0.250000 0.750000 0.787837
O O13 0.153703 0.759174 0.808417
O O14 0.203449 0.692188 0.000000
O O15 0.407720 0.697140 0.000000
#
# Coordination Sequence:
#
# PCOD9491312 Si02
#       5
#    16  16  16  16  16
#     4  10  21  35  51  75 106 135 164 201 245 294
#     4   9  18  31  45  64  94 131 165 193 228 282
#     4   9  18  32  50  73 101 134 171 207 243 288
#     4   9  19  37  58  76  95 124 164 207 249 295
#     4   9  17  30  49  72  95 119 155 203 247 287
#
# _framework density 16.704796000000002
#
# number of rings (size 3 to 8) (size 9 to 14) (size 15 to 20)
#    0.000    2.800    0.000    3.000    0.000    7.600 
#    0.000    4.000    0.000    6.000    0.000    0.000 
#    0.000    0.000    0.000    0.000    0.000    0.000 
#
# Total GULP energy -222995.613928 kJ/mol
# GULP energy per Si atom -5574.890348 kJ/mol
# Density = 1.666677 g / cm^3
# Si number density = 16.704796 Si / 1000 Ang^3
#
#
#
# Elastic Constant Matrix: (Units=GPa)
#
#
# Indices 1 2 3 4 5 6 
#
# 1 81.6552 46.7092 42.1664 0.0000 0.0000 0.0000
# 2 46.7092 123.4016 68.3374 0.0000 0.0000 0.0000
# 3 42.1664 68.3374 53.5679 0.0000 0.0000 0.0000
# 4 0.0000 0.0000 0.0000 39.4849 0.0000 0.0000
# 5 0.0000 0.0000 0.0000 0.0000 15.6661 0.0000
# 6 0.0000 0.0000 0.0000 0.0000 0.0000 7.2781
#
#
#
# Elastic Compliance Matrix: (Units=1/GPa)
#
#
# Indices 1 2 3 4 5 6 
#
# 1 0.021241 0.004154 -0.022019 0.000000 0.000000 0.000000
# 2 0.004154 0.028419 -0.039525 0.000000 0.000000 0.000000
# 3 -0.022019 -0.039525 0.086423 0.000000 0.000000 0.000000
# 4 0.000000 0.000000 0.000000 0.025326 0.000000 0.000000
# 5 0.000000 0.000000 0.000000 0.000000 0.063832 0.000000
# 6 0.000000 0.000000 0.000000 0.000000 0.000000 0.137398
#
#
# Mechanical properties :
#
#
# Convention : Reuss Voigt Hill
#
# Bulk Modulus (GPa) = 46.94155 63.67229 55.30692
# Shear Modulus (GPa) = 10.31946 19.24660 14.78303
#
# Velocity S-wave (km/s) = 2.48816 3.39803 2.97805
# Velocity P-wave (km/s) = 6.03459 7.32082 6.70860
#
# Compressibility (1/GPa) = 0.02130309
#
# Stress axis : x y z
#
# Youngs Moduli (GPa) = 47.07837 35.18717 11.57101
#
# Poissons Ratio (x) = -0.14616 0.25478
# Poissons Ratio (y) = -0.19555 0.45734
# Poissons Ratio (z) = 1.03662 1.39076
#
# Static dielectric constant tensor:
#      x y z
#    x 1.555340 0.000000 0.000000 
#    y 0.000000 1.554500 0.000000 
#    z 0.000000 0.000000 1.555620 
# 
# From -- ./inp_files/9663.got.cif
#   From: 2010.05.17/outbox.cif.g08.bks.cpg/sg65_5_cif.got.tgz:9663.got - 2010.06.03 17:01:31.
