data_PCOD9491757
_publ_section_title
;
Structure prediction by ZEFSAII (Michael W. Deem and Ramdas Pophale) SiO2 
 PCOD9491757
Probable space group: C M M M
;
_chemical_formula_sum "Si O2"
_cell_formula_units_Z 68
_cell_length_a 22.768171
_cell_length_b 18.548721
_cell_length_c 7.458511
_cell_angle_alpha 90.000000
_cell_angle_beta 90.000000
_cell_angle_gamma 90.000000
_cell_volume 3149.881733
_symmetry_space_group_name_H-M "C M M M"
_symmetry_group_IT_number 65
_symmetry_cell_setting 'orthorhombic'
loop_
_space_group_symop_operation_xyz
x,y,z
-x,-y,z
x,-y,-z
-x,y,-z
-x,-y,-z
x,y,-z
-x,y,z
x,-y,z
1/2+x,1/2+y,z
1/2-x,1/2-y,z
1/2+x,1/2-y,-z
1/2-x,1/2+y,-z
1/2-x,1/2-y,-z
1/2+x,1/2+y,-z
1/2-x,1/2+y,z
1/2+x,1/2-y,z
loop_
_atom_site_type_symbol
_atom_site_label
_atom_site_fract_x
_atom_site_fract_y
_atom_site_fract_z
Si Si1 0.500000 0.099654 0.000000
Si Si2 0.064129 0.180137 0.282309
Si Si3 0.671737 0.417772 0.282569
Si Si4 0.586442 0.154171 0.706411
Si Si5 0.218821 0.322260 0.792944
O O1 0.551586 0.103826 0.842558
O O2 0.065465 0.178279 0.500000
O O3 0.118419 0.132702 0.219151
O O4 0.070374 0.263887 0.233856
O O5 0.000000 0.153726 0.224366
O O6 0.671729 0.416213 0.500000
O O7 0.664104 0.500000 0.225669
O O8 0.732871 0.384257 0.220941
O O9 0.568394 0.144146 0.500000
O O10 0.657185 0.153549 0.711372
O O11 0.250000 0.250000 0.715254
O O12 0.205427 0.305732 0.000000
#
# Coordination Sequence:
#
# PCOD9491757 Si02
#       5
#     4  16  16  16  16
#     4  12  22  36  54  90 126 152 188 252 296 382
#     4   9  17  31  52  79 114 157 202 243 292 346
#     4  10  21  36  55  81 117 160 204 250 301 357
#     4  11  21  35  58  87 120 158 196 248 305 355
#     4  11  22  36  58  86 115 155 206 258 307 358
#
# _framework density 21.588113
#
# number of rings (size 3 to 8) (size 9 to 14) (size 15 to 20)
#    0.000    1.647    4.706    1.059    0.000    1.882 
#    0.000    2.353    0.000    0.000    0.000    4.118 
#    0.000    3.765    0.000    0.000    0.000    0.000 
#
# Total GULP energy -189484.415009 kJ/mol
# GULP energy per Si atom -5573.071030 kJ/mol
# Density = 2.153898 g / cm^3
# Si number density = 21.588113 Si / 1000 Ang^3
#
#
#
# Elastic Constant Matrix: (Units=GPa)
#
#
# Indices 1 2 3 4 5 6 
#
# 1 175.9952 1.9717 11.2202 0.0000 0.0000 0.0000
# 2 1.9717 19.6843 -4.3242 0.0000 0.0000 0.0000
# 3 11.2202 -4.3242 105.5745 0.0000 0.0000 0.0000
# 4 0.0000 0.0000 0.0000 0.4065 0.0000 0.0000
# 5 0.0000 0.0000 0.0000 0.0000 -5.2454 0.0000
# 6 0.0000 0.0000 0.0000 0.0000 0.0000 -58.0303
#
#
#
# Elastic Compliance Matrix: (Units=1/GPa)
#
#
# Indices 1 2 3 4 5 6 
#
# 1 0.005731 -0.000714 -0.000638 0.000000 0.000000 0.000000
# 2 -0.000714 0.051352 0.002179 0.000000 0.000000 0.000000
# 3 -0.000638 0.002179 0.009629 0.000000 0.000000 0.000000
# 4 0.000000 0.000000 0.000000 2.460036 0.000000 0.000000
# 5 0.000000 0.000000 0.000000 0.000000 -0.190643 0.000000
# 6 0.000000 0.000000 0.000000 0.000000 0.000000 -0.017232
#
#
# Mechanical properties :
#
#
# Convention : Reuss Voigt Hill
#
# Bulk Modulus (GPa) = 14.62731 35.44326 25.03529
# Shear Modulus (GPa) = 2.13675 6.91859 4.52767
#
# Velocity S-wave (km/s) = 0.99596 1.79214 1.44978
# Velocity P-wave (km/s) = 2.84832 4.55368 3.79795
#
# Compressibility (1/GPa) = 0.06836527
#
# Stress axis : x y z
#
# Youngs Moduli (GPa) = 174.49973 19.47339 103.85210
#
# Poissons Ratio (x) = 0.01391 0.06629
# Poissons Ratio (y) = 0.12463 -0.22632
# Poissons Ratio (z) = 0.11138 -0.04244
#
# Static dielectric constant tensor:
#      x y z
#    x 1.817910 0.000000 0.000000 
#    y 0.000000 1.768000 0.000000 
#    z 0.000000 0.000000 1.822070 
# 
# From -- ./inp_files/9240.got.cif
#   From: 2010.05.17/outbox.cif.g08.bks.cpg/sg65_5_cif.got.tgz:9240.got - 2010.06.03 17:01:31.
