data_PCOD9491774
_publ_section_title
;
Structure prediction by ZEFSAII (Michael W. Deem and Ramdas Pophale) SiO2 
 PCOD9491774
Probable space group: C M M M
;
_chemical_formula_sum "Si O2"
_cell_formula_units_Z 104
_cell_length_a 27.974934
_cell_length_b 9.081475
_cell_length_c 21.644162
_cell_angle_alpha 90.000000
_cell_angle_beta 90.000000
_cell_angle_gamma 90.000000
_cell_volume 5498.778655
_symmetry_space_group_name_H-M "C M M M"
_symmetry_group_IT_number 65
_symmetry_cell_setting 'orthorhombic'
loop_
_space_group_symop_operation_xyz
x,y,z
-x,-y,z
x,-y,-z
-x,y,-z
-x,-y,-z
x,y,-z
-x,y,z
x,-y,z
1/2+x,1/2+y,z
1/2-x,1/2-y,z
1/2+x,1/2-y,-z
1/2-x,1/2+y,-z
1/2-x,1/2-y,-z
1/2+x,1/2+y,-z
1/2-x,1/2+y,z
1/2+x,1/2-y,z
loop_
_atom_site_type_symbol
_atom_site_label
_atom_site_fract_x
_atom_site_fract_y
_atom_site_fract_z
Si Si1 0.104378 0.675171 0.429267
Si Si2 0.199192 0.823975 0.379920
Si Si3 0.151207 0.174431 0.248654
Si Si4 0.801239 0.677578 0.000000
Si Si5 0.054205 0.822732 0.315852
Si Si6 0.355683 0.175143 0.875323
Si Si7 0.944595 0.174926 0.072599
O O1 0.089481 0.699170 0.500000
O O2 0.108502 0.500000 0.418511
O O3 0.155833 0.751164 0.417803
O O4 0.068120 0.745831 0.380183
O O5 0.250000 0.750000 0.393493
O O6 0.184509 0.798329 0.308077
O O7 0.200562 0.000000 0.390107
O O8 0.097076 0.217254 0.269061
O O9 0.165560 0.259134 0.187230
O O10 0.151331 0.000000 0.236363
O O11 0.750000 0.750000 0.000000
O O12 0.828329 0.722498 0.062497
O O13 0.798131 0.500000 0.000000
O O14 0.000000 0.786277 0.296730
O O15 0.057121 0.000000 0.323776
O O16 0.408970 0.236130 0.884809
O O17 0.355536 0.000000 0.872419
O O18 0.000000 0.203060 0.086648
O O19 0.936143 0.000000 0.079471
O O20 0.936990 0.211940 0.000000
#
# Coordination Sequence:
#
# PCOD9491774 Si02
#       7
#    16  16  16   8  16  16  16
#     4  10  21  36  55  83 118 152 188 231 276 325
#     4  10  21  38  60  83 110 144 184 231 282 334
#     4   9  20  37  56  81 110 144 186 227 271 328
#     4  10  24  42  57  78 107 139 178 223 271 328
#     4   9  19  37  59  82 112 151 192 234 277 323
#     4  11  22  37  56  81 112 142 177 225 279 329
#     4   9  18  33  54  79 105 137 176 213 257 320
#
# _framework density 18.913291000000001
#
# number of rings (size 3 to 8) (size 9 to 14) (size 15 to 20)
#    0.000    2.308    0.769    2.769    0.000    8.000 
#    0.000    6.923    0.000    0.000    0.000    0.000 
#    0.000    0.000    0.000    0.000    0.000    0.000 
#
# Total GULP energy -290281.557441 kJ/mol
# GULP energy per Si atom -5582.337643 kJ/mol
# Density = 1.887024 g / cm^3
# Si number density = 18.913291 Si / 1000 Ang^3
#
#
#
# Elastic Constant Matrix: (Units=GPa)
#
#
# Indices 1 2 3 4 5 6 
#
# 1 42.3713 3.1161 -9.3789 0.0000 0.0000 0.0000
# 2 3.1161 18.3019 20.8184 0.0000 0.0000 0.0000
# 3 -9.3789 20.8184 68.0723 0.0000 0.0000 0.0000
# 4 0.0000 0.0000 0.0000 33.1109 0.0000 0.0000
# 5 0.0000 0.0000 0.0000 0.0000 3.7268 0.0000
# 6 0.0000 0.0000 0.0000 0.0000 0.0000 28.7703
#
#
#
# Elastic Compliance Matrix: (Units=1/GPa)
#
#
# Indices 1 2 3 4 5 6 
#
# 1 0.026262 -0.013168 0.007645 0.000000 0.000000 0.000000
# 2 -0.013168 0.090389 -0.029458 0.000000 0.000000 0.000000
# 3 0.007645 -0.029458 0.024753 0.000000 0.000000 0.000000
# 4 0.000000 0.000000 0.000000 0.030202 0.000000 0.000000
# 5 0.000000 0.000000 0.000000 0.000000 0.268328 0.000000
# 6 0.000000 0.000000 0.000000 0.000000 0.000000 0.034758
#
#
# Mechanical properties :
#
#
# Convention : Reuss Voigt Hill
#
# Bulk Modulus (GPa) = 13.99723 17.53964 15.76844
# Shear Modulus (GPa) = 8.79561 20.73425 14.76493
#
# Velocity S-wave (km/s) = 2.15884 3.31460 2.79707
# Velocity P-wave (km/s) = 3.69201 4.89312 4.33437
#
# Compressibility (1/GPa) = 0.07144269
#
# Stress axis : x y z
#
# Youngs Moduli (GPa) = 38.07838 11.06327 40.39975
#
# Poissons Ratio (x) = 0.14568 -0.30887
# Poissons Ratio (y) = 0.50142 1.19009
# Poissons Ratio (z) = -0.29113 0.32590
#
# Static dielectric constant tensor:
#      x y z
#    x 1.643470 0.000000 0.000000 
#    y 0.000000 1.629020 0.000000 
#    z 0.000000 0.000000 1.666270 
# 
# From -- ./inp_files/65900.got.cif
#   From: 2010.05.17/outbox.cif.g08.bks.cpg/sg65_33_cif.got.tgz:65900.got - 2010.06.03 17:01:31.
