data_PCOD9491406
_publ_section_title
;
Structure prediction by ZEFSAII (Michael W. Deem and Ramdas Pophale) SiO2 
 PCOD9491406
Probable space group: C M M M
;
_chemical_formula_sum "Si O2"
_cell_formula_units_Z 112
_cell_length_a 22.796169
_cell_length_b 15.242637
_cell_length_c 14.950376
_cell_angle_alpha 90.000000
_cell_angle_beta 90.000000
_cell_angle_gamma 90.000000
_cell_volume 5194.862900
_symmetry_space_group_name_H-M "C M M M"
_symmetry_group_IT_number 65
_symmetry_cell_setting 'orthorhombic'
loop_
_space_group_symop_operation_xyz
x,y,z
-x,-y,z
x,-y,-z
-x,y,-z
-x,-y,-z
x,y,-z
-x,y,z
x,-y,z
1/2+x,1/2+y,z
1/2-x,1/2-y,z
1/2+x,1/2-y,-z
1/2-x,1/2+y,-z
1/2-x,1/2-y,-z
1/2+x,1/2+y,-z
1/2-x,1/2+y,z
1/2+x,1/2-y,z
loop_
_atom_site_type_symbol
_atom_site_label
_atom_site_fract_x
_atom_site_fract_y
_atom_site_fract_z
Si Si1 0.242611 0.644776 0.901823
Si Si2 0.566637 0.597256 0.772058
Si Si3 0.123711 0.898057 0.596900
Si Si4 0.762731 0.147450 0.706745
Si Si5 0.895891 0.603730 0.902878
Si Si6 0.356170 0.101207 0.392857
Si Si7 0.432088 0.784878 0.258659
O O1 0.250000 0.750000 0.904301
O O2 0.269703 0.611770 0.808128
O O3 0.173520 0.623558 0.894459
O O4 0.263060 0.611530 0.000000
O O5 0.500000 0.596661 0.805464
O O6 0.592090 0.500000 0.794878
O O7 0.569346 0.603097 0.663884
O O8 0.592070 0.694627 0.788657
O O9 0.113598 0.858206 0.500000
O O10 0.179379 0.860568 0.648095
O O11 0.138169 0.000000 0.586869
O O12 0.750000 0.250000 0.715957
O O13 0.707747 0.106518 0.653952
O O14 0.903409 0.500000 0.901832
O O15 0.928214 0.645160 0.820062
O O16 0.915367 0.637990 0.000000
O O17 0.352421 0.117280 0.500000
O O18 0.395441 0.173723 0.340828
O O19 0.377834 0.000000 0.380524
O O20 0.500000 0.770949 0.283787
#
# Coordination Sequence:
#
# PCOD9491406 Si02
#       7
#    16  16  16  16  16  16  16
#     4   9  19  35  56  83 115 153 192 235 288 347
#     4   9  20  39  61  85 115 153 197 246 302 359
#     4  10  21  35  53  80 112 146 187 236 288 344
#     4  11  21  33  55  83 114 153 196 240 293 347
#     4  10  21  38  62  91 123 158 198 247 301 353
#     4  11  24  40  57  81 120 167 206 243 296 360
#     4  11  23  39  62  88 116 154 202 252 302 357
#
# _framework density 21.559761000000002
#
# number of rings (size 3 to 8) (size 9 to 14) (size 15 to 20)
#    0.000    1.857    1.429    2.143    2.000    6.571 
#    0.000    4.286    0.000    0.429    0.000    2.000 
#    0.000    0.000    0.000    0.000    0.000    0.286 
#
# Total GULP energy -312068.713554 kJ/mol
# GULP energy per Si atom -5572.655599 kJ/mol
# Density = 2.151069 g / cm^3
# Si number density = 21.559761 Si / 1000 Ang^3
#
#
#
# Elastic Constant Matrix: (Units=GPa)
#
#
# Indices 1 2 3 4 5 6 
#
# 1 38.5279 14.6940 -3.6353 0.0000 0.0000 0.0000
# 2 14.6940 108.7028 21.7610 0.0000 0.0000 0.0000
# 3 -3.6353 21.7610 93.1981 0.0000 0.0000 0.0000
# 4 0.0000 0.0000 0.0000 19.5825 0.0000 0.0000
# 5 0.0000 0.0000 0.0000 0.0000 25.3273 0.0000
# 6 0.0000 0.0000 0.0000 0.0000 0.0000 21.3053
#
#
#
# Elastic Compliance Matrix: (Units=1/GPa)
#
#
# Indices 1 2 3 4 5 6 
#
# 1 0.027736 -0.004160 0.002053 0.000000 0.000000 0.000000
# 2 -0.004160 0.010274 -0.002561 0.000000 0.000000 0.000000
# 3 0.002053 -0.002561 0.011408 0.000000 0.000000 0.000000
# 4 0.000000 0.000000 0.000000 0.051066 0.000000 0.000000
# 5 0.000000 0.000000 0.000000 0.000000 0.039483 0.000000
# 6 0.000000 0.000000 0.000000 0.000000 0.000000 0.046937
#
#
# Mechanical properties :
#
#
# Convention : Reuss Voigt Hill
#
# Bulk Modulus (GPa) = 24.94916 34.00759 29.47838
# Shear Modulus (GPa) = 23.85486 27.08363 25.46924
#
# Velocity S-wave (km/s) = 3.32995 3.54815 3.44078
# Velocity P-wave (km/s) = 5.13634 5.70909 5.43027
#
# Compressibility (1/GPa) = 0.04008150
#
# Stress axis : x y z
#
# Youngs Moduli (GPa) = 36.05476 97.32840 87.65808
#
# Poissons Ratio (x) = 0.40491 -0.17998
# Poissons Ratio (y) = 0.15000 0.22452
# Poissons Ratio (z) = -0.07403 0.24929
#
# Static dielectric constant tensor:
#      x y z
#    x 1.791560 0.000000 0.000000 
#    y 0.000000 1.878650 0.000000 
#    z 0.000000 0.000000 1.833480 
# 
# From -- ./inp_files/40770.got.cif
#   From: 2010.05.17/outbox.cif.g08.bks.cpg/sg65_21_cif.got.tgz:40770.got - 2010.06.03 17:01:31.
