data_PCOD9491711
_publ_section_title
;
Structure prediction by ZEFSAII (Michael W. Deem and Ramdas Pophale) SiO2 
 PCOD9491711
Probable space group: C M M M
;
_chemical_formula_sum "Si O2"
_cell_formula_units_Z 96
_cell_length_a 20.469308
_cell_length_b 8.935475
_cell_length_c 30.266336
_cell_angle_alpha 90.000000
_cell_angle_beta 90.000000
_cell_angle_gamma 90.000000
_cell_volume 5535.803348
_symmetry_space_group_name_H-M "C M M M"
_symmetry_group_IT_number 65
_symmetry_cell_setting 'orthorhombic'
loop_
_space_group_symop_operation_xyz
x,y,z
-x,-y,z
x,-y,-z
-x,y,-z
-x,-y,-z
x,y,-z
-x,y,z
x,-y,z
1/2+x,1/2+y,z
1/2-x,1/2-y,z
1/2+x,1/2-y,-z
1/2-x,1/2+y,-z
1/2-x,1/2-y,-z
1/2+x,1/2+y,-z
1/2-x,1/2+y,z
1/2+x,1/2-y,z
loop_
_atom_site_type_symbol
_atom_site_label
_atom_site_fract_x
_atom_site_fract_y
_atom_site_fract_z
Si Si1 0.679568 0.179151 0.780335
Si Si2 0.680070 0.178268 0.116251
Si Si3 0.576423 0.678752 0.713914
Si Si4 0.179746 0.178448 0.552082
Si Si5 0.923626 0.321346 0.618038
Si Si6 0.924186 0.820052 0.051057
O O1 0.750000 0.250000 0.769248
O O2 0.666674 0.212831 0.832099
O O3 0.623964 0.248740 0.749709
O O4 0.682139 0.000000 0.775005
O O5 0.750000 0.250000 0.104981
O O6 0.624373 0.242713 0.084852
O O7 0.684174 0.000000 0.111741
O O8 0.500000 0.708787 0.724196
O O9 0.585535 0.500000 0.712369
O O10 0.589883 0.748955 0.665827
O O11 0.167641 0.207177 0.500000
O O12 0.250000 0.250000 0.563125
O O13 0.123842 0.250741 0.581886
O O14 0.182094 0.000000 0.558723
O O15 0.914561 0.500000 0.620310
O O16 0.000000 0.291729 0.607613
O O17 0.000000 0.780989 0.059615
O O18 0.918500 0.000000 0.054776
O O19 0.909483 0.780260 0.000000
#
# Coordination Sequence:
#
# PCOD9491711 Si02
#       6
#    16  16  16  16  16  16
#     4  10  21  37  56  79 108 140 177 220 265 315
#     4  10  21  36  55  79 107 140 177 219 265 314
#     4  10  21  37  57  81 109 141 178 219 264 316
#     4  10  21  37  57  81 110 143 180 223 268 316
#     4  10  21  37  57  81 110 143 179 221 267 315
#     4   9  19  36  56  78 106 140 177 218 264 314
#
# _framework density 17.341654999999999
#
# number of rings (size 3 to 8) (size 9 to 14) (size 15 to 20)
#    0.000    2.167    0.000    3.000    0.000    7.667 
#    0.000    9.167    0.000    0.000    0.000    0.000 
#    0.000    0.000    0.000    0.000    0.000    0.000 
#
# Total GULP energy -268035.735307 kJ/mol
# GULP energy per Si atom -5584.077819 kJ/mol
# Density = 1.730218 g / cm^3
# Si number density = 17.341655 Si / 1000 Ang^3
#
#
#
# Elastic Constant Matrix: (Units=GPa)
#
#
# Indices 1 2 3 4 5 6 
#
# 1 147.7753 86.3723 121.1601 0.0000 0.0000 0.0000
# 2 86.3723 85.4371 77.9684 0.0000 0.0000 0.0000
# 3 121.1601 77.9684 117.4218 0.0000 0.0000 0.0000
# 4 0.0000 0.0000 0.0000 35.2684 0.0000 0.0000
# 5 0.0000 0.0000 0.0000 0.0000 45.6485 0.0000
# 6 0.0000 0.0000 0.0000 0.0000 0.0000 36.9561
#
#
#
# Elastic Compliance Matrix: (Units=1/GPa)
#
#
# Indices 1 2 3 4 5 6 
#
# 1 0.046048 -0.008100 -0.042136 0.000000 0.000000 0.000000
# 2 -0.008100 0.031128 -0.012312 0.000000 0.000000 0.000000
# 3 -0.042136 -0.012312 0.060169 0.000000 0.000000 0.000000
# 4 0.000000 0.000000 0.000000 0.028354 0.000000 0.000000
# 5 0.000000 0.000000 0.000000 0.000000 0.021907 0.000000
# 6 0.000000 0.000000 0.000000 0.000000 0.000000 0.027059
#
#
# Mechanical properties :
#
#
# Convention : Reuss Voigt Hill
#
# Bulk Modulus (GPa) = 81.62952 102.40399 92.01676
# Shear Modulus (GPa) = 14.54148 27.91683 21.22916
#
# Velocity S-wave (km/s) = 2.89888 4.01660 3.50261
# Velocity P-wave (km/s) = 7.64056 8.98275 8.33871
#
# Compressibility (1/GPa) = 0.01225047
#
# Stress axis : x y z
#
# Youngs Moduli (GPa) = 21.71632 32.12502 16.61987
#
# Poissons Ratio (x) = 0.26020 0.70030
# Poissons Ratio (y) = 0.17590 0.20462
# Poissons Ratio (z) = 0.91504 0.39552
#
# Static dielectric constant tensor:
#      x y z
#    x 1.558330 0.000000 0.000000 
#    y 0.000000 1.575470 0.000000 
#    z 0.000000 0.000000 1.563820 
# 
# From -- ./inp_files/73067.got.cif
#   From: 2010.05.17/outbox.cif.g08.bks.cpg/sg65_37_cif.got.tgz:73067.got - 2010.06.03 17:01:31.
