data_PCOD9491136
_publ_section_title
;
Structure prediction by ZEFSAII (Michael W. Deem and Ramdas Pophale) SiO2 
 PCOD9491136
Probable space group: C M M M
;
_chemical_formula_sum "Si O2"
_cell_formula_units_Z 80
_cell_length_a 15.854283
_cell_length_b 18.726905
_cell_length_c 13.922817
_cell_angle_alpha 90.000000
_cell_angle_beta 90.000000
_cell_angle_gamma 90.000000
_cell_volume 4133.707362
_symmetry_space_group_name_H-M "C M M M"
_symmetry_group_IT_number 65
_symmetry_cell_setting 'orthorhombic'
loop_
_space_group_symop_operation_xyz
x,y,z
-x,-y,z
x,-y,-z
-x,y,-z
-x,-y,-z
x,y,-z
-x,y,z
x,-y,z
1/2+x,1/2+y,z
1/2-x,1/2-y,z
1/2+x,1/2-y,-z
1/2-x,1/2+y,-z
1/2-x,1/2-y,-z
1/2+x,1/2+y,-z
1/2-x,1/2+y,z
1/2+x,1/2-y,z
loop_
_atom_site_type_symbol
_atom_site_label
_atom_site_fract_x
_atom_site_fract_y
_atom_site_fract_z
Si Si1 0.845824 0.222939 0.395091
Si Si2 0.904199 0.921030 0.679026
Si Si3 0.127478 0.120391 0.893265
Si Si4 0.173638 0.419509 0.110620
Si Si5 0.648882 0.768738 0.192777
O O1 0.884645 0.234693 0.500000
O O2 0.750000 0.250000 0.399777
O O3 0.847595 0.139529 0.367870
O O4 0.885718 0.257942 0.300309
O O5 0.906657 0.912890 0.794833
O O6 0.000000 0.911342 0.644045
O O7 0.874608 0.000000 0.655299
O O8 0.225935 0.097281 0.890809
O O9 0.116551 0.205818 0.876946
O O10 0.096642 0.100513 0.000000
O O11 0.160179 0.500000 0.149787
O O12 0.135584 0.349719 0.160860
O O13 0.145363 0.419719 0.000000
O O14 0.750000 0.750000 0.195877
#
# Coordination Sequence:
#
# PCOD9491136 Si02
#       5
#    16  16  16  16  16
#     4   9  18  33  51  68  88 119 161 206 248 290
#     4  10  21  34  48  71 103 136 166 196 239 295
#     4   9  16  26  40  59  89 130 168 196 226 274
#     4   9  15  22  37  63  92 123 159 196 236 282
#     4   8  14  25  40  58  84 118 155 197 241 284
#
# _framework density 19.353088
#
# number of rings (size 3 to 8) (size 9 to 14) (size 15 to 20)
#    0.000    3.000    0.000    2.400    0.000    4.800 
#    0.000    2.000    0.000    1.800    0.000    0.000 
#    0.000   20.000    0.000   64.400    0.000    0.000 
#
# Total GULP energy -222672.216792 kJ/mol
# GULP energy per Si atom -5566.805420 kJ/mol
# Density = 1.930904 g / cm^3
# Si number density = 19.353088 Si / 1000 Ang^3
#
#
#
# Elastic Constant Matrix: (Units=GPa)
#
#
# Indices 1 2 3 4 5 6 
#
# 1 16.4024 15.8609 4.2088 0.0000 0.0000 0.0000
# 2 15.8609 190.5168 37.5881 0.0000 0.0000 0.0000
# 3 4.2088 37.5881 83.2673 0.0000 0.0000 0.0000
# 4 0.0000 0.0000 0.0000 0.4342 0.0000 0.0000
# 5 0.0000 0.0000 0.0000 0.0000 -4.3731 0.0000
# 6 0.0000 0.0000 0.0000 0.0000 0.0000 -91.5730
#
#
#
# Elastic Compliance Matrix: (Units=1/GPa)
#
#
# Indices 1 2 3 4 5 6 
#
# 1 0.066372 -0.005339 -0.000945 0.000000 0.000000 0.000000
# 2 -0.005339 0.006192 -0.002525 0.000000 0.000000 0.000000
# 3 -0.000945 -0.002525 0.013197 0.000000 0.000000 0.000000
# 4 0.000000 0.000000 0.000000 2.303296 0.000000 0.000000
# 5 0.000000 0.000000 0.000000 0.000000 -0.228670 0.000000
# 6 0.000000 0.000000 0.000000 0.000000 0.000000 -0.010920
#
#
# Mechanical properties :
#
#
# Convention : Reuss Voigt Hill
#
# Bulk Modulus (GPa) = 14.67504 45.05579 29.86541
# Shear Modulus (GPa) = 2.28332 -3.60048 -0.65858
#
# Velocity S-wave (km/s) = 1.08737 -1.36545 -0.58398
# Velocity P-wave (km/s) = 3.02915 4.56569 3.87436
#
# Compressibility (1/GPa) = 0.06814293
#
# Stress axis : x y z
#
# Youngs Moduli (GPa) = 15.06656 161.50980 75.77404
#
# Poissons Ratio (x) = 0.86234 0.07158
# Poissons Ratio (y) = 0.08044 0.19134
# Poissons Ratio (z) = 0.01423 0.40783
#
# Static dielectric constant tensor:
#      x y z
#    x 1.749610 0.000000 0.000000 
#    y 0.000000 1.687630 0.000000 
#    z 0.000000 0.000000 1.709420 
# 
# From -- ./inp_files/42361.got.cif
#   From: 2010.05.17/outbox.cif.g08.bks.cpg/sg65_22_cif.got.tgz:42361.got - 2010.06.03 17:01:31.
