data_PCOD9491253
_publ_section_title
;
Structure prediction by ZEFSAII (Michael W. Deem and Ramdas Pophale) SiO2 
 PCOD9491253
Probable space group: C M M M
;
_chemical_formula_sum "Si O2"
_cell_formula_units_Z 104
_cell_length_a 7.538897
_cell_length_b 30.144529
_cell_length_c 20.863888
_cell_angle_alpha 90.000000
_cell_angle_beta 90.000000
_cell_angle_gamma 90.000000
_cell_volume 4741.454148
_symmetry_space_group_name_H-M "C M M M"
_symmetry_group_IT_number 65
_symmetry_cell_setting 'orthorhombic'
loop_
_space_group_symop_operation_xyz
x,y,z
-x,-y,z
x,-y,-z
-x,y,-z
-x,-y,-z
x,y,-z
-x,y,z
x,-y,z
1/2+x,1/2+y,z
1/2-x,1/2-y,z
1/2+x,1/2-y,-z
1/2-x,1/2+y,-z
1/2-x,1/2-y,-z
1/2+x,1/2+y,-z
1/2-x,1/2+y,z
1/2+x,1/2-y,z
loop_
_atom_site_type_symbol
_atom_site_label
_atom_site_fract_x
_atom_site_fract_y
_atom_site_fract_z
Si Si1 0.204913 0.450698 0.608180
Si Si2 0.712513 0.300721 0.311959
Si Si3 0.286424 0.550318 0.756433
Si Si4 0.794435 0.144826 0.431011
Si Si5 0.787513 0.199840 0.833769
Si Si6 0.783087 0.892704 0.122998
Si Si7 0.217206 0.948783 0.000000
O O1 0.279235 0.500000 0.595009
O O2 0.214150 0.443928 0.685059
O O3 0.291365 0.408150 0.576653
O O4 0.000000 0.450809 0.588470
O O5 0.500000 0.307631 0.307610
O O6 0.750000 0.250000 0.330597
O O7 0.783666 0.332995 0.367125
O O8 0.781369 0.306193 0.239332
O O9 0.500000 0.554002 0.750749
O O10 0.245175 0.500000 0.777545
O O11 0.227613 0.584714 0.810112
O O12 0.714182 0.156876 0.500000
O O13 0.000000 0.158978 0.432608
O O14 0.750000 0.250000 0.855015
O O15 0.725751 0.158557 0.876349
O O16 0.000000 0.196449 0.830709
O O17 0.000000 0.893789 0.122127
O O18 0.725153 0.922071 0.063055
O O19 0.000000 0.949234 0.000000
O O20 0.273952 0.000000 0.000000
#
# Coordination Sequence:
#
# PCOD9491253 Si02
#       7
#    16  16  16  16  16  16   8
#     4  10  21  35  50  71  99 129 164 209 257 299
#     4   9  18  33  52  74  99 126 159 202 249 295
#     4   9  16  28  49  74  97 123 158 200 248 302
#     4  10  21  36  53  73  98 130 167 203 242 296
#     4   9  17  30  48  69  95 126 161 201 243 285
#     4   9  16  27  45  70 101 134 163 198 246 291
#     4   9  16  26  43  72 107 135 163 201 244 291
#
# _framework density 21.934200000000001
#
# number of rings (size 3 to 8) (size 9 to 14) (size 15 to 20)
#    0.000    2.692    0.000    1.846    0.000    6.769 
#    0.000    5.769    0.000    0.000    0.000    1.615 
#    0.000    4.923    0.000    0.000    0.000    0.000 
#
# Total GULP energy -290262.301780 kJ/mol
# GULP energy per Si atom -5581.967342 kJ/mol
# Density = 2.188428 g / cm^3
# Si number density = 21.934200 Si / 1000 Ang^3
#
#
#
# Elastic Constant Matrix: (Units=GPa)
#
#
# Indices 1 2 3 4 5 6 
#
# 1 50.5910 0.1606 0.9951 0.0000 0.0000 0.0000
# 2 0.1606 150.6421 65.7759 0.0000 0.0000 0.0000
# 3 0.9951 65.7759 57.9129 0.0000 0.0000 0.0000
# 4 0.0000 0.0000 0.0000 11.1521 0.0000 0.0000
# 5 0.0000 0.0000 0.0000 0.0000 -7.7295 0.0000
# 6 0.0000 0.0000 0.0000 0.0000 0.0000 16.7654
#
#
#
# Elastic Compliance Matrix: (Units=1/GPa)
#
#
# Indices 1 2 3 4 5 6 
#
# 1 0.019778 0.000253 -0.000627 0.000000 0.000000 0.000000
# 2 0.000253 0.013172 -0.014965 0.000000 0.000000 0.000000
# 3 -0.000627 -0.014965 0.034275 0.000000 0.000000 0.000000
# 4 0.000000 0.000000 0.000000 0.089670 0.000000 0.000000
# 5 0.000000 0.000000 0.000000 0.000000 -0.129375 0.000000
# 6 0.000000 0.000000 0.000000 0.000000 0.000000 0.059647
#
#
# Mechanical properties :
#
#
# Convention : Reuss Voigt Hill
#
# Bulk Modulus (GPa) = 27.36216 43.66769 35.51492
# Shear Modulus (GPa) = 38.45347 16.85188 27.65268
#
# Velocity S-wave (km/s) = 4.19158 2.77482 3.55450
# Velocity P-wave (km/s) = 5.99396 5.49708 5.75089
#
# Compressibility (1/GPa) = 0.03654683
#
# Stress axis : x y z
#
# Youngs Moduli (GPa) = 50.56152 75.91690 29.17574
#
# Poissons Ratio (x) = -0.01917 0.01828
# Poissons Ratio (y) = -0.01277 0.43662
# Poissons Ratio (z) = 0.03168 1.13610
#
# Static dielectric constant tensor:
#      x y z
#    x 1.846890 0.000000 0.000000 
#    y 0.000000 1.789810 0.000000 
#    z 0.000000 0.000000 1.791250 
# 
# From -- ./inp_files/60403.got.cif
#   From: 2010.05.17/outbox.cif.g08.bks.cpg/sg65_31_cif.got.tgz:60403.got - 2010.06.03 17:01:31.
