data_PCOD9491183
_publ_section_title
;
Structure prediction by ZEFSAII (Michael W. Deem and Ramdas Pophale) SiO2 
 PCOD9491183
Probable space group: C M M M
;
_chemical_formula_sum "Si O2"
_cell_formula_units_Z 88
_cell_length_a 18.967556
_cell_length_b 8.059516
_cell_length_c 31.137100
_cell_angle_alpha 90.000000
_cell_angle_beta 90.000000
_cell_angle_gamma 90.000000
_cell_volume 4759.907337
_symmetry_space_group_name_H-M "C M M M"
_symmetry_group_IT_number 65
_symmetry_cell_setting 'orthorhombic'
loop_
_space_group_symop_operation_xyz
x,y,z
-x,-y,z
x,-y,-z
-x,y,-z
-x,-y,-z
x,y,-z
-x,y,z
x,-y,z
1/2+x,1/2+y,z
1/2-x,1/2-y,z
1/2+x,1/2-y,-z
1/2-x,1/2+y,-z
1/2-x,1/2-y,-z
1/2+x,1/2+y,-z
1/2-x,1/2+y,z
1/2+x,1/2-y,z
loop_
_atom_site_type_symbol
_atom_site_label
_atom_site_fract_x
_atom_site_fract_y
_atom_site_fract_z
Si Si1 0.579914 0.302823 0.129222
Si Si2 0.580931 0.800925 0.777570
Si Si3 0.414502 0.500000 0.451015
Si Si4 0.331214 0.198160 0.047341
Si Si5 0.915223 0.695260 0.610147
Si Si6 0.168843 0.300879 0.696523
O O1 0.500000 0.236223 0.124657
O O2 0.576762 0.500000 0.132702
O O3 0.608390 0.237934 0.174738
O O4 0.624297 0.259657 0.087449
O O5 0.500000 0.737813 0.774361
O O6 0.629604 0.735666 0.739187
O O7 0.577627 0.000000 0.773518
O O8 0.500000 0.500000 0.452312
O O9 0.388633 0.500000 0.500000
O O10 0.394937 0.668653 0.425665
O O11 0.250000 0.250000 0.052197
O O12 0.334855 0.000000 0.047053
O O13 0.355253 0.259201 0.000000
O O14 0.899829 0.500000 0.599808
O O15 0.874959 0.742616 0.653860
O O16 0.000000 0.705387 0.616660
O O17 0.167098 0.500000 0.698808
O O18 0.250000 0.250000 0.694096
#
# Coordination Sequence:
#
# PCOD9491183 Si02
#       6
#    16  16   8  16  16  16
#     4  10  21  36  54  79 109 140 175 217 266 318
#     4   9  18  35  56  75 102 140 181 222 265 319
#     4   9  18  32  54  86 114 140 181 229 278 326
#     4  10  21  37  57  79 103 135 176 219 267 321
#     4   9  18  34  55  80 110 145 184 226 274 326
#     4  10  21  34  52  79 106 141 179 221 269 317
#
# _framework density 18.487753999999999
#
# number of rings (size 3 to 8) (size 9 to 14) (size 15 to 20)
#    0.000    2.455    0.000    1.636    1.273    6.545 
#    0.000    5.455    0.000    0.545    0.000    0.000 
#    0.000    0.000    0.000    0.000    0.000    0.000 
#
# Total GULP energy -245356.877763 kJ/mol
# GULP energy per Si atom -5576.292676 kJ/mol
# Density = 1.844567 g / cm^3
# Si number density = 18.487754 Si / 1000 Ang^3
#
#
#
# Elastic Constant Matrix: (Units=GPa)
#
#
# Indices 1 2 3 4 5 6 
#
# 1 57.4164 23.7947 77.5107 0.0000 0.0000 0.0000
# 2 23.7947 51.7577 57.5628 0.0000 0.0000 0.0000
# 3 77.5107 57.5628 201.5016 0.0000 0.0000 0.0000
# 4 0.0000 0.0000 0.0000 16.9508 0.0000 0.0000
# 5 0.0000 0.0000 0.0000 0.0000 -23.6073 0.0000
# 6 0.0000 0.0000 0.0000 0.0000 0.0000 21.1418
#
#
#
# Elastic Compliance Matrix: (Units=1/GPa)
#
#
# Indices 1 2 3 4 5 6 
#
# 1 0.036333 -0.001700 -0.013490 0.000000 0.000000 0.000000
# 2 -0.001700 0.028397 -0.007458 0.000000 0.000000 0.000000
# 3 -0.013490 -0.007458 0.012283 0.000000 0.000000 0.000000
# 4 0.000000 0.000000 0.000000 0.058994 0.000000 0.000000
# 5 0.000000 0.000000 0.000000 0.000000 -0.042360 0.000000
# 6 0.000000 0.000000 0.000000 0.000000 0.000000 0.047300
#
#
# Mechanical properties :
#
#
# Convention : Reuss Voigt Hill
#
# Bulk Modulus (GPa) = 31.53042 69.82357 50.67700
# Shear Modulus (GPa) = 25.40448 13.01756 19.21102
#
# Velocity S-wave (km/s) = 3.71094 2.65640 3.22704
# Velocity P-wave (km/s) = 5.95426 6.87445 6.43084
#
# Compressibility (1/GPa) = 0.03171540
#
# Stress axis : x y z
#
# Youngs Moduli (GPa) = 27.52334 35.21482 81.41584
#
# Poissons Ratio (x) = 0.05986 1.09833
# Poissons Ratio (y) = 0.04679 0.60722
# Poissons Ratio (z) = 0.37130 0.26264
#
# Static dielectric constant tensor:
#      x y z
#    x 1.624520 0.000000 0.000000 
#    y 0.000000 1.648680 0.000000 
#    z 0.000000 0.000000 1.640110 
# 
# From -- ./inp_files/67473.got.cif
#   From: 2010.05.17/outbox.cif.g08.bks.cpg/sg65_34_cif.got.tgz:67473.got - 2010.06.03 17:01:31.
