data_PCOD9491577
_publ_section_title
;
Structure prediction by ZEFSAII (Michael W. Deem and Ramdas Pophale) SiO2 
 PCOD9491577
Probable space group: C M M M
;
_chemical_formula_sum "Si O2"
_cell_formula_units_Z 104
_cell_length_a 30.062485
_cell_length_b 8.555822
_cell_length_c 20.613129
_cell_angle_alpha 90.000000
_cell_angle_beta 90.000000
_cell_angle_gamma 90.000000
_cell_volume 5301.887874
_symmetry_space_group_name_H-M "C M M M"
_symmetry_group_IT_number 65
_symmetry_cell_setting 'orthorhombic'
loop_
_space_group_symop_operation_xyz
x,y,z
-x,-y,z
x,-y,-z
-x,y,-z
-x,-y,-z
x,y,-z
-x,y,z
x,-y,z
1/2+x,1/2+y,z
1/2-x,1/2-y,z
1/2+x,1/2-y,-z
1/2-x,1/2+y,-z
1/2-x,1/2-y,-z
1/2+x,1/2+y,-z
1/2-x,1/2+y,z
1/2+x,1/2-y,z
loop_
_atom_site_type_symbol
_atom_site_label
_atom_site_fract_x
_atom_site_fract_y
_atom_site_fract_z
Si Si1 0.298363 0.312876 0.265553
Si Si2 0.797398 0.313794 0.880447
Si Si3 0.549914 0.812044 0.334822
Si Si4 0.199759 0.185735 0.500000
Si Si5 0.448200 0.686660 0.191125
Si Si6 0.857018 0.687696 0.620006
Si Si7 0.388086 0.311232 0.071085
O O1 0.299103 0.500000 0.267807
O O2 0.250000 0.250000 0.287058
O O3 0.304308 0.256346 0.191781
O O4 0.335099 0.242246 0.312693
O O5 0.795426 0.500000 0.876179
O O6 0.750000 0.250000 0.904420
O O7 0.839016 0.258144 0.921966
O O8 0.500000 0.752927 0.350466
O O9 0.560069 0.765200 0.260492
O O10 0.591316 0.760095 0.378835
O O11 0.548613 0.000000 0.338248
O O12 0.250000 0.250000 0.500000
O O13 0.172437 0.242956 0.562555
O O14 0.202182 0.000000 0.500000
O O15 0.500000 0.712524 0.174696
O O16 0.441560 0.500000 0.199035
O O17 0.417414 0.742088 0.132226
O O18 0.855646 0.500000 0.615793
O O19 0.385428 0.500000 0.074664
O O20 0.406782 0.270774 0.000000
#
# Coordination Sequence:
#
# PCOD9491577 Si02
#       7
#    16  16  16   8  16  16  16
#     4  11  21  35  56  83 113 143 181 228 280 335
#     4  11  22  37  56  78 105 138 180 230 283 337
#     4   9  19  36  59  86 114 146 185 229 277 329
#     4  12  26  44  63  86 119 157 196 233 275 328
#     4   9  18  33  55  83 113 145 182 227 278 330
#     4  11  22  38  60  86 117 153 192 232 276 325
#     4  10  21  36  53  75 106 144 185 228 277 336
#
# _framework density 19.615655
#
# number of rings (size 3 to 8) (size 9 to 14) (size 15 to 20)
#    0.000    1.692    0.000    6.231    0.000    5.231 
#    0.000    1.923    0.000    2.308    0.000    3.231 
#    0.000    0.000    0.000    0.000    0.000    0.000 
#
# Total GULP energy -290544.895883 kJ/mol
# GULP energy per Si atom -5587.401844 kJ/mol
# Density = 1.957101 g / cm^3
# Si number density = 19.615655 Si / 1000 Ang^3
#
#
#
# Elastic Constant Matrix: (Units=GPa)
#
#
# Indices 1 2 3 4 5 6 
#
# 1 131.5929 27.5871 57.5153 0.0000 0.0000 0.0000
# 2 27.5871 64.0364 16.8630 0.0000 0.0000 0.0000
# 3 57.5153 16.8630 47.4009 0.0000 0.0000 0.0000
# 4 0.0000 0.0000 0.0000 20.6765 0.0000 0.0000
# 5 0.0000 0.0000 0.0000 0.0000 15.7971 0.0000
# 6 0.0000 0.0000 0.0000 0.0000 0.0000 23.0889
#
#
#
# Elastic Compliance Matrix: (Units=1/GPa)
#
#
# Indices 1 2 3 4 5 6 
#
# 1 0.016412 -0.002015 -0.019197 0.000000 0.000000 0.000000
# 2 -0.002015 0.017478 -0.003773 0.000000 0.000000 0.000000
# 3 -0.019197 -0.003773 0.045732 0.000000 0.000000 0.000000
# 4 0.000000 0.000000 0.000000 0.048364 0.000000 0.000000
# 5 0.000000 0.000000 0.000000 0.000000 0.063303 0.000000
# 6 0.000000 0.000000 0.000000 0.000000 0.000000 0.043311
#
#
# Mechanical properties :
#
#
# Convention : Reuss Voigt Hill
#
# Bulk Modulus (GPa) = 33.72442 49.66235 41.69338
# Shear Modulus (GPa) = 16.98057 21.31684 19.14870
#
# Velocity S-wave (km/s) = 2.94541 3.30013 3.12780
# Velocity P-wave (km/s) = 5.36630 6.31615 5.86050
#
# Compressibility (1/GPa) = 0.02965210
#
# Stress axis : x y z
#
# Youngs Moduli (GPa) = 60.93024 57.21576 21.86633
#
# Poissons Ratio (x) = 0.11530 0.41978
# Poissons Ratio (y) = 0.12278 0.08249
# Poissons Ratio (z) = 1.16970 0.21586
#
# Static dielectric constant tensor:
#      x y z
#    x 1.599100 0.000000 0.000000 
#    y 0.000000 1.661650 0.000000 
#    z 0.000000 0.000000 1.681470 
# 
# From -- ./inp_files/65848.got.cif
#   From: 2010.05.17/outbox.cif.g08.bks.cpg/sg65_33_cif.got.tgz:65848.got - 2010.06.03 17:01:31.
