data_PCOD9491946
_publ_section_title
;
Structure prediction by ZEFSAII (Michael W. Deem and Ramdas Pophale) SiO2 
 PCOD9491946
Probable space group: C M M M
;
_chemical_formula_sum "Si O2"
_cell_formula_units_Z 64
_cell_length_a 8.909558
_cell_length_b 34.265051
_cell_length_c 10.651072
_cell_angle_alpha 90.000000
_cell_angle_beta 90.000000
_cell_angle_gamma 90.000000
_cell_volume 3251.628058
_symmetry_space_group_name_H-M "C M M M"
_symmetry_group_IT_number 65
_symmetry_cell_setting 'orthorhombic'
loop_
_space_group_symop_operation_xyz
x,y,z
-x,-y,z
x,-y,-z
-x,y,-z
-x,-y,-z
x,y,-z
-x,y,z
x,-y,z
1/2+x,1/2+y,z
1/2-x,1/2-y,z
1/2+x,1/2-y,-z
1/2-x,1/2+y,-z
1/2-x,1/2-y,-z
1/2+x,1/2+y,-z
1/2-x,1/2+y,z
1/2+x,1/2-y,z
loop_
_atom_site_type_symbol
_atom_site_label
_atom_site_fract_x
_atom_site_fract_y
_atom_site_fract_z
Si Si1 0.317660 0.936447 0.355966
Si Si2 0.678191 0.707613 0.500000
Si Si3 0.679009 0.152434 0.707082
Si Si4 0.669180 0.710956 0.147608
Si Si5 0.183059 0.500000 0.851392
O O1 0.268224 0.946546 0.500000
O O2 0.500000 0.938872 0.359214
O O3 0.277113 0.891746 0.324907
O O4 0.270577 0.963599 0.238607
O O5 0.500000 0.710253 0.500000
O O6 0.750000 0.750000 0.500000
O O7 0.740106 0.682342 0.385178
O O8 0.500000 0.154891 0.694878
O O9 0.735850 0.171345 0.835470
O O10 0.500000 0.707454 0.198742
O O11 0.750000 0.750000 0.199079
O O12 0.655169 0.717436 0.000000
O O13 0.000000 0.500000 0.856429
O O14 0.231502 0.500000 0.000000
#
# Coordination Sequence:
#
# PCOD9491946 Si02
#       5
#    16   8  16  16   8
#     4   9  17  31  51  76 112 154 192 232 286 351
#     4  12  24  38  56  79 112 151 191 238 289 340
#     4  11  21  35  55  81 112 147 191 238 288 343
#     4  10  21  37  55  77 108 148 193 238 287 345
#     4   9  17  29  49  81 117 150 188 237 292 348
#
# _framework density 19.682447
#
# number of rings (size 3 to 8) (size 9 to 14) (size 15 to 20)
#    0.000    1.875    1.250    3.750    0.000    4.000 
#    0.000    2.500    0.000    0.000    0.000    4.375 
#    0.000    6.000    0.000    0.000    0.000    0.000 
#
# Total GULP energy -178264.446709 kJ/mol
# GULP energy per Si atom -5570.763960 kJ/mol
# Density = 1.963765 g / cm^3
# Si number density = 19.682447 Si / 1000 Ang^3
#
#
#
# Elastic Constant Matrix: (Units=GPa)
#
#
# Indices 1 2 3 4 5 6 
#
# 1 72.6050 47.7730 26.9606 0.0000 0.0000 0.0000
# 2 47.7730 165.1162 77.9096 0.0000 0.0000 0.0000
# 3 26.9606 77.9096 130.5451 0.0000 0.0000 0.0000
# 4 0.0000 0.0000 0.0000 17.6062 0.0000 0.0000
# 5 0.0000 0.0000 0.0000 0.0000 22.5517 0.0000
# 6 0.0000 0.0000 0.0000 0.0000 0.0000 17.0640
#
#
#
# Elastic Compliance Matrix: (Units=1/GPa)
#
#
# Indices 1 2 3 4 5 6 
#
# 1 0.017072 -0.004560 -0.000804 0.000000 0.000000 0.000000
# 2 -0.004560 0.009648 -0.004816 0.000000 0.000000 0.000000
# 3 -0.000804 -0.004816 0.010701 0.000000 0.000000 0.000000
# 4 0.000000 0.000000 0.000000 0.056798 0.000000 0.000000
# 5 0.000000 0.000000 0.000000 0.000000 0.044342 0.000000
# 6 0.000000 0.000000 0.000000 0.000000 0.000000 0.058603
#
#
# Mechanical properties :
#
#
# Convention : Reuss Voigt Hill
#
# Bulk Modulus (GPa) = 58.61746 74.83917 66.72832
# Shear Modulus (GPa) = 22.40013 25.81925 24.10969
#
# Velocity S-wave (km/s) = 3.37720 3.62579 3.50370
# Velocity P-wave (km/s) = 6.71219 7.45884 7.09535
#
# Compressibility (1/GPa) = 0.01705976
#
# Stress axis : x y z
#
# Youngs Moduli (GPa) = 58.57462 103.64577 93.45151
#
# Poissons Ratio (x) = 0.47262 0.07518
# Poissons Ratio (y) = 0.26710 0.45010
# Poissons Ratio (z) = 0.04712 0.49920
#
# Static dielectric constant tensor:
#      x y z
#    x 1.687140 0.000000 0.000000 
#    y 0.000000 1.666210 0.000000 
#    z 0.000000 0.000000 2.070910 
# 
# From -- ./inp_files/20961.got.cif
#   From: 2010.05.17/outbox.cif.g08.bks.cpg/sg65_11_cif.got.tgz:20961.got - 2010.06.03 17:01:31.
