data_PCOD9491971
_publ_section_title
;
Structure prediction by ZEFSAII (Michael W. Deem and Ramdas Pophale) SiO2 
 PCOD9491971
Probable space group: C M M M
;
_chemical_formula_sum "Si O2"
_cell_formula_units_Z 72
_cell_length_a 16.046738
_cell_length_b 29.283054
_cell_length_c 8.148628
_cell_angle_alpha 90.000000
_cell_angle_beta 90.000000
_cell_angle_gamma 90.000000
_cell_volume 3829.019888
_symmetry_space_group_name_H-M "C M M M"
_symmetry_group_IT_number 65
_symmetry_cell_setting 'orthorhombic'
loop_
_space_group_symop_operation_xyz
x,y,z
-x,-y,z
x,-y,-z
-x,y,-z
-x,-y,-z
x,y,-z
-x,y,z
x,-y,z
1/2+x,1/2+y,z
1/2-x,1/2-y,z
1/2+x,1/2-y,-z
1/2-x,1/2+y,-z
1/2-x,1/2-y,-z
1/2+x,1/2+y,-z
1/2-x,1/2+y,z
1/2+x,1/2-y,z
loop_
_atom_site_type_symbol
_atom_site_label
_atom_site_fract_x
_atom_site_fract_y
_atom_site_fract_z
Si Si1 0.500000 0.444394 0.811439
Si Si2 0.756111 0.641401 0.304096
Si Si3 0.681502 0.447670 0.801249
Si Si4 0.906283 0.295705 0.194892
Si Si5 0.592707 0.692651 0.695255
O O1 0.500000 0.500000 0.817420
O O2 0.589442 0.432440 0.736309
O O3 0.500000 0.428001 0.000000
O O4 0.756119 0.645343 0.500000
O O5 0.748996 0.588634 0.255059
O O6 0.836233 0.668067 0.240305
O O7 0.671434 0.665161 0.236919
O O8 0.696455 0.500000 0.749817
O O9 0.676821 0.447685 0.000000
O O10 0.891835 0.246442 0.276812
O O11 0.000000 0.310715 0.241593
O O12 0.904550 0.288351 0.000000
O O13 0.589673 0.684492 0.500000
O O14 0.500000 0.681580 0.762851
#
# Coordination Sequence:
#
# PCOD9491971 Si02
#       5
#     8  16  16  16  16
#     4   7  12  26  47  69  95 131 171 207 247 293
#     4  11  22  33  52  79 107 141 176 212 258 311
#     4   9  18  33  52  74 103 139 177 217 258 300
#     4  10  21  37  56  77 101 132 174 222 267 310
#     4   9  19  35  52  74 109 145 173 205 251 309
#
# _framework density 18.803768999999999
#
# number of rings (size 3 to 8) (size 9 to 14) (size 15 to 20)
#    0.000    2.556    0.000    3.333    1.556    6.222 
#    0.000    0.000    0.000    2.667    0.000    4.667 
#    0.000    0.000    0.000    0.000    0.000    0.000 
#
# Total GULP energy -200835.382325 kJ/mol
# GULP energy per Si atom -5578.760620 kJ/mol
# Density = 1.876097 g / cm^3
# Si number density = 18.803769 Si / 1000 Ang^3
#
#
#
# Elastic Constant Matrix: (Units=GPa)
#
#
# Indices 1 2 3 4 5 6 
#
# 1 97.5602 63.4331 6.4437 0.0000 0.0000 0.0000
# 2 63.4331 67.5110 -5.5721 0.0000 0.0000 0.0000
# 3 6.4437 -5.5721 14.9016 0.0000 0.0000 0.0000
# 4 0.0000 0.0000 0.0000 23.1052 0.0000 0.0000
# 5 0.0000 0.0000 0.0000 0.0000 15.8743 0.0000
# 6 0.0000 0.0000 0.0000 0.0000 0.0000 23.5365
#
#
#
# Elastic Compliance Matrix: (Units=1/GPa)
#
#
# Indices 1 2 3 4 5 6 
#
# 1 0.035071 -0.035294 -0.028363 0.000000 0.000000 0.000000
# 2 -0.035294 0.050802 0.034258 0.000000 0.000000 0.000000
# 3 -0.028363 0.034258 0.092182 0.000000 0.000000 0.000000
# 4 0.000000 0.000000 0.000000 0.043280 0.000000 0.000000
# 5 0.000000 0.000000 0.000000 0.000000 0.062995 0.000000
# 6 0.000000 0.000000 0.000000 0.000000 0.000000 0.042487
#
#
# Mechanical properties :
#
#
# Convention : Reuss Voigt Hill
#
# Bulk Modulus (GPa) = 8.38521 34.28689 21.33605
# Shear Modulus (GPa) = 11.75456 20.21441 15.98449
#
# Velocity S-wave (km/s) = 2.50295 3.28231 2.91876
# Velocity P-wave (km/s) = 3.58078 5.71300 4.76762
#
# Compressibility (1/GPa) = 0.11925760
#
# Stress axis : x y z
#
# Youngs Moduli (GPa) = 28.51340 19.68432 10.84813
#
# Poissons Ratio (x) = 0.69473 0.30768
# Poissons Ratio (y) = 1.00635 -0.37164
# Poissons Ratio (z) = 0.80872 -0.67435
#
# Static dielectric constant tensor:
#      x y z
#    x 1.673530 0.000000 0.000000 
#    y 0.000000 1.642410 0.000000 
#    z 0.000000 0.000000 1.669940 
# 
# From -- ./inp_files/7202.got.cif
#   From: 2010.05.17/outbox.cif.g08.bks.cpg/sg65_4_cif.got.tgz:7202.got - 2010.06.03 17:01:31.
