data_PCOD9491218
_publ_section_title
;
Structure prediction by ZEFSAII (Michael W. Deem and Ramdas Pophale) SiO2 
 PCOD9491218
Probable space group: C M M M
;
_chemical_formula_sum "Si O2"
_cell_formula_units_Z 88
_cell_length_a 10.765758
_cell_length_b 14.937647
_cell_length_c 28.107668
_cell_angle_alpha 90.000000
_cell_angle_beta 90.000000
_cell_angle_gamma 90.000000
_cell_volume 4520.137235
_symmetry_space_group_name_H-M "C M M M"
_symmetry_group_IT_number 65
_symmetry_cell_setting 'orthorhombic'
loop_
_space_group_symop_operation_xyz
x,y,z
-x,-y,z
x,-y,-z
-x,y,-z
-x,-y,-z
x,y,-z
-x,y,z
x,-y,z
1/2+x,1/2+y,z
1/2-x,1/2-y,z
1/2+x,1/2-y,-z
1/2-x,1/2+y,-z
1/2-x,1/2-y,-z
1/2+x,1/2+y,-z
1/2-x,1/2+y,z
1/2+x,1/2-y,z
loop_
_atom_site_type_symbol
_atom_site_label
_atom_site_fract_x
_atom_site_fract_y
_atom_site_fract_z
Si Si1 0.363711 0.106715 0.395262
Si Si2 0.860513 0.109393 0.220530
Si Si3 0.860463 0.109343 0.330351
Si Si4 0.641806 0.823424 0.947768
Si Si5 0.863253 0.394239 0.155855
Si Si6 0.639830 0.820135 0.500000
O O1 0.500000 0.141946 0.380601
O O2 0.248135 0.141729 0.364896
O O3 0.349123 0.124609 0.451296
O O4 0.366007 0.000000 0.388158
O O5 0.838966 0.135345 0.275447
O O6 0.751765 0.142029 0.186080
O O7 0.000000 0.137264 0.206441
O O8 0.860455 0.000000 0.219505
O O9 0.000000 0.137027 0.344502
O O10 0.859987 0.000000 0.331275
O O11 0.500000 0.785991 0.945692
O O12 0.750000 0.750000 0.945913
O O13 0.655676 0.881746 0.900522
O O14 0.651891 0.868438 0.000000
O O15 0.867778 0.500000 0.165610
O O16 0.000000 0.356764 0.168198
O O17 0.500000 0.780176 0.500000
O O18 0.750000 0.750000 0.500000
#
# Coordination Sequence:
#
# PCOD9491218 Si02
#       6
#    16  16  16  16  16   8
#     4   9  17  30  49  71  93 118 150 188 226 263
#     4   8  14  25  41  63  93 124 148 175 218 268
#     4   8  14  25  42  66  94 120 147 181 221 264
#     4   9  18  32  48  65  87 117 151 186 225 268
#     4   9  17  28  44  68  94 118 147 184 223 264
#     4  10  21  35  49  67  93 124 154 184 224 272
#
# _framework density 19.468437000000002
#
# number of rings (size 3 to 8) (size 9 to 14) (size 15 to 20)
#    0.000    3.273    0.000    1.364    0.000    3.636 
#    0.000    5.455    0.000    3.818    0.000    5.091 
#    0.000    0.000    0.000    0.000    0.000    0.000 
#
# Total GULP energy -245051.451817 kJ/mol
# GULP energy per Si atom -5569.351178 kJ/mol
# Density = 1.942413 g / cm^3
# Si number density = 19.468437 Si / 1000 Ang^3
#
#
#
# Elastic Constant Matrix: (Units=GPa)
#
#
# Indices 1 2 3 4 5 6 
#
# 1 193.6848 17.1839 121.7338 0.0000 0.0000 0.0000
# 2 17.1839 27.6537 5.0230 0.0000 0.0000 0.0000
# 3 121.7338 5.0230 113.1207 0.0000 0.0000 0.0000
# 4 0.0000 0.0000 0.0000 -125.3476 0.0000 0.0000
# 5 0.0000 0.0000 0.0000 0.0000 45.8189 0.0000
# 6 0.0000 0.0000 0.0000 0.0000 0.0000 9.4128
#
#
#
# Elastic Compliance Matrix: (Units=1/GPa)
#
#
# Indices 1 2 3 4 5 6 
#
# 1 0.017354 -0.007452 -0.018344 0.000000 0.000000 0.000000
# 2 -0.007452 0.039655 0.006258 0.000000 0.000000 0.000000
# 3 -0.018344 0.006258 0.028303 0.000000 0.000000 0.000000
# 4 0.000000 0.000000 0.000000 -0.007978 0.000000 0.000000
# 5 0.000000 0.000000 0.000000 0.000000 0.021825 0.000000
# 6 0.000000 0.000000 0.000000 0.000000 0.000000 0.106239
#
#
# Mechanical properties :
#
#
# Convention : Reuss Voigt Hill
#
# Bulk Modulus (GPa) = 21.62784 69.14898 45.38841
# Shear Modulus (GPa) = 19.23923 -1.32198 8.95862
#
# Velocity S-wave (km/s) = 3.14702 -0.82493 2.14746
# Velocity P-wave (km/s) = 4.93338 5.88967 5.43261
#
# Compressibility (1/GPa) = 0.04623670
#
# Stress axis : x y z
#
# Youngs Moduli (GPa) = 57.62445 25.21740 35.33172
#
# Poissons Ratio (x) = 0.18791 0.64813
# Poissons Ratio (y) = 0.42939 -0.22111
# Poissons Ratio (z) = 1.05707 -0.15781
#
# Static dielectric constant tensor:
#      x y z
#    x 1.708330 0.000000 0.000000 
#    y 0.000000 1.679980 0.000000 
#    z 0.000000 0.000000 1.672150 
# 
# From -- ./inp_files/61461.got.cif
#   From: 2010.05.17/outbox.cif.g08.bks.cpg/sg65_31_cif.got.tgz:61461.got - 2010.06.03 17:01:31.
