data_PCOD9491585
_publ_section_title
;
Structure prediction by ZEFSAII (Michael W. Deem and Ramdas Pophale) SiO2 
 PCOD9491585
Probable space group: C M M M
;
_chemical_formula_sum "Si O2"
_cell_formula_units_Z 80
_cell_length_a 18.825454
_cell_length_b 7.740703
_cell_length_c 26.714421
_cell_angle_alpha 90.000000
_cell_angle_beta 90.000000
_cell_angle_gamma 90.000000
_cell_volume 3892.885489
_symmetry_space_group_name_H-M "C M M M"
_symmetry_group_IT_number 65
_symmetry_cell_setting 'orthorhombic'
loop_
_space_group_symop_operation_xyz
x,y,z
-x,-y,z
x,-y,-z
-x,y,-z
-x,-y,-z
x,y,-z
-x,y,z
x,-y,z
1/2+x,1/2+y,z
1/2-x,1/2-y,z
1/2+x,1/2-y,-z
1/2-x,1/2+y,-z
1/2-x,1/2-y,-z
1/2+x,1/2+y,-z
1/2-x,1/2+y,z
1/2+x,1/2-y,z
loop_
_atom_site_type_symbol
_atom_site_label
_atom_site_fract_x
_atom_site_fract_y
_atom_site_fract_z
Si Si1 0.332421 0.792262 0.596467
Si Si2 0.833057 0.794689 0.902157
Si Si3 0.917544 0.211865 0.000000
Si Si4 0.832610 0.291729 0.291783
Si Si5 0.581681 0.211861 0.500000
Si Si6 0.919794 0.706752 0.196902
O O1 0.250000 0.750000 0.587722
O O2 0.351149 0.727777 0.652293
O O3 0.378948 0.728133 0.550274
O O4 0.339536 0.000000 0.597571
O O5 0.750000 0.750000 0.903462
O O6 0.875790 0.727791 0.950576
O O7 0.871110 0.738172 0.851252
O O8 0.838103 0.000000 0.903872
O O9 0.000000 0.264786 0.000000
O O10 0.917052 0.000000 0.000000
O O11 0.838483 0.500000 0.292625
O O12 0.750000 0.250000 0.282236
O O13 0.881764 0.225141 0.247050
O O14 0.500000 0.263225 0.500000
O O15 0.584182 0.000000 0.500000
O O16 0.924666 0.500000 0.202564
O O17 0.000000 0.774167 0.190145
#
# Coordination Sequence:
#
# PCOD9491585 Si02
#       6
#    16  16   8  16   8  16
#     4   9  17  30  49  71  95 126 164 204 246 294
#     4  11  22  37  58  81 107 139 175 213 253 300
#     4   9  19  36  57  81 108 137 170 209 254 304
#     4   9  18  32  50  72  98 130 166 205 250 298
#     4   9  17  28  45  71  98 123 158 204 248 293
#     4  10  21  36  53  76 106 137 171 212 257 305
#
# _framework density 20.550308000000001
#
# number of rings (size 3 to 8) (size 9 to 14) (size 15 to 20)
#    0.000    2.400    0.000    2.400    0.000    4.400 
#    0.000    5.500    0.000    4.800    0.000    5.600 
#    0.000    0.000    0.000    0.000    0.000    0.000 
#
# Total GULP energy -223351.490882 kJ/mol
# GULP energy per Si atom -5583.787272 kJ/mol
# Density = 2.050353 g / cm^3
# Si number density = 20.550308 Si / 1000 Ang^3
#
#
#
# Elastic Constant Matrix: (Units=GPa)
#
#
# Indices 1 2 3 4 5 6 
#
# 1 183.4003 1.6969 149.7738 0.0000 0.0000 0.0000
# 2 1.6969 32.0891 7.3288 0.0000 0.0000 0.0000
# 3 149.7738 7.3288 222.8643 0.0000 0.0000 0.0000
# 4 0.0000 0.0000 0.0000 15.1862 0.0000 0.0000
# 5 0.0000 0.0000 0.0000 0.0000 -15.4255 0.0000
# 6 0.0000 0.0000 0.0000 0.0000 0.0000 12.8228
#
#
#
# Elastic Compliance Matrix: (Units=1/GPa)
#
#
# Indices 1 2 3 4 5 6 
#
# 1 0.012133 0.001230 -0.008194 0.000000 0.000000 0.000000
# 2 0.001230 0.031524 -0.001863 0.000000 0.000000 0.000000
# 3 -0.008194 -0.001863 0.010055 0.000000 0.000000 0.000000
# 4 0.000000 0.000000 0.000000 0.065849 0.000000 0.000000
# 5 0.000000 0.000000 0.000000 0.000000 -0.064828 0.000000
# 6 0.000000 0.000000 0.000000 0.000000 0.000000 0.077986
#
#
# Mechanical properties :
#
#
# Convention : Reuss Voigt Hill
#
# Bulk Modulus (GPa) = 27.73404 83.99475 55.86439
# Shear Modulus (GPa) = 30.78933 21.15365 25.97149
#
# Velocity S-wave (km/s) = 3.87491 3.21184 3.55885
# Velocity P-wave (km/s) = 5.79180 7.39703 6.64308
#
# Compressibility (1/GPa) = 0.03605677
#
# Stress axis : x y z
#
# Youngs Moduli (GPa) = 82.41898 31.72212 99.45035
#
# Poissons Ratio (x) = -0.03901 0.81494
# Poissons Ratio (y) = -0.10137 0.18529
# Poissons Ratio (z) = 0.67537 0.05910
#
# Static dielectric constant tensor:
#      x y z
#    x 1.676300 0.000000 0.000000 
#    y 0.000000 1.762750 0.000000 
#    z 0.000000 0.000000 1.736820 
# 
# From -- ./inp_files/75117.got.cif
#   From: 2010.05.17/outbox.cif.g08.bks.cpg/sg65_38_cif.got.tgz:75117.got - 2010.06.03 17:01:31.
