data_PCOD9491943
_publ_section_title
;
Structure prediction by ZEFSAII (Michael W. Deem and Ramdas Pophale) SiO2 
 PCOD9491943
Probable space group: C M M M
;
_chemical_formula_sum "Si O2"
_cell_formula_units_Z 72
_cell_length_a 15.734291
_cell_length_b 8.847783
_cell_length_c 28.392228
_cell_angle_alpha 90.000000
_cell_angle_beta 90.000000
_cell_angle_gamma 90.000000
_cell_volume 3952.584057
_symmetry_space_group_name_H-M "C M M M"
_symmetry_group_IT_number 65
_symmetry_cell_setting 'orthorhombic'
loop_
_space_group_symop_operation_xyz
x,y,z
-x,-y,z
x,-y,-z
-x,y,-z
-x,-y,-z
x,y,-z
-x,y,z
x,-y,z
1/2+x,1/2+y,z
1/2-x,1/2-y,z
1/2+x,1/2-y,-z
1/2-x,1/2+y,-z
1/2-x,1/2-y,-z
1/2+x,1/2+y,-z
1/2-x,1/2+y,z
1/2+x,1/2-y,z
loop_
_atom_site_type_symbol
_atom_site_label
_atom_site_fract_x
_atom_site_fract_y
_atom_site_fract_z
Si Si1 0.500000 0.180635 0.277191
Si Si2 0.500000 0.180835 0.055284
Si Si3 0.340888 0.318089 0.554325
Si Si4 0.500000 0.683241 0.618879
Si Si5 0.341700 0.319581 0.778471
Si Si6 0.841335 0.820097 0.109926
O O1 0.500000 0.240476 0.330478
O O2 0.583027 0.244661 0.250834
O O3 0.500000 0.000000 0.275792
O O4 0.416889 0.247805 0.080287
O O5 0.500000 0.000000 0.060160
O O6 0.500000 0.218813 0.000000
O O7 0.358837 0.273042 0.500000
O O8 0.335237 0.500000 0.555164
O O9 0.250000 0.250000 0.567882
O O10 0.416792 0.273630 0.588835
O O11 0.500000 0.500000 0.624049
O O12 0.341035 0.500000 0.771065
O O13 0.250000 0.250000 0.766083
O O14 0.355629 0.291427 0.834292
O O15 0.750000 0.750000 0.097413
O O16 0.839499 0.000000 0.102985
#
# Coordination Sequence:
#
# PCOD9491943 Si02
#       6
#     8   8  16   8  16  16
#     4  12  25  38  55  82 116 153 190 229 278 334
#     4  11  24  39  56  82 117 155 192 231 277 330
#     4   9  18  34  57  82 106 137 179 225 274 327
#     4  10  21  37  55  76 109 149 184 223 273 330
#     4  10  21  39  62  87 113 144 186 233 282 334
#     4  10  21  38  62  88 113 145 186 233 282 334
#
# _framework density 18.215933
#
# number of rings (size 3 to 8) (size 9 to 14) (size 15 to 20)
#    0.000    1.889    0.000    3.667    0.000    9.778 
#    0.000    2.222    0.000    3.333    0.000    0.000 
#    0.000    0.000    0.000    0.000    0.000    0.000 
#
# Total GULP energy -201173.040673 kJ/mol
# GULP energy per Si atom -5588.140019 kJ/mol
# Density = 1.817447 g / cm^3
# Si number density = 18.215933 Si / 1000 Ang^3
#
#
#
# Elastic Constant Matrix: (Units=GPa)
#
#
# Indices 1 2 3 4 5 6 
#
# 1 221.2661 91.5465 138.0277 0.0000 0.0000 0.0000
# 2 91.5465 76.4125 79.1787 0.0000 0.0000 0.0000
# 3 138.0277 79.1787 120.1227 0.0000 0.0000 0.0000
# 4 0.0000 0.0000 0.0000 27.3948 0.0000 0.0000
# 5 0.0000 0.0000 0.0000 0.0000 8.5775 0.0000
# 6 0.0000 0.0000 0.0000 0.0000 0.0000 40.0325
#
#
#
# Elastic Compliance Matrix: (Units=1/GPa)
#
#
# Indices 1 2 3 4 5 6 
#
# 1 0.015961 -0.000373 -0.018095 0.000000 0.000000 0.000000
# 2 -0.000373 0.041294 -0.026790 0.000000 0.000000 0.000000
# 3 -0.018095 -0.026790 0.046775 0.000000 0.000000 0.000000
# 4 0.000000 0.000000 0.000000 0.036503 0.000000 0.000000
# 5 0.000000 0.000000 0.000000 0.000000 0.116584 0.000000
# 6 0.000000 0.000000 0.000000 0.000000 0.000000 0.024980
#
#
# Mechanical properties :
#
#
# Convention : Reuss Voigt Hill
#
# Bulk Modulus (GPa) = 73.99295 115.03412 94.51354
# Shear Modulus (GPa) = 13.25843 22.47084 17.86464
#
# Velocity S-wave (km/s) = 2.70079 3.51605 3.13503
# Velocity P-wave (km/s) = 7.10168 8.93145 8.06860
#
# Compressibility (1/GPa) = 0.01351480
#
# Stress axis : x y z
#
# Youngs Moduli (GPa) = 62.65135 24.21683 21.37872
#
# Poissons Ratio (x) = 0.00903 0.38684
# Poissons Ratio (y) = 0.02336 0.57274
# Poissons Ratio (z) = 1.13366 0.64878
#
# Static dielectric constant tensor:
#      x y z
#    x 1.588530 0.000000 0.000000 
#    y 0.000000 1.605860 0.000000 
#    z 0.000000 0.000000 1.605790 
# 
# From -- ./inp_files/74635.got.cif
#   From: 2010.05.17/outbox.cif.g08.bks.cpg/sg65_38_cif.got.tgz:74635.got - 2010.06.03 17:01:31.
