data_PCOD9491736
_publ_section_title
;
Structure prediction by ZEFSAII (Michael W. Deem and Ramdas Pophale) SiO2 
 PCOD9491736
Probable space group: C M M M
;
_chemical_formula_sum "Si O2"
_cell_formula_units_Z 64
_cell_length_a 8.779343
_cell_length_b 16.828617
_cell_length_c 22.579596
_cell_angle_alpha 90.000000
_cell_angle_beta 90.000000
_cell_angle_gamma 90.000000
_cell_volume 3336.004367
_symmetry_space_group_name_H-M "C M M M"
_symmetry_group_IT_number 65
_symmetry_cell_setting 'orthorhombic'
loop_
_space_group_symop_operation_xyz
x,y,z
-x,-y,z
x,-y,-z
-x,y,-z
-x,-y,-z
x,y,-z
-x,y,z
x,-y,z
1/2+x,1/2+y,z
1/2-x,1/2-y,z
1/2+x,1/2-y,-z
1/2-x,1/2+y,-z
1/2-x,1/2-y,-z
1/2+x,1/2+y,-z
1/2-x,1/2+y,z
1/2+x,1/2-y,z
loop_
_atom_site_type_symbol
_atom_site_label
_atom_site_fract_x
_atom_site_fract_y
_atom_site_fract_z
Si Si1 0.315878 0.661151 0.371686
Si Si2 0.814679 0.337117 0.000000
Si Si3 0.680725 0.335163 0.765391
Si Si4 0.329030 0.907103 0.123402
Si Si5 0.320322 0.000000 0.570927
O O1 0.500000 0.664529 0.377417
O O2 0.250000 0.750000 0.387703
O O3 0.273954 0.646925 0.302406
O O4 0.253630 0.582935 0.405586
O O5 0.750000 0.250000 0.000000
O O6 0.762393 0.374220 0.937794
O O7 0.000000 0.342073 0.000000
O O8 0.500000 0.331427 0.766078
O O9 0.750000 0.250000 0.780424
O O10 0.737942 0.392071 0.816765
O O11 0.500000 0.872826 0.131540
O O12 0.342067 0.000000 0.114370
O O13 0.500000 0.000000 0.586741
O O14 0.306478 0.000000 0.500000
#
# Coordination Sequence:
#
# PCOD9491736 Si02
#       5
#    16   8  16  16   8
#     4  10  22  41  65  93 127 167 209 257 310 365
#     4  10  21  37  55  75 105 144 191 238 286 346
#     4  10  21  37  58  85 116 149 191 240 290 348
#     4  10  21  36  55  80 110 148 189 235 291 348
#     4  11  25  43  65  95 129 166 209 254 303 365
#
# _framework density 19.184626000000002
#
# number of rings (size 3 to 8) (size 9 to 14) (size 15 to 20)
#    0.000    1.875    0.000    3.000    1.750    9.500 
#    0.000    0.000    0.000    2.250    0.000    0.000 
#    0.000    0.000    0.000    0.000    0.000    0.000 
#
# Total GULP energy -178406.231865 kJ/mol
# GULP energy per Si atom -5575.194746 kJ/mol
# Density = 1.914096 g / cm^3
# Si number density = 19.184626 Si / 1000 Ang^3
#
#
#
# Elastic Constant Matrix: (Units=GPa)
#
#
# Indices 1 2 3 4 5 6 
#
# 1 51.3333 45.8767 35.4656 0.0000 0.0000 0.0000
# 2 45.8767 138.1374 75.0373 0.0000 0.0000 0.0000
# 3 35.4656 75.0373 81.5276 0.0000 0.0000 0.0000
# 4 0.0000 0.0000 0.0000 46.2836 0.0000 0.0000
# 5 0.0000 0.0000 0.0000 0.0000 53.7904 0.0000
# 6 0.0000 0.0000 0.0000 0.0000 0.0000 32.2445
#
#
#
# Elastic Compliance Matrix: (Units=1/GPa)
#
#
# Indices 1 2 3 4 5 6 
#
# 1 0.029967 -0.005742 -0.007752 0.000000 0.000000 0.000000
# 2 -0.005742 0.015577 -0.011840 0.000000 0.000000 0.000000
# 3 -0.007752 -0.011840 0.026535 0.000000 0.000000 0.000000
# 4 0.000000 0.000000 0.000000 0.021606 0.000000 0.000000
# 5 0.000000 0.000000 0.000000 0.000000 0.018591 0.000000
# 6 0.000000 0.000000 0.000000 0.000000 0.000000 0.031013
#
#
# Mechanical properties :
#
#
# Convention : Reuss Voigt Hill
#
# Bulk Modulus (GPa) = 46.69865 64.86194 55.78029
# Shear Modulus (GPa) = 24.86410 34.10496 29.48453
#
# Velocity S-wave (km/s) = 3.60397 4.22088 3.92456
# Velocity P-wave (km/s) = 6.45853 7.59191 7.04804
#
# Compressibility (1/GPa) = 0.02141390
#
# Stress axis : x y z
#
# Youngs Moduli (GPa) = 33.36957 64.19559 37.68619
#
# Poissons Ratio (x) = 0.36859 0.29213
# Poissons Ratio (y) = 0.19160 0.44619
# Poissons Ratio (z) = 0.25867 0.76005
#
# Static dielectric constant tensor:
#      x y z
#    x 1.700340 0.000000 0.000000 
#    y 0.000000 1.548030 0.000000 
#    z 0.000000 0.000000 1.697310 
# 
# From -- ./inp_files/66777.got.cif
#   From: 2010.05.17/outbox.cif.g08.bks.cpg/sg65_34_cif.got.tgz:66777.got - 2010.06.03 17:01:31.
