data_PCOD9491024
_publ_section_title
;
Structure prediction by ZEFSAII (Michael W. Deem and Ramdas Pophale) SiO2 
 PCOD9491024
Probable space group: C M M M
;
_chemical_formula_sum "Si O2"
_cell_formula_units_Z 104
_cell_length_a 21.850354
_cell_length_b 28.105883
_cell_length_c 9.097780
_cell_angle_alpha 90.000000
_cell_angle_beta 90.000000
_cell_angle_gamma 90.000000
_cell_volume 5587.160432
_symmetry_space_group_name_H-M "C M M M"
_symmetry_group_IT_number 65
_symmetry_cell_setting 'orthorhombic'
loop_
_space_group_symop_operation_xyz
x,y,z
-x,-y,z
x,-y,-z
-x,y,-z
-x,-y,-z
x,y,-z
-x,y,z
x,-y,z
1/2+x,1/2+y,z
1/2-x,1/2-y,z
1/2+x,1/2-y,-z
1/2-x,1/2+y,-z
1/2-x,1/2-y,-z
1/2+x,1/2+y,-z
1/2-x,1/2+y,z
1/2+x,1/2-y,z
loop_
_atom_site_type_symbol
_atom_site_label
_atom_site_fract_x
_atom_site_fract_y
_atom_site_fract_z
Si Si1 0.163852 0.169400 0.325447
Si Si2 0.500000 0.093544 0.675261
Si Si3 0.573337 0.597962 0.826554
Si Si4 0.925612 0.000000 0.669361
Si Si5 0.866501 0.265830 0.826965
Si Si6 0.378589 0.054772 0.825018
Si Si7 0.787168 0.361009 0.825825
Si Si8 0.000000 0.696373 0.825003
O O1 0.160332 0.167374 0.500000
O O2 0.108157 0.140534 0.252701
O O3 0.160536 0.223492 0.268646
O O4 0.226263 0.146129 0.266730
O O5 0.500000 0.093060 0.500000
O O6 0.439754 0.068100 0.738215
O O7 0.500000 0.147455 0.735840
O O8 0.500000 0.602580 0.809275
O O9 0.592821 0.547917 0.753604
O O10 0.586900 0.597751 0.000000
O O11 0.905075 0.000000 0.500000
O O12 0.000000 0.000000 0.668650
O O13 0.830942 0.315282 0.803682
O O14 0.938058 0.274725 0.794799
O O15 0.860438 0.253402 0.000000
O O16 0.325247 0.091892 0.787028
O O17 0.361596 0.000000 0.799037
O O18 0.390919 0.060714 0.000000
O O19 0.772032 0.362868 0.000000
O O20 0.000000 0.684758 0.000000
#
# Coordination Sequence:
#
# PCOD9491024 Si02
#       8
#    16   8  16   8  16  16  16   8
#     4  12  26  40  58  88 126 161 196 245 308 369
#     4  12  23  35  58  93 134 168 201 249 311 370
#     4  10  21  39  63  88 115 153 203 248 289 349
#     4   9  17  33  59  89 121 151 181 230 299 356
#     4  10  21  39  65  90 117 155 202 252 300 360
#     4  10  21  40  66  92 120 161 213 263 305 356
#     4  10  21  41  65  87 116 157 207 254 299 360
#     4  10  20  39  65  92 120 158 207 254 307 362
#
# _framework density 18.614106
#
# number of rings (size 3 to 8) (size 9 to 14) (size 15 to 20)
#    0.000    1.615    1.538    3.462    1.077    6.769 
#    1.385    0.000    0.000    0.000    0.000    0.000 
#    0.000    0.000    0.000    0.000    0.000    0.000 
#
# Total GULP energy -290652.927129 kJ/mol
# GULP energy per Si atom -5589.479368 kJ/mol
# Density = 1.857174 g / cm^3
# Si number density = 18.614106 Si / 1000 Ang^3
#
#
#
# Elastic Constant Matrix: (Units=GPa)
#
#
# Indices 1 2 3 4 5 6 
#
# 1 77.7357 53.1938 69.0041 0.0000 0.0000 0.0000
# 2 53.1938 126.2577 76.6626 0.0000 0.0000 0.0000
# 3 69.0041 76.6626 109.3760 0.0000 0.0000 0.0000
# 4 0.0000 0.0000 0.0000 8.2754 0.0000 0.0000
# 5 0.0000 0.0000 0.0000 0.0000 14.3290 0.0000
# 6 0.0000 0.0000 0.0000 0.0000 0.0000 0.2457
#
#
#
# Elastic Compliance Matrix: (Units=1/GPa)
#
#
# Indices 1 2 3 4 5 6 
#
# 1 0.029516 -0.001965 -0.017244 0.000000 0.000000 0.000000
# 2 -0.001965 0.013919 -0.008516 0.000000 0.000000 0.000000
# 3 -0.017244 -0.008516 0.025991 0.000000 0.000000 0.000000
# 4 0.000000 0.000000 0.000000 0.120840 0.000000 0.000000
# 5 0.000000 0.000000 0.000000 0.000000 0.069789 0.000000
# 6 0.000000 0.000000 0.000000 0.000000 0.000000 4.070081
#
#
# Mechanical properties :
#
#
# Convention : Reuss Voigt Hill
#
# Bulk Modulus (GPa) = 71.55444 79.01006 75.28225
# Shear Modulus (GPa) = 1.13889 12.20394 6.67142
#
# Velocity S-wave (km/s) = 0.78305 2.56330 1.89522
# Velocity P-wave (km/s) = 6.27232 7.16234 6.73206
#
# Compressibility (1/GPa) = 0.01397537
#
# Stress axis : x y z
#
# Youngs Moduli (GPa) = 33.88034 71.84270 38.47493
#
# Poissons Ratio (x) = 0.14117 0.66345
# Poissons Ratio (y) = 0.06657 0.32767
# Poissons Ratio (z) = 0.58423 0.61185
#
# Static dielectric constant tensor:
#      x y z
#    x 1.624580 0.000000 0.000000 
#    y 0.000000 1.628960 0.000000 
#    z 0.000000 0.000000 1.617150 
# 
# From -- ./inp_files/12475.got.cif
#   From: 2010.05.17/outbox.cif.g08.bks.cpg/sg65_7_cif.got.tgz:12475.got - 2010.06.03 17:01:31.
