data_PCOD9491065
_publ_section_title
;
Structure prediction by ZEFSAII (Michael W. Deem and Ramdas Pophale) SiO2 
 PCOD9491065
Probable space group: C M M M
;
_chemical_formula_sum "Si O2"
_cell_formula_units_Z 64
_cell_length_a 33.982402
_cell_length_b 5.330365
_cell_length_c 17.861854
_cell_angle_alpha 90.000000
_cell_angle_beta 90.000000
_cell_angle_gamma 90.000000
_cell_volume 3235.471338
_symmetry_space_group_name_H-M "C M M M"
_symmetry_group_IT_number 65
_symmetry_cell_setting 'orthorhombic'
loop_
_space_group_symop_operation_xyz
x,y,z
-x,-y,z
x,-y,-z
-x,y,-z
-x,-y,-z
x,y,-z
-x,y,z
x,-y,z
1/2+x,1/2+y,z
1/2-x,1/2-y,z
1/2+x,1/2-y,-z
1/2-x,1/2+y,-z
1/2-x,1/2-y,-z
1/2+x,1/2+y,-z
1/2-x,1/2+y,z
1/2+x,1/2-y,z
loop_
_atom_site_type_symbol
_atom_site_label
_atom_site_fract_x
_atom_site_fract_y
_atom_site_fract_z
Si Si1 0.648800 0.500000 0.174803
Si Si2 0.931761 0.000000 0.257641
Si Si3 0.761047 0.000000 0.827899
Si Si4 0.124551 0.500000 0.912020
Si Si5 0.955719 0.500000 0.829722
Si Si6 0.146415 0.500000 0.414499
Si Si7 0.593887 0.500000 0.414711
Si Si8 0.228200 0.500000 0.663509
O O1 0.615266 0.500000 0.238584
O O2 0.693998 0.500000 0.199194
O O3 0.641728 0.249723 0.126276
O O4 0.948864 0.250311 0.219852
O O5 0.936597 0.000000 0.346624
O O6 0.750000 0.750000 0.871064
O O7 0.733948 0.000000 0.753356
O O8 0.078014 0.500000 0.892510
O O9 0.131315 0.500000 0.000000
O O10 0.000000 0.500000 0.859289
O O11 0.161843 0.500000 0.500000
O O12 0.120221 0.749284 0.405814
O O13 0.182931 0.500000 0.358704
O O14 0.578350 0.500000 0.500000
O O15 0.250000 0.750000 0.635295
#
# Coordination Sequence:
#
# PCOD9491065 Si02
#       8
#     8   8   8   8   8   8   8   8
#     4  10  21  36  57  85 115 148 197 240 276 333
#     4  10  21  35  61  86 112 161 189 231 279 330
#     4  10  21  33  51  77 107 143 191 249 286 324
#     4  10  21  39  63  90 116 151 183 217 278 341
#     4  10  21  39  61  95 125 145 177 219 276 341
#     4  10  21  34  50  73 106 148 188 241 303 349
#     4  10  21  36  56  80 111 150 197 243 285 334
#     4  10  21  32  46  71  99 143 186 235 292 347
#
# _framework density 19.780735
#
# number of rings (size 3 to 8) (size 9 to 14) (size 15 to 20)
#    0.000    2.000    0.000    3.000    7.000    0.750 
#    0.000    0.000    0.000   14.250    0.000    0.000 
#    0.000    0.000    0.000    0.000    0.000    0.000 
#
# Total GULP energy -178694.883283 kJ/mol
# GULP energy per Si atom -5584.215103 kJ/mol
# Density = 1.973571 g / cm^3
# Si number density = 19.780735 Si / 1000 Ang^3
#
#
#
# Elastic Constant Matrix: (Units=GPa)
#
#
# Indices 1 2 3 4 5 6 
#
# 1 53.7423 9.8670 -3.8570 0.0000 0.0000 0.0000
# 2 9.8670 169.0258 10.7613 0.0000 0.0000 0.0000
# 3 -3.8570 10.7613 67.7599 0.0000 0.0000 0.0000
# 4 0.0000 0.0000 0.0000 12.5905 0.0000 0.0000
# 5 0.0000 0.0000 0.0000 0.0000 9.3984 0.0000
# 6 0.0000 0.0000 0.0000 0.0000 0.0000 -48.8495
#
#
#
# Elastic Compliance Matrix: (Units=1/GPa)
#
#
# Indices 1 2 3 4 5 6 
#
# 1 0.018916 -0.001185 0.001265 0.000000 0.000000 0.000000
# 2 -0.001185 0.006051 -0.001028 0.000000 0.000000 0.000000
# 3 0.001265 -0.001028 0.014993 0.000000 0.000000 0.000000
# 4 0.000000 0.000000 0.000000 0.079425 0.000000 0.000000
# 5 0.000000 0.000000 0.000000 0.000000 0.106401 0.000000
# 6 0.000000 0.000000 0.000000 0.000000 0.000000 -0.020471
#
#
# Mechanical properties :
#
#
# Convention : Reuss Voigt Hill
#
# Bulk Modulus (GPa) = 26.27206 36.00783 31.13995
# Shear Modulus (GPa) = 22.73763 12.87831 17.80797
#
# Velocity S-wave (km/s) = 3.39408 2.55434 3.00370
# Velocity P-wave (km/s) = 5.35446 5.19062 5.27318
#
# Compressibility (1/GPa) = 0.03806325
#
# Stress axis : x y z
#
# Youngs Moduli (GPa) = 52.86636 165.26494 66.69637
#
# Poissons Ratio (x) = 0.19580 -0.08436
# Poissons Ratio (y) = 0.06263 0.06859
# Poissons Ratio (z) = -0.06687 0.16996
#
# Static dielectric constant tensor:
#      x y z
#    x 1.676260 0.000000 0.000000 
#    y 0.000000 1.800950 0.000000 
#    z 0.000000 0.000000 1.669300 
# 
# From -- ./inp_files/57778.got.cif
#   From: 2010.05.17/outbox.cif.g08.bks.cpg/sg65_29_cif.got.tgz:57778.got - 2010.06.03 17:01:31.
