data_PCOD9491705
_publ_section_title
;
Structure prediction by ZEFSAII (Michael W. Deem and Ramdas Pophale) SiO2 
 PCOD9491705
Probable space group: C M M M
;
_chemical_formula_sum "Si O2"
_cell_formula_units_Z 80
_cell_length_a 30.746108
_cell_length_b 9.265667
_cell_length_c 14.702257
_cell_angle_alpha 90.000000
_cell_angle_beta 90.000000
_cell_angle_gamma 90.000000
_cell_volume 4188.425996
_symmetry_space_group_name_H-M "C M M M"
_symmetry_group_IT_number 65
_symmetry_cell_setting 'orthorhombic'
loop_
_space_group_symop_operation_xyz
x,y,z
-x,-y,z
x,-y,-z
-x,y,-z
-x,-y,-z
x,y,-z
-x,y,z
x,-y,z
1/2+x,1/2+y,z
1/2-x,1/2-y,z
1/2+x,1/2-y,-z
1/2-x,1/2+y,-z
1/2-x,1/2-y,-z
1/2+x,1/2+y,-z
1/2-x,1/2+y,z
1/2+x,1/2-y,z
loop_
_atom_site_type_symbol
_atom_site_label
_atom_site_fract_x
_atom_site_fract_y
_atom_site_fract_z
Si Si1 0.119162 0.168111 0.609513
Si Si2 0.611745 0.824378 0.103814
Si Si3 0.793277 0.666045 0.610810
Si Si4 0.707449 0.834131 0.889144
Si Si5 0.050906 0.326337 0.731008
O O1 0.116692 0.175879 0.500000
O O2 0.162975 0.251599 0.638267
O O3 0.077911 0.245592 0.653623
O O4 0.121424 0.000000 0.635212
O O5 0.659751 0.775061 0.135699
O O6 0.574241 0.785756 0.174083
O O7 0.614131 0.000000 0.101585
O O8 0.603965 0.776506 0.000000
O O9 0.792774 0.665150 0.500000
O O10 0.793570 0.500000 0.640779
O O11 0.750000 0.750000 0.639914
O O12 0.750000 0.750000 0.858302
O O13 0.710697 0.000000 0.860310
O O14 0.707382 0.832872 0.000000
O O15 0.055219 0.500000 0.719924
O O16 0.000000 0.291171 0.730689
#
# Coordination Sequence:
#
# PCOD9491705 Si02
#       5
#    16  16  16  16  16
#     4  10  21  37  56  77 104 141 182 221 265 318
#     4   8  15  30  52  77 105 136 169 208 258 316
#     4   9  16  28  50  80 112 143 175 213 258 310
#     4   8  13  23  42  68  98 131 164 198 238 288
#     4  10  21  36  55  79 104 132 172 225 280 328
#
# _framework density 19.100252999999999
#
# number of rings (size 3 to 8) (size 9 to 14) (size 15 to 20)
#    0.000    3.000    0.000    2.400    0.000    4.800 
#    0.000    6.000    0.000    4.200    0.000    1.400 
#    0.000    0.000    0.000    0.000    0.000    0.000 
#
# Total GULP energy -223175.291354 kJ/mol
# GULP energy per Si atom -5579.382284 kJ/mol
# Density = 1.905678 g / cm^3
# Si number density = 19.100253 Si / 1000 Ang^3
#
#
#
# Elastic Constant Matrix: (Units=GPa)
#
#
# Indices 1 2 3 4 5 6 
#
# 1 209.3032 93.9508 47.6677 0.0000 0.0000 0.0000
# 2 93.9508 88.4468 32.9456 0.0000 0.0000 0.0000
# 3 47.6677 32.9456 64.0576 0.0000 0.0000 0.0000
# 4 0.0000 0.0000 0.0000 8.2736 0.0000 0.0000
# 5 0.0000 0.0000 0.0000 0.0000 38.9545 0.0000
# 6 0.0000 0.0000 0.0000 0.0000 0.0000 30.8365
#
#
#
# Elastic Compliance Matrix: (Units=1/GPa)
#
#
# Indices 1 2 3 4 5 6 
#
# 1 0.009398 -0.009126 -0.002300 0.000000 0.000000 0.000000
# 2 -0.009126 0.022848 -0.004960 0.000000 0.000000 0.000000
# 3 -0.002300 -0.004960 0.019873 0.000000 0.000000 0.000000
# 4 0.000000 0.000000 0.000000 0.120866 0.000000 0.000000
# 5 0.000000 0.000000 0.000000 0.000000 0.025671 0.000000
# 6 0.000000 0.000000 0.000000 0.000000 0.000000 0.032429
#
#
# Mechanical properties :
#
#
# Convention : Reuss Voigt Hill
#
# Bulk Modulus (GPa) = 51.68595 78.99285 65.33940
# Shear Modulus (GPa) = 18.49757 28.09584 23.29670
#
# Velocity S-wave (km/s) = 3.11536 3.83948 3.49622
# Velocity P-wave (km/s) = 6.32928 7.81679 7.11203
#
# Compressibility (1/GPa) = 0.01934762
#
# Stress axis : x y z
#
# Youngs Moduli (GPa) = 106.40518 43.76773 50.31925
#
# Poissons Ratio (x) = 0.39944 0.11572
# Poissons Ratio (y) = 0.97108 0.24957
# Poissons Ratio (z) = 0.24470 0.21708
#
# Static dielectric constant tensor:
#      x y z
#    x 1.639770 0.000000 0.000000 
#    y 0.000000 1.639560 0.000000 
#    z 0.000000 0.000000 1.709800 
# 
# From -- ./inp_files/57235.got.cif
#   From: 2010.05.17/outbox.cif.g08.bks.cpg/sg65_29_cif.got.tgz:57235.got - 2010.06.03 17:01:31.
