data_PCOD9491664
_publ_section_title
;
Structure prediction by ZEFSAII (Michael W. Deem and Ramdas Pophale) SiO2 
 PCOD9491664
Probable space group: C M M M
;
_chemical_formula_sum "Si O2"
_cell_formula_units_Z 72
_cell_length_a 8.819356
_cell_length_b 15.498025
_cell_length_c 27.243793
_cell_angle_alpha 90.000000
_cell_angle_beta 90.000000
_cell_angle_gamma 90.000000
_cell_volume 3723.752455
_symmetry_space_group_name_H-M "C M M M"
_symmetry_group_IT_number 65
_symmetry_cell_setting 'orthorhombic'
loop_
_space_group_symop_operation_xyz
x,y,z
-x,-y,z
x,-y,-z
-x,y,-z
-x,-y,-z
x,y,-z
-x,y,z
x,-y,z
1/2+x,1/2+y,z
1/2-x,1/2-y,z
1/2+x,1/2-y,-z
1/2-x,1/2+y,-z
1/2-x,1/2-y,-z
1/2+x,1/2+y,-z
1/2-x,1/2+y,z
1/2+x,1/2-y,z
loop_
_atom_site_type_symbol
_atom_site_label
_atom_site_fract_x
_atom_site_fract_y
_atom_site_fract_z
Si Si1 0.327342 0.099952 0.847490
Si Si2 0.180828 0.154298 0.946621
Si Si3 0.682546 0.152090 0.500000
Si Si4 0.816866 0.339490 0.257180
Si Si5 0.181450 0.000000 0.315914
Si Si6 0.183408 0.500000 0.575859
O O1 0.500000 0.129137 0.857246
O O2 0.237428 0.108458 0.897806
O O3 0.267805 0.149380 0.799900
O O4 0.331314 0.000000 0.832772
O O5 0.250000 0.250000 0.944952
O O6 0.000000 0.159058 0.945442
O O7 0.225384 0.116002 0.000000
O O8 0.500000 0.161472 0.500000
O O9 0.750000 0.250000 0.500000
O O10 0.722376 0.087981 0.545699
O O11 0.750000 0.250000 0.275882
O O12 0.750129 0.417186 0.288514
O O13 0.000000 0.341343 0.258290
O O14 0.235938 0.000000 0.372023
O O15 0.000000 0.000000 0.312586
O O16 0.000000 0.500000 0.581259
#
# Coordination Sequence:
#
# PCOD9491664 Si02
#       6
#    16  16   8  16   8   8
#     4  10  21  38  59  83 111 146 189 239 298 360
#     4  10  21  36  54  78 108 143 184 233 290 354
#     4   9  19  37  64  94 126 169 215 255 307 362
#     4  11  23  42  64  89 121 159 204 257 312 371
#     4  12  25  41  63  94 127 167 214 259 312 368
#     4   9  20  40  62  88 128 173 209 255 312 363
#
# _framework density 19.335336000000002
#
# number of rings (size 3 to 8) (size 9 to 14) (size 15 to 20)
#    0.000    1.778    1.111    3.667    0.000    7.556 
#    0.000    5.556    0.000    0.000    0.000    0.000 
#    0.000    0.000    0.000    0.000    0.000    0.000 
#
# Total GULP energy -200925.774557 kJ/mol
# GULP energy per Si atom -5581.271515 kJ/mol
# Density = 1.929133 g / cm^3
# Si number density = 19.335336 Si / 1000 Ang^3
#
#
#
# Elastic Constant Matrix: (Units=GPa)
#
#
# Indices 1 2 3 4 5 6 
#
# 1 65.9036 40.8475 57.3982 0.0000 0.0000 0.0000
# 2 40.8475 150.2221 70.3055 0.0000 0.0000 0.0000
# 3 57.3982 70.3055 141.5738 0.0000 0.0000 0.0000
# 4 0.0000 0.0000 0.0000 -4.4238 0.0000 0.0000
# 5 0.0000 0.0000 0.0000 0.0000 19.0895 0.0000
# 6 0.0000 0.0000 0.0000 0.0000 0.0000 32.5677
#
#
#
# Elastic Compliance Matrix: (Units=1/GPa)
#
#
# Indices 1 2 3 4 5 6 
#
# 1 0.024206 -0.002591 -0.008527 0.000000 0.000000 0.000000
# 2 -0.002591 0.008950 -0.003394 0.000000 0.000000 0.000000
# 3 -0.008527 -0.003394 0.012206 0.000000 0.000000 0.000000
# 4 0.000000 0.000000 0.000000 -0.226051 0.000000 0.000000
# 5 0.000000 0.000000 0.000000 0.000000 0.052385 0.000000
# 6 0.000000 0.000000 0.000000 0.000000 0.000000 0.030705
#
#
# Mechanical properties :
#
#
# Convention : Reuss Voigt Hill
#
# Bulk Modulus (GPa) = 61.20858 77.20022 69.20440
# Shear Modulus (GPa) = -79.20339 22.05657 -28.57341
#
# Velocity S-wave (km/s) = -6.40718 3.38115 -3.84836
# Velocity P-wave (km/s) = 4.79697 7.43348 4.01533
#
# Compressibility (1/GPa) = 0.01633758
#
# Stress axis : x y z
#
# Youngs Moduli (GPa) = 41.31139 111.73450 81.92680
#
# Poissons Ratio (x) = 0.28953 0.69860
# Poissons Ratio (y) = 0.10705 0.27805
# Poissons Ratio (z) = 0.35227 0.37921
#
# Static dielectric constant tensor:
#      x y z
#    x 1.657050 0.000000 0.000000 
#    y 0.000000 1.641370 0.000000 
#    z 0.000000 0.000000 1.682330 
# 
# From -- ./inp_files/72618.got.cif
#   From: 2010.05.17/outbox.cif.g08.bks.cpg/sg65_37_cif.got.tgz:72618.got - 2010.06.03 17:01:31.
