data_PCOD9491825
_publ_section_title
;
Structure prediction by ZEFSAII (Michael W. Deem and Ramdas Pophale) SiO2 
 PCOD9491825
Probable space group: C M M M
;
_chemical_formula_sum "Si O2"
_cell_formula_units_Z 90
_cell_length_a 20.446926
_cell_length_b 25.990150
_cell_length_c 9.112193
_cell_angle_alpha 90.000000
_cell_angle_beta 90.000000
_cell_angle_gamma 90.000000
_cell_volume 4842.389519
_symmetry_space_group_name_H-M "C M M M"
_symmetry_group_IT_number 65
_symmetry_cell_setting 'orthorhombic'
loop_
_space_group_symop_operation_xyz
x,y,z
-x,-y,z
x,-y,-z
-x,y,-z
-x,-y,-z
x,y,-z
-x,y,z
x,-y,z
1/2+x,1/2+y,z
1/2-x,1/2-y,z
1/2+x,1/2-y,-z
1/2-x,1/2+y,-z
1/2-x,1/2-y,-z
1/2+x,1/2+y,-z
1/2-x,1/2+y,z
1/2+x,1/2-y,z
loop_
_atom_site_type_symbol
_atom_site_label
_atom_site_fract_x
_atom_site_fract_y
_atom_site_fract_z
Si Si1 0.369012 0.862670 0.675293
Si Si2 0.500000 0.000000 0.000000
Si Si3 0.500000 0.105781 0.838250
Si Si4 0.773106 0.441344 0.173463
Si Si5 0.324888 0.748376 0.321762
Si Si6 0.883788 0.057899 0.174046
Si Si7 0.573505 0.661709 0.676787
O O1 0.372328 0.866733 0.500000
O O2 0.435800 0.879905 0.749627
O O3 0.311311 0.899059 0.734953
O O4 0.355807 0.803347 0.714024
O O5 0.500000 0.954502 0.124776
O O6 0.500000 0.131625 0.000000
O O7 0.792909 0.500000 0.212448
O O8 0.694931 0.437880 0.192276
O O9 0.787557 0.434602 0.000000
O O10 0.322645 0.744381 0.500000
O O11 0.250000 0.750000 0.268861
O O12 0.370194 0.701128 0.270701
O O13 0.915865 0.105108 0.257871
O O14 0.903096 0.000000 0.221736
O O15 0.897443 0.061762 0.000000
O O16 0.577813 0.658826 0.500000
O O17 0.500000 0.680071 0.713603
#
# Coordination Sequence:
#
# PCOD9491825 Si02
#       7
#    16   2   8  16  16  16  16
#     4  11  22  35  58  88 113 143 193 246 290 339
#     4   8  24  44  62  72 108 172 206 220 288 380
#     4  10  23  41  59  77 111 158 199 232 290 354
#     4   9  19  35  56  79 111 151 186 224 284 351
#     4   9  19  36  58  83 114 150 186 229 288 350
#     4   9  19  37  58  82 112 149 188 229 280 337
#     4  10  21  36  57  82 111 149 187 230 285 343
#
# _framework density 18.585864000000001
#
# number of rings (size 3 to 8) (size 9 to 14) (size 15 to 20)
#    0.267    2.133    0.000    2.933    2.489    3.556 
#    0.000    5.778    0.000    4.800    0.000    0.000 
#    0.000    0.000    0.000    0.000    0.000    0.000 
#
# Total GULP energy -250779.349487 kJ/mol
# GULP energy per Si atom -5572.874433 kJ/mol
# Density = 1.854356 g / cm^3
# Si number density = 18.585864 Si / 1000 Ang^3
#
#
#
# Elastic Constant Matrix: (Units=GPa)
#
#
# Indices 1 2 3 4 5 6 
#
# 1 94.1401 71.2006 30.4675 0.0000 0.0000 0.0000
# 2 71.2006 138.5908 38.1980 0.0000 0.0000 0.0000
# 3 30.4675 38.1980 32.2575 0.0000 0.0000 0.0000
# 4 0.0000 0.0000 0.0000 70.4225 0.0000 0.0000
# 5 0.0000 0.0000 0.0000 0.0000 -471.7643 0.0000
# 6 0.0000 0.0000 0.0000 0.0000 0.0000 0.9991
#
#
#
# Elastic Compliance Matrix: (Units=1/GPa)
#
#
# Indices 1 2 3 4 5 6 
#
# 1 0.019175 -0.007214 -0.009569 0.000000 0.000000 0.000000
# 2 -0.007214 0.013425 -0.009084 0.000000 0.000000 0.000000
# 3 -0.009569 -0.009084 0.050796 0.000000 0.000000 0.000000
# 4 0.000000 0.000000 0.000000 0.014200 0.000000 0.000000
# 5 0.000000 0.000000 0.000000 0.000000 -0.002120 0.000000
# 6 0.000000 0.000000 0.000000 0.000000 0.000000 1.000877
#
#
# Mechanical properties :
#
#
# Convention : Reuss Voigt Hill
#
# Bulk Modulus (GPa) = 31.58326 60.52451 46.05389
# Shear Modulus (GPa) = 4.31540 -71.72707 -33.70584
#
# Velocity S-wave (km/s) = 1.52542 -6.21901 -4.26316
# Velocity P-wave (km/s) = 4.48694 4.35116 0.77461
#
# Compressibility (1/GPa) = 0.03166234
#
# Stress axis : x y z
#
# Youngs Moduli (GPa) = 52.14988 74.48574 19.68678
#
# Poissons Ratio (x) = 0.53734 0.18838
# Poissons Ratio (y) = 0.37621 0.17884
# Poissons Ratio (z) = 0.49902 0.67664
#
# Static dielectric constant tensor:
#      x y z
#    x 1.650290 0.000000 0.000000 
#    y 0.000000 1.617010 0.000000 
#    z 0.000000 0.000000 1.616950 
# 
# From -- ./inp_files/26879.got.cif
#   From: 2010.05.17/outbox.cif.g08.bks.cpg/sg65_14_cif.got.tgz:26879.got - 2010.06.03 17:01:31.
