data_PCOD9491905
_publ_section_title
;
Structure prediction by ZEFSAII (Michael W. Deem and Ramdas Pophale) SiO2 
 PCOD9491905
Probable space group: C M M M
;
_chemical_formula_sum "Si O2"
_cell_formula_units_Z 104
_cell_length_a 13.906410
_cell_length_b 21.835203
_cell_length_c 17.227620
_cell_angle_alpha 90.000000
_cell_angle_beta 90.000000
_cell_angle_gamma 90.000000
_cell_volume 5231.154501
_symmetry_space_group_name_H-M "C M M M"
_symmetry_group_IT_number 65
_symmetry_cell_setting 'orthorhombic'
loop_
_space_group_symop_operation_xyz
x,y,z
-x,-y,z
x,-y,-z
-x,y,-z
-x,-y,-z
x,y,-z
-x,y,z
x,-y,z
1/2+x,1/2+y,z
1/2-x,1/2-y,z
1/2+x,1/2-y,-z
1/2-x,1/2+y,-z
1/2-x,1/2-y,-z
1/2+x,1/2+y,-z
1/2-x,1/2+y,z
1/2+x,1/2-y,z
loop_
_atom_site_type_symbol
_atom_site_label
_atom_site_fract_x
_atom_site_fract_y
_atom_site_fract_z
Si Si1 0.609523 0.072035 0.593268
Si Si2 0.204412 0.069299 0.160755
Si Si3 0.887776 0.925737 0.000000
Si Si4 0.384947 0.255419 0.915883
Si Si5 0.609427 0.109309 0.089106
Si Si6 0.115075 0.756326 0.256254
Si Si7 0.750751 0.649031 0.697484
O O1 0.613947 0.077217 0.500000
O O2 0.500000 0.090969 0.616804
O O3 0.694707 0.110765 0.631908
O O4 0.619765 0.000000 0.613206
O O5 0.316906 0.072512 0.140287
O O6 0.199202 0.104401 0.241198
O O7 0.169407 0.000000 0.169480
O O8 0.155800 0.095828 0.082079
O O9 0.000000 0.911848 0.000000
O O10 0.874010 0.000000 0.000000
O O11 0.500000 0.263445 0.918244
O O12 0.367863 0.182002 0.912581
O O13 0.355528 0.278637 0.831115
O O14 0.347953 0.277892 0.000000
O O15 0.500000 0.103046 0.115258
O O16 0.616776 0.087838 0.000000
O O17 0.163087 0.689939 0.265663
O O18 0.167400 0.800693 0.317838
O O19 0.000000 0.755087 0.261920
#
# Coordination Sequence:
#
# PCOD9491905 Si02
#       7
#    16  16   8  16  16  16  16
#     4   9  19  39  69 101 128 153 183 225 285 361
#     4  11  21  33  51  76 106 143 191 243 295 351
#     4   9  20  38  53  66  99 155 210 256 296 341
#     4   8  14  28  49  68  97 147 201 246 285 330
#     4   9  16  27  45  70 103 139 173 223 289 351
#     4  10  21  37  54  79 118 161 202 244 296 349
#     4  11  22  36  57  87 117 152 192 245 296 346
#
# _framework density 19.880887999999999
#
# number of rings (size 3 to 8) (size 9 to 14) (size 15 to 20)
#    0.000    2.385    2.308    2.308    0.000    1.538 
#    1.385    3.077    0.000    2.769    0.000    1.077 
#    0.000    0.000    0.000    0.000    0.000    0.000 
#
# Total GULP energy -289987.186380 kJ/mol
# GULP energy per Si atom -5576.676661 kJ/mol
# Density = 1.983564 g / cm^3
# Si number density = 19.880888 Si / 1000 Ang^3
#
#
#
# Elastic Constant Matrix: (Units=GPa)
#
#
# Indices 1 2 3 4 5 6 
#
# 1 75.8175 3.8543 15.6760 0.0000 0.0000 0.0000
# 2 3.8543 44.5657 24.2171 0.0000 0.0000 0.0000
# 3 15.6760 24.2171 44.6450 0.0000 0.0000 0.0000
# 4 0.0000 0.0000 0.0000 27.3498 0.0000 0.0000
# 5 0.0000 0.0000 0.0000 0.0000 24.2509 0.0000
# 6 0.0000 0.0000 0.0000 0.0000 0.0000 23.1210
#
#
#
# Elastic Compliance Matrix: (Units=1/GPa)
#
#
# Indices 1 2 3 4 5 6 
#
# 1 0.014363 0.002124 -0.006195 0.000000 0.000000 0.000000
# 2 0.002124 0.032132 -0.018175 0.000000 0.000000 0.000000
# 3 -0.006195 -0.018175 0.034433 0.000000 0.000000 0.000000
# 4 0.000000 0.000000 0.000000 0.036563 0.000000 0.000000
# 5 0.000000 0.000000 0.000000 0.000000 0.041236 0.000000
# 6 0.000000 0.000000 0.000000 0.000000 0.000000 0.043251
#
#
# Mechanical properties :
#
#
# Convention : Reuss Voigt Hill
#
# Bulk Modulus (GPa) = 27.44630 28.05811 27.75221
# Shear Modulus (GPa) = 19.33380 23.02972 21.18176
#
# Velocity S-wave (km/s) = 3.12185 3.40720 3.26764
# Velocity P-wave (km/s) = 5.17976 5.44265 5.31283
#
# Compressibility (1/GPa) = 0.03643478
#
# Stress axis : x y z
#
# Youngs Moduli (GPa) = 69.62556 31.12210 29.04166
#
# Poissons Ratio (x) = -0.06612 0.17993
# Poissons Ratio (y) = -0.14792 0.52784
# Poissons Ratio (z) = 0.43136 0.56565
#
# Static dielectric constant tensor:
#      x y z
#    x 1.701050 0.000000 0.000000 
#    y 0.000000 1.771900 0.000000 
#    z 0.000000 0.000000 1.715550 
# 
# From -- ./inp_files/53508.got.cif
#   From: 2010.05.17/outbox.cif.g08.bks.cpg/sg65_27_cif.got.tgz:53508.got - 2010.06.03 17:01:31.
