data_PCOD9491888
_publ_section_title
;
Structure prediction by ZEFSAII (Michael W. Deem and Ramdas Pophale) SiO2 
 PCOD9491888
Probable space group: C M M M
;
_chemical_formula_sum "Si O2"
_cell_formula_units_Z 68
_cell_length_a 13.454477
_cell_length_b 13.408370
_cell_length_c 18.557689
_cell_angle_alpha 90.000000
_cell_angle_beta 90.000000
_cell_angle_gamma 90.000000
_cell_volume 3347.855453
_symmetry_space_group_name_H-M "C M M M"
_symmetry_group_IT_number 65
_symmetry_cell_setting 'orthorhombic'
loop_
_space_group_symop_operation_xyz
x,y,z
-x,-y,z
x,-y,-z
-x,y,-z
-x,-y,-z
x,y,-z
-x,y,z
x,-y,z
1/2+x,1/2+y,z
1/2-x,1/2-y,z
1/2+x,1/2-y,-z
1/2-x,1/2+y,-z
1/2-x,1/2-y,-z
1/2+x,1/2+y,-z
1/2-x,1/2+y,z
1/2+x,1/2-y,z
loop_
_atom_site_type_symbol
_atom_site_label
_atom_site_fract_x
_atom_site_fract_y
_atom_site_fract_z
Si Si1 0.000000 0.244820 0.500000
Si Si2 0.216223 0.619427 0.344010
Si Si3 0.797537 0.880709 0.500000
Si Si4 0.620596 0.383097 0.077456
Si Si5 0.385231 0.377522 0.235533
Si Si6 0.000000 0.380226 0.358513
O O1 0.902364 0.175446 0.500000
O O2 0.000000 0.316002 0.569107
O O3 0.222047 0.500000 0.339836
O O4 0.236061 0.643178 0.427771
O O5 0.307418 0.655415 0.295686
O O6 0.104169 0.643387 0.320398
O O7 0.815704 0.000000 0.500000
O O8 0.500000 0.381369 0.077978
O O9 0.649694 0.500000 0.076806
O O10 0.648224 0.342016 0.155825
O O11 0.652867 0.339365 0.000000
O O12 0.500000 0.349213 0.249876
O O13 0.385507 0.500000 0.233409
O O14 0.000000 0.500000 0.374517
#
# Coordination Sequence:
#
# PCOD9491888 Si02
#       6
#     4  16   8  16  16   8
#     4  12  24  36  56  76  96 126 154 206 248 294
#     4   9  18  32  49  67  92 125 163 203 237 282
#     4  10  22  36  52  76 100 123 154 196 249 299
#     4   7   9  14  26  49  83 118 150 185 230 288
#     4   8  13  21  37  61  87 120 158 195 244 293
#     4  10  21  37  53  70  92 127 171 206 237 273
#
# _framework density 20.311510999999999
#
# number of rings (size 3 to 8) (size 9 to 14) (size 15 to 20)
#    0.000    3.294    0.000    3.176    1.647    3.765 
#    0.000    0.000    0.000    0.000    0.000    0.824 
#    0.000    6.588    0.000    6.353    0.000   15.529 
#
# Total GULP energy -189533.215785 kJ/mol
# GULP energy per Si atom -5574.506347 kJ/mol
# Density = 2.026528 g / cm^3
# Si number density = 20.311511 Si / 1000 Ang^3
#
#
#
# Elastic Constant Matrix: (Units=GPa)
#
#
# Indices 1 2 3 4 5 6 
#
# 1 147.1580 27.2662 77.6130 0.0000 0.0000 0.0000
# 2 27.2662 80.8497 -8.3601 0.0000 0.0000 0.0000
# 3 77.6130 -8.3601 150.9516 0.0000 0.0000 0.0000
# 4 0.0000 0.0000 0.0000 -16.3026 0.0000 0.0000
# 5 0.0000 0.0000 0.0000 0.0000 -130.2490 0.0000
# 6 0.0000 0.0000 0.0000 0.0000 0.0000 26.7277
#
#
#
# Elastic Compliance Matrix: (Units=1/GPa)
#
#
# Indices 1 2 3 4 5 6 
#
# 1 0.010542 -0.004139 -0.005650 0.000000 0.000000 0.000000
# 2 -0.004139 0.014065 0.002907 0.000000 0.000000 0.000000
# 3 -0.005650 0.002907 0.009690 0.000000 0.000000 0.000000
# 4 0.000000 0.000000 0.000000 -0.061340 0.000000 0.000000
# 5 0.000000 0.000000 0.000000 0.000000 -0.007678 0.000000
# 6 0.000000 0.000000 0.000000 0.000000 0.000000 0.037414
#
#
# Mechanical properties :
#
#
# Convention : Reuss Voigt Hill
#
# Bulk Modulus (GPa) = 48.69887 63.55529 56.12708
# Shear Modulus (GPa) = 214.56970 -5.13542 104.71714
#
# Velocity S-wave (km/s) = 10.28926 -1.59180 7.18801
# Velocity P-wave (km/s) = 12.85249 5.28959 9.82767
#
# Compressibility (1/GPa) = 0.02053436
#
# Stress axis : x y z
#
# Youngs Moduli (GPa) = 94.85859 71.09725 103.19499
#
# Poissons Ratio (x) = 0.29430 0.58300
# Poissons Ratio (y) = 0.39266 -0.30002
# Poissons Ratio (z) = 0.53590 -0.20670
#
# Static dielectric constant tensor:
#      x y z
#    x 1.706390 0.000000 0.000000 
#    y 0.000000 1.723930 0.000000 
#    z 0.000000 0.000000 1.757590 
# 
# From -- ./inp_files/61242.got.cif
#   From: 2010.05.17/outbox.cif.g08.bks.cpg/sg65_31_cif.got.tgz:61242.got - 2010.06.03 17:01:31.
