data_PCOD9491040
_publ_section_title
;
Structure prediction by ZEFSAII (Michael W. Deem and Ramdas Pophale) SiO2 
 PCOD9491040
Probable space group: C M M M
;
_chemical_formula_sum "Si O2"
_cell_formula_units_Z 76
_cell_length_a 27.930811
_cell_length_b 17.600838
_cell_length_c 7.659711
_cell_angle_alpha 90.000000
_cell_angle_beta 90.000000
_cell_angle_gamma 90.000000
_cell_volume 3765.557432
_symmetry_space_group_name_H-M "C M M M"
_symmetry_group_IT_number 65
_symmetry_cell_setting 'orthorhombic'
loop_
_space_group_symop_operation_xyz
x,y,z
-x,-y,z
x,-y,-z
-x,y,-z
-x,-y,-z
x,y,-z
-x,y,z
x,-y,z
1/2+x,1/2+y,z
1/2-x,1/2-y,z
1/2+x,1/2-y,-z
1/2-x,1/2+y,-z
1/2-x,1/2-y,-z
1/2+x,1/2+y,-z
1/2-x,1/2+y,z
1/2+x,1/2-y,z
loop_
_atom_site_type_symbol
_atom_site_label
_atom_site_fract_x
_atom_site_fract_y
_atom_site_fract_z
Si Si1 0.829163 0.000000 0.000000
Si Si2 0.145938 0.739019 0.793581
Si Si3 0.191064 0.585442 0.212317
Si Si4 0.058088 0.000000 0.301038
Si Si5 0.445341 0.665617 0.711355
Si Si6 0.300818 0.614015 0.693880
O O1 0.824512 0.934572 0.153479
O O2 0.156025 0.653321 0.733257
O O3 0.093026 0.771390 0.759852
O O4 0.182610 0.799046 0.711430
O O5 0.154468 0.740296 0.000000
O O6 0.177529 0.500000 0.266542
O O7 0.244049 0.603774 0.281173
O O8 0.194330 0.584842 0.000000
O O9 0.069872 0.918389 0.219795
O O10 0.075909 0.000000 0.500000
O O11 0.000000 0.000000 0.308202
O O12 0.446027 0.659459 0.500000
O O13 0.500000 0.680866 0.767718
O O14 0.314639 0.588482 0.500000
#
# Coordination Sequence:
#
# PCOD9491040 Si02
#       6
#     4  16  16   8  16  16
#     4  12  22  42  58  90 127 160 205 250 288 356
#     4  11  23  37  57  87 122 156 196 254 306 361
#     4  10  20  40  62  83 117 157 199 251 307 359
#     4   7  12  27  51  73  97 136 182 229 281 335
#     4   9  18  35  57  81 112 151 199 250 297 355
#     4  12  23  39  63  87 121 165 202 246 299 354
#
# _framework density 20.182935000000001
#
# number of rings (size 3 to 8) (size 9 to 14) (size 15 to 20)
#    0.000    1.789    3.158    2.842    0.000    5.474 
#    0.000    2.105    0.000    2.526    0.000    4.421 
#    0.000    0.000    0.000    0.000    0.000    0.000 
#
# Total GULP energy -211811.416672 kJ/mol
# GULP energy per Si atom -5573.984649 kJ/mol
# Density = 2.013700 g / cm^3
# Si number density = 20.182935 Si / 1000 Ang^3
#
#
#
# Elastic Constant Matrix: (Units=GPa)
#
#
# Indices 1 2 3 4 5 6 
#
# 1 101.3941 90.7771 12.5483 0.0000 0.0000 0.0000
# 2 90.7771 210.2642 34.7976 0.0000 0.0000 0.0000
# 3 12.5483 34.7976 103.8275 0.0000 0.0000 0.0000
# 4 0.0000 0.0000 0.0000 134.3748 0.0000 0.0000
# 5 0.0000 0.0000 0.0000 0.0000 18.9832 0.0000
# 6 0.0000 0.0000 0.0000 0.0000 0.0000 18.8241
#
#
#
# Elastic Compliance Matrix: (Units=1/GPa)
#
#
# Indices 1 2 3 4 5 6 
#
# 1 0.016093 -0.007015 0.000406 0.000000 0.000000 0.000000
# 2 -0.007015 0.008093 -0.001865 0.000000 0.000000 0.000000
# 3 0.000406 -0.001865 0.010207 0.000000 0.000000 0.000000
# 4 0.000000 0.000000 0.000000 0.007442 0.000000 0.000000
# 5 0.000000 0.000000 0.000000 0.000000 0.052678 0.000000
# 6 0.000000 0.000000 0.000000 0.000000 0.000000 0.053123
#
#
# Mechanical properties :
#
#
# Convention : Reuss Voigt Hill
#
# Bulk Modulus (GPa) = 57.31917 76.85908 67.08913
# Shear Modulus (GPa) = 29.34304 52.92728 41.13516
#
# Velocity S-wave (km/s) = 3.81708 5.12647 4.51945
# Velocity P-wave (km/s) = 6.92014 8.55598 7.78117
#
# Compressibility (1/GPa) = 0.01744617
#
# Stress axis : x y z
#
# Youngs Moduli (GPa) = 62.14057 123.56365 97.97026
#
# Poissons Ratio (x) = 0.86678 -0.03979
# Poissons Ratio (y) = 0.43591 0.18267
# Poissons Ratio (z) = -0.02524 0.23039
#
# Static dielectric constant tensor:
#      x y z
#    x 1.723540 0.000000 0.000000 
#    y 0.000000 1.732500 0.000000 
#    z 0.000000 0.000000 1.764680 
# 
# From -- ./inp_files/18217.got.cif
#   From: 2010.05.17/outbox.cif.g08.bks.cpg/sg65_10_cif.got.tgz:18217.got - 2010.06.03 17:01:31.
