data_PCOD9491740
_publ_section_title
;
Structure prediction by ZEFSAII (Michael W. Deem and Ramdas Pophale) SiO2 
 PCOD9491740
Probable space group: C M M M
;
_chemical_formula_sum "Si O2"
_cell_formula_units_Z 100
_cell_length_a 21.121659
_cell_length_b 7.836409
_cell_length_c 30.166045
_cell_angle_alpha 90.000000
_cell_angle_beta 90.000000
_cell_angle_gamma 90.000000
_cell_volume 4993.022190
_symmetry_space_group_name_H-M "C M M M"
_symmetry_group_IT_number 65
_symmetry_cell_setting 'orthorhombic'
loop_
_space_group_symop_operation_xyz
x,y,z
-x,-y,z
x,-y,-z
-x,y,-z
-x,-y,-z
x,y,-z
-x,y,z
x,-y,z
1/2+x,1/2+y,z
1/2-x,1/2-y,z
1/2+x,1/2-y,-z
1/2-x,1/2+y,-z
1/2-x,1/2-y,-z
1/2+x,1/2+y,-z
1/2-x,1/2+y,z
1/2+x,1/2-y,z
loop_
_atom_site_type_symbol
_atom_site_label
_atom_site_fract_x
_atom_site_fract_y
_atom_site_fract_z
Si Si1 0.101652 0.698537 0.635187
Si Si2 0.820788 0.797624 0.950080
Si Si3 0.500000 0.500000 0.346280
Si Si4 0.929974 0.704562 0.118044
Si Si5 0.681037 0.696761 0.712759
Si Si6 0.571665 0.792971 0.219773
Si Si7 0.177967 0.704471 0.450197
O O1 0.077961 0.500000 0.633421
O O2 0.054343 0.845559 0.651708
O O3 0.159949 0.699493 0.669579
O O4 0.127796 0.753935 0.587072
O O5 0.750000 0.750000 0.935202
O O6 0.874895 0.746801 0.915943
O O7 0.822855 0.000000 0.953394
O O8 0.830093 0.725092 0.000000
O O9 0.933134 0.500000 0.120329
O O10 0.918696 0.762021 0.168681
O O11 0.000000 0.767291 0.104130
O O12 0.684124 0.500000 0.700439
O O13 0.750000 0.750000 0.729654
O O14 0.626333 0.724016 0.749085
O O15 0.500000 0.740643 0.233279
O O16 0.573453 0.000000 0.221646
O O17 0.165913 0.772300 0.500000
O O18 0.174848 0.500000 0.452116
O O19 0.250000 0.750000 0.437951
#
# Coordination Sequence:
#
# PCOD9491740 Si02
#       7
#    16  16   4  16  16  16  16
#     4  11  24  43  65  92 130 164 208 266 311 366
#     4  10  21  36  55  80 111 149 193 241 295 354
#     4  12  26  44  65  96 124 172 218 244 311 402
#     4   9  19  37  59  84 115 151 194 240 292 356
#     4  12  25  41  62  92 124 159 207 255 307 370
#     4   9  20  39  62  87 117 156 197 242 300 360
#     4   9  19  36  62  93 124 163 208 258 318 373
#
# _framework density 20.027949
#
# number of rings (size 3 to 8) (size 9 to 14) (size 15 to 20)
#    0.000    1.920    0.800    3.600    2.240    4.480 
#    0.000    4.000    0.000    1.920    0.000    0.000 
#    0.000    0.000    0.000    0.000    0.000    0.000 
#
# Total GULP energy -278560.654518 kJ/mol
# GULP energy per Si atom -5571.213090 kJ/mol
# Density = 1.998236 g / cm^3
# Si number density = 20.027949 Si / 1000 Ang^3
#
#
#
# Elastic Constant Matrix: (Units=GPa)
#
#
# Indices 1 2 3 4 5 6 
#
# 1 131.7839 23.4278 67.9982 0.0000 0.0000 0.0000
# 2 23.4278 75.9413 11.0079 0.0000 0.0000 0.0000
# 3 67.9982 11.0079 78.3681 0.0000 0.0000 0.0000
# 4 0.0000 0.0000 0.0000 31.3140 0.0000 0.0000
# 5 0.0000 0.0000 0.0000 0.0000 62.0539 0.0000
# 6 0.0000 0.0000 0.0000 0.0000 0.0000-1451.1825
#
#
#
# Elastic Compliance Matrix: (Units=1/GPa)
#
#
# Indices 1 2 3 4 5 6 
#
# 1 0.014246 -0.002657 -0.011988 0.000000 0.000000 0.000000
# 2 -0.002657 0.013937 0.000348 0.000000 0.000000 0.000000
# 3 -0.011988 0.000348 0.023113 0.000000 0.000000 0.000000
# 4 0.000000 0.000000 0.000000 0.031935 0.000000 0.000000
# 5 0.000000 0.000000 0.000000 0.000000 0.016115 0.000000
# 6 0.000000 0.000000 0.000000 0.000000 0.000000 -0.000689
#
#
# Mechanical properties :
#
#
# Convention : Reuss Voigt Hill
#
# Bulk Modulus (GPa) = 44.04848 54.55122 49.29985
# Shear Modulus (GPa) = 37.08696 -259.31898 -111.11601
#
# Velocity S-wave (km/s) = 4.30788 -11.39121 -7.45660
# Velocity P-wave (km/s) = 6.83996 12.07130 7.03318
#
# Compressibility (1/GPa) = 0.02270226
#
# Stress axis : x y z
#
# Youngs Moduli (GPa) = 70.19510 71.74944 43.26595
#
# Poissons Ratio (x) = 0.19065 0.51866
# Poissons Ratio (y) = 0.18652 -0.01505
# Poissons Ratio (z) = 0.84148 -0.02496
#
# Static dielectric constant tensor:
#      x y z
#    x 1.575930 0.000000 0.000000 
#    y 0.000000 1.746120 0.000000 
#    z 0.000000 0.000000 1.734120 
# 
# From -- ./inp_files/78229.got.cif
#   From: 2010.05.17/outbox.cif.g08.bks.cpg/sg65_40_cif.got.tgz:78229.got - 2010.06.03 17:01:31.
