data_PCOD9491356
_publ_section_title
;
Structure prediction by ZEFSAII (Michael W. Deem and Ramdas Pophale) SiO2 
 PCOD9491356
Probable space group: C M M M
;
_chemical_formula_sum "Si O2"
_cell_formula_units_Z 88
_cell_length_a 9.027937
_cell_length_b 19.729850
_cell_length_c 28.509121
_cell_angle_alpha 90.000000
_cell_angle_beta 90.000000
_cell_angle_gamma 90.000000
_cell_volume 5078.040151
_symmetry_space_group_name_H-M "C M M M"
_symmetry_group_IT_number 65
_symmetry_cell_setting 'orthorhombic'
loop_
_space_group_symop_operation_xyz
x,y,z
-x,-y,z
x,-y,-z
-x,y,-z
-x,-y,-z
x,y,-z
-x,y,z
x,-y,z
1/2+x,1/2+y,z
1/2-x,1/2-y,z
1/2+x,1/2-y,-z
1/2-x,1/2+y,-z
1/2-x,1/2-y,-z
1/2+x,1/2+y,-z
1/2-x,1/2+y,z
1/2+x,1/2-y,z
loop_
_atom_site_type_symbol
_atom_site_label
_atom_site_fract_x
_atom_site_fract_y
_atom_site_fract_z
Si Si1 0.321540 0.822570 0.180064
Si Si2 0.678200 0.079039 0.903607
Si Si3 0.324255 0.678394 0.444332
Si Si4 0.328838 0.417563 0.000000
Si Si5 0.178762 0.578852 0.628341
Si Si6 0.678010 0.177376 0.712592
O O1 0.500000 0.816926 0.178399
O O2 0.250000 0.750000 0.169813
O O3 0.275987 0.877065 0.141223
O O4 0.281166 0.840838 0.233752
O O5 0.500000 0.082318 0.907938
O O6 0.718390 0.000000 0.897040
O O7 0.749472 0.104242 0.952115
O O8 0.299011 0.668812 0.500000
O O9 0.500000 0.682057 0.436168
O O10 0.250000 0.750000 0.430733
O O11 0.252776 0.618243 0.414682
O O12 0.321268 0.500000 0.000000
O O13 0.500000 0.397490 0.000000
O O14 0.221027 0.500000 0.630502
O O15 0.220487 0.620106 0.675333
O O16 0.000000 0.582210 0.623794
O O17 0.500000 0.184820 0.710761
O O18 0.750000 0.250000 0.701295
#
# Coordination Sequence:
#
# PCOD9491356 Si02
#       6
#    16  16  16   8  16  16
#     4   9  18  32  50  72  98 128 161 200 245 291
#     4   9  17  30  49  71  94 123 160 199 238 284
#     4  10  21  37  57  79 103 134 173 214 254 300
#     4   9  17  29  46  69  96 125 157 195 240 287
#     4  10  21  35  52  77 108 139 170 208 254 301
#     4   9  18  33  52  73  98 130 167 204 244 293
#
# _framework density 17.329521
#
# number of rings (size 3 to 8) (size 9 to 14) (size 15 to 20)
#    0.000    2.636    0.000    1.364    0.000    6.545 
#    0.000    5.909    0.000    0.000    0.000    7.636 
#    0.000    0.000    0.000    0.000    0.000    0.000 
#
# Total GULP energy -245395.182684 kJ/mol
# GULP energy per Si atom -5577.163243 kJ/mol
# Density = 1.729008 g / cm^3
# Si number density = 17.329521 Si / 1000 Ang^3
#
#
#
# Elastic Constant Matrix: (Units=GPa)
#
#
# Indices 1 2 3 4 5 6 
#
# 1 23.7480 45.2949 49.5423 0.0000 0.0000 0.0000
# 2 45.2949 133.7999 103.6924 0.0000 0.0000 0.0000
# 3 49.5423 103.6924 126.1047 0.0000 0.0000 0.0000
# 4 0.0000 0.0000 0.0000 37.6577 0.0000 0.0000
# 5 0.0000 0.0000 0.0000 0.0000 16.0144 0.0000
# 6 0.0000 0.0000 0.0000 0.0000 0.0000 26.8173
#
#
#
# Elastic Compliance Matrix: (Units=1/GPa)
#
#
# Indices 1 2 3 4 5 6 
#
# 1 0.259297 -0.024349 -0.081848 0.000000 0.000000 0.000000
# 2 -0.024349 0.022889 -0.009256 0.000000 0.000000 0.000000
# 3 -0.081848 -0.009256 0.047696 0.000000 0.000000 0.000000
# 4 0.000000 0.000000 0.000000 0.026555 0.000000 0.000000
# 5 0.000000 0.000000 0.000000 0.000000 0.062444 0.000000
# 6 0.000000 0.000000 0.000000 0.000000 0.000000 0.037289
#
#
# Mechanical properties :
#
#
# Convention : Reuss Voigt Hill
#
# Bulk Modulus (GPa) = 10.10323 75.63466 42.86894
# Shear Modulus (GPa) = 6.94380 21.77277 14.35828
#
# Velocity S-wave (km/s) = 2.00390 3.54842 2.88157
# Velocity P-wave (km/s) = 3.34617 7.77998 5.98853
#
# Compressibility (1/GPa) = 0.09897826
#
# Stress axis : x y z
#
# Youngs Moduli (GPa) = 3.85658 43.68822 20.96625
#
# Poissons Ratio (x) = 1.06375 1.71604
# Poissons Ratio (y) = 0.09390 0.19405
# Poissons Ratio (z) = 0.31565 0.40436
#
# Static dielectric constant tensor:
#      x y z
#    x 1.580030 0.000000 0.000000 
#    y 0.000000 1.557930 0.000000 
#    z 0.000000 0.000000 1.592070 
# 
# From -- ./inp_files/76516.got.cif
#   From: 2010.05.17/outbox.cif.g08.bks.cpg/sg65_39_cif.got.tgz:76516.got - 2010.06.03 17:01:31.
