data_PCOD9491371
_publ_section_title
;
Structure prediction by ZEFSAII (Michael W. Deem and Ramdas Pophale) SiO2 
 PCOD9491371
Probable space group: C M M M
;
_chemical_formula_sum "Si O2"
_cell_formula_units_Z 72
_cell_length_a 9.708097
_cell_length_b 20.179753
_cell_length_c 20.078196
_cell_angle_alpha 90.000000
_cell_angle_beta 90.000000
_cell_angle_gamma 90.000000
_cell_volume 3933.459135
_symmetry_space_group_name_H-M "C M M M"
_symmetry_group_IT_number 65
_symmetry_cell_setting 'orthorhombic'
loop_
_space_group_symop_operation_xyz
x,y,z
-x,-y,z
x,-y,-z
-x,y,-z
-x,-y,-z
x,y,-z
-x,y,z
x,-y,z
1/2+x,1/2+y,z
1/2-x,1/2-y,z
1/2+x,1/2-y,-z
1/2-x,1/2+y,-z
1/2-x,1/2-y,-z
1/2+x,1/2+y,-z
1/2-x,1/2+y,z
1/2+x,1/2-y,z
loop_
_atom_site_type_symbol
_atom_site_label
_atom_site_fract_x
_atom_site_fract_y
_atom_site_fract_z
Si Si1 0.333113 0.424449 0.686228
Si Si2 0.161297 0.188328 0.786754
Si Si3 0.845427 0.500000 0.080365
Si Si4 0.660349 0.625626 0.923462
Si Si5 0.663526 0.315803 0.578662
O O1 0.500000 0.428887 0.685741
O O2 0.280502 0.500000 0.686504
O O3 0.296593 0.379745 0.750222
O O4 0.294603 0.379071 0.622864
O O5 0.250000 0.250000 0.763064
O O6 0.176337 0.179632 0.866140
O O7 0.000000 0.199181 0.771979
O O8 0.758500 0.434886 0.095905
O O9 0.000000 0.500000 0.107866
O O10 0.855214 0.500000 0.000000
O O11 0.500000 0.603712 0.921453
O O12 0.689181 0.646201 0.000000
O O13 0.682390 0.329014 0.500000
O O14 0.500000 0.303937 0.590077
O O15 0.750000 0.250000 0.595489
#
# Coordination Sequence:
#
# PCOD9491371 Si02
#       5
#    16  16   8  16  16
#     4   9  18  32  51  75 101 131 169 210 249 293
#     4  10  21  35  53  73  98 133 169 209 256 304
#     4   9  17  29  47  73 101 127 156 199 254 300
#     4   9  18  32  50  72  97 129 169 207 248 304
#     4   9  17  30  51  78 105 134 166 202 245 293
#
# _framework density 18.304500000000001
#
# number of rings (size 3 to 8) (size 9 to 14) (size 15 to 20)
#    0.000    2.778    0.000    1.000    1.556    3.111 
#    0.000    2.222    0.000    2.000    0.000    3.111 
#    0.000    0.000    0.000    0.000    0.000    0.000 
#
# Total GULP energy -200564.498740 kJ/mol
# GULP energy per Si atom -5571.236076 kJ/mol
# Density = 1.826284 g / cm^3
# Si number density = 18.304500 Si / 1000 Ang^3
#
#
#
# Elastic Constant Matrix: (Units=GPa)
#
#
# Indices 1 2 3 4 5 6 
#
# 1 43.6373 52.9954 31.2774 0.0000 0.0000 0.0000
# 2 52.9954 150.0450 63.1042 0.0000 0.0000 0.0000
# 3 31.2774 63.1042 101.4716 0.0000 0.0000 0.0000
# 4 0.0000 0.0000 0.0000 19.2323 0.0000 0.0000
# 5 0.0000 0.0000 0.0000 0.0000 11.0460 0.0000
# 6 0.0000 0.0000 0.0000 0.0000 0.0000 22.3724
#
#
#
# Elastic Compliance Matrix: (Units=1/GPa)
#
#
# Indices 1 2 3 4 5 6 
#
# 1 0.041944 -0.012698 -0.005032 0.000000 0.000000 0.000000
# 2 -0.012698 0.012870 -0.004089 0.000000 0.000000 0.000000
# 3 -0.005032 -0.004089 0.013949 0.000000 0.000000 0.000000
# 4 0.000000 0.000000 0.000000 0.051996 0.000000 0.000000
# 5 0.000000 0.000000 0.000000 0.000000 0.090530 0.000000
# 6 0.000000 0.000000 0.000000 0.000000 0.000000 0.044698
#
#
# Mechanical properties :
#
#
# Convention : Reuss Voigt Hill
#
# Bulk Modulus (GPa) = 39.80277 65.54532 52.67404
# Shear Modulus (GPa) = 16.23373 20.38194 18.30783
#
# Velocity S-wave (km/s) = 2.98127 3.34052 3.16600
# Velocity P-wave (km/s) = 5.80023 7.12495 6.49644
#
# Compressibility (1/GPa) = 0.02512388
#
# Stress axis : x y z
#
# Youngs Moduli (GPa) = 23.84116 77.70292 71.68934
#
# Poissons Ratio (x) = 0.98670 0.36073
# Poissons Ratio (y) = 0.30274 0.29316
# Poissons Ratio (z) = 0.11996 0.31775
#
# Static dielectric constant tensor:
#      x y z
#    x 1.625200 0.000000 0.000000 
#    y 0.000000 1.611990 0.000000 
#    z 0.000000 0.000000 1.661440 
# 
# From -- ./inp_files/59293.got.cif
#   From: 2010.05.17/outbox.cif.g08.bks.cpg/sg65_30_cif.got.tgz:59293.got - 2010.06.03 17:01:31.
