data_PCOD9491220
_publ_section_title
;
Structure prediction by ZEFSAII (Michael W. Deem and Ramdas Pophale) SiO2 
 PCOD9491220
Probable space group: C M M M
;
_chemical_formula_sum "Si O2"
_cell_formula_units_Z 88
_cell_length_a 8.762538
_cell_length_b 19.098014
_cell_length_c 29.427973
_cell_angle_alpha 90.000000
_cell_angle_beta 90.000000
_cell_angle_gamma 90.000000
_cell_volume 4924.685158
_symmetry_space_group_name_H-M "C M M M"
_symmetry_group_IT_number 65
_symmetry_cell_setting 'orthorhombic'
loop_
_space_group_symop_operation_xyz
x,y,z
-x,-y,z
x,-y,-z
-x,y,-z
-x,-y,-z
x,y,-z
-x,y,z
x,-y,z
1/2+x,1/2+y,z
1/2-x,1/2-y,z
1/2+x,1/2-y,-z
1/2-x,1/2+y,-z
1/2-x,1/2-y,-z
1/2+x,1/2+y,-z
1/2-x,1/2+y,z
1/2+x,1/2-y,z
loop_
_atom_site_type_symbol
_atom_site_label
_atom_site_fract_x
_atom_site_fract_y
_atom_site_fract_z
Si Si1 0.676240 0.085122 0.318990
Si Si2 0.183660 0.081574 0.052281
Si Si3 0.185169 0.172233 0.500000
Si Si4 0.813710 0.419118 0.219280
Si Si5 0.683384 0.419291 0.413888
Si Si6 0.317013 0.827497 0.866930
O O1 0.500000 0.106919 0.323110
O O2 0.736911 0.106436 0.269318
O O3 0.763663 0.106230 0.364373
O O4 0.678944 0.000000 0.317595
O O5 0.262046 0.131002 0.088664
O O6 0.000000 0.087671 0.055959
O O7 0.223145 0.000000 0.060663
O O8 0.225070 0.098105 0.000000
O O9 0.250000 0.250000 0.500000
O O10 0.234706 0.129494 0.544826
O O11 0.000000 0.174740 0.500000
O O12 0.765759 0.500000 0.212342
O O13 0.765803 0.370667 0.177733
O O14 0.000000 0.419701 0.220713
O O15 0.500000 0.420733 0.414614
O O16 0.736520 0.500000 0.420088
O O17 0.500000 0.824441 0.866554
O O18 0.250000 0.750000 0.866477
#
# Coordination Sequence:
#
# PCOD9491220 Si02
#       6
#    16  16   8  16  16  16
#     4   8  14  27  49  75  99 123 156 200 247 292
#     4   9  19  37  59  81 105 132 164 207 258 307
#     4  10  21  35  49  67  95 130 162 196 240 288
#     4   8  15  30  52  75  98 127 164 205 249 296
#     4   9  17  31  51  73  96 123 158 199 243 290
#     4  11  22  35  52  75 105 140 176 212 250 296
#
# _framework density 17.869160999999998
#
# number of rings (size 3 to 8) (size 9 to 14) (size 15 to 20)
#    0.000    2.909    0.000    3.000    0.000    3.636 
#    0.000    3.636    0.000   11.455    0.000    0.000 
#    0.000    0.000    0.000    0.000    0.000    0.000 
#
# Total GULP energy -245254.793040 kJ/mol
# GULP energy per Si atom -5573.972569 kJ/mol
# Density = 1.782849 g / cm^3
# Si number density = 17.869161 Si / 1000 Ang^3
#
#
#
# Elastic Constant Matrix: (Units=GPa)
#
#
# Indices 1 2 3 4 5 6 
#
# 1 15.8339 29.7081 39.9421 0.0000 0.0000 0.0000
# 2 29.7081 103.4933 109.1641 0.0000 0.0000 0.0000
# 3 39.9421 109.1641 196.5503 0.0000 0.0000 0.0000
# 4 0.0000 0.0000 0.0000 -4.4065 0.0000 0.0000
# 5 0.0000 0.0000 0.0000 0.0000 25.6821 0.0000
# 6 0.0000 0.0000 0.0000 0.0000 0.0000 12.1660
#
#
#
# Elastic Compliance Matrix: (Units=1/GPa)
#
#
# Indices 1 2 3 4 5 6 
#
# 1 0.156341 -0.027444 -0.016528 0.000000 0.000000 0.000000
# 2 -0.027444 0.028147 -0.010056 0.000000 0.000000 0.000000
# 3 -0.016528 -0.010056 0.014032 0.000000 0.000000 0.000000
# 4 0.000000 0.000000 0.000000 -0.226939 0.000000 0.000000
# 5 0.000000 0.000000 0.000000 0.000000 0.038938 0.000000
# 6 0.000000 0.000000 0.000000 0.000000 0.000000 0.082196
#
#
# Mechanical properties :
#
#
# Convention : Reuss Voigt Hill
#
# Bulk Modulus (GPa) = 11.05425 74.83402 42.94413
# Shear Modulus (GPa) = 21.65189 15.82587 18.73888
#
# Velocity S-wave (km/s) = 3.48471 2.97922 3.24183
# Velocity P-wave (km/s) = 4.73187 7.33513 6.17231
#
# Compressibility (1/GPa) = 0.09046296
#
# Stress axis : x y z
#
# Youngs Moduli (GPa) = 6.39628 35.52725 71.26710
#
# Poissons Ratio (x) = 0.97501 1.17794
# Poissons Ratio (y) = 0.17554 0.71666
# Poissons Ratio (z) = 0.10572 0.35726
#
# Static dielectric constant tensor:
#      x y z
#    x 1.608490 0.000000 0.000000 
#    y 0.000000 1.583470 0.000000 
#    z 0.000000 0.000000 1.622170 
# 
# From -- ./inp_files/76495.got.cif
#   From: 2010.05.17/outbox.cif.g08.bks.cpg/sg65_39_cif.got.tgz:76495.got - 2010.06.03 17:01:31.
