data_PCOD9491075
_publ_section_title
;
Structure prediction by ZEFSAII (Michael W. Deem and Ramdas Pophale) SiO2 
 PCOD9491075
Probable space group: C M M M
;
_chemical_formula_sum "Si O2"
_cell_formula_units_Z 120
_cell_length_a 28.523526
_cell_length_b 20.113066
_cell_length_c 13.486765
_cell_angle_alpha 90.000000
_cell_angle_beta 90.000000
_cell_angle_gamma 90.000000
_cell_volume 7737.297213
_symmetry_space_group_name_H-M "C M M M"
_symmetry_group_IT_number 65
_symmetry_cell_setting 'orthorhombic'
loop_
_space_group_symop_operation_xyz
x,y,z
-x,-y,z
x,-y,-z
-x,y,-z
-x,-y,-z
x,y,-z
-x,y,z
x,-y,z
1/2+x,1/2+y,z
1/2-x,1/2-y,z
1/2+x,1/2-y,-z
1/2-x,1/2+y,-z
1/2-x,1/2-y,-z
1/2+x,1/2+y,-z
1/2-x,1/2+y,z
1/2+x,1/2-y,z
loop_
_atom_site_type_symbol
_atom_site_label
_atom_site_fract_x
_atom_site_fract_y
_atom_site_fract_z
Si Si1 0.270853 0.677626 0.228524
Si Si2 0.908071 0.922969 0.731961
Si Si3 0.000000 0.918764 0.385392
Si Si4 0.406738 0.073555 0.879580
Si Si5 0.810750 0.075917 0.617701
Si Si6 0.202905 0.575906 0.880901
Si Si7 0.129633 0.818815 0.119037
Si Si8 0.051901 0.289210 0.879528
O O1 0.250000 0.750000 0.250973
O O2 0.283056 0.632877 0.324126
O O3 0.234606 0.632479 0.166559
O O4 0.318632 0.687405 0.165280
O O5 0.864066 0.919535 0.657135
O O6 0.894214 0.882277 0.829205
O O7 0.953909 0.897806 0.674707
O O8 0.915640 0.000000 0.757734
O O9 0.000000 0.896767 0.500000
O O10 0.000000 0.000000 0.387907
O O11 0.351954 0.083600 0.853977
O O12 0.437225 0.135756 0.845837
O O13 0.421523 0.000000 0.845798
O O14 0.408665 0.072952 0.000000
O O15 0.808821 0.084215 0.500000
O O16 0.794729 0.000000 0.641381
O O17 0.217233 0.500000 0.853880
O O18 0.205952 0.580674 0.000000
O O19 0.095319 0.757861 0.146942
O O20 0.132241 0.823770 0.000000
O O21 0.000000 0.267304 0.846431
O O22 0.051111 0.289507 0.000000
#
# Coordination Sequence:
#
# PCOD9491075 Si02
#       8
#    16  16   8  16  16  16  16  16
#     4  11  21  31  47  70  93 120 158 197 235 279
#     4   9  18  31  48  70  91 116 154 196 235 275
#     4   9  16  28  49  73  91 109 143 194 244 284
#     4   8  14  25  41  61  83 107 141 187 230 262
#     4   9  18  34  52  68  91 120 149 188 240 293
#     4   9  17  29  45  65  91 121 152 190 233 273
#     4  10  21  33  44  62  92 129 163 193 225 269
#     4   9  17  28  41  56  79 116 154 182 217 266
#
# _framework density 15.509292
#
# number of rings (size 3 to 8) (size 9 to 14) (size 15 to 20)
#    0.000    2.733    0.000    2.800    0.933    5.067 
#    0.000    1.333    0.000    1.200    0.000    0.000 
#    0.000    0.000    0.000    0.000    0.000    0.667 
#
# Total GULP energy -334171.529289 kJ/mol
# GULP energy per Si atom -5569.525488 kJ/mol
# Density = 1.547399 g / cm^3
# Si number density = 15.509292 Si / 1000 Ang^3
#
#
#
# Elastic Constant Matrix: (Units=GPa)
#
#
# Indices 1 2 3 4 5 6 
#
# 1 44.4161 36.4818 25.3334 0.0000 0.0000 0.0000
# 2 36.4818 93.8173 39.1329 0.0000 0.0000 0.0000
# 3 25.3334 39.1329 60.7253 0.0000 0.0000 0.0000
# 4 0.0000 0.0000 0.0000 10.6117 0.0000 0.0000
# 5 0.0000 0.0000 0.0000 0.0000 7.4696 0.0000
# 6 0.0000 0.0000 0.0000 0.0000 0.0000 21.2123
#
#
#
# Elastic Compliance Matrix: (Units=1/GPa)
#
#
# Indices 1 2 3 4 5 6 
#
# 1 0.035810 -0.010522 -0.008159 0.000000 0.000000 0.000000
# 2 -0.010522 0.017669 -0.006997 0.000000 0.000000 0.000000
# 3 -0.008159 -0.006997 0.024380 0.000000 0.000000 0.000000
# 4 0.000000 0.000000 0.000000 0.094235 0.000000 0.000000
# 5 0.000000 0.000000 0.000000 0.000000 0.133875 0.000000
# 6 0.000000 0.000000 0.000000 0.000000 0.000000 0.047142
#
#
# Mechanical properties :
#
#
# Convention : Reuss Voigt Hill
#
# Bulk Modulus (GPa) = 37.72953 44.53943 41.13448
# Shear Modulus (GPa) = 12.09767 14.39278 13.24523
#
# Velocity S-wave (km/s) = 2.79593 3.04963 2.92553
# Velocity P-wave (km/s) = 5.89939 6.41721 6.16374
#
# Compressibility (1/GPa) = 0.02650444
#
# Stress axis : x y z
#
# Youngs Moduli (GPa) = 27.92499 56.59590 41.01693
#
# Poissons Ratio (x) = 0.59551 0.33464
# Poissons Ratio (y) = 0.29383 0.28699
# Poissons Ratio (z) = 0.22783 0.39599
#
# Static dielectric constant tensor:
#      x y z
#    x 1.524260 0.000000 0.000000 
#    y 0.000000 1.534590 0.000000 
#    z 0.000000 0.000000 1.479100 
# 
# From -- ./inp_files/32856.got.cif
#   From: 2010.05.17/outbox.cif.g08.bks.cpg/sg65_17_cif.got.tgz:32856.got - 2010.06.03 17:01:31.
