data_PCOD9491096
_publ_section_title
;
Structure prediction by ZEFSAII (Michael W. Deem and Ramdas Pophale) SiO2 
 PCOD9491096
Probable space group: C M M M
;
_chemical_formula_sum "Si O2"
_cell_formula_units_Z 80
_cell_length_a 7.841034
_cell_length_b 18.085836
_cell_length_c 30.477207
_cell_angle_alpha 90.000000
_cell_angle_beta 90.000000
_cell_angle_gamma 90.000000
_cell_volume 4322.023164
_symmetry_space_group_name_H-M "C M M M"
_symmetry_group_IT_number 65
_symmetry_cell_setting 'orthorhombic'
loop_
_space_group_symop_operation_xyz
x,y,z
-x,-y,z
x,-y,-z
-x,y,-z
-x,-y,-z
x,y,-z
-x,y,z
x,-y,z
1/2+x,1/2+y,z
1/2-x,1/2-y,z
1/2+x,1/2-y,-z
1/2-x,1/2+y,-z
1/2-x,1/2-y,-z
1/2+x,1/2+y,-z
1/2-x,1/2+y,z
1/2+x,1/2-y,z
loop_
_atom_site_type_symbol
_atom_site_label
_atom_site_fract_x
_atom_site_fract_y
_atom_site_fract_z
Si Si1 0.795874 0.335890 0.500000
Si Si2 0.000000 0.089983 0.755868
Si Si3 0.298237 0.164399 0.089268
Si Si4 0.199788 0.410881 0.590493
Si Si5 0.798244 0.917591 0.000000
Si Si6 0.500000 0.589959 0.344431
Si Si7 0.200076 0.589094 0.820991
O O1 0.750000 0.250000 0.500000
O O2 0.739021 0.375163 0.455215
O O3 0.000000 0.343548 0.500000
O O4 0.829859 0.111792 0.782543
O O5 0.000000 0.116110 0.705716
O O6 0.000000 0.000000 0.754954
O O7 0.500000 0.158567 0.091580
O O8 0.250000 0.250000 0.088906
O O9 0.246414 0.125715 0.044157
O O10 0.235460 0.124141 0.133335
O O11 0.205926 0.500000 0.586295
O O12 0.330072 0.388283 0.628821
O O13 0.000000 0.391095 0.598512
O O14 0.000000 0.924516 0.000000
O O15 0.720895 0.000000 0.000000
O O16 0.500000 0.500000 0.343428
O O17 0.205889 0.500000 0.825028
O O18 0.000000 0.608982 0.813189
#
# Coordination Sequence:
#
# PCOD9491096 Si02
#       7
#     8   8  16  16   8   8  16
#     4  10  21  33  50  78 104 144 181 219 266 318
#     4   9  18  32  55  83 111 137 174 229 276 326
#     4  11  23  38  57  82 111 147 182 225 270 324
#     4   9  18  33  52  76 108 141 179 224 266 318
#     4  11  24  39  58  83 113 147 182 219 268 329
#     4   9  18  31  52  83 107 138 177 219 282 324
#     4   9  19  35  56  82 109 142 182 225 276 325
#
# _framework density 18.509848999999999
#
# number of rings (size 3 to 8) (size 9 to 14) (size 15 to 20)
#    0.000    2.300    0.000    2.100    4.200    3.600 
#    0.000    5.500    0.000    1.200    0.000    0.000 
#    0.000    0.000    0.000    0.000    0.000    0.000 
#
# Total GULP energy -223113.386524 kJ/mol
# GULP energy per Si atom -5577.834663 kJ/mol
# Density = 1.846772 g / cm^3
# Si number density = 18.509849 Si / 1000 Ang^3
#
#
#
# Elastic Constant Matrix: (Units=GPa)
#
#
# Indices 1 2 3 4 5 6 
#
# 1 91.8822 28.9450 88.5005 0.0000 0.0000 0.0000
# 2 28.9450 43.6422 52.1335 0.0000 0.0000 0.0000
# 3 88.5005 52.1335 213.4827 0.0000 0.0000 0.0000
# 4 0.0000 0.0000 0.0000 -9.1754 0.0000 0.0000
# 5 0.0000 0.0000 0.0000 0.0000 36.0553 0.0000
# 6 0.0000 0.0000 0.0000 0.0000 0.0000 9.3977
#
#
#
# Elastic Compliance Matrix: (Units=1/GPa)
#
#
# Indices 1 2 3 4 5 6 
#
# 1 0.018708 -0.004438 -0.006672 0.000000 0.000000 0.000000
# 2 -0.004438 0.033404 -0.006318 0.000000 0.000000 0.000000
# 3 -0.006672 -0.006318 0.008993 0.000000 0.000000 0.000000
# 4 0.000000 0.000000 0.000000 -0.108987 0.000000 0.000000
# 5 0.000000 0.000000 0.000000 0.000000 0.027735 0.000000
# 6 0.000000 0.000000 0.000000 0.000000 0.000000 0.106409
#
#
# Mechanical properties :
#
#
# Convention : Reuss Voigt Hill
#
# Bulk Modulus (GPa) = 38.09525 76.46278 57.27902
# Shear Modulus (GPa) = 38.50134 19.21739 28.85937
#
# Velocity S-wave (km/s) = 4.56570 3.22565 3.95287
# Velocity P-wave (km/s) = 6.95844 7.43451 7.20041
#
# Compressibility (1/GPa) = 0.02624999
#
# Stress axis : x y z
#
# Youngs Moduli (GPa) = 53.45425 29.93672 111.20047
#
# Poissons Ratio (x) = 0.13285 0.74188
# Poissons Ratio (y) = 0.23722 0.70252
# Poissons Ratio (z) = 0.35663 0.18913
#
# Static dielectric constant tensor:
#      x y z
#    x 1.651710 0.000000 0.000000 
#    y 0.000000 1.579510 0.000000 
#    z 0.000000 0.000000 1.679470 
# 
# From -- ./inp_files/72976.got.cif
#   From: 2010.05.17/outbox.cif.g08.bks.cpg/sg65_37_cif.got.tgz:72976.got - 2010.06.03 17:01:31.
