data_PCOD9491179
_publ_section_title
;
Structure prediction by ZEFSAII (Michael W. Deem and Ramdas Pophale) SiO2 
 PCOD9491179
Probable space group: C M M M
;
_chemical_formula_sum "Si O2"
_cell_formula_units_Z 112
_cell_length_a 14.484413
_cell_length_b 15.003703
_cell_length_c 27.373455
_cell_angle_alpha 90.000000
_cell_angle_beta 90.000000
_cell_angle_gamma 90.000000
_cell_volume 5948.794609
_symmetry_space_group_name_H-M "C M M M"
_symmetry_group_IT_number 65
_symmetry_cell_setting 'orthorhombic'
loop_
_space_group_symop_operation_xyz
x,y,z
-x,-y,z
x,-y,-z
-x,y,-z
-x,-y,-z
x,y,-z
-x,y,z
x,-y,z
1/2+x,1/2+y,z
1/2-x,1/2-y,z
1/2+x,1/2-y,-z
1/2-x,1/2+y,-z
1/2-x,1/2-y,-z
1/2+x,1/2+y,-z
1/2-x,1/2+y,z
1/2+x,1/2-y,z
loop_
_atom_site_type_symbol
_atom_site_label
_atom_site_fract_x
_atom_site_fract_y
_atom_site_fract_z
Si Si1 0.805122 0.903003 0.053882
Si Si2 0.098551 0.638247 0.946147
Si Si3 0.388963 0.746275 0.753174
Si Si4 0.892411 0.754703 0.441261
Si Si5 0.396614 0.710960 0.865878
Si Si6 0.747271 0.895248 0.713214
Si Si7 0.244707 0.604547 0.595834
O O1 0.694929 0.910504 0.054819
O O2 0.832405 0.852121 0.102458
O O3 0.848774 0.000000 0.055356
O O4 0.827852 0.863905 0.000000
O O5 0.100052 0.703308 0.900429
O O6 0.000000 0.591055 0.943603
O O7 0.098188 0.682935 0.000000
O O8 0.500000 0.748696 0.745334
O O9 0.370274 0.735274 0.811074
O O10 0.337517 0.835722 0.734292
O O11 0.338470 0.661146 0.728438
O O12 0.887735 0.757363 0.500000
O O13 0.840373 0.664694 0.423773
O O14 0.834942 0.839581 0.421174
O O15 0.000000 0.756154 0.426360
O O16 0.500000 0.671957 0.863757
O O17 0.741159 0.894078 0.654555
O O18 0.747977 0.000000 0.728768
O O19 0.244138 0.500000 0.580220
#
# Coordination Sequence:
#
# PCOD9491179 Si02
#       7
#    16  16  16  16  16  16  16
#     4  10  21  34  51  78 108 139 174 216 270 331
#     4   9  18  33  53  76 102 133 171 212 255 316
#     4  10  22  40  61  85 116 152 192 242 302 361
#     4  10  21  36  57  89 126 163 203 245 292 347
#     4  10  21  36  54  76 101 135 177 218 270 335
#     4  10  23  40  61  90 117 151 201 251 299 351
#     4  10  21  38  59  85 119 159 204 250 297 348
#
# _framework density 18.827344
#
# number of rings (size 3 to 8) (size 9 to 14) (size 15 to 20)
#    0.000    2.143    0.000    3.429    4.000    7.714 
#    0.000    7.857    0.000    2.571    0.000    0.000 
#    0.000    0.000    0.000    0.000    0.000    0.000 
#
# Total GULP energy -311780.847759 kJ/mol
# GULP energy per Si atom -5567.515139 kJ/mol
# Density = 1.878449 g / cm^3
# Si number density = 18.827344 Si / 1000 Ang^3
#
#
#
# Elastic Constant Matrix: (Units=GPa)
#
#
# Indices 1 2 3 4 5 6 
#
# 1 136.1977 78.5266 48.1522 0.0000 0.0000 0.0000
# 2 78.5266 161.9246 51.4661 0.0000 0.0000 0.0000
# 3 48.1522 51.4661 99.5284 0.0000 0.0000 0.0000
# 4 0.0000 0.0000 0.0000 -121.2426 0.0000 0.0000
# 5 0.0000 0.0000 0.0000 0.0000 -61.0323 0.0000
# 6 0.0000 0.0000 0.0000 0.0000 0.0000 16.8144
#
#
#
# Elastic Compliance Matrix: (Units=1/GPa)
#
#
# Indices 1 2 3 4 5 6 
#
# 1 0.010911 -0.004324 -0.003043 0.000000 0.000000 0.000000
# 2 -0.004324 0.009104 -0.002616 0.000000 0.000000 0.000000
# 3 -0.003043 -0.002616 0.012872 0.000000 0.000000 0.000000
# 4 0.000000 0.000000 0.000000 -0.008248 0.000000 0.000000
# 5 0.000000 0.000000 0.000000 0.000000 -0.016385 0.000000
# 6 0.000000 0.000000 0.000000 0.000000 0.000000 0.059473
#
#
# Mechanical properties :
#
#
# Convention : Reuss Voigt Hill
#
# Bulk Modulus (GPa) = 77.38782 83.77120 80.57951
# Shear Modulus (GPa) = 54.34741 -18.45837 17.94452
#
# Velocity S-wave (km/s) = 5.37856 -3.13453 3.09060
# Velocity P-wave (km/s) = 8.93113 5.61165 7.45841
#
# Compressibility (1/GPa) = 0.01292193
#
# Stress axis : x y z
#
# Youngs Moduli (GPa) = 91.64783 109.83911 77.68782
#
# Poissons Ratio (x) = 0.47499 0.23639
# Poissons Ratio (y) = 0.39632 0.20320
# Poissons Ratio (z) = 0.27886 0.28730
#
# Static dielectric constant tensor:
#      x y z
#    x 1.678330 0.000000 0.000000 
#    y 0.000000 1.667340 0.000000 
#    z 0.000000 0.000000 1.638720 
# 
# From -- ./inp_files/70015.got.cif
#   From: 2010.05.17/outbox.cif.g08.bks.cpg/sg65_36_cif.got.tgz:70015.got - 2010.06.03 17:01:31.
