data_PCOD9491170
_publ_section_title
;
Structure prediction by ZEFSAII (Michael W. Deem and Ramdas Pophale) SiO2 
 PCOD9491170
Probable space group: C M M M
;
_chemical_formula_sum "Si O2"
_cell_formula_units_Z 72
_cell_length_a 7.666655
_cell_length_b 19.537173
_cell_length_c 24.794798
_cell_angle_alpha 90.000000
_cell_angle_beta 90.000000
_cell_angle_gamma 90.000000
_cell_volume 3713.882993
_symmetry_space_group_name_H-M "C M M M"
_symmetry_group_IT_number 65
_symmetry_cell_setting 'orthorhombic'
loop_
_space_group_symop_operation_xyz
x,y,z
-x,-y,z
x,-y,-z
-x,y,-z
-x,-y,-z
x,y,-z
-x,y,z
x,-y,z
1/2+x,1/2+y,z
1/2-x,1/2-y,z
1/2+x,1/2-y,-z
1/2-x,1/2+y,-z
1/2-x,1/2-y,-z
1/2+x,1/2+y,-z
1/2-x,1/2+y,z
1/2+x,1/2-y,z
loop_
_atom_site_type_symbol
_atom_site_label
_atom_site_fract_x
_atom_site_fract_y
_atom_site_fract_z
Si Si1 0.000000 0.080184 0.564651
Si Si2 0.709305 0.829082 0.620765
Si Si3 0.793555 0.672589 0.745726
Si Si4 0.790039 0.171259 0.939174
Si Si5 0.206660 0.923416 0.843494
O O1 0.829402 0.119471 0.587144
O O2 0.000000 0.083681 0.500000
O O3 0.000000 0.000000 0.580651
O O4 0.500000 0.840518 0.615805
O O5 0.750000 0.750000 0.605753
O O6 0.764582 0.836309 0.683802
O O7 0.750000 0.750000 0.762942
O O8 0.725810 0.617989 0.788131
O O9 0.000000 0.666201 0.744955
O O10 0.750000 0.250000 0.925776
O O11 0.720710 0.120920 0.893215
O O12 0.000000 0.165197 0.940643
O O13 0.724929 0.157421 0.000000
O O14 0.000000 0.929123 0.853189
O O15 0.279545 0.000000 0.840238
#
# Coordination Sequence:
#
# PCOD9491170 Si02
#       5
#     8  16  16  16  16
#     4  11  26  44  64  96 135 173 210 256 317 372
#     4  10  21  41  67  96 126 163 215 264 311 368
#     4  10  21  36  59  85 113 147 187 238 289 341
#     4   9  18  33  52  73  99 134 181 233 283 338
#     4  10  21  34  50  77 110 146 186 227 282 345
#
# _framework density 19.386717000000001
#
# number of rings (size 3 to 8) (size 9 to 14) (size 15 to 20)
#    0.000    2.111    1.111    1.333    3.111    5.778 
#    0.000    5.556    0.000    0.000    0.000    4.667 
#    0.000    0.000    0.000    0.000    0.000    0.000 
#
# Total GULP energy -200948.401732 kJ/mol
# GULP energy per Si atom -5581.900048 kJ/mol
# Density = 1.934259 g / cm^3
# Si number density = 19.386717 Si / 1000 Ang^3
#
#
#
# Elastic Constant Matrix: (Units=GPa)
#
#
# Indices 1 2 3 4 5 6 
#
# 1 75.0756 42.5591 30.8232 0.0000 0.0000 0.0000
# 2 42.5591 176.7092 102.6345 0.0000 0.0000 0.0000
# 3 30.8232 102.6345 94.6455 0.0000 0.0000 0.0000
# 4 0.0000 0.0000 0.0000 1982.4816 0.0000 0.0000
# 5 0.0000 0.0000 0.0000 0.0000 39.3059 0.0000
# 6 0.0000 0.0000 0.0000 0.0000 0.0000 22.5630
#
#
#
# Elastic Compliance Matrix: (Units=1/GPa)
#
#
# Indices 1 2 3 4 5 6 
#
# 1 0.015683 -0.002190 -0.002733 0.000000 0.000000 0.000000
# 2 -0.002190 0.015594 -0.016197 0.000000 0.000000 0.000000
# 3 -0.002733 -0.016197 0.029020 0.000000 0.000000 0.000000
# 4 0.000000 0.000000 0.000000 0.000504 0.000000 0.000000
# 5 0.000000 0.000000 0.000000 0.000000 0.025441 0.000000
# 6 0.000000 0.000000 0.000000 0.000000 0.000000 0.044320
#
#
# Mechanical properties :
#
#
# Convention : Reuss Voigt Hill
#
# Bulk Modulus (GPa) = 55.37799 77.60711 66.49255
# Shear Modulus (GPa) = 27.96092 420.23099 224.09596
#
# Velocity S-wave (km/s) = 3.80185 14.73882 10.76306
# Velocity P-wave (km/s) = 6.92091 18.15935 13.74156
#
# Compressibility (1/GPa) = 0.01805772
#
# Stress axis : x y z
#
# Youngs Moduli (GPa) = 63.76192 64.12848 34.45949
#
# Poissons Ratio (x) = 0.14045 0.09417
# Poissons Ratio (y) = 0.13964 0.55813
# Poissons Ratio (z) = 0.17424 1.03867
#
# Static dielectric constant tensor:
#      x y z
#    x 1.699930 0.000000 0.000000 
#    y 0.000000 1.653200 0.000000 
#    z 0.000000 0.000000 1.687180 
# 
# From -- ./inp_files/67019.got.cif
#   From: 2010.05.17/outbox.cif.g08.bks.cpg/sg65_34_cif.got.tgz:67019.got - 2010.06.03 17:01:31.
