data_PCOD9491362
_publ_section_title
;
Structure prediction by ZEFSAII (Michael W. Deem and Ramdas Pophale) SiO2 
 PCOD9491362
Probable space group: C M M M
;
_chemical_formula_sum "Si O2"
_cell_formula_units_Z 72
_cell_length_a 19.666830
_cell_length_b 8.832220
_cell_length_c 22.870296
_cell_angle_alpha 90.000000
_cell_angle_beta 90.000000
_cell_angle_gamma 90.000000
_cell_volume 3972.610879
_symmetry_space_group_name_H-M "C M M M"
_symmetry_group_IT_number 65
_symmetry_cell_setting 'orthorhombic'
loop_
_space_group_symop_operation_xyz
x,y,z
-x,-y,z
x,-y,-z
-x,y,-z
-x,-y,-z
x,y,-z
-x,y,z
x,-y,z
1/2+x,1/2+y,z
1/2-x,1/2-y,z
1/2+x,1/2-y,-z
1/2-x,1/2+y,-z
1/2-x,1/2-y,-z
1/2+x,1/2+y,-z
1/2-x,1/2+y,z
1/2+x,1/2-y,z
loop_
_atom_site_type_symbol
_atom_site_label
_atom_site_fract_x
_atom_site_fract_y
_atom_site_fract_z
Si Si1 0.578510 0.183049 0.171521
Si Si2 0.323380 0.319197 0.595882
Si Si3 0.323156 0.319612 0.733399
Si Si4 0.323306 0.817560 0.067098
Si Si5 0.079440 0.681566 0.500000
O O1 0.500000 0.230387 0.170005
O O2 0.618627 0.250030 0.226450
O O3 0.619351 0.229011 0.113099
O O4 0.580429 0.000000 0.174764
O O5 0.321485 0.500000 0.587833
O O6 0.250000 0.250000 0.579683
O O7 0.334548 0.286621 0.664656
O O8 0.381463 0.247593 0.556062
O O9 0.320510 0.500000 0.740730
O O10 0.250000 0.250000 0.749804
O O11 0.250000 0.750000 0.083265
O O12 0.318538 0.000000 0.068499
O O13 0.338325 0.772290 0.000000
O O14 0.084671 0.500000 0.500000
O O15 0.000000 0.723371 0.500000
#
# Coordination Sequence:
#
# PCOD9491362 Si02
#       5
#    16  16  16  16   8
#     4  10  21  35  52  77 109 144 179 218 267 319
#     4  10  21  38  60  83 108 140 179 222 266 315
#     4  10  21  37  58  82 107 139 179 222 267 315
#     4   9  18  33  53  76 102 135 177 222 266 315
#     4  11  24  39  56  81 113 147 180 217 264 315
#
# _framework density 18.124099000000001
#
# number of rings (size 3 to 8) (size 9 to 14) (size 15 to 20)
#    0.000    2.111    0.000    2.667    0.000    8.000 
#    0.000    6.667    0.000    0.000    0.000    4.667 
#    0.000    0.000    0.000    0.000    0.000    0.000 
#
# Total GULP energy -201079.860872 kJ/mol
# GULP energy per Si atom -5585.551691 kJ/mol
# Density = 1.808285 g / cm^3
# Si number density = 18.124099 Si / 1000 Ang^3
#
#
#
# Elastic Constant Matrix: (Units=GPa)
#
#
# Indices 1 2 3 4 5 6 
#
# 1 206.1671 60.2904 118.0235 0.0000 0.0000 0.0000
# 2 60.2904 35.4028 48.6841 0.0000 0.0000 0.0000
# 3 118.0235 48.6841 110.9649 0.0000 0.0000 0.0000
# 4 0.0000 0.0000 0.0000 21.5046 0.0000 0.0000
# 5 0.0000 0.0000 0.0000 0.0000 -17.3656 0.0000
# 6 0.0000 0.0000 0.0000 0.0000 0.0000 31.8918
#
#
#
# Elastic Compliance Matrix: (Units=1/GPa)
#
#
# Indices 1 2 3 4 5 6 
#
# 1 0.013249 -0.008028 -0.010569 0.000000 0.000000 0.000000
# 2 -0.008028 0.076072 -0.024837 0.000000 0.000000 0.000000
# 3 -0.010569 -0.024837 0.031150 0.000000 0.000000 0.000000
# 4 0.000000 0.000000 0.000000 0.046502 0.000000 0.000000
# 5 0.000000 0.000000 0.000000 0.000000 -0.057585 0.000000
# 6 0.000000 0.000000 0.000000 0.000000 0.000000 0.031356
#
#
# Mechanical properties :
#
#
# Convention : Reuss Voigt Hill
#
# Bulk Modulus (GPa) = 29.75931 89.61453 59.68692
# Shear Modulus (GPa) = 20.93688 15.57529 18.25609
#
# Velocity S-wave (km/s) = 3.40250 2.93468 3.17721
# Velocity P-wave (km/s) = 5.64725 7.81252 6.81641
#
# Compressibility (1/GPa) = 0.03360293
#
# Stress axis : x y z
#
# Youngs Moduli (GPa) = 75.47994 13.14538 32.10243
#
# Poissons Ratio (x) = 0.10553 0.33930
# Poissons Ratio (y) = 0.60594 0.79733
# Poissons Ratio (z) = 0.79776 0.32649
#
# Static dielectric constant tensor:
#      x y z
#    x 1.582090 0.000000 0.000000 
#    y 0.000000 1.607780 0.000000 
#    z 0.000000 0.000000 1.625180 
# 
# From -- ./inp_files/67070.got.cif
#   From: 2010.05.17/outbox.cif.g08.bks.cpg/sg65_34_cif.got.tgz:67070.got - 2010.06.03 17:01:31.
