data_PCOD9491813
_publ_section_title
;
Structure prediction by ZEFSAII (Michael W. Deem and Ramdas Pophale) SiO2 
 PCOD9491813
Probable space group: C M M M
;
_chemical_formula_sum "Si O2"
_cell_formula_units_Z 104
_cell_length_a 9.681708
_cell_length_b 22.399818
_cell_length_c 26.519796
_cell_angle_alpha 90.000000
_cell_angle_beta 90.000000
_cell_angle_gamma 90.000000
_cell_volume 5751.308303
_symmetry_space_group_name_H-M "C M M M"
_symmetry_group_IT_number 65
_symmetry_cell_setting 'orthorhombic'
loop_
_space_group_symop_operation_xyz
x,y,z
-x,-y,z
x,-y,-z
-x,y,-z
-x,-y,-z
x,y,-z
-x,y,z
x,-y,z
1/2+x,1/2+y,z
1/2-x,1/2-y,z
1/2+x,1/2-y,-z
1/2-x,1/2+y,-z
1/2-x,1/2-y,-z
1/2+x,1/2+y,-z
1/2-x,1/2+y,z
1/2+x,1/2-y,z
loop_
_atom_site_type_symbol
_atom_site_label
_atom_site_fract_x
_atom_site_fract_y
_atom_site_fract_z
Si Si1 0.658131 0.500000 0.780774
Si Si2 0.334846 0.429461 0.377148
Si Si3 0.837229 0.191355 0.560201
Si Si4 0.659949 0.887606 0.902632
Si Si5 0.338484 0.191055 0.805406
Si Si6 0.347359 0.804977 0.000000
Si Si7 0.155425 0.000000 0.901414
Si Si8 0.164190 0.596355 0.276144
O O1 0.500000 0.500000 0.760774
O O2 0.650210 0.500000 0.840569
O O3 0.747708 0.554860 0.761002
O O4 0.500000 0.426501 0.365172
O O5 0.309792 0.500000 0.392120
O O6 0.307247 0.374144 0.415650
O O7 0.238062 0.414124 0.329491
O O8 0.815752 0.186362 0.500000
O O9 0.750000 0.250000 0.577634
O O10 0.000000 0.203280 0.569419
O O11 0.500000 0.907613 0.896890
O O12 0.699125 0.854480 0.850602
O O13 0.668055 0.843337 0.949605
O O14 0.759057 0.941874 0.915065
O O15 0.500000 0.204700 0.812824
O O16 0.250000 0.250000 0.809390
O O17 0.323522 0.160671 0.750486
O O18 0.250000 0.750000 0.000000
O O19 0.500000 0.779777 0.000000
O O20 0.000000 0.000000 0.921255
O O21 0.000000 0.581645 0.277945
#
# Coordination Sequence:
#
# PCOD9491813 Si02
#       8
#     8  16  16  16  16   8   8  16
#     4  11  21  35  56  82 110 143 186 228 273 329
#     4  10  21  36  56  85 118 151 192 242 293 341
#     4   9  19  37  60  84 113 153 198 242 290 346
#     4  10  21  39  59  82 112 146 184 227 280 339
#     4  10  22  37  55  79 109 145 186 229 274 329
#     4  10  22  39  62  85 109 146 186 228 281 336
#     4  11  23  36  58  89 112 143 185 230 281 330
#     4  11  22  36  56  82 112 150 188 225 279 338
#
# _framework density 18.082841999999999
#
# number of rings (size 3 to 8) (size 9 to 14) (size 15 to 20)
#    0.000    1.846    2.308    1.385    0.000    4.923 
#    0.000    6.154    0.000    0.000    0.000    3.231 
#    0.000    0.000    0.000    0.000    0.000    0.000 
#
# Total GULP energy -289787.817918 kJ/mol
# GULP energy per Si atom -5572.842652 kJ/mol
# Density = 1.804168 g / cm^3
# Si number density = 18.082842 Si / 1000 Ang^3
#
#
#
# Elastic Constant Matrix: (Units=GPa)
#
#
# Indices 1 2 3 4 5 6 
#
# 1 104.8897 86.8005 31.2840 0.0000 0.0000 0.0000
# 2 86.8005 118.8301 26.4817 0.0000 0.0000 0.0000
# 3 31.2840 26.4817 48.6104 0.0000 0.0000 0.0000
# 4 0.0000 0.0000 0.0000 64.1814 0.0000 0.0000
# 5 0.0000 0.0000 0.0000 0.0000 21.9707 0.0000
# 6 0.0000 0.0000 0.0000 0.0000 0.0000 38.4214
#
#
#
# Elastic Compliance Matrix: (Units=1/GPa)
#
#
# Indices 1 2 3 4 5 6 
#
# 1 0.026214 -0.017515 -0.007329 0.000000 0.000000 0.000000
# 2 -0.017515 0.021281 -0.000321 0.000000 0.000000 0.000000
# 3 -0.007329 -0.000321 0.025463 0.000000 0.000000 0.000000
# 4 0.000000 0.000000 0.000000 0.015581 0.000000 0.000000
# 5 0.000000 0.000000 0.000000 0.000000 0.045515 0.000000
# 6 0.000000 0.000000 0.000000 0.000000 0.000000 0.026027
#
#
# Mechanical properties :
#
#
# Convention : Reuss Voigt Hill
#
# Bulk Modulus (GPa) = 44.19252 62.38473 53.28863
# Shear Modulus (GPa) = 22.94058 33.43231 28.18645
#
# Velocity S-wave (km/s) = 3.56566 4.30448 3.95237
# Velocity P-wave (km/s) = 6.43769 7.69929 7.09658
#
# Compressibility (1/GPa) = 0.02262826
#
# Stress axis : x y z
#
# Youngs Moduli (GPa) = 38.14740 46.99025 39.27226
#
# Poissons Ratio (x) = 0.82304 0.28782
# Poissons Ratio (y) = 0.66815 0.01262
# Poissons Ratio (z) = 0.27957 0.01510
#
# Static dielectric constant tensor:
#      x y z
#    x 1.612390 0.000000 0.000000 
#    y 0.000000 1.624890 0.000000 
#    z 0.000000 0.000000 1.617460 
# 
# From -- ./inp_files/73418.got.cif
#   From: 2010.05.17/outbox.cif.g08.bks.cpg/sg65_37_cif.got.tgz:73418.got - 2010.06.03 17:01:31.
