data_PCOD9491487
_publ_section_title
;
Structure prediction by ZEFSAII (Michael W. Deem and Ramdas Pophale) SiO2 
 PCOD9491487
Probable space group: C M M M
;
_chemical_formula_sum "Si O2"
_cell_formula_units_Z 104
_cell_length_a 30.804230
_cell_length_b 23.257912
_cell_length_c 8.757646
_cell_angle_alpha 90.000000
_cell_angle_beta 90.000000
_cell_angle_gamma 90.000000
_cell_volume 6274.346034
_symmetry_space_group_name_H-M "C M M M"
_symmetry_group_IT_number 65
_symmetry_cell_setting 'orthorhombic'
loop_
_space_group_symop_operation_xyz
x,y,z
-x,-y,z
x,-y,-z
-x,y,-z
-x,-y,-z
x,y,-z
-x,y,z
x,-y,z
1/2+x,1/2+y,z
1/2-x,1/2-y,z
1/2+x,1/2-y,-z
1/2-x,1/2+y,-z
1/2-x,1/2-y,-z
1/2+x,1/2+y,-z
1/2-x,1/2+y,z
1/2+x,1/2-y,z
loop_
_atom_site_type_symbol
_atom_site_label
_atom_site_fract_x
_atom_site_fract_y
_atom_site_fract_z
Si Si1 0.449596 0.717171 0.317278
Si Si2 0.191699 0.067389 0.315123
Si Si3 0.621613 0.934058 0.816446
Si Si4 0.104057 0.112522 0.816706
Si Si5 0.787591 0.569790 0.676328
Si Si6 0.450026 0.157153 0.815525
Si Si7 0.450150 0.500000 0.185782
O O1 0.446122 0.716415 0.500000
O O2 0.500000 0.704499 0.275765
O O3 0.418568 0.669545 0.245707
O O4 0.439840 0.780847 0.255373
O O5 0.190711 0.069595 0.500000
O O6 0.152363 0.102960 0.246032
O O7 0.239904 0.087581 0.266326
O O8 0.186271 0.000000 0.271299
O O9 0.669331 0.913378 0.766105
O O10 0.583780 0.891388 0.764024
O O11 0.615611 0.000000 0.761497
O O12 0.620299 0.935528 0.000000
O O13 0.075504 0.057145 0.766388
O O14 0.104708 0.113588 0.000000
O O15 0.792077 0.587594 0.500000
O O16 0.786091 0.500000 0.678635
O O17 0.500000 0.142640 0.776007
O O18 0.447640 0.161570 0.000000
O O19 0.500000 0.500000 0.238473
O O20 0.450769 0.500000 0.000000
#
# Coordination Sequence:
#
# PCOD9491487 Si02
#       7
#    16  16  16  16  16  16   8
#     4  10  21  36  52  70  93 126 169 209 244 286
#     4   9  17  30  47  68  98 131 164 203 245 290
#     4   9  17  29  48  77 107 131 158 196 240 285
#     4  11  20  31  49  72  98 128 163 204 250 296
#     4   8  15  28  46  68  96 133 167 195 235 288
#     4   9  18  33  52  73  99 132 166 198 237 287
#     4   9  18  30  43  65  97 127 155 193 242 293
#
# _framework density 16.575433
#
# number of rings (size 3 to 8) (size 9 to 14) (size 15 to 20)
#    0.000    2.692    0.769    2.308    0.000    3.077 
#    0.000    3.077    0.000    2.769    0.000   10.769 
#    0.000    0.000    0.000    0.000    0.000    0.000 
#
# Total GULP energy -289823.881824 kJ/mol
# GULP energy per Si atom -5573.536189 kJ/mol
# Density = 1.653771 g / cm^3
# Si number density = 16.575433 Si / 1000 Ang^3
#
#
#
# Elastic Constant Matrix: (Units=GPa)
#
#
# Indices 1 2 3 4 5 6 
#
# 1 165.0059 96.0838 36.8999 0.0000 0.0000 0.0000
# 2 96.0838 92.0598 29.0327 0.0000 0.0000 0.0000
# 3 36.8999 29.0327 20.5143 0.0000 0.0000 0.0000
# 4 0.0000 0.0000 0.0000 16.5722 0.0000 0.0000
# 5 0.0000 0.0000 0.0000 0.0000 25.7280 0.0000
# 6 0.0000 0.0000 0.0000 0.0000 0.0000 15.7385
#
#
#
# Elastic Compliance Matrix: (Units=1/GPa)
#
#
# Indices 1 2 3 4 5 6 
#
# 1 0.016423 -0.014132 -0.009541 0.000000 0.000000 0.000000
# 2 -0.014132 0.031780 -0.019555 0.000000 0.000000 0.000000
# 3 -0.009541 -0.019555 0.093583 0.000000 0.000000 0.000000
# 4 0.000000 0.000000 0.000000 0.060342 0.000000 0.000000
# 5 0.000000 0.000000 0.000000 0.000000 0.038868 0.000000
# 6 0.000000 0.000000 0.000000 0.000000 0.000000 0.063539
#
#
# Mechanical properties :
#
#
# Convention : Reuss Voigt Hill
#
# Bulk Modulus (GPa) = 18.07360 66.84588 42.45974
# Shear Modulus (GPa) = 12.21195 19.31196 15.76196
#
# Velocity S-wave (km/s) = 2.71726 3.41705 3.08705
# Velocity P-wave (km/s) = 4.55765 7.48226 6.19501
#
# Compressibility (1/GPa) = 0.05532931
#
# Stress axis : x y z
#
# Youngs Moduli (GPa) = 60.88913 31.46653 10.68570
#
# Poissons Ratio (x) = 0.44470 0.10195
# Poissons Ratio (y) = 0.86051 0.20896
# Poissons Ratio (z) = 0.58091 0.61534
#
# Static dielectric constant tensor:
#      x y z
#    x 1.565300 0.000000 0.000000 
#    y 0.000000 1.532920 0.000000 
#    z 0.000000 0.000000 1.558810 
# 
# From -- ./inp_files/18694.got.cif
#   From: 2010.05.17/outbox.cif.g08.bks.cpg/sg65_10_cif.got.tgz:18694.got - 2010.06.03 17:01:31.
