data_PCOD9491210
_publ_section_title
;
Structure prediction by ZEFSAII (Michael W. Deem and Ramdas Pophale) SiO2 
 PCOD9491210
Probable space group: C M M M
;
_chemical_formula_sum "Si O2"
_cell_formula_units_Z 64
_cell_length_a 8.320324
_cell_length_b 14.393927
_cell_length_c 22.955347
_cell_angle_alpha 90.000000
_cell_angle_beta 90.000000
_cell_angle_gamma 90.000000
_cell_volume 2749.181396
_symmetry_space_group_name_H-M "C M M M"
_symmetry_group_IT_number 65
_symmetry_cell_setting 'orthorhombic'
loop_
_space_group_symop_operation_xyz
x,y,z
-x,-y,z
x,-y,-z
-x,y,-z
-x,-y,-z
x,y,-z
-x,y,z
x,-y,z
1/2+x,1/2+y,z
1/2-x,1/2-y,z
1/2+x,1/2-y,-z
1/2-x,1/2+y,-z
1/2-x,1/2-y,-z
1/2+x,1/2+y,-z
1/2-x,1/2+y,z
1/2+x,1/2-y,z
loop_
_atom_site_type_symbol
_atom_site_label
_atom_site_fract_x
_atom_site_fract_y
_atom_site_fract_z
Si Si1 0.175541 0.386511 0.632813
Si Si2 0.000000 0.886176 0.567443
Si Si3 0.179614 0.608837 0.871690
Si Si4 0.693967 0.854548 0.000000
Si Si5 0.679116 0.613340 0.751591
O O1 0.175746 0.500000 0.630366
O O2 0.334665 0.355930 0.598484
O O3 0.199697 0.359916 0.700518
O O4 0.000000 0.355804 0.611327
O O5 0.000000 0.859360 0.500000
O O6 0.000000 0.000000 0.570324
O O7 0.161447 0.500000 0.859771
O O8 0.251767 0.612167 0.936659
O O9 0.276566 0.645093 0.816518
O O10 0.000000 0.651288 0.873517
O O11 0.750000 0.750000 0.000000
O O12 0.500000 0.870985 0.000000
O O13 0.500000 0.643879 0.736122
O O14 0.676707 0.500000 0.751595
#
# Coordination Sequence:
#
# PCOD9491210 Si02
#       5
#    16   8  16   8  16
#     4   9  15  23  35  50  72 104 140 182 230 273
#     4   9  16  24  32  46  72 105 145 187 221 268
#     4   9  17  30  48  68  87 112 151 197 240 280
#     4  10  21  35  49  65  91 124 154 188 230 292
#     4   9  15  24  39  60  83 104 133 183 237 277
#
# _framework density 23.279655999999999
#
# number of rings (size 3 to 8) (size 9 to 14) (size 15 to 20)
#    0.000    2.875    1.250    1.125    0.000    6.000 
#    0.000    2.500    0.000    3.750    0.000    0.000 
#    0.000    0.000    0.000    0.000    0.000    1.250 
#
# Total GULP energy -178510.962770 kJ/mol
# GULP energy per Si atom -5578.467587 kJ/mol
# Density = 2.322667 g / cm^3
# Si number density = 23.279656 Si / 1000 Ang^3
#
#
#
# Elastic Constant Matrix: (Units=GPa)
#
#
# Indices 1 2 3 4 5 6 
#
# 1 149.8168 9.2224 87.6871 0.0000 0.0000 0.0000
# 2 9.2224 52.7063 -6.7601 0.0000 0.0000 0.0000
# 3 87.6871 -6.7601 158.0599 0.0000 0.0000 0.0000
# 4 0.0000 0.0000 0.0000 -80.3748 0.0000 0.0000
# 5 0.0000 0.0000 0.0000 0.0000 26.5504 0.0000
# 6 0.0000 0.0000 0.0000 0.0000 0.0000 12.4206
#
#
#
# Elastic Compliance Matrix: (Units=1/GPa)
#
#
# Indices 1 2 3 4 5 6 
#
# 1 0.010208 -0.002526 -0.005771 0.000000 0.000000 0.000000
# 2 -0.002526 0.019703 0.002244 0.000000 0.000000 0.000000
# 3 -0.005771 0.002244 0.009624 0.000000 0.000000 0.000000
# 4 0.000000 0.000000 0.000000 -0.012442 0.000000 0.000000
# 5 0.000000 0.000000 0.000000 0.000000 0.037664 0.000000
# 6 0.000000 0.000000 0.000000 0.000000 0.000000 0.080511
#
#
# Mechanical properties :
#
#
# Convention : Reuss Voigt Hill
#
# Bulk Modulus (GPa) = 36.45807 60.09797 48.27802
# Shear Modulus (GPa) = 30.02650 9.74813 19.88732
#
# Velocity S-wave (km/s) = 3.59530 2.04853 2.92598
# Velocity P-wave (km/s) = 5.73845 5.60955 5.67437
#
# Compressibility (1/GPa) = 0.02742877
#
# Stress axis : x y z
#
# Youngs Moduli (GPa) = 97.95984 50.75373 103.90195
#
# Poissons Ratio (x) = 0.12823 0.59965
# Poissons Ratio (y) = 0.24749 -0.23319
# Poissons Ratio (z) = 0.56536 -0.11391
#
# Static dielectric constant tensor:
#      x y z
#    x 1.664410 0.000000 0.000000 
#    y 0.000000 1.901470 0.000000 
#    z 0.000000 0.000000 1.888650 
# 
# From -- ./inp_files/59113.got.cif
#   From: 2010.05.17/outbox.cif.g08.bks.cpg/sg65_30_cif.got.tgz:59113.got - 2010.06.03 17:01:31.
