data_PCOD9491687
_publ_section_title
;
Structure prediction by ZEFSAII (Michael W. Deem and Ramdas Pophale) SiO2 
 PCOD9491687
Probable space group: C M M M
;
_chemical_formula_sum "Si O2"
_cell_formula_units_Z 88
_cell_length_a 8.632290
_cell_length_b 29.549384
_cell_length_c 18.453238
_cell_angle_alpha 90.000000
_cell_angle_beta 90.000000
_cell_angle_gamma 90.000000
_cell_volume 4707.030765
_symmetry_space_group_name_H-M "C M M M"
_symmetry_group_IT_number 65
_symmetry_cell_setting 'orthorhombic'
loop_
_space_group_symop_operation_xyz
x,y,z
-x,-y,z
x,-y,-z
-x,y,-z
-x,-y,-z
x,y,-z
-x,y,z
x,-y,z
1/2+x,1/2+y,z
1/2-x,1/2-y,z
1/2+x,1/2-y,-z
1/2-x,1/2+y,-z
1/2-x,1/2-y,-z
1/2+x,1/2+y,-z
1/2-x,1/2+y,z
1/2+x,1/2-y,z
loop_
_atom_site_type_symbol
_atom_site_label
_atom_site_fract_x
_atom_site_fract_y
_atom_site_fract_z
Si Si1 0.316078 0.199269 0.500000
Si Si2 0.686971 0.949826 0.146201
Si Si3 0.314589 0.300391 0.216716
Si Si4 0.812588 0.644744 0.081090
Si Si5 0.812884 0.854149 0.362571
Si Si6 0.187081 0.050292 0.690800
O O1 0.500000 0.201872 0.500000
O O2 0.250000 0.250000 0.500000
O O3 0.258780 0.172466 0.429305
O O4 0.500000 0.949509 0.148778
O O5 0.735314 0.907013 0.098613
O O6 0.749567 0.943952 0.227731
O O7 0.735662 0.000000 0.120527
O O8 0.500000 0.299032 0.214032
O O9 0.250000 0.250000 0.224222
O O10 0.252412 0.323613 0.143941
O O11 0.269575 0.330065 0.286866
O O12 0.000000 0.646510 0.083666
O O13 0.763183 0.657579 0.000000
O O14 0.764548 0.906735 0.356725
O O15 0.000000 0.852408 0.369064
O O16 0.000000 0.051300 0.694706
O O17 0.233991 0.000000 0.665280
#
# Coordination Sequence:
#
# PCOD9491687 Si02
#       6
#     8  16  16  16  16  16
#     4  12  26  42  63  90 119 153 188 233 287 336
#     4   9  17  30  51  80 113 149 188 231 279 332
#     4  11  23  39  60  84 108 144 189 237 289 342
#     4  10  21  36  54  79 113 151 191 237 286 337
#     4  10  21  39  62  89 119 151 188 231 279 335
#     4   9  17  32  57  87 117 150 188 228 273 329
#
# _framework density 18.695437999999999
#
# number of rings (size 3 to 8) (size 9 to 14) (size 15 to 20)
#    0.000    2.000    1.818    1.909    0.000    4.727 
#    0.000    2.273    0.000    2.727    0.000    3.818 
#    0.000    0.000    0.000    0.000    0.000    0.000 
#
# Total GULP energy -245625.725449 kJ/mol
# GULP energy per Si atom -5582.402851 kJ/mol
# Density = 1.865289 g / cm^3
# Si number density = 18.695438 Si / 1000 Ang^3
#
#
#
# Elastic Constant Matrix: (Units=GPa)
#
#
# Indices 1 2 3 4 5 6 
#
# 1 21.1326 42.2162 38.5354 0.0000 0.0000 0.0000
# 2 42.2162 162.3848 87.5901 0.0000 0.0000 0.0000
# 3 38.5354 87.5901 132.1709 0.0000 0.0000 0.0000
# 4 0.0000 0.0000 0.0000 11.3841 0.0000 0.0000
# 5 0.0000 0.0000 0.0000 0.0000 27.1849 0.0000
# 6 0.0000 0.0000 0.0000 0.0000 0.0000 14.3071
#
#
#
# Elastic Compliance Matrix: (Units=1/GPa)
#
#
# Indices 1 2 3 4 5 6 
#
# 1 0.138289 -0.022106 -0.025670 0.000000 0.000000 0.000000
# 2 -0.022106 0.013118 -0.002248 0.000000 0.000000 0.000000
# 3 -0.025670 -0.002248 0.016540 0.000000 0.000000 0.000000
# 4 0.000000 0.000000 0.000000 0.087842 0.000000 0.000000
# 5 0.000000 0.000000 0.000000 0.000000 0.036785 0.000000
# 6 0.000000 0.000000 0.000000 0.000000 0.000000 0.069896
#
#
# Mechanical properties :
#
#
# Convention : Reuss Voigt Hill
#
# Bulk Modulus (GPa) = 14.72760 72.48576 43.60668
# Shear Modulus (GPa) = 10.30612 20.39832 15.35222
#
# Velocity S-wave (km/s) = 2.35045 3.30674 2.86872
# Velocity P-wave (km/s) = 3.90652 7.30996 5.86073
#
# Compressibility (1/GPa) = 0.06789971
#
# Stress axis : x y z
#
# Youngs Moduli (GPa) = 7.23125 76.23209 60.45968
#
# Poissons Ratio (x) = 1.68517 1.55197
# Poissons Ratio (y) = 0.15985 0.13592
# Poissons Ratio (z) = 0.18562 0.17138
#
# Static dielectric constant tensor:
#      x y z
#    x 1.658510 0.000000 0.000000 
#    y 0.000000 1.663900 0.000000 
#    z 0.000000 0.000000 1.610890 
# 
# From -- ./inp_files/50288.got.cif
#   From: 2010.05.17/outbox.cif.g08.bks.cpg/sg65_26_cif.got.tgz:50288.got - 2010.06.03 17:01:31.
