data_PCOD9491239
_publ_section_title
;
Structure prediction by ZEFSAII (Michael W. Deem and Ramdas Pophale) SiO2 
 PCOD9491239
Probable space group: C M M M
;
_chemical_formula_sum "Si O2"
_cell_formula_units_Z 96
_cell_length_a 31.399110
_cell_length_b 19.461367
_cell_length_c 9.548135
_cell_angle_alpha 90.000000
_cell_angle_beta 90.000000
_cell_angle_gamma 90.000000
_cell_volume 5834.575066
_symmetry_space_group_name_H-M "C M M M"
_symmetry_group_IT_number 65
_symmetry_cell_setting 'orthorhombic'
loop_
_space_group_symop_operation_xyz
x,y,z
-x,-y,z
x,-y,-z
-x,y,-z
-x,-y,-z
x,y,-z
-x,y,z
x,-y,z
1/2+x,1/2+y,z
1/2-x,1/2-y,z
1/2+x,1/2-y,-z
1/2-x,1/2+y,-z
1/2-x,1/2-y,-z
1/2+x,1/2+y,-z
1/2-x,1/2+y,z
1/2+x,1/2-y,z
loop_
_atom_site_type_symbol
_atom_site_label
_atom_site_fract_x
_atom_site_fract_y
_atom_site_fract_z
Si Si1 0.711207 0.083612 0.160711
Si Si2 0.951093 0.816113 0.834742
Si Si3 0.385621 0.917913 0.833910
Si Si4 0.049826 0.324207 0.665953
Si Si5 0.791819 0.916213 0.660781
Si Si6 0.374927 0.580734 0.165857
O O1 0.663081 0.103539 0.200265
O O2 0.748848 0.107188 0.261665
O O3 0.711485 0.000000 0.161254
O O4 0.719269 0.104729 0.000000
O O5 0.943873 0.749420 0.739958
O O6 0.916524 0.874377 0.803498
O O7 0.000000 0.839486 0.813472
O O8 0.946905 0.797875 0.000000
O O9 0.419405 0.877993 0.741093
O O10 0.388977 0.000000 0.813228
O O11 0.392131 0.904743 0.000000
O O12 0.057873 0.320293 0.500000
O O13 0.000000 0.342867 0.686137
O O14 0.793300 0.893976 0.500000
O O15 0.834033 0.896161 0.745629
O O16 0.791054 0.000000 0.662332
O O17 0.382675 0.500000 0.194519
O O18 0.365372 0.586908 0.000000
#
# Coordination Sequence:
#
# PCOD9491239 Si02
#       6
#    16  16  16  16  16  16
#     4   8  14  26  44  66  93 123 154 189 230 276
#     4   9  18  33  52  71  92 123 162 199 236 283
#     4   9  18  32  51  75  99 124 157 197 239 281
#     4  10  21  35  50  69  95 128 162 195 235 284
#     4   9  16  25  40  65  96 128 159 189 225 274
#     4   9  17  29  47  72  99 125 155 195 241 282
#
# _framework density 16.45364
#
# number of rings (size 3 to 8) (size 9 to 14) (size 15 to 20)
#    0.000    3.000    0.000    2.000    0.000    5.333 
#    0.000    5.000    0.000    1.000    0.000   11.667 
#    0.000    0.000    0.000    0.000    0.000    0.000 
#
# Total GULP energy -267419.376859 kJ/mol
# GULP energy per Si atom -5571.237018 kJ/mol
# Density = 1.641619 g / cm^3
# Si number density = 16.453640 Si / 1000 Ang^3
#
#
#
# Elastic Constant Matrix: (Units=GPa)
#
#
# Indices 1 2 3 4 5 6 
#
# 1 159.1670 68.7699 110.4394 0.0000 0.0000 0.0000
# 2 68.7699 40.0529 53.4805 0.0000 0.0000 0.0000
# 3 110.4394 53.4805 101.6869 0.0000 0.0000 0.0000
# 4 0.0000 0.0000 0.0000 14.9031 0.0000 0.0000
# 5 0.0000 0.0000 0.0000 0.0000 20.8987 0.0000
# 6 0.0000 0.0000 0.0000 0.0000 0.0000 -12.0938
#
#
#
# Elastic Compliance Matrix: (Units=1/GPa)
#
#
# Indices 1 2 3 4 5 6 
#
# 1 0.033731 -0.030225 -0.020738 0.000000 0.000000 0.000000
# 2 -0.030225 0.110936 -0.025518 0.000000 0.000000 0.000000
# 3 -0.020738 -0.025518 0.045778 0.000000 0.000000 0.000000
# 4 0.000000 0.000000 0.000000 0.067100 0.000000 0.000000
# 5 0.000000 0.000000 0.000000 0.000000 0.047850 0.000000
# 6 0.000000 0.000000 0.000000 0.000000 0.000000 -0.082687
#
#
# Mechanical properties :
#
#
# Convention : Reuss Voigt Hill
#
# Bulk Modulus (GPa) = 26.67926 85.14292 55.91109
# Shear Modulus (GPa) = 12.88117 9.28942 11.08529
#
# Velocity S-wave (km/s) = 2.80103 2.37867 2.59844
# Velocity P-wave (km/s) = 5.16827 7.70737 6.56181
#
# Compressibility (1/GPa) = 0.03748230
#
# Stress axis : x y z
#
# Youngs Moduli (GPa) = 29.64631 9.01423 21.84464
#
# Poissons Ratio (x) = 0.27246 0.45301
# Poissons Ratio (y) = 0.89606 0.55743
# Poissons Ratio (z) = 0.61480 0.23003
#
# Static dielectric constant tensor:
#      x y z
#    x 1.548890 0.000000 0.000000 
#    y 0.000000 1.526820 0.000000 
#    z 0.000000 0.000000 1.545850 
# 
# From -- ./inp_files/16324.got.cif
#   From: 2010.05.17/outbox.cif.g08.bks.cpg/sg65_9_cif.got.tgz:16324.got - 2010.06.03 17:01:31.
