data_PCOD9491576
_publ_section_title
;
Structure prediction by ZEFSAII (Michael W. Deem and Ramdas Pophale) SiO2 
 PCOD9491576
Probable space group: C M M M
;
_chemical_formula_sum "Si O2"
_cell_formula_units_Z 104
_cell_length_a 15.344034
_cell_length_b 14.567008
_cell_length_c 20.278296
_cell_angle_alpha 90.000000
_cell_angle_beta 90.000000
_cell_angle_gamma 90.000000
_cell_volume 4532.537115
_symmetry_space_group_name_H-M "C M M M"
_symmetry_group_IT_number 65
_symmetry_cell_setting 'orthorhombic'
loop_
_space_group_symop_operation_xyz
x,y,z
-x,-y,z
x,-y,-z
-x,y,-z
-x,-y,-z
x,y,-z
-x,y,z
x,-y,z
1/2+x,1/2+y,z
1/2-x,1/2-y,z
1/2+x,1/2-y,-z
1/2-x,1/2+y,-z
1/2-x,1/2-y,-z
1/2+x,1/2+y,-z
1/2-x,1/2+y,z
1/2+x,1/2-y,z
loop_
_atom_site_type_symbol
_atom_site_label
_atom_site_fract_x
_atom_site_fract_y
_atom_site_fract_z
Si Si1 0.894668 0.603770 0.000000
Si Si2 0.774099 0.854989 0.426418
Si Si3 0.220440 0.112273 0.803687
Si Si4 0.399523 0.387992 0.925435
Si Si5 0.901919 0.889422 0.313989
Si Si6 0.599195 0.112849 0.854120
Si Si7 0.408245 0.108200 0.575844
O O1 0.875622 0.644769 0.071499
O O2 0.856496 0.500000 0.000000
O O3 0.000000 0.596176 0.000000
O O4 0.781725 0.895792 0.500000
O O5 0.750000 0.750000 0.433513
O O6 0.859975 0.868578 0.384579
O O7 0.685401 0.886154 0.390095
O O8 0.167585 0.140544 0.869296
O O9 0.165190 0.144425 0.741222
O O10 0.321342 0.140517 0.807427
O O11 0.220461 0.000000 0.802821
O O12 0.500000 0.360064 0.911517
O O13 0.399519 0.500000 0.925433
O O14 0.377312 0.358659 0.000000
O O15 0.000000 0.854470 0.305806
O O16 0.905449 0.000000 0.307774
O O17 0.500000 0.141430 0.838171
O O18 0.597357 0.000000 0.856738
O O19 0.401068 0.145220 0.500000
O O20 0.500000 0.144532 0.604323
O O21 0.417894 0.000000 0.569356
#
# Coordination Sequence:
#
# PCOD9491576 Si02
#       7
#     8  16  16  16  16  16  16
#     4   7  10  16  26  44  73 111 156 203 247 290
#     4  10  21  36  55  79 104 130 166 213 260 309
#     4   9  16  25  39  58  88 131 173 210 252 307
#     4   8  13  20  31  50  77 113 161 211 253 296
#     4  10  21  36  53  75 106 144 181 215 259 316
#     4   8  13  20  31  50  79 117 162 208 249 294
#     4   8  14  27  49  75 101 127 154 189 238 295
#
# _framework density 22.945205999999999
#
# number of rings (size 3 to 8) (size 9 to 14) (size 15 to 20)
#    0.000    3.308    0.000    2.769    1.077    3.692 
#    0.000    3.077    0.000    2.769    0.000    0.000 
#    0.000    0.615    0.000    0.000    0.000    0.000 
#
# Total GULP energy -289793.030146 kJ/mol
# GULP energy per Si atom -5572.942887 kJ/mol
# Density = 2.289298 g / cm^3
# Si number density = 22.945206 Si / 1000 Ang^3
#
#
#
# Elastic Constant Matrix: (Units=GPa)
#
#
# Indices 1 2 3 4 5 6 
#
# 1 189.9822 5.1513 86.7001 0.0000 0.0000 0.0000
# 2 5.1513 38.6283 1.1653 0.0000 0.0000 0.0000
# 3 86.7001 1.1653 83.2675 0.0000 0.0000 0.0000
# 4 0.0000 0.0000 0.0000 9.6688 0.0000 0.0000
# 5 0.0000 0.0000 0.0000 0.0000 -1.8573 0.0000
# 6 0.0000 0.0000 0.0000 0.0000 0.0000 55.7709
#
#
#
# Elastic Compliance Matrix: (Units=1/GPa)
#
#
# Indices 1 2 3 4 5 6 
#
# 1 0.010070 -0.001027 -0.010471 0.000000 0.000000 0.000000
# 2 -0.001027 0.026003 0.000705 0.000000 0.000000 0.000000
# 3 -0.010471 0.000705 0.022902 0.000000 0.000000 0.000000
# 4 0.000000 0.000000 0.000000 0.103425 0.000000 0.000000
# 5 0.000000 0.000000 0.000000 0.000000 -0.538402 0.000000
# 6 0.000000 0.000000 0.000000 0.000000 0.000000 0.017931
#
#
# Mechanical properties :
#
#
# Convention : Reuss Voigt Hill
#
# Bulk Modulus (GPa) = 26.74453 55.32348 41.03400
# Shear Modulus (GPa) = -15.43097 27.30723 5.93813
#
# Velocity S-wave (km/s) = -2.59610 3.45353 1.61046
# Velocity P-wave (km/s) = 1.64159 6.32977 4.62389
#
# Compressibility (1/GPa) = 0.03739083
#
# Stress axis : x y z
#
# Youngs Moduli (GPa) = 99.30645 38.45642 43.66461
#
# Poissons Ratio (x) = 0.03949 0.45719
# Poissons Ratio (y) = 0.10199 -0.03080
# Poissons Ratio (z) = 1.03980 -0.02713
#
# Static dielectric constant tensor:
#      x y z
#    x 1.411730 0.000000 0.000000 
#    y 0.000000 1.889660 0.000000 
#    z 0.000000 0.000000 1.859680 
# 
# From -- ./inp_files/62983.got.cif
#   From: 2010.05.17/outbox.cif.g08.bks.cpg/sg65_32_cif.got.tgz:62983.got - 2010.06.03 17:01:31.
