data_PCOD9491531
_publ_section_title
;
Structure prediction by ZEFSAII (Michael W. Deem and Ramdas Pophale) SiO2 
 PCOD9491531
Probable space group: C M M M
;
_chemical_formula_sum "Si O2"
_cell_formula_units_Z 64
_cell_length_a 7.839288
_cell_length_b 41.907151
_cell_length_c 10.322334
_cell_angle_alpha 90.000000
_cell_angle_beta 90.000000
_cell_angle_gamma 90.000000
_cell_volume 3391.116143
_symmetry_space_group_name_H-M "C M M M"
_symmetry_group_IT_number 65
_symmetry_cell_setting 'orthorhombic'
loop_
_space_group_symop_operation_xyz
x,y,z
-x,-y,z
x,-y,-z
-x,y,-z
-x,-y,-z
x,y,-z
-x,y,z
x,-y,z
1/2+x,1/2+y,z
1/2-x,1/2-y,z
1/2+x,1/2-y,-z
1/2-x,1/2+y,-z
1/2-x,1/2-y,-z
1/2+x,1/2+y,-z
1/2-x,1/2+y,z
1/2+x,1/2-y,z
loop_
_atom_site_type_symbol
_atom_site_label
_atom_site_fract_x
_atom_site_fract_y
_atom_site_fract_z
Si Si1 0.791655 0.963723 0.851746
Si Si2 0.708419 0.589005 0.648568
Si Si3 0.295378 0.661104 0.354234
Si Si4 0.702482 0.785907 0.145835
O O1 0.731668 0.937350 0.750219
O O2 0.000000 0.963412 0.850064
O O3 0.739509 0.000000 0.819463
O O4 0.740113 0.956887 0.000000
O O5 0.757804 0.582036 0.500000
O O6 0.500000 0.588702 0.651815
O O7 0.764133 0.625217 0.679657
O O8 0.232660 0.668910 0.500000
O O9 0.500000 0.659361 0.361451
O O10 0.254389 0.687494 0.248388
O O11 0.500000 0.787106 0.136852
O O12 0.750000 0.750000 0.186656
O O13 0.774173 0.791108 0.000000
#
# Coordination Sequence:
#
# PCOD9491531 Si02
#       4
#    16  16  16  16
#     4   8  13  20  30  48  77 112 149 187 225 266
#     4   8  14  24  37  55  81 113 149 187 225 267
#     4   9  18  32  49  70  96 125 158 195 234 278
#     4  10  21  36  53  73  96 122 154 191 231 277
#
# _framework density 18.872843
#
# number of rings (size 3 to 8) (size 9 to 14) (size 15 to 20)
#    0.000    3.250    0.000    3.000    0.000    4.000 
#    0.000    5.000    0.000    0.000    0.000    0.000 
#    0.000    1.000    0.000   11.000    0.000   18.000 
#
# Total GULP energy -178334.099536 kJ/mol
# GULP energy per Si atom -5572.940611 kJ/mol
# Density = 1.882989 g / cm^3
# Si number density = 18.872843 Si / 1000 Ang^3
#
#
#
# Elastic Constant Matrix: (Units=GPa)
#
#
# Indices 1 2 3 4 5 6 
#
# 1 21.6112 10.4371 9.0485 0.0000 0.0000 0.0000
# 2 10.4371 199.8763 160.0534 0.0000 0.0000 0.0000
# 3 9.0485 160.0534 155.0104 0.0000 0.0000 0.0000
# 4 0.0000 0.0000 0.0000 46.7177 0.0000 0.0000
# 5 0.0000 0.0000 0.0000 0.0000 11.3227 0.0000
# 6 0.0000 0.0000 0.0000 0.0000 0.0000 7.4045
#
#
#
# Elastic Compliance Matrix: (Units=1/GPa)
#
#
# Indices 1 2 3 4 5 6 
#
# 1 0.047509 -0.001502 -0.001223 0.000000 0.000000 0.000000
# 2 -0.001502 0.028936 -0.029790 0.000000 0.000000 0.000000
# 3 -0.001223 -0.029790 0.037281 0.000000 0.000000 0.000000
# 4 0.000000 0.000000 0.000000 0.021405 0.000000 0.000000
# 5 0.000000 0.000000 0.000000 0.000000 0.088318 0.000000
# 6 0.000000 0.000000 0.000000 0.000000 0.000000 0.135053
#
#
# Mechanical properties :
#
#
# Convention : Reuss Voigt Hill
#
# Bulk Modulus (GPa) = 20.53450 81.73065 51.13258
# Shear Modulus (GPa) = 11.36976 26.21958 18.79467
#
# Velocity S-wave (km/s) = 2.45713 3.73134 3.15915
# Velocity P-wave (km/s) = 4.35362 7.87171 6.36074
#
# Compressibility (1/GPa) = 0.04869853
#
# Stress axis : x y z
#
# Youngs Moduli (GPa) = 21.04846 34.55917 26.82312
#
# Poissons Ratio (x) = 0.05190 0.03280
# Poissons Ratio (y) = 0.03161 0.79905
# Poissons Ratio (z) = 0.02574 1.02950
#
# Static dielectric constant tensor:
#      x y z
#    x 1.740440 0.000000 0.000000 
#    y 0.000000 1.654130 0.000000 
#    z 0.000000 0.000000 1.665910 
# 
# From -- ./inp_files/20914.got.cif
#   From: 2010.05.17/outbox.cif.g08.bks.cpg/sg65_11_cif.got.tgz:20914.got - 2010.06.03 17:01:31.
