data_PCOD9491708
_publ_section_title
;
Structure prediction by ZEFSAII (Michael W. Deem and Ramdas Pophale) SiO2 
 PCOD9491708
Probable space group: C M M M
;
_chemical_formula_sum "Si O2"
_cell_formula_units_Z 64
_cell_length_a 27.478554
_cell_length_b 10.198045
_cell_length_c 14.064105
_cell_angle_alpha 90.000000
_cell_angle_beta 90.000000
_cell_angle_gamma 90.000000
_cell_volume 3941.149409
_symmetry_space_group_name_H-M "C M M M"
_symmetry_group_IT_number 65
_symmetry_cell_setting 'orthorhombic'
loop_
_space_group_symop_operation_xyz
x,y,z
-x,-y,z
x,-y,-z
-x,y,-z
-x,-y,-z
x,y,-z
-x,y,z
x,-y,z
1/2+x,1/2+y,z
1/2-x,1/2-y,z
1/2+x,1/2-y,-z
1/2-x,1/2+y,-z
1/2-x,1/2-y,-z
1/2+x,1/2+y,-z
1/2-x,1/2+y,z
1/2+x,1/2-y,z
loop_
_atom_site_type_symbol
_atom_site_label
_atom_site_fract_x
_atom_site_fract_y
_atom_site_fract_z
Si Si1 0.443106 0.342818 0.111441
Si Si2 0.796739 0.843610 0.612102
Si Si3 0.558179 0.000000 0.614337
Si Si4 0.057519 0.000000 0.393729
Si Si5 0.894919 0.244461 0.707283
O O1 0.500000 0.315489 0.134867
O O2 0.436067 0.500000 0.123598
O O3 0.407619 0.265114 0.181393
O O4 0.435955 0.313601 0.000000
O O5 0.810675 0.833064 0.500000
O O6 0.750000 0.750000 0.625210
O O7 0.839839 0.787948 0.677693
O O8 0.788347 0.000000 0.630428
O O9 0.584579 0.875215 0.659945
O O10 0.500000 0.000000 0.634231
O O11 0.563831 0.000000 0.500000
O O12 0.074671 0.126815 0.339121
O O13 0.078468 0.000000 0.500000
O O14 0.000000 0.000000 0.399268
#
# Coordination Sequence:
#
# PCOD9491708 Si02
#       5
#    16  16   8   8  16
#     4   9  17  31  54  83 110 138 179 229 276 324
#     4  10  21  36  55  79 105 138 184 233 280 331
#     4  11  24  36  48  76 118 155 182 214 268 335
#     4  11  20  30  50  78 106 137 176 218 260 323
#     4  12  21  35  55  77 108 148 185 223 272 327
#
# _framework density 16.238918000000002
#
# number of rings (size 3 to 8) (size 9 to 14) (size 15 to 20)
#    0.000    1.500    2.500    5.250    1.750    2.000 
#    0.000    0.625    0.000    3.000    0.000    0.000 
#    0.000    0.000    0.000    0.000    0.000    0.000 
#
# Total GULP energy -178576.858103 kJ/mol
# GULP energy per Si atom -5580.526816 kJ/mol
# Density = 1.620196 g / cm^3
# Si number density = 16.238918 Si / 1000 Ang^3
#
#
#
# Elastic Constant Matrix: (Units=GPa)
#
#
# Indices 1 2 3 4 5 6 
#
# 1 115.1256 51.5876 60.5988 0.0000 0.0000 0.0000
# 2 51.5876 121.2071 43.1103 0.0000 0.0000 0.0000
# 3 60.5988 43.1103 100.7909 0.0000 0.0000 0.0000
# 4 0.0000 0.0000 0.0000 35.8629 0.0000 0.0000
# 5 0.0000 0.0000 0.0000 0.0000 26.9588 0.0000
# 6 0.0000 0.0000 0.0000 0.0000 0.0000 27.1950
#
#
#
# Elastic Compliance Matrix: (Units=1/GPa)
#
#
# Indices 1 2 3 4 5 6 
#
# 1 0.013835 -0.003456 -0.006840 0.000000 0.000000 0.000000
# 2 -0.003456 0.010594 -0.002454 0.000000 0.000000 0.000000
# 3 -0.006840 -0.002454 0.015083 0.000000 0.000000 0.000000
# 4 0.000000 0.000000 0.000000 0.027884 0.000000 0.000000
# 5 0.000000 0.000000 0.000000 0.000000 0.037094 0.000000
# 6 0.000000 0.000000 0.000000 0.000000 0.000000 0.036771
#
#
# Mechanical properties :
#
#
# Convention : Reuss Voigt Hill
#
# Bulk Modulus (GPa) = 71.35799 71.96854 71.66327
# Shear Modulus (GPa) = 29.16629 30.12514 29.64571
#
# Velocity S-wave (km/s) = 4.24261 4.31178 4.27734
# Velocity P-wave (km/s) = 8.24849 8.31886 8.28375
#
# Compressibility (1/GPa) = 0.01401385
#
# Stress axis : x y z
#
# Youngs Moduli (GPa) = 72.28055 94.39532 66.29797
#
# Poissons Ratio (x) = 0.32619 0.45348
# Poissons Ratio (y) = 0.24977 0.16267
# Poissons Ratio (z) = 0.49440 0.23161
#
# Static dielectric constant tensor:
#      x y z
#    x 1.548120 0.000000 0.000000 
#    y 0.000000 1.518810 0.000000 
#    z 0.000000 0.000000 1.567740 
# 
# From -- ./inp_files/46376.got.cif
#   From: 2010.05.17/outbox.cif.g08.bks.cpg/sg65_24_cif.got.tgz:46376.got - 2010.06.03 17:01:31.
