data_PCOD9491698
_publ_section_title
;
Structure prediction by ZEFSAII (Michael W. Deem and Ramdas Pophale) SiO2 
 PCOD9491698
Probable space group: C M M M
;
_chemical_formula_sum "Si O2"
_cell_formula_units_Z 64
_cell_length_a 26.481376
_cell_length_b 15.142007
_cell_length_c 8.712640
_cell_angle_alpha 90.000000
_cell_angle_beta 90.000000
_cell_angle_gamma 90.000000
_cell_volume 3493.604675
_symmetry_space_group_name_H-M "C M M M"
_symmetry_group_IT_number 65
_symmetry_cell_setting 'orthorhombic'
loop_
_space_group_symop_operation_xyz
x,y,z
-x,-y,z
x,-y,-z
-x,y,-z
-x,-y,-z
x,y,-z
-x,y,z
x,-y,z
1/2+x,1/2+y,z
1/2-x,1/2-y,z
1/2+x,1/2-y,-z
1/2-x,1/2+y,-z
1/2-x,1/2-y,-z
1/2+x,1/2+y,-z
1/2-x,1/2+y,z
1/2+x,1/2-y,z
loop_
_atom_site_type_symbol
_atom_site_label
_atom_site_fract_x
_atom_site_fract_y
_atom_site_fract_z
Si Si1 0.059253 0.000000 0.316636
Si Si2 0.000000 0.396588 0.683885
Si Si3 0.135551 0.137581 0.184254
Si Si4 0.213234 0.000000 0.682829
Si Si5 0.174741 0.500000 0.814632
Si Si6 0.894276 0.333795 0.185085
O O1 0.086853 0.915685 0.243958
O O2 0.067432 0.000000 0.500000
O O3 0.000000 0.000000 0.285849
O O4 0.949410 0.350582 0.745418
O O5 0.000000 0.500000 0.733171
O O6 0.000000 0.394205 0.500000
O O7 0.129346 0.239539 0.229001
O O8 0.183097 0.085380 0.253714
O O9 0.138310 0.131586 0.000000
O O10 0.210803 0.000000 0.500000
O O11 0.270322 0.000000 0.740844
O O12 0.142529 0.413852 0.770169
O O13 0.180102 0.500000 0.000000
O O14 0.899105 0.335012 0.000000
#
# Coordination Sequence:
#
# PCOD9491698 Si02
#       6
#     8   8  16   8   8  16
#     4  10  21  36  54  80 116 155 190 232 291 350
#     4  11  23  37  57  86 123 160 191 235 290 344
#     4  10  21  38  60  86 113 148 196 243 286 339
#     4  11  23  40  61  85 117 154 189 239 299 350
#     4  10  21  40  63  85 114 152 195 242 287 341
#     4  10  22  39  62  88 116 154 198 241 286 339
#
# _framework density 18.319189000000001
#
# number of rings (size 3 to 8) (size 9 to 14) (size 15 to 20)
#    0.000    1.750    1.250    4.125    1.750    5.500 
#    0.000    5.000    0.000    0.000    0.000    0.000 
#    0.000    0.000    0.000    0.000    0.000    0.000 
#
# Total GULP energy -178785.701595 kJ/mol
# GULP energy per Si atom -5587.053175 kJ/mol
# Density = 1.827749 g / cm^3
# Si number density = 18.319189 Si / 1000 Ang^3
#
#
#
# Elastic Constant Matrix: (Units=GPa)
#
#
# Indices 1 2 3 4 5 6 
#
# 1 182.8034 102.4553 61.1130 0.0000 0.0000 0.0000
# 2 102.4553 196.6986 56.6837 0.0000 0.0000 0.0000
# 3 61.1130 56.6837 57.5270 0.0000 0.0000 0.0000
# 4 0.0000 0.0000 0.0000 2.1410 0.0000 0.0000
# 5 0.0000 0.0000 0.0000 0.0000 76.0590 0.0000
# 6 0.0000 0.0000 0.0000 0.0000 0.0000 -1.2454
#
#
#
# Elastic Compliance Matrix: (Units=1/GPa)
#
#
# Indices 1 2 3 4 5 6 
#
# 1 0.009504 -0.002850 -0.007288 0.000000 0.000000 0.000000
# 2 -0.002850 0.007955 -0.004810 0.000000 0.000000 0.000000
# 3 -0.007288 -0.004810 0.029866 0.000000 0.000000 0.000000
# 4 0.000000 0.000000 0.000000 0.467062 0.000000 0.000000
# 5 0.000000 0.000000 0.000000 0.000000 0.013148 0.000000
# 6 0.000000 0.000000 0.000000 0.000000 0.000000 -0.802945
#
#
# Mechanical properties :
#
#
# Convention : Reuss Voigt Hill
#
# Bulk Modulus (GPa) = 57.38229 97.50368 77.44299
# Shear Modulus (GPa) = -20.85907 29.84272 4.49182
#
# Velocity S-wave (km/s) = -3.37804 4.04052 1.56758
# Velocity P-wave (km/s) = 4.02203 8.66650 6.75592
#
# Compressibility (1/GPa) = 0.01742698
#
# Stress axis : x y z
#
# Youngs Moduli (GPa) = 105.21411 125.71130 33.48345
#
# Poissons Ratio (x) = 0.35831 0.24404
# Poissons Ratio (y) = 0.29989 0.16106
# Poissons Ratio (z) = 0.76684 0.60469
#
# Static dielectric constant tensor:
#      x y z
#    x 1.587060 0.000000 0.000000 
#    y 0.000000 1.638320 0.000000 
#    z 0.000000 0.000000 1.614140 
# 
# From -- ./inp_files/13431.got.cif
#   From: 2010.05.17/outbox.cif.g08.bks.cpg/sg65_7_cif.got.tgz:13431.got - 2010.06.03 17:01:31.
