data_PCOD9491199
_publ_section_title
;
Structure prediction by ZEFSAII (Michael W. Deem and Ramdas Pophale) SiO2 
 PCOD9491199
Probable space group: C M M M
;
_chemical_formula_sum "Si O2"
_cell_formula_units_Z 90
_cell_length_a 20.247569
_cell_length_b 27.894787
_cell_length_c 8.465844
_cell_angle_alpha 90.000000
_cell_angle_beta 90.000000
_cell_angle_gamma 90.000000
_cell_volume 4781.522444
_symmetry_space_group_name_H-M "C M M M"
_symmetry_group_IT_number 65
_symmetry_cell_setting 'orthorhombic'
loop_
_space_group_symop_operation_xyz
x,y,z
-x,-y,z
x,-y,-z
-x,y,-z
-x,-y,-z
x,y,-z
-x,y,z
x,-y,z
1/2+x,1/2+y,z
1/2-x,1/2-y,z
1/2+x,1/2-y,-z
1/2-x,1/2+y,-z
1/2-x,1/2-y,-z
1/2+x,1/2+y,-z
1/2-x,1/2+y,z
1/2+x,1/2-y,z
loop_
_atom_site_type_symbol
_atom_site_label
_atom_site_fract_x
_atom_site_fract_y
_atom_site_fract_z
Si Si1 0.579977 0.277805 0.319086
Si Si2 0.192267 0.054491 0.187421
Si Si3 0.678435 0.098064 0.681325
Si Si4 0.000000 0.500000 0.000000
Si Si5 0.424326 0.617221 0.690713
Si Si6 0.424038 0.824933 0.186924
Si Si7 0.403552 0.000000 0.685413
O O1 0.603194 0.272130 0.500000
O O2 0.500000 0.280513 0.323579
O O3 0.600142 0.329889 0.254902
O O4 0.595624 0.229808 0.224627
O O5 0.253354 0.088863 0.229329
O O6 0.125497 0.076480 0.256909
O O7 0.204238 0.000000 0.246851
O O8 0.186146 0.052445 0.000000
O O9 0.694666 0.108402 0.500000
O O10 0.628882 0.138741 0.742482
O O11 0.639125 0.048122 0.691638
O O12 0.944507 0.500000 0.148091
O O13 0.425584 0.619699 0.500000
O O14 0.500000 0.609467 0.744312
O O15 0.500000 0.832713 0.247513
O O16 0.426156 0.832203 0.000000
O O17 0.430924 0.000000 0.500000
#
# Coordination Sequence:
#
# PCOD9491199 Si02
#       7
#    16  16  16   2  16  16   8
#     4   8  15  32  56  83 115 151 188 230 286 344
#     4  11  24  40  60  84 115 153 194 238 298 362
#     4  11  23  40  59  80 113 154 202 250 289 354
#     4  12  26  36  68  82 124 160 188 288 304 350
#     4   9  19  37  63  91 118 150 189 234 289 352
#     4  10  21  34  55  86 119 154 195 237 290 349
#     4  10  25  41  59  88 116 160 211 249 314 371
#
# _framework density 18.822457
#
# number of rings (size 3 to 8) (size 9 to 14) (size 15 to 20)
#    0.000    2.133    0.889    2.800    3.733    3.556 
#    0.000    4.444    0.000    5.333    0.000    0.000 
#    0.000    0.000    0.000    0.000    0.000    0.000 
#
# Total GULP energy -250530.708124 kJ/mol
# GULP energy per Si atom -5567.349069 kJ/mol
# Density = 1.877962 g / cm^3
# Si number density = 18.822457 Si / 1000 Ang^3
#
#
#
# Elastic Constant Matrix: (Units=GPa)
#
#
# Indices 1 2 3 4 5 6 
#
# 1 88.4577 46.6058 25.8482 0.0000 0.0000 0.0000
# 2 46.6058 89.2941 22.8753 0.0000 0.0000 0.0000
# 3 25.8482 22.8753 62.2537 0.0000 0.0000 0.0000
# 4 0.0000 0.0000 0.0000 42.5555 0.0000 0.0000
# 5 0.0000 0.0000 0.0000 0.0000 29.7005 0.0000
# 6 0.0000 0.0000 0.0000 0.0000 0.0000 -9.8489
#
#
#
# Elastic Compliance Matrix: (Units=1/GPa)
#
#
# Indices 1 2 3 4 5 6 
#
# 1 0.016474 -0.007557 -0.004063 0.000000 0.000000 0.000000
# 2 -0.007557 0.015830 -0.002679 0.000000 0.000000 0.000000
# 3 -0.004063 -0.002679 0.018735 0.000000 0.000000 0.000000
# 4 0.000000 0.000000 0.000000 0.023499 0.000000 0.000000
# 5 0.000000 0.000000 0.000000 0.000000 0.033669 0.000000
# 6 0.000000 0.000000 0.000000 0.000000 0.000000 -0.101534
#
#
# Mechanical properties :
#
#
# Convention : Reuss Voigt Hill
#
# Bulk Modulus (GPa) = 44.56393 47.85156 46.20775
# Shear Modulus (GPa) = 116.95773 22.12650 69.54212
#
# Velocity S-wave (km/s) = 7.89128 3.43233 6.08495
# Velocity P-wave (km/s) = 10.33233 6.41760 8.60066
#
# Compressibility (1/GPa) = 0.02243967
#
# Stress axis : x y z
#
# Youngs Moduli (GPa) = 60.70210 63.17250 53.37702
#
# Poissons Ratio (x) = 0.47742 0.21688
# Poissons Ratio (y) = 0.45875 0.14298
# Poissons Ratio (z) = 0.24664 0.16922
#
# Static dielectric constant tensor:
#      x y z
#    x 1.644090 0.000000 0.000000 
#    y 0.000000 1.672220 0.000000 
#    z 0.000000 0.000000 1.656220 
# 
# From -- ./inp_files/11862.got.cif
#   From: 2010.05.17/outbox.cif.g08.bks.cpg/sg65_6_cif.got.tgz:11862.got - 2010.06.03 17:01:31.
