data_PCOD9491957
_publ_section_title
;
Structure prediction by ZEFSAII (Michael W. Deem and Ramdas Pophale) SiO2 
 PCOD9491957
Probable space group: C M M M
;
_chemical_formula_sum "Si O2"
_cell_formula_units_Z 58
_cell_length_a 25.918811
_cell_length_b 14.779837
_cell_length_c 9.045154
_cell_angle_alpha 90.000000
_cell_angle_beta 90.000000
_cell_angle_gamma 90.000000
_cell_volume 3464.979621
_symmetry_space_group_name_H-M "C M M M"
_symmetry_group_IT_number 65
_symmetry_cell_setting 'orthorhombic'
loop_
_space_group_symop_operation_xyz
x,y,z
-x,-y,z
x,-y,-z
-x,y,-z
-x,-y,-z
x,y,-z
-x,y,z
x,-y,z
1/2+x,1/2+y,z
1/2-x,1/2-y,z
1/2+x,1/2-y,-z
1/2-x,1/2+y,-z
1/2-x,1/2-y,-z
1/2+x,1/2+y,-z
1/2-x,1/2+y,z
1/2+x,1/2-y,z
loop_
_atom_site_type_symbol
_atom_site_label
_atom_site_fract_x
_atom_site_fract_y
_atom_site_fract_z
Si Si1 0.798133 0.686892 0.677174
Si Si2 0.606165 0.315897 0.322975
Si Si3 0.146418 0.000000 0.825375
Si Si4 0.229254 0.500000 0.173289
Si Si5 0.500000 0.688286 0.163572
Si Si6 0.000000 0.000000 0.000000
O O1 0.794749 0.675117 0.500000
O O2 0.750000 0.750000 0.723327
O O3 0.850412 0.740888 0.710794
O O4 0.792814 0.590237 0.752866
O O5 0.603057 0.326181 0.500000
O O6 0.624321 0.410295 0.250544
O O7 0.551405 0.290262 0.253683
O O8 0.208376 0.000000 0.810226
O O9 0.131805 0.000000 0.000000
O O10 0.217916 0.500000 0.000000
O O11 0.500000 0.732113 0.000000
O O12 0.500000 0.580794 0.126369
#
# Coordination Sequence:
#
# PCOD9491957 Si02
#       6
#    16  16   8   8   8   2
#     4  10  21  38  58  82 113 150 191 233 284 337
#     4  11  22  36  58  83 110 151 198 235 273 335
#     4  11  22  33  51  81 118 155 183 230 283 334
#     4  11  23  36  55  84 118 151 189 233 284 341
#     4  10  21  37  55  78 115 150 183 231 286 334
#     4   8  20  36  54  76 112 158 182 216 284 338
#
# _framework density 16.738914000000001
#
# number of rings (size 3 to 8) (size 9 to 14) (size 15 to 20)
#    0.414    1.103    2.759    2.897    1.931    3.862 
#    0.000    2.069    0.000    0.828    0.000    5.793 
#    0.000    0.000    0.000    0.000    0.000    0.000 
#
# Total GULP energy -161685.406886 kJ/mol
# GULP energy per Si atom -5575.358858 kJ/mol
# Density = 1.670082 g / cm^3
# Si number density = 16.738914 Si / 1000 Ang^3
#
#
#
# Elastic Constant Matrix: (Units=GPa)
#
#
# Indices 1 2 3 4 5 6 
#
# 1 146.4905 79.1740 86.2328 0.0000 0.0000 0.0000
# 2 79.1740 136.5236 71.2797 0.0000 0.0000 0.0000
# 3 86.2328 71.2797 95.7532 0.0000 0.0000 0.0000
# 4 0.0000 0.0000 0.0000 7.5871 0.0000 0.0000
# 5 0.0000 0.0000 0.0000 0.0000 27.1916 0.0000
# 6 0.0000 0.0000 0.0000 0.0000 0.0000 7.5410
#
#
#
# Elastic Compliance Matrix: (Units=1/GPa)
#
#
# Indices 1 2 3 4 5 6 
#
# 1 0.015119 -0.002714 -0.011595 0.000000 0.000000 0.000000
# 2 -0.002714 0.012469 -0.006838 0.000000 0.000000 0.000000
# 3 -0.011595 -0.006838 0.025976 0.000000 0.000000 0.000000
# 4 0.000000 0.000000 0.000000 0.131803 0.000000 0.000000
# 5 0.000000 0.000000 0.000000 0.000000 0.036776 0.000000
# 6 0.000000 0.000000 0.000000 0.000000 0.000000 0.132608
#
#
# Mechanical properties :
#
#
# Convention : Reuss Voigt Hill
#
# Bulk Modulus (GPa) = 88.73457 94.68228 91.70842
# Shear Modulus (GPa) = 12.47499 17.93598 15.20548
#
# Velocity S-wave (km/s) = 2.73292 3.27695 3.01722
# Velocity P-wave (km/s) = 7.94258 8.42644 8.18808
#
# Compressibility (1/GPa) = 0.01126957
#
# Stress axis : x y z
#
# Youngs Moduli (GPa) = 66.14242 80.20145 38.49678
#
# Poissons Ratio (x) = 0.21765 0.44639
# Poissons Ratio (y) = 0.17950 0.26323
# Poissons Ratio (z) = 0.76695 0.54840
#
# Static dielectric constant tensor:
#      x y z
#    x 1.580000 0.000000 0.000000 
#    y 0.000000 1.515740 0.000000 
#    z 0.000000 0.000000 1.562510 
# 
# From -- ./inp_files/15478.got.cif
#   From: 2010.05.17/outbox.cif.g08.bks.cpg/sg65_8_cif.got.tgz:15478.got - 2010.06.03 17:01:31.
