data_PCOD9491451
_publ_section_title
;
Structure prediction by ZEFSAII (Michael W. Deem and Ramdas Pophale) SiO2 
 PCOD9491451
Probable space group: C M M M
;
_chemical_formula_sum "Si O2"
_cell_formula_units_Z 88
_cell_length_a 7.910700
_cell_length_b 19.656894
_cell_length_c 30.563742
_cell_angle_alpha 90.000000
_cell_angle_beta 90.000000
_cell_angle_gamma 90.000000
_cell_volume 4752.655504
_symmetry_space_group_name_H-M "C M M M"
_symmetry_group_IT_number 65
_symmetry_cell_setting 'orthorhombic'
loop_
_space_group_symop_operation_xyz
x,y,z
-x,-y,z
x,-y,-z
-x,y,-z
-x,-y,-z
x,y,-z
-x,y,z
x,-y,z
1/2+x,1/2+y,z
1/2-x,1/2-y,z
1/2+x,1/2-y,-z
1/2-x,1/2+y,-z
1/2-x,1/2-y,-z
1/2+x,1/2+y,-z
1/2-x,1/2+y,z
1/2+x,1/2-y,z
loop_
_atom_site_type_symbol
_atom_site_label
_atom_site_fract_x
_atom_site_fract_y
_atom_site_fract_z
Si Si1 0.300503 0.173580 0.303904
Si Si2 0.797242 0.077146 0.225041
Si Si3 0.294024 0.829391 0.595062
Si Si4 0.700871 0.171844 0.951661
Si Si5 0.703004 0.422431 0.871251
Si Si6 0.000000 0.080133 0.447501
O O1 0.500000 0.170417 0.305940
O O2 0.250000 0.250000 0.292068
O O3 0.243963 0.122763 0.266377
O O4 0.243913 0.160145 0.353726
O O5 0.737240 0.101654 0.176974
O O6 0.000000 0.074239 0.222777
O O7 0.734010 0.000000 0.230953
O O8 0.500000 0.839214 0.589617
O O9 0.250000 0.750000 0.584738
O O10 0.168840 0.879791 0.568918
O O11 0.500000 0.168487 0.954001
O O12 0.750000 0.250000 0.943749
O O13 0.753548 0.124716 0.911760
O O14 0.769868 0.152306 0.000000
O O15 0.500000 0.425086 0.869483
O O16 0.764516 0.500000 0.877486
O O17 0.000000 0.081474 0.500000
O O18 0.000000 0.000000 0.433620
#
# Coordination Sequence:
#
# PCOD9491451 Si02
#       6
#    16  16  16  16  16   8
#     4  10  21  35  57  85 115 149 190 237 285 335
#     4   9  19  35  54  78 109 146 184 223 272 331
#     4  10  21  41  66  94 126 165 215 264 309 373
#     4  10  21  36  54  76 101 132 172 219 273 330
#     4   9  19  36  55  76 105 140 179 221 267 326
#     4  11  26  44  64  96 133 169 211 261 321 377
#
# _framework density 18.515964
#
# number of rings (size 3 to 8) (size 9 to 14) (size 15 to 20)
#    0.000    2.273    0.909    2.182    2.545    5.455 
#    0.000    6.364    0.000    0.000    0.000    0.000 
#    0.000    0.000    0.000    0.000    0.000    0.000 
#
# Total GULP energy -245223.887557 kJ/mol
# GULP energy per Si atom -5573.270172 kJ/mol
# Density = 1.847382 g / cm^3
# Si number density = 18.515964 Si / 1000 Ang^3
#
#
#
# Elastic Constant Matrix: (Units=GPa)
#
#
# Indices 1 2 3 4 5 6 
#
# 1 61.6066 39.7068 38.4143 0.0000 0.0000 0.0000
# 2 39.7068 109.7467 96.1669 0.0000 0.0000 0.0000
# 3 38.4143 96.1669 128.5564 0.0000 0.0000 0.0000
# 4 0.0000 0.0000 0.0000 39.9840 0.0000 0.0000
# 5 0.0000 0.0000 0.0000 0.0000 31.7198 0.0000
# 6 0.0000 0.0000 0.0000 0.0000 0.0000 22.8150
#
#
#
# Elastic Compliance Matrix: (Units=1/GPa)
#
#
# Indices 1 2 3 4 5 6 
#
# 1 0.021302 -0.006181 -0.001741 0.000000 0.000000 0.000000
# 2 -0.006181 0.028242 -0.019280 0.000000 0.000000 0.000000
# 3 -0.001741 -0.019280 0.022721 0.000000 0.000000 0.000000
# 4 0.000000 0.000000 0.000000 0.025010 0.000000 0.000000
# 5 0.000000 0.000000 0.000000 0.000000 0.031526 0.000000
# 6 0.000000 0.000000 0.000000 0.000000 0.000000 0.043831
#
#
# Mechanical properties :
#
#
# Convention : Reuss Voigt Hill
#
# Bulk Modulus (GPa) = 55.98850 72.05396 64.02123
# Shear Modulus (GPa) = 21.46010 27.27853 24.36931
#
# Velocity S-wave (km/s) = 3.40811 3.84245 3.63178
# Velocity P-wave (km/s) = 6.76687 7.66061 7.22757
#
# Compressibility (1/GPa) = 0.01786081
#
# Stress axis : x y z
#
# Youngs Moduli (GPa) = 46.94448 35.40783 44.01151
#
# Poissons Ratio (x) = 0.21886 0.07665
# Poissons Ratio (y) = 0.29017 0.84853
# Poissons Ratio (z) = 0.08175 0.68265
#
# Static dielectric constant tensor:
#      x y z
#    x 1.657760 0.000000 0.000000 
#    y 0.000000 1.597730 0.000000 
#    z 0.000000 0.000000 1.694720 
# 
# From -- ./inp_files/76627.got.cif
#   From: 2010.05.17/outbox.cif.g08.bks.cpg/sg65_39_cif.got.tgz:76627.got - 2010.06.03 17:01:31.
