data_PCOD9491193
_publ_section_title
;
Structure prediction by ZEFSAII (Michael W. Deem and Ramdas Pophale) SiO2 
 PCOD9491193
Probable space group: C M M M
;
_chemical_formula_sum "Si O2"
_cell_formula_units_Z 112
_cell_length_a 27.186761
_cell_length_b 15.058573
_cell_length_c 14.600112
_cell_angle_alpha 90.000000
_cell_angle_beta 90.000000
_cell_angle_gamma 90.000000
_cell_volume 5977.195699
_symmetry_space_group_name_H-M "C M M M"
_symmetry_group_IT_number 65
_symmetry_cell_setting 'orthorhombic'
loop_
_space_group_symop_operation_xyz
x,y,z
-x,-y,z
x,-y,-z
-x,y,-z
-x,-y,-z
x,y,-z
-x,y,z
x,-y,z
1/2+x,1/2+y,z
1/2-x,1/2-y,z
1/2+x,1/2-y,-z
1/2-x,1/2+y,-z
1/2-x,1/2-y,-z
1/2+x,1/2+y,-z
1/2-x,1/2+y,z
1/2+x,1/2-y,z
loop_
_atom_site_type_symbol
_atom_site_label
_atom_site_fract_x
_atom_site_fract_y
_atom_site_fract_z
Si Si1 0.881756 0.893528 0.395592
Si Si2 0.775625 0.837465 0.608606
Si Si3 0.171706 0.400503 0.600210
Si Si4 0.230158 0.897306 0.891430
Si Si5 0.057619 0.894094 0.777938
Si Si6 0.135004 0.218265 0.891534
Si Si7 0.163307 0.393913 0.197742
O O1 0.889839 0.862008 0.500000
O O2 0.829165 0.860898 0.356314
O O3 0.924937 0.872498 0.325490
O O4 0.877255 0.000000 0.400193
O O5 0.783942 0.823474 0.500000
O O6 0.750000 0.750000 0.647897
O O7 0.730909 0.905824 0.611997
O O8 0.162598 0.357494 0.500000
O O9 0.152101 0.500000 0.595436
O O10 0.154119 0.363704 0.696946
O O11 0.187255 0.828668 0.867043
O O12 0.279265 0.886728 0.831600
O O13 0.213076 0.000000 0.880561
O O14 0.242576 0.885221 0.000000
O O15 0.091867 0.836158 0.843139
O O16 0.000000 0.877136 0.790597
O O17 0.066229 0.000000 0.792271
O O18 0.135907 0.321595 0.863665
O O19 0.130290 0.209885 0.000000
O O20 0.151393 0.500000 0.188517
#
# Coordination Sequence:
#
# PCOD9491193 Si02
#       7
#    16  16  16  16  16  16  16
#     4   9  18  33  54  79 111 152 189 221 265 324
#     4   9  17  26  41  71 109 148 187 222 254 300
#     4   9  18  31  45  66 104 151 189 217 249 296
#     4   9  18  33  53  79 110 144 184 226 270 326
#     4  10  23  41  60  84 110 137 179 236 292 344
#     4  11  23  38  58  81 107 142 185 234 287 341
#     4  10  21  34  53  82 115 151 185 223 268 320
#
# _framework density 18.737884000000001
#
# number of rings (size 3 to 8) (size 9 to 14) (size 15 to 20)
#    0.000    2.429    0.000    1.714    4.000    5.143 
#    0.000    2.143    0.000    0.429    0.000    1.000 
#    0.000    0.000    0.000    4.857    0.000    0.143 
#
# Total GULP energy -312123.305265 kJ/mol
# GULP energy per Si atom -5573.630451 kJ/mol
# Density = 1.869524 g / cm^3
# Si number density = 18.737884 Si / 1000 Ang^3
#
#
#
# Elastic Constant Matrix: (Units=GPa)
#
#
# Indices 1 2 3 4 5 6 
#
# 1 61.6364 26.6603 32.3190 0.0000 0.0000 0.0000
# 2 26.6603 67.9492 36.0480 0.0000 0.0000 0.0000
# 3 32.3190 36.0480 104.9095 0.0000 0.0000 0.0000
# 4 0.0000 0.0000 0.0000 19.0786 0.0000 0.0000
# 5 0.0000 0.0000 0.0000 0.0000 2.5304 0.0000
# 6 0.0000 0.0000 0.0000 0.0000 0.0000 19.4812
#
#
#
# Elastic Compliance Matrix: (Units=1/GPa)
#
#
# Indices 1 2 3 4 5 6 
#
# 1 0.021130 -0.005916 -0.004477 0.000000 0.000000 0.000000
# 2 -0.005916 0.019654 -0.004931 0.000000 0.000000 0.000000
# 3 -0.004477 -0.004931 0.012605 0.000000 0.000000 0.000000
# 4 0.000000 0.000000 0.000000 0.052415 0.000000 0.000000
# 5 0.000000 0.000000 0.000000 0.000000 0.395196 0.000000
# 6 0.000000 0.000000 0.000000 0.000000 0.000000 0.051331
#
#
# Mechanical properties :
#
#
# Convention : Reuss Voigt Hill
#
# Bulk Modulus (GPa) = 43.96960 47.17219 45.57089
# Shear Modulus (GPa) = 8.46655 17.51590 12.99122
#
# Velocity S-wave (km/s) = 2.12796 3.06074 2.63594
# Velocity P-wave (km/s) = 5.43638 6.14168 5.79976
#
# Compressibility (1/GPa) = 0.02274299
#
# Stress axis : x y z
#
# Youngs Moduli (GPa) = 47.32531 50.88082 79.33051
#
# Poissons Ratio (x) = 0.30099 0.35515
# Poissons Ratio (y) = 0.27996 0.39117
# Poissons Ratio (z) = 0.21187 0.25089
#
# Static dielectric constant tensor:
#      x y z
#    x 1.612000 0.000000 0.000000 
#    y 0.000000 1.703550 0.000000 
#    z 0.000000 0.000000 1.705880 
# 
# From -- ./inp_files/45784.got.cif
#   From: 2010.05.17/outbox.cif.g08.bks.cpg/sg65_23_cif.got.tgz:45784.got - 2010.06.03 17:01:31.
