data_PCOD9491635
_publ_section_title
;
Structure prediction by ZEFSAII (Michael W. Deem and Ramdas Pophale) SiO2 
 PCOD9491635
Probable space group: C M M M
;
_chemical_formula_sum "Si O2"
_cell_formula_units_Z 88
_cell_length_a 9.006534
_cell_length_b 19.912681
_cell_length_c 28.111004
_cell_angle_alpha 90.000000
_cell_angle_beta 90.000000
_cell_angle_gamma 90.000000
_cell_volume 5041.546605
_symmetry_space_group_name_H-M "C M M M"
_symmetry_group_IT_number 65
_symmetry_cell_setting 'orthorhombic'
loop_
_space_group_symop_operation_xyz
x,y,z
-x,-y,z
x,-y,-z
-x,y,-z
-x,-y,-z
x,y,-z
-x,y,z
x,-y,z
1/2+x,1/2+y,z
1/2-x,1/2-y,z
1/2+x,1/2-y,-z
1/2-x,1/2+y,-z
1/2-x,1/2-y,-z
1/2+x,1/2+y,-z
1/2-x,1/2+y,z
1/2+x,1/2-y,z
loop_
_atom_site_type_symbol
_atom_site_label
_atom_site_fract_x
_atom_site_fract_y
_atom_site_fract_z
Si Si1 0.322226 0.578962 0.761244
Si Si2 0.678087 0.579109 0.130263
Si Si3 0.675916 0.821143 0.687734
Si Si4 0.821366 0.920383 0.500000
Si Si5 0.322273 0.177520 0.575693
Si Si6 0.177150 0.322399 0.054947
O O1 0.500000 0.587327 0.757028
O O2 0.289745 0.500000 0.755395
O O3 0.280596 0.597904 0.815451
O O4 0.241767 0.622607 0.721865
O O5 0.500000 0.587198 0.125907
O O6 0.710701 0.500000 0.124119
O O7 0.759280 0.623802 0.091544
O O8 0.500000 0.816318 0.693920
O O9 0.750000 0.750000 0.699468
O O10 0.704903 0.834538 0.631812
O O11 0.751960 0.881000 0.544855
O O12 0.000000 0.913459 0.500000
O O13 0.786203 0.000000 0.500000
O O14 0.500000 0.180147 0.567525
O O15 0.250000 0.250000 0.563603
O O16 0.250000 0.250000 0.064278
O O17 0.000000 0.317269 0.059402
O O18 0.212159 0.340598 0.000000
#
# Coordination Sequence:
#
# PCOD9491635 Si02
#       6
#    16  16  16   8  16  16
#     4   9  19  36  56  78 107 142 177 216 263 313
#     4   9  19  36  56  78 105 139 178 216 259 314
#     4  10  21  36  56  82 109 140 179 220 263 313
#     4  11  24  39  56  81 111 143 180 219 262 315
#     4  10  21  38  59  81 108 142 179 220 265 314
#     4  10  21  36  54  77 105 137 174 217 265 315
#
# _framework density 17.45496
#
# number of rings (size 3 to 8) (size 9 to 14) (size 15 to 20)
#    0.000    2.273    0.000    3.273    0.000    7.273 
#    0.000    7.273    0.000    0.000    0.000    0.000 
#    0.000    0.000    0.000    0.000    0.000    0.000 
#
# Total GULP energy -245634.567770 kJ/mol
# GULP energy per Si atom -5582.603813 kJ/mol
# Density = 1.741523 g / cm^3
# Si number density = 17.454960 Si / 1000 Ang^3
#
#
#
# Elastic Constant Matrix: (Units=GPa)
#
#
# Indices 1 2 3 4 5 6 
#
# 1 73.6237 75.6164 76.2612 0.0000 0.0000 0.0000
# 2 75.6164 125.0880 105.1015 0.0000 0.0000 0.0000
# 3 76.2612 105.1015 127.8008 0.0000 0.0000 0.0000
# 4 0.0000 0.0000 0.0000 41.6507 0.0000 0.0000
# 5 0.0000 0.0000 0.0000 0.0000 34.7120 0.0000
# 6 0.0000 0.0000 0.0000 0.0000 0.0000 37.6677
#
#
#
# Elastic Compliance Matrix: (Units=1/GPa)
#
#
# Indices 1 2 3 4 5 6 
#
# 1 0.041996 -0.014016 -0.013534 0.000000 0.000000 0.000000
# 2 -0.014016 0.030548 -0.016759 0.000000 0.000000 0.000000
# 3 -0.013534 -0.016759 0.029683 0.000000 0.000000 0.000000
# 4 0.000000 0.000000 0.000000 0.024009 0.000000 0.000000
# 5 0.000000 0.000000 0.000000 0.000000 0.028808 0.000000
# 6 0.000000 0.000000 0.000000 0.000000 0.000000 0.026548
#
#
# Mechanical properties :
#
#
# Convention : Reuss Voigt Hill
#
# Bulk Modulus (GPa) = 73.47240 93.38563 83.42902
# Shear Modulus (GPa) = 18.19872 27.44164 22.82018
#
# Velocity S-wave (km/s) = 3.23245 3.96932 3.61969
# Velocity P-wave (km/s) = 7.49103 8.63854 8.08517
#
# Compressibility (1/GPa) = 0.01361055
#
# Stress axis : x y z
#
# Youngs Moduli (GPa) = 23.81189 32.73546 33.68978
#
# Poissons Ratio (x) = 0.45880 0.45594
# Poissons Ratio (y) = 0.33374 0.56460
# Poissons Ratio (z) = 0.32226 0.54861
#
# Static dielectric constant tensor:
#      x y z
#    x 1.578970 0.000000 0.000000 
#    y 0.000000 1.556320 0.000000 
#    z 0.000000 0.000000 1.589190 
# 
# From -- ./inp_files/67489.got.cif
#   From: 2010.05.17/outbox.cif.g08.bks.cpg/sg65_34_cif.got.tgz:67489.got - 2010.06.03 17:01:31.
