data_PCOD9491275
_publ_section_title
;
Structure prediction by ZEFSAII (Michael W. Deem and Ramdas Pophale) SiO2 
 PCOD9491275
Probable space group: C M M M
;
_chemical_formula_sum "Si O2"
_cell_formula_units_Z 72
_cell_length_a 14.249643
_cell_length_b 9.833478
_cell_length_c 23.404280
_cell_angle_alpha 90.000000
_cell_angle_beta 90.000000
_cell_angle_gamma 90.000000
_cell_volume 3279.490821
_symmetry_space_group_name_H-M "C M M M"
_symmetry_group_IT_number 65
_symmetry_cell_setting 'orthorhombic'
loop_
_space_group_symop_operation_xyz
x,y,z
-x,-y,z
x,-y,-z
-x,y,-z
-x,-y,-z
x,y,-z
-x,y,z
x,-y,z
1/2+x,1/2+y,z
1/2-x,1/2-y,z
1/2+x,1/2-y,-z
1/2-x,1/2+y,-z
1/2-x,1/2-y,-z
1/2+x,1/2+y,-z
1/2-x,1/2+y,z
1/2+x,1/2-y,z
loop_
_atom_site_type_symbol
_atom_site_label
_atom_site_fract_x
_atom_site_fract_y
_atom_site_fract_z
Si Si1 0.891176 0.348775 0.627972
Si Si2 0.385545 0.155075 0.831934
Si Si3 0.885576 0.846003 0.934580
Si Si4 0.385393 0.654207 0.726005
Si Si5 0.659553 0.159048 0.500000
O O1 0.848502 0.500000 0.636593
O O2 0.854662 0.228334 0.667668
O O3 0.889541 0.316091 0.560637
O O4 0.000000 0.361186 0.644637
O O5 0.500000 0.150288 0.831931
O O6 0.356537 0.231710 0.889804
O O7 0.358821 0.248621 0.778408
O O8 0.352065 0.000000 0.827883
O O9 0.000000 0.846733 0.934139
O O10 0.856601 0.000000 0.918256
O O11 0.856808 0.820251 0.000000
O O12 0.500000 0.646249 0.726517
O O13 0.350685 0.500000 0.731304
O O14 0.750000 0.250000 0.500000
O O15 0.683126 0.000000 0.500000
#
# Coordination Sequence:
#
# PCOD9491275 Si02
#       5
#    16  16  16  16   8
#     4   9  17  31  50  69  89 115 149 185 220 260
#     4   9  15  21  30  45  66  93 126 166 210 254
#     4   8  13  20  28  38  56  86 124 165 208 252
#     4   9  16  25  38  57  79 102 131 171 218 261
#     4  10  21  35  51  71  95 122 148 178 218 264
#
# _framework density 21.954626999999999
#
# number of rings (size 3 to 8) (size 9 to 14) (size 15 to 20)
#    0.000    3.111    0.000    2.333    0.000    8.000 
#    0.000    2.222    0.000    3.333    0.000    0.000 
#    0.000    0.000    0.000    0.000    0.000    1.111 
#
# Total GULP energy -200950.654534 kJ/mol
# GULP energy per Si atom -5581.962626 kJ/mol
# Density = 2.190466 g / cm^3
# Si number density = 21.954627 Si / 1000 Ang^3
#
#
#
# Elastic Constant Matrix: (Units=GPa)
#
#
# Indices 1 2 3 4 5 6 
#
# 1 57.2922 14.8901 -6.0537 0.0000 0.0000 0.0000
# 2 14.8901 219.9583 147.0041 0.0000 0.0000 0.0000
# 3 -6.0537 147.0041 156.1460 0.0000 0.0000 0.0000
# 4 0.0000 0.0000 0.0000 44.3132 0.0000 0.0000
# 5 0.0000 0.0000 0.0000 0.0000 -31.5105 0.0000
# 6 0.0000 0.0000 0.0000 0.0000 0.0000 5.2016
#
#
#
# Elastic Compliance Matrix: (Units=1/GPa)
#
#
# Indices 1 2 3 4 5 6 
#
# 1 0.019283 -0.004868 0.005330 0.000000 0.000000 0.000000
# 2 -0.004868 0.013490 -0.012889 0.000000 0.000000 0.000000
# 3 0.005330 -0.012889 0.018745 0.000000 0.000000 0.000000
# 4 0.000000 0.000000 0.000000 0.022567 0.000000 0.000000
# 5 0.000000 0.000000 0.000000 0.000000 -0.031735 0.000000
# 6 0.000000 0.000000 0.000000 0.000000 0.000000 0.192248
#
#
# Mechanical properties :
#
#
# Convention : Reuss Voigt Hill
#
# Bulk Modulus (GPa) = 37.50194 82.78640 60.14417
# Shear Modulus (GPa) = 18.63329 22.10459 20.36894
#
# Velocity S-wave (km/s) = 2.91644 3.17650 3.04924
# Velocity P-wave (km/s) = 5.33474 7.15845 6.31280
#
# Compressibility (1/GPa) = 0.02666529
#
# Stress axis : x y z
#
# Youngs Moduli (GPa) = 51.85987 74.13110 53.34787
#
# Poissons Ratio (x) = 0.36085 -0.28436
# Poissons Ratio (y) = 0.25244 0.68758
# Poissons Ratio (z) = -0.27643 0.95544
#
# Static dielectric constant tensor:
#      x y z
#    x 1.830420 0.000000 0.000000 
#    y 0.000000 1.765350 0.000000 
#    z 0.000000 0.000000 1.797460 
# 
# From -- ./inp_files/67125.got.cif
#   From: 2010.05.17/outbox.cif.g08.bks.cpg/sg65_34_cif.got.tgz:67125.got - 2010.06.03 17:01:31.
