data_PCOD9491279
_publ_section_title
;
Structure prediction by ZEFSAII (Michael W. Deem and Ramdas Pophale) SiO2 
 PCOD9491279
Probable space group: C M M M
;
_chemical_formula_sum "Si O2"
_cell_formula_units_Z 88
_cell_length_a 9.441246
_cell_length_b 18.482111
_cell_length_c 29.340372
_cell_angle_alpha 90.000000
_cell_angle_beta 90.000000
_cell_angle_gamma 90.000000
_cell_volume 5119.723465
_symmetry_space_group_name_H-M "C M M M"
_symmetry_group_IT_number 65
_symmetry_cell_setting 'orthorhombic'
loop_
_space_group_symop_operation_xyz
x,y,z
-x,-y,z
x,-y,-z
-x,y,-z
-x,-y,-z
x,y,-z
-x,y,z
x,-y,z
1/2+x,1/2+y,z
1/2-x,1/2-y,z
1/2+x,1/2-y,-z
1/2-x,1/2+y,-z
1/2-x,1/2-y,-z
1/2+x,1/2+y,-z
1/2-x,1/2+y,z
1/2+x,1/2-y,z
loop_
_atom_site_type_symbol
_atom_site_label
_atom_site_fract_x
_atom_site_fract_y
_atom_site_fract_z
Si Si1 0.336871 0.588220 0.681152
Si Si2 0.163275 0.588325 0.229816
Si Si3 0.333541 0.413494 0.140493
Si Si4 0.830512 0.825746 0.949219
Si Si5 0.169723 0.674457 0.500000
Si Si6 0.832284 0.414029 0.408940
O O1 0.500000 0.611704 0.682428
O O2 0.336315 0.500000 0.681710
O O3 0.250542 0.611974 0.725747
O O4 0.258419 0.609730 0.634662
O O5 0.164695 0.500000 0.230024
O O6 0.240059 0.611236 0.183265
O O7 0.000000 0.611262 0.231682
O O8 0.500000 0.398460 0.149428
O O9 0.319023 0.500000 0.136327
O O10 0.292312 0.376696 0.092958
O O11 0.750000 0.750000 0.944955
O O12 0.000000 0.813971 0.947169
O O13 0.799023 0.855704 0.000000
O O14 0.250000 0.750000 0.500000
O O15 0.204602 0.628935 0.454655
O O16 0.000000 0.685662 0.500000
O O17 0.809715 0.500000 0.416132
O O18 0.000000 0.404309 0.399524
#
# Coordination Sequence:
#
# PCOD9491279 Si02
#       6
#    16  16  16  16   8  16
#     4   9  16  26  43  69  98 125 154 191 235 278
#     4   9  16  26  42  66  96 127 156 187 228 279
#     4   9  17  29  46  69  96 124 155 193 234 275
#     4   9  18  32  49  68  91 122 158 194 234 280
#     4  10  21  35  51  71  97 130 162 194 236 284
#     4   9  17  31  51  73  96 124 161 200 234 272
#
# _framework density 17.188427999999998
#
# number of rings (size 3 to 8) (size 9 to 14) (size 15 to 20)
#    0.000    2.909    0.000    1.364    0.000    7.273 
#    0.000    1.818    0.000    3.818    0.000   12.727 
#    0.000    0.000    0.000    0.000    0.000    0.000 
#
# Total GULP energy -245211.756471 kJ/mol
# GULP energy per Si atom -5572.994465 kJ/mol
# Density = 1.714931 g / cm^3
# Si number density = 17.188428 Si / 1000 Ang^3
#
#
#
# Elastic Constant Matrix: (Units=GPa)
#
#
# Indices 1 2 3 4 5 6 
#
# 1 96.7648 35.4475 110.1963 0.0000 0.0000 0.0000
# 2 35.4475 21.7471 50.5379 0.0000 0.0000 0.0000
# 3 110.1963 50.5379 212.7135 0.0000 0.0000 0.0000
# 4 0.0000 0.0000 0.0000 -7.7306 0.0000 0.0000
# 5 0.0000 0.0000 0.0000 0.0000 32.5409 0.0000
# 6 0.0000 0.0000 0.0000 0.0000 0.0000 18.2124
#
#
#
# Elastic Compliance Matrix: (Units=1/GPa)
#
#
# Indices 1 2 3 4 5 6 
#
# 1 0.032402 -0.030827 -0.009462 0.000000 0.000000 0.000000
# 2 -0.030827 0.131997 -0.015391 0.000000 0.000000 0.000000
# 3 -0.009462 -0.015391 0.013260 0.000000 0.000000 0.000000
# 4 0.000000 0.000000 0.000000 -0.129357 0.000000 0.000000
# 5 0.000000 0.000000 0.000000 0.000000 0.030731 0.000000
# 6 0.000000 0.000000 0.000000 0.000000 0.000000 0.054908
#
#
# Mechanical properties :
#
#
# Convention : Reuss Voigt Hill
#
# Bulk Modulus (GPa) = 15.08300 80.39874 47.74087
# Shear Modulus (GPa) = 18.69855 17.60745 18.15300
#
# Velocity S-wave (km/s) = 3.30185 3.20406 3.25332
# Velocity P-wave (km/s) = 4.83015 7.78232 6.47668
#
# Compressibility (1/GPa) = 0.06629980
#
# Stress axis : x y z
#
# Youngs Moduli (GPa) = 30.86191 7.57592 75.41647
#
# Poissons Ratio (x) = 0.23354 0.71360
# Poissons Ratio (y) = 0.95137 1.16074
# Poissons Ratio (z) = 0.29202 0.11660
#
# Static dielectric constant tensor:
#      x y z
#    x 1.576570 0.000000 0.000000 
#    y 0.000000 1.551850 0.000000 
#    z 0.000000 0.000000 1.577200 
# 
# From -- ./inp_files/76652.got.cif
#   From: 2010.05.17/outbox.cif.g08.bks.cpg/sg65_39_cif.got.tgz:76652.got - 2010.06.03 17:01:31.
