data_PCOD9491186
_publ_section_title
;
Structure prediction by ZEFSAII (Michael W. Deem and Ramdas Pophale) SiO2 
 PCOD9491186
Probable space group: C M M M
;
_chemical_formula_sum "Si O2"
_cell_formula_units_Z 56
_cell_length_a 17.642757
_cell_length_b 11.030423
_cell_length_c 14.556891
_cell_angle_alpha 90.000000
_cell_angle_beta 90.000000
_cell_angle_gamma 90.000000
_cell_volume 2832.873944
_symmetry_space_group_name_H-M "C M M M"
_symmetry_group_IT_number 65
_symmetry_cell_setting 'orthorhombic'
loop_
_space_group_symop_operation_xyz
x,y,z
-x,-y,z
x,-y,-z
-x,y,-z
-x,-y,-z
x,y,-z
-x,y,z
x,-y,z
1/2+x,1/2+y,z
1/2-x,1/2-y,z
1/2+x,1/2-y,-z
1/2-x,1/2+y,-z
1/2-x,1/2-y,-z
1/2+x,1/2+y,-z
1/2-x,1/2+y,z
1/2+x,1/2-y,z
loop_
_atom_site_type_symbol
_atom_site_label
_atom_site_fract_x
_atom_site_fract_y
_atom_site_fract_z
Si Si1 0.592112 0.366131 0.392405
Si Si2 0.085390 0.000000 0.111456
Si Si3 0.840424 0.254633 0.106548
Si Si4 0.591468 0.866681 0.722088
O O1 0.612165 0.356616 0.500000
O O2 0.500000 0.365516 0.387999
O O3 0.616870 0.500000 0.358461
O O4 0.618727 0.248066 0.337556
O O5 0.126982 0.876344 0.135786
O O6 0.000000 0.000000 0.148594
O O7 0.081967 0.000000 0.000000
O O8 0.750000 0.250000 0.111811
O O9 0.875000 0.350251 0.176471
O O10 0.861588 0.276868 0.000000
O O11 0.500000 0.860328 0.726896
O O12 0.611551 0.000000 0.684799
#
# Coordination Sequence:
#
# PCOD9491186 Si02
#       4
#    16   8  16  16
#     4   8  15  30  53  80 109 142 181 226 275 328
#     4   9  18  34  56  80 102 136 194 249 284 324
#     4  10  22  37  55  77 108 149 192 236 285 338
#     4  10  21  34  52  82 115 146 180 223 280 339
#
# _framework density 19.767911999999999
#
# number of rings (size 3 to 8) (size 9 to 14) (size 15 to 20)
#    0.000    2.714    0.000    1.714    4.000    2.857 
#    0.000    4.286    0.000    0.857    0.000    0.000 
#    0.000    0.000    0.000    0.000    0.000    0.000 
#
# Total GULP energy -156196.806796 kJ/mol
# GULP energy per Si atom -5578.457386 kJ/mol
# Density = 1.972292 g / cm^3
# Si number density = 19.767912 Si / 1000 Ang^3
#
#
#
# Elastic Constant Matrix: (Units=GPa)
#
#
# Indices 1 2 3 4 5 6 
#
# 1 32.1672 33.7210 6.3891 0.0000 0.0000 0.0000
# 2 33.7210 177.1142 72.7121 0.0000 0.0000 0.0000
# 3 6.3891 72.7121 77.2103 0.0000 0.0000 0.0000
# 4 0.0000 0.0000 0.0000 47.1048 0.0000 0.0000
# 5 0.0000 0.0000 0.0000 0.0000 9.0886 0.0000
# 6 0.0000 0.0000 0.0000 0.0000 0.0000 15.7773
#
#
#
# Elastic Compliance Matrix: (Units=1/GPa)
#
#
# Indices 1 2 3 4 5 6 
#
# 1 0.040694 -0.010377 0.006405 0.000000 0.000000 0.000000
# 2 -0.010377 0.011851 -0.010302 0.000000 0.000000 0.000000
# 3 0.006405 -0.010302 0.022123 0.000000 0.000000 0.000000
# 4 0.000000 0.000000 0.000000 0.021229 0.000000 0.000000
# 5 0.000000 0.000000 0.000000 0.000000 0.110029 0.000000
# 6 0.000000 0.000000 0.000000 0.000000 0.000000 0.063382
#
#
# Mechanical properties :
#
#
# Convention : Reuss Voigt Hill
#
# Bulk Modulus (GPa) = 21.68229 56.90401 39.29315
# Shear Modulus (GPa) = 15.96269 25.97210 20.96740
#
# Velocity S-wave (km/s) = 2.84475 3.62864 3.26034
# Velocity P-wave (km/s) = 4.66716 6.81209 5.83896
#
# Compressibility (1/GPa) = 0.04612058
#
# Stress axis : x y z
#
# Youngs Moduli (GPa) = 24.57365 84.37930 45.20090
#
# Poissons Ratio (x) = 0.87564 -0.28953
# Poissons Ratio (y) = 0.25501 0.46566
# Poissons Ratio (z) = -0.15741 0.86928
#
# Static dielectric constant tensor:
#      x y z
#    x 1.647450 0.000000 0.000000 
#    y 0.000000 1.719240 0.000000 
#    z 0.000000 0.000000 1.706250 
# 
# From -- ./inp_files/37441.got.cif
#   From: 2010.05.17/outbox.cif.g08.bks.cpg/sg65_19_cif.got.tgz:37441.got - 2010.06.03 17:01:31.
