data_PCOD9491079
_publ_section_title
;
Structure prediction by ZEFSAII (Michael W. Deem and Ramdas Pophale) SiO2 
 PCOD9491079
Probable space group: C M M M
;
_chemical_formula_sum "Si O2"
_cell_formula_units_Z 104
_cell_length_a 26.230838
_cell_length_b 9.824954
_cell_length_c 25.299211
_cell_angle_alpha 90.000000
_cell_angle_beta 90.000000
_cell_angle_gamma 90.000000
_cell_volume 6520.031113
_symmetry_space_group_name_H-M "C M M M"
_symmetry_group_IT_number 65
_symmetry_cell_setting 'orthorhombic'
loop_
_space_group_symop_operation_xyz
x,y,z
-x,-y,z
x,-y,-z
-x,y,-z
-x,-y,-z
x,y,-z
-x,y,z
x,-y,z
1/2+x,1/2+y,z
1/2-x,1/2-y,z
1/2+x,1/2-y,-z
1/2-x,1/2+y,-z
1/2-x,1/2-y,-z
1/2+x,1/2+y,-z
1/2-x,1/2+y,z
1/2+x,1/2-y,z
loop_
_atom_site_type_symbol
_atom_site_label
_atom_site_fract_x
_atom_site_fract_y
_atom_site_fract_z
Si Si1 0.058405 0.834910 0.000000
Si Si2 0.057627 0.845237 0.308742
Si Si3 0.561954 0.659112 0.116297
Si Si4 0.296307 0.842016 0.266313
Si Si5 0.788224 0.000000 0.562973
Si Si6 0.905427 0.659077 0.214011
Si Si7 0.845823 0.235482 0.625600
Si Si8 0.165749 0.500000 0.437914
O O1 0.080412 0.798860 0.942682
O O2 0.000000 0.784859 0.000000
O O3 0.943653 0.000000 0.000000
O O4 0.066835 0.737021 0.262183
O O5 0.101394 0.824635 0.352225
O O6 0.000000 0.830357 0.329282
O O7 0.062622 0.000000 0.287473
O O8 0.500000 0.664189 0.116263
O O9 0.575618 0.500000 0.125789
O O10 0.582333 0.758611 0.161092
O O11 0.250000 0.750000 0.246926
O O12 0.345564 0.835153 0.228735
O O13 0.314212 0.783360 0.322946
O O14 0.281355 0.000000 0.272512
O O15 0.813250 0.870485 0.591501
O O16 0.727241 0.000000 0.569818
O O17 0.798457 0.000000 0.500000
O O18 0.920218 0.500000 0.211014
O O19 0.855701 0.367061 0.590211
O O20 0.155868 0.500000 0.500000
#
# Coordination Sequence:
#
# PCOD9491079 Si02
#       8
#     8  16  16  16   8  16  16   8
#     4   7  12  24  43  67  94 129 170 207 242 281
#     4  10  21  37  55  73  96 131 173 208 242 287
#     4   9  16  28  47  70  99 134 171 207 241 284
#     4  10  21  34  51  72  99 130 161 197 244 299
#     4  11  22  36  55  79 103 131 162 197 245 294
#     4  10  21  33  46  74 105 130 162 204 252 297
#     4  11  21  36  54  79 103 129 161 201 245 296
#     4  11  22  36  55  79 107 131 156 195 247 306
#
# _framework density 15.950844999999999
#
# number of rings (size 3 to 8) (size 9 to 14) (size 15 to 20)
#    0.000    2.077    1.538    3.692    2.154    4.923 
#    0.000    0.385    0.000    4.154    0.000    0.538 
#    0.000    0.000    0.000    0.000    0.000    0.000 
#
# Total GULP energy -289997.616721 kJ/mol
# GULP energy per Si atom -5576.877245 kJ/mol
# Density = 1.591454 g / cm^3
# Si number density = 15.950845 Si / 1000 Ang^3
#
#
#
# Elastic Constant Matrix: (Units=GPa)
#
#
# Indices 1 2 3 4 5 6 
#
# 1 56.2133 34.8810 22.6389 0.0000 0.0000 0.0000
# 2 34.8810 115.8306 47.9534 0.0000 0.0000 0.0000
# 3 22.6389 47.9534 101.3492 0.0000 0.0000 0.0000
# 4 0.0000 0.0000 0.0000 56.9025 0.0000 0.0000
# 5 0.0000 0.0000 0.0000 0.0000 4.7609 0.0000
# 6 0.0000 0.0000 0.0000 0.0000 0.0000 28.2009
#
#
#
# Elastic Compliance Matrix: (Units=1/GPa)
#
#
# Indices 1 2 3 4 5 6 
#
# 1 0.022279 -0.005781 -0.002241 0.000000 0.000000 0.000000
# 2 -0.005781 0.012237 -0.004498 0.000000 0.000000 0.000000
# 3 -0.002241 -0.004498 0.012496 0.000000 0.000000 0.000000
# 4 0.000000 0.000000 0.000000 0.017574 0.000000 0.000000
# 5 0.000000 0.000000 0.000000 0.000000 0.210045 0.000000
# 6 0.000000 0.000000 0.000000 0.000000 0.000000 0.035460
#
#
# Mechanical properties :
#
#
# Convention : Reuss Voigt Hill
#
# Bulk Modulus (GPa) = 45.51641 53.81550 49.66596
# Shear Modulus (GPa) = 14.60043 29.16750 21.88396
#
# Velocity S-wave (km/s) = 3.02874 4.28084 3.70802
# Velocity P-wave (km/s) = 6.38971 7.63188 7.03825
#
# Compressibility (1/GPa) = 0.02197010
#
# Stress axis : x y z
#
# Youngs Moduli (GPa) = 44.88458 81.72239 80.02626
#
# Poissons Ratio (x) = 0.47246 0.17936
# Poissons Ratio (y) = 0.25949 0.35998
# Poissons Ratio (z) = 0.10060 0.36761
#
# Static dielectric constant tensor:
#      x y z
#    x 1.524650 0.000000 0.000000 
#    y 0.000000 1.561710 0.000000 
#    z 0.000000 0.000000 1.529460 
# 
# From -- ./inp_files/71919.got.cif
#   From: 2010.05.17/outbox.cif.g08.bks.cpg/sg65_36_cif.got.tgz:71919.got - 2010.06.03 17:01:31.
