data_PCOD9491559
_publ_section_title
;
Structure prediction by ZEFSAII (Michael W. Deem and Ramdas Pophale) SiO2 
 PCOD9491559
Probable space group: C M M M
;
_chemical_formula_sum "Si O2"
_cell_formula_units_Z 96
_cell_length_a 8.279447
_cell_length_b 19.403429
_cell_length_c 32.457856
_cell_angle_alpha 90.000000
_cell_angle_beta 90.000000
_cell_angle_gamma 90.000000
_cell_volume 5214.343596
_symmetry_space_group_name_H-M "C M M M"
_symmetry_group_IT_number 65
_symmetry_cell_setting 'orthorhombic'
loop_
_space_group_symop_operation_xyz
x,y,z
-x,-y,z
x,-y,-z
-x,y,-z
-x,-y,-z
x,y,-z
-x,y,z
x,-y,z
1/2+x,1/2+y,z
1/2-x,1/2-y,z
1/2+x,1/2-y,-z
1/2-x,1/2+y,-z
1/2-x,1/2-y,-z
1/2+x,1/2+y,-z
1/2-x,1/2+y,z
1/2+x,1/2-y,z
loop_
_atom_site_type_symbol
_atom_site_label
_atom_site_fract_x
_atom_site_fract_y
_atom_site_fract_z
Si Si1 0.304274 0.420027 0.634326
Si Si2 0.193324 0.671356 0.289274
Si Si3 0.197004 0.579752 0.787033
Si Si4 0.308508 0.583466 0.544237
Si Si5 0.305463 0.078815 0.879396
Si Si6 0.807133 0.171615 0.045561
O O1 0.500000 0.420302 0.633072
O O2 0.253319 0.500000 0.640884
O O3 0.248280 0.371083 0.670740
O O4 0.244526 0.395346 0.589037
O O5 0.250000 0.750000 0.290170
O O6 0.253944 0.630607 0.248679
O O7 0.000000 0.670868 0.288143
O O8 0.245274 0.500000 0.779603
O O9 0.248469 0.600056 0.833327
O O10 0.000000 0.580265 0.786602
O O11 0.239330 0.607241 0.500000
O O12 0.500000 0.599924 0.543680
O O13 0.297713 0.500000 0.544581
O O14 0.500000 0.078799 0.878745
O O15 0.250838 0.126083 0.916603
O O16 0.251187 0.000000 0.885776
O O17 0.750000 0.250000 0.050756
O O18 0.000000 0.170698 0.045217
O O19 0.749406 0.147925 0.000000
#
# Coordination Sequence:
#
# PCOD9491559 Si02
#       6
#    16  16  16  16  16  16
#     4   9  17  30  50  76 103 129 161 202 245 292
#     4  11  22  35  51  71  99 133 168 206 248 295
#     4   8  16  33  55  76  98 127 163 202 246 297
#     4   7  10  19  39  68  98 125 154 191 237 288
#     4   9  18  34  56  80 105 132 163 201 246 297
#     4  10  21  36  53  74 103 138 174 211 249 291
#
# _framework density 18.410755999999999
#
# number of rings (size 3 to 8) (size 9 to 14) (size 15 to 20)
#    0.000    3.000    0.000    4.000    0.000    3.333 
#    0.000    5.000    0.000    3.000    0.000    2.333 
#    0.000    0.000    0.000    0.000    0.000    0.000 
#
# Total GULP energy -267396.566883 kJ/mol
# GULP energy per Si atom -5570.761810 kJ/mol
# Density = 1.836885 g / cm^3
# Si number density = 18.410756 Si / 1000 Ang^3
#
#
#
# Elastic Constant Matrix: (Units=GPa)
#
#
# Indices 1 2 3 4 5 6 
#
# 1 13.1529 15.3328 24.9484 0.0000 0.0000 0.0000
# 2 15.3328 93.6823 116.0137 0.0000 0.0000 0.0000
# 3 24.9484 116.0137 236.7708 0.0000 0.0000 0.0000
# 4 0.0000 0.0000 0.0000 -13.9164 0.0000 0.0000
# 5 0.0000 0.0000 0.0000 0.0000 17.5785 0.0000
# 6 0.0000 0.0000 0.0000 0.0000 0.0000 6.6951
#
#
#
# Elastic Compliance Matrix: (Units=1/GPa)
#
#
# Indices 1 2 3 4 5 6 
#
# 1 0.097449 -0.008223 -0.006239 0.000000 0.000000 0.000000
# 2 -0.008223 0.027840 -0.012775 0.000000 0.000000 0.000000
# 3 -0.006239 -0.012775 0.011140 0.000000 0.000000 0.000000
# 4 0.000000 0.000000 0.000000 -0.071858 0.000000 0.000000
# 5 0.000000 0.000000 0.000000 0.000000 0.056888 0.000000
# 6 0.000000 0.000000 0.000000 0.000000 0.000000 0.149364
#
#
# Mechanical properties :
#
#
# Convention : Reuss Voigt Hill
#
# Bulk Modulus (GPa) = 12.20173 72.91066 42.55620
# Shear Modulus (GPa) = 14.17977 14.55884 14.36930
#
# Velocity S-wave (km/s) = 2.77824 2.81513 2.79675
# Velocity P-wave (km/s) = 4.11502 7.08906 5.79604
#
# Compressibility (1/GPa) = 0.08195556
#
# Stress axis : x y z
#
# Youngs Moduli (GPa) = 10.26180 35.91939 89.76434
#
# Poissons Ratio (x) = 0.29537 0.56003
# Poissons Ratio (y) = 0.08438 1.14671
# Poissons Ratio (z) = 0.06402 0.45886
#
# Static dielectric constant tensor:
#      x y z
#    x 1.644690 0.000000 0.000000 
#    y 0.000000 1.593830 0.000000 
#    z 0.000000 0.000000 1.677970 
# 
# From -- ./inp_files/73208.got.cif
#   From: 2010.05.17/outbox.cif.g08.bks.cpg/sg65_37_cif.got.tgz:73208.got - 2010.06.03 17:01:31.
