data_PCOD9491139
_publ_section_title
;
Structure prediction by ZEFSAII (Michael W. Deem and Ramdas Pophale) SiO2 
 PCOD9491139
Probable space group: C M M M
;
_chemical_formula_sum "Si O2"
_cell_formula_units_Z 72
_cell_length_a 33.091026
_cell_length_b 13.823580
_cell_length_c 9.017302
_cell_angle_alpha 90.000000
_cell_angle_beta 90.000000
_cell_angle_gamma 90.000000
_cell_volume 4124.842572
_symmetry_space_group_name_H-M "C M M M"
_symmetry_group_IT_number 65
_symmetry_cell_setting 'orthorhombic'
loop_
_space_group_symop_operation_xyz
x,y,z
-x,-y,z
x,-y,-z
-x,y,-z
-x,-y,-z
x,y,-z
-x,y,z
x,-y,z
1/2+x,1/2+y,z
1/2-x,1/2-y,z
1/2+x,1/2-y,-z
1/2-x,1/2+y,-z
1/2-x,1/2-y,-z
1/2+x,1/2+y,-z
1/2-x,1/2+y,z
1/2+x,1/2-y,z
loop_
_atom_site_type_symbol
_atom_site_label
_atom_site_fract_x
_atom_site_fract_y
_atom_site_fract_z
Si Si1 0.500000 0.886301 0.677511
Si Si2 0.840911 0.612404 0.833980
Si Si3 0.204541 0.771297 0.325825
Si Si4 0.365799 0.611266 0.821064
Si Si5 0.075856 0.714412 0.827955
O O1 0.500000 0.887069 0.500000
O O2 0.461112 0.827853 0.736360
O O3 0.500000 0.000000 0.727452
O O4 0.832899 0.500000 0.822689
O O5 0.818987 0.672405 0.708191
O O6 0.888254 0.635621 0.824677
O O7 0.828090 0.646455 0.000000
O O8 0.206169 0.793844 0.500000
O O9 0.250000 0.750000 0.271889
O O10 0.176767 0.850917 0.244465
O O11 0.373480 0.500000 0.778806
O O12 0.401494 0.686535 0.776759
O O13 0.363498 0.616757 0.000000
O O14 0.063531 0.728261 0.000000
#
# Coordination Sequence:
#
# PCOD9491139 Si02
#       5
#     8  16  16  16  16
#     4  11  23  35  50  77 110 140 169 203 248 305
#     4   9  18  33  53  75  98 128 168 211 254 301
#     4  10  21  34  48  72 106 139 171 209 254 307
#     4   9  19  37  59  79 100 132 176 222 264 306
#     4   9  18  34  55  77 101 130 166 208 254 304
#
# _framework density 17.455210999999998
#
# number of rings (size 3 to 8) (size 9 to 14) (size 15 to 20)
#    0.000    2.556    0.000    3.000    0.000    8.889 
#    0.000    5.000    0.000    3.333    0.000    0.000 
#    0.000    0.000    0.000    0.000    0.000    0.000 
#
# Total GULP energy -200518.556099 kJ/mol
# GULP energy per Si atom -5569.959892 kJ/mol
# Density = 1.741548 g / cm^3
# Si number density = 17.455211 Si / 1000 Ang^3
#
#
#
# Elastic Constant Matrix: (Units=GPa)
#
#
# Indices 1 2 3 4 5 6 
#
# 1 110.7840 44.6817 38.0471 0.0000 0.0000 0.0000
# 2 44.6817 104.1565 21.4862 0.0000 0.0000 0.0000
# 3 38.0471 21.4862 29.7028 0.0000 0.0000 0.0000
# 4 0.0000 0.0000 0.0000 17.8755 0.0000 0.0000
# 5 0.0000 0.0000 0.0000 0.0000 34.4695 0.0000
# 6 0.0000 0.0000 0.0000 0.0000 0.0000 6.8024
#
#
#
# Elastic Compliance Matrix: (Units=1/GPa)
#
#
# Indices 1 2 3 4 5 6 
#
# 1 0.017028 -0.003297 -0.019427 0.000000 0.000000 0.000000
# 2 -0.003297 0.011923 -0.004401 0.000000 0.000000 0.000000
# 3 -0.019427 -0.004401 0.061735 0.000000 0.000000 0.000000
# 4 0.000000 0.000000 0.000000 0.055942 0.000000 0.000000
# 5 0.000000 0.000000 0.000000 0.000000 0.029011 0.000000
# 6 0.000000 0.000000 0.000000 0.000000 0.000000 0.147007
#
#
# Mechanical properties :
#
#
# Convention : Reuss Voigt Hill
#
# Bulk Modulus (GPa) = 27.44570 50.34145 38.89358
# Shear Modulus (GPa) = 12.85203 21.19136 17.02170
#
# Velocity S-wave (km/s) = 2.71640 3.48809 3.12615
# Velocity P-wave (km/s) = 5.05926 6.71754 5.94649
#
# Compressibility (1/GPa) = 0.03643558
#
# Stress axis : x y z
#
# Youngs Moduli (GPa) = 58.72575 83.86852 16.19833
#
# Poissons Ratio (x) = 0.27655 0.31468
# Poissons Ratio (y) = 0.19364 0.07129
# Poissons Ratio (z) = 1.14085 0.36913
#
# Static dielectric constant tensor:
#      x y z
#    x 1.593350 0.000000 0.000000 
#    y 0.000000 1.600080 0.000000 
#    z 0.000000 0.000000 1.610660 
# 
# From -- ./inp_files/18020.got.cif
#   From: 2010.05.17/outbox.cif.g08.bks.cpg/sg65_10_cif.got.tgz:18020.got - 2010.06.03 17:01:31.
