data_PCOD9491260
_publ_section_title
;
Structure prediction by ZEFSAII (Michael W. Deem and Ramdas Pophale) SiO2 
 PCOD9491260
Probable space group: C M M M
;
_chemical_formula_sum "Si O2"
_cell_formula_units_Z 80
_cell_length_a 8.628394
_cell_length_b 19.442536
_cell_length_c 26.246319
_cell_angle_alpha 90.000000
_cell_angle_beta 90.000000
_cell_angle_gamma 90.000000
_cell_volume 4403.026334
_symmetry_space_group_name_H-M "C M M M"
_symmetry_group_IT_number 65
_symmetry_cell_setting 'orthorhombic'
loop_
_space_group_symop_operation_xyz
x,y,z
-x,-y,z
x,-y,-z
-x,y,-z
-x,-y,-z
x,y,-z
-x,y,z
x,-y,z
1/2+x,1/2+y,z
1/2-x,1/2-y,z
1/2+x,1/2-y,-z
1/2-x,1/2+y,-z
1/2-x,1/2-y,-z
1/2+x,1/2+y,-z
1/2-x,1/2+y,z
1/2+x,1/2-y,z
loop_
_atom_site_type_symbol
_atom_site_label
_atom_site_fract_x
_atom_site_fract_y
_atom_site_fract_z
Si Si1 0.813259 0.827604 0.500000
Si Si2 0.687598 0.672245 0.388363
Si Si3 0.185602 0.674794 0.087661
Si Si4 0.314316 0.420689 0.000000
Si Si5 0.185539 0.674702 0.205749
Si Si6 0.812487 0.920670 0.706638
O O1 0.750000 0.750000 0.500000
O O2 0.765346 0.855694 0.444600
O O3 0.000000 0.826807 0.500000
O O4 0.500000 0.675705 0.387146
O O5 0.750000 0.750000 0.382252
O O6 0.738919 0.623024 0.342707
O O7 0.250000 0.750000 0.073621
O O8 0.252006 0.618662 0.049522
O O9 0.229522 0.661900 0.146700
O O10 0.000000 0.675939 0.084199
O O11 0.264574 0.500000 0.000000
O O12 0.500000 0.417906 0.000000
O O13 0.250000 0.750000 0.220098
O O14 0.251427 0.617679 0.243399
O O15 0.000000 0.676254 0.208952
O O16 0.000000 0.919638 0.707443
O O17 0.762454 0.000000 0.704224
#
# Coordination Sequence:
#
# PCOD9491260 Si02
#       6
#     8  16  16   8  16  16
#     4   8  14  26  45  69  95 123 161 210 257 302
#     4   9  17  30  49  72  97 128 168 212 258 307
#     4  10  21  38  60  83 108 138 174 217 261 307
#     4  11  24  39  56  81 113 147 180 213 254 305
#     4  10  21  37  58  82 105 134 174 217 261 309
#     4  10  21  35  50  72 105 141 174 212 260 311
#
# _framework density 18.169321
#
# number of rings (size 3 to 8) (size 9 to 14) (size 15 to 20)
#    0.000    2.300    0.000    2.400    0.000    6.800 
#    0.000    4.500    0.000    3.000    0.000    0.000 
#    0.000    9.600    0.000    0.000    0.000    0.000 
#
# Total GULP energy -223181.719565 kJ/mol
# GULP energy per Si atom -5579.542989 kJ/mol
# Density = 1.812797 g / cm^3
# Si number density = 18.169321 Si / 1000 Ang^3
#
#
#
# Elastic Constant Matrix: (Units=GPa)
#
#
# Indices 1 2 3 4 5 6 
#
# 1 19.6193 32.1821 32.1524 0.0000 0.0000 0.0000
# 2 32.1821 153.0405 111.7939 0.0000 0.0000 0.0000
# 3 32.1524 111.7939 135.8617 0.0000 0.0000 0.0000
# 4 0.0000 0.0000 0.0000 -6.9114 0.0000 0.0000
# 5 0.0000 0.0000 0.0000 0.0000 16.6305 0.0000
# 6 0.0000 0.0000 0.0000 0.0000 0.0000 26.1392
#
#
#
# Elastic Compliance Matrix: (Units=1/GPa)
#
#
# Indices 1 2 3 4 5 6 
#
# 1 0.087159 -0.008174 -0.013901 0.000000 0.000000 0.000000
# 2 -0.008174 0.017146 -0.012174 0.000000 0.000000 0.000000
# 3 -0.013901 -0.012174 0.020668 0.000000 0.000000 0.000000
# 4 0.000000 0.000000 0.000000 -0.144688 0.000000 0.000000
# 5 0.000000 0.000000 0.000000 0.000000 0.060130 0.000000
# 6 0.000000 0.000000 0.000000 0.000000 0.000000 0.038257
#
#
# Mechanical properties :
#
#
# Convention : Reuss Voigt Hill
#
# Bulk Modulus (GPa) = 17.70702 73.41981 45.56341
# Shear Modulus (GPa) = 30.12140 15.99787 23.05963
#
# Velocity S-wave (km/s) = 4.07605 2.97052 3.56638
# Velocity P-wave (km/s) = 5.64968 7.22923 6.48771
#
# Compressibility (1/GPa) = 0.05647478
#
# Stress axis : x y z
#
# Youngs Moduli (GPa) = 11.47333 58.32155 48.38425
#
# Poissons Ratio (x) = 0.47671 0.67258
# Poissons Ratio (y) = 0.09378 0.58905
# Poissons Ratio (z) = 0.15949 0.71003
#
# Static dielectric constant tensor:
#      x y z
#    x 1.616380 0.000000 0.000000 
#    y 0.000000 1.579330 0.000000 
#    z 0.000000 0.000000 1.649020 
# 
# From -- ./inp_files/72947.got.cif
#   From: 2010.05.17/outbox.cif.g08.bks.cpg/sg65_37_cif.got.tgz:72947.got - 2010.06.03 17:01:31.
