data_PCOD9491904
_publ_section_title
;
Structure prediction by ZEFSAII (Michael W. Deem and Ramdas Pophale) SiO2 
 PCOD9491904
Probable space group: C M M M
;
_chemical_formula_sum "Si O2"
_cell_formula_units_Z 52
_cell_length_a 13.396958
_cell_length_b 13.718369
_cell_length_c 12.391334
_cell_angle_alpha 90.000000
_cell_angle_beta 90.000000
_cell_angle_gamma 90.000000
_cell_volume 2277.334049
_symmetry_space_group_name_H-M "C M M M"
_symmetry_group_IT_number 65
_symmetry_cell_setting 'orthorhombic'
loop_
_space_group_symop_operation_xyz
x,y,z
-x,-y,z
x,-y,-z
-x,y,-z
-x,-y,-z
x,y,-z
-x,y,z
x,-y,z
1/2+x,1/2+y,z
1/2-x,1/2-y,z
1/2+x,1/2-y,-z
1/2-x,1/2+y,-z
1/2-x,1/2-y,-z
1/2+x,1/2+y,-z
1/2-x,1/2+y,z
1/2+x,1/2-y,z
loop_
_atom_site_type_symbol
_atom_site_label
_atom_site_fract_x
_atom_site_fract_y
_atom_site_fract_z
Si Si1 0.621810 0.392183 0.375479
Si Si2 0.619738 0.212954 0.231916
Si Si3 0.120478 0.500000 0.211155
Si Si4 0.619466 0.298877 0.000000
Si Si5 0.757009 0.000000 0.000000
O O1 0.653546 0.382268 0.500000
O O2 0.500000 0.390799 0.375998
O O3 0.650023 0.500000 0.334630
O O4 0.656515 0.302988 0.302964
O O5 0.500000 0.217477 0.239071
O O6 0.644310 0.103022 0.266786
O O7 0.642842 0.236419 0.107027
O O8 0.000000 0.500000 0.188542
O O9 0.184679 0.500000 0.102724
O O10 0.674880 0.402698 0.000000
O O11 0.500000 0.317184 0.000000
#
# Coordination Sequence:
#
# PCOD9491904 Si02
#       5
#    16  16   8   8   4
#     4   8  14  26  48  79 110 141 182 230 279 328
#     4   9  18  33  53  77 112 149 182 226 272 325
#     4  10  21  37  54  76 108 154 198 221 257 321
#     4  10  22  36  54  84 116 143 174 224 289 339
#     4  12  24  36  56  82 112 150 180 232 276 330
#
# _framework density 22.833717
#
# number of rings (size 3 to 8) (size 9 to 14) (size 15 to 20)
#    0.000    2.769    0.000    2.308    2.154    4.923 
#    0.000    0.769    0.000    4.615    0.000    6.462 
#    0.000    0.000    0.000    0.000    0.000    0.923 
#
# Total GULP energy -145350.239043 kJ/mol
# GULP energy per Si atom -5590.393809 kJ/mol
# Density = 2.278175 g / cm^3
# Si number density = 22.833717 Si / 1000 Ang^3
#
#
#
# Elastic Constant Matrix: (Units=GPa)
#
#
# Indices 1 2 3 4 5 6 
#
# 1 113.6746 41.2445 -5.0516 0.0000 0.0000 0.0000
# 2 41.2445 275.7020 95.5741 0.0000 0.0000 0.0000
# 3 -5.0516 95.5741 79.7860 0.0000 0.0000 0.0000
# 4 0.0000 0.0000 0.0000 54.7357 0.0000 0.0000
# 5 0.0000 0.0000 0.0000 0.0000 -20.2386 0.0000
# 6 0.0000 0.0000 0.0000 0.0000 0.0000 44.2403
#
#
#
# Elastic Compliance Matrix: (Units=1/GPa)
#
#
# Indices 1 2 3 4 5 6 
#
# 1 0.010052 -0.002949 0.004169 0.000000 0.000000 0.000000
# 2 -0.002949 0.007068 -0.008653 0.000000 0.000000 0.000000
# 3 0.004169 -0.008653 0.023163 0.000000 0.000000 0.000000
# 4 0.000000 0.000000 0.000000 0.018270 0.000000 0.000000
# 5 0.000000 0.000000 0.000000 0.000000 -0.049411 0.000000
# 6 0.000000 0.000000 0.000000 0.000000 0.000000 0.022604
#
#
# Mechanical properties :
#
#
# Convention : Reuss Voigt Hill
#
# Bulk Modulus (GPa) = 39.34404 81.41073 60.37738
# Shear Modulus (GPa) = 90.76830 38.24052 64.50441
#
# Velocity S-wave (km/s) = 6.31175 4.09680 5.32080
# Velocity P-wave (km/s) = 8.38962 7.62296 8.01546
#
# Compressibility (1/GPa) = 0.02541681
#
# Stress axis : x y z
#
# Youngs Moduli (GPa) = 99.47962 141.48218 43.17195
#
# Poissons Ratio (x) = 0.41724 -0.17999
# Poissons Ratio (y) = 0.29337 0.37358
# Poissons Ratio (z) = -0.41474 1.22430
#
# Static dielectric constant tensor:
#      x y z
#    x 1.869720 0.000000 0.000000 
#    y 0.000000 1.843790 0.000000 
#    z 0.000000 0.000000 1.792710 
# 
# From -- ./inp_files/39319.got.cif
#   From: 2010.05.17/outbox.cif.g08.bks.cpg/sg65_20_cif.got.tgz:39319.got - 2010.06.03 17:01:31.
