data_PCOD9491366
_publ_section_title
;
Structure prediction by ZEFSAII (Michael W. Deem and Ramdas Pophale) SiO2 
 PCOD9491366
Probable space group: C M M M
;
_chemical_formula_sum "Si O2"
_cell_formula_units_Z 112
_cell_length_a 14.857007
_cell_length_b 26.554938
_cell_length_c 14.522886
_cell_angle_alpha 90.000000
_cell_angle_beta 90.000000
_cell_angle_gamma 90.000000
_cell_volume 5729.669189
_symmetry_space_group_name_H-M "C M M M"
_symmetry_group_IT_number 65
_symmetry_cell_setting 'orthorhombic'
loop_
_space_group_symop_operation_xyz
x,y,z
-x,-y,z
x,-y,-z
-x,y,-z
-x,-y,-z
x,y,-z
-x,y,z
x,-y,z
1/2+x,1/2+y,z
1/2-x,1/2-y,z
1/2+x,1/2-y,-z
1/2-x,1/2+y,-z
1/2-x,1/2-y,-z
1/2+x,1/2+y,-z
1/2-x,1/2+y,z
1/2+x,1/2-y,z
loop_
_atom_site_type_symbol
_atom_site_label
_atom_site_fract_x
_atom_site_fract_y
_atom_site_fract_z
Si Si1 0.235522 0.308550 0.608860
Si Si2 0.605254 0.149676 0.235659
Si Si3 0.603530 0.615579 0.393950
Si Si4 0.609445 0.555018 0.778783
Si Si5 0.357057 0.756003 0.893991
Si Si6 0.894065 0.853094 0.897457
Si Si7 0.890327 0.558099 0.105235
O O1 0.210027 0.310848 0.500000
O O2 0.250000 0.250000 0.633581
O O3 0.164386 0.335285 0.676012
O O4 0.329318 0.338194 0.619475
O O5 0.500000 0.143640 0.260090
O O6 0.614157 0.196345 0.164702
O O7 0.636613 0.099580 0.180729
O O8 0.608345 0.599912 0.500000
O O9 0.500000 0.630207 0.373316
O O10 0.628501 0.570613 0.325700
O O11 0.500000 0.553533 0.786975
O O12 0.643522 0.500000 0.804122
O O13 0.644366 0.600746 0.840616
O O14 0.250000 0.750000 0.895766
O O15 0.387643 0.702141 0.854425
O O16 0.389650 0.760550 0.000000
O O17 0.000000 0.863112 0.906313
O O18 0.853735 0.850418 0.000000
O O19 0.864464 0.500000 0.125142
O O20 0.000000 0.559348 0.104026
O O21 0.861044 0.570453 0.000000
#
# Coordination Sequence:
#
# PCOD9491366 Si02
#       7
#    16  16  16  16  16  16  16
#     4  10  23  41  58  81 115 150 188 237 290 345
#     4  11  22  34  57  88 116 152 194 235 281 341
#     4   9  19  37  61  84 106 138 181 230 284 338
#     4   9  18  31  51  80 108 138 179 224 269 323
#     4  10  21  35  52  77 112 151 189 234 283 330
#     4   9  18  32  50  73 105 144 182 220 265 322
#     4   8  15  31  56  85 117 152 191 237 286 335
#
# _framework density 19.547376
#
# number of rings (size 3 to 8) (size 9 to 14) (size 15 to 20)
#    0.000    2.571    0.000    1.714    4.000    2.857 
#    0.000    5.000    0.000    1.286    0.000    2.000 
#    0.000    0.000    0.000    0.000    0.000    0.000 
#
# Total GULP energy -312456.321504 kJ/mol
# GULP energy per Si atom -5579.577170 kJ/mol
# Density = 1.950289 g / cm^3
# Si number density = 19.547376 Si / 1000 Ang^3
#
#
#
# Elastic Constant Matrix: (Units=GPa)
#
#
# Indices 1 2 3 4 5 6 
#
# 1 59.6399 19.0378 33.1321 0.0000 0.0000 0.0000
# 2 19.0378 146.2571 71.9366 0.0000 0.0000 0.0000
# 3 33.1321 71.9366 92.9124 0.0000 0.0000 0.0000
# 4 0.0000 0.0000 0.0000 29.6900 0.0000 0.0000
# 5 0.0000 0.0000 0.0000 0.0000 14.0188 0.0000
# 6 0.0000 0.0000 0.0000 0.0000 0.0000 -8.9605
#
#
#
# Elastic Compliance Matrix: (Units=1/GPa)
#
#
# Indices 1 2 3 4 5 6 
#
# 1 0.021123 0.001543 -0.008727 0.000000 0.000000 0.000000
# 2 0.001543 0.011155 -0.009187 0.000000 0.000000 0.000000
# 3 -0.008727 -0.009187 0.020988 0.000000 0.000000 0.000000
# 4 0.000000 0.000000 0.000000 0.033681 0.000000 0.000000
# 5 0.000000 0.000000 0.000000 0.000000 0.071333 0.000000
# 6 0.000000 0.000000 0.000000 0.000000 0.000000 -0.111601
#
#
# Mechanical properties :
#
#
# Convention : Reuss Voigt Hill
#
# Bulk Modulus (GPa) = 48.72393 60.78025 54.75209
# Shear Modulus (GPa) = 57.96340 18.59652 38.27996
#
# Velocity S-wave (km/s) = 5.45134 3.08775 4.43009
# Velocity P-wave (km/s) = 8.03760 6.62372 7.36467
#
# Compressibility (1/GPa) = 0.02052379
#
# Stress axis : x y z
#
# Youngs Moduli (GPa) = 47.34198 89.64609 47.64724
#
# Poissons Ratio (x) = -0.13831 0.41581
# Poissons Ratio (y) = -0.07304 0.43773
# Poissons Ratio (z) = 0.41315 0.82356
#
# Static dielectric constant tensor:
#      x y z
#    x 1.559410 0.000000 0.000000 
#    y 0.000000 1.682760 0.000000 
#    z 0.000000 0.000000 1.700830 
# 
# From -- ./inp_files/40802.got.cif
#   From: 2010.05.17/outbox.cif.g08.bks.cpg/sg65_21_cif.got.tgz:40802.got - 2010.06.03 17:01:31.
