data_PCOD9491499
_publ_section_title
;
Structure prediction by ZEFSAII (Michael W. Deem and Ramdas Pophale) SiO2 
 PCOD9491499
Probable space group: C M M M
;
_chemical_formula_sum "Si O2"
_cell_formula_units_Z 96
_cell_length_a 7.642162
_cell_length_b 18.691859
_cell_length_c 32.601823
_cell_angle_alpha 90.000000
_cell_angle_beta 90.000000
_cell_angle_gamma 90.000000
_cell_volume 4657.047003
_symmetry_space_group_name_H-M "C M M M"
_symmetry_group_IT_number 65
_symmetry_cell_setting 'orthorhombic'
loop_
_space_group_symop_operation_xyz
x,y,z
-x,-y,z
x,-y,-z
-x,y,-z
-x,-y,-z
x,y,-z
-x,y,z
x,-y,z
1/2+x,1/2+y,z
1/2-x,1/2-y,z
1/2+x,1/2-y,-z
1/2-x,1/2+y,-z
1/2-x,1/2-y,-z
1/2+x,1/2+y,-z
1/2-x,1/2+y,z
1/2+x,1/2-y,z
loop_
_atom_site_type_symbol
_atom_site_label
_atom_site_fract_x
_atom_site_fract_y
_atom_site_fract_z
Si Si1 0.289072 0.665673 0.133451
Si Si2 0.789784 0.666671 0.545767
Si Si3 0.214536 0.417507 0.374467
Si Si4 0.208635 0.919373 0.787694
Si Si5 0.792437 0.666369 0.294341
Si Si6 0.789735 0.834963 0.044062
O O1 0.500000 0.659544 0.132799
O O2 0.250000 0.750000 0.138200
O O3 0.220983 0.621326 0.172145
O O4 0.224363 0.639818 0.088561
O O5 0.723067 0.648853 0.500000
O O6 0.750000 0.750000 0.553642
O O7 0.725377 0.618365 0.583101
O O8 0.000000 0.659205 0.544653
O O9 0.266984 0.500000 0.371221
O O10 0.276673 0.372301 0.335268
O O11 0.000000 0.415898 0.374688
O O12 0.235068 0.873414 0.746852
O O13 0.000000 0.924676 0.793394
O O14 0.278422 0.000000 0.783248
O O15 0.750000 0.750000 0.293564
O O16 0.000000 0.659617 0.295844
O O17 0.750000 0.750000 0.044016
O O18 0.000000 0.843887 0.043896
O O19 0.723551 0.863478 0.000000
#
# Coordination Sequence:
#
# PCOD9491499 Si02
#       6
#    16  16  16  16  16  16
#     4   9  17  29  46  68  93 122 156 195 239 284
#     4   9  17  30  50  74  99 129 164 201 240 283
#     4   9  18  32  50  74 102 129 160 200 243 286
#     4  10  21  36  52  71  98 130 163 201 245 292
#     4  11  22  36  55  76  99 128 163 203 246 292
#     4   8  13  22  38  61  88 116 148 188 232 277
#
# _framework density 20.61392
#
# number of rings (size 3 to 8) (size 9 to 14) (size 15 to 20)
#    0.000    2.667    0.000    2.000    0.000    3.333 
#    0.000    2.500    0.000    3.000    0.000    5.833 
#    0.000    0.000    0.000   28.500    0.000   14.333 
#
# Total GULP energy -267736.841007 kJ/mol
# GULP energy per Si atom -5577.850854 kJ/mol
# Density = 2.056700 g / cm^3
# Si number density = 20.613920 Si / 1000 Ang^3
#
#
#
# Elastic Constant Matrix: (Units=GPa)
#
#
# Indices 1 2 3 4 5 6 
#
# 1 42.2091 -0.3504 6.9599 0.0000 0.0000 0.0000
# 2 -0.3504 138.8846 128.3567 0.0000 0.0000 0.0000
# 3 6.9599 128.3567 244.5877 0.0000 0.0000 0.0000
# 4 0.0000 0.0000 0.0000 -11.3819 0.0000 0.0000
# 5 0.0000 0.0000 0.0000 0.0000 12.4406 0.0000
# 6 0.0000 0.0000 0.0000 0.0000 0.0000 8.8933
#
#
#
# Elastic Compliance Matrix: (Units=1/GPa)
#
#
# Indices 1 2 3 4 5 6 
#
# 1 0.023931 0.001339 -0.001384 0.000000 0.000000 0.000000
# 2 0.001339 0.014056 -0.007415 0.000000 0.000000 0.000000
# 3 -0.001384 -0.007415 0.008019 0.000000 0.000000 0.000000
# 4 0.000000 0.000000 0.000000 -0.087859 0.000000 0.000000
# 5 0.000000 0.000000 0.000000 0.000000 0.080382 0.000000
# 6 0.000000 0.000000 0.000000 0.000000 0.000000 0.112444
#
#
# Mechanical properties :
#
#
# Convention : Reuss Voigt Hill
#
# Bulk Modulus (GPa) = 32.16700 77.29041 54.72871
# Shear Modulus (GPa) = 28.36816 21.37142 24.86979
#
# Velocity S-wave (km/s) = 3.71369 3.22335 3.47718
# Velocity P-wave (km/s) = 5.83327 7.17140 6.53667
#
# Compressibility (1/GPa) = 0.03108776
#
# Stress axis : x y z
#
# Youngs Moduli (GPa) = 41.78702 71.14318 124.70396
#
# Poissons Ratio (x) = -0.09528 0.17257
# Poissons Ratio (y) = -0.05597 0.92463
# Poissons Ratio (z) = 0.05783 0.52750
#
# Static dielectric constant tensor:
#      x y z
#    x 1.575880 0.000000 0.000000 
#    y 0.000000 1.689070 0.000000 
#    z 0.000000 0.000000 1.774460 
# 
# From -- ./inp_files/73115.got.cif
#   From: 2010.05.17/outbox.cif.g08.bks.cpg/sg65_37_cif.got.tgz:73115.got - 2010.06.03 17:01:31.
