data_PCOD9491522
_publ_section_title
;
Structure prediction by ZEFSAII (Michael W. Deem and Ramdas Pophale) SiO2 
 PCOD9491522
Probable space group: C M M M
;
_chemical_formula_sum "Si O2"
_cell_formula_units_Z 80
_cell_length_a 9.574974
_cell_length_b 14.783554
_cell_length_c 27.002741
_cell_angle_alpha 90.000000
_cell_angle_beta 90.000000
_cell_angle_gamma 90.000000
_cell_volume 3822.295914
_symmetry_space_group_name_H-M "C M M M"
_symmetry_group_IT_number 65
_symmetry_cell_setting 'orthorhombic'
loop_
_space_group_symop_operation_xyz
x,y,z
-x,-y,z
x,-y,-z
-x,y,-z
-x,-y,-z
x,y,-z
-x,y,z
x,-y,z
1/2+x,1/2+y,z
1/2-x,1/2-y,z
1/2+x,1/2-y,-z
1/2-x,1/2+y,-z
1/2-x,1/2-y,-z
1/2+x,1/2+y,-z
1/2-x,1/2+y,z
1/2+x,1/2-y,z
loop_
_atom_site_type_symbol
_atom_site_label
_atom_site_fract_x
_atom_site_fract_y
_atom_site_fract_z
Si Si1 0.338244 0.110307 0.742837
Si Si2 0.659384 0.610913 0.649205
Si Si3 0.666457 0.656463 0.053877
Si Si4 0.660979 0.889646 0.444584
Si Si5 0.843426 0.606731 0.147223
O O1 0.500000 0.135066 0.734169
O O2 0.239081 0.140791 0.698722
O O3 0.299629 0.141385 0.798475
O O4 0.332754 0.000000 0.742026
O O5 0.500000 0.641226 0.648940
O O6 0.659452 0.500000 0.649189
O O7 0.740768 0.640006 0.599941
O O8 0.500000 0.667358 0.058965
O O9 0.750000 0.750000 0.050517
O O10 0.733753 0.616436 0.103207
O O11 0.689904 0.610028 0.000000
O O12 0.705139 0.862022 0.500000
O O13 0.500000 0.862067 0.436749
O O14 0.661542 0.000000 0.444141
O O15 0.859517 0.500000 0.153774
O O16 0.000000 0.643157 0.134849
#
# Coordination Sequence:
#
# PCOD9491522 Si02
#       5
#    16  16  16  16  16
#     4   8  14  25  39  54  75 104 136 169 208 257
#     4   9  15  20  28  44  65  90 122 163 210 254
#     4  10  21  36  53  72  95 124 156 189 226 271
#     4   8  13  20  28  37  52  80 120 163 205 250
#     4   9  18  32  50  72  96 122 153 190 231 273
#
# _framework density 20.929829000000002
#
# number of rings (size 3 to 8) (size 9 to 14) (size 15 to 20)
#    0.000    3.200    0.000    3.000    0.000    5.600 
#    0.000    6.000    0.000    0.000    0.000    0.000 
#    0.000    0.000    0.000    0.000    0.000    1.000 
#
# Total GULP energy -222942.118571 kJ/mol
# GULP energy per Si atom -5573.552964 kJ/mol
# Density = 2.088219 g / cm^3
# Si number density = 20.929829 Si / 1000 Ang^3
#
#
#
# Elastic Constant Matrix: (Units=GPa)
#
#
# Indices 1 2 3 4 5 6 
#
# 1 149.8372 10.7804 153.0258 0.0000 0.0000 0.0000
# 2 10.7804 34.3282 12.1662 0.0000 0.0000 0.0000
# 3 153.0258 12.1662 244.4502 0.0000 0.0000 0.0000
# 4 0.0000 0.0000 0.0000 2.8506 0.0000 0.0000
# 5 0.0000 0.0000 0.0000 0.0000 57.2764 0.0000
# 6 0.0000 0.0000 0.0000 0.0000 0.0000 9.3522
#
#
#
# Elastic Compliance Matrix: (Units=1/GPa)
#
#
# Indices 1 2 3 4 5 6 
#
# 1 0.018606 -0.001746 -0.011560 0.000000 0.000000 0.000000
# 2 -0.001746 0.029817 -0.000391 0.000000 0.000000 0.000000
# 3 -0.011560 -0.000391 0.011347 0.000000 0.000000 0.000000
# 4 0.000000 0.000000 0.000000 0.350806 0.000000 0.000000
# 5 0.000000 0.000000 0.000000 0.000000 0.017459 0.000000
# 6 0.000000 0.000000 0.000000 0.000000 0.000000 0.106926
#
#
# Mechanical properties :
#
#
# Convention : Reuss Voigt Hill
#
# Bulk Modulus (GPa) = 30.88733 86.72894 58.80813
# Shear Modulus (GPa) = 8.72374 30.73873 19.73124
#
# Velocity S-wave (km/s) = 2.04381 3.83646 3.07373
# Velocity P-wave (km/s) = 4.51211 7.82001 6.38403
#
# Compressibility (1/GPa) = 0.03237574
#
# Stress axis : x y z
#
# Youngs Moduli (GPa) = 53.74608 33.53740 88.12796
#
# Poissons Ratio (x) = 0.05855 1.01880
# Poissons Ratio (y) = 0.09383 0.03447
# Poissons Ratio (z) = 0.62133 0.01312
#
# Static dielectric constant tensor:
#      x y z
#    x 1.712550 0.000000 0.000000 
#    y 0.000000 1.858570 0.000000 
#    z 0.000000 0.000000 1.786830 
# 
# From -- ./inp_files/72758.got.cif
#   From: 2010.05.17/outbox.cif.g08.bks.cpg/sg65_37_cif.got.tgz:72758.got - 2010.06.03 17:01:31.
