data_PCOD9491148
_publ_section_title
;
Structure prediction by ZEFSAII (Michael W. Deem and Ramdas Pophale) SiO2 
 PCOD9491148
Probable space group: C M M M
;
_chemical_formula_sum "Si O2"
_cell_formula_units_Z 64
_cell_length_a 21.085647
_cell_length_b 7.497019
_cell_length_c 18.452148
_cell_angle_alpha 90.000000
_cell_angle_beta 90.000000
_cell_angle_gamma 90.000000
_cell_volume 2916.906259
_symmetry_space_group_name_H-M "C M M M"
_symmetry_group_IT_number 65
_symmetry_cell_setting 'orthorhombic'
loop_
_space_group_symop_operation_xyz
x,y,z
-x,-y,z
x,-y,-z
-x,y,-z
-x,-y,-z
x,y,-z
-x,y,z
x,-y,z
1/2+x,1/2+y,z
1/2-x,1/2-y,z
1/2+x,1/2-y,-z
1/2-x,1/2+y,-z
1/2-x,1/2-y,-z
1/2+x,1/2+y,-z
1/2-x,1/2+y,z
1/2+x,1/2-y,z
loop_
_atom_site_type_symbol
_atom_site_label
_atom_site_fract_x
_atom_site_fract_y
_atom_site_fract_z
Si Si1 0.180661 0.286290 0.768471
Si Si2 0.641354 0.793926 0.918725
Si Si3 0.923096 0.295790 0.500000
Si Si4 0.427061 0.781043 0.659248
Si Si5 0.500000 0.701163 0.087400
O O1 0.172937 0.500000 0.773598
O O2 0.250000 0.250000 0.737327
O O3 0.176980 0.211621 0.850452
O O4 0.123115 0.221178 0.718894
O O5 0.566968 0.789934 0.895637
O O6 0.660444 0.000000 0.925083
O O7 0.647871 0.715070 0.000000
O O8 0.899533 0.500000 0.500000
O O9 0.907080 0.218508 0.578555
O O10 0.000000 0.301789 0.500000
O O11 0.500000 0.728295 0.673988
O O12 0.427078 0.000000 0.657418
O O13 0.500000 0.500000 0.115851
O O14 0.500000 0.695047 0.000000
#
# Coordination Sequence:
#
# PCOD9491148 Si02
#       5
#    16  16   8  16   8
#     4  10  21  34  49  69  98 131 163 203 244 287
#     4   9  18  32  49  68  92 127 167 201 238 286
#     4   7  10  20  41  70  97 117 148 197 240 276
#     4   8  14  26  47  72  95 122 158 198 239 283
#     4   9  17  29  47  73  99 120 149 198 252 291
#
# _framework density 21.941054000000001
#
# number of rings (size 3 to 8) (size 9 to 14) (size 15 to 20)
#    0.000    3.250    0.000    1.875    1.750    3.000 
#    0.000    0.625    0.000    0.000    0.000    0.000 
#    0.000    3.000    0.000    0.000    0.000    0.000 
#
# Total GULP energy -178334.543834 kJ/mol
# GULP energy per Si atom -5572.954495 kJ/mol
# Density = 2.189112 g / cm^3
# Si number density = 21.941054 Si / 1000 Ang^3
#
#
#
# Elastic Constant Matrix: (Units=GPa)
#
#
# Indices 1 2 3 4 5 6 
#
# 1 109.0678 -4.8919 81.1419 0.0000 0.0000 0.0000
# 2 -4.8919 63.9321 12.0264 0.0000 0.0000 0.0000
# 3 81.1419 12.0264 157.8322 0.0000 0.0000 0.0000
# 4 0.0000 0.0000 0.0000 -10.7429 0.0000 0.0000
# 5 0.0000 0.0000 0.0000 0.0000 -18.2031 0.0000
# 6 0.0000 0.0000 0.0000 0.0000 0.0000 3.2121
#
#
#
# Elastic Compliance Matrix: (Units=1/GPa)
#
#
# Indices 1 2 3 4 5 6 
#
# 1 0.015289 0.002687 -0.008065 0.000000 0.000000 0.000000
# 2 0.002687 0.016341 -0.002627 0.000000 0.000000 0.000000
# 3 -0.008065 -0.002627 0.010682 0.000000 0.000000 0.000000
# 4 0.000000 0.000000 0.000000 -0.093084 0.000000 0.000000
# 5 0.000000 0.000000 0.000000 0.000000 -0.054936 0.000000
# 6 0.000000 0.000000 0.000000 0.000000 0.000000 0.311326
#
#
# Mechanical properties :
#
#
# Convention : Reuss Voigt Hill
#
# Bulk Modulus (GPa) = 38.01764 56.37610 47.19687
# Shear Modulus (GPa) = 21.70186 11.02359 16.36272
#
# Velocity S-wave (km/s) = 3.14840 2.24390 2.73382
# Velocity P-wave (km/s) = 5.53004 5.69768 5.61449
#
# Compressibility (1/GPa) = 0.02630358
#
# Stress axis : x y z
#
# Youngs Moduli (GPa) = 65.40631 61.19476 93.61416
#
# Poissons Ratio (x) = -0.16443 0.75499
# Poissons Ratio (y) = -0.17574 0.24588
# Poissons Ratio (z) = 0.52749 0.16073
#
# Static dielectric constant tensor:
#      x y z
#    x 1.775920 0.000000 0.000000 
#    y 0.000000 1.834930 0.000000 
#    z 0.000000 0.000000 1.853190 
# 
# From -- ./inp_files/49128.got.cif
#   From: 2010.05.17/outbox.cif.g08.bks.cpg/sg65_25_cif.got.tgz:49128.got - 2010.06.03 17:01:31.
