data_PCOD9491913
_publ_section_title
;
Structure prediction by ZEFSAII (Michael W. Deem and Ramdas Pophale) SiO2 
 PCOD9491913
Probable space group: C M M M
;
_chemical_formula_sum "Si O2"
_cell_formula_units_Z 104
_cell_length_a 25.877230
_cell_length_b 9.245869
_cell_length_c 30.690303
_cell_angle_alpha 90.000000
_cell_angle_beta 90.000000
_cell_angle_gamma 90.000000
_cell_volume 7342.884515
_symmetry_space_group_name_H-M "C M M M"
_symmetry_group_IT_number 65
_symmetry_cell_setting 'orthorhombic'
loop_
_space_group_symop_operation_xyz
x,y,z
-x,-y,z
x,-y,-z
-x,y,-z
-x,-y,-z
x,y,-z
-x,y,z
x,-y,z
1/2+x,1/2+y,z
1/2-x,1/2-y,z
1/2+x,1/2-y,-z
1/2-x,1/2+y,-z
1/2-x,1/2-y,-z
1/2+x,1/2+y,-z
1/2-x,1/2+y,z
1/2+x,1/2-y,z
loop_
_atom_site_type_symbol
_atom_site_label
_atom_site_fract_x
_atom_site_fract_y
_atom_site_fract_z
Si Si1 0.937217 0.168881 0.548301
Si Si2 0.060859 0.328922 0.191314
Si Si3 0.000000 0.829286 0.947673
Si Si4 0.098521 0.673831 0.904901
Si Si5 0.937066 0.166497 0.721518
Si Si6 0.195709 0.171001 0.947920
Si Si7 0.436954 0.833457 0.365302
O O1 0.920464 0.218609 0.500000
O O2 0.919345 0.259271 0.589832
O O3 0.000000 0.175021 0.548361
O O4 0.923510 0.000000 0.553220
O O5 0.063730 0.500000 0.200804
O O6 0.090914 0.300243 0.146708
O O7 0.079076 0.241998 0.233559
O O8 0.000000 0.294971 0.183532
O O9 0.050169 0.748657 0.928911
O O10 0.000000 0.000000 0.935582
O O11 0.000000 0.820964 0.000000
O O12 0.098126 0.500000 0.912069
O O13 0.150125 0.747202 0.922949
O O14 0.920055 0.249265 0.678001
O O15 0.000000 0.171093 0.721473
O O16 0.921297 0.000000 0.720144
O O17 0.250000 0.250000 0.938950
O O18 0.197686 0.000000 0.937226
O O19 0.186132 0.182255 0.000000
O O20 0.500000 0.829171 0.365549
O O21 0.421445 0.000000 0.363424
#
# Coordination Sequence:
#
# PCOD9491913 Si02
#       7
#    16  16   8  16  16  16  16
#     4   8  13  20  28  37  51  72  99 136 182 229
#     4   9  17  30  43  58  82 108 134 163 200 245
#     4  11  23  35  47  67  95 123 149 177 208 249
#     4  11  21  34  51  71  93 119 146 176 215 257
#     4   9  16  24  35  50  66  89 121 154 189 231
#     4  10  21  37  55  74  94 117 146 179 213 250
#     4   9  15  21  29  41  57  79 107 142 184 229
#
# _framework density 14.163371
#
# number of rings (size 3 to 8) (size 9 to 14) (size 15 to 20)
#    0.000    2.538    0.769    3.000    0.000    8.615 
#    0.000    1.538    0.000    0.000    0.000    0.000 
#    0.000    0.000    0.000    0.000    0.000    0.000 
#
# Total GULP energy -289727.424066 kJ/mol
# GULP energy per Si atom -5571.681232 kJ/mol
# Density = 1.413113 g / cm^3
# Si number density = 14.163371 Si / 1000 Ang^3
#
#
#
# Elastic Constant Matrix: (Units=GPa)
#
#
# Indices 1 2 3 4 5 6 
#
# 1 52.2127 44.4171 47.0347 0.0000 0.0000 0.0000
# 2 44.4171 120.1784 96.0283 0.0000 0.0000 0.0000
# 3 47.0347 96.0283 130.1022 0.0000 0.0000 0.0000
# 4 0.0000 0.0000 0.0000 30.2077 0.0000 0.0000
# 5 0.0000 0.0000 0.0000 0.0000 0.1275 0.0000
# 6 0.0000 0.0000 0.0000 0.0000 0.0000 14.2710
#
#
#
# Elastic Compliance Matrix: (Units=1/GPa)
#
#
# Indices 1 2 3 4 5 6 
#
# 1 0.030030 -0.005909 -0.006495 0.000000 0.000000 0.000000
# 2 -0.005909 0.021447 -0.013694 0.000000 0.000000 0.000000
# 3 -0.006495 -0.013694 0.020142 0.000000 0.000000 0.000000
# 4 0.000000 0.000000 0.000000 0.033104 0.000000 0.000000
# 5 0.000000 0.000000 0.000000 0.000000 7.845871 0.000000
# 6 0.000000 0.000000 0.000000 0.000000 0.000000 0.070072
#
#
# Mechanical properties :
#
#
# Convention : Reuss Voigt Hill
#
# Bulk Modulus (GPa) = 51.48510 75.27262 63.37886
# Shear Modulus (GPa) = 0.61886 16.58877 8.60382
#
# Velocity S-wave (km/s) = 0.66174 3.42606 2.46736
# Velocity P-wave (km/s) = 6.08388 8.30132 7.27755
#
# Compressibility (1/GPa) = 0.01942310
#
# Stress axis : x y z
#
# Youngs Moduli (GPa) = 33.29979 46.62719 49.64862
#
# Poissons Ratio (x) = 0.27553 0.32247
# Poissons Ratio (y) = 0.19677 0.67986
# Poissons Ratio (z) = 0.21628 0.63849
#
# Static dielectric constant tensor:
#      x y z
#    x 1.429090 0.000000 0.000000 
#    y 0.000000 1.473890 0.000000 
#    z 0.000000 0.000000 1.473610 
# 
# From -- ./inp_files/78473.got.cif
#   From: 2010.05.17/outbox.cif.g08.bks.cpg/sg65_40_cif.got.tgz:78473.got - 2010.06.03 17:01:31.
