data_PCOD9491804
_publ_section_title
;
Structure prediction by ZEFSAII (Michael W. Deem and Ramdas Pophale) SiO2 
 PCOD9491804
Probable space group: C M M M
;
_chemical_formula_sum "Si O2"
_cell_formula_units_Z 112
_cell_length_a 17.481737
_cell_length_b 24.262635
_cell_length_c 13.261567
_cell_angle_alpha 90.000000
_cell_angle_beta 90.000000
_cell_angle_gamma 90.000000
_cell_volume 5624.933481
_symmetry_space_group_name_H-M "C M M M"
_symmetry_group_IT_number 65
_symmetry_cell_setting 'orthorhombic'
loop_
_space_group_symop_operation_xyz
x,y,z
-x,-y,z
x,-y,-z
-x,y,-z
-x,-y,-z
x,y,-z
-x,y,z
x,-y,z
1/2+x,1/2+y,z
1/2-x,1/2-y,z
1/2+x,1/2-y,-z
1/2-x,1/2+y,-z
1/2-x,1/2-y,-z
1/2+x,1/2+y,-z
1/2-x,1/2+y,z
1/2+x,1/2-y,z
loop_
_atom_site_type_symbol
_atom_site_label
_atom_site_fract_x
_atom_site_fract_y
_atom_site_fract_z
Si Si1 0.915684 0.267633 0.166515
Si Si2 0.707759 0.647361 0.611970
Si Si3 0.414855 0.065334 0.120191
Si Si4 0.084721 0.244646 0.609065
Si Si5 0.119837 0.858851 0.885790
Si Si6 0.208519 0.649471 0.179979
Si Si7 0.086336 0.934568 0.697811
O O1 0.913884 0.277654 0.287327
O O2 0.906251 0.202670 0.146114
O O3 0.841698 0.301178 0.132265
O O4 0.000000 0.284209 0.128109
O O5 0.741554 0.643785 0.500000
O O6 0.650320 0.699305 0.614274
O O7 0.765557 0.656628 0.703833
O O8 0.653100 0.594941 0.634230
O O9 0.500000 0.082663 0.153871
O O10 0.347195 0.097549 0.172638
O O11 0.408498 0.000000 0.135082
O O12 0.409952 0.075519 0.000000
O O13 0.091673 0.273455 0.500000
O O14 0.000000 0.217633 0.610007
O O15 0.211925 0.858886 0.877494
O O16 0.090399 0.903256 0.805452
O O17 0.095787 0.869666 0.000000
O O18 0.000000 0.926455 0.656673
O O19 0.099061 0.000000 0.707631
#
# Coordination Sequence:
#
# PCOD9491804 Si02
#       7
#    16  16  16  16  16  16  16
#     4  11  22  37  56  81 112 149 191 233 279 337
#     4  10  21  36  56  83 116 151 185 228 283 336
#     4   9  19  38  63  87 110 141 186 238 288 336
#     4   9  17  32  55  79 106 144 187 228 271 323
#     4  11  24  39  55  79 115 153 188 232 294 353
#     4  11  22  36  57  86 116 147 186 234 284 339
#     4  10  21  38  60  84 111 147 195 243 282 332
#
# _framework density 19.911346999999999
#
# number of rings (size 3 to 8) (size 9 to 14) (size 15 to 20)
#    0.000    1.857    2.857    2.571    0.000    7.143 
#    0.000    2.857    0.000    1.286    0.000    1.000 
#    0.000    0.000    0.000    0.000    0.000    0.000 
#
# Total GULP energy -312509.312533 kJ/mol
# GULP energy per Si atom -5580.523438 kJ/mol
# Density = 1.986603 g / cm^3
# Si number density = 19.911347 Si / 1000 Ang^3
#
#
#
# Elastic Constant Matrix: (Units=GPa)
#
#
# Indices 1 2 3 4 5 6 
#
# 1 128.2420 23.6342 6.4825 0.0000 0.0000 0.0000
# 2 23.6342 35.0793 -14.9794 0.0000 0.0000 0.0000
# 3 6.4825 -14.9794 71.9103 0.0000 0.0000 0.0000
# 4 0.0000 0.0000 0.0000 -4.8783 0.0000 0.0000
# 5 0.0000 0.0000 0.0000 0.0000 9.2618 0.0000
# 6 0.0000 0.0000 0.0000 0.0000 0.0000 37.9929
#
#
#
# Elastic Compliance Matrix: (Units=1/GPa)
#
#
# Indices 1 2 3 4 5 6 
#
# 1 0.009249 -0.007230 -0.002340 0.000000 0.000000 0.000000
# 2 -0.007230 0.036942 0.008347 0.000000 0.000000 0.000000
# 3 -0.002340 0.008347 0.015856 0.000000 0.000000 0.000000
# 4 0.000000 0.000000 0.000000 -0.204987 0.000000 0.000000
# 5 0.000000 0.000000 0.000000 0.000000 0.107970 0.000000
# 6 0.000000 0.000000 0.000000 0.000000 0.000000 0.026321
#
#
# Mechanical properties :
#
#
# Convention : Reuss Voigt Hill
#
# Bulk Modulus (GPa) = 16.77822 29.50069 23.13946
# Shear Modulus (GPa) = 365.95913 23.14824 194.55368
#
# Velocity S-wave (km/s) = 13.57178 3.41334 9.89556
# Velocity P-wave (km/s) = 15.93850 5.51205 11.92515
#
# Compressibility (1/GPa) = 0.05960107
#
# Stress axis : x y z
#
# Youngs Moduli (GPa) = 108.12551 27.06914 63.06803
#
# Poissons Ratio (x) = 0.19572 0.14757
# Poissons Ratio (y) = 0.78177 -0.52644
# Poissons Ratio (z) = 0.25299 -0.22595
#
# Static dielectric constant tensor:
#      x y z
#    x 1.727940 0.000000 0.000000 
#    y 0.000000 1.686800 0.000000 
#    z 0.000000 0.000000 1.735240 
# 
# From -- ./inp_files/40772.got.cif
#   From: 2010.05.17/outbox.cif.g08.bks.cpg/sg65_21_cif.got.tgz:40772.got - 2010.06.03 17:01:31.
