data_PCOD9491271
_publ_section_title
;
Structure prediction by ZEFSAII (Michael W. Deem and Ramdas Pophale) SiO2 
 PCOD9491271
Probable space group: C M M M
;
_chemical_formula_sum "Si O2"
_cell_formula_units_Z 72
_cell_length_a 14.533330
_cell_length_b 9.873685
_cell_length_c 24.208123
_cell_angle_alpha 90.000000
_cell_angle_beta 90.000000
_cell_angle_gamma 90.000000
_cell_volume 3473.805673
_symmetry_space_group_name_H-M "C M M M"
_symmetry_group_IT_number 65
_symmetry_cell_setting 'orthorhombic'
loop_
_space_group_symop_operation_xyz
x,y,z
-x,-y,z
x,-y,-z
-x,y,-z
-x,-y,-z
x,y,-z
-x,y,z
x,-y,z
1/2+x,1/2+y,z
1/2-x,1/2-y,z
1/2+x,1/2-y,-z
1/2-x,1/2+y,-z
1/2-x,1/2-y,-z
1/2+x,1/2+y,-z
1/2-x,1/2+y,z
1/2+x,1/2-y,z
loop_
_atom_site_type_symbol
_atom_site_label
_atom_site_fract_x
_atom_site_fract_y
_atom_site_fract_z
Si Si1 0.887340 0.845987 0.281856
Si Si2 0.112549 0.343110 0.180223
Si Si3 0.109574 0.336572 0.940682
Si Si4 0.892572 0.650653 0.623214
Si Si5 0.338652 0.841194 0.500000
O O1 0.859927 0.755718 0.229367
O O2 0.856520 0.767796 0.337124
O O3 0.000000 0.851542 0.281806
O O4 0.854203 0.000000 0.279143
O O5 0.141028 0.500000 0.188771
O O6 0.143340 0.292116 0.119523
O O7 0.000000 0.345326 0.179473
O O8 0.119565 0.500000 0.940392
O O9 0.000000 0.309313 0.941239
O O10 0.145919 0.285632 0.000000
O O11 0.851375 0.500000 0.631894
O O12 0.887963 0.684048 0.558267
O O13 0.000000 0.639235 0.637664
O O14 0.250000 0.750000 0.500000
O O15 0.315651 0.000000 0.500000
#
# Coordination Sequence:
#
# PCOD9491271 Si02
#       5
#    16  16  16  16   8
#     4   9  16  24  35  54  78 101 128 167 213 252
#     4   8  12  18  29  44  63  90 124 162 204 247
#     4   7   9  13  22  37  56  80 116 161 201 236
#     4   9  17  31  50  68  86 111 145 179 208 244
#     4  10  21  35  51  71  93 116 140 170 210 254
#
# _framework density 20.726548000000001
#
# number of rings (size 3 to 8) (size 9 to 14) (size 15 to 20)
#    0.000    3.556    0.000    3.000    0.000    4.889 
#    0.000    0.000    0.000    4.000    0.000    4.667 
#    0.000    0.000    0.000    0.000    0.000    1.111 
#
# Total GULP energy -200499.209761 kJ/mol
# GULP energy per Si atom -5569.422493 kJ/mol
# Density = 2.067937 g / cm^3
# Si number density = 20.726548 Si / 1000 Ang^3
#
#
#
# Elastic Constant Matrix: (Units=GPa)
#
#
# Indices 1 2 3 4 5 6 
#
# 1 44.5544 11.4760 -1.4890 0.0000 0.0000 0.0000
# 2 11.4760 106.9859 119.0348 0.0000 0.0000 0.0000
# 3 -1.4890 119.0348 205.5697 0.0000 0.0000 0.0000
# 4 0.0000 0.0000 0.0000 -34.3108 0.0000 0.0000
# 5 0.0000 0.0000 0.0000 0.0000 -30.5744 0.0000
# 6 0.0000 0.0000 0.0000 0.0000 0.0000 3.1814
#
#
#
# Elastic Compliance Matrix: (Units=1/GPa)
#
#
# Indices 1 2 3 4 5 6 
#
# 1 0.024665 -0.007996 0.004809 0.000000 0.000000 0.000000
# 2 -0.007996 0.028867 -0.016773 0.000000 0.000000 0.000000
# 3 0.004809 -0.016773 0.014612 0.000000 0.000000 0.000000
# 4 0.000000 0.000000 0.000000 -0.029145 0.000000 0.000000
# 5 0.000000 0.000000 0.000000 0.000000 -0.032707 0.000000
# 6 0.000000 0.000000 0.000000 0.000000 0.000000 0.314329
#
#
# Mechanical properties :
#
#
# Convention : Reuss Voigt Hill
#
# Bulk Modulus (GPa) = 35.43265 68.35039 51.89152
# Shear Modulus (GPa) = 13.51537 2.86511 8.19024
#
# Velocity S-wave (km/s) = 2.55636 1.17700 1.99001
# Velocity P-wave (km/s) = 5.08387 5.90728 5.51097
#
# Compressibility (1/GPa) = 0.02822256
#
# Stress axis : x y z
#
# Youngs Moduli (GPa) = 40.54369 34.64144 68.43703
#
# Poissons Ratio (x) = 0.27699 -0.32909
# Poissons Ratio (y) = 0.32419 1.14792
# Poissons Ratio (z) = -0.19496 0.58105
#
# Static dielectric constant tensor:
#      x y z
#    x 1.752340 0.000000 0.000000 
#    y 0.000000 1.703620 0.000000 
#    z 0.000000 0.000000 1.821920 
# 
# From -- ./inp_files/66983.got.cif
#   From: 2010.05.17/outbox.cif.g08.bks.cpg/sg65_34_cif.got.tgz:66983.got - 2010.06.03 17:01:31.
