data_PCOD9491953
_publ_section_title
;
Structure prediction by ZEFSAII (Michael W. Deem and Ramdas Pophale) SiO2 
 PCOD9491953
Probable space group: C M M M
;
_chemical_formula_sum "Si O2"
_cell_formula_units_Z 64
_cell_length_a 8.520662
_cell_length_b 18.443637
_cell_length_c 21.500196
_cell_angle_alpha 90.000000
_cell_angle_beta 90.000000
_cell_angle_gamma 90.000000
_cell_volume 3378.798736
_symmetry_space_group_name_H-M "C M M M"
_symmetry_group_IT_number 65
_symmetry_cell_setting 'orthorhombic'
loop_
_space_group_symop_operation_xyz
x,y,z
-x,-y,z
x,-y,-z
-x,y,-z
-x,-y,-z
x,y,-z
-x,y,z
x,-y,z
1/2+x,1/2+y,z
1/2-x,1/2-y,z
1/2+x,1/2-y,-z
1/2-x,1/2+y,-z
1/2-x,1/2-y,-z
1/2+x,1/2+y,-z
1/2-x,1/2+y,z
1/2+x,1/2-y,z
loop_
_atom_site_type_symbol
_atom_site_label
_atom_site_fract_x
_atom_site_fract_y
_atom_site_fract_z
Si Si1 0.188503 0.584199 0.500000
Si Si2 0.309797 0.083998 0.259228
Si Si3 0.813058 0.168216 0.620508
Si Si4 0.810085 0.667533 0.864344
Si Si5 0.310596 0.832608 0.000000
O O1 0.237604 0.500000 0.500000
O O2 0.250107 0.624337 0.561178
O O3 0.000000 0.586730 0.500000
O O4 0.500000 0.086800 0.261683
O O5 0.244113 0.129011 0.316880
O O6 0.258743 0.119716 0.194036
O O7 0.262633 0.000000 0.263107
O O8 0.750000 0.250000 0.618766
O O9 0.000000 0.169592 0.618834
O O10 0.750000 0.750000 0.857995
O O11 0.000000 0.669583 0.863601
O O12 0.760406 0.637660 0.932544
O O13 0.250000 0.750000 0.000000
O O14 0.500000 0.832943 0.000000
#
# Coordination Sequence:
#
# PCOD9491953 Si02
#       5
#     8  16  16  16   8
#     4  11  24  43  66  91 121 153 182 219 270 323
#     4  10  21  37  55  78 111 148 185 228 280 333
#     4  12  25  41  62  87 115 147 187 231 273 322
#     4   9  17  30  50  75 103 138 180 227 276 327
#     4   8  14  26  45  71 101 133 175 224 273 324
#
# _framework density 18.941644
#
# number of rings (size 3 to 8) (size 9 to 14) (size 15 to 20)
#    0.000    1.875    0.000    4.500    0.000    7.500 
#    0.000    0.625    0.000    3.750    0.000    0.000 
#    0.000   12.000    0.000    0.000    0.000    0.000 
#
# Total GULP energy -178671.555764 kJ/mol
# GULP energy per Si atom -5583.486118 kJ/mol
# Density = 1.889853 g / cm^3
# Si number density = 18.941644 Si / 1000 Ang^3
#
#
#
# Elastic Constant Matrix: (Units=GPa)
#
#
# Indices 1 2 3 4 5 6 
#
# 1 40.4267 41.0508 45.9674 0.0000 0.0000 0.0000
# 2 41.0508 159.6571 117.5447 0.0000 0.0000 0.0000
# 3 45.9674 117.5447 234.9612 0.0000 0.0000 0.0000
# 4 0.0000 0.0000 0.0000 -47.8312 0.0000 0.0000
# 5 0.0000 0.0000 0.0000 0.0000 -43.6399 0.0000
# 6 0.0000 0.0000 0.0000 0.0000 0.0000 23.9266
#
#
#
# Elastic Compliance Matrix: (Units=1/GPa)
#
#
# Indices 1 2 3 4 5 6 
#
# 1 0.035459 -0.006348 -0.003761 0.000000 0.000000 0.000000
# 2 -0.006348 0.011052 -0.004287 0.000000 0.000000 0.000000
# 3 -0.003761 -0.004287 0.007137 0.000000 0.000000 0.000000
# 4 0.000000 0.000000 0.000000 -0.020907 0.000000 0.000000
# 5 0.000000 0.000000 0.000000 0.000000 -0.022915 0.000000
# 6 0.000000 0.000000 0.000000 0.000000 0.000000 0.041795
#
#
# Mechanical properties :
#
#
# Convention : Reuss Voigt Hill
#
# Bulk Modulus (GPa) = 40.23388 93.79676 67.01532
# Shear Modulus (GPa) = 56.37116 1.85659 29.11387
#
# Velocity S-wave (km/s) = 5.46123 0.99111 3.92475
# Velocity P-wave (km/s) = 7.81369 7.13695 7.48297
#
# Compressibility (1/GPa) = 0.02485468
#
# Stress axis : x y z
#
# Youngs Moduli (GPa) = 28.20161 90.48275 140.12269
#
# Poissons Ratio (x) = 0.57437 0.52707
# Poissons Ratio (y) = 0.17902 0.60071
# Poissons Ratio (z) = 0.10608 0.38790
#
# Static dielectric constant tensor:
#      x y z
#    x 1.642770 0.000000 0.000000 
#    y 0.000000 1.611780 0.000000 
#    z 0.000000 0.000000 1.671250 
# 
# From -- ./inp_files/58809.got.cif
#   From: 2010.05.17/outbox.cif.g08.bks.cpg/sg65_30_cif.got.tgz:58809.got - 2010.06.03 17:01:31.
