data_PCOD9491533
_publ_section_title
;
Structure prediction by ZEFSAII (Michael W. Deem and Ramdas Pophale) SiO2 
 PCOD9491533
Probable space group: C M M M
;
_chemical_formula_sum "Si O2"
_cell_formula_units_Z 80
_cell_length_a 20.200880
_cell_length_b 7.822483
_cell_length_c 27.059535
_cell_angle_alpha 90.000000
_cell_angle_beta 90.000000
_cell_angle_gamma 90.000000
_cell_volume 4275.975873
_symmetry_space_group_name_H-M "C M M M"
_symmetry_group_IT_number 65
_symmetry_cell_setting 'orthorhombic'
loop_
_space_group_symop_operation_xyz
x,y,z
-x,-y,z
x,-y,-z
-x,y,-z
-x,-y,-z
x,y,-z
-x,y,z
x,-y,z
1/2+x,1/2+y,z
1/2-x,1/2-y,z
1/2+x,1/2-y,-z
1/2-x,1/2+y,-z
1/2-x,1/2-y,-z
1/2+x,1/2+y,-z
1/2-x,1/2+y,z
1/2+x,1/2-y,z
loop_
_atom_site_type_symbol
_atom_site_label
_atom_site_fract_x
_atom_site_fract_y
_atom_site_fract_z
Si Si1 0.076572 0.708821 0.747760
Si Si2 0.825730 0.202999 0.055043
Si Si3 0.327510 0.793555 0.661189
Si Si4 0.574490 0.204774 0.858531
Si Si5 0.328050 0.205868 0.553050
O O1 0.078489 0.500000 0.747152
O O2 0.126852 0.769998 0.705815
O O3 0.094319 0.765423 0.803527
O O4 0.000000 0.757010 0.738481
O O5 0.750000 0.250000 0.066529
O O6 0.875104 0.256555 0.097979
O O7 0.829425 0.000000 0.052047
O O8 0.841362 0.273977 0.000000
O O9 0.250000 0.750000 0.667547
O O10 0.351379 0.731767 0.606808
O O11 0.331685 0.000000 0.660680
O O12 0.500000 0.269063 0.869063
O O13 0.570623 0.000000 0.855069
O O14 0.355327 0.269177 0.500000
O O15 0.250000 0.250000 0.552772
O O16 0.334811 0.000000 0.552911
#
# Coordination Sequence:
#
# PCOD9491533 Si02
#       5
#    16  16  16  16  16
#     4   8  15  29  47  65  87 118 152 181 215 263
#     4  10  21  36  53  73  98 126 154 186 226 272
#     4   9  16  26  42  63  86 112 144 183 222 261
#     4   9  18  33  52  72  94 122 157 193 227 269
#     4   8  13  21  34  54  80 108 138 174 216 259
#
# _framework density 18.70918
#
# number of rings (size 3 to 8) (size 9 to 14) (size 15 to 20)
#    0.000    3.200    0.000    1.800    0.000    2.800 
#    0.000    5.000    0.000    2.400    0.000    4.200 
#    0.000    0.000    0.000   32.400    0.000   15.200 
#
# Total GULP energy -222679.348452 kJ/mol
# GULP energy per Si atom -5566.983711 kJ/mol
# Density = 1.866660 g / cm^3
# Si number density = 18.709180 Si / 1000 Ang^3
#
#
#
# Elastic Constant Matrix: (Units=GPa)
#
#
# Indices 1 2 3 4 5 6 
#
# 1 85.7508 3.2221 124.3925 0.0000 0.0000 0.0000
# 2 3.2221 22.6899 12.6342 0.0000 0.0000 0.0000
# 3 124.3925 12.6342 235.3275 0.0000 0.0000 0.0000
# 4 0.0000 0.0000 0.0000 9.5442 0.0000 0.0000
# 5 0.0000 0.0000 0.0000 0.0000 -25.2901 0.0000
# 6 0.0000 0.0000 0.0000 0.0000 0.0000 15.3676
#
#
#
# Elastic Compliance Matrix: (Units=1/GPa)
#
#
# Indices 1 2 3 4 5 6 
#
# 1 0.051400 0.008071 -0.027603 0.000000 0.000000 0.000000
# 2 0.008071 0.046698 -0.006773 0.000000 0.000000 0.000000
# 3 -0.027603 -0.006773 0.019204 0.000000 0.000000 0.000000
# 4 0.000000 0.000000 0.000000 0.104776 0.000000 0.000000
# 5 0.000000 0.000000 0.000000 0.000000 -0.039541 0.000000
# 6 0.000000 0.000000 0.000000 0.000000 0.000000 0.065072
#
#
# Mechanical properties :
#
#
# Convention : Reuss Voigt Hill
#
# Bulk Modulus (GPa) = 15.45816 69.36290 42.41053
# Shear Modulus (GPa) = 15.53837 13.49228 14.51532
#
# Velocity S-wave (km/s) = 2.88500 2.68835 2.78841
# Velocity P-wave (km/s) = 4.40204 6.84040 5.75191
#
# Compressibility (1/GPa) = 0.06469077
#
# Stress axis : x y z
#
# Youngs Moduli (GPa) = 19.45511 21.41429 52.07275
#
# Poissons Ratio (x) = -0.17283 1.43737
# Poissons Ratio (y) = -0.15702 0.35270
# Poissons Ratio (z) = 0.53702 0.14505
#
# Static dielectric constant tensor:
#      x y z
#    x 1.584940 0.000000 0.000000 
#    y 0.000000 1.765290 0.000000 
#    z 0.000000 0.000000 1.714830 
# 
# From -- ./inp_files/72721.got.cif
#   From: 2010.05.17/outbox.cif.g08.bks.cpg/sg65_37_cif.got.tgz:72721.got - 2010.06.03 17:01:31.
