data_PCOD9491986
_publ_section_title
;
Structure prediction by ZEFSAII (Michael W. Deem and Ramdas Pophale) SiO2 
 PCOD9491986
Probable space group: C M M M
;
_chemical_formula_sum "Si O2"
_cell_formula_units_Z 88
_cell_length_a 8.468156
_cell_length_b 19.246514
_cell_length_c 28.760020
_cell_angle_alpha 90.000000
_cell_angle_beta 90.000000
_cell_angle_gamma 90.000000
_cell_volume 4687.379471
_symmetry_space_group_name_H-M "C M M M"
_symmetry_group_IT_number 65
_symmetry_cell_setting 'orthorhombic'
loop_
_space_group_symop_operation_xyz
x,y,z
-x,-y,z
x,-y,-z
-x,y,-z
-x,-y,-z
x,y,-z
-x,y,z
x,-y,z
1/2+x,1/2+y,z
1/2-x,1/2-y,z
1/2+x,1/2-y,-z
1/2-x,1/2+y,-z
1/2-x,1/2-y,-z
1/2+x,1/2+y,-z
1/2-x,1/2+y,z
1/2+x,1/2-y,z
loop_
_atom_site_type_symbol
_atom_site_label
_atom_site_fract_x
_atom_site_fract_y
_atom_site_fract_z
Si Si1 0.190780 0.827438 0.913913
Si Si2 0.691014 0.579645 0.277648
Si Si3 0.193218 0.079415 0.000000
Si Si4 0.690833 0.672356 0.808433
Si Si5 0.809429 0.920211 0.446078
Si Si6 0.312943 0.171592 0.637029
O O1 0.250000 0.750000 0.924359
O O2 0.244581 0.880019 0.953726
O O3 0.241838 0.845033 0.861193
O O4 0.000000 0.826890 0.914221
O O5 0.500000 0.578392 0.277337
O O6 0.746404 0.500000 0.280737
O O7 0.744070 0.617784 0.230340
O O8 0.744114 0.625286 0.321235
O O9 0.000000 0.079624 0.000000
O O10 0.245290 0.000000 0.000000
O O11 0.500000 0.673535 0.807954
O O12 0.750000 0.750000 0.797492
O O13 0.766782 0.907815 0.500000
O O14 0.735776 0.865797 0.410866
O O15 0.000000 0.916339 0.442709
O O16 0.764371 0.000000 0.434302
O O17 0.500000 0.173270 0.641168
O O18 0.250000 0.250000 0.639097
#
# Coordination Sequence:
#
# PCOD9491986 Si02
#       6
#    16  16   8  16  16  16
#     4   9  17  30  49  72  98 130 169 210 253 305
#     4  10  21  37  56  78 106 139 174 215 265 319
#     4   9  17  28  45  71 100 129 164 210 258 303
#     4   9  18  32  51  75 101 132 170 212 258 308
#     4   9  19  38  63  88 115 147 180 216 262 315
#     4  12  25  39  57  81 110 144 182 224 267 312
#
# _framework density 18.773814999999999
#
# number of rings (size 3 to 8) (size 9 to 14) (size 15 to 20)
#    0.000    2.273    0.000    3.545    0.000    6.545 
#    0.000    4.545    0.000    1.091    0.000    5.091 
#    0.000    0.000    0.000    0.000    0.000    0.000 
#
# Total GULP energy -245658.696740 kJ/mol
# GULP energy per Si atom -5583.152199 kJ/mol
# Density = 1.873109 g / cm^3
# Si number density = 18.773815 Si / 1000 Ang^3
#
#
#
# Elastic Constant Matrix: (Units=GPa)
#
#
# Indices 1 2 3 4 5 6 
#
# 1 14.6428 27.0146 23.8826 0.0000 0.0000 0.0000
# 2 27.0146 183.6062 126.7092 0.0000 0.0000 0.0000
# 3 23.8826 126.7092 135.0000 0.0000 0.0000 0.0000
# 4 0.0000 0.0000 0.0000 -223.4866 0.0000 0.0000
# 5 0.0000 0.0000 0.0000 0.0000 2.7411 0.0000
# 6 0.0000 0.0000 0.0000 0.0000 0.0000 27.1338
#
#
#
# Elastic Compliance Matrix: (Units=1/GPa)
#
#
# Indices 1 2 3 4 5 6 
#
# 1 0.099100 -0.007046 -0.010918 0.000000 0.000000 0.000000
# 2 -0.007046 0.015962 -0.013735 0.000000 0.000000 0.000000
# 3 -0.010918 -0.013735 0.022231 0.000000 0.000000 0.000000
# 4 0.000000 0.000000 0.000000 -0.004475 0.000000 0.000000
# 5 0.000000 0.000000 0.000000 0.000000 0.364813 0.000000
# 6 0.000000 0.000000 0.000000 0.000000 0.000000 0.036854
#
#
# Mechanical properties :
#
#
# Convention : Reuss Voigt Hill
#
# Bulk Modulus (GPa) = 13.53299 76.49577 45.01438
# Shear Modulus (GPa) = 8.03192 -28.34617 -10.15713
#
# Velocity S-wave (km/s) = 2.07064 -3.88993 -2.32852
# Velocity P-wave (km/s) = 3.59733 4.54522 4.09877
#
# Compressibility (1/GPa) = 0.07389351
#
# Stress axis : x y z
#
# Youngs Moduli (GPa) = 10.09082 62.64855 44.98288
#
# Poissons Ratio (x) = 0.44143 0.49113
# Poissons Ratio (y) = 0.07110 0.61785
# Poissons Ratio (z) = 0.11017 0.86049
#
# Static dielectric constant tensor:
#      x y z
#    x 1.646060 0.000000 0.000000 
#    y 0.000000 1.627200 0.000000 
#    z 0.000000 0.000000 1.651110 
# 
# From -- ./inp_files/76623.got.cif
#   From: 2010.05.17/outbox.cif.g08.bks.cpg/sg65_39_cif.got.tgz:76623.got - 2010.06.03 17:01:31.
