data_PCOD9491459
_publ_section_title
;
Structure prediction by ZEFSAII (Michael W. Deem and Ramdas Pophale) SiO2 
 PCOD9491459
Probable space group: C M M M
;
_chemical_formula_sum "Si O2"
_cell_formula_units_Z 52
_cell_length_a 7.403021
_cell_length_b 30.369553
_cell_length_c 11.874098
_cell_angle_alpha 90.000000
_cell_angle_beta 90.000000
_cell_angle_gamma 90.000000
_cell_volume 2669.611165
_symmetry_space_group_name_H-M "C M M M"
_symmetry_group_IT_number 65
_symmetry_cell_setting 'orthorhombic'
loop_
_space_group_symop_operation_xyz
x,y,z
-x,-y,z
x,-y,-z
-x,y,-z
-x,-y,-z
x,y,-z
-x,y,z
x,-y,z
1/2+x,1/2+y,z
1/2-x,1/2-y,z
1/2+x,1/2-y,-z
1/2-x,1/2+y,-z
1/2-x,1/2-y,-z
1/2+x,1/2+y,-z
1/2-x,1/2+y,z
1/2+x,1/2-y,z
loop_
_atom_site_type_symbol
_atom_site_label
_atom_site_fract_x
_atom_site_fract_y
_atom_site_fract_z
Si Si1 0.219357 0.830570 0.500000
Si Si2 0.783520 0.887353 0.133033
Si Si3 0.500000 0.051902 0.745708
Si Si4 0.785787 0.200886 0.742968
Si Si5 0.500000 0.091255 0.500000
O O1 0.276110 0.805480 0.613920
O O2 0.324734 0.876747 0.500000
O O3 0.000000 0.835973 0.500000
O O4 0.673028 0.924654 0.197757
O O5 0.721676 0.839973 0.182225
O O6 0.000000 0.891774 0.150361
O O7 0.748784 0.889351 0.000000
O O8 0.500000 0.063099 0.613425
O O9 0.500000 0.000000 0.765013
O O10 0.750000 0.250000 0.784871
O O11 0.000000 0.196435 0.739900
#
# Coordination Sequence:
#
# PCOD9491459 Si02
#       5
#     8  16   8  16   4
#     4  10  21  38  59  88 123 171 215 257 312 379
#     4  10  23  44  65  90 129 171 212 263 313 371
#     4  12  26  44  69  99 124 160 214 269 327 388
#     4  10  21  35  58  90 127 167 213 258 311 371
#     4  12  23  40  72  88 130 168 196 266 337 374
#
# _framework density 19.478491000000002
#
# number of rings (size 3 to 8) (size 9 to 14) (size 15 to 20)
#    0.000    1.538    3.077    1.154    4.308    2.462 
#    0.000    1.538    0.000    2.769    0.000    0.000 
#    0.000    0.000    0.000    0.000    0.000    0.000 
#
# Total GULP energy -145232.042696 kJ/mol
# GULP energy per Si atom -5585.847796 kJ/mol
# Density = 1.943416 g / cm^3
# Si number density = 19.478491 Si / 1000 Ang^3
#
#
#
# Elastic Constant Matrix: (Units=GPa)
#
#
# Indices 1 2 3 4 5 6 
#
# 1 80.6354 42.6237 45.6065 0.0000 0.0000 0.0000
# 2 42.6237 196.6004 82.2487 0.0000 0.0000 0.0000
# 3 45.6065 82.2487 137.4821 0.0000 0.0000 0.0000
# 4 0.0000 0.0000 0.0000 0.0606 0.0000 0.0000
# 5 0.0000 0.0000 0.0000 0.0000 11.0815 0.0000
# 6 0.0000 0.0000 0.0000 0.0000 0.0000 23.8648
#
#
#
# Elastic Compliance Matrix: (Units=1/GPa)
#
#
# Indices 1 2 3 4 5 6 
#
# 1 0.015647 -0.001628 -0.004216 0.000000 0.000000 0.000000
# 2 -0.001628 0.006954 -0.003620 0.000000 0.000000 0.000000
# 3 -0.004216 -0.003620 0.010838 0.000000 0.000000 0.000000
# 4 0.000000 0.000000 0.000000 16.508884 0.000000 0.000000
# 5 0.000000 0.000000 0.000000 0.000000 0.090240 0.000000
# 6 0.000000 0.000000 0.000000 0.000000 0.000000 0.041903
#
#
# Mechanical properties :
#
#
# Convention : Reuss Voigt Hill
#
# Bulk Modulus (GPa) = 68.92058 83.96396 76.44227
# Shear Modulus (GPa) = 0.29943 23.28397 11.79170
#
# Velocity S-wave (km/s) = 0.39250 3.46116 2.46310
# Velocity P-wave (km/s) = 5.97203 7.69236 6.88613
#
# Compressibility (1/GPa) = 0.01450946
#
# Stress axis : x y z
#
# Youngs Moduli (GPa) = 63.91003 143.80306 92.26769
#
# Poissons Ratio (x) = 0.23417 0.38903
# Poissons Ratio (y) = 0.10407 0.33401
# Poissons Ratio (z) = 0.26947 0.52057
#
# Static dielectric constant tensor:
#      x y z
#    x 1.894120 0.000000 0.000000 
#    y 0.000000 1.664330 0.000000 
#    z 0.000000 0.000000 1.681530 
# 
# From -- ./inp_files/20334.got.cif
#   From: 2010.05.17/outbox.cif.g08.bks.cpg/sg65_11_cif.got.tgz:20334.got - 2010.06.03 17:01:31.
