data_PCOD9491974
_publ_section_title
;
Structure prediction by ZEFSAII (Michael W. Deem and Ramdas Pophale) SiO2 
 PCOD9491974
Probable space group: C M M M
;
_chemical_formula_sum "Si O2"
_cell_formula_units_Z 80
_cell_length_a 19.607830
_cell_length_b 8.309750
_cell_length_c 26.425169
_cell_angle_alpha 90.000000
_cell_angle_beta 90.000000
_cell_angle_gamma 90.000000
_cell_volume 4305.615705
_symmetry_space_group_name_H-M "C M M M"
_symmetry_group_IT_number 65
_symmetry_cell_setting 'orthorhombic'
loop_
_space_group_symop_operation_xyz
x,y,z
-x,-y,z
x,-y,-z
-x,y,-z
-x,-y,-z
x,y,-z
-x,y,z
x,-y,z
1/2+x,1/2+y,z
1/2-x,1/2-y,z
1/2+x,1/2-y,-z
1/2-x,1/2+y,-z
1/2-x,1/2-y,-z
1/2+x,1/2+y,-z
1/2-x,1/2+y,z
1/2+x,1/2-y,z
loop_
_atom_site_type_symbol
_atom_site_label
_atom_site_fract_x
_atom_site_fract_y
_atom_site_fract_z
Si Si1 0.172500 0.805483 0.556555
Si Si2 0.827564 0.807878 0.148717
Si Si3 0.921537 0.692326 0.239929
Si Si4 0.077932 0.196255 0.057701
Si Si5 0.578588 0.694582 0.351517
O O1 0.150677 0.752879 0.500000
O O2 0.250000 0.750000 0.563955
O O3 0.125110 0.748073 0.602240
O O4 0.171032 0.000000 0.556955
O O5 0.750000 0.750000 0.150722
O O6 0.870931 0.757791 0.197658
O O7 0.868255 0.746321 0.099138
O O8 0.826797 0.000000 0.146187
O O9 0.922103 0.500000 0.237177
O O10 0.900048 0.743862 0.296355
O O11 0.000000 0.750561 0.232098
O O12 0.000000 0.244845 0.070181
O O13 0.078569 0.000000 0.058039
O O14 0.092961 0.246619 0.000000
O O15 0.500000 0.744009 0.359267
O O16 0.580666 0.500000 0.350524
#
# Coordination Sequence:
#
# PCOD9491974 Si02
#       5
#    16  16  16  16  16
#     4   9  18  32  50  73 101 133 167 204 249 301
#     4  11  22  35  53  78 108 141 176 214 258 307
#     4  10  21  37  56  77 103 135 172 216 263 311
#     4   8  15  30  53  79 104 133 172 214 255 303
#     4   9  18  33  53  76 101 131 169 211 254 302
#
# _framework density 18.580385
#
# number of rings (size 3 to 8) (size 9 to 14) (size 15 to 20)
#    0.000    2.600    0.000    2.400    0.000    4.400 
#    0.000    4.000    0.000    1.800    0.000   12.600 
#    0.000    0.000    0.000    0.000    0.000    0.000 
#
# Total GULP energy -223158.738782 kJ/mol
# GULP energy per Si atom -5578.968470 kJ/mol
# Density = 1.853810 g / cm^3
# Si number density = 18.580385 Si / 1000 Ang^3
#
#
#
# Elastic Constant Matrix: (Units=GPa)
#
#
# Indices 1 2 3 4 5 6 
#
# 1 129.7047 20.0338 133.9759 0.0000 0.0000 0.0000
# 2 20.0338 17.2003 24.7714 0.0000 0.0000 0.0000
# 3 133.9759 24.7714 193.1677 0.0000 0.0000 0.0000
# 4 0.0000 0.0000 0.0000 8.9514 0.0000 0.0000
# 5 0.0000 0.0000 0.0000 0.0000-4295.3398 0.0000
# 6 0.0000 0.0000 0.0000 0.0000 0.0000 17.4752
#
#
#
# Elastic Compliance Matrix: (Units=1/GPa)
#
#
# Indices 1 2 3 4 5 6 
#
# 1 0.027623 -0.005620 -0.018438 0.000000 0.000000 0.000000
# 2 -0.005620 0.072451 -0.005393 0.000000 0.000000 0.000000
# 3 -0.018438 -0.005393 0.018656 0.000000 0.000000 0.000000
# 4 0.000000 0.000000 0.000000 0.111715 0.000000 0.000000
# 5 0.000000 0.000000 0.000000 0.000000 -0.000233 0.000000
# 6 0.000000 0.000000 0.000000 0.000000 0.000000 0.057224
#
#
# Mechanical properties :
#
#
# Convention : Reuss Voigt Hill
#
# Bulk Modulus (GPa) = 16.71436 77.51500 47.11468
# Shear Modulus (GPa) = 13.65074 -843.02987 -414.68956
#
# Velocity S-wave (km/s) = 2.71345 -21.32382 -14.95564
# Velocity P-wave (km/s) = 4.33962 23.75846 16.51715
#
# Compressibility (1/GPa) = 0.05982881
#
# Stress axis : x y z
#
# Youngs Moduli (GPa) = 36.20218 13.80242 53.60102
#
# Poissons Ratio (x) = 0.07756 0.98828
# Poissons Ratio (y) = 0.20344 0.28909
# Poissons Ratio (z) = 0.66748 0.07444
#
# Static dielectric constant tensor:
#      x y z
#    x 1.625050 0.000000 0.000000 
#    y 0.000000 1.645250 0.000000 
#    z 0.000000 0.000000 1.637100 
# 
# From -- ./inp_files/72715.got.cif
#   From: 2010.05.17/outbox.cif.g08.bks.cpg/sg65_37_cif.got.tgz:72715.got - 2010.06.03 17:01:31.
