data_PCOD9491238
_publ_section_title
;
Structure prediction by ZEFSAII (Michael W. Deem and Ramdas Pophale) SiO2 
 PCOD9491238
Probable space group: C M M M
;
_chemical_formula_sum "Si O2"
_cell_formula_units_Z 96
_cell_length_a 9.459971
_cell_length_b 31.615359
_cell_length_c 19.452711
_cell_angle_alpha 90.000000
_cell_angle_beta 90.000000
_cell_angle_gamma 90.000000
_cell_volume 5817.924184
_symmetry_space_group_name_H-M "C M M M"
_symmetry_group_IT_number 65
_symmetry_cell_setting 'orthorhombic'
loop_
_space_group_symop_operation_xyz
x,y,z
-x,-y,z
x,-y,-z
-x,y,-z
-x,-y,-z
x,y,-z
-x,y,z
x,-y,z
1/2+x,1/2+y,z
1/2-x,1/2-y,z
1/2+x,1/2-y,-z
1/2-x,1/2+y,-z
1/2-x,1/2-y,-z
1/2+x,1/2+y,-z
1/2-x,1/2+y,z
1/2+x,1/2-y,z
loop_
_atom_site_type_symbol
_atom_site_label
_atom_site_fract_x
_atom_site_fract_y
_atom_site_fract_z
Si Si1 0.667178 0.048445 0.682045
Si Si2 0.167279 0.625235 0.418926
Si Si3 0.336977 0.291240 0.416220
Si Si4 0.830904 0.385128 0.918015
Si Si5 0.167573 0.049418 0.176113
Si Si6 0.337053 0.790351 0.916319
O O1 0.500000 0.052078 0.699637
O O2 0.698642 0.083429 0.624762
O O3 0.760614 0.055539 0.749542
O O4 0.690519 0.000000 0.658220
O O5 0.193319 0.617924 0.500000
O O6 0.258757 0.665513 0.396026
O O7 0.000000 0.635006 0.411400
O O8 0.336308 0.290613 0.500000
O O9 0.500000 0.289932 0.394056
O O10 0.250000 0.250000 0.393389
O O11 0.744433 0.419939 0.877174
O O12 0.787796 0.337358 0.896367
O O13 0.000000 0.389114 0.905967
O O14 0.808888 0.389054 0.000000
O O15 0.000000 0.057392 0.178969
O O16 0.188704 0.000000 0.157393
O O17 0.500000 0.785928 0.895835
O O18 0.250000 0.750000 0.891707
O O19 0.333506 0.790052 0.000000
#
# Coordination Sequence:
#
# PCOD9491238 Si02
#       6
#    16  16  16  16  16  16
#     4   9  18  33  52  71  93 126 163 194 231 284
#     4   9  17  29  47  73 101 125 154 196 241 281
#     4   9  16  26  42  65  94 127 160 193 232 280
#     4   9  18  32  50  73  99 126 158 196 237 282
#     4  10  21  35  50  69  94 125 161 200 240 283
#     4   8  14  25  42  66  95 124 153 185 223 270
#
# _framework density 16.500730000000001
#
# number of rings (size 3 to 8) (size 9 to 14) (size 15 to 20)
#    0.000    3.000    0.000    2.000    0.000    5.333 
#    0.000    5.000    0.000    1.000    0.000    9.333 
#    0.000    0.000    0.000    0.000    0.000    0.000 
#
# Total GULP energy -267391.049021 kJ/mol
# GULP energy per Si atom -5570.646855 kJ/mol
# Density = 1.646317 g / cm^3
# Si number density = 16.500730 Si / 1000 Ang^3
#
#
#
# Elastic Constant Matrix: (Units=GPa)
#
#
# Indices 1 2 3 4 5 6 
#
# 1 91.0768 104.2359 49.0808 0.0000 0.0000 0.0000
# 2 104.2359 171.3866 70.7776 0.0000 0.0000 0.0000
# 3 49.0808 70.7776 39.5284 0.0000 0.0000 0.0000
# 4 0.0000 0.0000 0.0000 -11.4751 0.0000 0.0000
# 5 0.0000 0.0000 0.0000 0.0000 15.3922 0.0000
# 6 0.0000 0.0000 0.0000 0.0000 0.0000 33.3388
#
#
#
# Elastic Compliance Matrix: (Units=1/GPa)
#
#
# Indices 1 2 3 4 5 6 
#
# 1 0.041415 -0.015167 -0.024265 0.000000 0.000000 0.000000
# 2 -0.015167 0.027948 -0.031210 0.000000 0.000000 0.000000
# 3 -0.024265 -0.031210 0.111311 0.000000 0.000000 0.000000
# 4 0.000000 0.000000 0.000000 -0.087145 0.000000 0.000000
# 5 0.000000 0.000000 0.000000 0.000000 0.064968 0.000000
# 6 0.000000 0.000000 0.000000 0.000000 0.000000 0.029995
#
#
# Mechanical properties :
#
#
# Convention : Reuss Voigt Hill
#
# Bulk Modulus (GPa) = 25.38820 83.35338 54.37079
# Shear Modulus (GPa) = 14.58122 12.64436 13.61279
#
# Velocity S-wave (km/s) = 2.97589 2.77120 2.87536
# Velocity P-wave (km/s) = 5.21799 7.80154 6.63669
#
# Compressibility (1/GPa) = 0.03938837
#
# Stress axis : x y z
#
# Youngs Moduli (GPa) = 24.14577 35.78039 8.98386
#
# Poissons Ratio (x) = 0.54270 0.21800
# Poissons Ratio (y) = 0.36623 0.28039
# Poissons Ratio (z) = 0.58591 1.11671
#
# Static dielectric constant tensor:
#      x y z
#    x 1.550170 0.000000 0.000000 
#    y 0.000000 1.555070 0.000000 
#    z 0.000000 0.000000 1.527250 
# 
# From -- ./inp_files/60165.got.cif
#   From: 2010.05.17/outbox.cif.g08.bks.cpg/sg65_31_cif.got.tgz:60165.got - 2010.06.03 17:01:31.
