data_PCOD9491269
_publ_section_title
;
Structure prediction by ZEFSAII (Michael W. Deem and Ramdas Pophale) SiO2 
 PCOD9491269
Probable space group: C M M M
;
_chemical_formula_sum "Si O2"
_cell_formula_units_Z 80
_cell_length_a 21.179244
_cell_length_b 7.644444
_cell_length_c 25.555378
_cell_angle_alpha 90.000000
_cell_angle_beta 90.000000
_cell_angle_gamma 90.000000
_cell_volume 4137.506285
_symmetry_space_group_name_H-M "C M M M"
_symmetry_group_IT_number 65
_symmetry_cell_setting 'orthorhombic'
loop_
_space_group_symop_operation_xyz
x,y,z
-x,-y,z
x,-y,-z
-x,y,-z
-x,-y,-z
x,y,-z
-x,y,z
x,-y,z
1/2+x,1/2+y,z
1/2-x,1/2-y,z
1/2+x,1/2-y,-z
1/2-x,1/2+y,-z
1/2-x,1/2-y,-z
1/2+x,1/2+y,-z
1/2-x,1/2+y,z
1/2+x,1/2-y,z
loop_
_atom_site_type_symbol
_atom_site_label
_atom_site_fract_x
_atom_site_fract_y
_atom_site_fract_z
Si Si1 0.000000 0.302214 0.063145
Si Si2 0.576637 0.300929 0.361856
Si Si3 0.422852 0.000000 0.560132
Si Si4 0.318755 0.289683 0.166830
Si Si5 0.072014 0.786249 0.243700
Si Si6 0.859932 0.203577 0.941337
O O1 0.066220 0.212698 0.075583
O O2 0.000000 0.500000 0.083416
O O3 0.000000 0.308378 0.000000
O O4 0.500000 0.306423 0.363440
O O5 0.599269 0.500000 0.368788
O O6 0.597571 0.169562 0.406907
O O7 0.590899 0.237616 0.302961
O O8 0.500000 0.000000 0.559873
O O9 0.402244 0.000000 0.500000
O O10 0.325420 0.500000 0.163699
O O11 0.250000 0.250000 0.189154
O O12 0.376528 0.225236 0.202116
O O13 0.323141 0.217204 0.107535
O O14 0.000000 0.728939 0.232837
O O15 0.070974 0.000000 0.243235
O O16 0.842794 0.000000 0.945768
O O17 0.852852 0.280724 0.000000
#
# Coordination Sequence:
#
# PCOD9491269 Si02
#       6
#     8  16   8  16  16  16
#     4   9  17  29  47  71  97 121 149 199 251 292
#     4   8  14  26  43  63  92 131 172 209 247 296
#     4   9  16  24  38  66 104 138 167 203 248 300
#     4  10  21  35  51  71 100 130 161 211 259 304
#     4   8  15  30  52  71  89 127 174 209 246 298
#     4   9  18  32  50  70  93 127 167 201 245 310
#
# _framework density 19.335318999999998
#
# number of rings (size 3 to 8) (size 9 to 14) (size 15 to 20)
#    0.000    3.200    0.000    1.500    1.400    2.800 
#    1.800    2.000    0.000    0.000    0.000    0.000 
#    0.000    0.800    0.400    0.000    0.000    0.000 
#
# Total GULP energy -222878.871577 kJ/mol
# GULP energy per Si atom -5571.971789 kJ/mol
# Density = 1.929131 g / cm^3
# Si number density = 19.335319 Si / 1000 Ang^3
#
#
#
# Elastic Constant Matrix: (Units=GPa)
#
#
# Indices 1 2 3 4 5 6 
#
# 1 68.9802 6.1055 60.3736 0.0000 0.0000 0.0000
# 2 6.1055 59.1524 40.8662 0.0000 0.0000 0.0000
# 3 60.3736 40.8662 148.0435 0.0000 0.0000 0.0000
# 4 0.0000 0.0000 0.0000 -26.0494 0.0000 0.0000
# 5 0.0000 0.0000 0.0000 0.0000 -6.3544 0.0000
# 6 0.0000 0.0000 0.0000 0.0000 0.0000 6.0518
#
#
#
# Elastic Compliance Matrix: (Units=1/GPa)
#
#
# Indices 1 2 3 4 5 6 
#
# 1 0.023793 0.005249 -0.011152 0.000000 0.000000 0.000000
# 2 0.005249 0.022047 -0.008226 0.000000 0.000000 0.000000
# 3 -0.011152 -0.008226 0.013573 0.000000 0.000000 0.000000
# 4 0.000000 0.000000 0.000000 -0.038389 0.000000 0.000000
# 5 0.000000 0.000000 0.000000 0.000000 -0.157371 0.000000
# 6 0.000000 0.000000 0.000000 0.000000 0.000000 0.165239
#
#
# Mechanical properties :
#
#
# Convention : Reuss Voigt Hill
#
# Bulk Modulus (GPa) = 32.09852 54.54074 43.31963
# Shear Modulus (GPa) = 74.03425 5.98500 40.00962
#
# Velocity S-wave (km/s) = 6.19458 1.76127 4.55384
# Velocity P-wave (km/s) = 8.23412 5.69256 7.07834
#
# Compressibility (1/GPa) = 0.03115409
#
# Stress axis : x y z
#
# Youngs Moduli (GPa) = 42.02967 45.35765 73.67377
#
# Poissons Ratio (x) = -0.23806 0.82159
# Poissons Ratio (y) = -0.22059 0.60606
# Poissons Ratio (z) = 0.46870 0.37313
#
# Static dielectric constant tensor:
#      x y z
#    x 1.660040 0.000000 0.000000 
#    y 0.000000 1.729240 0.000000 
#    z 0.000000 0.000000 1.693900 
# 
# From -- ./inp_files/71348.got.cif
#   From: 2010.05.17/outbox.cif.g08.bks.cpg/sg65_36_cif.got.tgz:71348.got - 2010.06.03 17:01:31.
