data_PCOD9491861
_publ_section_title
;
Structure prediction by ZEFSAII (Michael W. Deem and Ramdas Pophale) SiO2 
 PCOD9491861
Probable space group: C M M M
;
_chemical_formula_sum "Si O2"
_cell_formula_units_Z 92
_cell_length_a 28.251611
_cell_length_b 7.465898
_cell_length_c 20.710986
_cell_angle_alpha 90.000000
_cell_angle_beta 90.000000
_cell_angle_gamma 90.000000
_cell_volume 4368.436681
_symmetry_space_group_name_H-M "C M M M"
_symmetry_group_IT_number 65
_symmetry_cell_setting 'orthorhombic'
loop_
_space_group_symop_operation_xyz
x,y,z
-x,-y,z
x,-y,-z
-x,y,-z
-x,-y,-z
x,y,-z
-x,y,z
x,-y,z
1/2+x,1/2+y,z
1/2-x,1/2-y,z
1/2+x,1/2-y,-z
1/2-x,1/2+y,-z
1/2-x,1/2-y,-z
1/2+x,1/2+y,-z
1/2-x,1/2+y,z
1/2+x,1/2-y,z
loop_
_atom_site_type_symbol
_atom_site_label
_atom_site_fract_x
_atom_site_fract_y
_atom_site_fract_z
Si Si1 0.305974 0.284973 0.500000
Si Si2 0.805509 0.786639 0.235438
Si Si3 0.649909 0.709670 0.632362
Si Si4 0.553460 0.783955 0.692355
Si Si5 0.946448 0.282190 0.159677
Si Si6 0.850815 0.705118 0.100704
Si Si7 0.180061 0.000000 0.000000
O O1 0.312767 0.500000 0.500000
O O2 0.250000 0.250000 0.500000
O O3 0.330204 0.214672 0.565560
O O4 0.750000 0.750000 0.234447
O O5 0.826838 0.714560 0.302460
O O6 0.829446 0.704958 0.172498
O O7 0.813923 0.000000 0.232171
O O8 0.662722 0.500000 0.632071
O O9 0.593844 0.724535 0.643454
O O10 0.500000 0.726072 0.676646
O O11 0.563840 0.724274 0.766331
O O12 0.553772 0.000000 0.693295
O O13 0.946021 0.500000 0.160455
O O14 0.905155 0.229683 0.110756
O O15 0.000000 0.225910 0.143502
O O16 0.850401 0.500000 0.076839
O O17 0.823200 0.842240 0.055969
#
# Coordination Sequence:
#
# PCOD9491861 Si02
#       7
#     8  16  16  16  16  16   4
#     4  10  22  40  57  84 123 167 208 249 315 376
#     4  11  22  38  62  91 119 150 204 263 306 365
#     4  10  21  36  58  87 124 161 202 256 306 362
#     4   9  17  31  55  87 119 153 200 252 300 357
#     4   8  15  31  58  89 118 154 199 248 304 364
#     4  11  22  41  66  89 122 166 203 256 316 369
#     4  12  26  44  63  88 134 162 206 254 307 396
#
# _framework density 21.060165000000001
#
# number of rings (size 3 to 8) (size 9 to 14) (size 15 to 20)
#    0.000    2.087    2.609    2.348    0.000    1.739 
#    0.000    2.174    0.000    4.696    0.000    0.000 
#    0.000    0.000    0.000    0.000    0.000    0.000 
#
# Total GULP energy -256414.445640 kJ/mol
# GULP energy per Si atom -5574.227079 kJ/mol
# Density = 2.101223 g / cm^3
# Si number density = 21.060165 Si / 1000 Ang^3
#
#
#
# Elastic Constant Matrix: (Units=GPa)
#
#
# Indices 1 2 3 4 5 6 
#
# 1 55.8940 -7.1755 13.5635 0.0000 0.0000 0.0000
# 2 -7.1755 93.4101 25.9741 0.0000 0.0000 0.0000
# 3 13.5635 25.9741 108.7361 0.0000 0.0000 0.0000
# 4 0.0000 0.0000 0.0000 23.5844 0.0000 0.0000
# 5 0.0000 0.0000 0.0000 0.0000 -153.2263 0.0000
# 6 0.0000 0.0000 0.0000 0.0000 0.0000 10.5589
#
#
#
# Elastic Compliance Matrix: (Units=1/GPa)
#
#
# Indices 1 2 3 4 5 6 
#
# 1 0.018883 0.002255 -0.002894 0.000000 0.000000 0.000000
# 2 0.002255 0.011737 -0.003085 0.000000 0.000000 0.000000
# 3 -0.002894 -0.003085 0.010294 0.000000 0.000000 0.000000
# 4 0.000000 0.000000 0.000000 0.042401 0.000000 0.000000
# 5 0.000000 0.000000 0.000000 0.000000 -0.006526 0.000000
# 6 0.000000 0.000000 0.000000 0.000000 0.000000 0.094707
#
#
# Mechanical properties :
#
#
# Convention : Reuss Voigt Hill
#
# Bulk Modulus (GPa) = 29.88070 35.86273 32.87171
# Shear Modulus (GPa) = 26.30221 -8.77141 8.76540
#
# Velocity S-wave (km/s) = 3.53782 -2.04303 2.04233
# Velocity P-wave (km/s) = 5.55943 3.39122 4.60476
#
# Compressibility (1/GPa) = 0.03346642
#
# Stress axis : x y z
#
# Youngs Moduli (GPa) = 52.95812 85.20416 97.13947
#
# Poissons Ratio (x) = -0.19216 0.28113
# Poissons Ratio (y) = -0.11944 0.29966
# Poissons Ratio (z) = 0.15327 0.26284
#
# Static dielectric constant tensor:
#      x y z
#    x 1.768500 0.000000 0.000000 
#    y 0.000000 1.777730 0.000000 
#    z 0.000000 0.000000 1.738560 
# 
# From -- ./inp_files/65788.got.cif
#   From: 2010.05.17/outbox.cif.g08.bks.cpg/sg65_33_cif.got.tgz:65788.got - 2010.06.03 17:01:31.
