data_PCOD9491769
_publ_section_title
;
Structure prediction by ZEFSAII (Michael W. Deem and Ramdas Pophale) SiO2 
 PCOD9491769
Probable space group: C M M M
;
_chemical_formula_sum "Si O2"
_cell_formula_units_Z 96
_cell_length_a 9.151203
_cell_length_b 26.113558
_cell_length_c 18.835689
_cell_angle_alpha 90.000000
_cell_angle_beta 90.000000
_cell_angle_gamma 90.000000
_cell_volume 4501.173459
_symmetry_space_group_name_H-M "C M M M"
_symmetry_group_IT_number 65
_symmetry_cell_setting 'orthorhombic'
loop_
_space_group_symop_operation_xyz
x,y,z
-x,-y,z
x,-y,-z
-x,y,-z
-x,-y,-z
x,y,-z
-x,y,z
x,-y,z
1/2+x,1/2+y,z
1/2-x,1/2-y,z
1/2+x,1/2-y,-z
1/2-x,1/2+y,-z
1/2-x,1/2-y,-z
1/2+x,1/2+y,-z
1/2-x,1/2+y,z
1/2+x,1/2-y,z
loop_
_atom_site_type_symbol
_atom_site_label
_atom_site_fract_x
_atom_site_fract_y
_atom_site_fract_z
Si Si1 0.823403 0.915550 0.579411
Si Si2 0.827321 0.412192 0.718564
Si Si3 0.325263 0.802294 0.780915
Si Si4 0.828052 0.557838 0.120089
Si Si5 0.339399 0.298171 0.415813
Si Si6 0.827474 0.158746 0.919947
O O1 0.779913 0.934011 0.500000
O O2 0.756285 0.936622 0.651941
O O3 0.778039 0.855544 0.584991
O O4 0.000000 0.918320 0.581489
O O5 0.784659 0.352731 0.735054
O O6 0.804912 0.439014 0.794634
O O7 0.000000 0.413154 0.703017
O O8 0.500000 0.798180 0.780070
O O9 0.250000 0.750000 0.758451
O O10 0.267562 0.813433 0.860314
O O11 0.803522 0.500000 0.095762
O O12 0.724933 0.599792 0.085114
O O13 0.000000 0.570967 0.108111
O O14 0.356740 0.288665 0.500000
O O15 0.500000 0.299145 0.382262
O O16 0.250000 0.250000 0.389075
O O17 0.000000 0.163028 0.903778
O O18 0.802472 0.177456 0.000000
#
# Coordination Sequence:
#
# PCOD9491769 Si02
#       6
#    16  16  16  16  16  16
#     4   9  18  31  46  66  94 129 167 210 265 323
#     4   9  19  34  52  76 102 131 173 222 268 318
#     4  10  21  37  56  78 107 146 190 229 266 312
#     4   9  19  37  59  81 107 140 177 218 267 323
#     4   8  14  24  36  52  77 109 146 187 231 282
#     4  10  21  36  55  83 117 147 178 219 263 310
#
# _framework density 21.327773000000001
#
# number of rings (size 3 to 8) (size 9 to 14) (size 15 to 20)
#    0.000    2.833    0.000    3.000    0.000    7.333 
#    0.000    6.667    0.000    0.500    0.000    3.500 
#    0.000    0.000    0.000    0.000    0.000    0.000 
#
# Total GULP energy -267736.825569 kJ/mol
# GULP energy per Si atom -5577.850533 kJ/mol
# Density = 2.127923 g / cm^3
# Si number density = 21.327773 Si / 1000 Ang^3
#
#
#
# Elastic Constant Matrix: (Units=GPa)
#
#
# Indices 1 2 3 4 5 6 
#
# 1 30.4410 11.4923 37.4066 0.0000 0.0000 0.0000
# 2 11.4923 64.4546 2.6043 0.0000 0.0000 0.0000
# 3 37.4066 2.6043 122.1314 0.0000 0.0000 0.0000
# 4 0.0000 0.0000 0.0000 -9.6575 0.0000 0.0000
# 5 0.0000 0.0000 0.0000 0.0000 24.5703 0.0000
# 6 0.0000 0.0000 0.0000 0.0000 0.0000 16.7148
#
#
#
# Elastic Compliance Matrix: (Units=1/GPa)
#
#
# Indices 1 2 3 4 5 6 
#
# 1 0.058113 -0.009651 -0.017593 0.000000 0.000000 0.000000
# 2 -0.009651 0.017131 0.002591 0.000000 0.000000 0.000000
# 3 -0.017593 0.002591 0.013521 0.000000 0.000000 0.000000
# 4 0.000000 0.000000 0.000000 -0.103546 0.000000 0.000000
# 5 0.000000 0.000000 0.000000 0.000000 0.040700 0.000000
# 6 0.000000 0.000000 0.000000 0.000000 0.000000 0.059827
#
#
# Mechanical properties :
#
#
# Convention : Reuss Voigt Hill
#
# Bulk Modulus (GPa) = 25.34334 35.55927 30.45130
# Shear Modulus (GPa) = 33.73722 17.36042 25.54882
#
# Velocity S-wave (km/s) = 3.98156 2.85613 3.46484
# Velocity P-wave (km/s) = 5.74853 5.25220 5.50596
#
# Compressibility (1/GPa) = 0.03945811
#
# Stress axis : x y z
#
# Youngs Moduli (GPa) = 17.20800 58.37417 73.95856
#
# Poissons Ratio (x) = 0.56335 1.30115
# Poissons Ratio (y) = 0.16607 -0.19159
# Poissons Ratio (z) = 0.30274 -0.15122
#
# Static dielectric constant tensor:
#      x y z
#    x 1.728870 0.000000 0.000000 
#    y 0.000000 1.712390 0.000000 
#    z 0.000000 0.000000 1.798790 
# 
# From -- ./inp_files/60300.got.cif
#   From: 2010.05.17/outbox.cif.g08.bks.cpg/sg65_31_cif.got.tgz:60300.got - 2010.06.03 17:01:31.
