data_PCOD9491851
_publ_section_title
;
Structure prediction by ZEFSAII (Michael W. Deem and Ramdas Pophale) SiO2 
 PCOD9491851
Probable space group: C M M M
;
_chemical_formula_sum "Si O2"
_cell_formula_units_Z 66
_cell_length_a 25.557913
_cell_length_b 14.258988
_cell_length_c 9.909510
_cell_angle_alpha 90.000000
_cell_angle_beta 90.000000
_cell_angle_gamma 90.000000
_cell_volume 3611.322479
_symmetry_space_group_name_H-M "C M M M"
_symmetry_group_IT_number 65
_symmetry_cell_setting 'orthorhombic'
loop_
_space_group_symop_operation_xyz
x,y,z
-x,-y,z
x,-y,-z
-x,y,-z
-x,-y,-z
x,y,-z
-x,y,z
x,-y,z
1/2+x,1/2+y,z
1/2-x,1/2-y,z
1/2+x,1/2-y,-z
1/2-x,1/2+y,-z
1/2-x,1/2-y,-z
1/2+x,1/2+y,-z
1/2-x,1/2+y,z
1/2+x,1/2-y,z
loop_
_atom_site_type_symbol
_atom_site_label
_atom_site_fract_x
_atom_site_fract_y
_atom_site_fract_z
Si Si1 0.562622 0.389096 0.500000
Si Si2 0.000000 0.000000 0.000000
Si Si3 0.734798 0.608311 0.651136
Si Si4 0.630057 0.292201 0.725823
Si Si5 0.608919 0.398156 0.000000
Si Si6 0.333846 0.890895 0.839243
O O1 0.578107 0.500000 0.500000
O O2 0.500000 0.386401 0.500000
O O3 0.586554 0.335338 0.627956
O O4 0.953020 0.920485 0.000000
O O5 0.757948 0.619633 0.500000
O O6 0.715704 0.500000 0.659498
O O7 0.686200 0.677486 0.666389
O O8 0.777224 0.620938 0.768420
O O9 0.624648 0.343537 0.867925
O O10 0.629607 0.182152 0.759608
O O11 0.635822 0.500000 0.000000
O O12 0.348748 0.000000 0.822832
O O13 0.331929 0.870585 0.000000
#
# Coordination Sequence:
#
# PCOD9491851 Si02
#       6
#     8   2  16  16   8  16
#     4  11  26  42  64  93 127 153 190 246 312 371
#     4   8  24  40  56  90 126 144 196 262 312 364
#     4  10  21  36  57  87 126 164 200 243 295 360
#     4  12  22  38  62  89 118 164 203 244 299 364
#     4  10  22  36  60  86 117 151 195 249 302 365
#     4  10  23  41  59  86 124 163 207 253 293 342
#
# _framework density 18.275853999999999
#
# number of rings (size 3 to 8) (size 9 to 14) (size 15 to 20)
#    0.364    1.091    2.424    2.909    5.091    1.939 
#    0.000    0.000    0.000    1.455    0.000    2.545 
#    0.000    0.000    0.000    0.000    0.000    0.000 
#
# Total GULP energy -183887.714072 kJ/mol
# GULP energy per Si atom -5572.354972 kJ/mol
# Density = 1.823426 g / cm^3
# Si number density = 18.275854 Si / 1000 Ang^3
#
#
#
# Elastic Constant Matrix: (Units=GPa)
#
#
# Indices 1 2 3 4 5 6 
#
# 1 41.5348 44.3436 29.1152 0.0000 0.0000 0.0000
# 2 44.3436 130.8807 54.6616 0.0000 0.0000 0.0000
# 3 29.1152 54.6616 125.6660 0.0000 0.0000 0.0000
# 4 0.0000 0.0000 0.0000 84.9318 0.0000 0.0000
# 5 0.0000 0.0000 0.0000 0.0000 14.7511 0.0000
# 6 0.0000 0.0000 0.0000 0.0000 0.0000 17.4140
#
#
#
# Elastic Compliance Matrix: (Units=1/GPa)
#
#
# Indices 1 2 3 4 5 6 
#
# 1 0.039340 -0.011636 -0.004053 0.000000 0.000000 0.000000
# 2 -0.011636 0.012778 -0.002862 0.000000 0.000000 0.000000
# 3 -0.004053 -0.002862 0.010142 0.000000 0.000000 0.000000
# 4 0.000000 0.000000 0.000000 0.011774 0.000000 0.000000
# 5 0.000000 0.000000 0.000000 0.000000 0.067791 0.000000
# 6 0.000000 0.000000 0.000000 0.000000 0.000000 0.057425
#
#
# Mechanical properties :
#
#
# Convention : Reuss Voigt Hill
#
# Bulk Modulus (GPa) = 39.75008 61.59136 50.67072
# Shear Modulus (GPa) = 20.42983 34.75015 27.58999
#
# Velocity S-wave (km/s) = 3.34707 4.36526 3.88963
# Velocity P-wave (km/s) = 6.06089 7.69295 6.92517
#
# Compressibility (1/GPa) = 0.02515718
#
# Stress axis : x y z
#
# Youngs Moduli (GPa) = 25.41913 78.25698 98.60244
#
# Poissons Ratio (x) = 0.91061 0.39966
# Poissons Ratio (y) = 0.29578 0.28224
# Poissons Ratio (z) = 0.10303 0.22400
#
# Static dielectric constant tensor:
#      x y z
#    x 1.595280 0.000000 0.000000 
#    y 0.000000 1.675300 0.000000 
#    z 0.000000 0.000000 1.640370 
# 
# From -- ./inp_files/15668.got.cif
#   From: 2010.05.17/outbox.cif.g08.bks.cpg/sg65_8_cif.got.tgz:15668.got - 2010.06.03 17:01:31.
