data_PCOD9491456
_publ_section_title
;
Structure prediction by ZEFSAII (Michael W. Deem and Ramdas Pophale) SiO2 
 PCOD9491456
Probable space group: C M M M
;
_chemical_formula_sum "Si O2"
_cell_formula_units_Z 42
_cell_length_a 7.676650
_cell_length_b 23.661817
_cell_length_c 10.861753
_cell_angle_alpha 90.000000
_cell_angle_beta 90.000000
_cell_angle_gamma 90.000000
_cell_volume 1972.966695
_symmetry_space_group_name_H-M "C M M M"
_symmetry_group_IT_number 65
_symmetry_cell_setting 'orthorhombic'
loop_
_space_group_symop_operation_xyz
x,y,z
-x,-y,z
x,-y,-z
-x,y,-z
-x,-y,-z
x,y,-z
-x,y,z
x,-y,z
1/2+x,1/2+y,z
1/2-x,1/2-y,z
1/2+x,1/2-y,-z
1/2-x,1/2+y,-z
1/2-x,1/2-y,-z
1/2+x,1/2+y,-z
1/2-x,1/2+y,z
1/2+x,1/2-y,z
loop_
_atom_site_type_symbol
_atom_site_label
_atom_site_fract_x
_atom_site_fract_y
_atom_site_fract_z
Si Si1 0.000000 0.500000 0.500000
Si Si2 0.790710 0.317106 0.500000
Si Si3 0.712415 0.122430 0.754851
Si Si4 0.693659 0.500000 0.700896
Si Si5 0.208323 0.315309 0.000000
O O1 0.848145 0.500000 0.604001
O O2 0.750000 0.250000 0.500000
O O3 0.730544 0.348959 0.624884
O O4 0.000000 0.322155 0.500000
O O5 0.500000 0.121045 0.751132
O O6 0.780944 0.059039 0.770304
O O7 0.771864 0.157772 0.872730
O O8 0.500000 0.500000 0.647252
O O9 0.250000 0.250000 0.000000
O O10 0.000000 0.323102 0.000000
#
# Coordination Sequence:
#
# PCOD9491456 Si02
#       5
#     2   8  16   8   8
#     4  12  22  44  64  92 148 168 214 274 328 396
#     4  10  21  35  58  84 119 165 210 269 332 384
#     4  10  21  40  62  89 131 175 217 276 336 396
#     4  12  25  40  68 101 128 180 224 270 339 399
#     4  10  22  39  64  93 129 181 225 271 343 395
#
# _framework density 21.287738000000001
#
# number of rings (size 3 to 8) (size 9 to 14) (size 15 to 20)
#    0.000    1.524    1.905    2.571    2.667    3.810 
#    0.000    3.810    0.000    0.000    0.000    0.000 
#    0.000    0.000    0.000    0.000    0.000    0.000 
#
# Total GULP energy -117043.659470 kJ/mol
# GULP energy per Si atom -5573.507594 kJ/mol
# Density = 2.123929 g / cm^3
# Si number density = 21.287738 Si / 1000 Ang^3
#
#
#
# Elastic Constant Matrix: (Units=GPa)
#
#
# Indices 1 2 3 4 5 6 
#
# 1 90.4749 4.4027 23.1376 0.0000 0.0000 0.0000
# 2 4.4027 215.4867 119.5066 0.0000 0.0000 0.0000
# 3 23.1376 119.5066 194.2003 0.0000 0.0000 0.0000
# 4 0.0000 0.0000 0.0000 215.1683 0.0000 0.0000
# 5 0.0000 0.0000 0.0000 0.0000 1.1215 0.0000
# 6 0.0000 0.0000 0.0000 0.0000 0.0000 23.0681
#
#
#
# Elastic Compliance Matrix: (Units=1/GPa)
#
#
# Indices 1 2 3 4 5 6 
#
# 1 0.011489 0.000796 -0.001859 0.000000 0.000000 0.000000
# 2 0.000796 0.007100 -0.004464 0.000000 0.000000 0.000000
# 3 -0.001859 -0.004464 0.008118 0.000000 0.000000 0.000000
# 4 0.000000 0.000000 0.000000 0.004648 0.000000 0.000000
# 5 0.000000 0.000000 0.000000 0.000000 0.891666 0.000000
# 6 0.000000 0.000000 0.000000 0.000000 0.000000 0.043350
#
#
# Mechanical properties :
#
#
# Convention : Reuss Voigt Hill
#
# Bulk Modulus (GPa) = 63.88198 88.25063 76.06630
# Shear Modulus (GPa) = 5.08832 71.41259 38.25046
#
# Velocity S-wave (km/s) = 1.54772 5.79820 4.24350
# Velocity P-wave (km/s) = 5.76783 9.29364 7.73432
#
# Compressibility (1/GPa) = 0.01565387
#
# Stress axis : x y z
#
# Youngs Moduli (GPa) = 87.03666 140.84209 123.18439
#
# Poissons Ratio (x) = -0.11213 0.22898
# Poissons Ratio (y) = -0.06929 0.54991
# Poissons Ratio (z) = 0.16178 0.62874
#
# Static dielectric constant tensor:
#      x y z
#    x 1.775320 0.000000 0.000000 
#    y 0.000000 1.703120 0.000000 
#    z 0.000000 0.000000 1.741470 
# 
# From -- ./inp_files/19941.got.cif
#   From: 2010.05.17/outbox.cif.g08.bks.cpg/sg65_10_cif.got.tgz:19941.got - 2010.06.03 17:01:31.
