data_PCOD9491666
_publ_section_title
;
Structure prediction by ZEFSAII (Michael W. Deem and Ramdas Pophale) SiO2 
 PCOD9491666
Probable space group: C M M M
;
_chemical_formula_sum "Si O2"
_cell_formula_units_Z 64
_cell_length_a 8.748505
_cell_length_b 31.759693
_cell_length_c 12.688823
_cell_angle_alpha 90.000000
_cell_angle_beta 90.000000
_cell_angle_gamma 90.000000
_cell_volume 3525.587352
_symmetry_space_group_name_H-M "C M M M"
_symmetry_group_IT_number 65
_symmetry_cell_setting 'orthorhombic'
loop_
_space_group_symop_operation_xyz
x,y,z
-x,-y,z
x,-y,-z
-x,y,-z
-x,-y,-z
x,y,-z
-x,y,z
x,-y,z
1/2+x,1/2+y,z
1/2-x,1/2-y,z
1/2+x,1/2-y,-z
1/2-x,1/2+y,-z
1/2-x,1/2-y,-z
1/2+x,1/2+y,-z
1/2-x,1/2+y,z
1/2+x,1/2-y,z
loop_
_atom_site_type_symbol
_atom_site_label
_atom_site_fract_x
_atom_site_fract_y
_atom_site_fract_z
Si Si1 0.183996 0.949952 0.000000
Si Si2 0.329500 0.208254 0.874957
Si Si3 0.681244 0.588697 0.623402
Si Si4 0.317616 0.115563 0.167651
Si Si5 0.326789 0.000000 0.626261
O O1 0.243753 0.922630 0.100493
O O2 0.000000 0.949410 0.000000
O O3 0.230935 0.000000 0.000000
O O4 0.500000 0.205570 0.829378
O O5 0.250000 0.250000 0.830887
O O6 0.258277 0.161862 0.865115
O O7 0.342627 0.214909 0.000000
O O8 0.717559 0.596513 0.500000
O O9 0.500000 0.594653 0.637408
O O10 0.777957 0.613554 0.709034
O O11 0.729444 0.540987 0.650307
O O12 0.500000 0.113369 0.148746
O O13 0.500000 0.000000 0.671389
O O14 0.343690 0.000000 0.500000
#
# Coordination Sequence:
#
# PCOD9491666 Si02
#       5
#     8  16  16  16   8
#     4  11  25  41  56  79 114 155 194 229 273 330
#     4   9  18  34  55  82 111 139 176 224 277 330
#     4  10  21  36  54  78 109 145 187 234 279 325
#     4  11  22  38  59  83 114 148 187 231 276 333
#     4   9  17  31  51  74  99 134 183 231 274 317
#
# _framework density 18.153002999999998
#
# number of rings (size 3 to 8) (size 9 to 14) (size 15 to 20)
#    0.000    2.000    1.250    2.250    1.750    6.000 
#    0.000    0.000    0.000    0.750    0.000    0.000 
#    0.000    0.000    0.000    0.000    0.000    0.000 
#
# Total GULP energy -178151.048327 kJ/mol
# GULP energy per Si atom -5567.220260 kJ/mol
# Density = 1.811169 g / cm^3
# Si number density = 18.153003 Si / 1000 Ang^3
#
#
#
# Elastic Constant Matrix: (Units=GPa)
#
#
# Indices 1 2 3 4 5 6 
#
# 1 42.3896 35.6894 16.8091 0.0000 0.0000 0.0000
# 2 35.6894 136.3301 28.8018 0.0000 0.0000 0.0000
# 3 16.8091 28.8018 62.3471 0.0000 0.0000 0.0000
# 4 0.0000 0.0000 0.0000 -7.1176 0.0000 0.0000
# 5 0.0000 0.0000 0.0000 0.0000 23.9609 0.0000
# 6 0.0000 0.0000 0.0000 0.0000 0.0000 28.1643
#
#
#
# Elastic Compliance Matrix: (Units=1/GPa)
#
#
# Indices 1 2 3 4 5 6 
#
# 1 0.031726 -0.007201 -0.005227 0.000000 0.000000 0.000000
# 2 -0.007201 0.009763 -0.002569 0.000000 0.000000 0.000000
# 3 -0.005227 -0.002569 0.018635 0.000000 0.000000 0.000000
# 4 0.000000 0.000000 0.000000 -0.140496 0.000000 0.000000
# 5 0.000000 0.000000 0.000000 0.000000 0.041735 0.000000
# 6 0.000000 0.000000 0.000000 0.000000 0.000000 0.035506
#
#
# Mechanical properties :
#
#
# Convention : Reuss Voigt Hill
#
# Bulk Modulus (GPa) = 33.18861 44.85194 39.02027
# Shear Modulus (GPa) = 135.47941 19.65261 77.56601
#
# Velocity S-wave (km/s) = 8.64835 3.29387 6.54384
# Velocity P-wave (km/s) = 10.86498 6.26319 8.86778
#
# Compressibility (1/GPa) = 0.03013082
#
# Stress axis : x y z
#
# Youngs Moduli (GPa) = 31.51950 102.42768 53.66235
#
# Poissons Ratio (x) = 0.73761 0.28049
# Poissons Ratio (y) = 0.22698 0.13784
# Poissons Ratio (z) = 0.16475 0.26309
#
# Static dielectric constant tensor:
#      x y z
#    x 1.647350 0.000000 0.000000 
#    y 0.000000 1.853010 0.000000 
#    z 0.000000 0.000000 1.636630 
# 
# From -- ./inp_files/20931.got.cif
#   From: 2010.05.17/outbox.cif.g08.bks.cpg/sg65_11_cif.got.tgz:20931.got - 2010.06.03 17:01:31.
