data_PCOD9491245
_publ_section_title
;
Structure prediction by ZEFSAII (Michael W. Deem and Ramdas Pophale) SiO2 
 PCOD9491245
Probable space group: C M M M
;
_chemical_formula_sum "Si O2"
_cell_formula_units_Z 72
_cell_length_a 7.653213
_cell_length_b 15.957575
_cell_length_c 28.996199
_cell_angle_alpha 90.000000
_cell_angle_beta 90.000000
_cell_angle_gamma 90.000000
_cell_volume 3541.210689
_symmetry_space_group_name_H-M "C M M M"
_symmetry_group_IT_number 65
_symmetry_cell_setting 'orthorhombic'
loop_
_space_group_symop_operation_xyz
x,y,z
-x,-y,z
x,-y,-z
-x,y,-z
-x,-y,-z
x,y,-z
-x,y,z
x,-y,z
1/2+x,1/2+y,z
1/2-x,1/2-y,z
1/2+x,1/2-y,-z
1/2-x,1/2+y,-z
1/2-x,1/2-y,-z
1/2+x,1/2+y,-z
1/2-x,1/2+y,z
1/2+x,1/2-y,z
loop_
_atom_site_type_symbol
_atom_site_label
_atom_site_fract_x
_atom_site_fract_y
_atom_site_fract_z
Si Si1 0.209650 0.344610 0.114464
Si Si2 0.789761 0.000000 0.387401
Si Si3 0.790144 0.155519 0.447350
Si Si4 0.214339 0.500000 0.946993
Si Si5 0.710232 0.000000 0.720309
Si Si6 0.209898 0.344514 0.219699
O O1 0.250000 0.250000 0.099190
O O2 0.272528 0.417301 0.080615
O O3 0.276118 0.354765 0.167070
O O4 0.000000 0.352294 0.116489
O O5 0.724215 0.083053 0.413667
O O6 0.750015 0.000000 0.333545
O O7 0.000000 0.000000 0.391610
O O8 0.724186 0.145362 0.500000
O O9 0.750000 0.250000 0.431963
O O10 0.000000 0.148218 0.449314
O O11 0.000000 0.500000 0.947081
O O12 0.270607 0.500000 0.000000
O O13 0.775727 0.083064 0.746575
O O14 0.500000 0.000000 0.724513
O O15 0.250000 0.250000 0.235044
O O16 0.000000 0.351783 0.217709
#
# Coordination Sequence:
#
# PCOD9491245 Si02
#       6
#    16   8  16   8   8  16
#     4   9  17  31  51  72  94 123 161 201 239 282
#     4  10  21  35  51  73 102 133 161 193 239 290
#     4   9  18  34  55  76  98 127 163 200 237 280
#     4   9  17  29  47  71  98 129 161 192 234 291
#     4  10  21  35  50  70  98 130 162 197 239 286
#     4   9  18  33  52  72  94 124 162 202 241 282
#
# _framework density 20.332028000000001
#
# number of rings (size 3 to 8) (size 9 to 14) (size 15 to 20)
#    0.000    2.778    0.000    1.000    0.000    7.111 
#    0.000    5.000    0.000    9.333    0.000    0.000 
#    0.000    0.000    0.000    0.000    0.000    0.000 
#
# Total GULP energy -200918.059884 kJ/mol
# GULP energy per Si atom -5581.057219 kJ/mol
# Density = 2.028575 g / cm^3
# Si number density = 20.332028 Si / 1000 Ang^3
#
#
#
# Elastic Constant Matrix: (Units=GPa)
#
#
# Indices 1 2 3 4 5 6 
#
# 1 37.2055 4.2627 4.4284 0.0000 0.0000 0.0000
# 2 4.2627 240.0600 155.3412 0.0000 0.0000 0.0000
# 3 4.4284 155.3412 142.9571 0.0000 0.0000 0.0000
# 4 0.0000 0.0000 0.0000 -22.2006 0.0000 0.0000
# 5 0.0000 0.0000 0.0000 0.0000 13.1955 0.0000
# 6 0.0000 0.0000 0.0000 0.0000 0.0000 24.2533
#
#
#
# Elastic Compliance Matrix: (Units=1/GPa)
#
#
# Indices 1 2 3 4 5 6 
#
# 1 0.026980 0.000208 -0.001062 0.000000 0.000000 0.000000
# 2 0.000208 0.014034 -0.015257 0.000000 0.000000 0.000000
# 3 -0.001062 -0.015257 0.023606 0.000000 0.000000 0.000000
# 4 0.000000 0.000000 0.000000 -0.045044 0.000000 0.000000
# 5 0.000000 0.000000 0.000000 0.000000 0.075783 0.000000
# 6 0.000000 0.000000 0.000000 0.000000 0.000000 0.041231
#
#
# Mechanical properties :
#
#
# Convention : Reuss Voigt Hill
#
# Bulk Modulus (GPa) = 30.86410 83.14302 57.00356
# Shear Modulus (GPa) = 27.83770 20.12900 23.98335
#
# Velocity S-wave (km/s) = 3.70422 3.14986 3.43823
# Velocity P-wave (km/s) = 5.78861 7.36276 6.62262
#
# Compressibility (1/GPa) = 0.03240010
#
# Stress axis : x y z
#
# Youngs Moduli (GPa) = 37.06413 71.25366 42.36168
#
# Poissons Ratio (x) = -0.01482 0.04498
# Poissons Ratio (y) = -0.00771 0.64629
# Poissons Ratio (z) = 0.03935 1.08709
#
# Static dielectric constant tensor:
#      x y z
#    x 1.767330 0.000000 0.000000 
#    y 0.000000 1.704420 0.000000 
#    z 0.000000 0.000000 1.692300 
# 
# From -- ./inp_files/69675.got.cif
#   From: 2010.05.17/outbox.cif.g08.bks.cpg/sg65_35_cif.got.tgz:69675.got - 2010.06.03 17:01:31.
