data_PCOD9491615
_publ_section_title
;
Structure prediction by ZEFSAII (Michael W. Deem and Ramdas Pophale) SiO2 
 PCOD9491615
Probable space group: C M M M
;
_chemical_formula_sum "Si O2"
_cell_formula_units_Z 96
_cell_length_a 15.819742
_cell_length_b 14.895541
_cell_length_c 20.759568
_cell_angle_alpha 90.000000
_cell_angle_beta 90.000000
_cell_angle_gamma 90.000000
_cell_volume 4891.859661
_symmetry_space_group_name_H-M "C M M M"
_symmetry_group_IT_number 65
_symmetry_cell_setting 'orthorhombic'
loop_
_space_group_symop_operation_xyz
x,y,z
-x,-y,z
x,-y,-z
-x,y,-z
-x,-y,-z
x,y,-z
-x,y,z
x,-y,z
1/2+x,1/2+y,z
1/2-x,1/2-y,z
1/2+x,1/2-y,-z
1/2-x,1/2+y,-z
1/2-x,1/2-y,-z
1/2+x,1/2+y,-z
1/2-x,1/2+y,z
1/2+x,1/2-y,z
loop_
_atom_site_type_symbol
_atom_site_label
_atom_site_fract_x
_atom_site_fract_y
_atom_site_fract_z
Si Si1 0.597127 0.769468 0.814188
Si Si2 0.396996 0.101651 0.073949
Si Si3 0.663897 0.400856 0.748903
Si Si4 0.102804 0.706267 0.571283
Si Si5 0.144112 0.397061 0.300245
Si Si6 0.901431 0.098540 0.391881
O O1 0.500000 0.744548 0.827538
O O2 0.632109 0.826253 0.874141
O O3 0.647391 0.680345 0.796509
O O4 0.598724 0.834736 0.752145
O O5 0.500000 0.101709 0.076076
O O6 0.370207 0.000000 0.091045
O O7 0.372705 0.119867 0.000000
O O8 0.650047 0.500000 0.777026
O O9 0.758285 0.396315 0.721088
O O10 0.605500 0.391689 0.685439
O O11 0.125135 0.673464 0.500000
O O12 0.135241 0.646138 0.629578
O O13 0.133894 0.809418 0.579288
O O14 0.000000 0.707840 0.576250
O O15 0.113849 0.500000 0.299307
O O16 0.000000 0.095430 0.410502
O O17 0.863961 0.000000 0.408279
#
# Coordination Sequence:
#
# PCOD9491615 Si02
#       6
#    16  16  16  16  16  16
#     4  11  20  32  57  86 109 139 181 225 270 319
#     4   8  15  29  50  81 119 150 179 221 270 317
#     4  10  21  36  54  76 106 142 180 224 271 319
#     4  10  21  36  55  80 107 138 178 228 284 333
#     4  11  23  37  53  76 108 144 181 220 269 329
#     4   9  17  32  54  77 101 133 176 223 270 320
#
# _framework density 19.624438999999999
#
# number of rings (size 3 to 8) (size 9 to 14) (size 15 to 20)
#    0.000    2.167    1.667    2.500    0.000    3.667 
#    0.000    4.167    0.000    5.500    0.000    4.667 
#    0.000    0.000    0.000    0.000    0.000    0.000 
#
# Total GULP energy -267956.454109 kJ/mol
# GULP energy per Si atom -5582.426127 kJ/mol
# Density = 1.957977 g / cm^3
# Si number density = 19.624439 Si / 1000 Ang^3
#
#
#
# Elastic Constant Matrix: (Units=GPa)
#
#
# Indices 1 2 3 4 5 6 
#
# 1 26.6300 22.2108 10.1281 0.0000 0.0000 0.0000
# 2 22.2108 164.6120 88.5454 0.0000 0.0000 0.0000
# 3 10.1281 88.5454 114.1275 0.0000 0.0000 0.0000
# 4 0.0000 0.0000 0.0000 2.0917 0.0000 0.0000
# 5 0.0000 0.0000 0.0000 0.0000 4.1585 0.0000
# 6 0.0000 0.0000 0.0000 0.0000 0.0000 29.4897
#
#
#
# Elastic Compliance Matrix: (Units=1/GPa)
#
#
# Indices 1 2 3 4 5 6 
#
# 1 0.042403 -0.006345 0.001160 0.000000 0.000000 0.000000
# 2 -0.006345 0.011376 -0.008263 0.000000 0.000000 0.000000
# 3 0.001160 -0.008263 0.015070 0.000000 0.000000 0.000000
# 4 0.000000 0.000000 0.000000 0.478079 0.000000 0.000000
# 5 0.000000 0.000000 0.000000 0.000000 0.240473 0.000000
# 6 0.000000 0.000000 0.000000 0.000000 0.000000 0.033910
#
#
# Mechanical properties :
#
#
# Convention : Reuss Voigt Hill
#
# Bulk Modulus (GPa) = 23.83659 60.79311 42.31485
# Shear Modulus (GPa) = 5.79919 19.44699 12.62309
#
# Velocity S-wave (km/s) = 1.72090 3.15136 2.53896
# Velocity P-wave (km/s) = 4.01515 6.65485 5.49583
#
# Compressibility (1/GPa) = 0.04195231
#
# Stress axis : x y z
#
# Youngs Moduli (GPa) = 23.58333 87.90821 66.35860
#
# Poissons Ratio (x) = 0.55780 -0.07698
# Poissons Ratio (y) = 0.14964 0.54829
# Poissons Ratio (z) = -0.02736 0.72634
#
# Static dielectric constant tensor:
#      x y z
#    x 1.728500 0.000000 0.000000 
#    y 0.000000 1.704970 0.000000 
#    z 0.000000 0.000000 1.669880 
# 
# From -- ./inp_files/62619.got.cif
#   From: 2010.05.17/outbox.cif.g08.bks.cpg/sg65_32_cif.got.tgz:62619.got - 2010.06.03 17:01:31.
