data_PCOD9491232
_publ_section_title
;
Structure prediction by ZEFSAII (Michael W. Deem and Ramdas Pophale) SiO2 
 PCOD9491232
Probable space group: C M M M
;
_chemical_formula_sum "Si O2"
_cell_formula_units_Z 72
_cell_length_a 31.284424
_cell_length_b 12.246047
_cell_length_c 11.757420
_cell_angle_alpha 90.000000
_cell_angle_beta 90.000000
_cell_angle_gamma 90.000000
_cell_volume 4504.391369
_symmetry_space_group_name_H-M "C M M M"
_symmetry_group_IT_number 65
_symmetry_cell_setting 'orthorhombic'
loop_
_space_group_symop_operation_xyz
x,y,z
-x,-y,z
x,-y,-z
-x,y,-z
-x,-y,-z
x,y,-z
-x,y,z
x,-y,z
1/2+x,1/2+y,z
1/2-x,1/2-y,z
1/2+x,1/2-y,-z
1/2-x,1/2+y,-z
1/2-x,1/2-y,-z
1/2+x,1/2+y,-z
1/2-x,1/2+y,z
1/2+x,1/2-y,z
loop_
_atom_site_type_symbol
_atom_site_label
_atom_site_fract_x
_atom_site_fract_y
_atom_site_fract_z
Si Si1 0.201547 0.730163 0.361376
Si Si2 0.880558 0.129212 0.363493
Si Si3 0.064331 0.500000 0.634145
Si Si4 0.548795 0.775567 0.240442
Si Si5 0.165793 0.500000 0.363652
Si Si6 0.551886 0.873862 0.000000
O O1 0.202284 0.729191 0.500000
O O2 0.250000 0.750000 0.323345
O O3 0.165373 0.818674 0.330942
O O4 0.185986 0.611753 0.320310
O O5 0.885700 0.145823 0.500000
O O6 0.918261 0.193822 0.300076
O O7 0.881654 0.000000 0.341220
O O8 0.055735 0.500000 0.500000
O O9 0.047770 0.610468 0.690549
O O10 0.115282 0.500000 0.653227
O O11 0.500000 0.732620 0.235951
O O12 0.563742 0.809813 0.114165
O O13 0.172611 0.500000 0.500000
O O14 0.500000 0.879450 0.000000
O O15 0.567146 0.000000 0.000000
#
# Coordination Sequence:
#
# PCOD9491232 Si02
#       6
#    16  16   8  16   8   8
#     4   9  17  28  45  69  99 135 169 203 246 300
#     4  10  21  35  49  71 106 142 174 208 250 306
#     4  11  19  29  47  76 110 135 161 203 254 305
#     4  11  21  34  52  73 100 134 173 212 255 302
#     4   9  16  27  43  67 100 130 162 203 242 290
#     4   9  18  34  53  75  98 125 165 219 268 303
#
# _framework density 15.984401
#
# number of rings (size 3 to 8) (size 9 to 14) (size 15 to 20)
#    0.000    2.111    3.333    1.000    1.556    2.667 
#    0.000    1.667    0.000    2.000    0.000    0.778 
#    0.000    0.000    0.000    0.000    0.000    0.000 
#
# Total GULP energy -200667.493434 kJ/mol
# GULP energy per Si atom -5574.097040 kJ/mol
# Density = 1.594802 g / cm^3
# Si number density = 15.984401 Si / 1000 Ang^3
#
#
#
# Elastic Constant Matrix: (Units=GPa)
#
#
# Indices 1 2 3 4 5 6 
#
# 1 114.0318 77.9027 45.6232 0.0000 0.0000 0.0000
# 2 77.9027 128.4372 44.1207 0.0000 0.0000 0.0000
# 3 45.6232 44.1207 62.6753 0.0000 0.0000 0.0000
# 4 0.0000 0.0000 0.0000 15.8268 0.0000 0.0000
# 5 0.0000 0.0000 0.0000 0.0000 33.5206 0.0000
# 6 0.0000 0.0000 0.0000 0.0000 0.0000 71.5301
#
#
#
# Elastic Compliance Matrix: (Units=1/GPa)
#
#
# Indices 1 2 3 4 5 6 
#
# 1 0.016865 -0.007930 -0.006694 0.000000 0.000000 0.000000
# 2 -0.007930 0.013998 -0.004081 0.000000 0.000000 0.000000
# 3 -0.006694 -0.004081 0.023702 0.000000 0.000000 0.000000
# 4 0.000000 0.000000 0.000000 0.063184 0.000000 0.000000
# 5 0.000000 0.000000 0.000000 0.000000 0.029832 0.000000
# 6 0.000000 0.000000 0.000000 0.000000 0.000000 0.013980
#
#
# Mechanical properties :
#
#
# Convention : Reuss Voigt Hill
#
# Bulk Modulus (GPa) = 58.29872 71.15972 64.72922
# Shear Modulus (GPa) = 24.42716 33.34202 28.88459
#
# Velocity S-wave (km/s) = 3.91344 4.57213 4.25555
# Velocity P-wave (km/s) = 7.54795 8.51395 8.04546
#
# Compressibility (1/GPa) = 0.01715303
#
# Stress axis : x y z
#
# Youngs Moduli (GPa) = 59.29346 71.44007 42.19139
#
# Poissons Ratio (x) = 0.56651 0.28245
# Poissons Ratio (y) = 0.47019 0.17220
# Poissons Ratio (z) = 0.39694 0.29158
#
# Static dielectric constant tensor:
#      x y z
#    x 1.545210 0.000000 0.000000 
#    y 0.000000 1.530560 0.000000 
#    z 0.000000 0.000000 1.526220 
# 
# From -- ./inp_files/33452.got.cif
#   From: 2010.05.17/outbox.cif.g08.bks.cpg/sg65_17_cif.got.tgz:33452.got - 2010.06.03 17:01:31.
