data_PCOD9491686
_publ_section_title
;
Structure prediction by ZEFSAII (Michael W. Deem and Ramdas Pophale) SiO2 
 PCOD9491686
Probable space group: C M M M
;
_chemical_formula_sum "Si O2"
_cell_formula_units_Z 112
_cell_length_a 18.134867
_cell_length_b 25.841691
_cell_length_c 13.624794
_cell_angle_alpha 90.000000
_cell_angle_beta 90.000000
_cell_angle_gamma 90.000000
_cell_volume 6385.063911
_symmetry_space_group_name_H-M "C M M M"
_symmetry_group_IT_number 65
_symmetry_cell_setting 'orthorhombic'
loop_
_space_group_symop_operation_xyz
x,y,z
-x,-y,z
x,-y,-z
-x,y,-z
-x,-y,-z
x,y,-z
-x,y,z
x,-y,z
1/2+x,1/2+y,z
1/2-x,1/2-y,z
1/2+x,1/2-y,-z
1/2-x,1/2+y,-z
1/2-x,1/2-y,-z
1/2+x,1/2+y,-z
1/2-x,1/2+y,z
1/2+x,1/2-y,z
loop_
_atom_site_type_symbol
_atom_site_label
_atom_site_fract_x
_atom_site_fract_y
_atom_site_fract_z
Si Si1 0.338831 0.249929 0.611935
Si Si2 0.185863 0.312865 0.116643
Si Si3 0.916775 0.787624 0.115340
Si Si4 0.385358 0.942518 0.613095
Si Si5 0.207083 0.059713 0.387017
Si Si6 0.328357 0.654911 0.248646
Si Si7 0.416527 0.842030 0.732319
O O1 0.366304 0.250460 0.500000
O O2 0.250000 0.250000 0.608616
O O3 0.370579 0.199976 0.668278
O O4 0.353352 0.301960 0.672123
O O5 0.147053 0.256278 0.131692
O O6 0.254737 0.327113 0.187585
O O7 0.120716 0.347898 0.161035
O O8 0.892221 0.839884 0.168486
O O9 0.000000 0.772138 0.144928
O O10 0.917523 0.795067 0.000000
O O11 0.408129 0.935998 0.500000
O O12 0.296229 0.939785 0.614665
O O13 0.413999 0.896296 0.677688
O O14 0.407139 0.000000 0.645513
O O15 0.185474 0.073325 0.500000
O O16 0.182217 0.101660 0.306846
O O17 0.184120 0.000000 0.368375
O O18 0.500000 0.824261 0.739153
O O19 0.297961 0.818014 0.000000
#
# Coordination Sequence:
#
# PCOD9491686 Si02
#       7
#    16  16  16  16  16  16  16
#     4  11  21  33  50  76 109 142 172 211 269 332
#     4  11  22  36  54  79 107 141 188 232 269 315
#     4  10  21  36  54  79 113 148 183 224 272 330
#     4   9  18  34  55  78 106 143 185 224 263 314
#     4   9  18  34  58  85 110 140 182 225 266 323
#     4  12  19  34  58  84 108 142 180 226 272 328
#     4  12  23  36  52  76 111 147 182 224 276 325
#
# _framework density 17.540935999999999
#
# number of rings (size 3 to 8) (size 9 to 14) (size 15 to 20)
#    0.000    1.429    4.286    3.000    0.000    5.714 
#    0.000    0.714    0.000    4.714    0.000    3.000 
#    0.000    0.000    0.000    0.000    0.000    0.000 
#
# Total GULP energy -311985.109219 kJ/mol
# GULP energy per Si atom -5571.162665 kJ/mol
# Density = 1.750101 g / cm^3
# Si number density = 17.540936 Si / 1000 Ang^3
#
#
#
# Elastic Constant Matrix: (Units=GPa)
#
#
# Indices 1 2 3 4 5 6 
#
# 1 43.6646 44.6552 36.8249 0.0000 0.0000 0.0000
# 2 44.6552 113.9458 69.8513 0.0000 0.0000 0.0000
# 3 36.8249 69.8513 108.8123 0.0000 0.0000 0.0000
# 4 0.0000 0.0000 0.0000 27.7234 0.0000 0.0000
# 5 0.0000 0.0000 0.0000 0.0000 84.5944 0.0000
# 6 0.0000 0.0000 0.0000 0.0000 0.0000 60.2016
#
#
#
# Elastic Compliance Matrix: (Units=1/GPa)
#
#
# Indices 1 2 3 4 5 6 
#
# 1 0.040305 -0.012257 -0.005772 0.000000 0.000000 0.000000
# 2 -0.012257 0.018198 -0.007534 0.000000 0.000000 0.000000
# 3 -0.005772 -0.007534 0.015980 0.000000 0.000000 0.000000
# 4 0.000000 0.000000 0.000000 0.036071 0.000000 0.000000
# 5 0.000000 0.000000 0.000000 0.000000 0.011821 0.000000
# 6 0.000000 0.000000 0.000000 0.000000 0.000000 0.016611
#
#
# Mechanical properties :
#
#
# Convention : Reuss Voigt Hill
#
# Bulk Modulus (GPa) = 42.81398 63.23173 53.02286
# Shear Modulus (GPa) = 25.26564 42.17663 33.72114
#
# Velocity S-wave (km/s) = 3.79935 4.90886 4.38930
# Velocity P-wave (km/s) = 6.61119 8.26169 7.48209
#
# Compressibility (1/GPa) = 0.02335686
#
# Stress axis : x y z
#
# Youngs Moduli (GPa) = 24.81093 54.95037 62.57852
#
# Poissons Ratio (x) = 0.67354 0.36119
# Poissons Ratio (y) = 0.30411 0.47147
# Poissons Ratio (z) = 0.14320 0.41400
#
# Static dielectric constant tensor:
#      x y z
#    x 1.642370 0.000000 0.000000 
#    y 0.000000 1.593400 0.000000 
#    z 0.000000 0.000000 1.635150 
# 
# From -- ./inp_files/29327.got.cif
#   From: 2010.05.17/outbox.cif.g08.bks.cpg/sg65_15_cif.got.tgz:29327.got - 2010.06.03 17:01:31.
