data_PCOD9491778
_publ_section_title
;
Structure prediction by ZEFSAII (Michael W. Deem and Ramdas Pophale) SiO2 
 PCOD9491778
Probable space group: C M M M
;
_chemical_formula_sum "Si O2"
_cell_formula_units_Z 68
_cell_length_a 22.905858
_cell_length_b 7.565628
_cell_length_c 18.244708
_cell_angle_alpha 90.000000
_cell_angle_beta 90.000000
_cell_angle_gamma 90.000000
_cell_volume 3161.756823
_symmetry_space_group_name_H-M "C M M M"
_symmetry_group_IT_number 65
_symmetry_cell_setting 'orthorhombic'
loop_
_space_group_symop_operation_xyz
x,y,z
-x,-y,z
x,-y,-z
-x,y,-z
-x,-y,-z
x,y,-z
-x,y,z
x,-y,z
1/2+x,1/2+y,z
1/2-x,1/2-y,z
1/2+x,1/2-y,-z
1/2-x,1/2+y,-z
1/2-x,1/2-y,-z
1/2+x,1/2+y,-z
1/2-x,1/2+y,z
1/2+x,1/2-y,z
loop_
_atom_site_type_symbol
_atom_site_label
_atom_site_fract_x
_atom_site_fract_y
_atom_site_fract_z
Si Si1 0.000000 0.500000 0.000000
Si Si2 0.608291 0.216543 0.500000
Si Si3 0.500000 0.307724 0.873828
Si Si4 0.318963 0.789258 0.354244
Si Si5 0.110162 0.300325 0.784136
Si Si6 0.681577 0.289472 0.920958
Si Si7 0.000000 0.000000 0.500000
O O1 0.000000 0.654662 0.065454
O O2 0.648000 0.258437 0.428883
O O3 0.551622 0.342000 0.500000
O O4 0.596295 0.000000 0.500000
O O5 0.500000 0.500000 0.909694
O O6 0.444878 0.293834 0.819602
O O7 0.250000 0.750000 0.353455
O O8 0.355825 0.718689 0.284839
O O9 0.322078 0.000000 0.347724
O O10 0.091458 0.500000 0.765165
O O11 0.154899 0.303930 0.851635
O O12 0.672778 0.500000 0.914584
O O13 0.750000 0.250000 0.922719
O O14 0.656172 0.231737 0.000000
#
# Coordination Sequence:
#
# PCOD9491778 Si02
#       7
#     2   8   8  16  16  16   2
#     4  12  26  52  72  94 136 170 242 308 360 428
#     4  10  24  48  71 110 152 193 246 306 359 431
#     4  12  27  46  70 100 131 184 235 295 363 437
#     4  10  23  42  72 103 146 191 238 307 372 437
#     4  11  23  42  63  95 134 179 228 288 360 421
#     4  10  21  36  55  84 119 164 218 277 342 412
#     4  12  26  44  76 110 140 196 244 282 352 446
#
# _framework density 21.507028999999999
#
# number of rings (size 3 to 8) (size 9 to 14) (size 15 to 20)
#    0.000    1.412    1.176    2.824    3.294    6.118 
#    2.118    3.529    0.000    0.000    0.000    0.000 
#    0.000    0.000    0.000    0.000    0.000    0.000 
#
# Total GULP energy -189368.000835 kJ/mol
# GULP energy per Si atom -5569.647083 kJ/mol
# Density = 2.145808 g / cm^3
# Si number density = 21.507029 Si / 1000 Ang^3
#
#
#
# Elastic Constant Matrix: (Units=GPa)
#
#
# Indices 1 2 3 4 5 6 
#
# 1 147.5167 37.0968 90.6995 0.0000 0.0000 0.0000
# 2 37.0968 126.1139 45.1620 0.0000 0.0000 0.0000
# 3 90.6995 45.1620 189.9138 0.0000 0.0000 0.0000
# 4 0.0000 0.0000 0.0000 -2.6323 0.0000 0.0000
# 5 0.0000 0.0000 0.0000 0.0000 10.8807 0.0000
# 6 0.0000 0.0000 0.0000 0.0000 0.0000 22.4262
#
#
#
# Elastic Compliance Matrix: (Units=1/GPa)
#
#
# Indices 1 2 3 4 5 6 
#
# 1 0.009793 -0.001318 -0.004364 0.000000 0.000000 0.000000
# 2 -0.001318 0.008845 -0.001474 0.000000 0.000000 0.000000
# 3 -0.004364 -0.001474 0.007700 0.000000 0.000000 0.000000
# 4 0.000000 0.000000 0.000000 -0.379896 0.000000 0.000000
# 5 0.000000 0.000000 0.000000 0.000000 0.091906 0.000000
# 6 0.000000 0.000000 0.000000 0.000000 0.000000 0.044591
#
#
# Mechanical properties :
#
#
# Convention : Reuss Voigt Hill
#
# Bulk Modulus (GPa) = 83.14607 89.94011 86.54309
# Shear Modulus (GPa) = -25.15844 25.50731 0.17443
#
# Velocity S-wave (km/s) = -3.42391 3.44757 0.28510
# Velocity P-wave (km/s) = 4.80760 7.59983 6.35887
#
# Compressibility (1/GPa) = 0.01202703
#
# Stress axis : x y z
#
# Youngs Moduli (GPa) = 102.11029 113.06017 129.86935
#
# Poissons Ratio (x) = 0.14902 0.56671
# Poissons Ratio (y) = 0.13459 0.19141
# Poissons Ratio (z) = 0.44558 0.16663
#
# Static dielectric constant tensor:
#      x y z
#    x 1.738200 0.000000 0.000000 
#    y 0.000000 1.846570 0.000000 
#    z 0.000000 0.000000 1.771800 
# 
# From -- ./inp_files/55480.got.cif
#   From: 2010.05.17/outbox.cif.g08.bks.cpg/sg65_28_cif.got.tgz:55480.got - 2010.06.03 17:01:31.
