data_PCOD9491167
_publ_section_title
;
Structure prediction by ZEFSAII (Michael W. Deem and Ramdas Pophale) SiO2 
 PCOD9491167
Probable space group: C M M M
;
_chemical_formula_sum "Si O2"
_cell_formula_units_Z 88
_cell_length_a 14.292195
_cell_length_b 28.973731
_cell_length_c 11.882255
_cell_angle_alpha 90.000000
_cell_angle_beta 90.000000
_cell_angle_gamma 90.000000
_cell_volume 4920.420566
_symmetry_space_group_name_H-M "C M M M"
_symmetry_group_IT_number 65
_symmetry_cell_setting 'orthorhombic'
loop_
_space_group_symop_operation_xyz
x,y,z
-x,-y,z
x,-y,-z
-x,y,-z
-x,-y,-z
x,y,-z
-x,y,z
x,-y,z
1/2+x,1/2+y,z
1/2-x,1/2-y,z
1/2+x,1/2-y,-z
1/2-x,1/2+y,-z
1/2-x,1/2-y,-z
1/2+x,1/2+y,-z
1/2-x,1/2+y,z
1/2+x,1/2-y,z
loop_
_atom_site_type_symbol
_atom_site_label
_atom_site_fract_x
_atom_site_fract_y
_atom_site_fract_z
Si Si1 0.770781 0.365266 0.721118
Si Si2 0.610148 0.867884 0.500000
Si Si3 0.612318 0.208095 0.867977
Si Si4 0.500000 0.947731 0.135770
Si Si5 0.207328 0.445058 0.133925
Si Si6 0.895487 0.795278 0.722932
Si Si7 0.138825 0.741022 0.500000
O O1 0.830584 0.380440 0.611809
O O2 0.834164 0.330498 0.796278
O O3 0.735853 0.409722 0.791204
O O4 0.679853 0.334339 0.696277
O O5 0.500000 0.882586 0.500000
O O6 0.613650 0.812347 0.500000
O O7 0.500000 0.201814 0.854098
O O8 0.634093 0.259454 0.821227
O O9 0.634404 0.203849 0.000000
O O10 0.600854 0.928747 0.164145
O O11 0.500000 0.000000 0.178994
O O12 0.500000 0.949943 0.000000
O O13 0.216155 0.500000 0.156104
O O14 0.220747 0.439069 0.000000
O O15 0.898989 0.763879 0.612228
O O16 0.000000 0.812844 0.748308
O O17 0.250000 0.750000 0.500000
#
# Coordination Sequence:
#
# PCOD9491167 Si02
#       7
#    16   8  16   8  16  16   8
#     4  12  22  35  55  78 106 143 183 223 265 319
#     4  12  24  35  51  80 113 143 177 214 258 317
#     4  10  21  34  50  76 109 141 173 214 268 327
#     4   7  12  26  48  73  99 127 163 206 251 309
#     4   9  19  35  56  81 107 139 180 224 270 324
#     4  11  22  36  54  76 106 144 185 227 267 310
#     4  12  18  37  57  76 106 147 186 220 260 311
#
# _framework density 17.884650000000001
#
# number of rings (size 3 to 8) (size 9 to 14) (size 15 to 20)
#    0.000    1.545    3.636    3.545    2.545    2.182 
#    0.000    0.455    0.000    1.091    0.000    1.273 
#    0.000    2.909    0.000    0.000    0.000    0.000 
#
# Total GULP energy -245339.784320 kJ/mol
# GULP energy per Si atom -5575.904189 kJ/mol
# Density = 1.784394 g / cm^3
# Si number density = 17.884650 Si / 1000 Ang^3
#
#
#
# Elastic Constant Matrix: (Units=GPa)
#
#
# Indices 1 2 3 4 5 6 
#
# 1 63.0586 10.4632 17.9192 0.0000 0.0000 0.0000
# 2 10.4632 62.6082 25.2122 0.0000 0.0000 0.0000
# 3 17.9192 25.2122 91.2048 0.0000 0.0000 0.0000
# 4 0.0000 0.0000 0.0000 23.1548 0.0000 0.0000
# 5 0.0000 0.0000 0.0000 0.0000 19.6539 0.0000
# 6 0.0000 0.0000 0.0000 0.0000 0.0000 4.4837
#
#
#
# Elastic Compliance Matrix: (Units=1/GPa)
#
#
# Indices 1 2 3 4 5 6 
#
# 1 0.016951 -0.001679 -0.002866 0.000000 0.000000 0.000000
# 2 -0.001679 0.018139 -0.004685 0.000000 0.000000 0.000000
# 3 -0.002866 -0.004685 0.012822 0.000000 0.000000 0.000000
# 4 0.000000 0.000000 0.000000 0.043188 0.000000 0.000000
# 5 0.000000 0.000000 0.000000 0.000000 0.050880 0.000000
# 6 0.000000 0.000000 0.000000 0.000000 0.000000 0.223028
#
#
# Mechanical properties :
#
#
# Convention : Reuss Voigt Hill
#
# Bulk Modulus (GPa) = 33.95131 36.00676 34.97903
# Shear Modulus (GPa) = 12.71338 20.34363 16.52851
#
# Velocity S-wave (km/s) = 2.66908 3.37633 3.04332
# Velocity P-wave (km/s) = 5.34072 5.94777 5.65240
#
# Compressibility (1/GPa) = 0.02945395
#
# Stress axis : x y z
#
# Youngs Moduli (GPa) = 58.99242 55.12879 77.98801
#
# Poissons Ratio (x) = 0.09254 0.22355
# Poissons Ratio (y) = 0.09903 0.36534
# Poissons Ratio (z) = 0.16910 0.25825
#
# Static dielectric constant tensor:
#      x y z
#    x 1.666460 0.000000 0.000000 
#    y 0.000000 1.607780 0.000000 
#    z 0.000000 0.000000 1.604160 
# 
# From -- ./inp_files/25197.got.cif
#   From: 2010.05.17/outbox.cif.g08.bks.cpg/sg65_13_cif.got.tgz:25197.got - 2010.06.03 17:01:31.
