data_PCOD9491093
_publ_section_title
;
Structure prediction by ZEFSAII (Michael W. Deem and Ramdas Pophale) SiO2 
 PCOD9491093
Probable space group: C M M M
;
_chemical_formula_sum "Si O2"
_cell_formula_units_Z 80
_cell_length_a 7.874270
_cell_length_b 14.147161
_cell_length_c 32.195718
_cell_angle_alpha 90.000000
_cell_angle_beta 90.000000
_cell_angle_gamma 90.000000
_cell_volume 3586.556799
_symmetry_space_group_name_H-M "C M M M"
_symmetry_group_IT_number 65
_symmetry_cell_setting 'orthorhombic'
loop_
_space_group_symop_operation_xyz
x,y,z
-x,-y,z
x,-y,-z
-x,y,-z
-x,-y,-z
x,y,-z
-x,y,z
x,-y,z
1/2+x,1/2+y,z
1/2-x,1/2-y,z
1/2+x,1/2-y,-z
1/2-x,1/2+y,-z
1/2-x,1/2-y,-z
1/2+x,1/2+y,-z
1/2-x,1/2+y,z
1/2+x,1/2-y,z
loop_
_atom_site_type_symbol
_atom_site_label
_atom_site_fract_x
_atom_site_fract_y
_atom_site_fract_z
Si Si1 0.308096 0.384897 0.105924
Si Si2 0.797950 0.641436 0.500000
Si Si3 0.191870 0.384888 0.801314
Si Si4 0.500000 0.615614 0.742992
Si Si5 0.000000 0.116419 0.647681
Si Si6 0.500000 0.884219 0.047474
Si Si7 0.308401 0.109001 0.592643
O O1 0.500000 0.352684 0.097794
O O2 0.310620 0.500000 0.105223
O O3 0.249909 0.358502 0.152298
O O4 0.167568 0.355154 0.072745
O O5 0.750000 0.750000 0.500000
O O6 0.739976 0.607664 0.545176
O O7 0.000000 0.622673 0.500000
O O8 0.189466 0.500000 0.800603
O O9 0.332418 0.354976 0.768173
O O10 0.000000 0.352718 0.793151
O O11 0.500000 0.500000 0.742748
O O12 0.500000 0.646928 0.695402
O O13 0.832736 0.149299 0.623106
O O14 0.000000 0.000000 0.646908
O O15 0.500000 0.000000 0.047019
O O16 0.500000 0.851646 0.000000
O O17 0.500000 0.150550 0.592896
O O18 0.326830 0.000000 0.604992
#
# Coordination Sequence:
#
# PCOD9491093 Si02
#       7
#    16   8  16   8   8   8  16
#     4   9  14  20  29  37  48  68  95 128 174 225
#     4  10  21  33  50  76  98 118 151 195 226 252
#     4   9  14  20  31  44  59  81 105 139 183 224
#     4   9  16  24  33  52  72  86 119 154 180 225
#     4   9  18  29  44  63  84 115 142 165 202 255
#     4   9  16  22  26  34  48  66  94 130 170 229
#     4   9  18  33  50  67  92 124 153 179 218 268
#
# _framework density 22.305513999999999
#
# number of rings (size 3 to 8) (size 9 to 14) (size 15 to 20)
#    0.000    2.900    2.000    0.300    1.400    2.400 
#    0.000    7.500    0.000    0.000    0.000    0.000 
#    0.000    0.000    0.000    0.000    0.000    0.000 
#
# Total GULP energy -223412.114060 kJ/mol
# GULP energy per Si atom -5585.302851 kJ/mol
# Density = 2.225475 g / cm^3
# Si number density = 22.305514 Si / 1000 Ang^3
#
#
#
# Elastic Constant Matrix: (Units=GPa)
#
#
# Indices 1 2 3 4 5 6 
#
# 1 222.4723 17.6856 149.8513 0.0000 0.0000 0.0000
# 2 17.6856 67.9993 -0.2146 0.0000 0.0000 0.0000
# 3 149.8513 -0.2146 232.1662 0.0000 0.0000 0.0000
# 4 0.0000 0.0000 0.0000 -48.9838 0.0000 0.0000
# 5 0.0000 0.0000 0.0000 0.0000 79.4230 0.0000
# 6 0.0000 0.0000 0.0000 0.0000 0.0000 13.4616
#
#
#
# Elastic Compliance Matrix: (Units=1/GPa)
#
#
# Indices 1 2 3 4 5 6 
#
# 1 0.008259 -0.002165 -0.005333 0.000000 0.000000 0.000000
# 2 -0.002165 0.015274 0.001411 0.000000 0.000000 0.000000
# 3 -0.005333 0.001411 0.007751 0.000000 0.000000 0.000000
# 4 0.000000 0.000000 0.000000 -0.020415 0.000000 0.000000
# 5 0.000000 0.000000 0.000000 0.000000 0.012591 0.000000
# 6 0.000000 0.000000 0.000000 0.000000 0.000000 0.074285
#
#
# Mechanical properties :
#
#
# Convention : Reuss Voigt Hill
#
# Bulk Modulus (GPa) = 52.32661 95.25358 73.79010
# Shear Modulus (GPa) = 42.99696 32.46787 37.73241
#
# Velocity S-wave (km/s) = 4.39525 3.81937 4.11739
# Velocity P-wave (km/s) = 7.01909 7.88967 7.46708
#
# Compressibility (1/GPa) = 0.01911074
#
# Stress axis : x y z
#
# Youngs Moduli (GPa) = 121.07886 65.47266 129.02193
#
# Poissons Ratio (x) = 0.14174 0.68805
# Poissons Ratio (y) = 0.26212 -0.18211
# Poissons Ratio (z) = 0.64569 -0.09241
#
# Static dielectric constant tensor:
#      x y z
#    x 1.798180 0.000000 0.000000 
#    y 0.000000 1.866790 0.000000 
#    z 0.000000 0.000000 1.761930 
# 
# From -- ./inp_files/67417.got.cif
#   From: 2010.05.17/outbox.cif.g08.bks.cpg/sg65_34_cif.got.tgz:67417.got - 2010.06.03 17:01:31.
