data_PCOD9491579
_publ_section_title
;
Structure prediction by ZEFSAII (Michael W. Deem and Ramdas Pophale) SiO2 
 PCOD9491579
Probable space group: C M M M
;
_chemical_formula_sum "Si O2"
_cell_formula_units_Z 96
_cell_length_a 24.801551
_cell_length_b 25.009799
_cell_length_c 8.213878
_cell_angle_alpha 90.000000
_cell_angle_beta 90.000000
_cell_angle_gamma 90.000000
_cell_volume 5094.919075
_symmetry_space_group_name_H-M "C M M M"
_symmetry_group_IT_number 65
_symmetry_cell_setting 'orthorhombic'
loop_
_space_group_symop_operation_xyz
x,y,z
-x,-y,z
x,-y,-z
-x,y,-z
-x,-y,-z
x,y,-z
-x,y,z
x,-y,z
1/2+x,1/2+y,z
1/2-x,1/2-y,z
1/2+x,1/2-y,-z
1/2-x,1/2+y,-z
1/2-x,1/2-y,-z
1/2+x,1/2+y,-z
1/2-x,1/2+y,z
1/2+x,1/2-y,z
loop_
_atom_site_type_symbol
_atom_site_label
_atom_site_fract_x
_atom_site_fract_y
_atom_site_fract_z
Si Si1 0.649014 0.939641 0.803048
Si Si2 0.438527 0.557707 0.198449
Si Si3 0.438956 0.267496 0.306738
Si Si4 0.228131 0.060850 0.306799
Si Si5 0.358284 0.354520 0.805356
Si Si6 0.939633 0.645216 0.803054
O O1 0.709017 0.931836 0.735288
O O2 0.606563 0.895277 0.746875
O O3 0.631576 0.000000 0.759652
O O4 0.652202 0.936953 0.000000
O O5 0.500000 0.562267 0.249190
O O6 0.417354 0.500000 0.249106
O O7 0.403388 0.605007 0.261872
O O8 0.437751 0.559161 0.000000
O O9 0.440640 0.273832 0.500000
O O10 0.500000 0.284487 0.243560
O O11 0.385354 0.298480 0.246113
O O12 0.433256 0.205216 0.262110
O O13 0.220802 0.059212 0.500000
O O14 0.195582 0.113029 0.244402
O O15 0.213337 0.000000 0.242827
O O16 0.357415 0.353544 0.000000
O O17 0.000000 0.626676 0.758003
O O18 0.937279 0.647685 0.000000
#
# Coordination Sequence:
#
# PCOD9491579 Si02
#       6
#    16  16  16  16  16  16
#     4   9  18  34  57  84 112 140 171 210 258 313
#     4   8  14  24  39  63  93 121 154 203 260 310
#     4  10  21  36  53  75 107 145 181 219 265 316
#     4  10  21  36  53  75 107 145 181 219 265 316
#     4  11  20  31  51  75 100 135 181 228 269 313
#     4   9  18  34  57  84 112 140 171 210 258 313
#
# _framework density 18.842300000000002
#
# number of rings (size 3 to 8) (size 9 to 14) (size 15 to 20)
#    0.000    2.500    0.000    3.000    0.000    4.333 
#    0.000    2.500    0.000    5.000    0.000   11.667 
#    0.000    0.000    0.000    0.000    0.000    0.000 
#
# Total GULP energy -267216.150085 kJ/mol
# GULP energy per Si atom -5567.003127 kJ/mol
# Density = 1.879941 g / cm^3
# Si number density = 18.842300 Si / 1000 Ang^3
#
#
#
# Elastic Constant Matrix: (Units=GPa)
#
#
# Indices 1 2 3 4 5 6 
#
# 1 112.9781 74.5390 22.8127 0.0000 0.0000 0.0000
# 2 74.5390 97.0170 21.7394 0.0000 0.0000 0.0000
# 3 22.8127 21.7394 33.4837 0.0000 0.0000 0.0000
# 4 0.0000 0.0000 0.0000 13.5303 0.0000 0.0000
# 5 0.0000 0.0000 0.0000 0.0000 14.5378 0.0000
# 6 0.0000 0.0000 0.0000 0.0000 0.0000 39.4458
#
#
#
# Elastic Compliance Matrix: (Units=1/GPa)
#
#
# Indices 1 2 3 4 5 6 
#
# 1 0.018381 -0.013243 -0.003925 0.000000 0.000000 0.000000
# 2 -0.013243 0.021603 -0.005004 0.000000 0.000000 0.000000
# 3 -0.003925 -0.005004 0.035788 0.000000 0.000000 0.000000
# 4 0.000000 0.000000 0.000000 0.073908 0.000000 0.000000
# 5 0.000000 0.000000 0.000000 0.000000 0.068786 0.000000
# 6 0.000000 0.000000 0.000000 0.000000 0.000000 0.025351
#
#
# Mechanical properties :
#
#
# Convention : Reuss Voigt Hill
#
# Bulk Modulus (GPa) = 31.81746 53.51789 42.66767
# Shear Modulus (GPa) = 16.74274 21.79529 19.26901
#
# Velocity S-wave (km/s) = 2.98413 3.40475 3.20135
# Velocity P-wave (km/s) = 5.36621 6.62730 6.02982
#
# Compressibility (1/GPa) = 0.03142929
#
# Stress axis : x y z
#
# Youngs Moduli (GPa) = 54.40429 46.28957 27.94220
#
# Poissons Ratio (x) = 0.61300 0.10968
# Poissons Ratio (y) = 0.72046 0.13981
# Poissons Ratio (z) = 0.21355 0.23162
#
# Static dielectric constant tensor:
#      x y z
#    x 1.671610 0.000000 0.000000 
#    y 0.000000 1.679460 0.000000 
#    z 0.000000 0.000000 1.663990 
# 
# From -- ./inp_files/14323.got.cif
#   From: 2010.05.17/outbox.cif.g08.bks.cpg/sg65_8_cif.got.tgz:14323.got - 2010.06.03 17:01:31.
