data_PCOD9491094
_publ_section_title
;
Structure prediction by ZEFSAII (Michael W. Deem and Ramdas Pophale) SiO2 
 PCOD9491094
Probable space group: C M M M
;
_chemical_formula_sum "Si O2"
_cell_formula_units_Z 72
_cell_length_a 7.631856
_cell_length_b 15.288305
_cell_length_c 28.497630
_cell_angle_alpha 90.000000
_cell_angle_beta 90.000000
_cell_angle_gamma 90.000000
_cell_volume 3325.050527
_symmetry_space_group_name_H-M "C M M M"
_symmetry_group_IT_number 65
_symmetry_cell_setting 'orthorhombic'
loop_
_space_group_symop_operation_xyz
x,y,z
-x,-y,z
x,-y,-z
-x,y,-z
-x,-y,-z
x,y,-z
-x,y,z
x,-y,z
1/2+x,1/2+y,z
1/2-x,1/2-y,z
1/2+x,1/2-y,-z
1/2-x,1/2+y,-z
1/2-x,1/2-y,-z
1/2+x,1/2+y,-z
1/2-x,1/2+y,z
1/2+x,1/2-y,z
loop_
_atom_site_type_symbol
_atom_site_label
_atom_site_fract_x
_atom_site_fract_y
_atom_site_fract_z
Si Si1 0.802483 0.103480 0.346504
Si Si2 0.291297 0.648227 0.000000
Si Si3 0.500000 0.107640 0.278778
Si Si4 0.802460 0.103510 0.102929
Si Si5 0.000000 0.392374 0.170709
Si Si6 0.289999 0.646952 0.449596
O O1 0.669869 0.138138 0.307709
O O2 0.728229 0.113272 0.399336
O O3 0.000000 0.141208 0.344612
O O4 0.817461 0.000000 0.338260
O O5 0.250000 0.750000 0.000000
O O6 0.228157 0.613715 0.050152
O O7 0.500000 0.629692 0.000000
O O8 0.500000 0.134605 0.224743
O O9 0.500000 0.000000 0.279484
O O10 0.669946 0.138068 0.141791
O O11 0.000000 0.141284 0.104828
O O12 0.817368 0.000000 0.111055
O O13 0.000000 0.500000 0.170007
O O14 0.223592 0.612034 0.500000
O O15 0.500000 0.632480 0.449586
O O16 0.250000 0.750000 0.449652
#
# Coordination Sequence:
#
# PCOD9491094 Si02
#       6
#    16   8   8  16   8  16
#     4   9  18  32  50  73 100 131 163 202 249 296
#     4  10  21  33  50  78 104 138 169 197 248 302
#     4   9  18  32  50  76 102 126 165 208 250 296
#     4   9  18  33  52  76 104 132 167 208 245 289
#     4   9  18  31  52  78 100 129 166 209 254 288
#     4   9  18  31  48  72  98 128 163 201 247 299
#
# _framework density 21.653804000000001
#
# number of rings (size 3 to 8) (size 9 to 14) (size 15 to 20)
#    0.000    2.889    0.000    0.333    3.111    2.667 
#    0.000    8.333    0.000    3.333    0.000    0.000 
#    0.000    0.000    0.000    0.000    0.000    0.000 
#
# Total GULP energy -200732.572064 kJ/mol
# GULP energy per Si atom -5575.904780 kJ/mol
# Density = 2.160452 g / cm^3
# Si number density = 21.653804 Si / 1000 Ang^3
#
#
#
# Elastic Constant Matrix: (Units=GPa)
#
#
# Indices 1 2 3 4 5 6 
#
# 1 102.2094 3.8770 105.0552 0.0000 0.0000 0.0000
# 2 3.8770 17.8746 -2.4598 0.0000 0.0000 0.0000
# 3 105.0552 -2.4598 238.0271 0.0000 0.0000 0.0000
# 4 0.0000 0.0000 0.0000 181.3715 0.0000 0.0000
# 5 0.0000 0.0000 0.0000 0.0000 57.1518 0.0000
# 6 0.0000 0.0000 0.0000 0.0000 0.0000 9.9016
#
#
#
# Elastic Compliance Matrix: (Units=1/GPa)
#
#
# Indices 1 2 3 4 5 6 
#
# 1 0.018361 -0.005105 -0.008157 0.000000 0.000000 0.000000
# 2 -0.005105 0.057444 0.002847 0.000000 0.000000 0.000000
# 3 -0.008157 0.002847 0.007831 0.000000 0.000000 0.000000
# 4 0.000000 0.000000 0.000000 0.005514 0.000000 0.000000
# 5 0.000000 0.000000 0.000000 0.000000 0.017497 0.000000
# 6 0.000000 0.000000 0.000000 0.000000 0.000000 0.100994
#
#
# Mechanical properties :
#
#
# Convention : Reuss Voigt Hill
#
# Bulk Modulus (GPa) = 15.92195 63.45064 39.68629
# Shear Modulus (GPa) = 20.04761 66.46089 43.25425
#
# Velocity S-wave (km/s) = 3.04604 5.54609 4.47423
# Velocity P-wave (km/s) = 4.44298 8.38916 6.71260
#
# Compressibility (1/GPa) = 0.06280640
#
# Stress axis : x y z
#
# Youngs Moduli (GPa) = 54.46264 17.40818 127.70394
#
# Poissons Ratio (x) = 0.08887 1.04163
# Poissons Ratio (y) = 0.27803 -0.36355
# Poissons Ratio (z) = 0.44423 -0.04956
#
# Static dielectric constant tensor:
#      x y z
#    x 1.794520 0.000000 0.000000 
#    y 0.000000 1.777270 0.000000 
#    z 0.000000 0.000000 1.778930 
# 
# From -- ./inp_files/59388.got.cif
#   From: 2010.05.17/outbox.cif.g08.bks.cpg/sg65_30_cif.got.tgz:59388.got - 2010.06.03 17:01:31.
