data_PCOD9491680
_publ_section_title
;
Structure prediction by ZEFSAII (Michael W. Deem and Ramdas Pophale) SiO2 
 PCOD9491680
Probable space group: C M M M
;
_chemical_formula_sum "Si O2"
_cell_formula_units_Z 80
_cell_length_a 19.636886
_cell_length_b 8.676296
_cell_length_c 25.883663
_cell_angle_alpha 90.000000
_cell_angle_beta 90.000000
_cell_angle_gamma 90.000000
_cell_volume 4409.940355
_symmetry_space_group_name_H-M "C M M M"
_symmetry_group_IT_number 65
_symmetry_cell_setting 'orthorhombic'
loop_
_space_group_symop_operation_xyz
x,y,z
-x,-y,z
x,-y,-z
-x,y,-z
-x,-y,-z
x,y,-z
-x,y,z
x,-y,z
1/2+x,1/2+y,z
1/2-x,1/2-y,z
1/2+x,1/2-y,-z
1/2-x,1/2+y,-z
1/2-x,1/2-y,-z
1/2+x,1/2+y,-z
1/2-x,1/2+y,z
1/2+x,1/2-y,z
loop_
_atom_site_type_symbol
_atom_site_label
_atom_site_fract_x
_atom_site_fract_y
_atom_site_fract_z
Si Si1 0.676005 0.814163 0.059191
Si Si2 0.920992 0.686627 0.847959
Si Si3 0.175679 0.317000 0.646421
Si Si4 0.919404 0.815609 0.441082
Si Si5 0.325415 0.316000 0.758833
O O1 0.750000 0.750000 0.074501
O O2 0.618280 0.766922 0.099621
O O3 0.679475 0.000000 0.059634
O O4 0.662420 0.764817 0.000000
O O5 0.918497 0.500000 0.844659
O O6 0.879343 0.755757 0.800274
O O7 0.000000 0.733071 0.848108
O O8 0.180203 0.500000 0.652495
O O9 0.250000 0.250000 0.633208
O O10 0.123579 0.271361 0.601755
O O11 0.156192 0.243107 0.701516
O O12 0.900309 0.773265 0.500000
O O13 0.000000 0.786345 0.435127
O O14 0.909110 0.000000 0.435617
O O15 0.322258 0.500000 0.759181
O O16 0.250000 0.250000 0.770677
#
# Coordination Sequence:
#
# PCOD9491680 Si02
#       5
#    16  16  16  16  16
#     4   9  18  33  54  79 106 140 181 222 266 317
#     4  10  21  36  54  79 111 144 180 223 269 318
#     4  11  22  37  58  83 111 142 180 226 273 321
#     4   9  19  37  59  82 111 147 184 222 267 320
#     4  11  22  38  59  80 106 140 180 224 271 325
#
# _framework density 18.140834000000002
#
# number of rings (size 3 to 8) (size 9 to 14) (size 15 to 20)
#    0.000    2.000    0.000    6.000    0.000    5.200 
#    0.000    3.000    0.000    0.000    0.000    4.200 
#    0.000    0.000    0.000    0.000    0.000    0.000 
#
# Total GULP energy -223412.717728 kJ/mol
# GULP energy per Si atom -5585.317943 kJ/mol
# Density = 1.809955 g / cm^3
# Si number density = 18.140834 Si / 1000 Ang^3
#
#
#
# Elastic Constant Matrix: (Units=GPa)
#
#
# Indices 1 2 3 4 5 6 
#
# 1 128.2125 55.2967 110.6107 0.0000 0.0000 0.0000
# 2 55.2967 71.0045 53.9874 0.0000 0.0000 0.0000
# 3 110.6107 53.9874 127.6979 0.0000 0.0000 0.0000
# 4 0.0000 0.0000 0.0000 25.2714 0.0000 0.0000
# 5 0.0000 0.0000 0.0000 0.0000 117.9732 0.0000
# 6 0.0000 0.0000 0.0000 0.0000 0.0000 25.8865
#
#
#
# Elastic Compliance Matrix: (Units=1/GPa)
#
#
# Indices 1 2 3 4 5 6 
#
# 1 0.032372 -0.005733 -0.025616 0.000000 0.000000 0.000000
# 2 -0.005733 0.021771 -0.004238 0.000000 0.000000 0.000000
# 3 -0.025616 -0.004238 0.031811 0.000000 0.000000 0.000000
# 4 0.000000 0.000000 0.000000 0.039570 0.000000 0.000000
# 5 0.000000 0.000000 0.000000 0.000000 0.008477 0.000000
# 6 0.000000 0.000000 0.000000 0.000000 0.000000 0.038630
#
#
# Mechanical properties :
#
#
# Convention : Reuss Voigt Hill
#
# Bulk Modulus (GPa) = 67.66466 85.18939 76.42703
# Shear Modulus (GPa) = 20.10195 40.96089 30.53142
#
# Velocity S-wave (km/s) = 3.33243 4.75693 4.10692
# Velocity P-wave (km/s) = 7.22409 8.78824 8.04427
#
# Compressibility (1/GPa) = 0.01477876
#
# Stress axis : x y z
#
# Youngs Moduli (GPa) = 30.89117 45.93280 31.43555
#
# Poissons Ratio (x) = 0.26335 0.80526
# Poissons Ratio (y) = 0.17711 0.13322
# Poissons Ratio (z) = 0.79131 0.19466
#
# Static dielectric constant tensor:
#      x y z
#    x 1.593110 0.000000 0.000000 
#    y 0.000000 1.611380 0.000000 
#    z 0.000000 0.000000 1.614190 
# 
# From -- ./inp_files/72834.got.cif
#   From: 2010.05.17/outbox.cif.g08.bks.cpg/sg65_37_cif.got.tgz:72834.got - 2010.06.03 17:01:31.
