data_PCOD9491944
_publ_section_title
;
Structure prediction by ZEFSAII (Michael W. Deem and Ramdas Pophale) SiO2 
 PCOD9491944
Probable space group: C M M M
;
_chemical_formula_sum "Si O2"
_cell_formula_units_Z 72
_cell_length_a 10.490461
_cell_length_b 14.484797
_cell_length_c 22.063278
_cell_angle_alpha 90.000000
_cell_angle_beta 90.000000
_cell_angle_gamma 90.000000
_cell_volume 3352.563588
_symmetry_space_group_name_H-M "C M M M"
_symmetry_group_IT_number 65
_symmetry_cell_setting 'orthorhombic'
loop_
_space_group_symop_operation_xyz
x,y,z
-x,-y,z
x,-y,-z
-x,y,-z
-x,-y,-z
x,y,-z
-x,y,z
x,-y,z
1/2+x,1/2+y,z
1/2-x,1/2-y,z
1/2+x,1/2-y,-z
1/2-x,1/2+y,-z
1/2-x,1/2-y,-z
1/2+x,1/2+y,-z
1/2-x,1/2+y,z
1/2+x,1/2-y,z
loop_
_atom_site_type_symbol
_atom_site_label
_atom_site_fract_x
_atom_site_fract_y
_atom_site_fract_z
Si Si1 0.140560 0.108477 0.865215
Si Si2 0.000000 0.387687 0.568716
Si Si3 0.000000 0.887275 0.429132
Si Si4 0.643247 0.326543 0.000000
Si Si5 0.751690 0.387778 0.642517
Si Si6 0.147668 0.612899 0.226881
O O1 0.155999 0.118333 0.937384
O O2 0.263473 0.143597 0.828911
O O3 0.000000 0.148205 0.849084
O O4 0.134360 0.000000 0.850655
O O5 0.126456 0.359539 0.603435
O O6 0.000000 0.500000 0.568319
O O7 0.000000 0.356109 0.500000
O O8 0.124037 0.857569 0.391370
O O9 0.000000 0.859492 0.500000
O O10 0.000000 0.000000 0.429990
O O11 0.750000 0.250000 0.000000
O O12 0.500000 0.286500 0.000000
O O13 0.747562 0.500000 0.643179
O O14 0.779774 0.359672 0.711392
O O15 0.141695 0.500000 0.226641
O O16 0.000000 0.644002 0.225733
#
# Coordination Sequence:
#
# PCOD9491944 Si02
#       6
#    16   8   8   8  16  16
#     4   9  18  32  52  74  97 126 162 201 238 280
#     4   9  14  20  30  42  62  99 143 184 228 275
#     4   9  16  22  28  42  66  99 143 192 234 275
#     4  10  21  37  55  77 103 130 160 192 236 288
#     4   9  15  22  31  45  69 101 142 190 233 272
#     4   9  16  26  39  59  85 113 149 195 241 282
#
# _framework density 21.476102000000001
#
# number of rings (size 3 to 8) (size 9 to 14) (size 15 to 20)
#    0.000    2.889    1.111    1.000    1.556    4.889 
#    0.000    0.000    0.000    3.333    0.000    0.000 
#    0.000    0.000    0.000    0.000    0.000    6.667 
#
# Total GULP energy -200928.650692 kJ/mol
# GULP energy per Si atom -5581.351408 kJ/mol
# Density = 2.142722 g / cm^3
# Si number density = 21.476102 Si / 1000 Ang^3
#
#
#
# Elastic Constant Matrix: (Units=GPa)
#
#
# Indices 1 2 3 4 5 6 
#
# 1 224.7933 9.8204 120.8025 0.0000 0.0000 0.0000
# 2 9.8204 67.5955 -3.4181 0.0000 0.0000 0.0000
# 3 120.8025 -3.4181 169.9084 0.0000 0.0000 0.0000
# 4 0.0000 0.0000 0.0000 -38.1125 0.0000 0.0000
# 5 0.0000 0.0000 0.0000 0.0000 44.4876 0.0000
# 6 0.0000 0.0000 0.0000 0.0000 0.0000 -7.9735
#
#
#
# Elastic Compliance Matrix: (Units=1/GPa)
#
#
# Indices 1 2 3 4 5 6 
#
# 1 0.007316 -0.001327 -0.005228 0.000000 0.000000 0.000000
# 2 -0.001327 0.015050 0.001246 0.000000 0.000000 0.000000
# 3 -0.005228 0.001246 0.009628 0.000000 0.000000 0.000000
# 4 0.000000 0.000000 0.000000 -0.026238 0.000000 0.000000
# 5 0.000000 0.000000 0.000000 0.000000 0.022478 0.000000
# 6 0.000000 0.000000 0.000000 0.000000 0.000000 -0.125415
#
#
# Mechanical properties :
#
#
# Convention : Reuss Voigt Hill
#
# Bulk Modulus (GPa) = 46.78289 79.63411 63.20850
# Shear Modulus (GPa) = -62.94300 22.01981 -20.46160
#
# Velocity S-wave (km/s) = -5.41960 3.20553 -3.09003
# Velocity P-wave (km/s) = 4.16314 7.13172 4.09449
#
# Compressibility (1/GPa) = 0.02137534
#
# Stress axis : x y z
#
# Youngs Moduli (GPa) = 136.68185 66.44633 103.86411
#
# Poissons Ratio (x) = 0.08819 0.54305
# Poissons Ratio (y) = 0.18142 -0.12946
# Poissons Ratio (z) = 0.71464 -0.08282
#
# Static dielectric constant tensor:
#      x y z
#    x 1.748740 0.000000 0.000000 
#    y 0.000000 1.809460 0.000000 
#    z 0.000000 0.000000 1.758830 
# 
# From -- ./inp_files/67152.got.cif
#   From: 2010.05.17/outbox.cif.g08.bks.cpg/sg65_34_cif.got.tgz:67152.got - 2010.06.03 17:01:31.
