data_PCOD9491127
_publ_section_title
;
Structure prediction by ZEFSAII (Michael W. Deem and Ramdas Pophale) SiO2 
 PCOD9491127
Probable space group: C M M M
;
_chemical_formula_sum "Si O2"
_cell_formula_units_Z 64
_cell_length_a 7.586273
_cell_length_b 25.679966
_cell_length_c 15.255820
_cell_angle_alpha 90.000000
_cell_angle_beta 90.000000
_cell_angle_gamma 90.000000
_cell_volume 2972.066123
_symmetry_space_group_name_H-M "C M M M"
_symmetry_group_IT_number 65
_symmetry_cell_setting 'orthorhombic'
loop_
_space_group_symop_operation_xyz
x,y,z
-x,-y,z
x,-y,-z
-x,y,-z
-x,-y,-z
x,y,-z
-x,y,z
x,-y,z
1/2+x,1/2+y,z
1/2-x,1/2-y,z
1/2+x,1/2-y,-z
1/2-x,1/2+y,-z
1/2-x,1/2-y,-z
1/2+x,1/2+y,-z
1/2-x,1/2+y,z
1/2+x,1/2-y,z
loop_
_atom_site_type_symbol
_atom_site_label
_atom_site_fract_x
_atom_site_fract_y
_atom_site_fract_z
Si Si1 0.297145 0.000000 0.893046
Si Si2 0.790755 0.386589 0.599328
Si Si3 0.283655 0.886450 0.100763
Si Si4 0.788386 0.689166 0.252232
Si Si5 0.709799 0.500000 0.399205
O O1 0.220605 0.056135 0.868908
O O2 0.500000 0.000000 0.862227
O O3 0.300058 0.000000 0.000000
O O4 0.717013 0.385626 0.500000
O O5 0.719689 0.342189 0.663122
O O6 0.766366 0.444568 0.638653
O O7 0.000000 0.378723 0.592123
O O8 0.500000 0.888425 0.100857
O O9 0.225591 0.841180 0.165741
O O10 0.230531 0.877959 0.000000
O O11 0.750000 0.750000 0.253133
O O12 0.000000 0.683784 0.252654
O O13 0.500000 0.500000 0.401747
O O14 0.779616 0.500000 0.500000
#
# Coordination Sequence:
#
# PCOD9491127 Si02
#       5
#     8  16  16  16   8
#     4   7  10  19  38  64  90 112 138 178 227 277
#     4   9  18  33  51  71  98 130 160 194 239 288
#     4   8  14  26  45  69  95 120 149 192 244 291
#     4  10  21  34  48  68  94 127 168 206 239 281
#     4   9  17  30  51  79 104 125 154 193 239 291
#
# _framework density 21.533843000000001
#
# number of rings (size 3 to 8) (size 9 to 14) (size 15 to 20)
#    0.000    3.250    0.000    1.875    0.000    4.500 
#    0.000    3.750    0.000    0.000    0.000    0.000 
#    0.000    4.000    0.000    0.000    0.000    0.000 
#
# Total GULP energy -178453.133257 kJ/mol
# GULP energy per Si atom -5576.660414 kJ/mol
# Density = 2.148483 g / cm^3
# Si number density = 21.533843 Si / 1000 Ang^3
#
#
#
# Elastic Constant Matrix: (Units=GPa)
#
#
# Indices 1 2 3 4 5 6 
#
# 1 46.9359 -2.6294 6.5319 0.0000 0.0000 0.0000
# 2 -2.6294 237.7065 108.6307 0.0000 0.0000 0.0000
# 3 6.5319 108.6307 117.2692 0.0000 0.0000 0.0000
# 4 0.0000 0.0000 0.0000 38.5078 0.0000 0.0000
# 5 0.0000 0.0000 0.0000 0.0000 -3.0750 0.0000
# 6 0.0000 0.0000 0.0000 0.0000 0.0000 22.3581
#
#
#
# Elastic Compliance Matrix: (Units=1/GPa)
#
#
# Indices 1 2 3 4 5 6 
#
# 1 0.021729 0.001376 -0.002485 0.000000 0.000000 0.000000
# 2 0.001376 0.007382 -0.006915 0.000000 0.000000 0.000000
# 3 -0.002485 -0.006915 0.015071 0.000000 0.000000 0.000000
# 4 0.000000 0.000000 0.000000 0.025969 0.000000 0.000000
# 5 0.000000 0.000000 0.000000 0.000000 -0.325207 0.000000
# 6 0.000000 0.000000 0.000000 0.000000 0.000000 0.044726
#
#
# Mechanical properties :
#
#
# Convention : Reuss Voigt Hill
#
# Bulk Modulus (GPa) = 35.54386 69.66423 52.60405
# Shear Modulus (GPa) = -27.04120 30.85008 1.90444
#
# Velocity S-wave (km/s) = -3.54751 3.78912 0.94144
# Velocity P-wave (km/s) = 0.48770 7.18084 5.06590
#
# Compressibility (1/GPa) = 0.02813425
#
# Stress axis : x y z
#
# Youngs Moduli (GPa) = 46.02244 135.46020 66.35049
#
# Poissons Ratio (x) = -0.18638 0.16487
# Poissons Ratio (y) = -0.06332 0.45882
# Poissons Ratio (z) = 0.11436 0.93672
#
# Static dielectric constant tensor:
#      x y z
#    x 1.809230 0.000000 0.000000 
#    y 0.000000 1.769840 0.000000 
#    z 0.000000 0.000000 1.807450 
# 
# From -- ./inp_files/36062.got.cif
#   From: 2010.05.17/outbox.cif.g08.bks.cpg/sg65_19_cif.got.tgz:36062.got - 2010.06.03 17:01:31.
