data_PCOD9491753
_publ_section_title
;
Structure prediction by ZEFSAII (Michael W. Deem and Ramdas Pophale) SiO2 
 PCOD9491753
Probable space group: C M M M
;
_chemical_formula_sum "Si O2"
_cell_formula_units_Z 88
_cell_length_a 19.298327
_cell_length_b 8.184046
_cell_length_c 30.241392
_cell_angle_alpha 90.000000
_cell_angle_beta 90.000000
_cell_angle_gamma 90.000000
_cell_volume 4776.276942
_symmetry_space_group_name_H-M "C M M M"
_symmetry_group_IT_number 65
_symmetry_cell_setting 'orthorhombic'
loop_
_space_group_symop_operation_xyz
x,y,z
-x,-y,z
x,-y,-z
-x,y,-z
-x,-y,-z
x,y,-z
-x,y,z
x,-y,z
1/2+x,1/2+y,z
1/2-x,1/2-y,z
1/2+x,1/2-y,-z
1/2-x,1/2+y,-z
1/2-x,1/2-y,-z
1/2+x,1/2+y,-z
1/2-x,1/2+y,z
1/2+x,1/2-y,z
loop_
_atom_site_type_symbol
_atom_site_label
_atom_site_fract_x
_atom_site_fract_y
_atom_site_fract_z
Si Si1 0.327962 0.807885 0.197018
Si Si2 0.578094 0.307062 0.275703
Si Si3 0.078675 0.693804 0.630368
Si Si4 0.918494 0.000000 0.946930
Si Si5 0.669618 0.801970 0.907337
Si Si6 0.828856 0.194787 0.450953
O O1 0.250000 0.750000 0.205240
O O2 0.379139 0.727795 0.231825
O O3 0.343007 0.778123 0.145251
O O4 0.331684 0.000000 0.204141
O O5 0.500000 0.238383 0.271144
O O6 0.573888 0.500000 0.281207
O O7 0.608629 0.239316 0.321521
O O8 0.074637 0.500000 0.628387
O O9 0.123011 0.750757 0.588969
O O10 0.000000 0.762219 0.628391
O O11 0.879464 0.833311 0.930751
O O12 0.000000 0.000000 0.933103
O O13 0.916363 0.000000 0.000000
O O14 0.750000 0.750000 0.916132
O O15 0.660890 0.000000 0.917044
O O16 0.850218 0.256612 0.500000
O O17 0.750000 0.250000 0.443555
O O18 0.829962 0.000000 0.452233
#
# Coordination Sequence:
#
# PCOD9491753 Si02
#       6
#    16  16  16   8  16  16
#     4  10  21  36  59  87 118 152 193 243 292 343
#     4  10  21  36  55  81 113 150 189 230 281 341
#     4  10  21  37  56  78 109 145 183 230 276 330
#     4  11  26  44  64  96 135 171 213 269 325 379
#     4  10  21  41  67  95 127 168 217 267 316 379
#     4  10  21  37  57  80 106 137 176 225 279 337
#
# _framework density 18.424392000000001
#
# number of rings (size 3 to 8) (size 9 to 14) (size 15 to 20)
#    0.000    1.909    0.909    2.182    2.545    6.182 
#    0.000    8.182    0.000    0.000    0.000    0.000 
#    0.000    0.000    0.000    0.000    0.000    0.000 
#
# Total GULP energy -245379.816660 kJ/mol
# GULP energy per Si atom -5576.814015 kJ/mol
# Density = 1.838246 g / cm^3
# Si number density = 18.424392 Si / 1000 Ang^3
#
#
#
# Elastic Constant Matrix: (Units=GPa)
#
#
# Indices 1 2 3 4 5 6 
#
# 1 82.7876 48.7577 64.8007 0.0000 0.0000 0.0000
# 2 48.7577 99.1178 54.8139 0.0000 0.0000 0.0000
# 3 64.8007 54.8139 88.2825 0.0000 0.0000 0.0000
# 4 0.0000 0.0000 0.0000 31.7724 0.0000 0.0000
# 5 0.0000 0.0000 0.0000 0.0000 39.5671 0.0000
# 6 0.0000 0.0000 0.0000 0.0000 0.0000 26.1144
#
#
#
# Elastic Compliance Matrix: (Units=1/GPa)
#
#
# Indices 1 2 3 4 5 6 
#
# 1 0.029320 -0.003840 -0.019137 0.000000 0.000000 0.000000
# 2 -0.003840 0.015868 -0.007034 0.000000 0.000000 0.000000
# 3 -0.019137 -0.007034 0.029741 0.000000 0.000000 0.000000
# 4 0.000000 0.000000 0.000000 0.031474 0.000000 0.000000
# 5 0.000000 0.000000 0.000000 0.000000 0.025274 0.000000
# 6 0.000000 0.000000 0.000000 0.000000 0.000000 0.038293
#
#
# Mechanical properties :
#
#
# Convention : Reuss Voigt Hill
#
# Bulk Modulus (GPa) = 67.07924 67.43696 67.25810
# Shear Modulus (GPa) = 21.28027 26.27847 23.77937
#
# Velocity S-wave (km/s) = 3.40222 3.78072 3.59645
# Velocity P-wave (km/s) = 7.20558 7.46592 7.33690
#
# Compressibility (1/GPa) = 0.01490774
#
# Stress axis : x y z
#
# Youngs Moduli (GPa) = 34.10661 63.02173 33.62324
#
# Poissons Ratio (x) = 0.24199 0.64345
# Poissons Ratio (y) = 0.13096 0.23649
# Poissons Ratio (z) = 0.65270 0.44327
#
# Static dielectric constant tensor:
#      x y z
#    x 1.583200 0.000000 0.000000 
#    y 0.000000 1.638870 0.000000 
#    z 0.000000 0.000000 1.637170 
# 
# From -- ./inp_files/77930.got.cif
#   From: 2010.05.17/outbox.cif.g08.bks.cpg/sg65_39_cif.got.tgz:77930.got - 2010.06.03 17:01:31.
