data_PCOD9491854
_publ_section_title
;
Structure prediction by ZEFSAII (Michael W. Deem and Ramdas Pophale) SiO2 
 PCOD9491854
Probable space group: C M M M
;
_chemical_formula_sum "Si O2"
_cell_formula_units_Z 90
_cell_length_a 24.874299
_cell_length_b 21.521325
_cell_length_c 9.472728
_cell_angle_alpha 90.000000
_cell_angle_beta 90.000000
_cell_angle_gamma 90.000000
_cell_volume 5071.015331
_symmetry_space_group_name_H-M "C M M M"
_symmetry_group_IT_number 65
_symmetry_cell_setting 'orthorhombic'
loop_
_space_group_symop_operation_xyz
x,y,z
-x,-y,z
x,-y,-z
-x,y,-z
-x,-y,-z
x,y,-z
-x,y,z
x,-y,z
1/2+x,1/2+y,z
1/2-x,1/2-y,z
1/2+x,1/2-y,-z
1/2-x,1/2+y,-z
1/2-x,1/2-y,-z
1/2+x,1/2+y,-z
1/2-x,1/2+y,z
1/2+x,1/2-y,z
loop_
_atom_site_type_symbol
_atom_site_label
_atom_site_fract_x
_atom_site_fract_y
_atom_site_fract_z
Si Si1 0.437880 0.138479 0.664381
Si Si2 0.656042 0.074713 0.835485
Si Si3 0.500000 0.500000 0.500000
Si Si4 0.059960 0.000000 0.790398
Si Si5 0.062328 0.787606 0.663746
Si Si6 0.263777 0.574992 0.334571
Si Si7 0.866506 0.119975 0.163064
O O1 0.427159 0.122219 0.500000
O O2 0.500000 0.122057 0.695165
O O3 0.395959 0.105759 0.766152
O O4 0.433424 0.213246 0.675915
O O5 0.708668 0.092067 0.745028
O O6 0.650757 0.000000 0.827868
O O7 0.662247 0.091716 0.000000
O O8 0.546465 0.500000 0.624053
O O9 0.094051 0.060466 0.828846
O O10 0.000000 0.000000 0.853515
O O11 0.073516 0.804601 0.500000
O O12 0.101438 0.823146 0.767820
O O13 0.000000 0.805086 0.691393
O O14 0.262029 0.591683 0.500000
O O15 0.269453 0.500000 0.325286
O O16 0.313952 0.604970 0.254619
O O17 0.852593 0.131179 0.000000
#
# Coordination Sequence:
#
# PCOD9491854 Si02
#       7
#    16  16   2   8  16  16  16
#     4   9  19  38  61  86 113 145 185 228 271 322
#     4  10  21  37  58  86 119 147 176 220 278 336
#     4   8  24  36  50  76 104 148 190 248 276 332
#     4  10  23  34  52  75 109 144 189 238 284 324
#     4   9  20  37  58  79 107 147 191 233 274 326
#     4  10  21  36  58  80 106 146 192 232 274 328
#     4  12  23  34  52  79 113 147 184 232 285 334
#
# _framework density 17.747924000000001
#
# number of rings (size 3 to 8) (size 9 to 14) (size 15 to 20)
#    0.267    1.778    0.889    3.467    2.489    4.978 
#    0.000    4.444    0.000    5.333    0.000    0.000 
#    0.000    0.000    0.000    0.000    0.000    0.000 
#
# Total GULP energy -250930.482207 kJ/mol
# GULP energy per Si atom -5576.232938 kJ/mol
# Density = 1.770753 g / cm^3
# Si number density = 17.747924 Si / 1000 Ang^3
#
#
#
# Elastic Constant Matrix: (Units=GPa)
#
#
# Indices 1 2 3 4 5 6 
#
# 1 136.8209 40.3078 105.3836 0.0000 0.0000 0.0000
# 2 40.3078 20.2231 42.3395 0.0000 0.0000 0.0000
# 3 105.3836 42.3395 186.1177 0.0000 0.0000 0.0000
# 4 0.0000 0.0000 0.0000 75.3948 0.0000 0.0000
# 5 0.0000 0.0000 0.0000 0.0000 -276.7082 0.0000
# 6 0.0000 0.0000 0.0000 0.0000 0.0000 47.2788
#
#
#
# Elastic Compliance Matrix: (Units=1/GPa)
#
#
# Indices 1 2 3 4 5 6 
#
# 1 0.019246 -0.029681 -0.004145 0.000000 0.000000 0.000000
# 2 -0.029681 0.140192 -0.015086 0.000000 0.000000 0.000000
# 3 -0.004145 -0.015086 0.011152 0.000000 0.000000 0.000000
# 4 0.000000 0.000000 0.000000 0.013264 0.000000 0.000000
# 5 0.000000 0.000000 0.000000 0.000000 -0.003614 0.000000
# 6 0.000000 0.000000 0.000000 0.000000 0.000000 0.021151
#
#
# Mechanical properties :
#
#
# Convention : Reuss Voigt Hill
#
# Bulk Modulus (GPa) = 13.74290 79.91372 46.82831
# Shear Modulus (GPa) = 15.45740 -20.46485 -2.50372
#
# Velocity S-wave (km/s) = 2.95437 -3.39939 -1.18902
# Velocity P-wave (km/s) = 4.40431 5.45133 4.95555
#
# Compressibility (1/GPa) = 0.07276483
#
# Stress axis : x y z
#
# Youngs Moduli (GPa) = 51.95948 7.13309 89.67107
#
# Poissons Ratio (x) = 0.21172 0.37170
# Poissons Ratio (y) = 1.54223 1.35276
# Poissons Ratio (z) = 0.21538 0.10761
#
# Static dielectric constant tensor:
#      x y z
#    x 1.584160 0.000000 0.000000 
#    y 0.000000 1.589460 0.000000 
#    z 0.000000 0.000000 1.598220 
# 
# From -- ./inp_files/14016.got.cif
#   From: 2010.05.17/outbox.cif.g08.bks.cpg/sg65_8_cif.got.tgz:14016.got - 2010.06.03 17:01:31.
