data_PCOD9491701
_publ_section_title
;
Structure prediction by ZEFSAII (Michael W. Deem and Ramdas Pophale) SiO2 
 PCOD9491701
Probable space group: C M M M
;
_chemical_formula_sum "Si O2"
_cell_formula_units_Z 88
_cell_length_a 18.957769
_cell_length_b 11.800711
_cell_length_c 21.295704
_cell_angle_alpha 90.000000
_cell_angle_beta 90.000000
_cell_angle_gamma 90.000000
_cell_volume 4764.171682
_symmetry_space_group_name_H-M "C M M M"
_symmetry_group_IT_number 65
_symmetry_cell_setting 'orthorhombic'
loop_
_space_group_symop_operation_xyz
x,y,z
-x,-y,z
x,-y,-z
-x,y,-z
-x,-y,-z
x,y,-z
-x,y,z
x,-y,z
1/2+x,1/2+y,z
1/2-x,1/2-y,z
1/2+x,1/2-y,-z
1/2-x,1/2+y,-z
1/2-x,1/2-y,-z
1/2+x,1/2+y,-z
1/2-x,1/2+y,z
1/2+x,1/2-y,z
loop_
_atom_site_type_symbol
_atom_site_label
_atom_site_fract_x
_atom_site_fract_y
_atom_site_fract_z
Si Si1 0.918267 0.286410 0.185365
Si Si2 0.288443 0.125495 0.747423
Si Si3 0.585639 0.372060 0.071829
Si Si4 0.420268 0.134770 0.500000
Si Si5 0.325451 0.784590 0.614247
Si Si6 0.922707 0.867429 0.308064
O O1 0.858471 0.371131 0.209466
O O2 0.895012 0.223182 0.121833
O O3 0.918809 0.193133 0.240940
O O4 0.000000 0.327578 0.179381
O O5 0.250000 0.250000 0.758888
O O6 0.311127 0.134263 0.674144
O O7 0.253485 0.000000 0.756781
O O8 0.500000 0.374459 0.072473
O O9 0.609084 0.500000 0.088929
O O10 0.607563 0.349127 0.000000
O O11 0.500000 0.181595 0.500000
O O12 0.377178 0.169891 0.438346
O O13 0.424741 0.000000 0.500000
O O14 0.250000 0.750000 0.587111
O O15 0.362315 0.677129 0.646930
O O16 0.000000 0.837969 0.335042
O O17 0.918549 0.000000 0.299330
#
# Coordination Sequence:
#
# PCOD9491701 Si02
#       6
#    16  16  16   8  16  16
#     4   9  17  29  49  77 107 139 177 221 268 318
#     4  10  22  38  57  81 110 142 176 218 268 321
#     4   8  13  22  40  71 110 147 183 225 272 321
#     4  11  23  38  55  73  99 135 172 211 256 310
#     4  10  21  36  55  77 102 132 171 215 259 309
#     4   9  17  30  49  74 104 136 170 212 264 318
#
# _framework density 18.471207
#
# number of rings (size 3 to 8) (size 9 to 14) (size 15 to 20)
#    0.000    2.636    0.000    2.455    0.000   11.273 
#    0.000    0.455    0.000    2.727    0.000    2.545 
#    0.000    0.000    0.000    0.000    0.000    0.000 
#
# Total GULP energy -244980.778525 kJ/mol
# GULP energy per Si atom -5567.744966 kJ/mol
# Density = 1.842917 g / cm^3
# Si number density = 18.471207 Si / 1000 Ang^3
#
#
#
# Elastic Constant Matrix: (Units=GPa)
#
#
# Indices 1 2 3 4 5 6 
#
# 1 94.9033 31.5220 32.2971 0.0000 0.0000 0.0000
# 2 31.5220 90.3867 23.4232 0.0000 0.0000 0.0000
# 3 32.2971 23.4232 68.3506 0.0000 0.0000 0.0000
# 4 0.0000 0.0000 0.0000 -12.3867 0.0000 0.0000
# 5 0.0000 0.0000 0.0000 0.0000 18.5857 0.0000
# 6 0.0000 0.0000 0.0000 0.0000 0.0000 14.7217
#
#
#
# Elastic Compliance Matrix: (Units=1/GPa)
#
#
# Indices 1 2 3 4 5 6 
#
# 1 0.013412 -0.003331 -0.005196 0.000000 0.000000 0.000000
# 2 -0.003331 0.012969 -0.002871 0.000000 0.000000 0.000000
# 3 -0.005196 -0.002871 0.018069 0.000000 0.000000 0.000000
# 4 0.000000 0.000000 0.000000 -0.080732 0.000000 0.000000
# 5 0.000000 0.000000 0.000000 0.000000 0.053805 0.000000
# 6 0.000000 0.000000 0.000000 0.000000 0.000000 0.067927
#
#
# Mechanical properties :
#
#
# Convention : Reuss Voigt Hill
#
# Bulk Modulus (GPa) = 46.17728 47.56947 46.87338
# Shear Modulus (GPa) = 43.30413 15.27736 29.29075
#
# Velocity S-wave (km/s) = 4.84717 2.87904 3.98647
# Velocity P-wave (km/s) = 7.50870 6.07133 6.82794
#
# Compressibility (1/GPa) = 0.02165567
#
# Stress axis : x y z
#
# Youngs Moduli (GPa) = 74.56245 77.10662 55.34245
#
# Poissons Ratio (x) = 0.25682 0.28755
# Poissons Ratio (y) = 0.24835 0.15886
# Poissons Ratio (z) = 0.38741 0.22134
#
# Static dielectric constant tensor:
#      x y z
#    x 1.707440 0.000000 0.000000 
#    y 0.000000 1.651000 0.000000 
#    z 0.000000 0.000000 1.623250 
# 
# From -- ./inp_files/63606.got.cif
#   From: 2010.05.17/outbox.cif.g08.bks.cpg/sg65_32_cif.got.tgz:63606.got - 2010.06.03 17:01:31.
