data_PCOD9491342
_publ_section_title
;
Structure prediction by ZEFSAII (Michael W. Deem and Ramdas Pophale) SiO2 
 PCOD9491342
Probable space group: C M M M
;
_chemical_formula_sum "Si O2"
_cell_formula_units_Z 80
_cell_length_a 13.289473
_cell_length_b 31.433144
_cell_length_c 7.409844
_cell_angle_alpha 90.000000
_cell_angle_beta 90.000000
_cell_angle_gamma 90.000000
_cell_volume 3095.313530
_symmetry_space_group_name_H-M "C M M M"
_symmetry_group_IT_number 65
_symmetry_cell_setting 'orthorhombic'
loop_
_space_group_symop_operation_xyz
x,y,z
-x,-y,z
x,-y,-z
-x,y,-z
-x,-y,-z
x,y,-z
-x,y,z
x,-y,z
1/2+x,1/2+y,z
1/2-x,1/2-y,z
1/2+x,1/2-y,-z
1/2-x,1/2+y,-z
1/2-x,1/2-y,-z
1/2+x,1/2+y,-z
1/2-x,1/2+y,z
1/2+x,1/2-y,z
loop_
_atom_site_type_symbol
_atom_site_label
_atom_site_fract_x
_atom_site_fract_y
_atom_site_fract_z
Si Si1 0.879320 0.635428 0.710563
Si Si2 0.378740 0.772290 0.717615
Si Si3 0.382604 0.320294 0.717604
Si Si4 0.614381 0.415880 0.788848
Si Si5 0.814926 0.454040 0.293571
O O1 0.844816 0.634453 0.500000
O O2 0.845404 0.681282 0.786365
O O3 0.853183 0.589742 0.792733
O O4 0.000000 0.637703 0.708469
O O5 0.362816 0.773682 0.500000
O O6 0.500000 0.770710 0.744920
O O7 0.341906 0.725736 0.779675
O O8 0.379606 0.318885 0.500000
O O9 0.500000 0.321218 0.774585
O O10 0.345960 0.367166 0.769702
O O11 0.500000 0.417654 0.717261
O O12 0.694706 0.447227 0.703100
O O13 0.610795 0.425695 0.000000
O O14 0.853161 0.454511 0.500000
O O15 0.839695 0.500000 0.213257
#
# Coordination Sequence:
#
# PCOD9491342 Si02
#       5
#    16  16  16  16  16
#     4   8  14  27  49  77 107 134 161 197 240 288
#     4   7  10  19  40  71 102 130 159 191 231 281
#     4   8  13  24  46  74 100 126 159 199 240 284
#     4  10  21  36  53  72  96 130 169 206 249 300
#     4  10  21  35  52  76 102 128 163 208 254 295
#
# _framework density 25.845523
#
# number of rings (size 3 to 8) (size 9 to 14) (size 15 to 20)
#    0.000    3.400    0.000    3.000    0.000    2.400 
#    0.000    5.000    0.000    7.800    0.000    4.200 
#    0.000    0.000    0.000    0.000    0.000    0.000 
#
# Total GULP energy -223307.703210 kJ/mol
# GULP energy per Si atom -5582.692580 kJ/mol
# Density = 2.578670 g / cm^3
# Si number density = 25.845523 Si / 1000 Ang^3
#
#
#
# Elastic Constant Matrix: (Units=GPa)
#
#
# Indices 1 2 3 4 5 6 
#
# 1 59.2743 33.7471 -8.6031 0.0000 0.0000 0.0000
# 2 33.7471 228.9239 5.9088 0.0000 0.0000 0.0000
# 3 -8.6031 5.9088 89.2873 0.0000 0.0000 0.0000
# 4 0.0000 0.0000 0.0000 51.5209 0.0000 0.0000
# 5 0.0000 0.0000 0.0000 0.0000 -33.6241 0.0000
# 6 0.0000 0.0000 0.0000 0.0000 0.0000 26.9762
#
#
#
# Elastic Compliance Matrix: (Units=1/GPa)
#
#
# Indices 1 2 3 4 5 6 
#
# 1 0.018764 -0.002818 0.001994 0.000000 0.000000 0.000000
# 2 -0.002818 0.004799 -0.000589 0.000000 0.000000 0.000000
# 3 0.001994 -0.000589 0.011431 0.000000 0.000000 0.000000
# 4 0.000000 0.000000 0.000000 0.019410 0.000000 0.000000
# 5 0.000000 0.000000 0.000000 0.000000 -0.029741 0.000000
# 6 0.000000 0.000000 0.000000 0.000000 0.000000 0.037070
#
#
# Mechanical properties :
#
#
# Convention : Reuss Voigt Hill
#
# Bulk Modulus (GPa) = 31.08515 48.84345 39.96430
# Shear Modulus (GPa) = 66.41804 32.07010 49.24407
#
# Velocity S-wave (km/s) = 5.07483 3.52637 4.36974
# Velocity P-wave (km/s) = 6.81116 5.95984 6.39967
#
# Compressibility (1/GPa) = 0.03216971
#
# Stress axis : x y z
#
# Youngs Moduli (GPa) = 53.29238 208.38374 87.48176
#
# Poissons Ratio (x) = 0.58716 -0.17448
# Poissons Ratio (y) = 0.15016 0.05153
# Poissons Ratio (z) = -0.10629 0.12275
#
# Static dielectric constant tensor:
#      x y z
#    x 2.091530 0.000000 0.000000 
#    y 0.000000 2.037010 0.000000 
#    z 0.000000 0.000000 1.952390 
# 
# From -- ./inp_files/9631.got.cif
#   From: 2010.05.17/outbox.cif.g08.bks.cpg/sg65_5_cif.got.tgz:9631.got - 2010.06.03 17:01:31.
