data_PCOD9491081
_publ_section_title
;
Structure prediction by ZEFSAII (Michael W. Deem and Ramdas Pophale) SiO2 
 PCOD9491081
Probable space group: C M M M
;
_chemical_formula_sum "Si O2"
_cell_formula_units_Z 116
_cell_length_a 26.916996
_cell_length_b 24.189698
_cell_length_c 7.539274
_cell_angle_alpha 90.000000
_cell_angle_beta 90.000000
_cell_angle_gamma 90.000000
_cell_volume 4908.926884
_symmetry_space_group_name_H-M "C M M M"
_symmetry_group_IT_number 65
_symmetry_cell_setting 'orthorhombic'
loop_
_space_group_symop_operation_xyz
x,y,z
-x,-y,z
x,-y,-z
-x,y,-z
-x,-y,-z
x,y,-z
-x,y,z
x,-y,z
1/2+x,1/2+y,z
1/2-x,1/2-y,z
1/2+x,1/2-y,-z
1/2-x,1/2+y,-z
1/2-x,1/2-y,-z
1/2+x,1/2+y,-z
1/2-x,1/2+y,z
1/2+x,1/2-y,z
loop_
_atom_site_type_symbol
_atom_site_label
_atom_site_fract_x
_atom_site_fract_y
_atom_site_fract_z
Si Si1 0.705303 0.860128 0.789569
Si Si2 0.406098 0.559710 0.284214
Si Si3 0.615269 0.063071 0.784994
Si Si4 0.149543 0.740059 0.797940
Si Si5 0.291534 0.439542 0.286966
Si Si6 0.072906 0.820003 0.296529
Si Si7 0.555443 0.165504 0.291762
Si Si8 0.500000 0.279215 0.000000
O O1 0.664777 0.904669 0.721717
O O2 0.693044 0.798702 0.719550
O O3 0.758342 0.887857 0.764891
O O4 0.696949 0.855137 0.000000
O O5 0.406645 0.559672 0.500000
O O6 0.426237 0.500000 0.226239
O O7 0.348600 0.563579 0.227625
O O8 0.431467 0.616678 0.233833
O O9 0.569265 0.101066 0.727238
O O10 0.613692 0.000000 0.723687
O O11 0.616001 0.062469 0.000000
O O12 0.128758 0.795166 0.707137
O O13 0.102472 0.697184 0.790983
O O14 0.161437 0.755117 0.000000
O O15 0.292397 0.440703 0.500000
O O16 0.271439 0.500000 0.226329
O O17 0.056064 0.815981 0.500000
O O18 0.042352 0.785519 0.156041
O O19 0.554827 0.180416 0.500000
O O20 0.500000 0.175470 0.215965
#
# Coordination Sequence:
#
# PCOD9491081 Si02
#       8
#    16  16  16  16  16  16  16   4
#     4   9  18  32  50  76 112 152 193 244 302 355
#     4   8  17  38  65  91 124 163 198 239 297 362
#     4   9  18  32  47  64  94 137 181 231 294 355
#     4  10  21  38  56  78 115 154 193 251 307 352
#     4   9  17  31  55  86 118 156 204 254 301 357
#     4  11  23  42  68  94 124 164 202 245 306 365
#     4  10  21  33  47  70  96 130 180 234 293 362
#     4  12  26  44  65 100 130 152 201 258 294 360
#
# _framework density 23.630419
#
# number of rings (size 3 to 8) (size 9 to 14) (size 15 to 20)
#    0.000    2.483    0.690    3.103    0.966    5.241 
#    1.241    3.103    0.000    5.793    0.000    0.000 
#    0.000    0.000    0.000    0.000    0.000    0.000 
#
# Total GULP energy -323300.898204 kJ/mol
# GULP energy per Si atom -5574.153417 kJ/mol
# Density = 2.357664 g / cm^3
# Si number density = 23.630419 Si / 1000 Ang^3
#
#
#
# Elastic Constant Matrix: (Units=GPa)
#
#
# Indices 1 2 3 4 5 6 
#
# 1 13.0337 -5.8561 -0.5430 0.0000 0.0000 0.0000
# 2 -5.8561 108.0782 -0.7689 0.0000 0.0000 0.0000
# 3 -0.5430 -0.7689 82.9617 0.0000 0.0000 0.0000
# 4 0.0000 0.0000 0.0000 8.6145 0.0000 0.0000
# 5 0.0000 0.0000 0.0000 0.0000 -45.1745 0.0000
# 6 0.0000 0.0000 0.0000 0.0000 0.0000 0.7854
#
#
#
# Elastic Compliance Matrix: (Units=1/GPa)
#
#
# Indices 1 2 3 4 5 6 
#
# 1 0.078664 0.004266 0.000554 0.000000 0.000000 0.000000
# 2 0.004266 0.009485 0.000116 0.000000 0.000000 0.000000
# 3 0.000554 0.000116 0.012058 0.000000 0.000000 0.000000
# 4 0.000000 0.000000 0.000000 0.116084 0.000000 0.000000
# 5 0.000000 0.000000 0.000000 0.000000 -0.022136 0.000000
# 6 0.000000 0.000000 0.000000 0.000000 0.000000 1.273254
#
#
# Mechanical properties :
#
#
# Convention : Reuss Voigt Hill
#
# Bulk Modulus (GPa) = 9.08426 21.08194 15.08310
# Shear Modulus (GPa) = 3.34621 6.92784 5.13703
#
# Velocity S-wave (km/s) = 1.19127 1.71409 1.47602
# Velocity P-wave (km/s) = 2.39684 3.58586 3.04985
#
# Compressibility (1/GPa) = 0.11008050
#
# Stress axis : x y z
#
# Youngs Moduli (GPa) = 12.71223 105.43456 82.92931
#
# Poissons Ratio (x) = -0.44982 -0.04597
# Poissons Ratio (y) = -0.05423 -0.00961
# Poissons Ratio (z) = -0.00705 -0.01221
#
# Static dielectric constant tensor:
#      x y z
#    x 1.938880 0.000000 0.000000 
#    y 0.000000 1.963710 0.000000 
#    z 0.000000 0.000000 2.294820 
# 
# From -- ./inp_files/16882.got.cif
#   From: 2010.05.17/outbox.cif.g08.bks.cpg/sg65_9_cif.got.tgz:16882.got - 2010.06.03 17:01:31.
