data_PCOD9491156
_publ_section_title
;
Structure prediction by ZEFSAII (Michael W. Deem and Ramdas Pophale) SiO2 
 PCOD9491156
Probable space group: C M M M
;
_chemical_formula_sum "Si O2"
_cell_formula_units_Z 104
_cell_length_a 32.684362
_cell_length_b 21.524110
_cell_length_c 8.234844
_cell_angle_alpha 90.000000
_cell_angle_beta 90.000000
_cell_angle_gamma 90.000000
_cell_volume 5793.227601
_symmetry_space_group_name_H-M "C M M M"
_symmetry_group_IT_number 65
_symmetry_cell_setting 'orthorhombic'
loop_
_space_group_symop_operation_xyz
x,y,z
-x,-y,z
x,-y,-z
-x,y,-z
-x,-y,-z
x,y,-z
-x,y,z
x,-y,z
1/2+x,1/2+y,z
1/2-x,1/2-y,z
1/2+x,1/2-y,-z
1/2-x,1/2+y,-z
1/2-x,1/2-y,-z
1/2+x,1/2+y,-z
1/2-x,1/2+y,z
1/2+x,1/2-y,z
loop_
_atom_site_type_symbol
_atom_site_label
_atom_site_fract_x
_atom_site_fract_y
_atom_site_fract_z
Si Si1 0.451761 0.072274 0.000000
Si Si2 0.634594 0.685372 0.806031
Si Si3 0.071312 0.643338 0.320857
Si Si4 0.545080 0.274178 0.803300
Si Si5 0.665388 0.185232 0.317764
Si Si6 0.281435 0.069735 0.804501
Si Si7 0.686656 0.569429 0.198436
O O1 0.435188 0.100255 0.833484
O O2 0.500000 0.084203 0.000000
O O3 0.443465 0.000000 0.000000
O O4 0.587151 0.691831 0.751052
O O5 0.659957 0.748394 0.769845
O O6 0.658104 0.625021 0.741416
O O7 0.632640 0.679499 0.000000
O O8 0.059499 0.619455 0.500000
O O9 0.047918 0.707229 0.281269
O O10 0.119164 0.659738 0.323408
O O11 0.500000 0.301933 0.769064
O O12 0.547517 0.265348 0.000000
O O13 0.679809 0.198045 0.500000
O O14 0.692622 0.129507 0.247513
O O15 0.234085 0.077547 0.753273
O O16 0.295158 0.000000 0.748700
O O17 0.282288 0.068145 0.000000
O O18 0.673468 0.500000 0.247333
O O19 0.686292 0.570803 0.000000
#
# Coordination Sequence:
#
# PCOD9491156 Si02
#       7
#     8  16  16  16  16  16  16
#     4  11  24  38  52  72  98 131 173 219 263 314
#     4   9  17  30  51  74  99 133 168 209 259 306
#     4  10  21  36  53  73 100 135 171 212 266 319
#     4   9  16  28  49  75 100 128 168 214 257 308
#     4  10  21  34  49  73 104 130 162 213 261 308
#     4   9  18  32  51  72  95 130 175 217 253 300
#     4   8  15  30  51  75 100 130 173 213 248 302
#
# _framework density 17.951996000000001
#
# number of rings (size 3 to 8) (size 9 to 14) (size 15 to 20)
#    0.000    2.692    0.769    1.846    2.154    3.077 
#    0.000    6.154    0.000    1.846    0.000    3.231 
#    0.000    0.000    0.000    7.692    0.000    8.000 
#
# Total GULP energy -289558.456319 kJ/mol
# GULP energy per Si atom -5568.431852 kJ/mol
# Density = 1.791114 g / cm^3
# Si number density = 17.951996 Si / 1000 Ang^3
#
#
#
# Elastic Constant Matrix: (Units=GPa)
#
#
# Indices 1 2 3 4 5 6 
#
# 1 94.9450 78.5785 14.8520 0.0000 0.0000 0.0000
# 2 78.5785 125.2895 21.5380 0.0000 0.0000 0.0000
# 3 14.8520 21.5380 46.2177 0.0000 0.0000 0.0000
# 4 0.0000 0.0000 0.0000 -21.1418 0.0000 0.0000
# 5 0.0000 0.0000 0.0000 0.0000 2.8329 0.0000
# 6 0.0000 0.0000 0.0000 0.0000 0.0000 14.3934
#
#
#
# Elastic Compliance Matrix: (Units=1/GPa)
#
#
# Indices 1 2 3 4 5 6 
#
# 1 0.021920 -0.013629 -0.000693 0.000000 0.000000 0.000000
# 2 -0.013629 0.017150 -0.003613 0.000000 0.000000 0.000000
# 3 -0.000693 -0.003613 0.023543 0.000000 0.000000 0.000000
# 4 0.000000 0.000000 0.000000 -0.047300 0.000000 0.000000
# 5 0.000000 0.000000 0.000000 0.000000 0.352997 0.000000
# 6 0.000000 0.000000 0.000000 0.000000 0.000000 0.069476
#
#
# Mechanical properties :
#
#
# Convention : Reuss Voigt Hill
#
# Bulk Modulus (GPa) = 37.39036 55.15435 46.27236
# Shear Modulus (GPa) = 10.36119 9.31581 9.83850
#
# Velocity S-wave (km/s) = 2.40502 2.28047 2.34358
# Velocity P-wave (km/s) = 5.34653 6.14199 5.75801
#
# Compressibility (1/GPa) = 0.02674486
#
# Stress axis : x y z
#
# Youngs Moduli (GPa) = 45.62006 58.30865 42.47560
#
# Poissons Ratio (x) = 0.79467 0.02943
# Poissons Ratio (y) = 0.62174 0.15345
# Poissons Ratio (z) = 0.03161 0.21065
#
# Static dielectric constant tensor:
#      x y z
#    x 1.633910 0.000000 0.000000 
#    y 0.000000 1.610790 0.000000 
#    z 0.000000 0.000000 1.697850 
# 
# From -- ./inp_files/18608.got.cif
#   From: 2010.05.17/outbox.cif.g08.bks.cpg/sg65_10_cif.got.tgz:18608.got - 2010.06.03 17:01:31.
