data_PCOD9491975
_publ_section_title
;
Structure prediction by ZEFSAII (Michael W. Deem and Ramdas Pophale) SiO2 
 PCOD9491975
Probable space group: C M M M
;
_chemical_formula_sum "Si O2"
_cell_formula_units_Z 88
_cell_length_a 24.813733
_cell_length_b 23.373905
_cell_length_c 8.866496
_cell_angle_alpha 90.000000
_cell_angle_beta 90.000000
_cell_angle_gamma 90.000000
_cell_volume 5142.513043
_symmetry_space_group_name_H-M "C M M M"
_symmetry_group_IT_number 65
_symmetry_cell_setting 'orthorhombic'
loop_
_space_group_symop_operation_xyz
x,y,z
-x,-y,z
x,-y,-z
-x,y,-z
-x,-y,-z
x,y,-z
-x,y,z
x,-y,z
1/2+x,1/2+y,z
1/2-x,1/2-y,z
1/2+x,1/2-y,-z
1/2-x,1/2+y,-z
1/2-x,1/2-y,-z
1/2+x,1/2+y,-z
1/2-x,1/2+y,z
1/2+x,1/2-y,z
loop_
_atom_site_type_symbol
_atom_site_label
_atom_site_fract_x
_atom_site_fract_y
_atom_site_fract_z
Si Si1 0.856928 0.066579 0.818364
Si Si2 0.438027 0.000000 0.316550
Si Si3 0.627206 0.886525 0.680824
Si Si4 0.437297 0.341899 0.319865
Si Si5 0.436993 0.781518 0.180342
Si Si6 0.767005 0.432787 0.819102
O O1 0.898653 0.108883 0.741492
O O2 0.794833 0.080942 0.778877
O O3 0.866249 0.000000 0.777862
O O4 0.861498 0.070799 0.000000
O O5 0.406665 0.057214 0.269452
O O6 0.500000 0.000000 0.265147
O O7 0.438480 0.000000 0.500000
O O8 0.625581 0.883641 0.500000
O O9 0.599764 0.830667 0.749778
O O10 0.687972 0.895927 0.736931
O O11 0.432960 0.337468 0.500000
O O12 0.500000 0.354163 0.281885
O O13 0.423480 0.280826 0.246103
O O14 0.500000 0.792915 0.218194
O O15 0.431802 0.780803 0.000000
O O16 0.775697 0.500000 0.782535
O O17 0.772438 0.426853 0.000000
#
# Coordination Sequence:
#
# PCOD9491975 Si02
#       6
#    16   8  16  16  16  16
#     4   9  19  36  58  83 110 143 179 216 263 317
#     4   9  18  30  45  71 107 141 174 217 266 313
#     4  11  20  32  52  78 108 143 182 223 270 320
#     4  10  21  37  57  82 111 141 173 216 270 322
#     4  10  21  37  56  77 104 142 184 223 267 321
#     4   9  18  34  54  76 107 144 181 222 266 314
#
# _framework density 17.112257
#
# number of rings (size 3 to 8) (size 9 to 14) (size 15 to 20)
#    0.000    2.273    0.909    3.273    0.000    4.364 
#    0.000    4.545    0.000    7.636    0.000    0.000 
#    0.000    0.000    0.000    0.000    0.000    0.000 
#
# Total GULP energy -245585.056928 kJ/mol
# GULP energy per Si atom -5581.478567 kJ/mol
# Density = 1.707331 g / cm^3
# Si number density = 17.112257 Si / 1000 Ang^3
#
#
#
# Elastic Constant Matrix: (Units=GPa)
#
#
# Indices 1 2 3 4 5 6 
#
# 1 130.2733 111.9437 57.4437 0.0000 0.0000 0.0000
# 2 111.9437 141.5533 59.7856 0.0000 0.0000 0.0000
# 3 57.4437 59.7856 48.7093 0.0000 0.0000 0.0000
# 4 0.0000 0.0000 0.0000 28.2756 0.0000 0.0000
# 5 0.0000 0.0000 0.0000 0.0000 29.1114 0.0000
# 6 0.0000 0.0000 0.0000 0.0000 0.0000 26.3382
#
#
#
# Elastic Compliance Matrix: (Units=1/GPa)
#
#
# Indices 1 2 3 4 5 6 
#
# 1 0.026780 -0.016277 -0.011603 0.000000 0.000000 0.000000
# 2 -0.016277 0.024563 -0.010952 0.000000 0.000000 0.000000
# 3 -0.011603 -0.010952 0.047655 0.000000 0.000000 0.000000
# 4 0.000000 0.000000 0.000000 0.035366 0.000000 0.000000
# 5 0.000000 0.000000 0.000000 0.000000 0.034351 0.000000
# 6 0.000000 0.000000 0.000000 0.000000 0.000000 0.037968
#
#
# Mechanical properties :
#
#
# Convention : Reuss Voigt Hill
#
# Bulk Modulus (GPa) = 46.87420 86.54242 66.70831
# Shear Modulus (GPa) = 17.15518 22.83590 19.99554
#
# Velocity S-wave (km/s) = 3.16968 3.65701 3.42203
# Velocity P-wave (km/s) = 6.39120 8.27737 7.39467
#
# Compressibility (1/GPa) = 0.02133370
#
# Stress axis : x y z
#
# Youngs Moduli (GPa) = 37.34196 40.71232 20.98401
#
# Poissons Ratio (x) = 0.66269 0.24347
# Poissons Ratio (y) = 0.60783 0.22981
# Poissons Ratio (z) = 0.43327 0.44587
#
# Static dielectric constant tensor:
#      x y z
#    x 1.569310 0.000000 0.000000 
#    y 0.000000 1.547700 0.000000 
#    z 0.000000 0.000000 1.569470 
# 
# From -- ./inp_files/11700.got.cif
#   From: 2010.05.17/outbox.cif.g08.bks.cpg/sg65_6_cif.got.tgz:11700.got - 2010.06.03 17:01:31.
