data_PCOD9491771
_publ_section_title
;
Structure prediction by ZEFSAII (Michael W. Deem and Ramdas Pophale) SiO2 
 PCOD9491771
Probable space group: C M M M
;
_chemical_formula_sum "Si O2"
_cell_formula_units_Z 64
_cell_length_a 20.905102
_cell_length_b 19.663029
_cell_length_c 7.888697
_cell_angle_alpha 90.000000
_cell_angle_beta 90.000000
_cell_angle_gamma 90.000000
_cell_volume 3242.709068
_symmetry_space_group_name_H-M "C M M M"
_symmetry_group_IT_number 65
_symmetry_cell_setting 'orthorhombic'
loop_
_space_group_symop_operation_xyz
x,y,z
-x,-y,z
x,-y,-z
-x,y,-z
-x,-y,-z
x,y,-z
-x,y,z
x,-y,z
1/2+x,1/2+y,z
1/2-x,1/2-y,z
1/2+x,1/2-y,-z
1/2-x,1/2+y,-z
1/2-x,1/2-y,-z
1/2+x,1/2+y,-z
1/2-x,1/2+y,z
1/2+x,1/2-y,z
loop_
_atom_site_type_symbol
_atom_site_label
_atom_site_fract_x
_atom_site_fract_y
_atom_site_fract_z
Si Si1 0.500000 0.917908 0.189940
Si Si2 0.140866 0.576341 0.301864
Si Si3 0.924443 0.181050 0.797105
Si Si4 0.814199 0.282679 0.200710
Si Si5 0.922725 0.922860 0.500000
O O1 0.433222 0.901911 0.277025
O O2 0.500000 0.000000 0.180081
O O3 0.500000 0.888888 0.000000
O O4 0.153736 0.572290 0.500000
O O5 0.148858 0.500000 0.228405
O O6 0.182329 0.637024 0.228990
O O7 0.878366 0.243224 0.744648
O O8 0.906711 0.119132 0.670919
O O9 0.000000 0.196689 0.772893
O O10 0.916253 0.166301 0.000000
O O11 0.750000 0.250000 0.275884
O O12 0.812683 0.271820 0.000000
O O13 0.000000 0.926983 0.500000
O O14 0.897280 0.000000 0.500000
#
# Coordination Sequence:
#
# PCOD9491771 Si02
#       5
#     8  16  16  16   8
#     4   9  17  31  53  81 113 149 187 230 281 334
#     4  10  21  36  55  83 117 151 191 238 288 343
#     4   9  19  36  58  85 115 148 190 238 290 349
#     4  10  22  39  58  81 113 152 192 236 289 347
#     4   9  18  34  57  86 115 145 187 238 292 344
#
# _framework density 19.736585000000002
#
# number of rings (size 3 to 8) (size 9 to 14) (size 15 to 20)
#    0.000    2.500    0.000    1.125    3.500    4.000 
#    0.000    3.750    0.000    4.500    0.000    0.000 
#    0.000    0.000    0.000    0.000    0.000    0.000 
#
# Total GULP energy -178314.048072 kJ/mol
# GULP energy per Si atom -5572.314002 kJ/mol
# Density = 1.969166 g / cm^3
# Si number density = 19.736585 Si / 1000 Ang^3
#
#
#
# Elastic Constant Matrix: (Units=GPa)
#
#
# Indices 1 2 3 4 5 6 
#
# 1 77.7571 68.3461 19.4757 0.0000 0.0000 0.0000
# 2 68.3461 143.1103 23.3122 0.0000 0.0000 0.0000
# 3 19.4757 23.3122 45.5829 0.0000 0.0000 0.0000
# 4 0.0000 0.0000 0.0000 29.7848 0.0000 0.0000
# 5 0.0000 0.0000 0.0000 0.0000 9.6723 0.0000
# 6 0.0000 0.0000 0.0000 0.0000 0.0000 42.2526
#
#
#
# Elastic Compliance Matrix: (Units=1/GPa)
#
#
# Indices 1 2 3 4 5 6 
#
# 1 0.023014 -0.010243 -0.004595 0.000000 0.000000 0.000000
# 2 -0.010243 0.012181 -0.001854 0.000000 0.000000 0.000000
# 3 -0.004595 -0.001854 0.024849 0.000000 0.000000 0.000000
# 4 0.000000 0.000000 0.000000 0.033574 0.000000 0.000000
# 5 0.000000 0.000000 0.000000 0.000000 0.103388 0.000000
# 6 0.000000 0.000000 0.000000 0.000000 0.000000 0.023667
#
#
# Mechanical properties :
#
#
# Convention : Reuss Voigt Hill
#
# Bulk Modulus (GPa) = 37.50532 54.30205 45.90368
# Shear Modulus (GPa) = 19.01546 26.69634 22.85590
#
# Velocity S-wave (km/s) = 3.10734 3.68180 3.40670
# Velocity P-wave (km/s) = 5.64962 6.75628 6.22758
#
# Compressibility (1/GPa) = 0.02666289
#
# Stress axis : x y z
#
# Youngs Moduli (GPa) = 43.45113 82.09380 40.24283
#
# Poissons Ratio (x) = 0.84086 0.18491
# Poissons Ratio (y) = 0.44505 0.07459
# Poissons Ratio (z) = 0.19965 0.15216
#
# Static dielectric constant tensor:
#      x y z
#    x 1.703490 0.000000 0.000000 
#    y 0.000000 1.715600 0.000000 
#    z 0.000000 0.000000 1.707420 
# 
# From -- ./inp_files/13541.got.cif
#   From: 2010.05.17/outbox.cif.g08.bks.cpg/sg65_7_cif.got.tgz:13541.got - 2010.06.03 17:01:31.
