data_PCOD9491806
_publ_section_title
;
Structure prediction by ZEFSAII (Michael W. Deem and Ramdas Pophale) SiO2 
 PCOD9491806
Probable space group: C M M M
;
_chemical_formula_sum "Si O2"
_cell_formula_units_Z 88
_cell_length_a 14.610312
_cell_length_b 7.391656
_cell_length_c 31.432166
_cell_angle_alpha 90.000000
_cell_angle_beta 90.000000
_cell_angle_gamma 90.000000
_cell_volume 3394.497919
_symmetry_space_group_name_H-M "C M M M"
_symmetry_group_IT_number 65
_symmetry_cell_setting 'orthorhombic'
loop_
_space_group_symop_operation_xyz
x,y,z
-x,-y,z
x,-y,-z
-x,y,-z
-x,-y,-z
x,y,-z
-x,y,z
x,-y,z
1/2+x,1/2+y,z
1/2-x,1/2-y,z
1/2+x,1/2-y,-z
1/2-x,1/2+y,-z
1/2-x,1/2-y,-z
1/2+x,1/2+y,-z
1/2-x,1/2+y,z
1/2+x,1/2-y,z
loop_
_atom_site_type_symbol
_atom_site_label
_atom_site_fract_x
_atom_site_fract_y
_atom_site_fract_z
Si Si1 0.891466 0.783109 0.363337
Si Si2 0.110093 0.218127 0.545577
Si Si3 0.100966 0.219896 0.859745
Si Si4 0.606628 0.789666 0.268804
Si Si5 0.358637 0.284540 0.954082
Si Si6 0.750000 0.250000 0.203428
O O1 0.854395 0.714269 0.408768
O O2 0.859361 0.717073 0.317630
O O3 0.000000 0.739997 0.363793
O O4 0.882564 0.000000 0.363011
O O5 0.145149 0.287662 0.500000
O O6 0.000000 0.249512 0.545607
O O7 0.121340 0.000000 0.545515
O O8 0.104167 0.278971 0.908950
O O9 0.176619 0.314670 0.831623
O O10 0.000000 0.252367 0.842420
O O11 0.117703 0.000000 0.858325
O O12 0.500000 0.729705 0.267758
O O13 0.674281 0.684821 0.237698
O O14 0.610261 0.000000 0.255499
O O15 0.375413 0.500000 0.954611
O O16 0.250000 0.250000 0.952767
O O17 0.391371 0.213529 0.000000
#
# Coordination Sequence:
#
# PCOD9491806 Si02
#       6
#    16  16  16  16  16   8
#     4   8  14  26  46  72 101 135 176 218 261 316
#     4   7   9  15  32  62  98 131 164 206 254 305
#     4  10  21  36  56  84 113 143 182 227 272 320
#     4  10  22  38  55  77 106 140 179 226 280 330
#     4   9  17  32  56  85 116 149 183 219 262 315
#     4  12  22  38  57  76 103 144 184 228 276 330
#
# _framework density 25.924303999999999
#
# number of rings (size 3 to 8) (size 9 to 14) (size 15 to 20)
#    0.000    2.909    0.909    2.727    0.000    1.818 
#    0.000    3.636    0.000    2.182    0.000    7.000 
#    0.000    0.000    0.000    0.000    0.000    0.182 
#
# Total GULP energy -245279.718772 kJ/mol
# GULP energy per Si atom -5574.539063 kJ/mol
# Density = 2.586530 g / cm^3
# Si number density = 25.924304 Si / 1000 Ang^3
#
#
#
# Elastic Constant Matrix: (Units=GPa)
#
#
# Indices 1 2 3 4 5 6 
#
# 1 151.9036 18.8129 68.6571 0.0000 0.0000 0.0000
# 2 18.8129 101.5179 33.6126 0.0000 0.0000 0.0000
# 3 68.6571 33.6126 269.7280 0.0000 0.0000 0.0000
# 4 0.0000 0.0000 0.0000 -2.5295 0.0000 0.0000
# 5 0.0000 0.0000 0.0000 0.0000 37.7215 0.0000
# 6 0.0000 0.0000 0.0000 0.0000 0.0000 -17.8491
#
#
#
# Elastic Compliance Matrix: (Units=1/GPa)
#
#
# Indices 1 2 3 4 5 6 
#
# 1 0.007499 -0.000790 -0.001810 0.000000 0.000000 0.000000
# 2 -0.000790 0.010358 -0.001090 0.000000 0.000000 0.000000
# 3 -0.001810 -0.001090 0.004304 0.000000 0.000000 0.000000
# 4 0.000000 0.000000 0.000000 -0.395333 0.000000 0.000000
# 5 0.000000 0.000000 0.000000 0.000000 0.026510 0.000000
# 6 0.000000 0.000000 0.000000 0.000000 0.000000 -0.056025
#
#
# Mechanical properties :
#
#
# Convention : Reuss Voigt Hill
#
# Bulk Modulus (GPa) = 67.65697 85.03494 76.34595
# Shear Modulus (GPa) = -12.80805 30.27305 8.73250
#
# Velocity S-wave (km/s) = -2.22515 3.42094 1.83733
# Velocity P-wave (km/s) = 4.42186 6.96249 5.83220
#
# Compressibility (1/GPa) = 0.01478044
#
# Stress axis : x y z
#
# Youngs Moduli (GPa) = 133.34655 96.54659 232.33998
#
# Poissons Ratio (x) = 0.07630 0.42063
# Poissons Ratio (y) = 0.10539 0.25315
# Poissons Ratio (z) = 0.24141 0.10519
#
# Static dielectric constant tensor:
#      x y z
#    x 2.010780 0.000000 0.000000 
#    y 0.000000 2.071820 0.000000 
#    z 0.000000 0.000000 2.042370 
# 
# From -- ./inp_files/77908.got.cif
#   From: 2010.05.17/outbox.cif.g08.bks.cpg/sg65_39_cif.got.tgz:77908.got - 2010.06.03 17:01:31.
