data_PCOD9491493
_publ_section_title
;
Structure prediction by ZEFSAII (Michael W. Deem and Ramdas Pophale) SiO2 
 PCOD9491493
Probable space group: C M M M
;
_chemical_formula_sum "Si O2"
_cell_formula_units_Z 88
_cell_length_a 8.837607
_cell_length_b 18.248584
_cell_length_c 29.783988
_cell_angle_alpha 90.000000
_cell_angle_beta 90.000000
_cell_angle_gamma 90.000000
_cell_volume 4803.377332
_symmetry_space_group_name_H-M "C M M M"
_symmetry_group_IT_number 65
_symmetry_cell_setting 'orthorhombic'
loop_
_space_group_symop_operation_xyz
x,y,z
-x,-y,z
x,-y,-z
-x,y,-z
-x,-y,-z
x,y,-z
-x,y,z
x,-y,z
1/2+x,1/2+y,z
1/2-x,1/2-y,z
1/2+x,1/2-y,-z
1/2-x,1/2+y,-z
1/2-x,1/2-y,-z
1/2+x,1/2+y,-z
1/2-x,1/2+y,z
1/2+x,1/2-y,z
loop_
_atom_site_type_symbol
_atom_site_label
_atom_site_fract_x
_atom_site_fract_y
_atom_site_fract_z
Si Si1 0.183859 0.414207 0.730665
Si Si2 0.319554 0.669197 0.450119
Si Si3 0.822001 0.588258 0.366758
Si Si4 0.680603 0.912843 0.000000
Si Si5 0.180598 0.168830 0.914328
Si Si6 0.318828 0.911770 0.170599
O O1 0.226829 0.500000 0.731086
O O2 0.233994 0.383939 0.682327
O O3 0.229327 0.384884 0.779471
O O4 0.000000 0.412336 0.729956
O O5 0.275773 0.640900 0.500000
O O6 0.500000 0.674466 0.448707
O O7 0.250000 0.750000 0.445652
O O8 0.262852 0.620648 0.409141
O O9 0.809917 0.500000 0.366431
O O10 0.000000 0.606427 0.370706
O O11 0.752917 0.876497 0.043893
O O12 0.500000 0.900254 0.000000
O O13 0.706782 0.000000 0.000000
O O14 0.250000 0.250000 0.915312
O O15 0.231675 0.128702 0.868737
O O16 0.000000 0.172476 0.917349
O O17 0.500000 0.899665 0.165747
O O18 0.296184 0.000000 0.168166
#
# Coordination Sequence:
#
# PCOD9491493 Si02
#       6
#    16  16  16   8  16  16
#     4   7  12  26  50  78 106 137 172 211 256 307
#     4  10  21  36  52  70  96 132 173 216 263 316
#     4   9  17  31  53  80 107 135 170 212 259 312
#     4  11  24  43  66  89 113 143 180 219 264 321
#     4  12  25  40  58  82 115 149 183 224 269 314
#     4   9  17  33  58  84 110 142 180 219 261 312
#
# _framework density 18.320443999999998
#
# number of rings (size 3 to 8) (size 9 to 14) (size 15 to 20)
#    0.000    2.455    0.000    5.455    0.000    5.091 
#    0.000    3.636    0.000    3.273    0.000    0.000 
#    0.000    0.000    0.000    0.000    0.000    0.000 
#
# Total GULP energy -245333.950871 kJ/mol
# GULP energy per Si atom -5575.771611 kJ/mol
# Density = 1.827875 g / cm^3
# Si number density = 18.320444 Si / 1000 Ang^3
#
#
#
# Elastic Constant Matrix: (Units=GPa)
#
#
# Indices 1 2 3 4 5 6 
#
# 1 83.8745 51.2180 80.1065 0.0000 0.0000 0.0000
# 2 51.2180 49.9721 60.7650 0.0000 0.0000 0.0000
# 3 80.1065 60.7650 212.6670 0.0000 0.0000 0.0000
# 4 0.0000 0.0000 0.0000 -116.3799 0.0000 0.0000
# 5 0.0000 0.0000 0.0000 0.0000 2.4602 0.0000
# 6 0.0000 0.0000 0.0000 0.0000 0.0000 25.5659
#
#
#
# Elastic Compliance Matrix: (Units=1/GPa)
#
#
# Indices 1 2 3 4 5 6 
#
# 1 0.034377 -0.029864 -0.004416 0.000000 0.000000 0.000000
# 2 -0.029864 0.056610 -0.004926 0.000000 0.000000 0.000000
# 3 -0.004416 -0.004926 0.007773 0.000000 0.000000 0.000000
# 4 0.000000 0.000000 0.000000 -0.008593 0.000000 0.000000
# 5 0.000000 0.000000 0.000000 0.000000 0.406477 0.000000
# 6 0.000000 0.000000 0.000000 0.000000 0.000000 0.039115
#
#
# Mechanical properties :
#
#
# Convention : Reuss Voigt Hill
#
# Bulk Modulus (GPa) = 49.14600 81.18807 65.16703
# Shear Modulus (GPa) = 8.05215 -7.37582 0.33816
#
# Velocity S-wave (km/s) = 2.09874 -2.00867 0.43010
# Velocity P-wave (km/s) = 5.72337 6.24757 5.99120
#
# Compressibility (1/GPa) = 0.02034754
#
# Stress axis : x y z
#
# Youngs Moduli (GPa) = 29.08962 17.66487 128.65096
#
# Poissons Ratio (x) = 0.52755 0.56810
# Poissons Ratio (y) = 0.86873 0.63372
# Poissons Ratio (z) = 0.12845 0.08701
#
# Static dielectric constant tensor:
#      x y z
#    x 1.610090 0.000000 0.000000 
#    y 0.000000 1.602730 0.000000 
#    z 0.000000 0.000000 1.664240 
# 
# From -- ./inp_files/76713.got.cif
#   From: 2010.05.17/outbox.cif.g08.bks.cpg/sg65_39_cif.got.tgz:76713.got - 2010.06.03 17:01:31.
