data_PCOD9491381
_publ_section_title
;
Structure prediction by ZEFSAII (Michael W. Deem and Ramdas Pophale) SiO2 
 PCOD9491381
Probable space group: C M M M
;
_chemical_formula_sum "Si O2"
_cell_formula_units_Z 80
_cell_length_a 28.174036
_cell_length_b 14.371641
_cell_length_c 10.559727
_cell_angle_alpha 90.000000
_cell_angle_beta 90.000000
_cell_angle_gamma 90.000000
_cell_volume 4275.708763
_symmetry_space_group_name_H-M "C M M M"
_symmetry_group_IT_number 65
_symmetry_cell_setting 'orthorhombic'
loop_
_space_group_symop_operation_xyz
x,y,z
-x,-y,z
x,-y,-z
-x,y,-z
-x,-y,-z
x,y,-z
-x,y,z
x,-y,z
1/2+x,1/2+y,z
1/2-x,1/2-y,z
1/2+x,1/2-y,-z
1/2-x,1/2+y,-z
1/2-x,1/2-y,-z
1/2+x,1/2+y,-z
1/2-x,1/2+y,z
1/2+x,1/2-y,z
loop_
_atom_site_type_symbol
_atom_site_label
_atom_site_fract_x
_atom_site_fract_y
_atom_site_fract_z
Si Si1 0.948340 0.745452 0.645816
Si Si2 0.926701 0.107425 0.858563
Si Si3 0.675827 0.393880 0.248631
Si Si4 0.280072 0.888784 0.858000
Si Si5 0.156267 0.701199 0.358596
O O1 0.945408 0.780159 0.500000
O O2 0.945930 0.827860 0.747678
O O3 0.900092 0.687216 0.663753
O O4 0.000000 0.698452 0.658959
O O5 0.869469 0.109806 0.844080
O O6 0.941140 0.000000 0.842559
O O7 0.940053 0.138041 0.000000
O O8 0.678105 0.500000 0.299310
O O9 0.725077 0.373414 0.178211
O O10 0.666047 0.312145 0.348331
O O11 0.312994 0.844542 0.751207
O O12 0.287201 0.000000 0.857735
O O13 0.289855 0.853620 0.000000
O O14 0.168695 0.668588 0.500000
#
# Coordination Sequence:
#
# PCOD9491381 Si02
#       5
#    16  16  16  16  16
#     4   9  19  35  51  67  92 128 167 206 252 307
#     4   9  17  29  46  70 100 132 168 208 243 281
#     4   9  18  32  51  76 108 144 175 201 236 291
#     4  10  21  36  54  76 103 137 174 209 250 304
#     4  10  21  35  53  78 104 132 170 215 259 300
#
# _framework density 18.710348
#
# number of rings (size 3 to 8) (size 9 to 14) (size 15 to 20)
#    0.000    2.600    0.000    1.200    0.000   10.800 
#    0.000    8.000    0.000    0.600    0.000    4.200 
#    0.000    0.000    0.000    0.000    0.000    0.000 
#
# Total GULP energy -222961.395818 kJ/mol
# GULP energy per Si atom -5574.034895 kJ/mol
# Density = 1.866776 g / cm^3
# Si number density = 18.710348 Si / 1000 Ang^3
#
#
#
# Elastic Constant Matrix: (Units=GPa)
#
#
# Indices 1 2 3 4 5 6 
#
# 1 140.2377 27.9612 59.1508 0.0000 0.0000 0.0000
# 2 27.9612 18.2155 18.0435 0.0000 0.0000 0.0000
# 3 59.1508 18.0435 89.1700 0.0000 0.0000 0.0000
# 4 0.0000 0.0000 0.0000 12.2421 0.0000 0.0000
# 5 0.0000 0.0000 0.0000 0.0000 8.9853 0.0000
# 6 0.0000 0.0000 0.0000 0.0000 0.0000 11.4001
#
#
#
# Elastic Compliance Matrix: (Units=1/GPa)
#
#
# Indices 1 2 3 4 5 6 
#
# 1 0.011985 -0.013159 -0.005287 0.000000 0.000000 0.000000
# 2 -0.013159 0.083110 -0.008088 0.000000 0.000000 0.000000
# 3 -0.005287 -0.008088 0.016358 0.000000 0.000000 0.000000
# 4 0.000000 0.000000 0.000000 0.081685 0.000000 0.000000
# 5 0.000000 0.000000 0.000000 0.000000 0.111293 0.000000
# 6 0.000000 0.000000 0.000000 0.000000 0.000000 0.087719
#
#
# Mechanical properties :
#
#
# Convention : Reuss Voigt Hill
#
# Bulk Modulus (GPa) = 17.12801 50.88156 34.00478
# Shear Modulus (GPa) = 10.76009 16.02334 13.39171
#
# Velocity S-wave (km/s) = 2.40070 2.92959 2.67823
# Velocity P-wave (km/s) = 4.10593 6.22067 5.27045
#
# Compressibility (1/GPa) = 0.05838390
#
# Stress axis : x y z
#
# Youngs Moduli (GPa) = 83.44035 12.03223 61.13077
#
# Poissons Ratio (x) = 0.15834 0.32321
# Poissons Ratio (y) = 1.09803 0.49442
# Poissons Ratio (z) = 0.44116 0.09732
#
# Static dielectric constant tensor:
#      x y z
#    x 1.684620 0.000000 0.000000 
#    y 0.000000 1.646080 0.000000 
#    z 0.000000 0.000000 1.630740 
# 
# From -- ./inp_files/32109.got.cif
#   From: 2010.05.17/outbox.cif.g08.bks.cpg/sg65_17_cif.got.tgz:32109.got - 2010.06.03 17:01:31.
