data_PCOD9491099
_publ_section_title
;
Structure prediction by ZEFSAII (Michael W. Deem and Ramdas Pophale) SiO2 
 PCOD9491099
Probable space group: C M M M
;
_chemical_formula_sum "Si O2"
_cell_formula_units_Z 68
_cell_length_a 22.451246
_cell_length_b 17.441564
_cell_length_c 8.943935
_cell_angle_alpha 90.000000
_cell_angle_beta 90.000000
_cell_angle_gamma 90.000000
_cell_volume 3502.309392
_symmetry_space_group_name_H-M "C M M M"
_symmetry_group_IT_number 65
_symmetry_cell_setting 'orthorhombic'
loop_
_space_group_symop_operation_xyz
x,y,z
-x,-y,z
x,-y,-z
-x,y,-z
-x,-y,-z
x,y,-z
-x,y,z
x,-y,z
1/2+x,1/2+y,z
1/2-x,1/2-y,z
1/2+x,1/2-y,-z
1/2-x,1/2+y,-z
1/2-x,1/2-y,-z
1/2+x,1/2+y,-z
1/2-x,1/2+y,z
1/2+x,1/2-y,z
loop_
_atom_site_type_symbol
_atom_site_label
_atom_site_fract_x
_atom_site_fract_y
_atom_site_fract_z
Si Si1 0.380093 0.244247 0.179304
Si Si2 0.000000 0.000000 0.248421
Si Si3 0.292824 0.356942 0.679872
Si Si4 0.500000 0.676630 0.827763
Si Si5 0.669540 0.087639 0.820956
Si Si6 0.366273 0.500000 0.330104
O O1 0.321092 0.280413 0.252327
O O2 0.439160 0.287838 0.237695
O O3 0.379518 0.153193 0.208852
O O4 0.375881 0.255769 0.000000
O O5 0.000000 0.084074 0.172300
O O6 0.936977 0.000000 0.330608
O O7 0.292215 0.350160 0.500000
O O8 0.229296 0.384849 0.738416
O O9 0.338757 0.423188 0.735860
O O10 0.500000 0.702097 0.000000
O O11 0.654875 0.000000 0.778927
O O12 0.680596 0.088778 0.000000
O O13 0.344378 0.500000 0.500000
#
# Coordination Sequence:
#
# PCOD9491099 Si02
#       6
#    16   4  16   8  16   8
#     4  10  21  38  56  79 111 143 181 226 272 321
#     4  12  18  36  56  76 108 150 178 218 258 326
#     4  11  21  36  56  83 114 144 180 222 269 321
#     4  10  21  35  54  80 108 140 179 224 268 320
#     4  10  21  37  57  80 107 144 183 224 274 326
#     4  10  21  33  51  80 113 146 177 216 264 316
#
# _framework density 19.415759000000001
#
# number of rings (size 3 to 8) (size 9 to 14) (size 15 to 20)
#    0.000    1.647    3.529    1.765    0.000    3.765 
#    0.000    1.176    0.000    3.529    0.000    0.000 
#    0.000    3.765    0.000    0.000    0.000    0.000 
#
# Total GULP energy -189486.475599 kJ/mol
# GULP energy per Si atom -5573.131635 kJ/mol
# Density = 1.937157 g / cm^3
# Si number density = 19.415759 Si / 1000 Ang^3
#
#
#
# Elastic Constant Matrix: (Units=GPa)
#
#
# Indices 1 2 3 4 5 6 
#
# 1 72.6299 43.9068 12.7712 0.0000 0.0000 0.0000
# 2 43.9068 159.8416 28.5777 0.0000 0.0000 0.0000
# 3 12.7712 28.5777 23.0155 0.0000 0.0000 0.0000
# 4 0.0000 0.0000 0.0000 11.7133 0.0000 0.0000
# 5 0.0000 0.0000 0.0000 0.0000 10.2549 0.0000
# 6 0.0000 0.0000 0.0000 0.0000 0.0000 31.5037
#
#
#
# Elastic Compliance Matrix: (Units=1/GPa)
#
#
# Indices 1 2 3 4 5 6 
#
# 1 0.016887 -0.003809 -0.004641 0.000000 0.000000 0.000000
# 2 -0.003809 0.008900 -0.008938 0.000000 0.000000 0.000000
# 3 -0.004641 -0.008938 0.057122 0.000000 0.000000 0.000000
# 4 0.000000 0.000000 0.000000 0.085373 0.000000 0.000000
# 5 0.000000 0.000000 0.000000 0.000000 0.097514 0.000000
# 6 0.000000 0.000000 0.000000 0.000000 0.000000 0.031742
#
#
# Mechanical properties :
#
#
# Convention : Reuss Voigt Hill
#
# Bulk Modulus (GPa) = 20.77535 47.33314 34.05425
# Shear Modulus (GPa) = 14.35296 22.04313 18.19805
#
# Velocity S-wave (km/s) = 2.72185 3.37311 3.06483
# Velocity P-wave (km/s) = 4.53888 6.29302 5.48651
#
# Compressibility (1/GPa) = 0.04813396
#
# Stress axis : x y z
#
# Youngs Moduli (GPa) = 59.21659 112.35384 17.50628
#
# Poissons Ratio (x) = 0.42795 0.08125
# Poissons Ratio (y) = 0.22555 0.15647
# Poissons Ratio (z) = 0.27483 1.00421
#
# Static dielectric constant tensor:
#      x y z
#    x 1.681510 0.000000 0.000000 
#    y 0.000000 1.752150 0.000000 
#    z 0.000000 0.000000 1.669720 
# 
# From -- ./inp_files/8987.got.cif
#   From: 2010.05.17/outbox.cif.g08.bks.cpg/sg65_5_cif.got.tgz:8987.got - 2010.06.03 17:01:31.
