data_PCOD9491130
_publ_section_title
;
Structure prediction by ZEFSAII (Michael W. Deem and Ramdas Pophale) SiO2 
 PCOD9491130
Probable space group: C M M M
;
_chemical_formula_sum "Si O2"
_cell_formula_units_Z 88
_cell_length_a 19.546143
_cell_length_b 27.951535
_cell_length_c 9.135014
_cell_angle_alpha 90.000000
_cell_angle_beta 90.000000
_cell_angle_gamma 90.000000
_cell_volume 4990.866485
_symmetry_space_group_name_H-M "C M M M"
_symmetry_group_IT_number 65
_symmetry_cell_setting 'orthorhombic'
loop_
_space_group_symop_operation_xyz
x,y,z
-x,-y,z
x,-y,-z
-x,y,-z
-x,-y,-z
x,y,-z
-x,y,z
x,-y,z
1/2+x,1/2+y,z
1/2-x,1/2-y,z
1/2+x,1/2-y,-z
1/2-x,1/2+y,-z
1/2-x,1/2-y,-z
1/2+x,1/2+y,-z
1/2-x,1/2+y,z
1/2+x,1/2-y,z
loop_
_atom_site_type_symbol
_atom_site_label
_atom_site_fract_x
_atom_site_fract_y
_atom_site_fract_z
Si Si1 0.683687 0.308183 0.831425
Si Si2 0.500000 0.442785 0.334143
Si Si3 0.421238 0.763209 0.675837
Si Si4 0.275730 0.947577 0.323763
Si Si5 0.681341 0.157255 0.675295
Si Si6 0.638190 0.581713 0.168263
O O1 0.630223 0.274156 0.750024
O O2 0.756889 0.313902 0.752179
O O3 0.653507 0.361803 0.830297
O O4 0.692359 0.293249 0.000000
O O5 0.500000 0.500000 0.340752
O O6 0.500000 0.423662 0.500000
O O7 0.432441 0.427351 0.249323
O O8 0.419297 0.756311 0.500000
O O9 0.500000 0.758385 0.723832
O O10 0.389174 0.815510 0.706894
O O11 0.269312 0.946441 0.500000
O O12 0.315062 0.898712 0.280561
O O13 0.200935 0.942810 0.252577
O O14 0.304889 0.000000 0.283885
O O15 0.692680 0.159412 0.500000
O O16 0.635358 0.565417 0.000000
#
# Coordination Sequence:
#
# PCOD9491130 Si02
#       6
#    16   8  16  16  16  16
#     4  10  21  35  52  75 102 131 167 210 253 298
#     4  11  23  35  47  65  93 131 171 209 248 293
#     4  10  21  35  52  75 102 135 172 207 249 301
#     4   9  17  31  52  75  97 125 164 206 248 296
#     4   9  18  34  54  75 102 134 168 207 249 298
#     4  10  21  34  48  69  98 129 163 206 253 298
#
# _framework density 17.632209
#
# number of rings (size 3 to 8) (size 9 to 14) (size 15 to 20)
#    0.000    2.273    0.000    2.455    1.273    8.727 
#    0.000    0.000    0.000    0.545    0.000    3.818 
#    0.000    0.000    0.000   10.727    0.000   11.273 
#
# Total GULP energy -245440.071165 kJ/mol
# GULP energy per Si atom -5578.183436 kJ/mol
# Density = 1.759208 g / cm^3
# Si number density = 17.632209 Si / 1000 Ang^3
#
#
#
# Elastic Constant Matrix: (Units=GPa)
#
#
# Indices 1 2 3 4 5 6 
#
# 1 65.4464 42.8131 20.1266 0.0000 0.0000 0.0000
# 2 42.8131 100.8669 24.2100 0.0000 0.0000 0.0000
# 3 20.1266 24.2100 29.8991 0.0000 0.0000 0.0000
# 4 0.0000 0.0000 0.0000 15.8847 0.0000 0.0000
# 5 0.0000 0.0000 0.0000 0.0000 -41.2653 0.0000
# 6 0.0000 0.0000 0.0000 0.0000 0.0000 8.8770
#
#
#
# Elastic Compliance Matrix: (Units=1/GPa)
#
#
# Indices 1 2 3 4 5 6 
#
# 1 0.023124 -0.007545 -0.009456 0.000000 0.000000 0.000000
# 2 -0.007545 0.014768 -0.006879 0.000000 0.000000 0.000000
# 3 -0.009456 -0.006879 0.045381 0.000000 0.000000 0.000000
# 4 0.000000 0.000000 0.000000 0.062954 0.000000 0.000000
# 5 0.000000 0.000000 0.000000 0.000000 -0.024233 0.000000
# 6 0.000000 0.000000 0.000000 0.000000 0.000000 0.112650
#
#
# Mechanical properties :
#
#
# Convention : Reuss Voigt Hill
#
# Bulk Modulus (GPa) = 28.15926 41.16797 34.66361
# Shear Modulus (GPa) = 16.99293 3.97014 10.48153
#
# Velocity S-wave (km/s) = 3.10779 1.50217 2.44079
# Velocity P-wave (km/s) = 5.37428 5.13883 5.25787
#
# Compressibility (1/GPa) = 0.03551230
#
# Stress axis : x y z
#
# Youngs Moduli (GPa) = 43.24601 67.71566 22.03565
#
# Poissons Ratio (x) = 0.51093 0.20837
# Poissons Ratio (y) = 0.32630 0.15158
# Poissons Ratio (z) = 0.40894 0.46580
#
# Static dielectric constant tensor:
#      x y z
#    x 1.578170 0.000000 0.000000 
#    y 0.000000 1.639890 0.000000 
#    z 0.000000 0.000000 1.596910 
# 
# From -- ./inp_files/10005.got.cif
#   From: 2010.05.17/outbox.cif.g08.bks.cpg/sg65_6_cif.got.tgz:10005.got - 2010.06.03 17:01:31.
