data_PCOD9491311
_publ_section_title
;
Structure prediction by ZEFSAII (Michael W. Deem and Ramdas Pophale) SiO2 
 PCOD9491311
Probable space group: C M M M
;
_chemical_formula_sum "Si O2"
_cell_formula_units_Z 82
_cell_length_a 7.869069
_cell_length_b 19.631450
_cell_length_c 26.808711
_cell_angle_alpha 90.000000
_cell_angle_beta 90.000000
_cell_angle_gamma 90.000000
_cell_volume 4141.442774
_symmetry_space_group_name_H-M "C M M M"
_symmetry_group_IT_number 65
_symmetry_cell_setting 'orthorhombic'
loop_
_space_group_symop_operation_xyz
x,y,z
-x,-y,z
x,-y,-z
-x,y,-z
-x,-y,-z
x,y,-z
-x,y,z
x,-y,z
1/2+x,1/2+y,z
1/2-x,1/2-y,z
1/2+x,1/2-y,-z
1/2-x,1/2+y,-z
1/2-x,1/2-y,-z
1/2+x,1/2+y,-z
1/2-x,1/2+y,z
1/2+x,1/2-y,z
loop_
_atom_site_type_symbol
_atom_site_label
_atom_site_fract_x
_atom_site_fract_y
_atom_site_fract_z
Si Si1 0.191501 0.610888 0.000000
Si Si2 0.296308 0.422269 0.807781
Si Si3 0.297557 0.922016 0.700215
Si Si4 0.705338 0.329569 0.500000
Si Si5 0.203142 0.078489 0.591602
Si Si6 0.704121 0.326427 0.897371
Si Si7 0.000000 0.000000 0.000000
O O1 0.213370 0.655186 0.950079
O O2 0.348118 0.558362 0.000000
O O3 0.000000 0.581647 0.000000
O O4 0.500000 0.425919 0.811617
O O5 0.228891 0.500000 0.810043
O O6 0.255813 0.391822 0.753296
O O7 0.235875 0.378003 0.854221
O O8 0.500000 0.924258 0.699383
O O9 0.239108 0.893773 0.647139
O O10 0.228793 0.000000 0.700966
O O11 0.500000 0.332856 0.500000
O O12 0.750000 0.250000 0.500000
O O13 0.767235 0.371229 0.451367
O O14 0.000000 0.074023 0.586007
O O15 0.269437 0.000000 0.587597
O O16 0.500000 0.333000 0.902142
O O17 0.750000 0.250000 0.882940
#
# Coordination Sequence:
#
# PCOD9491311 Si02
#       7
#     8  16  16   8  16  16   2
#     4  12  26  44  70  97 129 168 204 252 314 365
#     4   9  19  35  59  84 114 153 192 242 298 344
#     4   9  17  30  50  80 113 140 175 229 285 339
#     4  10  21  35  51  75 105 138 174 220 272 328
#     4   9  17  32  55  77 101 135 181 223 267 328
#     4  11  23  41  64  89 125 164 208 254 299 364
#     4  12  26  48  68 102 136 152 208 264 304 368
#
# _framework density 19.799862000000001
#
# number of rings (size 3 to 8) (size 9 to 14) (size 15 to 20)
#    0.000    2.146    0.976    1.902    1.366    5.854 
#    0.000    0.976    0.000    2.927    0.000    0.000 
#    0.000    0.000    0.000    0.000    0.000    0.000 
#
# Total GULP energy -228433.396438 kJ/mol
# GULP energy per Si atom -5571.546255 kJ/mol
# Density = 1.975480 g / cm^3
# Si number density = 19.799862 Si / 1000 Ang^3
#
#
#
# Elastic Constant Matrix: (Units=GPa)
#
#
# Indices 1 2 3 4 5 6 
#
# 1 64.5120 14.4123 12.9039 0.0000 0.0000 0.0000
# 2 14.4123 93.1272 77.3389 0.0000 0.0000 0.0000
# 3 12.9039 77.3389 206.4809 0.0000 0.0000 0.0000
# 4 0.0000 0.0000 0.0000 -9.6591 0.0000 0.0000
# 5 0.0000 0.0000 0.0000 0.0000 -32.0823 0.0000
# 6 0.0000 0.0000 0.0000 0.0000 0.0000 14.3583
#
#
#
# Elastic Compliance Matrix: (Units=1/GPa)
#
#
# Indices 1 2 3 4 5 6 
#
# 1 0.016058 -0.002397 -0.000106 0.000000 0.000000 0.000000
# 2 -0.002397 0.015944 -0.005822 0.000000 0.000000 0.000000
# 3 -0.000106 -0.005822 0.007030 0.000000 0.000000 0.000000
# 4 0.000000 0.000000 0.000000 -0.103530 0.000000 0.000000
# 5 0.000000 0.000000 0.000000 0.000000 -0.031170 0.000000
# 6 0.000000 0.000000 0.000000 0.000000 0.000000 0.069646
#
#
# Mechanical properties :
#
#
# Convention : Reuss Voigt Hill
#
# Bulk Modulus (GPa) = 44.67886 63.71448 54.19667
# Shear Modulus (GPa) = -2617.53831 11.82105 -1302.85863
#
# Velocity S-wave (km/s) = -36.39874 2.44606 -25.67961
# Velocity P-wave (km/s) = 41.75975 6.34246 29.18604
#
# Compressibility (1/GPa) = 0.02238195
#
# Stress axis : x y z
#
# Youngs Moduli (GPa) = 62.27548 62.71906 142.23957
#
# Poissons Ratio (x) = 0.15036 0.01501
# Poissons Ratio (y) = 0.14930 0.82814
# Poissons Ratio (z) = 0.00657 0.36516
#
# Static dielectric constant tensor:
#      x y z
#    x 1.709740 0.000000 0.000000 
#    y 0.000000 1.675900 0.000000 
#    z 0.000000 0.000000 1.722280 
# 
# From -- ./inp_files/67429.got.cif
#   From: 2010.05.17/outbox.cif.g08.bks.cpg/sg65_34_cif.got.tgz:67429.got - 2010.06.03 17:01:31.
