data_PCOD9491648
_publ_section_title
;
Structure prediction by ZEFSAII (Michael W. Deem and Ramdas Pophale) SiO2 
 PCOD9491648
Probable space group: C M M M
;
_chemical_formula_sum "Si O2"
_cell_formula_units_Z 96
_cell_length_a 9.136780
_cell_length_b 18.999390
_cell_length_c 30.979544
_cell_angle_alpha 90.000000
_cell_angle_beta 90.000000
_cell_angle_gamma 90.000000
_cell_volume 5377.839620
_symmetry_space_group_name_H-M "C M M M"
_symmetry_group_IT_number 65
_symmetry_cell_setting 'orthorhombic'
loop_
_space_group_symop_operation_xyz
x,y,z
-x,-y,z
x,-y,-z
-x,y,-z
-x,-y,-z
x,y,-z
-x,y,z
x,-y,z
1/2+x,1/2+y,z
1/2-x,1/2-y,z
1/2+x,1/2-y,-z
1/2-x,1/2+y,-z
1/2-x,1/2-y,-z
1/2+x,1/2+y,-z
1/2-x,1/2+y,z
1/2+x,1/2-y,z
loop_
_atom_site_type_symbol
_atom_site_label
_atom_site_fract_x
_atom_site_fract_y
_atom_site_fract_z
Si Si1 0.324768 0.673924 0.205768
Si Si2 0.674842 0.418111 0.120750
Si Si3 0.675679 0.916988 0.279719
Si Si4 0.326218 0.824254 0.949160
Si Si5 0.171311 0.415940 0.620864
Si Si6 0.174072 0.174363 0.548837
O O1 0.500000 0.681417 0.209259
O O2 0.250000 0.750000 0.202567
O O3 0.291926 0.627746 0.163180
O O4 0.261141 0.631602 0.246507
O O5 0.500000 0.413593 0.113215
O O6 0.712371 0.500000 0.127304
O O7 0.759020 0.384472 0.080591
O O8 0.500000 0.908859 0.274378
O O9 0.711031 0.898926 0.329524
O O10 0.709118 0.000000 0.272961
O O11 0.500000 0.818359 0.942530
O O12 0.250000 0.750000 0.938075
O O13 0.299392 0.837663 0.000000
O O14 0.184902 0.500000 0.616337
O O15 0.266029 0.376653 0.585495
O O16 0.000000 0.397787 0.614923
O O17 0.207652 0.148741 0.500000
O O18 0.250000 0.250000 0.553797
O O19 0.000000 0.182239 0.552373
#
# Coordination Sequence:
#
# PCOD9491648 Si02
#       6
#    16  16  16  16  16  16
#     4  11  23  38  57  82 111 143 182 225 269 320
#     4  10  22  39  58  82 112 145 182 225 273 324
#     4   9  19  37  59  82 109 141 178 220 267 320
#     4  10  21  37  58  84 113 146 185 227 271 321
#     4   9  19  36  57  81 109 141 177 218 266 321
#     4  10  21  36  54  77 106 141 181 224 269 318
#
# _framework density 17.851033999999999
#
# number of rings (size 3 to 8) (size 9 to 14) (size 15 to 20)
#    0.000    2.167    0.000    3.500    0.000    8.333 
#    0.000    5.000    0.000    0.000    0.000    0.000 
#    0.000    0.000    0.000    0.000    0.000    0.000 
#
# Total GULP energy -268048.579449 kJ/mol
# GULP energy per Si atom -5584.345405 kJ/mol
# Density = 1.781040 g / cm^3
# Si number density = 17.851034 Si / 1000 Ang^3
#
#
#
# Elastic Constant Matrix: (Units=GPa)
#
#
# Indices 1 2 3 4 5 6 
#
# 1 69.1145 70.5362 78.3896 0.0000 0.0000 0.0000
# 2 70.5362 122.1383 93.6020 0.0000 0.0000 0.0000
# 3 78.3896 93.6020 122.2988 0.0000 0.0000 0.0000
# 4 0.0000 0.0000 0.0000 39.0227 0.0000 0.0000
# 5 0.0000 0.0000 0.0000 0.0000 35.4224 0.0000
# 6 0.0000 0.0000 0.0000 0.0000 0.0000 32.7487
#
#
#
# Elastic Compliance Matrix: (Units=1/GPa)
#
#
# Indices 1 2 3 4 5 6 
#
# 1 0.059990 -0.012521 -0.028869 0.000000 0.000000 0.000000
# 2 -0.012521 0.022416 -0.009130 0.000000 0.000000 0.000000
# 3 -0.028869 -0.009130 0.033668 0.000000 0.000000 0.000000
# 4 0.000000 0.000000 0.000000 0.025626 0.000000 0.000000
# 5 0.000000 0.000000 0.000000 0.000000 0.028231 0.000000
# 6 0.000000 0.000000 0.000000 0.000000 0.000000 0.030536
#
#
# Mechanical properties :
#
#
# Convention : Reuss Voigt Hill
#
# Bulk Modulus (GPa) = 66.51514 88.73413 77.62464
# Shear Modulus (GPa) = 16.31222 26.17367 21.24294
#
# Velocity S-wave (km/s) = 3.02619 3.83329 3.45340
# Velocity P-wave (km/s) = 7.03936 8.33116 7.71235
#
# Compressibility (1/GPa) = 0.01503417
#
# Stress axis : x y z
#
# Youngs Moduli (GPa) = 16.66931 44.61165 29.70145
#
# Poissons Ratio (x) = 0.55860 0.85744
# Poissons Ratio (y) = 0.20872 0.27118
# Poissons Ratio (z) = 0.48122 0.40731
#
# Static dielectric constant tensor:
#      x y z
#    x 1.593050 0.000000 0.000000 
#    y 0.000000 1.580090 0.000000 
#    z 0.000000 0.000000 1.596440 
# 
# From -- ./inp_files/73096.got.cif
#   From: 2010.05.17/outbox.cif.g08.bks.cpg/sg65_37_cif.got.tgz:73096.got - 2010.06.03 17:01:31.
