data_PCOD9491051
_publ_section_title
;
Structure prediction by ZEFSAII (Michael W. Deem and Ramdas Pophale) SiO2 
 PCOD9491051
Probable space group: C M M M
;
_chemical_formula_sum "Si O2"
_cell_formula_units_Z 88
_cell_length_a 12.131013
_cell_length_b 15.806091
_cell_length_c 22.874585
_cell_angle_alpha 90.000000
_cell_angle_beta 90.000000
_cell_angle_gamma 90.000000
_cell_volume 4386.062034
_symmetry_space_group_name_H-M "C M M M"
_symmetry_group_IT_number 65
_symmetry_cell_setting 'orthorhombic'
loop_
_space_group_symop_operation_xyz
x,y,z
-x,-y,z
x,-y,-z
-x,y,-z
-x,-y,-z
x,y,-z
-x,y,z
x,-y,z
1/2+x,1/2+y,z
1/2-x,1/2-y,z
1/2+x,1/2-y,-z
1/2-x,1/2+y,-z
1/2-x,1/2-y,-z
1/2+x,1/2+y,-z
1/2-x,1/2+y,z
1/2+x,1/2-y,z
loop_
_atom_site_type_symbol
_atom_site_label
_atom_site_fract_x
_atom_site_fract_y
_atom_site_fract_z
Si Si1 0.500000 0.905983 0.224510
Si Si2 0.500000 0.094903 0.362653
Si Si3 0.160207 0.000000 0.434379
Si Si4 0.755464 0.655211 0.232532
Si Si5 0.133685 0.195332 0.000000
Si Si6 0.312942 0.836790 0.435777
Si Si7 0.370369 0.597377 0.878276
Si Si8 0.128321 0.000000 0.703521
O O1 0.500000 0.913694 0.294420
O O2 0.617862 0.863196 0.214320
O O3 0.500000 0.000000 0.197897
O O4 0.603581 0.146058 0.384588
O O5 0.500000 0.000000 0.389263
O O6 0.230996 0.915077 0.435594
O O7 0.117047 0.000000 0.367250
O O8 0.107018 0.000000 0.500000
O O9 0.750000 0.750000 0.258246
O O10 0.688045 0.650102 0.172267
O O11 0.698911 0.581804 0.273262
O O12 0.250000 0.250000 0.000000
O O13 0.142159 0.138905 0.058329
O O14 0.000000 0.227915 0.000000
O O15 0.368093 0.835371 0.500000
O O16 0.250000 0.750000 0.428629
O O17 0.500000 0.595525 0.865283
O O18 0.329553 0.500000 0.877040
O O19 0.000000 0.000000 0.725965
#
# Coordination Sequence:
#
# PCOD9491051 Si02
#       8
#     8   8   8  16   8  16  16   8
#     4  11  24  43  62  91 133 171 213 278 342 401
#     4  11  21  36  65  89 113 160 213 256 315 391
#     4  10  22  42  66  91 126 167 210 272 344 407
#     4  12  26  44  69 100 136 178 231 282 345 407
#     4  10  21  39  65 105 143 188 238 291 343 403
#     4  10  21  38  61  90 122 154 199 257 320 396
#     4  10  20  40  70 100 138 183 237 288 334 399
#     4  12  26  46  69  95 132 174 226 282 336 421
#
# _framework density 20.063555999999998
#
# number of rings (size 3 to 8) (size 9 to 14) (size 15 to 20)
#    0.000    1.273    2.727    2.727    2.545    4.545 
#    3.273    0.000    0.000    0.545    0.000    0.000 
#    0.000    0.000    0.000    0.000    0.000    0.000 
#
# Total GULP energy -245189.706763 kJ/mol
# GULP energy per Si atom -5572.493336 kJ/mol
# Density = 2.001789 g / cm^3
# Si number density = 20.063556 Si / 1000 Ang^3
#
#
#
# Elastic Constant Matrix: (Units=GPa)
#
#
# Indices 1 2 3 4 5 6 
#
# 1 110.3875 52.1672 21.6690 0.0000 0.0000 0.0000
# 2 52.1672 140.7211 17.8519 0.0000 0.0000 0.0000
# 3 21.6690 17.8519 109.4943 0.0000 0.0000 0.0000
# 4 0.0000 0.0000 0.0000 14.3741 0.0000 0.0000
# 5 0.0000 0.0000 0.0000 0.0000 33.3186 0.0000
# 6 0.0000 0.0000 0.0000 0.0000 0.0000 15.5317
#
#
#
# Elastic Compliance Matrix: (Units=1/GPa)
#
#
# Indices 1 2 3 4 5 6 
#
# 1 0.011244 -0.003968 -0.001578 0.000000 0.000000 0.000000
# 2 -0.003968 0.008657 -0.000626 0.000000 0.000000 0.000000
# 3 -0.001578 -0.000626 0.009547 0.000000 0.000000 0.000000
# 4 0.000000 0.000000 0.000000 0.069570 0.000000 0.000000
# 5 0.000000 0.000000 0.000000 0.000000 0.030013 0.000000
# 6 0.000000 0.000000 0.000000 0.000000 0.000000 0.064384
#
#
# Mechanical properties :
#
#
# Convention : Reuss Voigt Hill
#
# Bulk Modulus (GPa) = 58.46865 60.44212 59.45538
# Shear Modulus (GPa) = 23.64497 30.57253 27.10875
#
# Velocity S-wave (km/s) = 3.43666 3.90780 3.67978
# Velocity P-wave (km/s) = 6.70466 7.10999 6.91030
#
# Compressibility (1/GPa) = 0.01710318
#
# Stress axis : x y z
#
# Youngs Moduli (GPa) = 88.93577 115.51732 104.74159
#
# Poissons Ratio (x) = 0.45839 0.16531
# Poissons Ratio (y) = 0.35291 0.06558
# Poissons Ratio (z) = 0.14036 0.07232
#
# Static dielectric constant tensor:
#      x y z
#    x 1.735910 0.000000 0.000000 
#    y 0.000000 1.723020 0.000000 
#    z 0.000000 0.000000 1.706150 
# 
# From -- ./inp_files/68971.got.cif
#   From: 2010.05.17/outbox.cif.g08.bks.cpg/sg65_35_cif.got.tgz:68971.got - 2010.06.03 17:01:31.
