data_PCOD9491078
_publ_section_title
;
Structure prediction by ZEFSAII (Michael W. Deem and Ramdas Pophale) SiO2 
 PCOD9491078
Probable space group: C M M M
;
_chemical_formula_sum "Si O2"
_cell_formula_units_Z 104
_cell_length_a 28.047206
_cell_length_b 8.531491
_cell_length_c 24.789558
_cell_angle_alpha 90.000000
_cell_angle_beta 90.000000
_cell_angle_gamma 90.000000
_cell_volume 5931.756633
_symmetry_space_group_name_H-M "C M M M"
_symmetry_group_IT_number 65
_symmetry_cell_setting 'orthorhombic'
loop_
_space_group_symop_operation_xyz
x,y,z
-x,-y,z
x,-y,-z
-x,y,-z
-x,-y,-z
x,y,-z
-x,y,z
x,-y,z
1/2+x,1/2+y,z
1/2-x,1/2-y,z
1/2+x,1/2-y,-z
1/2-x,1/2+y,-z
1/2-x,1/2-y,-z
1/2+x,1/2+y,-z
1/2-x,1/2+y,z
1/2+x,1/2-y,z
loop_
_atom_site_type_symbol
_atom_site_label
_atom_site_fract_x
_atom_site_fract_y
_atom_site_fract_z
Si Si1 0.945716 0.812933 0.274159
Si Si2 0.444921 0.308762 0.939120
Si Si3 0.144770 0.684918 0.335101
Si Si4 0.104932 0.189095 0.561520
Si Si5 0.391430 0.687271 0.166036
Si Si6 0.198105 0.687268 0.769734
Si Si7 0.000000 0.821940 0.565380
O O1 0.906370 0.722961 0.308286
O O2 0.931939 0.786889 0.211595
O O3 0.000000 0.768115 0.285621
O O4 0.940641 0.000000 0.284586
O O5 0.500000 0.262570 0.929275
O O6 0.444378 0.500000 0.938061
O O7 0.410431 0.254263 0.891455
O O8 0.431753 0.260572 0.000000
O O9 0.150962 0.500000 0.340974
O O10 0.142826 0.760755 0.393958
O O11 0.182149 0.744763 0.290203
O O12 0.114836 0.239769 0.500000
O O13 0.051645 0.249087 0.577995
O O14 0.101599 0.000000 0.561043
O O15 0.384245 0.500000 0.162660
O O16 0.342986 0.760188 0.188941
O O17 0.198856 0.500000 0.768250
O O18 0.250000 0.750000 0.783794
O O19 0.000000 0.833064 0.500000
O O20 0.000000 0.000000 0.587729
#
# Coordination Sequence:
#
# PCOD9491078 Si02
#       7
#    16  16  16  16  16  16   8
#     4   9  17  28  43  64  92 128 165 196 226 270
#     4   8  13  22  41  73 110 143 173 204 234 267
#     4  10  21  33  46  69  97 121 148 190 244 292
#     4   9  17  30  48  68  92 125 162 194 224 268
#     4   9  16  28  48  73  99 128 164 202 240 283
#     4  10  21  37  55  73  93 119 154 200 253 301
#     4   7  12  24  41  61  85 117 157 191 212 239
#
# _framework density 17.532748000000002
#
# number of rings (size 3 to 8) (size 9 to 14) (size 15 to 20)
#    0.000    3.000    0.000    2.769    1.077    4.308 
#    0.000    0.000    0.000    4.154    0.000    1.077 
#    0.000    0.000    0.000    0.000    0.000    0.000 
#
# Total GULP energy -289717.954178 kJ/mol
# GULP energy per Si atom -5571.499119 kJ/mol
# Density = 1.749284 g / cm^3
# Si number density = 17.532748 Si / 1000 Ang^3
#
#
#
# Elastic Constant Matrix: (Units=GPa)
#
#
# Indices 1 2 3 4 5 6 
#
# 1 61.2393 7.6304 32.4382 0.0000 0.0000 0.0000
# 2 7.6304 7.2494 17.5380 0.0000 0.0000 0.0000
# 3 32.4382 17.5380 118.1646 0.0000 0.0000 0.0000
# 4 0.0000 0.0000 0.0000 8.4421 0.0000 0.0000
# 5 0.0000 0.0000 0.0000 0.0000 16.7544 0.0000
# 6 0.0000 0.0000 0.0000 0.0000 0.0000 16.0818
#
#
#
# Elastic Compliance Matrix: (Units=1/GPa)
#
#
# Indices 1 2 3 4 5 6 
#
# 1 0.019752 -0.011971 -0.003646 0.000000 0.000000 0.000000
# 2 -0.011971 0.222474 -0.029733 0.000000 0.000000 0.000000
# 3 -0.003646 -0.029733 0.013877 0.000000 0.000000 0.000000
# 4 0.000000 0.000000 0.000000 0.118454 0.000000 0.000000
# 5 0.000000 0.000000 0.000000 0.000000 0.059686 0.000000
# 6 0.000000 0.000000 0.000000 0.000000 0.000000 0.062182
#
#
# Mechanical properties :
#
#
# Convention : Reuss Voigt Hill
#
# Bulk Modulus (GPa) = 6.04584 33.54073 19.79329
# Shear Modulus (GPa) = 7.78503 16.85877 12.32190
#
# Velocity S-wave (km/s) = 2.10948 3.10427 2.65390
# Velocity P-wave (km/s) = 3.06415 5.65866 4.55025
#
# Compressibility (1/GPa) = 0.16540289
#
# Stress axis : x y z
#
# Youngs Moduli (GPa) = 50.62791 4.49491 72.06378
#
# Poissons Ratio (x) = 0.05381 0.26271
# Poissons Ratio (y) = 0.60605 2.14271
# Poissons Ratio (z) = 0.18457 0.13365
#
# Static dielectric constant tensor:
#      x y z
#    x 1.586110 0.000000 0.000000 
#    y 0.000000 1.610410 0.000000 
#    z 0.000000 0.000000 1.631290 
# 
# From -- ./inp_files/76035.got.cif
#   From: 2010.05.17/outbox.cif.g08.bks.cpg/sg65_39_cif.got.tgz:76035.got - 2010.06.03 17:01:31.
