data_PCOD9491346
_publ_section_title
;
Structure prediction by ZEFSAII (Michael W. Deem and Ramdas Pophale) SiO2 
 PCOD9491346
Probable space group: C M M M
;
_chemical_formula_sum "Si O2"
_cell_formula_units_Z 72
_cell_length_a 20.155367
_cell_length_b 20.650737
_cell_length_c 7.521194
_cell_angle_alpha 90.000000
_cell_angle_beta 90.000000
_cell_angle_gamma 90.000000
_cell_volume 3130.495307
_symmetry_space_group_name_H-M "C M M M"
_symmetry_group_IT_number 65
_symmetry_cell_setting 'orthorhombic'
loop_
_space_group_symop_operation_xyz
x,y,z
-x,-y,z
x,-y,-z
-x,y,-z
-x,-y,-z
x,y,-z
-x,y,z
x,-y,z
1/2+x,1/2+y,z
1/2-x,1/2-y,z
1/2+x,1/2-y,-z
1/2-x,1/2+y,-z
1/2-x,1/2-y,-z
1/2+x,1/2+y,-z
1/2-x,1/2+y,z
1/2+x,1/2-y,z
loop_
_atom_site_type_symbol
_atom_site_label
_atom_site_fract_x
_atom_site_fract_y
_atom_site_fract_z
Si Si1 0.078196 0.570296 0.214031
Si Si2 0.144613 0.926690 0.219217
Si Si3 0.000000 0.921544 0.799450
Si Si4 0.800962 0.200778 0.204441
Si Si5 0.576373 0.784899 0.291996
O O1 0.106019 0.500000 0.274016
O O2 0.102275 0.640846 0.273578
O O3 0.000000 0.569824 0.263789
O O4 0.082201 0.570606 0.000000
O O5 0.193438 0.870930 0.280459
O O6 0.070785 0.906786 0.282805
O O7 0.159438 0.000000 0.272506
O O8 0.141981 0.926596 0.000000
O O9 0.000000 0.000000 0.812759
O O10 0.000000 0.894547 0.000000
O O11 0.750000 0.250000 0.291740
O O12 0.872503 0.235469 0.204904
O O13 0.779250 0.191290 0.000000
O O14 0.574399 0.769436 0.500000
O O15 0.500000 0.781934 0.223698
#
# Coordination Sequence:
#
# PCOD9491346 Si02
#       5
#    16  16   8  16  16
#     4   8  14  27  49  76 104 133 169 218 270 310
#     4   8  14  26  46  72 101 131 168 216 265 313
#     4   7  10  18  36  66  95 117 152 203 256 303
#     4  10  21  35  52  77 108 139 176 220 271 330
#     4  10  21  35  52  76 105 140 181 219 264 328
#
# _framework density 22.999555999999998
#
# number of rings (size 3 to 8) (size 9 to 14) (size 15 to 20)
#    0.000    3.222    0.000    2.667    1.556    2.222 
#    0.000    3.333    0.000    4.667    0.000    1.556 
#    0.000    0.000    0.000    0.000    0.000    0.000 
#
# Total GULP energy -200666.355666 kJ/mol
# GULP energy per Si atom -5574.065435 kJ/mol
# Density = 2.294721 g / cm^3
# Si number density = 22.999556 Si / 1000 Ang^3
#
#
#
# Elastic Constant Matrix: (Units=GPa)
#
#
# Indices 1 2 3 4 5 6 
#
# 1 54.6729 57.7353 -2.2405 0.0000 0.0000 0.0000
# 2 57.7353 167.7289 -4.1361 0.0000 0.0000 0.0000
# 3 -2.2405 -4.1361 62.9603 0.0000 0.0000 0.0000
# 4 0.0000 0.0000 0.0000 -119.9489 0.0000 0.0000
# 5 0.0000 0.0000 0.0000 0.0000 10.8218 0.0000
# 6 0.0000 0.0000 0.0000 0.0000 0.0000 31.3378
#
#
#
# Elastic Compliance Matrix: (Units=1/GPa)
#
#
# Indices 1 2 3 4 5 6 
#
# 1 0.028745 -0.009885 0.000374 0.000000 0.000000 0.000000
# 2 -0.009885 0.009371 0.000264 0.000000 0.000000 0.000000
# 3 0.000374 0.000264 0.015914 0.000000 0.000000 0.000000
# 4 0.000000 0.000000 0.000000 -0.008337 0.000000 0.000000
# 5 0.000000 0.000000 0.000000 0.000000 0.092406 0.000000
# 6 0.000000 0.000000 0.000000 0.000000 0.000000 0.031910
#
#
# Mechanical properties :
#
#
# Convention : Reuss Voigt Hill
#
# Bulk Modulus (GPa) = 28.14213 43.11993 35.63103
# Shear Modulus (GPa) = 24.95632 0.04237 12.49934
#
# Velocity S-wave (km/s) = 3.29763 0.13587 2.33375
# Velocity P-wave (km/s) = 5.17316 4.33745 4.77363
#
# Compressibility (1/GPa) = 0.03553391
#
# Stress axis : x y z
#
# Youngs Moduli (GPa) = 34.78875 106.70984 62.83917
#
# Poissons Ratio (x) = 1.05486 -0.02347
# Poissons Ratio (y) = 0.34390 -0.01658
# Poissons Ratio (z) = -0.01299 -0.02816
#
# Static dielectric constant tensor:
#      x y z
#    x 1.868540 0.000000 0.000000 
#    y 0.000000 1.893990 0.000000 
#    z 0.000000 0.000000 1.849240 
# 
# From -- ./inp_files/11270.got.cif
#   From: 2010.05.17/outbox.cif.g08.bks.cpg/sg65_6_cif.got.tgz:11270.got - 2010.06.03 17:01:31.
