data_PCOD9491470
_publ_section_title
;
Structure prediction by ZEFSAII (Michael W. Deem and Ramdas Pophale) SiO2 
 PCOD9491470
Probable space group: C M M M
;
_chemical_formula_sum "Si O2"
_cell_formula_units_Z 96
_cell_length_a 24.976240
_cell_length_b 24.845914
_cell_length_c 8.044501
_cell_angle_alpha 90.000000
_cell_angle_beta 90.000000
_cell_angle_gamma 90.000000
_cell_volume 4992.075518
_symmetry_space_group_name_H-M "C M M M"
_symmetry_group_IT_number 65
_symmetry_cell_setting 'orthorhombic'
loop_
_space_group_symop_operation_xyz
x,y,z
-x,-y,z
x,-y,-z
-x,y,-z
-x,-y,-z
x,y,-z
-x,y,z
x,-y,z
1/2+x,1/2+y,z
1/2-x,1/2-y,z
1/2+x,1/2-y,-z
1/2-x,1/2+y,-z
1/2-x,1/2-y,-z
1/2+x,1/2+y,-z
1/2-x,1/2+y,z
1/2+x,1/2-y,z
loop_
_atom_site_type_symbol
_atom_site_label
_atom_site_fract_x
_atom_site_fract_y
_atom_site_fract_z
Si Si1 0.939706 0.351920 0.799717
Si Si2 0.268877 0.561069 0.203488
Si Si3 0.438701 0.435959 0.308608
Si Si4 0.143890 0.141138 0.185181
Si Si5 0.939571 0.770544 0.302560
Si Si6 0.355106 0.060446 0.202792
O O1 0.928172 0.290066 0.756108
O O2 0.895435 0.393748 0.737179
O O3 0.000000 0.364196 0.739146
O O4 0.940392 0.355964 0.000000
O O5 0.285650 0.500000 0.255234
O O6 0.305267 0.610591 0.265602
O O7 0.206867 0.568443 0.250828
O O8 0.272041 0.561387 0.000000
O O9 0.425817 0.420286 0.500000
O O10 0.500000 0.420353 0.278239
O O11 0.435242 0.500000 0.297799
O O12 0.398920 0.407228 0.186575
O O13 0.108914 0.189754 0.257640
O O14 0.159775 0.157617 0.000000
O O15 0.943281 0.770649 0.500000
O O16 0.000000 0.785396 0.237966
O O17 0.371294 0.000000 0.253407
O O18 0.355558 0.061365 0.000000
#
# Coordination Sequence:
#
# PCOD9491470 Si02
#       6
#    16  16  16  16  16  16
#     4   9  17  30  51  79 104 123 152 196 237 275
#     4   8  15  28  45  68  99 131 160 191 233 286
#     4   9  18  31  44  60  87 122 156 193 243 300
#     4  11  20  29  46  70  92 119 162 211 246 273
#     4  10  21  36  51  66  91 130 167 197 240 297
#     4   8  14  27  49  76 105 132 153 181 230 288
#
# _framework density 19.230478999999999
#
# number of rings (size 3 to 8) (size 9 to 14) (size 15 to 20)
#    0.000    2.833    0.000    3.500    0.000    4.667 
#    0.000    3.333    0.000    7.500    0.000    7.000 
#    0.000    0.000    0.000    0.000    0.000    0.000 
#
# Total GULP energy -267394.938606 kJ/mol
# GULP energy per Si atom -5570.727888 kJ/mol
# Density = 1.918671 g / cm^3
# Si number density = 19.230479 Si / 1000 Ang^3
#
#
#
# Elastic Constant Matrix: (Units=GPa)
#
#
# Indices 1 2 3 4 5 6 
#
# 1 115.7672 98.0854 12.1249 0.0000 0.0000 0.0000
# 2 98.0854 130.4460 7.6704 0.0000 0.0000 0.0000
# 3 12.1249 7.6704 9.0558 0.0000 0.0000 0.0000
# 4 0.0000 0.0000 0.0000 -42.7878 0.0000 0.0000
# 5 0.0000 0.0000 0.0000 0.0000 -6.0585 0.0000
# 6 0.0000 0.0000 0.0000 0.0000 0.0000 30.4577
#
#
#
# Elastic Compliance Matrix: (Units=1/GPa)
#
#
# Indices 1 2 3 4 5 6 
#
# 1 0.026797 -0.018985 -0.019798 0.000000 0.000000 0.000000
# 2 -0.018985 0.021518 0.007193 0.000000 0.000000 0.000000
# 3 -0.019798 0.007193 0.130843 0.000000 0.000000 0.000000
# 4 0.000000 0.000000 0.000000 -0.023371 0.000000 0.000000
# 5 0.000000 0.000000 0.000000 0.000000 -0.165058 0.000000
# 6 0.000000 0.000000 0.000000 0.000000 0.000000 0.032832
#
#
# Mechanical properties :
#
#
# Convention : Reuss Voigt Hill
#
# Bulk Modulus (GPa) = 8.62237 54.55896 31.59067
# Shear Modulus (GPa) = 39.87189 5.48149 22.67669
#
# Velocity S-wave (km/s) = 4.55837 1.69015 3.43768
# Velocity P-wave (km/s) = 5.67436 5.67816 5.67626
#
# Compressibility (1/GPa) = 0.11597736
#
# Stress axis : x y z
#
# Youngs Moduli (GPa) = 37.31756 46.47180 7.64277
#
# Poissons Ratio (x) = 0.88227 0.15131
# Poissons Ratio (y) = 0.70848 -0.05497
# Poissons Ratio (z) = 0.73882 -0.33427
#
# Static dielectric constant tensor:
#      x y z
#    x 1.688050 0.000000 0.000000 
#    y 0.000000 1.667640 0.000000 
#    z 0.000000 0.000000 1.717290 
# 
# From -- ./inp_files/14607.got.cif
#   From: 2010.05.17/outbox.cif.g08.bks.cpg/sg65_8_cif.got.tgz:14607.got - 2010.06.03 17:01:31.
