data_PCOD9491228
_publ_section_title
;
Structure prediction by ZEFSAII (Michael W. Deem and Ramdas Pophale) SiO2 
 PCOD9491228
Probable space group: C M M M
;
_chemical_formula_sum "Si O2"
_cell_formula_units_Z 88
_cell_length_a 18.795714
_cell_length_b 9.075219
_cell_length_c 29.021275
_cell_angle_alpha 90.000000
_cell_angle_beta 90.000000
_cell_angle_gamma 90.000000
_cell_volume 4950.310391
_symmetry_space_group_name_H-M "C M M M"
_symmetry_group_IT_number 65
_symmetry_cell_setting 'orthorhombic'
loop_
_space_group_symop_operation_xyz
x,y,z
-x,-y,z
x,-y,-z
-x,y,-z
-x,-y,-z
x,y,-z
-x,y,z
x,-y,z
1/2+x,1/2+y,z
1/2-x,1/2-y,z
1/2+x,1/2-y,-z
1/2-x,1/2+y,-z
1/2-x,1/2-y,-z
1/2+x,1/2+y,-z
1/2-x,1/2+y,z
1/2+x,1/2-y,z
loop_
_atom_site_type_symbol
_atom_site_label
_atom_site_fract_x
_atom_site_fract_y
_atom_site_fract_z
Si Si1 0.327123 0.324469 0.367324
Si Si2 0.584643 0.822632 0.285750
Si Si3 0.917413 0.176993 0.089269
Si Si4 0.172854 0.821458 0.000000
Si Si5 0.915956 0.673368 0.554306
Si Si6 0.586422 0.170113 0.182603
O O1 0.321263 0.500000 0.365195
O O2 0.250000 0.250000 0.367038
O O3 0.371857 0.262036 0.324276
O O4 0.368646 0.273358 0.413128
O O5 0.500000 0.794388 0.290674
O O6 0.607810 0.779561 0.233773
O O7 0.594080 0.000000 0.290121
O O8 0.890727 0.239112 0.138064
O O9 0.000000 0.223264 0.082882
O O10 0.916815 0.000000 0.091229
O O11 0.870664 0.223028 0.045692
O O12 0.250000 0.750000 0.000000
O O13 0.178056 0.000000 0.000000
O O14 0.902891 0.697721 0.500000
O O15 0.902051 0.500000 0.564104
O O16 0.000000 0.698533 0.562817
O O17 0.500000 0.174016 0.183285
O O18 0.607762 0.000000 0.177113
#
# Coordination Sequence:
#
# PCOD9491228 Si02
#       6
#    16  16  16   8  16  16
#     4  12  25  38  54  78 110 146 183 223 265 311
#     4   9  18  35  58  81 108 141 174 213 263 316
#     4   9  17  31  52  75  99 129 167 211 254 298
#     4  10  21  35  49  69  99 134 170 206 252 306
#     4   9  19  38  63  87 111 141 176 215 263 318
#     4   8  15  29  51  79 106 131 163 206 256 307
#
# _framework density 17.776662999999999
#
# number of rings (size 3 to 8) (size 9 to 14) (size 15 to 20)
#    0.000    2.545    0.000    4.091    0.000    6.182 
#    0.000    3.636    0.000    4.909    0.000    0.000 
#    0.000    0.000    0.000    0.000    0.000    0.000 
#
# Total GULP energy -245453.479439 kJ/mol
# GULP energy per Si atom -5578.488169 kJ/mol
# Density = 1.773620 g / cm^3
# Si number density = 17.776663 Si / 1000 Ang^3
#
#
#
# Elastic Constant Matrix: (Units=GPa)
#
#
# Indices 1 2 3 4 5 6 
#
# 1 81.3237 59.2426 80.0802 0.0000 0.0000 0.0000
# 2 59.2426 70.6550 77.2519 0.0000 0.0000 0.0000
# 3 80.0802 77.2519 138.2826 0.0000 0.0000 0.0000
# 4 0.0000 0.0000 0.0000 36.1100 0.0000 0.0000
# 5 0.0000 0.0000 0.0000 0.0000 -10.3039 0.0000
# 6 0.0000 0.0000 0.0000 0.0000 0.0000 27.3931
#
#
#
# Elastic Compliance Matrix: (Units=1/GPa)
#
#
# Indices 1 2 3 4 5 6 
#
# 1 0.036634 -0.019325 -0.010419 0.000000 0.000000 0.000000
# 2 -0.019325 0.046561 -0.014820 0.000000 0.000000 0.000000
# 3 -0.010419 -0.014820 0.021544 0.000000 0.000000 0.000000
# 4 0.000000 0.000000 0.000000 0.027693 0.000000 0.000000
# 5 0.000000 0.000000 0.000000 0.000000 -0.097051 0.000000
# 6 0.000000 0.000000 0.000000 0.000000 0.000000 0.036506
#
#
# Mechanical properties :
#
#
# Convention : Reuss Voigt Hill
#
# Bulk Modulus (GPa) = 64.05693 80.37896 72.21795
# Shear Modulus (GPa) = 30.08080 15.55228 22.81654
#
# Velocity S-wave (km/s) = 4.11804 2.96103 3.58650
# Velocity P-wave (km/s) = 7.66313 7.55013 7.60684
#
# Compressibility (1/GPa) = 0.01561111
#
# Stress axis : x y z
#
# Youngs Moduli (GPa) = 27.29691 21.47743 46.41575
#
# Poissons Ratio (x) = 0.41505 0.48361
# Poissons Ratio (y) = 0.52752 0.68787
# Poissons Ratio (z) = 0.28441 0.31829
#
# Static dielectric constant tensor:
#      x y z
#    x 1.585760 0.000000 0.000000 
#    y 0.000000 1.592810 0.000000 
#    z 0.000000 0.000000 1.611010 
# 
# From -- ./inp_files/77841.got.cif
#   From: 2010.05.17/outbox.cif.g08.bks.cpg/sg65_39_cif.got.tgz:77841.got - 2010.06.03 17:01:31.
