data_PCOD9491984
_publ_section_title
;
Structure prediction by ZEFSAII (Michael W. Deem and Ramdas Pophale) SiO2 
 PCOD9491984
Probable space group: C M M M
;
_chemical_formula_sum "Si O2"
_cell_formula_units_Z 96
_cell_length_a 8.176290
_cell_length_b 19.213966
_cell_length_c 31.921488
_cell_angle_alpha 90.000000
_cell_angle_beta 90.000000
_cell_angle_gamma 90.000000
_cell_volume 5014.832505
_symmetry_space_group_name_H-M "C M M M"
_symmetry_group_IT_number 65
_symmetry_cell_setting 'orthorhombic'
loop_
_space_group_symop_operation_xyz
x,y,z
-x,-y,z
x,-y,-z
-x,y,-z
-x,-y,-z
x,y,-z
-x,y,z
x,-y,z
1/2+x,1/2+y,z
1/2-x,1/2-y,z
1/2+x,1/2-y,-z
1/2-x,1/2+y,-z
1/2-x,1/2-y,-z
1/2+x,1/2+y,-z
1/2-x,1/2+y,z
1/2+x,1/2-y,z
loop_
_atom_site_type_symbol
_atom_site_label
_atom_site_fract_x
_atom_site_fract_y
_atom_site_fract_z
Si Si1 0.805252 0.329793 0.295271
Si Si2 0.299673 0.919888 0.374537
Si Si3 0.302547 0.828483 0.452517
Si Si4 0.695208 0.579945 0.783282
Si Si5 0.302363 0.829814 0.046436
Si Si6 0.302396 0.920032 0.124621
O O1 0.750000 0.250000 0.295897
O O2 0.742917 0.373773 0.335214
O O3 0.755706 0.369761 0.253104
O O4 0.000000 0.329880 0.297794
O O5 0.500000 0.919995 0.374284
O O6 0.246713 0.882922 0.417570
O O7 0.247058 0.000000 0.371383
O O8 0.244751 0.843114 0.500000
O O9 0.500000 0.830189 0.453037
O O10 0.250000 0.750000 0.441503
O O11 0.500000 0.577812 0.781772
O O12 0.757257 0.500000 0.777627
O O13 0.747537 0.604368 0.829534
O O14 0.500000 0.832756 0.046678
O O15 0.250000 0.750000 0.051215
O O16 0.242302 0.874836 0.085548
O O17 0.247612 0.853711 0.000000
O O18 0.500000 0.919375 0.124019
O O19 0.247470 0.000000 0.120183
#
# Coordination Sequence:
#
# PCOD9491984 Si02
#       6
#    16  16  16  16  16  16
#     4  11  22  36  55  77 103 135 172 214 259 308
#     4   9  18  32  51  76 103 132 169 212 256 302
#     4   9  17  30  50  75 103 135 169 207 251 299
#     4  10  21  37  56  78 105 135 169 211 258 309
#     4   9  18  32  50  73 101 133 168 207 251 298
#     4   9  18  33  53  76 102 134 171 209 251 300
#
# _framework density 19.143211999999998
#
# number of rings (size 3 to 8) (size 9 to 14) (size 15 to 20)
#    0.000    2.500    0.000    2.000    0.000    3.667 
#    0.000    5.833    0.000    2.500    0.000    7.000 
#    0.000    0.000    0.000    0.000    0.000    0.000 
#
# Total GULP energy -267852.721149 kJ/mol
# GULP energy per Si atom -5580.265024 kJ/mol
# Density = 1.909964 g / cm^3
# Si number density = 19.143212 Si / 1000 Ang^3
#
#
#
# Elastic Constant Matrix: (Units=GPa)
#
#
# Indices 1 2 3 4 5 6 
#
# 1 14.2251 12.7486 17.1473 0.0000 0.0000 0.0000
# 2 12.7486 139.6009 130.1940 0.0000 0.0000 0.0000
# 3 17.1473 130.1940 193.5370 0.0000 0.0000 0.0000
# 4 0.0000 0.0000 0.0000 42.2880 0.0000 0.0000
# 5 0.0000 0.0000 0.0000 0.0000 8.5784 0.0000
# 6 0.0000 0.0000 0.0000 0.0000 0.0000 21.1520
#
#
#
# Elastic Compliance Matrix: (Units=1/GPa)
#
#
# Indices 1 2 3 4 5 6 
#
# 1 0.078879 -0.001840 -0.005751 0.000000 0.000000 0.000000
# 2 -0.001840 0.019267 -0.012798 0.000000 0.000000 0.000000
# 3 -0.005751 -0.012798 0.014286 0.000000 0.000000 0.000000
# 4 0.000000 0.000000 0.000000 0.023647 0.000000 0.000000
# 5 0.000000 0.000000 0.000000 0.000000 0.116572 0.000000
# 6 0.000000 0.000000 0.000000 0.000000 0.000000 0.047277
#
#
# Mechanical properties :
#
#
# Convention : Reuss Voigt Hill
#
# Bulk Modulus (GPa) = 13.95589 74.17141 44.06365
# Shear Modulus (GPa) = 13.71398 26.88854 20.30126
#
# Velocity S-wave (km/s) = 2.67945 3.75186 3.26006
# Velocity P-wave (km/s) = 4.10837 7.58935 6.10233
#
# Compressibility (1/GPa) = 0.07165434
#
# Stress axis : x y z
#
# Youngs Moduli (GPa) = 12.67758 51.90229 69.99936
#
# Poissons Ratio (x) = 0.09550 0.40256
# Poissons Ratio (y) = 0.02333 0.89585
# Poissons Ratio (z) = 0.07291 0.66425
#
# Static dielectric constant tensor:
#      x y z
#    x 1.671960 0.000000 0.000000 
#    y 0.000000 1.604520 0.000000 
#    z 0.000000 0.000000 1.668750 
# 
# From -- ./inp_files/73215.got.cif
#   From: 2010.05.17/outbox.cif.g08.bks.cpg/sg65_37_cif.got.tgz:73215.got - 2010.06.03 17:01:31.
