data_PCOD9491723
_publ_section_title
;
Structure prediction by ZEFSAII (Michael W. Deem and Ramdas Pophale) SiO2 
 PCOD9491723
Probable space group: C M M M
;
_chemical_formula_sum "Si O2"
_cell_formula_units_Z 116
_cell_length_a 26.701828
_cell_length_b 28.300549
_cell_length_c 7.876602
_cell_angle_alpha 90.000000
_cell_angle_beta 90.000000
_cell_angle_gamma 90.000000
_cell_volume 5952.162178
_symmetry_space_group_name_H-M "C M M M"
_symmetry_group_IT_number 65
_symmetry_cell_setting 'orthorhombic'
loop_
_space_group_symop_operation_xyz
x,y,z
-x,-y,z
x,-y,-z
-x,y,-z
-x,-y,-z
x,y,-z
-x,y,z
x,-y,z
1/2+x,1/2+y,z
1/2-x,1/2-y,z
1/2+x,1/2-y,-z
1/2-x,1/2+y,-z
1/2-x,1/2-y,-z
1/2+x,1/2+y,-z
1/2-x,1/2+y,z
1/2+x,1/2-y,z
loop_
_atom_site_type_symbol
_atom_site_label
_atom_site_fract_x
_atom_site_fract_y
_atom_site_fract_z
Si Si1 0.622877 0.000000 0.500000
Si Si2 0.352911 0.927594 0.802802
Si Si3 0.769650 0.699073 0.206319
Si Si4 0.762056 0.901272 0.794954
Si Si5 0.635623 0.447077 0.795843
Si Si6 0.620130 0.827836 0.693290
Si Si7 0.056631 0.762617 0.797609
Si Si8 0.442668 0.366182 0.298318
O O1 0.625102 0.959521 0.346603
O O2 0.293583 0.920615 0.755834
O O3 0.379616 0.876337 0.798325
O O4 0.354996 0.944465 0.000000
O O5 0.750000 0.750000 0.256370
O O6 0.736463 0.653801 0.256361
O O7 0.823697 0.691054 0.284547
O O8 0.774396 0.698181 0.000000
O O9 0.809822 0.930052 0.730324
O O10 0.764564 0.902285 0.000000
O O11 0.623806 0.500000 0.733163
O O12 0.593572 0.408170 0.758242
O O13 0.639347 0.449563 0.000000
O O14 0.609986 0.840745 0.500000
O O15 0.585258 0.784199 0.742676
O O16 0.077813 0.814013 0.747685
O O17 0.000000 0.761406 0.728155
O O18 0.054989 0.762048 0.000000
O O19 0.445799 0.368513 0.500000
O O20 0.500000 0.370211 0.229038
#
# Coordination Sequence:
#
# PCOD9491723 Si02
#       8
#     4  16  16  16  16  16  16  16
#     4  12  22  36  60  94 115 162 211 244 294 356
#     4  10  21  39  59  85 123 163 202 252 297 344
#     4   9  18  32  52  79 111 155 196 232 291 355
#     4   8  17  34  53  76 111 149 191 240 293 345
#     4  10  21  36  55  80 107 146 198 244 294 353
#     4  11  21  36  56  86 125 154 194 242 291 357
#     4  10  21  38  63  90 114 149 193 236 294 361
#     4  10  22  40  57  79 110 141 182 240 305 363
#
# _framework density 19.488714999999999
#
# number of rings (size 3 to 8) (size 9 to 14) (size 15 to 20)
#    0.000    2.207    0.690    3.103    2.897    2.483 
#    1.241    1.379    0.000    0.000    0.000    0.966 
#    0.000    2.207    0.000    0.000    0.000    0.000 
#
# Total GULP energy -322901.705210 kJ/mol
# GULP energy per Si atom -5567.270779 kJ/mol
# Density = 1.944436 g / cm^3
# Si number density = 19.488715 Si / 1000 Ang^3
#
#
#
# Elastic Constant Matrix: (Units=GPa)
#
#
# Indices 1 2 3 4 5 6 
#
# 1 50.7859 57.3442 7.7874 0.0000 0.0000 0.0000
# 2 57.3442 162.7667 33.2338 0.0000 0.0000 0.0000
# 3 7.7874 33.2338 71.6030 0.0000 0.0000 0.0000
# 4 0.0000 0.0000 0.0000 28.6223 0.0000 0.0000
# 5 0.0000 0.0000 0.0000 0.0000 -78.9125 0.0000
# 6 0.0000 0.0000 0.0000 0.0000 0.0000 9.7537
#
#
#
# Elastic Compliance Matrix: (Units=1/GPa)
#
#
# Indices 1 2 3 4 5 6 
#
# 1 0.032953 -0.012017 0.001994 0.000000 0.000000 0.000000
# 2 -0.012017 0.011169 -0.003877 0.000000 0.000000 0.000000
# 3 0.001994 -0.003877 0.015549 0.000000 0.000000 0.000000
# 4 0.000000 0.000000 0.000000 0.034938 0.000000 0.000000
# 5 0.000000 0.000000 0.000000 0.000000 -0.012672 0.000000
# 6 0.000000 0.000000 0.000000 0.000000 0.000000 0.102525
#
#
# Mechanical properties :
#
#
# Convention : Reuss Voigt Hill
#
# Bulk Modulus (GPa) = 31.37712 53.54293 42.46003
# Shear Modulus (GPa) = 22.43302 4.34537 13.38919
#
# Velocity S-wave (km/s) = 3.39643 1.49483 2.62396
# Velocity P-wave (km/s) = 5.61392 5.52384 5.56906
#
# Compressibility (1/GPa) = 0.03187036
#
# Stress axis : x y z
#
# Youngs Moduli (GPa) = 30.34579 89.53321 64.31452
#
# Poissons Ratio (x) = 1.07591 -0.12821
# Poissons Ratio (y) = 0.36466 0.24935
# Poissons Ratio (z) = -0.06050 0.34713
#
# Static dielectric constant tensor:
#      x y z
#    x 1.714710 0.000000 0.000000 
#    y 0.000000 1.720030 0.000000 
#    z 0.000000 0.000000 1.698210 
# 
# From -- ./inp_files/15115.got.cif
#   From: 2010.05.17/outbox.cif.g08.bks.cpg/sg65_8_cif.got.tgz:15115.got - 2010.06.03 17:01:31.
