data_PCOD9491341
_publ_section_title
;
Structure prediction by ZEFSAII (Michael W. Deem and Ramdas Pophale) SiO2 
 PCOD9491341
Probable space group: C M M M
;
_chemical_formula_sum "Si O2"
_cell_formula_units_Z 80
_cell_length_a 30.699927
_cell_length_b 9.747513
_cell_length_c 14.748478
_cell_angle_alpha 90.000000
_cell_angle_beta 90.000000
_cell_angle_gamma 90.000000
_cell_volume 4413.451623
_symmetry_space_group_name_H-M "C M M M"
_symmetry_group_IT_number 65
_symmetry_cell_setting 'orthorhombic'
loop_
_space_group_symop_operation_xyz
x,y,z
-x,-y,z
x,-y,-z
-x,y,-z
-x,-y,-z
x,y,-z
-x,y,z
x,-y,z
1/2+x,1/2+y,z
1/2-x,1/2-y,z
1/2+x,1/2-y,-z
1/2-x,1/2+y,-z
1/2-x,1/2-y,-z
1/2+x,1/2+y,-z
1/2-x,1/2+y,z
1/2+x,1/2-y,z
loop_
_atom_site_type_symbol
_atom_site_label
_atom_site_fract_x
_atom_site_fract_y
_atom_site_fract_z
Si Si1 0.112156 0.162095 0.608535
Si Si2 0.613542 0.833326 0.103075
Si Si3 0.789933 0.842668 0.610662
Si Si4 0.709852 0.842852 0.889230
Si Si5 0.051176 0.335395 0.734737
O O1 0.108951 0.175821 0.500000
O O2 0.161432 0.204204 0.636160
O O3 0.076370 0.253487 0.657175
O O4 0.107294 0.000000 0.629716
O O5 0.661716 0.789373 0.135484
O O6 0.575525 0.796497 0.171886
O O7 0.615626 0.000000 0.100123
O O8 0.606188 0.785754 0.000000
O O9 0.789410 0.842592 0.500000
O O10 0.750000 0.750000 0.641724
O O11 0.784233 0.000000 0.639604
O O12 0.750000 0.750000 0.859877
O O13 0.714988 0.000000 0.858566
O O14 0.709756 0.845120 0.000000
O O15 0.056044 0.500000 0.722484
O O16 0.000000 0.304514 0.737092
#
# Coordination Sequence:
#
# PCOD9491341 Si02
#       5
#    16  16  16  16  16
#     4   9  19  36  55  74 100 136 172 202 241 300
#     4   8  15  30  51  73  99 131 163 197 244 300
#     4   8  14  26  46  72  99 127 161 198 236 284
#     4   8  13  23  42  67  94 125 159 193 231 280
#     4  10  21  35  52  76 101 125 163 217 265 299
#
# _framework density 18.126401999999999
#
# number of rings (size 3 to 8) (size 9 to 14) (size 15 to 20)
#    0.000    3.400    0.000    2.400    0.000    2.400 
#    0.000    8.000    0.000    6.600    0.000    1.400 
#    0.000    0.000    0.000    0.000    0.000    0.000 
#
# Total GULP energy -222914.132780 kJ/mol
# GULP energy per Si atom -5572.853319 kJ/mol
# Density = 1.808515 g / cm^3
# Si number density = 18.126402 Si / 1000 Ang^3
#
#
#
# Elastic Constant Matrix: (Units=GPa)
#
#
# Indices 1 2 3 4 5 6 
#
# 1 206.4641 80.6298 60.3790 0.0000 0.0000 0.0000
# 2 80.6298 44.5438 31.0368 0.0000 0.0000 0.0000
# 3 60.3790 31.0368 57.6770 0.0000 0.0000 0.0000
# 4 0.0000 0.0000 0.0000 10.2868 0.0000 0.0000
# 5 0.0000 0.0000 0.0000 0.0000 36.4442 0.0000
# 6 0.0000 0.0000 0.0000 0.0000 0.0000 32.4324
#
#
#
# Elastic Compliance Matrix: (Units=1/GPa)
#
#
# Indices 1 2 3 4 5 6 
#
# 1 0.016660 -0.028804 -0.001940 0.000000 0.000000 0.000000
# 2 -0.028804 0.085718 -0.015973 0.000000 0.000000 0.000000
# 3 -0.001940 -0.015973 0.027964 0.000000 0.000000 0.000000
# 4 0.000000 0.000000 0.000000 0.097212 0.000000 0.000000
# 5 0.000000 0.000000 0.000000 0.000000 0.027439 0.000000
# 6 0.000000 0.000000 0.000000 0.000000 0.000000 0.030833
#
#
# Mechanical properties :
#
#
# Convention : Reuss Voigt Hill
#
# Bulk Modulus (GPa) = 27.09444 72.53067 49.81256
# Shear Modulus (GPa) = 12.76933 24.94195 18.85564
#
# Velocity S-wave (km/s) = 2.65705 3.71347 3.22876
# Velocity P-wave (km/s) = 4.93894 7.64769 6.43740
#
# Compressibility (1/GPa) = 0.03690794
#
# Stress axis : x y z
#
# Youngs Moduli (GPa) = 60.02533 11.66616 35.76012
#
# Poissons Ratio (x) = 0.33603 0.06938
# Poissons Ratio (y) = 1.72898 0.57118
# Poissons Ratio (z) = 0.11646 0.18634
#
# Static dielectric constant tensor:
#      x y z
#    x 1.616620 0.000000 0.000000 
#    y 0.000000 1.601620 0.000000 
#    z 0.000000 0.000000 1.655990 
# 
# From -- ./inp_files/38258.got.cif
#   From: 2010.05.17/outbox.cif.g08.bks.cpg/sg65_20_cif.got.tgz:38258.got - 2010.06.03 17:01:31.
