data_PCOD9491180
_publ_section_title
;
Structure prediction by ZEFSAII (Michael W. Deem and Ramdas Pophale) SiO2 
 PCOD9491180
Probable space group: C M M M
;
_chemical_formula_sum "Si O2"
_cell_formula_units_Z 100
_cell_length_a 18.571328
_cell_length_b 33.488836
_cell_length_c 7.406111
_cell_angle_alpha 90.000000
_cell_angle_beta 90.000000
_cell_angle_gamma 90.000000
_cell_volume 4606.098594
_symmetry_space_group_name_H-M "C M M M"
_symmetry_group_IT_number 65
_symmetry_cell_setting 'orthorhombic'
loop_
_space_group_symop_operation_xyz
x,y,z
-x,-y,z
x,-y,-z
-x,y,-z
-x,-y,-z
x,y,-z
-x,y,z
x,-y,z
1/2+x,1/2+y,z
1/2-x,1/2-y,z
1/2+x,1/2-y,-z
1/2-x,1/2+y,-z
1/2-x,1/2-y,-z
1/2+x,1/2+y,-z
1/2-x,1/2+y,z
1/2+x,1/2-y,z
loop_
_atom_site_type_symbol
_atom_site_label
_atom_site_fract_x
_atom_site_fract_y
_atom_site_fract_z
Si Si1 0.383920 0.000000 0.000000
Si Si2 0.658662 0.783884 0.215498
Si Si3 0.681464 0.695542 0.779372
Si Si4 0.081003 0.875815 0.786702
Si Si5 0.832637 0.044779 0.283437
Si Si6 0.421556 0.138375 0.286457
Si Si7 0.332273 0.064295 0.719548
O O1 0.378901 0.034408 0.160188
O O2 0.648165 0.738343 0.276337
O O3 0.735402 0.801409 0.280991
O O4 0.597938 0.815750 0.256666
O O5 0.664900 0.781399 0.000000
O O6 0.636536 0.657471 0.714382
O O7 0.682473 0.693880 0.000000
O O8 0.113594 0.920016 0.768042
O O9 0.000000 0.873219 0.712171
O O10 0.075870 0.867884 0.000000
O O11 0.833125 0.043252 0.500000
O O12 0.750903 0.055932 0.230514
O O13 0.849574 0.000000 0.216589
O O14 0.425655 0.132301 0.500000
O O15 0.500000 0.128439 0.209361
O O16 0.358179 0.108668 0.228901
O O17 0.338698 0.058313 0.500000
#
# Coordination Sequence:
#
# PCOD9491180 Si02
#       7
#     4  16  16  16  16  16  16
#     4  12  22  36  69  92 109 156 196 246 300 346
#     4   9  17  32  58  85 108 143 194 241 279 339
#     4   8  16  33  54  81 115 145 180 236 297 337
#     4  10  21  34  51  78 112 149 188 232 287 351
#     4  10  21  38  59  79 106 143 184 238 292 344
#     4  10  22  39  56  79 119 160 188 231 292 343
#     4  10  22  40  60  89 121 150 195 246 296 349
#
# _framework density 21.710349000000001
#
# number of rings (size 3 to 8) (size 9 to 14) (size 15 to 20)
#    0.000    2.400    0.800    2.160    2.240    1.920 
#    0.000    6.400    0.000    1.920    0.000    0.000 
#    0.000    0.000    0.000    0.000    0.000    0.000 
#
# Total GULP energy -278477.232737 kJ/mol
# GULP energy per Si atom -5569.544655 kJ/mol
# Density = 2.166094 g / cm^3
# Si number density = 21.710349 Si / 1000 Ang^3
#
#
#
# Elastic Constant Matrix: (Units=GPa)
#
#
# Indices 1 2 3 4 5 6 
#
# 1 67.9948 66.7983 3.6095 0.0000 0.0000 0.0000
# 2 66.7983 133.6643 -4.5192 0.0000 0.0000 0.0000
# 3 3.6095 -4.5192 78.4377 0.0000 0.0000 0.0000
# 4 0.0000 0.0000 0.0000 34.9704 0.0000 0.0000
# 5 0.0000 0.0000 0.0000 0.0000 12.4050 0.0000
# 6 0.0000 0.0000 0.0000 0.0000 0.0000 -29.0846
#
#
#
# Elastic Compliance Matrix: (Units=1/GPa)
#
#
# Indices 1 2 3 4 5 6 
#
# 1 0.029263 -0.014698 -0.002193 0.000000 0.000000 0.000000
# 2 -0.014698 0.014879 0.001534 0.000000 0.000000 0.000000
# 3 -0.002193 0.001534 0.012938 0.000000 0.000000 0.000000
# 4 0.000000 0.000000 0.000000 0.028596 0.000000 0.000000
# 5 0.000000 0.000000 0.000000 0.000000 0.080612 0.000000
# 6 0.000000 0.000000 0.000000 0.000000 0.000000 -0.034382
#
#
# Mechanical properties :
#
#
# Convention : Reuss Voigt Hill
#
# Bulk Modulus (GPa) = 37.93082 45.76379 41.84730
# Shear Modulus (GPa) = 29.16985 17.93871 23.55428
#
# Velocity S-wave (km/s) = 3.66948 2.87762 3.29741
# Velocity P-wave (km/s) = 5.95506 5.67150 5.81501
#
# Compressibility (1/GPa) = 0.02636379
#
# Stress axis : x y z
#
# Youngs Moduli (GPa) = 34.17273 67.21008 77.29010
#
# Poissons Ratio (x) = 0.98787 0.16953
# Poissons Ratio (y) = 0.50228 -0.11853
# Poissons Ratio (z) = 0.07496 -0.10307
#
# Static dielectric constant tensor:
#      x y z
#    x 1.786750 0.000000 0.000000 
#    y 0.000000 1.788910 0.000000 
#    z 0.000000 0.000000 1.858010 
# 
# From -- ./inp_files/12782.got.cif
#   From: 2010.05.17/outbox.cif.g08.bks.cpg/sg65_7_cif.got.tgz:12782.got - 2010.06.03 17:01:31.
