data_PCOD9491479
_publ_section_title
;
Structure prediction by ZEFSAII (Michael W. Deem and Ramdas Pophale) SiO2 
 PCOD9491479
Probable space group: C M M M
;
_chemical_formula_sum "Si O2"
_cell_formula_units_Z 116
_cell_length_a 30.030645
_cell_length_b 25.196257
_cell_length_c 7.370781
_cell_angle_alpha 90.000000
_cell_angle_beta 90.000000
_cell_angle_gamma 90.000000
_cell_volume 5577.174041
_symmetry_space_group_name_H-M "C M M M"
_symmetry_group_IT_number 65
_symmetry_cell_setting 'orthorhombic'
loop_
_space_group_symop_operation_xyz
x,y,z
-x,-y,z
x,-y,-z
-x,y,-z
-x,-y,-z
x,y,-z
-x,y,z
x,-y,z
1/2+x,1/2+y,z
1/2-x,1/2-y,z
1/2+x,1/2-y,-z
1/2-x,1/2+y,-z
1/2-x,1/2-y,-z
1/2+x,1/2+y,-z
1/2-x,1/2+y,z
1/2+x,1/2-y,z
loop_
_atom_site_type_symbol
_atom_site_label
_atom_site_fract_x
_atom_site_fract_y
_atom_site_fract_z
Si Si1 0.050380 0.650209 0.715107
Si Si2 0.717627 0.402075 0.218467
Si Si3 0.621216 0.353175 0.780314
Si Si4 0.551280 0.559637 0.778925
Si Si5 0.619584 0.940061 0.783190
Si Si6 0.275951 0.500000 0.500000
Si Si7 0.690230 0.853755 0.779594
Si Si8 0.625339 0.765214 0.209913
O O1 0.048668 0.657520 0.500000
O O2 0.075481 0.594608 0.749032
O O3 0.082053 0.697030 0.786170
O O4 0.000000 0.650942 0.785780
O O5 0.670186 0.375415 0.257657
O O6 0.723240 0.453676 0.340622
O O7 0.758520 0.362667 0.262558
O O8 0.780428 0.086537 0.000000
O O9 0.584216 0.394696 0.714308
O O10 0.616759 0.292926 0.712486
O O11 0.616147 0.352395 0.000000
O O12 0.500000 0.568006 0.724506
O O13 0.565084 0.500000 0.723268
O O14 0.551814 0.559762 0.000000
O O15 0.660980 0.904449 0.716951
O O16 0.618450 0.000000 0.711819
O O17 0.624295 0.943564 0.000000
O O18 0.665307 0.801054 0.712105
O O19 0.686622 0.852948 0.000000
O O20 0.637322 0.755932 0.000000
#
# Coordination Sequence:
#
# PCOD9491479 Si02
#       8
#    16  16  16  16  16   4  16  16
#     4  10  21  36  51  73 107 147 187 229 288 344
#     4  10  22  40  60  86 122 157 190 241 290 336
#     4   9  18  32  56  86 111 146 191 232 291 347
#     4   8  14  25  43  73 112 145 179 228 280 339
#     4   9  18  33  54  80 106 139 185 231 283 342
#     4  12  26  40  56  92 121 154 207 230 280 360
#     4   8  16  33  55  78 110 147 181 228 289 338
#     4   9  18  35  57  82 107 140 191 239 286 343
#
# _framework density 20.799064999999999
#
# number of rings (size 3 to 8) (size 9 to 14) (size 15 to 20)
#    0.000    2.897    0.000    1.862    1.931    2.759 
#    6.207    5.517    0.000    0.828    0.000    0.483 
#    0.000    0.000    0.000    0.000    0.000    0.000 
#
# Total GULP energy -323089.445230 kJ/mol
# GULP energy per Si atom -5570.507676 kJ/mol
# Density = 2.075173 g / cm^3
# Si number density = 20.799065 Si / 1000 Ang^3
#
#
#
# Elastic Constant Matrix: (Units=GPa)
#
#
# Indices 1 2 3 4 5 6 
#
# 1 135.9730 107.1249 6.9512 0.0000 0.0000 0.0000
# 2 107.1249 204.3926 16.7877 0.0000 0.0000 0.0000
# 3 6.9512 16.7877 83.7342 0.0000 0.0000 0.0000
# 4 0.0000 0.0000 0.0000 -20.9677 0.0000 0.0000
# 5 0.0000 0.0000 0.0000 0.0000 24.1395 0.0000
# 6 0.0000 0.0000 0.0000 0.0000 0.0000 -42.8084
#
#
#
# Elastic Compliance Matrix: (Units=1/GPa)
#
#
# Indices 1 2 3 4 5 6 
#
# 1 0.012534 -0.006592 0.000281 0.000000 0.000000 0.000000
# 2 -0.006592 0.008442 -0.001145 0.000000 0.000000 0.000000
# 3 0.000281 -0.001145 0.012149 0.000000 0.000000 0.000000
# 4 0.000000 0.000000 0.000000 -0.047692 0.000000 0.000000
# 5 0.000000 0.000000 0.000000 0.000000 0.041426 0.000000
# 6 0.000000 0.000000 0.000000 0.000000 0.000000 -0.023360
#
#
# Mechanical properties :
#
#
# Convention : Reuss Voigt Hill
#
# Bulk Modulus (GPa) = 54.90975 76.20304 65.55640
# Shear Modulus (GPa) = 204.24594 11.62175 107.93384
#
# Velocity S-wave (km/s) = 9.92032 2.36638 7.21154
# Velocity P-wave (km/s) = 12.55685 6.64708 10.04634
#
# Compressibility (1/GPa) = 0.01821170
#
# Stress axis : x y z
#
# Youngs Moduli (GPa) = 79.78602 118.46090 82.31258
#
# Poissons Ratio (x) = 0.78090 -0.02314
# Poissons Ratio (y) = 0.52596 0.09426
# Poissons Ratio (z) = -0.02243 0.13566
#
# Static dielectric constant tensor:
#      x y z
#    x 1.718950 0.000000 0.000000 
#    y 0.000000 1.741910 0.000000 
#    z 0.000000 0.000000 1.777000 
# 
# From -- ./inp_files/18940.got.cif
#   From: 2010.05.17/outbox.cif.g08.bks.cpg/sg65_10_cif.got.tgz:18940.got - 2010.06.03 17:01:31.
