data_PCOD9491077
_publ_section_title
;
Structure prediction by ZEFSAII (Michael W. Deem and Ramdas Pophale) SiO2 
 PCOD9491077
Probable space group: C M M M
;
_chemical_formula_sum "Si O2"
_cell_formula_units_Z 120
_cell_length_a 10.550864
_cell_length_b 25.259476
_cell_length_c 26.573238
_cell_angle_alpha 90.000000
_cell_angle_beta 90.000000
_cell_angle_gamma 90.000000
_cell_volume 7082.014951
_symmetry_space_group_name_H-M "C M M M"
_symmetry_group_IT_number 65
_symmetry_cell_setting 'orthorhombic'
loop_
_space_group_symop_operation_xyz
x,y,z
-x,-y,z
x,-y,-z
-x,y,-z
-x,-y,-z
x,y,-z
-x,y,z
x,-y,z
1/2+x,1/2+y,z
1/2-x,1/2-y,z
1/2+x,1/2-y,-z
1/2-x,1/2+y,-z
1/2-x,1/2-y,-z
1/2+x,1/2+y,-z
1/2-x,1/2+y,z
1/2+x,1/2-y,z
loop_
_atom_site_type_symbol
_atom_site_label
_atom_site_fract_x
_atom_site_fract_y
_atom_site_fract_z
Si Si1 0.782149 0.124779 0.862656
Si Si2 0.856054 0.436856 0.054817
Si Si3 0.359570 0.207086 0.800368
Si Si4 0.146024 0.370194 0.293314
Si Si5 0.856159 0.705402 0.500000
Si Si6 0.649314 0.201309 0.388087
Si Si7 0.362874 0.709389 0.058368
Si Si8 0.355702 0.562912 0.236933
O O1 0.726769 0.081026 0.899251
O O2 0.669948 0.160768 0.839777
O O3 0.857497 0.163656 0.899958
O O4 0.846647 0.096330 0.815160
O O5 0.860783 0.500000 0.053779
O O6 0.000000 0.417083 0.060441
O O7 0.808780 0.418655 0.000000
O O8 0.500000 0.229824 0.807146
O O9 0.250000 0.250000 0.804885
O O10 0.351449 0.178511 0.746353
O O11 0.175002 0.343902 0.347069
O O12 0.249014 0.412240 0.273565
O O13 0.000000 0.390529 0.293048
O O14 0.750000 0.750000 0.500000
O O15 0.841734 0.678953 0.554695
O O16 0.000000 0.727550 0.500000
O O17 0.500000 0.218100 0.380802
O O18 0.750000 0.250000 0.382904
O O19 0.500000 0.736426 0.062118
O O20 0.250000 0.750000 0.067842
O O21 0.350553 0.690829 0.000000
O O22 0.500000 0.569094 0.256323
O O23 0.333742 0.500000 0.228516
#
# Coordination Sequence:
#
# PCOD9491077 Si02
#       8
#    16  16  16  16   8  16  16  16
#     4  11  20  33  53  72  94 122 154 190 236 287
#     4   9  18  32  50  73  98 122 151 189 234 285
#     4  10  21  33  46  67  95 125 158 193 228 270
#     4   9  19  34  51  72  97 129 168 204 241 287
#     4   8  14  24  40  66 103 142 175 209 246 283
#     4   9  16  27  45  72 106 142 177 210 245 288
#     4  10  22  38  54  73  97 125 156 188 224 272
#     4  10  22  38  54  74  98 123 156 201 253 304
#
# _framework density 16.944330000000001
#
# number of rings (size 3 to 8) (size 9 to 14) (size 15 to 20)
#    0.000    2.400    0.000    2.800    0.000    6.133 
#    0.000    1.333    0.000    0.000    0.000    6.067 
#    0.000    3.733    0.000    0.000    0.000    0.000 
#
# Total GULP energy -334134.303836 kJ/mol
# GULP energy per Si atom -5568.905064 kJ/mol
# Density = 1.690576 g / cm^3
# Si number density = 16.944330 Si / 1000 Ang^3
#
#
#
# Elastic Constant Matrix: (Units=GPa)
#
#
# Indices 1 2 3 4 5 6 
#
# 1 119.8101 54.9181 46.0955 0.0000 0.0000 0.0000
# 2 54.9181 65.0654 34.1854 0.0000 0.0000 0.0000
# 3 46.0955 34.1854 117.1821 0.0000 0.0000 0.0000
# 4 0.0000 0.0000 0.0000 24.4127 0.0000 0.0000
# 5 0.0000 0.0000 0.0000 0.0000 23.2129 0.0000
# 6 0.0000 0.0000 0.0000 0.0000 0.0000 19.2897
#
#
#
# Elastic Compliance Matrix: (Units=1/GPa)
#
#
# Indices 1 2 3 4 5 6 
#
# 1 0.014192 -0.010683 -0.002466 0.000000 0.000000 0.000000
# 2 -0.010683 0.026193 -0.003439 0.000000 0.000000 0.000000
# 3 -0.002466 -0.003439 0.010507 0.000000 0.000000 0.000000
# 4 0.000000 0.000000 0.000000 0.040962 0.000000 0.000000
# 5 0.000000 0.000000 0.000000 0.000000 0.043080 0.000000
# 6 0.000000 0.000000 0.000000 0.000000 0.000000 0.051841
#
#
# Mechanical properties :
#
#
# Convention : Reuss Voigt Hill
#
# Bulk Modulus (GPa) = 56.44638 63.60618 60.02628
# Shear Modulus (GPa) = 22.13789 24.50696 23.32242
#
# Velocity S-wave (km/s) = 3.61849 3.80718 3.71403
# Velocity P-wave (km/s) = 7.13043 7.54626 7.34129
#
# Compressibility (1/GPa) = 0.01771593
#
# Stress axis : x y z
#
# Youngs Moduli (GPa) = 70.46073 38.17808 95.17421
#
# Poissons Ratio (x) = 0.40786 0.23472
# Poissons Ratio (y) = 0.75275 0.32729
# Poissons Ratio (z) = 0.17377 0.13129
#
# Static dielectric constant tensor:
#      x y z
#    x 1.601660 0.000000 0.000000 
#    y 0.000000 1.552630 0.000000 
#    z 0.000000 0.000000 1.595560 
# 
# From -- ./inp_files/73928.got.cif
#   From: 2010.05.17/outbox.cif.g08.bks.cpg/sg65_37_cif.got.tgz:73928.got - 2010.06.03 17:01:31.
