data_PCOD9491088
_publ_section_title
;
Structure prediction by ZEFSAII (Michael W. Deem and Ramdas Pophale) SiO2 
 PCOD9491088
Probable space group: C M M M
;
_chemical_formula_sum "Si O2"
_cell_formula_units_Z 96
_cell_length_a 28.181879
_cell_length_b 19.213993
_cell_length_c 10.317134
_cell_angle_alpha 90.000000
_cell_angle_beta 90.000000
_cell_angle_gamma 90.000000
_cell_volume 5586.588014
_symmetry_space_group_name_H-M "C M M M"
_symmetry_group_IT_number 65
_symmetry_cell_setting 'orthorhombic'
loop_
_space_group_symop_operation_xyz
x,y,z
-x,-y,z
x,-y,-z
-x,y,-z
-x,-y,-z
x,y,-z
-x,y,z
x,-y,z
1/2+x,1/2+y,z
1/2-x,1/2-y,z
1/2+x,1/2-y,-z
1/2-x,1/2+y,-z
1/2-x,1/2-y,-z
1/2+x,1/2+y,-z
1/2-x,1/2+y,z
1/2+x,1/2-y,z
loop_
_atom_site_type_symbol
_atom_site_label
_atom_site_fract_x
_atom_site_fract_y
_atom_site_fract_z
Si Si1 0.740990 0.831924 0.846387
Si Si2 0.149744 0.578590 0.842765
Si Si3 0.797957 0.919865 0.355505
Si Si4 0.054187 0.350866 0.842475
Si Si5 0.587861 0.420605 0.352806
Si Si6 0.556841 0.307521 0.146015
O O1 0.750000 0.750000 0.826484
O O2 0.689189 0.863329 0.809803
O O3 0.777573 0.873450 0.757941
O O4 0.747634 0.845669 0.000000
O O5 0.162396 0.500000 0.800213
O O6 0.096791 0.599548 0.798295
O O7 0.148237 0.577564 0.000000
O O8 0.782889 0.896572 0.500000
O O9 0.854978 0.919584 0.353396
O O10 0.782718 0.000000 0.338767
O O11 0.068651 0.271250 0.811941
O O12 0.000000 0.364925 0.797462
O O13 0.052389 0.354228 0.000000
O O14 0.571838 0.404342 0.500000
O O15 0.572714 0.500000 0.322791
O O16 0.571550 0.365414 0.247691
O O17 0.500000 0.308318 0.137093
O O18 0.576074 0.319546 0.000000
#
# Coordination Sequence:
#
# PCOD9491088 Si02
#       6
#    16  16  16  16  16  16
#     4  10  21  33  49  77 106 136 172 208 250 303
#     4   9  17  29  46  70 101 132 164 207 251 295
#     4   9  19  36  54  71  97 133 171 212 255 301
#     4   8  15  28  46  69  97 129 163 202 251 301
#     4   9  19  34  50  70  96 129 170 212 254 300
#     4   9  18  31  48  71  99 130 164 206 254 306
#
# _framework density 17.184011999999999
#
# number of rings (size 3 to 8) (size 9 to 14) (size 15 to 20)
#    0.000    3.000    0.000    2.500    2.333    3.333 
#    0.000    5.000    0.000    0.000    0.000    0.000 
#    0.000    0.000    0.000    7.167    0.000    7.000 
#
# Total GULP energy -267225.572942 kJ/mol
# GULP energy per Si atom -5567.199436 kJ/mol
# Density = 1.714490 g / cm^3
# Si number density = 17.184012 Si / 1000 Ang^3
#
#
#
# Elastic Constant Matrix: (Units=GPa)
#
#
# Indices 1 2 3 4 5 6 
#
# 1 37.9270 47.0064 13.1309 0.0000 0.0000 0.0000
# 2 47.0064 98.3328 43.2391 0.0000 0.0000 0.0000
# 3 13.1309 43.2391 39.1018 0.0000 0.0000 0.0000
# 4 0.0000 0.0000 0.0000 14.8329 0.0000 0.0000
# 5 0.0000 0.0000 0.0000 0.0000 17.5162 0.0000
# 6 0.0000 0.0000 0.0000 0.0000 0.0000 31.2903
#
#
#
# Elastic Compliance Matrix: (Units=1/GPa)
#
#
# Indices 1 2 3 4 5 6 
#
# 1 0.079195 -0.050926 0.029720 0.000000 0.000000 0.000000
# 2 -0.050926 0.052543 -0.041001 0.000000 0.000000 0.000000
# 3 0.029720 -0.041001 0.060933 0.000000 0.000000 0.000000
# 4 0.000000 0.000000 0.000000 0.067418 0.000000 0.000000
# 5 0.000000 0.000000 0.000000 0.000000 0.057090 0.000000
# 6 0.000000 0.000000 0.000000 0.000000 0.000000 0.031959
#
#
# Mechanical properties :
#
#
# Convention : Reuss Voigt Hill
#
# Bulk Modulus (GPa) = 14.65059 42.45713 28.55386
# Shear Modulus (GPa) = 10.07450 17.52691 13.80070
#
# Velocity S-wave (km/s) = 2.42393 3.19714 2.83700
# Velocity P-wave (km/s) = 4.04699 6.19596 5.23297
#
# Compressibility (1/GPa) = 0.06825666
#
# Stress axis : x y z
#
# Youngs Moduli (GPa) = 12.62713 19.03205 16.41151
#
# Poissons Ratio (x) = 0.96923 -0.48775
# Poissons Ratio (y) = 0.64305 0.67288
# Poissons Ratio (z) = -0.37528 0.78033
#
# Static dielectric constant tensor:
#      x y z
#    x 1.604460 0.000000 0.000000 
#    y 0.000000 1.609580 0.000000 
#    z 0.000000 0.000000 1.594790 
# 
# From -- ./inp_files/12310.got.cif
#   From: 2010.05.17/outbox.cif.g08.bks.cpg/sg65_7_cif.got.tgz:12310.got - 2010.06.03 17:01:31.
