data_PCOD9491214
_publ_section_title
;
Structure prediction by ZEFSAII (Michael W. Deem and Ramdas Pophale) SiO2 
 PCOD9491214
Probable space group: C M M M
;
_chemical_formula_sum "Si O2"
_cell_formula_units_Z 64
_cell_length_a 14.520622
_cell_length_b 10.337156
_cell_length_c 20.714695
_cell_angle_alpha 90.000000
_cell_angle_beta 90.000000
_cell_angle_gamma 90.000000
_cell_volume 3109.315799
_symmetry_space_group_name_H-M "C M M M"
_symmetry_group_IT_number 65
_symmetry_cell_setting 'orthorhombic'
loop_
_space_group_symop_operation_xyz
x,y,z
-x,-y,z
x,-y,-z
-x,y,-z
-x,-y,-z
x,y,-z
-x,y,z
x,-y,z
1/2+x,1/2+y,z
1/2-x,1/2-y,z
1/2+x,1/2-y,-z
1/2-x,1/2+y,-z
1/2-x,1/2-y,-z
1/2+x,1/2+y,-z
1/2-x,1/2+y,z
1/2+x,1/2-y,z
loop_
_atom_site_type_symbol
_atom_site_label
_atom_site_fract_x
_atom_site_fract_y
_atom_site_fract_z
Si Si1 0.887547 0.145642 0.243277
Si Si2 0.391712 0.142313 0.856361
Si Si3 0.612536 0.850188 0.500000
Si Si4 0.832037 0.650405 0.000000
Si Si5 0.612312 0.352285 0.608793
O O1 0.854802 0.248178 0.190834
O O2 0.860053 0.173065 0.317149
O O3 0.000000 0.146123 0.243144
O O4 0.858928 0.000000 0.226906
O O5 0.500000 0.134172 0.842080
O O6 0.383736 0.171201 0.932436
O O7 0.350700 0.000000 0.844857
O O8 0.500000 0.854580 0.500000
O O9 0.640872 0.763132 0.438528
O O10 0.643768 0.000000 0.500000
O O11 0.750000 0.750000 0.000000
O O12 0.802584 0.500000 0.000000
O O13 0.500000 0.354337 0.606854
O O14 0.641073 0.500000 0.590843
#
# Coordination Sequence:
#
# PCOD9491214 Si02
#       5
#    16  16   8   8  16
#     4   8  14  24  38  57  79 103 136 177 216 255
#     4   9  17  30  48  67  87 113 145 181 220 262
#     4   9  15  19  25  41  65  95 134 175 208 243
#     4  10  21  35  49  67  91 118 146 176 216 264
#     4   8  13  21  31  43  65  99 134 167 206 251
#
# _framework density 20.583306
#
# number of rings (size 3 to 8) (size 9 to 14) (size 15 to 20)
#    0.000    3.375    0.000    2.250    0.000    5.000 
#    0.000    5.000    0.000    3.750    0.000    0.000 
#    0.000    0.000    0.000    1.125    0.000   16.000 
#
# Total GULP energy -178386.104764 kJ/mol
# GULP energy per Si atom -5574.565774 kJ/mol
# Density = 2.053646 g / cm^3
# Si number density = 20.583306 Si / 1000 Ang^3
#
#
#
# Elastic Constant Matrix: (Units=GPa)
#
#
# Indices 1 2 3 4 5 6 
#
# 1 45.1321 14.8989 6.7422 0.0000 0.0000 0.0000
# 2 14.8989 192.4060 151.9919 0.0000 0.0000 0.0000
# 3 6.7422 151.9919 164.6927 0.0000 0.0000 0.0000
# 4 0.0000 0.0000 0.0000 44.7233 0.0000 0.0000
# 5 0.0000 0.0000 0.0000 0.0000 -21.4664 0.0000
# 6 0.0000 0.0000 0.0000 0.0000 0.0000 3.0735
#
#
#
# Elastic Compliance Matrix: (Units=1/GPa)
#
#
# Indices 1 2 3 4 5 6 
#
# 1 0.023035 -0.003834 0.002595 0.000000 0.000000 0.000000
# 2 -0.003834 0.019819 -0.018133 0.000000 0.000000 0.000000
# 3 0.002595 -0.018133 0.022701 0.000000 0.000000 0.000000
# 4 0.000000 0.000000 0.000000 0.022360 0.000000 0.000000
# 5 0.000000 0.000000 0.000000 0.000000 -0.046584 0.000000
# 6 0.000000 0.000000 0.000000 0.000000 0.000000 0.325359
#
#
# Mechanical properties :
#
#
# Convention : Reuss Voigt Hill
#
# Bulk Modulus (GPa) = 37.29900 83.27742 60.28821
# Shear Modulus (GPa) = 12.06650 20.50593 16.28621
#
# Velocity S-wave (km/s) = 2.42384 3.15975 2.81594
# Velocity P-wave (km/s) = 5.09840 7.33884 6.31871
#
# Compressibility (1/GPa) = 0.02681037
#
# Stress axis : x y z
#
# Youngs Moduli (GPa) = 43.41203 50.45709 44.05142
#
# Poissons Ratio (x) = 0.19343 -0.11431
# Poissons Ratio (y) = 0.16643 0.79881
# Poissons Ratio (z) = -0.11265 0.91496
#
# Static dielectric constant tensor:
#      x y z
#    x 1.748300 0.000000 0.000000 
#    y 0.000000 1.732030 0.000000 
#    z 0.000000 0.000000 1.745280 
# 
# From -- ./inp_files/64240.got.cif
#   From: 2010.05.17/outbox.cif.g08.bks.cpg/sg65_33_cif.got.tgz:64240.got - 2010.06.03 17:01:31.
