data_PCOD9491396
_publ_section_title
;
Structure prediction by ZEFSAII (Michael W. Deem and Ramdas Pophale) SiO2 
 PCOD9491396
Probable space group: C M M M
;
_chemical_formula_sum "Si O2"
_cell_formula_units_Z 88
_cell_length_a 18.715755
_cell_length_b 8.987723
_cell_length_c 29.367814
_cell_angle_alpha 90.000000
_cell_angle_beta 90.000000
_cell_angle_gamma 90.000000
_cell_volume 4940.019365
_symmetry_space_group_name_H-M "C M M M"
_symmetry_group_IT_number 65
_symmetry_cell_setting 'orthorhombic'
loop_
_space_group_symop_operation_xyz
x,y,z
-x,-y,z
x,-y,-z
-x,y,-z
-x,-y,-z
x,y,-z
-x,y,z
x,-y,z
1/2+x,1/2+y,z
1/2-x,1/2-y,z
1/2+x,1/2-y,-z
1/2-x,1/2+y,-z
1/2-x,1/2-y,-z
1/2+x,1/2+y,-z
1/2-x,1/2+y,z
1/2+x,1/2-y,z
loop_
_atom_site_type_symbol
_atom_site_label
_atom_site_fract_x
_atom_site_fract_y
_atom_site_fract_z
Si Si1 0.172226 0.820419 0.000000
Si Si2 0.171851 0.179024 0.732445
Si Si3 0.417019 0.321316 0.356936
Si Si4 0.915771 0.822370 0.089583
Si Si5 0.086527 0.675427 0.549803
Si Si6 0.414885 0.176395 0.185460
O O1 0.250000 0.750000 0.000000
O O2 0.129181 0.777281 0.954519
O O3 0.177030 0.000000 0.000000
O O4 0.250000 0.250000 0.732358
O O5 0.129617 0.223108 0.686450
O O6 0.128085 0.238581 0.775656
O O7 0.176163 0.000000 0.734004
O O8 0.500000 0.273516 0.350761
O O9 0.416842 0.500000 0.359626
O O10 0.388895 0.257372 0.404753
O O11 0.895049 0.736875 0.135478
O O12 0.000000 0.795800 0.081086
O O13 0.906879 0.000000 0.096726
O O14 0.111966 0.729649 0.500000
O O15 0.102262 0.500000 0.553046
O O16 0.000000 0.690447 0.549413
O O17 0.500000 0.202933 0.191192
O O18 0.402045 0.000000 0.188412
#
# Coordination Sequence:
#
# PCOD9491396 Si02
#       6
#     8  16  16  16  16  16
#     4  10  21  35  53  79 109 142 178 216 260 310
#     4  11  23  38  55  76 105 140 177 218 265 316
#     4   9  18  32  51  75 101 131 168 210 257 309
#     4   9  18  35  58  80 104 138 179 219 258 304
#     4   8  14  25  43  70 102 132 163 203 252 303
#     4  10  21  37  58  84 110 137 174 218 264 316
#
# _framework density 17.813694999999999
#
# number of rings (size 3 to 8) (size 9 to 14) (size 15 to 20)
#    0.000    2.545    0.000    2.455    0.000    6.182 
#    0.000    5.455    0.000    3.273    0.000    0.000 
#    0.000    0.000    0.000    0.000    0.000    0.000 
#
# Total GULP energy -245436.488101 kJ/mol
# GULP energy per Si atom -5578.102002 kJ/mol
# Density = 1.777315 g / cm^3
# Si number density = 17.813695 Si / 1000 Ang^3
#
#
#
# Elastic Constant Matrix: (Units=GPa)
#
#
# Indices 1 2 3 4 5 6 
#
# 1 66.4008 42.7778 87.2456 0.0000 0.0000 0.0000
# 2 42.7778 42.0461 68.0903 0.0000 0.0000 0.0000
# 3 87.2456 68.0903 206.1096 0.0000 0.0000 0.0000
# 4 0.0000 0.0000 0.0000 27.0075 0.0000 0.0000
# 5 0.0000 0.0000 0.0000 0.0000 -6.7155 0.0000
# 6 0.0000 0.0000 0.0000 0.0000 0.0000 23.1477
#
#
#
# Elastic Compliance Matrix: (Units=1/GPa)
#
#
# Indices 1 2 3 4 5 6 
#
# 1 0.051258 -0.036586 -0.009611 0.000000 0.000000 0.000000
# 2 -0.036586 0.077260 -0.010037 0.000000 0.000000 0.000000
# 3 -0.009611 -0.010037 0.012236 0.000000 0.000000 0.000000
# 4 0.000000 0.000000 0.000000 0.037027 0.000000 0.000000
# 5 0.000000 0.000000 0.000000 0.000000 -0.148909 0.000000
# 6 0.000000 0.000000 0.000000 0.000000 0.000000 0.043201
#
#
# Mechanical properties :
#
#
# Convention : Reuss Voigt Hill
#
# Bulk Modulus (GPa) = 35.35265 78.97599 57.16432
# Shear Modulus (GPa) = 25.77746 16.45079 21.11413
#
# Velocity S-wave (km/s) = 3.80815 3.04220 3.44652
# Velocity P-wave (km/s) = 6.26297 7.53463 6.92804
#
# Compressibility (1/GPa) = 0.02828643
#
# Stress axis : x y z
#
# Youngs Moduli (GPa) = 19.50918 12.94331 81.72754
#
# Poissons Ratio (x) = 0.47354 0.78547
# Poissons Ratio (y) = 0.71376 0.82029
# Poissons Ratio (z) = 0.18750 0.12991
#
# Static dielectric constant tensor:
#      x y z
#    x 1.587790 0.000000 0.000000 
#    y 0.000000 1.596290 0.000000 
#    z 0.000000 0.000000 1.602950 
# 
# From -- ./inp_files/77940.got.cif
#   From: 2010.05.17/outbox.cif.g08.bks.cpg/sg65_39_cif.got.tgz:77940.got - 2010.06.03 17:01:31.
