data_PCOD9491229
_publ_section_title
;
Structure prediction by ZEFSAII (Michael W. Deem and Ramdas Pophale) SiO2 
 PCOD9491229
Probable space group: C M M M
;
_chemical_formula_sum "Si O2"
_cell_formula_units_Z 72
_cell_length_a 27.924967
_cell_length_b 7.443168
_cell_length_c 14.305400
_cell_angle_alpha 90.000000
_cell_angle_beta 90.000000
_cell_angle_gamma 90.000000
_cell_volume 2973.380548
_symmetry_space_group_name_H-M "C M M M"
_symmetry_group_IT_number 65
_symmetry_cell_setting 'orthorhombic'
loop_
_space_group_symop_operation_xyz
x,y,z
-x,-y,z
x,-y,-z
-x,y,-z
-x,-y,-z
x,y,-z
-x,y,z
x,-y,z
1/2+x,1/2+y,z
1/2-x,1/2-y,z
1/2+x,1/2-y,-z
1/2-x,1/2+y,-z
1/2-x,1/2-y,-z
1/2+x,1/2+y,-z
1/2-x,1/2+y,z
1/2+x,1/2-y,z
loop_
_atom_site_type_symbol
_atom_site_label
_atom_site_fract_x
_atom_site_fract_y
_atom_site_fract_z
Si Si1 0.657724 0.709719 0.395582
Si Si2 0.602842 0.718925 0.890673
Si Si3 0.302419 0.715147 0.211169
Si Si4 0.948556 0.715560 0.611175
Si Si5 0.500000 0.715653 0.113089
O O1 0.659211 0.789477 0.500000
O O2 0.669002 0.500000 0.405063
O O3 0.692316 0.786934 0.317005
O O4 0.603143 0.718590 0.356174
O O5 0.602186 0.500000 0.885030
O O6 0.651556 0.784091 0.844317
O O7 0.551399 0.783254 0.851023
O O8 0.604039 0.764626 0.000000
O O9 0.307401 0.500000 0.214479
O O10 0.250000 0.750000 0.171507
O O11 0.948921 0.761373 0.500000
O O12 0.948072 0.500000 0.617944
O O13 0.000000 0.780637 0.649815
O O14 0.500000 0.500000 0.124922
O O15 0.500000 0.746110 0.000000
#
# Coordination Sequence:
#
# PCOD9491229 Si02
#       5
#    16  16  16  16   8
#     4   9  18  32  47  65  93 127 163 203 244 284
#     4   8  14  27  48  73  99 124 153 193 241 289
#     4  10  21  35  49  70  97 127 164 206 244 287
#     4   8  14  26  45  68  93 122 157 195 236 287
#     4   7  10  20  42  70  96 120 146 183 231 279
#
# _framework density 24.214862
#
# number of rings (size 3 to 8) (size 9 to 14) (size 15 to 20)
#    0.000    3.444    0.000    2.000    0.000    2.222 
#    2.000    2.222    0.000    0.000    0.000    0.000 
#    0.000    2.667    0.000    0.000    0.000    0.000 
#
# Total GULP energy -200864.777099 kJ/mol
# GULP energy per Si atom -5579.577142 kJ/mol
# Density = 2.415975 g / cm^3
# Si number density = 24.214862 Si / 1000 Ang^3
#
#
#
# Elastic Constant Matrix: (Units=GPa)
#
#
# Indices 1 2 3 4 5 6 
#
# 1 212.9904 -1.7414 68.3400 0.0000 0.0000 0.0000
# 2 -1.7414 73.9103 2.6005 0.0000 0.0000 0.0000
# 3 68.3400 2.6005 58.2026 0.0000 0.0000 0.0000
# 4 0.0000 0.0000 0.0000 -10.8785 0.0000 0.0000
# 5 0.0000 0.0000 0.0000 0.0000 31.5836 0.0000
# 6 0.0000 0.0000 0.0000 0.0000 0.0000 33.8872
#
#
#
# Elastic Compliance Matrix: (Units=1/GPa)
#
#
# Indices 1 2 3 4 5 6 
#
# 1 0.007551 0.000491 -0.008888 0.000000 0.000000 0.000000
# 2 0.000491 0.013583 -0.001183 0.000000 0.000000 0.000000
# 3 -0.008888 -0.001183 0.027670 0.000000 0.000000 0.000000
# 4 0.000000 0.000000 0.000000 -0.091924 0.000000 0.000000
# 5 0.000000 0.000000 0.000000 0.000000 0.031662 0.000000
# 6 0.000000 0.000000 0.000000 0.000000 0.000000 0.029510
#
#
# Mechanical properties :
#
#
# Convention : Reuss Voigt Hill
#
# Bulk Modulus (GPa) = 33.73414 53.72241 43.72827
# Shear Modulus (GPa) = 106.17252 29.31207 67.74230
#
# Velocity S-wave (km/s) = 6.62882 3.48300 5.29493
# Velocity P-wave (km/s) = 8.51761 6.19749 7.44844
#
# Compressibility (1/GPa) = 0.02964356
#
# Stress axis : x y z
#
# Youngs Moduli (GPa) = 132.43581 73.62092 36.14000
#
# Poissons Ratio (x) = -0.03612 0.32121
# Poissons Ratio (y) = -0.06498 0.04275
# Poissons Ratio (z) = 1.17708 0.08709
#
# Static dielectric constant tensor:
#      x y z
#    x 1.956480 0.000000 0.000000 
#    y 0.000000 1.915390 0.000000 
#    z 0.000000 0.000000 1.961000 
# 
# From -- ./inp_files/45243.got.cif
#   From: 2010.05.17/outbox.cif.g08.bks.cpg/sg65_23_cif.got.tgz:45243.got - 2010.06.03 17:01:31.
