data_PCOD9491316
_publ_section_title
;
Structure prediction by ZEFSAII (Michael W. Deem and Ramdas Pophale) SiO2 
 PCOD9491316
Probable space group: C M M M
;
_chemical_formula_sum "Si O2"
_cell_formula_units_Z 64
_cell_length_a 18.764412
_cell_length_b 8.519534
_cell_length_c 21.263519
_cell_angle_alpha 90.000000
_cell_angle_beta 90.000000
_cell_angle_gamma 90.000000
_cell_volume 3399.272180
_symmetry_space_group_name_H-M "C M M M"
_symmetry_group_IT_number 65
_symmetry_cell_setting 'orthorhombic'
loop_
_space_group_symop_operation_xyz
x,y,z
-x,-y,z
x,-y,-z
-x,y,-z
-x,-y,-z
x,y,-z
-x,y,z
x,-y,z
1/2+x,1/2+y,z
1/2-x,1/2-y,z
1/2+x,1/2-y,-z
1/2-x,1/2+y,-z
1/2-x,1/2-y,-z
1/2+x,1/2+y,-z
1/2-x,1/2+y,z
1/2+x,1/2-y,z
loop_
_atom_site_type_symbol
_atom_site_label
_atom_site_fract_x
_atom_site_fract_y
_atom_site_fract_z
Si Si1 0.169575 0.311272 0.380228
Si Si2 0.917539 0.689194 0.257823
Si Si3 0.082816 0.188506 0.500000
Si Si4 0.170004 0.190088 0.000000
Si Si5 0.582454 0.689356 0.121983
O O1 0.170362 0.500000 0.381490
O O2 0.250000 0.250000 0.384334
O O3 0.131766 0.258806 0.315387
O O4 0.123273 0.251009 0.438633
O O5 0.917451 0.500000 0.256871
O O6 0.893111 0.749320 0.189786
O O7 0.000000 0.740887 0.267106
O O8 0.000000 0.238439 0.500000
O O9 0.085225 0.000000 0.500000
O O10 0.250000 0.250000 0.000000
O O11 0.128997 0.242722 0.937057
O O12 0.169474 0.000000 0.000000
O O13 0.500000 0.738720 0.113599
O O14 0.583734 0.500000 0.123262
#
# Coordination Sequence:
#
# PCOD9491316 Si02
#       5
#    16  16   8   8  16
#     4  11  23  39  59  83 115 151 185 224 273 327
#     4   9  19  36  57  81 108 140 180 224 270 322
#     4  11  24  41  62  87 113 143 184 231 274 323
#     4  10  21  35  51  75 107 140 176 218 268 324
#     4   9  18  34  56  78 102 137 180 224 267 315
#
# _framework density 18.827559000000001
#
# number of rings (size 3 to 8) (size 9 to 14) (size 15 to 20)
#    0.000    2.125    0.000    2.625    0.000    7.500 
#    0.000    7.500    0.000    3.750    0.000    0.000 
#    0.000    0.000    0.000    0.000    0.000    0.000 
#
# Total GULP energy -178726.105362 kJ/mol
# GULP energy per Si atom -5585.190793 kJ/mol
# Density = 1.878471 g / cm^3
# Si number density = 18.827559 Si / 1000 Ang^3
#
#
#
# Elastic Constant Matrix: (Units=GPa)
#
#
# Indices 1 2 3 4 5 6 
#
# 1 148.1203 31.5775 131.6755 0.0000 0.0000 0.0000
# 2 31.5775 23.5552 36.6653 0.0000 0.0000 0.0000
# 3 131.6755 36.6653 225.2305 0.0000 0.0000 0.0000
# 4 0.0000 0.0000 0.0000 -165.7917 0.0000 0.0000
# 5 0.0000 0.0000 0.0000 0.0000 23.2536 0.0000
# 6 0.0000 0.0000 0.0000 0.0000 0.0000 22.2405
#
#
#
# Elastic Compliance Matrix: (Units=1/GPa)
#
#
# Indices 1 2 3 4 5 6 
#
# 1 0.015316 -0.008833 -0.007516 0.000000 0.000000 0.000000
# 2 -0.008833 0.061956 -0.004922 0.000000 0.000000 0.000000
# 3 -0.007516 -0.004922 0.009635 0.000000 0.000000 0.000000
# 4 0.000000 0.000000 0.000000 -0.006032 0.000000 0.000000
# 5 0.000000 0.000000 0.000000 0.000000 0.043004 0.000000
# 6 0.000000 0.000000 0.000000 0.000000 0.000000 0.044963
#
#
# Mechanical properties :
#
#
# Convention : Reuss Voigt Hill
#
# Bulk Modulus (GPa) = 22.54017 88.52696 55.53356
# Shear Modulus (GPa) = 22.10696 -10.92700 5.58998
#
# Velocity S-wave (km/s) = 3.43035 -2.41171 1.72496
# Velocity P-wave (km/s) = 5.26190 6.27430 5.79027
#
# Compressibility (1/GPa) = 0.04436525
#
# Stress axis : x y z
#
# Youngs Moduli (GPa) = 65.29051 16.14055 103.78428
#
# Poissons Ratio (x) = 0.14257 0.78008
# Poissons Ratio (y) = 0.57670 0.51082
# Poissons Ratio (z) = 0.49075 0.07944
#
# Static dielectric constant tensor:
#      x y z
#    x 1.626990 0.000000 0.000000 
#    y 0.000000 1.645570 0.000000 
#    z 0.000000 0.000000 1.631730 
# 
# From -- ./inp_files/58778.got.cif
#   From: 2010.05.17/outbox.cif.g08.bks.cpg/sg65_30_cif.got.tgz:58778.got - 2010.06.03 17:01:31.
