data_PCOD9491728
_publ_section_title
;
Structure prediction by ZEFSAII (Michael W. Deem and Ramdas Pophale) SiO2 
 PCOD9491728
Probable space group: C M M M
;
_chemical_formula_sum "Si O2"
_cell_formula_units_Z 72
_cell_length_a 8.883746
_cell_length_b 18.784689
_cell_length_c 23.848150
_cell_angle_alpha 90.000000
_cell_angle_beta 90.000000
_cell_angle_gamma 90.000000
_cell_volume 3979.741252
_symmetry_space_group_name_H-M "C M M M"
_symmetry_group_IT_number 65
_symmetry_cell_setting 'orthorhombic'
loop_
_space_group_symop_operation_xyz
x,y,z
-x,-y,z
x,-y,-z
-x,y,-z
-x,-y,-z
x,y,-z
-x,y,z
x,-y,z
1/2+x,1/2+y,z
1/2-x,1/2-y,z
1/2+x,1/2-y,-z
1/2-x,1/2+y,-z
1/2-x,1/2-y,-z
1/2+x,1/2+y,-z
1/2-x,1/2+y,z
1/2+x,1/2-y,z
loop_
_atom_site_type_symbol
_atom_site_label
_atom_site_fract_x
_atom_site_fract_y
_atom_site_fract_z
Si Si1 0.681266 0.172541 0.436457
Si Si2 0.818980 0.828506 0.773494
Si Si3 0.680934 0.582760 0.116563
Si Si4 0.681772 0.917075 0.671374
Si Si5 0.326245 0.086508 0.000000
O O1 0.726120 0.152091 0.500000
O O2 0.500000 0.178432 0.435597
O O3 0.750000 0.250000 0.424364
O O4 0.724807 0.117112 0.388431
O O5 0.750000 0.750000 0.772535
O O6 0.774531 0.869625 0.830562
O O7 0.758376 0.873052 0.720882
O O8 0.000000 0.824686 0.771336
O O9 0.500000 0.583475 0.112447
O O10 0.727302 0.500000 0.125299
O O11 0.747870 0.609116 0.057678
O O12 0.500000 0.911557 0.676716
O O13 0.722538 0.000000 0.674294
O O14 0.500000 0.107482 0.000000
O O15 0.317603 0.000000 0.000000
#
# Coordination Sequence:
#
# PCOD9491728 Si02
#       5
#    16  16  16  16   8
#     4   9  18  33  53  77 106 141 179 217 260 313
#     4  11  23  38  56  78 106 141 180 221 268 320
#     4   9  18  34  55  77 103 137 175 213 257 312
#     4  10  21  36  55  80 108 139 177 222 270 317
#     4   9  17  29  50  81 110 135 167 211 260 307
#
# _framework density 18.091629000000001
#
# number of rings (size 3 to 8) (size 9 to 14) (size 15 to 20)
#    0.000    2.333    0.000    2.333    0.000    7.556 
#    0.000    5.000    0.000    0.000    0.000    4.667 
#    0.000    0.000    0.000    0.000    0.000    0.000 
#
# Total GULP energy -200923.619972 kJ/mol
# GULP energy per Si atom -5581.211666 kJ/mol
# Density = 1.805045 g / cm^3
# Si number density = 18.091629 Si / 1000 Ang^3
#
#
#
# Elastic Constant Matrix: (Units=GPa)
#
#
# Indices 1 2 3 4 5 6 
#
# 1 24.4545 43.7716 52.1456 0.0000 0.0000 0.0000
# 2 43.7716 137.7396 117.3068 0.0000 0.0000 0.0000
# 3 52.1456 117.3068 183.4912 0.0000 0.0000 0.0000
# 4 0.0000 0.0000 0.0000 -686.8683 0.0000 0.0000
# 5 0.0000 0.0000 0.0000 0.0000 0.4742 0.0000
# 6 0.0000 0.0000 0.0000 0.0000 0.0000 19.0921
#
#
#
# Elastic Compliance Matrix: (Units=1/GPa)
#
#
# Indices 1 2 3 4 5 6 
#
# 1 0.126581 -0.021051 -0.022515 0.000000 0.000000 0.000000
# 2 -0.021051 0.019438 -0.006445 0.000000 0.000000 0.000000
# 3 -0.022515 -0.006445 0.015968 0.000000 0.000000 0.000000
# 4 0.000000 0.000000 0.000000 -0.001456 0.000000 0.000000
# 5 0.000000 0.000000 0.000000 0.000000 2.108879 0.000000
# 6 0.000000 0.000000 0.000000 0.000000 0.000000 0.052378
#
#
# Mechanical properties :
#
#
# Convention : Reuss Voigt Hill
#
# Bulk Modulus (GPa) = 16.13757 85.79258 50.96508
# Shear Modulus (GPa) = 2.04711 -124.62965 -61.29127
#
# Velocity S-wave (km/s) = 1.06489 -8.30888 -5.82682
# Velocity P-wave (km/s) = 3.23284 6.67278 4.12764
#
# Compressibility (1/GPa) = 0.06196721
#
# Stress axis : x y z
#
# Youngs Moduli (GPa) = 7.90011 51.44460 62.62393
#
# Poissons Ratio (x) = 1.08295 1.40995
# Poissons Ratio (y) = 0.16630 0.40359
# Poissons Ratio (z) = 0.17787 0.33155
#
# Static dielectric constant tensor:
#      x y z
#    x 1.609560 0.000000 0.000000 
#    y 0.000000 1.593090 0.000000 
#    z 0.000000 0.000000 1.612540 
# 
# From -- ./inp_files/59275.got.cif
#   From: 2010.05.17/outbox.cif.g08.bks.cpg/sg65_30_cif.got.tgz:59275.got - 2010.06.03 17:01:31.
