data_PCOD9491581
_publ_section_title
;
Structure prediction by ZEFSAII (Michael W. Deem and Ramdas Pophale) SiO2 
 PCOD9491581
Probable space group: C M M M
;
_chemical_formula_sum "Si O2"
_cell_formula_units_Z 48
_cell_length_a 10.549812
_cell_length_b 15.524243
_cell_length_c 14.346156
_cell_angle_alpha 90.000000
_cell_angle_beta 90.000000
_cell_angle_gamma 90.000000
_cell_volume 2349.582515
_symmetry_space_group_name_H-M "C M M M"
_symmetry_group_IT_number 65
_symmetry_cell_setting 'orthorhombic'
loop_
_space_group_symop_operation_xyz
x,y,z
-x,-y,z
x,-y,-z
-x,y,-z
-x,-y,-z
x,y,-z
-x,y,z
x,-y,z
1/2+x,1/2+y,z
1/2-x,1/2-y,z
1/2+x,1/2-y,-z
1/2-x,1/2+y,-z
1/2-x,1/2-y,-z
1/2+x,1/2+y,-z
1/2-x,1/2+y,z
1/2+x,1/2-y,z
loop_
_atom_site_type_symbol
_atom_site_label
_atom_site_fract_x
_atom_site_fract_y
_atom_site_fract_z
Si Si1 0.861672 0.310984 0.388005
Si Si2 0.143793 0.000000 0.201208
Si Si3 0.745743 0.000000 0.607236
Si Si4 0.851127 0.175406 0.111573
O O1 0.866436 0.296387 0.500000
O O2 0.750000 0.250000 0.351570
O O3 0.832609 0.412206 0.377965
O O4 0.000000 0.289269 0.349447
O O5 0.197080 0.911182 0.161974
O O6 0.150114 0.000000 0.312604
O O7 0.000000 0.000000 0.166817
O O8 0.791622 0.000000 0.500000
O O9 0.750000 0.250000 0.131580
O O10 0.000000 0.193065 0.137174
O O11 0.850593 0.161322 0.000000
#
# Coordination Sequence:
#
# PCOD9491581 Si02
#       4
#    16   8   8  16
#     4   9  18  34  55  76  99 133 181 234 283 328
#     4  10  21  36  55  82 114 148 188 230 274 328
#     4  10  21  36  53  75 109 153 194 231 273 320
#     4   9  18  36  62  88 114 144 178 222 279 339
#
# _framework density 20.429161000000001
#
# number of rings (size 3 to 8) (size 9 to 14) (size 15 to 20)
#    0.000    2.667    0.000    1.000    0.000    7.000 
#    0.000   10.833    0.000    4.000    0.000    0.000 
#    0.000    0.000    0.000    0.000    0.000    0.000 
#
# Total GULP energy -133842.200526 kJ/mol
# GULP energy per Si atom -5576.758355 kJ/mol
# Density = 2.038266 g / cm^3
# Si number density = 20.429161 Si / 1000 Ang^3
#
#
#
# Elastic Constant Matrix: (Units=GPa)
#
#
# Indices 1 2 3 4 5 6 
#
# 1 116.8173 93.6832 25.9414 0.0000 0.0000 0.0000
# 2 93.6832 162.2557 52.9797 0.0000 0.0000 0.0000
# 3 25.9414 52.9797 82.2646 0.0000 0.0000 0.0000
# 4 0.0000 0.0000 0.0000 -25.5690 0.0000 0.0000
# 5 0.0000 0.0000 0.0000 0.0000 10.8603 0.0000
# 6 0.0000 0.0000 0.0000 0.0000 0.0000 13.5280
#
#
#
# Elastic Compliance Matrix: (Units=1/GPa)
#
#
# Indices 1 2 3 4 5 6 
#
# 1 0.016027 -0.009628 0.001147 0.000000 0.000000 0.000000
# 2 -0.009628 0.013588 -0.005715 0.000000 0.000000 0.000000
# 3 0.001147 -0.005715 0.015475 0.000000 0.000000 0.000000
# 4 0.000000 0.000000 0.000000 -0.039110 0.000000 0.000000
# 5 0.000000 0.000000 0.000000 0.000000 0.092079 0.000000
# 6 0.000000 0.000000 0.000000 0.000000 0.000000 0.073921
#
#
# Mechanical properties :
#
#
# Convention : Reuss Voigt Hill
#
# Bulk Modulus (GPa) = 59.88951 78.50515 69.19733
# Shear Modulus (GPa) = 24.27910 12.34607 18.31259
#
# Velocity S-wave (km/s) = 3.45114 2.46099 2.99723
# Velocity P-wave (km/s) = 6.72754 6.82545 6.77667
#
# Compressibility (1/GPa) = 0.01669741
#
# Stress axis : x y z
#
# Youngs Moduli (GPa) = 62.39396 73.59295 64.62128
#
# Poissons Ratio (x) = 0.70857 -0.07410
# Poissons Ratio (y) = 0.60074 0.36930
# Poissons Ratio (z) = -0.07155 0.42058
#
# Static dielectric constant tensor:
#      x y z
#    x 1.736420 0.000000 0.000000 
#    y 0.000000 1.757070 0.000000 
#    z 0.000000 0.000000 1.717410 
# 
# From -- ./inp_files/37338.got.cif
#   From: 2010.05.17/outbox.cif.g08.bks.cpg/sg65_19_cif.got.tgz:37338.got - 2010.06.03 17:01:31.
