data_PCOD9491263
_publ_section_title
;
Structure prediction by ZEFSAII (Michael W. Deem and Ramdas Pophale) SiO2 
 PCOD9491263
Probable space group: C M M M
;
_chemical_formula_sum "Si O2"
_cell_formula_units_Z 80
_cell_length_a 7.598360
_cell_length_b 26.401848
_cell_length_c 18.004966
_cell_angle_alpha 90.000000
_cell_angle_beta 90.000000
_cell_angle_gamma 90.000000
_cell_volume 3611.989657
_symmetry_space_group_name_H-M "C M M M"
_symmetry_group_IT_number 65
_symmetry_cell_setting 'orthorhombic'
loop_
_space_group_symop_operation_xyz
x,y,z
-x,-y,z
x,-y,-z
-x,y,-z
-x,-y,-z
x,y,-z
-x,y,z
x,-y,z
1/2+x,1/2+y,z
1/2-x,1/2-y,z
1/2+x,1/2-y,-z
1/2-x,1/2+y,-z
1/2-x,1/2-y,-z
1/2+x,1/2+y,-z
1/2-x,1/2+y,z
1/2+x,1/2-y,z
loop_
_atom_site_type_symbol
_atom_site_label
_atom_site_fract_x
_atom_site_fract_y
_atom_site_fract_z
Si Si1 0.211277 0.692170 0.915701
Si Si2 0.288959 0.114242 0.208076
Si Si3 0.802111 0.500000 0.208128
Si Si4 0.214283 0.000000 0.626407
Si Si5 0.202907 0.070274 0.500000
Si Si6 0.796282 0.811355 0.500000
Si Si7 0.708681 0.695006 0.334149
O O1 0.250000 0.750000 0.893853
O O2 0.278083 0.651469 0.856723
O O3 0.000000 0.687036 0.917415
O O4 0.277443 0.684771 0.000000
O O5 0.500000 0.109560 0.202985
O O6 0.220799 0.056470 0.195792
O O7 0.258656 0.146133 0.284523
O O8 0.808821 0.500000 0.296769
O O9 0.000000 0.500000 0.175073
O O10 0.271968 0.952946 0.575671
O O11 0.000000 0.000000 0.639821
O O12 0.202393 0.128862 0.500000
O O13 0.000000 0.053401 0.500000
O O14 0.714917 0.801242 0.418453
O O15 0.000000 0.792072 0.500000
O O16 0.500000 0.690587 0.342979
O O17 0.750000 0.750000 0.298103
#
# Coordination Sequence:
#
# PCOD9491263 Si02
#       7
#    16  16   8   8   8   8  16
#     4   9  18  34  57  83 109 137 171 212 258 310
#     4  10  21  37  55  78 109 142 177 217 264 315
#     4  10  21  35  50  72 106 141 170 212 264 307
#     4   9  16  28  48  69  91 126 174 220 259 306
#     4   8  14  26  45  68  91 120 165 220 266 303
#     4   9  18  31  47  70 101 135 172 215 263 315
#     4  11  22  36  55  78 105 139 179 222 268 317
#
# _framework density 22.148457000000001
#
# number of rings (size 3 to 8) (size 9 to 14) (size 15 to 20)
#    0.000    2.400    0.000    3.300    0.000    4.800 
#    0.000    3.000    0.000   10.200    0.000    0.000 
#    0.000    5.600    0.000    0.000    0.000    0.000 
#
# Total GULP energy -222802.018150 kJ/mol
# GULP energy per Si atom -5570.050454 kJ/mol
# Density = 2.209805 g / cm^3
# Si number density = 22.148457 Si / 1000 Ang^3
#
#
#
# Elastic Constant Matrix: (Units=GPa)
#
#
# Indices 1 2 3 4 5 6 
#
# 1 57.3946 6.6013 4.2805 0.0000 0.0000 0.0000
# 2 6.6013 213.8002 78.6957 0.0000 0.0000 0.0000
# 3 4.2805 78.6957 116.4712 0.0000 0.0000 0.0000
# 4 0.0000 0.0000 0.0000 64.1534 0.0000 0.0000
# 5 0.0000 0.0000 0.0000 0.0000 19.8045 0.0000
# 6 0.0000 0.0000 0.0000 0.0000 0.0000 13.6658
#
#
#
# Elastic Compliance Matrix: (Units=1/GPa)
#
#
# Indices 1 2 3 4 5 6 
#
# 1 0.017497 -0.000404 -0.000370 0.000000 0.000000 0.000000
# 2 -0.000404 0.006235 -0.004198 0.000000 0.000000 0.000000
# 3 -0.000370 -0.004198 0.011436 0.000000 0.000000 0.000000
# 4 0.000000 0.000000 0.000000 0.015588 0.000000 0.000000
# 5 0.000000 0.000000 0.000000 0.000000 0.050494 0.000000
# 6 0.000000 0.000000 0.000000 0.000000 0.000000 0.073175
#
#
# Mechanical properties :
#
#
# Convention : Reuss Voigt Hill
#
# Bulk Modulus (GPa) = 39.64467 62.98012 51.31240
# Shear Modulus (GPa) = 25.93676 39.39729 32.66703
#
# Velocity S-wave (km/s) = 3.42576 4.22214 3.84462
# Velocity P-wave (km/s) = 5.79536 7.22951 6.55179
#
# Compressibility (1/GPa) = 0.02522407
#
# Stress axis : x y z
#
# Youngs Moduli (GPa) = 57.15160 160.38774 87.44497
#
# Poissons Ratio (x) = 0.06480 0.03236
# Poissons Ratio (y) = 0.02309 0.36708
# Poissons Ratio (z) = 0.02115 0.67329
#
# Static dielectric constant tensor:
#      x y z
#    x 1.730700 0.000000 0.000000 
#    y 0.000000 1.841850 0.000000 
#    z 0.000000 0.000000 1.825220 
# 
# From -- ./inp_files/50021.got.cif
#   From: 2010.05.17/outbox.cif.g08.bks.cpg/sg65_26_cif.got.tgz:50021.got - 2010.06.03 17:01:31.
