data_PCOD9491722
_publ_section_title
;
Structure prediction by ZEFSAII (Michael W. Deem and Ramdas Pophale) SiO2 
 PCOD9491722
Probable space group: C M M M
;
_chemical_formula_sum "Si O2"
_cell_formula_units_Z 80
_cell_length_a 18.797619
_cell_length_b 8.603607
_cell_length_c 26.886145
_cell_angle_alpha 90.000000
_cell_angle_beta 90.000000
_cell_angle_gamma 90.000000
_cell_volume 4348.224348
_symmetry_space_group_name_H-M "C M M M"
_symmetry_group_IT_number 65
_symmetry_cell_setting 'orthorhombic'
loop_
_space_group_symop_operation_xyz
x,y,z
-x,-y,z
x,-y,-z
-x,y,-z
-x,-y,-z
x,y,-z
-x,y,z
x,-y,z
1/2+x,1/2+y,z
1/2-x,1/2-y,z
1/2+x,1/2-y,-z
1/2-x,1/2+y,-z
1/2-x,1/2-y,-z
1/2+x,1/2+y,-z
1/2-x,1/2+y,z
1/2+x,1/2-y,z
loop_
_atom_site_type_symbol
_atom_site_label
_atom_site_fract_x
_atom_site_fract_y
_atom_site_fract_z
Si Si1 0.914528 0.185241 0.945990
Si Si2 0.829767 0.313231 0.255087
Si Si3 0.170886 0.187655 0.556159
Si Si4 0.417753 0.186911 0.158680
Si Si5 0.582108 0.311767 0.651633
O O1 0.888594 0.259864 0.894900
O O2 0.000000 0.212177 0.946426
O O3 0.903747 0.000000 0.943746
O O4 0.887216 0.241378 0.000000
O O5 0.828283 0.500000 0.255403
O O6 0.750000 0.250000 0.256180
O O7 0.870561 0.260256 0.205042
O O8 0.872920 0.254695 0.302839
O O9 0.150765 0.236849 0.500000
O O10 0.250000 0.250000 0.566377
O O11 0.117411 0.237365 0.599407
O O12 0.173330 0.000000 0.556577
O O13 0.500000 0.241664 0.164073
O O14 0.419315 0.000000 0.159103
O O15 0.500000 0.263361 0.654881
O O16 0.584580 0.500000 0.653726
#
# Coordination Sequence:
#
# PCOD9491722 Si02
#       5
#    16  16  16  16  16
#     4   8  14  25  43  70 102 132 162 199 245 296
#     4  11  23  38  55  75 102 136 174 216 262 312
#     4   9  18  33  53  77 106 140 176 213 253 300
#     4   9  18  32  50  73 100 130 165 206 253 303
#     4  10  21  36  55  80 107 136 173 215 260 310
#
# _framework density 18.398313999999999
#
# number of rings (size 3 to 8) (size 9 to 14) (size 15 to 20)
#    0.000    2.600    0.000    2.400    0.000    6.000 
#    0.000    6.000    0.000    0.600    0.000    4.200 
#    0.000    0.000    0.000    0.000    0.000    0.000 
#
# Total GULP energy -223059.867516 kJ/mol
# GULP energy per Si atom -5576.496688 kJ/mol
# Density = 1.835644 g / cm^3
# Si number density = 18.398314 Si / 1000 Ang^3
#
#
#
# Elastic Constant Matrix: (Units=GPa)
#
#
# Indices 1 2 3 4 5 6 
#
# 1 116.4785 22.6752 109.6262 0.0000 0.0000 0.0000
# 2 22.6752 7.8787 33.2672 0.0000 0.0000 0.0000
# 3 109.6262 33.2672 199.5934 0.0000 0.0000 0.0000
# 4 0.0000 0.0000 0.0000 29.7532 0.0000 0.0000
# 5 0.0000 0.0000 0.0000 0.0000 -34.4948 0.0000
# 6 0.0000 0.0000 0.0000 0.0000 0.0000 16.1446
#
#
#
# Elastic Compliance Matrix: (Units=1/GPa)
#
#
# Indices 1 2 3 4 5 6 
#
# 1 0.020851 -0.039340 -0.004896 0.000000 0.000000 0.000000
# 2 -0.039340 0.502696 -0.062180 0.000000 0.000000 0.000000
# 3 -0.004896 -0.062180 0.018063 0.000000 0.000000 0.000000
# 4 0.000000 0.000000 0.000000 0.033610 0.000000 0.000000
# 5 0.000000 0.000000 0.000000 0.000000 -0.028990 0.000000
# 6 0.000000 0.000000 0.000000 0.000000 0.000000 0.061940
#
#
# Mechanical properties :
#
#
# Convention : Reuss Voigt Hill
#
# Bulk Modulus (GPa) = 3.04154 72.78755 37.91454
# Shear Modulus (GPa) = 5.37291 12.83940 9.10616
#
# Velocity S-wave (km/s) = 1.71075 2.64457 2.22715
# Velocity P-wave (km/s) = 2.35775 6.99807 5.22168
#
# Compressibility (1/GPa) = 0.32878067
#
# Stress axis : x y z
#
# Youngs Moduli (GPa) = 47.95893 1.98927 55.36235
#
# Poissons Ratio (x) = 0.07826 0.27103
# Poissons Ratio (y) = 1.88669 3.44241
# Poissons Ratio (z) = 0.23478 0.12369
#
# Static dielectric constant tensor:
#      x y z
#    x 1.606920 0.000000 0.000000 
#    y 0.000000 1.627140 0.000000 
#    z 0.000000 0.000000 1.619260 
# 
# From -- ./inp_files/72730.got.cif
#   From: 2010.05.17/outbox.cif.g08.bks.cpg/sg65_37_cif.got.tgz:72730.got - 2010.06.03 17:01:31.
