data_PCOD9491083
_publ_section_title
;
Structure prediction by ZEFSAII (Michael W. Deem and Ramdas Pophale) SiO2 
 PCOD9491083
Probable space group: C M M M
;
_chemical_formula_sum "Si O2"
_cell_formula_units_Z 48
_cell_length_a 14.661039
_cell_length_b 7.501343
_cell_length_c 20.181894
_cell_angle_alpha 90.000000
_cell_angle_beta 90.000000
_cell_angle_gamma 90.000000
_cell_volume 2219.553890
_symmetry_space_group_name_H-M "C M M M"
_symmetry_group_IT_number 65
_symmetry_cell_setting 'orthorhombic'
loop_
_space_group_symop_operation_xyz
x,y,z
-x,-y,z
x,-y,-z
-x,y,-z
-x,-y,-z
x,y,-z
-x,y,z
x,-y,z
1/2+x,1/2+y,z
1/2-x,1/2-y,z
1/2+x,1/2-y,-z
1/2-x,1/2+y,-z
1/2-x,1/2-y,-z
1/2+x,1/2+y,-z
1/2-x,1/2+y,z
1/2+x,1/2-y,z
loop_
_atom_site_type_symbol
_atom_site_label
_atom_site_fract_x
_atom_site_fract_y
_atom_site_fract_z
Si Si1 0.888702 0.000000 0.604643
Si Si2 0.856234 0.711490 0.000000
Si Si3 0.393105 0.199174 0.146018
Si Si4 0.388679 0.795671 0.500000
Si Si5 0.387539 0.500000 0.243819
O O1 0.861587 0.176233 0.563413
O O2 0.857393 0.000000 0.680272
O O3 0.000000 0.000000 0.605090
O O4 0.750000 0.750000 0.000000
O O5 0.888426 0.777487 0.071534
O O6 0.878871 0.500000 0.000000
O O7 0.500000 0.181069 0.160352
O O8 0.356213 0.329333 0.201775
O O9 0.351919 0.000000 0.145539
O O10 0.500000 0.801905 0.500000
O O11 0.356099 0.000000 0.500000
O O12 0.500000 0.500000 0.243996
#
# Coordination Sequence:
#
# PCOD9491083 Si02
#       5
#     8   8  16   8   8
#     4   8  14  23  33  54  82 109 151 186 208 253
#     4  10  21  33  48  68  88 114 151 193 234 276
#     4   9  18  32  47  64  87 116 152 192 233 275
#     4   8  13  21  34  51  79 118 149 176 210 250
#     4   9  17  27  43  63  85 117 151 189 229 265
#
# _framework density 21.625965999999998
#
# number of rings (size 3 to 8) (size 9 to 14) (size 15 to 20)
#    0.000    3.167    0.000    1.500    2.333    3.333 
#    0.000    9.167    0.000    0.000    0.000    0.000 
#    0.000    0.000    0.000    6.000    2.667    7.000 
#
# Total GULP energy -133833.770995 kJ/mol
# GULP energy per Si atom -5576.407125 kJ/mol
# Density = 2.157674 g / cm^3
# Si number density = 21.625966 Si / 1000 Ang^3
#
#
#
# Elastic Constant Matrix: (Units=GPa)
#
#
# Indices 1 2 3 4 5 6 
#
# 1 38.2016 4.9054 -2.9453 0.0000 0.0000 0.0000
# 2 4.9054 162.7284 121.2792 0.0000 0.0000 0.0000
# 3 -2.9453 121.2792 240.7133 0.0000 0.0000 0.0000
# 4 0.0000 0.0000 0.0000 19.7858 0.0000 0.0000
# 5 0.0000 0.0000 0.0000 0.0000 -28.2414 0.0000
# 6 0.0000 0.0000 0.0000 0.0000 0.0000 7.0565
#
#
#
# Elastic Compliance Matrix: (Units=1/GPa)
#
#
# Indices 1 2 3 4 5 6 
#
# 1 0.026480 -0.001665 0.001163 0.000000 0.000000 0.000000
# 2 -0.001665 0.009945 -0.005031 0.000000 0.000000 0.000000
# 3 0.001163 -0.005031 0.006703 0.000000 0.000000 0.000000
# 4 0.000000 0.000000 0.000000 0.050541 0.000000 0.000000
# 5 0.000000 0.000000 0.000000 0.000000 -0.035409 0.000000
# 6 0.000000 0.000000 0.000000 0.000000 0.000000 0.141714
#
#
# Mechanical properties :
#
#
# Convention : Reuss Voigt Hill
#
# Bulk Modulus (GPa) = 31.18903 76.45798 53.82350
# Shear Modulus (GPa) = 22.55008 20.94709 21.74858
#
# Velocity S-wave (km/s) = 3.23264 3.11562 3.17467
# Velocity P-wave (km/s) = 5.32791 6.95516 6.19520
#
# Compressibility (1/GPa) = 0.03206255
#
# Stress axis : x y z
#
# Youngs Moduli (GPa) = 37.76386 100.55433 149.18048
#
# Poissons Ratio (x) = 0.16741 -0.17347
# Poissons Ratio (y) = 0.06287 0.75052
# Poissons Ratio (z) = -0.04391 0.50588
#
# Static dielectric constant tensor:
#      x y z
#    x 1.790240 0.000000 0.000000 
#    y 0.000000 1.830460 0.000000 
#    z 0.000000 0.000000 1.758380 
# 
# From -- ./inp_files/41675.got.cif
#   From: 2010.05.17/outbox.cif.g08.bks.cpg/sg65_21_cif.got.tgz:41675.got - 2010.06.03 17:01:31.
