data_PCOD9491915
_publ_section_title
;
Structure prediction by ZEFSAII (Michael W. Deem and Ramdas Pophale) SiO2 
 PCOD9491915
Probable space group: C M M M
;
_chemical_formula_sum "Si O2"
_cell_formula_units_Z 88
_cell_length_a 25.943571
_cell_length_b 9.172246
_cell_length_c 25.447940
_cell_angle_alpha 90.000000
_cell_angle_beta 90.000000
_cell_angle_gamma 90.000000
_cell_volume 6055.612551
_symmetry_space_group_name_H-M "C M M M"
_symmetry_group_IT_number 65
_symmetry_cell_setting 'orthorhombic'
loop_
_space_group_symop_operation_xyz
x,y,z
-x,-y,z
x,-y,-z
-x,y,-z
-x,-y,-z
x,y,-z
-x,y,z
x,-y,z
1/2+x,1/2+y,z
1/2-x,1/2-y,z
1/2+x,1/2-y,-z
1/2-x,1/2+y,-z
1/2-x,1/2-y,-z
1/2+x,1/2+y,-z
1/2-x,1/2+y,z
1/2+x,1/2-y,z
loop_
_atom_site_type_symbol
_atom_site_label
_atom_site_fract_x
_atom_site_fract_y
_atom_site_fract_z
Si Si1 0.901533 0.675538 0.384062
Si Si2 0.500000 0.327640 0.436932
Si Si3 0.560396 0.173579 0.731114
Si Si4 0.804479 0.172534 0.437267
Si Si5 0.437412 0.829238 0.942069
Si Si6 0.062776 0.831716 0.837178
O O1 0.902102 0.500000 0.391237
O O2 0.949846 0.748157 0.413774
O O3 0.909123 0.706398 0.322094
O O4 0.849894 0.746596 0.406584
O O5 0.500000 0.500000 0.423138
O O6 0.500000 0.316806 0.500000
O O7 0.500000 0.212786 0.722225
O O8 0.579130 0.252666 0.783661
O O9 0.562027 0.000000 0.739912
O O10 0.814131 0.186166 0.500000
O O11 0.750000 0.250000 0.426241
O O12 0.802704 0.000000 0.425035
O O13 0.500000 0.820669 0.942016
O O14 0.419010 0.743439 0.890969
O O15 0.424440 0.000000 0.937421
O O16 0.420446 0.776578 0.000000
O O17 0.000000 0.823128 0.837577
O O18 0.077365 0.000000 0.836302
#
# Coordination Sequence:
#
# PCOD9491915 Si02
#       6
#    16   8  16  16  16  16
#     4  11  21  34  51  71  92 118 151 186 225 268
#     4  11  23  35  47  67  95 123 148 179 222 271
#     4   9  17  30  43  57  81 112 145 177 213 260
#     4  10  21  37  55  74  94 117 146 181 223 270
#     4   8  13  21  32  45  63  92 130 170 212 254
#     4   9  16  23  33  51  72  98 133 173 216 254
#
# _framework density 14.531973000000001
#
# number of rings (size 3 to 8) (size 9 to 14) (size 15 to 20)
#    0.000    2.455    0.909    3.000    0.000    8.000 
#    0.000    1.818    0.000    0.000    0.000    0.000 
#    0.000    0.000    0.000    0.000    0.000    0.909 
#
# Total GULP energy -245205.358169 kJ/mol
# GULP energy per Si atom -5572.849049 kJ/mol
# Density = 1.449890 g / cm^3
# Si number density = 14.531973 Si / 1000 Ang^3
#
#
#
# Elastic Constant Matrix: (Units=GPa)
#
#
# Indices 1 2 3 4 5 6 
#
# 1 67.0274 47.4651 58.0932 0.0000 0.0000 0.0000
# 2 47.4651 94.7824 87.2530 0.0000 0.0000 0.0000
# 3 58.0932 87.2530 135.8708 0.0000 0.0000 0.0000
# 4 0.0000 0.0000 0.0000 14.0299 0.0000 0.0000
# 5 0.0000 0.0000 0.0000 0.0000 4.0445 0.0000
# 6 0.0000 0.0000 0.0000 0.0000 0.0000 17.5468
#
#
#
# Elastic Compliance Matrix: (Units=1/GPa)
#
#
# Indices 1 2 3 4 5 6 
#
# 1 0.025300 -0.006633 -0.006558 0.000000 0.000000 0.000000
# 2 -0.006633 0.027545 -0.014853 0.000000 0.000000 0.000000
# 3 -0.006558 -0.014853 0.019702 0.000000 0.000000 0.000000
# 4 0.000000 0.000000 0.000000 0.071277 0.000000 0.000000
# 5 0.000000 0.000000 0.000000 0.000000 0.247252 0.000000
# 6 0.000000 0.000000 0.000000 0.000000 0.000000 0.056991
#
#
# Mechanical properties :
#
#
# Convention : Reuss Voigt Hill
#
# Bulk Modulus (GPa) = 60.75346 75.92258 68.33802
# Shear Modulus (GPa) = 9.81086 14.11551 11.96318
#
# Velocity S-wave (km/s) = 2.60113 3.12002 2.87231
# Velocity P-wave (km/s) = 7.13573 8.08319 7.62419
#
# Compressibility (1/GPa) = 0.01645997
#
# Stress axis : x y z
#
# Youngs Moduli (GPa) = 39.52559 36.30432 50.75638
#
# Poissons Ratio (x) = 0.24080 0.33286
# Poissons Ratio (y) = 0.26217 0.75387
# Poissons Ratio (z) = 0.25921 0.53922
#
# Static dielectric constant tensor:
#      x y z
#    x 1.445950 0.000000 0.000000 
#    y 0.000000 1.483350 0.000000 
#    z 0.000000 0.000000 1.489850 
# 
# From -- ./inp_files/75340.got.cif
#   From: 2010.05.17/outbox.cif.g08.bks.cpg/sg65_38_cif.got.tgz:75340.got - 2010.06.03 17:01:31.
