data_PCOD9491764
_publ_section_title
;
Structure prediction by ZEFSAII (Michael W. Deem and Ramdas Pophale) SiO2 
 PCOD9491764
Probable space group: C M M M
;
_chemical_formula_sum "Si O2"
_cell_formula_units_Z 80
_cell_length_a 25.980274
_cell_length_b 18.793793
_cell_length_c 8.831816
_cell_angle_alpha 90.000000
_cell_angle_beta 90.000000
_cell_angle_gamma 90.000000
_cell_volume 4312.292178
_symmetry_space_group_name_H-M "C M M M"
_symmetry_group_IT_number 65
_symmetry_cell_setting 'orthorhombic'
loop_
_space_group_symop_operation_xyz
x,y,z
-x,-y,z
x,-y,-z
-x,y,-z
-x,-y,-z
x,y,-z
-x,y,z
x,-y,z
1/2+x,1/2+y,z
1/2-x,1/2-y,z
1/2+x,1/2-y,-z
1/2-x,1/2+y,-z
1/2-x,1/2-y,-z
1/2+x,1/2+y,-z
1/2-x,1/2+y,z
1/2+x,1/2-y,z
loop_
_atom_site_type_symbol
_atom_site_label
_atom_site_fract_x
_atom_site_fract_y
_atom_site_fract_z
Si Si1 0.440961 0.179668 0.681774
Si Si2 0.153203 0.917160 0.681096
Si Si3 0.250988 0.332985 0.181596
Si Si4 0.059834 0.165522 0.819328
Si Si5 0.654716 0.917431 0.317170
O O1 0.438237 0.190498 0.500000
O O2 0.500000 0.159649 0.718687
O O3 0.429193 0.254422 0.762092
O O4 0.399102 0.120534 0.722898
O O5 0.155677 0.910605 0.500000
O O6 0.198317 0.870709 0.754253
O O7 0.098924 0.887856 0.740138
O O8 0.159875 0.000000 0.721201
O O9 0.250000 0.250000 0.226455
O O10 0.201370 0.373775 0.245276
O O11 0.251228 0.336733 0.000000
O O12 0.000000 0.150398 0.782862
O O13 0.066209 0.162299 0.000000
O O14 0.659771 0.914980 0.500000
O O15 0.655893 0.000000 0.271148
#
# Coordination Sequence:
#
# PCOD9491764 Si02
#       5
#    16  16  16  16  16
#     4   9  18  34  57  83 112 149 190 230 273 322
#     4  11  24  40  59  84 113 145 183 228 277 329
#     4  11  24  40  59  83 110 143 185 230 276 330
#     4  10  21  37  58  84 114 148 186 228 273 324
#     4  10  21  36  55  82 115 148 184 228 277 329
#
# _framework density 18.551618999999999
#
# number of rings (size 3 to 8) (size 9 to 14) (size 15 to 20)
#    0.000    1.800    0.000    3.600    0.000   12.000 
#    0.000    4.000    0.000    0.000    0.000    4.200 
#    0.000    0.000    0.000    0.000    0.000    0.000 
#
# Total GULP energy -223547.176839 kJ/mol
# GULP energy per Si atom -5588.679421 kJ/mol
# Density = 1.850939 g / cm^3
# Si number density = 18.551619 Si / 1000 Ang^3
#
#
#
# Elastic Constant Matrix: (Units=GPa)
#
#
# Indices 1 2 3 4 5 6 
#
# 1 111.7213 101.2178 43.7640 0.0000 0.0000 0.0000
# 2 101.2178 172.0277 58.1305 0.0000 0.0000 0.0000
# 3 43.7640 58.1305 32.6834 0.0000 0.0000 0.0000
# 4 0.0000 0.0000 0.0000 -6.0571 0.0000 0.0000
# 5 0.0000 0.0000 0.0000 0.0000 27.3025 0.0000
# 6 0.0000 0.0000 0.0000 0.0000 0.0000 -65.0218
#
#
#
# Elastic Compliance Matrix: (Units=1/GPa)
#
#
# Indices 1 2 3 4 5 6 
#
# 1 0.022145 -0.007543 -0.016237 0.000000 0.000000 0.000000
# 2 -0.007543 0.017139 -0.020382 0.000000 0.000000 0.000000
# 3 -0.016237 -0.020382 0.088590 0.000000 0.000000 0.000000
# 4 0.000000 0.000000 0.000000 -0.165095 0.000000 0.000000
# 5 0.000000 0.000000 0.000000 0.000000 0.036627 0.000000
# 6 0.000000 0.000000 0.000000 0.000000 0.000000 -0.015379
#
#
# Mechanical properties :
#
#
# Convention : Reuss Voigt Hill
#
# Bulk Modulus (GPa) = 25.28484 80.29522 52.79003
# Shear Modulus (GPa) = 58.45554 -1.20062 28.62746
#
# Velocity S-wave (km/s) = 5.61944 -0.80535 3.93252
# Velocity P-wave (km/s) = 7.46747 6.52006 7.00979
#
# Compressibility (1/GPa) = 0.03954939
#
# Stress axis : x y z
#
# Youngs Moduli (GPa) = 45.15643 58.34726 11.28791
#
# Poissons Ratio (x) = 0.44012 0.18328
# Poissons Ratio (y) = 0.34062 0.23007
# Poissons Ratio (z) = 0.73320 1.18926
#
# Static dielectric constant tensor:
#      x y z
#    x 1.622960 0.000000 0.000000 
#    y 0.000000 1.609870 0.000000 
#    z 0.000000 0.000000 1.621680 
# 
# From -- ./inp_files/9643.got.cif
#   From: 2010.05.17/outbox.cif.g08.bks.cpg/sg65_5_cif.got.tgz:9643.got - 2010.06.03 17:01:31.
