data_PCOD9491209
_publ_section_title
;
Structure prediction by ZEFSAII (Michael W. Deem and Ramdas Pophale) SiO2 
 PCOD9491209
Probable space group: C M M M
;
_chemical_formula_sum "Si O2"
_cell_formula_units_Z 72
_cell_length_a 14.621432
_cell_length_b 34.920836
_cell_length_c 8.779975
_cell_angle_alpha 90.000000
_cell_angle_beta 90.000000
_cell_angle_gamma 90.000000
_cell_volume 4482.990517
_symmetry_space_group_name_H-M "C M M M"
_symmetry_group_IT_number 65
_symmetry_cell_setting 'orthorhombic'
loop_
_space_group_symop_operation_xyz
x,y,z
-x,-y,z
x,-y,-z
-x,y,-z
-x,-y,-z
x,y,-z
-x,y,z
x,-y,z
1/2+x,1/2+y,z
1/2-x,1/2-y,z
1/2+x,1/2-y,-z
1/2-x,1/2+y,-z
1/2-x,1/2-y,-z
1/2+x,1/2+y,-z
1/2-x,1/2+y,z
1/2+x,1/2-y,z
loop_
_atom_site_type_symbol
_atom_site_label
_atom_site_fract_x
_atom_site_fract_y
_atom_site_fract_z
Si Si1 0.891947 0.270840 0.819717
Si Si2 0.894052 0.188427 0.681580
Si Si3 0.106768 0.584021 0.684843
Si Si4 0.110976 0.500000 0.324224
Si Si5 0.220457 0.346118 0.817614
O O1 0.870015 0.231700 0.733096
O O2 0.834751 0.307683 0.770553
O O3 0.000000 0.278691 0.799479
O O4 0.875362 0.264374 0.000000
O O5 0.887312 0.185525 0.500000
O O6 0.823205 0.159828 0.759417
O O7 0.000000 0.182054 0.726515
O O8 0.110048 0.583772 0.500000
O O9 0.136050 0.541492 0.741140
O O10 0.170017 0.617271 0.748628
O O11 0.000000 0.590314 0.727301
O O12 0.142413 0.500000 0.500000
O O13 0.000000 0.500000 0.327618
O O14 0.218063 0.348168 0.000000
#
# Coordination Sequence:
#
# PCOD9491209 Si02
#       5
#    16  16  16   8  16
#     4   9  18  32  47  64  91 125 155 185 227 278
#     4  10  21  35  49  65  86 116 158 204 242 275
#     4   9  17  30  49  72  98 127 157 188 222 264
#     4   7  12  26  47  69  94 125 156 183 217 264
#     4  11  21  31  46  69  96 125 156 190 230 277
#
# _framework density 16.060708000000002
#
# number of rings (size 3 to 8) (size 9 to 14) (size 15 to 20)
#    0.000    2.556    0.000    4.000    0.000    7.111 
#    0.000    2.778    0.000    2.000    0.000    0.778 
#    0.000    6.222    0.000    0.000    0.000    0.000 
#
# Total GULP energy -200742.830949 kJ/mol
# GULP energy per Si atom -5576.189749 kJ/mol
# Density = 1.602415 g / cm^3
# Si number density = 16.060708 Si / 1000 Ang^3
#
#
#
# Elastic Constant Matrix: (Units=GPa)
#
#
# Indices 1 2 3 4 5 6 
#
# 1 81.7437 81.7092 29.8500 0.0000 0.0000 0.0000
# 2 81.7092 130.2498 35.6733 0.0000 0.0000 0.0000
# 3 29.8500 35.6733 23.0733 0.0000 0.0000 0.0000
# 4 0.0000 0.0000 0.0000 64.6649 0.0000 0.0000
# 5 0.0000 0.0000 0.0000 0.0000 17.6122 0.0000
# 6 0.0000 0.0000 0.0000 0.0000 0.0000 21.5047
#
#
#
# Elastic Compliance Matrix: (Units=1/GPa)
#
#
# Indices 1 2 3 4 5 6 
#
# 1 0.038038 -0.018011 -0.021363 0.000000 0.000000 0.000000
# 2 -0.018011 0.021845 -0.010473 0.000000 0.000000 0.000000
# 3 -0.021363 -0.010473 0.087169 0.000000 0.000000 0.000000
# 4 0.000000 0.000000 0.000000 0.015464 0.000000 0.000000
# 5 0.000000 0.000000 0.000000 0.000000 0.056779 0.000000
# 6 0.000000 0.000000 0.000000 0.000000 0.000000 0.046502
#
#
# Mechanical properties :
#
#
# Convention : Reuss Voigt Hill
#
# Bulk Modulus (GPa) = 21.11574 58.83686 39.97630
# Shear Modulus (GPa) = 13.11387 26.61198 19.86293
#
# Velocity S-wave (km/s) = 2.86058 4.07500 3.52055
# Velocity P-wave (km/s) = 4.90780 7.67166 6.43976
#
# Compressibility (1/GPa) = 0.04735804
#
# Stress axis : x y z
#
# Youngs Moduli (GPa) = 26.28946 45.77733 11.47201
#
# Poissons Ratio (x) = 0.82451 0.24507
# Poissons Ratio (y) = 0.47351 0.12014
# Poissons Ratio (z) = 0.56162 0.47941
#
# Static dielectric constant tensor:
#      x y z
#    x 1.535240 0.000000 0.000000 
#    y 0.000000 1.537100 0.000000 
#    z 0.000000 0.000000 1.538880 
# 
# From -- ./inp_files/7659.got.cif
#   From: 2010.05.17/outbox.cif.g08.bks.cpg/sg65_4_cif.got.tgz:7659.got - 2010.06.03 17:01:31.
