data_PCOD9491441
_publ_section_title
;
Structure prediction by ZEFSAII (Michael W. Deem and Ramdas Pophale) SiO2 
 PCOD9491441
Probable space group: C M M M
;
_chemical_formula_sum "Si O2"
_cell_formula_units_Z 100
_cell_length_a 20.882648
_cell_length_b 14.530680
_cell_length_c 17.892150
_cell_angle_alpha 90.000000
_cell_angle_beta 90.000000
_cell_angle_gamma 90.000000
_cell_volume 5429.177457
_symmetry_space_group_name_H-M "C M M M"
_symmetry_group_IT_number 65
_symmetry_cell_setting 'orthorhombic'
loop_
_space_group_symop_operation_xyz
x,y,z
-x,-y,z
x,-y,-z
-x,y,-z
-x,-y,-z
x,y,-z
-x,y,z
x,-y,z
1/2+x,1/2+y,z
1/2-x,1/2-y,z
1/2+x,1/2-y,-z
1/2-x,1/2+y,-z
1/2-x,1/2-y,-z
1/2+x,1/2+y,-z
1/2-x,1/2+y,z
1/2+x,1/2-y,z
loop_
_atom_site_type_symbol
_atom_site_label
_atom_site_fract_x
_atom_site_fract_y
_atom_site_fract_z
Si Si1 0.732438 0.607568 0.880806
Si Si2 0.901501 0.606626 0.625829
Si Si3 0.829416 0.101749 0.725286
Si Si4 0.000000 0.667202 0.500000
Si Si5 0.574587 0.234740 0.237364
Si Si6 0.745431 0.139714 0.415883
Si Si7 0.643078 0.225040 0.082746
O O1 0.727166 0.500000 0.901144
O O2 0.723179 0.615260 0.791008
O O3 0.676931 0.674203 0.912200
O O4 0.799146 0.652226 0.905592
O O5 0.921295 0.500000 0.622094
O O6 0.944132 0.660613 0.565582
O O7 0.911923 0.649765 0.707341
O O8 0.826849 0.612843 0.604819
O O9 0.881419 0.181288 0.733844
O O10 0.794321 0.105217 0.646299
O O11 0.857617 0.000000 0.737414
O O12 0.500000 0.257930 0.240973
O O13 0.595743 0.215635 0.152342
O O14 0.760162 0.108896 0.500000
O O15 0.750000 0.250000 0.414089
O O16 0.615353 0.213423 0.000000
#
# Coordination Sequence:
#
# PCOD9491441 Si02
#       7
#    16  16  16   4  16  16  16
#     4   9  18  34  58  86 115 147 182 234 298 348
#     4  12  23  39  62  88 118 155 196 239 288 340
#     4  10  21  38  59  83 113 150 195 243 293 350
#     4  12  25  40  62  92 121 156 207 244 272 338
#     4  11  24  41  59  80 114 156 195 241 294 348
#     4  11  22  35  57  87 119 151 187 235 295 346
#     4  10  21  35  56  86 115 146 191 236 282 352
#
# _framework density 18.418997000000001
#
# number of rings (size 3 to 8) (size 9 to 14) (size 15 to 20)
#    0.000    1.440    3.200    3.120    2.240    4.800 
#    0.000    0.000    0.000    0.000    0.000    8.400 
#    0.000    0.000    0.000    0.000    0.000    0.000 
#
# Total GULP energy -278709.695390 kJ/mol
# GULP energy per Si atom -5574.193908 kJ/mol
# Density = 1.837707 g / cm^3
# Si number density = 18.418997 Si / 1000 Ang^3
#
#
#
# Elastic Constant Matrix: (Units=GPa)
#
#
# Indices 1 2 3 4 5 6 
#
# 1 67.4190 -3.9047 38.4818 0.0000 0.0000 0.0000
# 2 -3.9047 61.1626 9.2566 0.0000 0.0000 0.0000
# 3 38.4818 9.2566 158.5383 0.0000 0.0000 0.0000
# 4 0.0000 0.0000 0.0000 4.3325 0.0000 0.0000
# 5 0.0000 0.0000 0.0000 0.0000 11.5465 0.0000
# 6 0.0000 0.0000 0.0000 0.0000 0.0000 -384.1414
#
#
#
# Elastic Compliance Matrix: (Units=1/GPa)
#
#
# Indices 1 2 3 4 5 6 
#
# 1 0.017405 0.001766 -0.004328 0.000000 0.000000 0.000000
# 2 0.001766 0.016675 -0.001402 0.000000 0.000000 0.000000
# 3 -0.004328 -0.001402 0.007440 0.000000 0.000000 0.000000
# 4 0.000000 0.000000 0.000000 0.230815 0.000000 0.000000
# 5 0.000000 0.000000 0.000000 0.000000 0.086606 0.000000
# 6 0.000000 0.000000 0.000000 0.000000 0.000000 -0.002603
#
#
# Mechanical properties :
#
#
# Convention : Reuss Voigt Hill
#
# Bulk Modulus (GPa) = 29.76893 41.64303 35.70598
# Shear Modulus (GPa) = 13.31687 -57.43339 -22.05826
#
# Velocity S-wave (km/s) = 2.69178 -5.59011 -3.46436
# Velocity P-wave (km/s) = 5.08508 4.35981 1.85069
#
# Compressibility (1/GPa) = 0.03359207
#
# Stress axis : x y z
#
# Youngs Moduli (GPa) = 57.45409 59.97058 134.40864
#
# Poissons Ratio (x) = -0.10592 0.58170
# Poissons Ratio (y) = -0.10147 0.18848
# Poissons Ratio (z) = 0.24865 0.08410
#
# Static dielectric constant tensor:
#      x y z
#    x 1.595530 0.000000 0.000000 
#    y 0.000000 1.656390 0.000000 
#    z 0.000000 0.000000 1.654660 
# 
# From -- ./inp_files/55838.got.cif
#   From: 2010.05.17/outbox.cif.g08.bks.cpg/sg65_28_cif.got.tgz:55838.got - 2010.06.03 17:01:31.
