data_PCOD9491006
_publ_section_title
;
Structure prediction by ZEFSAII (Michael W. Deem and Ramdas Pophale) SiO2 
 PCOD9491006
Probable space group: C M M M
;
_chemical_formula_sum "Si O2"
_cell_formula_units_Z 62
_cell_length_a 18.577915
_cell_length_b 19.708513
_cell_length_c 7.210485
_cell_angle_alpha 90.000000
_cell_angle_beta 90.000000
_cell_angle_gamma 90.000000
_cell_volume 2640.069181
_symmetry_space_group_name_H-M "C M M M"
_symmetry_group_IT_number 65
_symmetry_cell_setting 'orthorhombic'
loop_
_space_group_symop_operation_xyz
x,y,z
-x,-y,z
x,-y,-z
-x,y,-z
-x,-y,-z
x,y,-z
-x,y,z
x,-y,z
1/2+x,1/2+y,z
1/2-x,1/2-y,z
1/2+x,1/2-y,-z
1/2-x,1/2+y,-z
1/2-x,1/2-y,-z
1/2+x,1/2+y,-z
1/2-x,1/2+y,z
1/2+x,1/2-y,z
loop_
_atom_site_type_symbol
_atom_site_label
_atom_site_fract_x
_atom_site_fract_y
_atom_site_fract_z
Si Si1 0.094651 0.500000 0.500000
Si Si2 0.624441 0.123208 0.776503
Si Si3 0.577725 0.727216 0.223916
Si Si4 0.133140 0.000000 0.716879
Si Si5 0.000000 0.000000 0.000000
Si Si6 0.711605 0.358875 0.783815
O O1 0.096782 0.559719 0.661229
O O2 0.582485 0.192941 0.740702
O O3 0.706926 0.139122 0.715774
O O4 0.623466 0.110529 0.000000
O O5 0.500000 0.699775 0.287644
O O6 0.649609 0.690254 0.293386
O O7 0.578218 0.717976 0.000000
O O8 0.180112 0.933961 0.762573
O O9 0.116292 0.000000 0.500000
O O10 0.062850 0.000000 0.840541
O O11 0.718795 0.340295 0.000000
#
# Coordination Sequence:
#
# PCOD9491006 Si02
#       6
#     4  16  16   8   2  16
#     4  12  24  40  69  90 125 166 210 272 330 386
#     4  10  22  41  65  98 128 165 216 270 327 388
#     4   9  19  38  67  94 128 173 217 263 326 389
#     4  12  26  40  64  96 131 175 224 260 316 386
#     4  12  26  48  60  86 148 176 216 270 312 386
#     4  10  20  38  66  95 133 174 212 267 320 377
#
# _framework density 23.484235000000002
#
# number of rings (size 3 to 8) (size 9 to 14) (size 15 to 20)
#    0.000    1.806    1.290    2.129    5.419    5.161 
#    2.323    3.226    0.000    3.097    0.000    0.000 
#    0.000    0.000    0.000    0.000    0.000    0.000 
#
# Total GULP energy -172577.849266 kJ/mol
# GULP energy per Si atom -5567.027396 kJ/mol
# Density = 2.343078 g / cm^3
# Si number density = 23.484235 Si / 1000 Ang^3
#
#
#
# Elastic Constant Matrix: (Units=GPa)
#
#
# Indices 1 2 3 4 5 6 
#
# 1 105.8265 8.0817 2.0012 0.0000 0.0000 0.0000
# 2 8.0817 100.5632 -7.0594 0.0000 0.0000 0.0000
# 3 2.0012 -7.0594 121.7142 0.0000 0.0000 0.0000
# 4 0.0000 0.0000 0.0000 -52.0589 0.0000 0.0000
# 5 0.0000 0.0000 0.0000 0.0000 -5.8845 0.0000
# 6 0.0000 0.0000 0.0000 0.0000 0.0000 181.9816
#
#
#
# Elastic Compliance Matrix: (Units=1/GPa)
#
#
# Indices 1 2 3 4 5 6 
#
# 1 0.009513 -0.000779 -0.000202 0.000000 0.000000 0.000000
# 2 -0.000779 0.010048 0.000596 0.000000 0.000000 0.000000
# 3 -0.000202 0.000596 0.008254 0.000000 0.000000 0.000000
# 4 0.000000 0.000000 0.000000 -0.019209 0.000000 0.000000
# 5 0.000000 0.000000 0.000000 0.000000 -0.169938 0.000000
# 6 0.000000 0.000000 0.000000 0.000000 0.000000 0.005495
#
#
# Mechanical properties :
#
#
# Convention : Reuss Voigt Hill
#
# Bulk Modulus (GPa) = 36.97443 37.12789 37.05116
# Shear Modulus (GPa) = -34.23423 46.47967 6.12272
#
# Velocity S-wave (km/s) = -3.82220 4.45363 1.61642
# Velocity P-wave (km/s) = 1.92363 6.50311 4.39261
#
# Compressibility (1/GPa) = 0.02704572
#
# Stress axis : x y z
#
# Youngs Moduli (GPa) = 105.12257 99.51857 121.15595
#
# Poissons Ratio (x) = 0.07749 0.02442
# Poissons Ratio (y) = 0.08185 -0.07216
# Poissons Ratio (z) = 0.02119 -0.05927
#
# Static dielectric constant tensor:
#      x y z
#    x 1.927420 0.000000 0.000000 
#    y 0.000000 1.823770 0.000000 
#    z 0.000000 0.000000 1.890150 
# 
# From -- ./inp_files/8898.got.cif
#   From: 2010.05.17/outbox.cif.g08.bks.cpg/sg65_5_cif.got.tgz:8898.got - 2010.06.03 17:01:31.
