data_PCOD9491333
_publ_section_title
;
Structure prediction by ZEFSAII (Michael W. Deem and Ramdas Pophale) SiO2 
 PCOD9491333
Probable space group: C M M M
;
_chemical_formula_sum "Si O2"
_cell_formula_units_Z 112
_cell_length_a 15.708122
_cell_length_b 26.695163
_cell_length_c 13.477156
_cell_angle_alpha 90.000000
_cell_angle_beta 90.000000
_cell_angle_gamma 90.000000
_cell_volume 5651.387648
_symmetry_space_group_name_H-M "C M M M"
_symmetry_group_IT_number 65
_symmetry_cell_setting 'orthorhombic'
loop_
_space_group_symop_operation_xyz
x,y,z
-x,-y,z
x,-y,-z
-x,y,-z
-x,-y,-z
x,y,-z
-x,y,z
x,-y,z
1/2+x,1/2+y,z
1/2-x,1/2-y,z
1/2+x,1/2-y,-z
1/2-x,1/2+y,-z
1/2-x,1/2-y,-z
1/2+x,1/2+y,-z
1/2-x,1/2+y,z
1/2+x,1/2-y,z
loop_
_atom_site_type_symbol
_atom_site_label
_atom_site_fract_x
_atom_site_fract_y
_atom_site_fract_z
Si Si1 0.676060 0.054649 0.294415
Si Si2 0.247605 0.190616 0.881780
Si Si3 0.101737 0.613399 0.115692
Si Si4 0.092823 0.351722 0.382854
Si Si5 0.648026 0.745259 0.615419
Si Si6 0.136646 0.943903 0.380308
Si Si7 0.594639 0.347521 0.746622
O O1 0.642208 0.070839 0.186292
O O2 0.651311 0.102349 0.358988
O O3 0.775189 0.051477 0.319389
O O4 0.639068 0.000000 0.320746
O O5 0.250000 0.250000 0.852872
O O6 0.338122 0.162250 0.866417
O O7 0.173576 0.160058 0.823307
O O8 0.229999 0.189296 0.000000
O O9 0.000000 0.620808 0.132605
O O10 0.111307 0.600314 0.000000
O O11 0.093405 0.344842 0.500000
O O12 0.115329 0.297691 0.341833
O O13 0.000000 0.366879 0.348987
O O14 0.623900 0.739859 0.500000
O O15 0.750000 0.750000 0.618848
O O16 0.610497 0.699049 0.673660
O O17 0.147474 0.933815 0.500000
O O18 0.095966 0.897310 0.322009
O O19 0.097393 0.000000 0.374406
O O20 0.500000 0.343993 0.792853
#
# Coordination Sequence:
#
# PCOD9491333 Si02
#       7
#    16  16  16  16  16  16  16
#     4  11  22  38  60  86 119 159 204 252 307 374
#     4  10  23  44  66  93 131 168 208 259 318 383
#     4  10  22  41  66  93 122 158 202 257 319 379
#     4  10  21  35  51  77 116 157 196 241 297 362
#     4  10  21  37  57  82 118 162 206 255 308 364
#     4  10  22  41  64  91 127 170 215 265 321 377
#     4  12  24  38  64  97 127 165 216 266 315 377
#
# _framework density 19.818141000000001
#
# number of rings (size 3 to 8) (size 9 to 14) (size 15 to 20)
#    0.000    1.571    1.429    3.000    2.000    6.286 
#    0.000    3.571    0.000    0.429    0.000    1.000 
#    0.000    0.000    0.000    0.000    0.000    0.000 
#
# Total GULP energy -312066.809475 kJ/mol
# GULP energy per Si atom -5572.621598 kJ/mol
# Density = 1.977303 g / cm^3
# Si number density = 19.818141 Si / 1000 Ang^3
#
#
#
# Elastic Constant Matrix: (Units=GPa)
#
#
# Indices 1 2 3 4 5 6 
#
# 1 116.3231 38.6131 29.3619 0.0000 0.0000 0.0000
# 2 38.6131 136.8185 22.2747 0.0000 0.0000 0.0000
# 3 29.3619 22.2747 105.3015 0.0000 0.0000 0.0000
# 4 0.0000 0.0000 0.0000 34.3261 0.0000 0.0000
# 5 0.0000 0.0000 0.0000 0.0000 16.7495 0.0000
# 6 0.0000 0.0000 0.0000 0.0000 0.0000 -65.8629
#
#
#
# Elastic Compliance Matrix: (Units=1/GPa)
#
#
# Indices 1 2 3 4 5 6 
#
# 1 0.009981 -0.002448 -0.002265 0.000000 0.000000 0.000000
# 2 -0.002448 0.008170 -0.001046 0.000000 0.000000 0.000000
# 3 -0.002265 -0.001046 0.010349 0.000000 0.000000 0.000000
# 4 0.000000 0.000000 0.000000 0.029132 0.000000 0.000000
# 5 0.000000 0.000000 0.000000 0.000000 0.059703 0.000000
# 6 0.000000 0.000000 0.000000 0.000000 0.000000 -0.015183
#
#
# Mechanical properties :
#
#
# Convention : Reuss Voigt Hill
#
# Bulk Modulus (GPa) = 58.88359 59.88248 59.38303
# Shear Modulus (GPa) = 41.89987 14.92210 28.41099
#
# Velocity S-wave (km/s) = 4.60305 2.74697 3.79038
# Velocity P-wave (km/s) = 7.61756 6.35159 7.01320
#
# Compressibility (1/GPa) = 0.01698266
#
# Stress axis : x y z
#
# Youngs Moduli (GPa) = 100.18864 122.39761 96.62435
#
# Poissons Ratio (x) = 0.29964 0.21888
# Poissons Ratio (y) = 0.24527 0.10103
# Poissons Ratio (z) = 0.22695 0.12798
#
# Static dielectric constant tensor:
#      x y z
#    x 1.657090 0.000000 0.000000 
#    y 0.000000 1.697630 0.000000 
#    z 0.000000 0.000000 1.732620 
# 
# From -- ./inp_files/40865.got.cif
#   From: 2010.05.17/outbox.cif.g08.bks.cpg/sg65_21_cif.got.tgz:40865.got - 2010.06.03 17:01:31.
