data_PCOD9491481
_publ_section_title
;
Structure prediction by ZEFSAII (Michael W. Deem and Ramdas Pophale) SiO2 
 PCOD9491481
Probable space group: C M M M
;
_chemical_formula_sum "Si O2"
_cell_formula_units_Z 80
_cell_length_a 27.177497
_cell_length_b 19.358188
_cell_length_c 7.500316
_cell_angle_alpha 90.000000
_cell_angle_beta 90.000000
_cell_angle_gamma 90.000000
_cell_volume 3945.969472
_symmetry_space_group_name_H-M "C M M M"
_symmetry_group_IT_number 65
_symmetry_cell_setting 'orthorhombic'
loop_
_space_group_symop_operation_xyz
x,y,z
-x,-y,z
x,-y,-z
-x,y,-z
-x,-y,-z
x,y,-z
-x,y,z
x,-y,z
1/2+x,1/2+y,z
1/2-x,1/2-y,z
1/2+x,1/2-y,-z
1/2-x,1/2+y,-z
1/2-x,1/2-y,-z
1/2+x,1/2+y,-z
1/2-x,1/2+y,z
1/2+x,1/2-y,z
loop_
_atom_site_type_symbol
_atom_site_label
_atom_site_fract_x
_atom_site_fract_y
_atom_site_fract_z
Si Si1 0.198130 0.223285 0.208256
Si Si2 0.941846 0.575354 0.716209
Si Si3 0.592989 0.220651 0.705262
Si Si4 0.945814 0.134327 0.281849
Si Si5 0.158463 0.076090 0.715680
O O1 0.250000 0.250000 0.281068
O O2 0.150089 0.258269 0.292128
O O3 0.190995 0.140971 0.225855
O O4 0.196251 0.241431 0.000000
O O5 0.936576 0.573748 0.500000
O O6 0.924376 0.500000 0.781055
O O7 0.916477 0.645158 0.783711
O O8 0.000000 0.580553 0.754068
O O9 0.576191 0.216458 0.500000
O O10 0.564140 0.286913 0.780488
O O11 0.945222 0.134315 0.500000
O O12 0.897994 0.090986 0.227093
O O13 0.000000 0.110599 0.226467
O O14 0.158756 0.076917 0.500000
O O15 0.174080 0.000000 0.775347
#
# Coordination Sequence:
#
# PCOD9491481 Si02
#       5
#    16  16  16  16  16
#     4  10  21  36  52  68  88 120 161 199 237 281
#     4   8  13  22  40  69 101 127 152 187 232 280
#     4   9  16  27  46  70  94 121 156 197 236 274
#     4   8  13  22  40  68  98 125 152 181 215 261
#     4   9  18  32  51  76 101 123 151 188 229 273
#
# _framework density 20.273852999999999
#
# number of rings (size 3 to 8) (size 9 to 14) (size 15 to 20)
#    0.000    3.200    0.000    3.000    0.000    4.800 
#    0.000    3.000    0.000   19.200    0.000    7.000 
#    0.000    0.000    0.000    0.000    0.000    0.000 
#
# Total GULP energy -222943.947586 kJ/mol
# GULP energy per Si atom -5573.598690 kJ/mol
# Density = 2.022771 g / cm^3
# Si number density = 20.273853 Si / 1000 Ang^3
#
#
#
# Elastic Constant Matrix: (Units=GPa)
#
#
# Indices 1 2 3 4 5 6 
#
# 1 75.7502 27.0031 -11.6566 0.0000 0.0000 0.0000
# 2 27.0031 129.7504 -8.0212 0.0000 0.0000 0.0000
# 3 -11.6566 -8.0212 52.3052 0.0000 0.0000 0.0000
# 4 0.0000 0.0000 0.0000 -12.3125 0.0000 0.0000
# 5 0.0000 0.0000 0.0000 0.0000 29.6041 0.0000
# 6 0.0000 0.0000 0.0000 0.0000 0.0000 9.9915
#
#
#
# Elastic Compliance Matrix: (Units=1/GPa)
#
#
# Indices 1 2 3 4 5 6 
#
# 1 0.014662 -0.002877 0.002826 0.000000 0.000000 0.000000
# 2 -0.002877 0.008345 0.000639 0.000000 0.000000 0.000000
# 3 0.002826 0.000639 0.019846 0.000000 0.000000 0.000000
# 4 0.000000 0.000000 0.000000 -0.081218 0.000000 0.000000
# 5 0.000000 0.000000 0.000000 0.000000 0.033779 0.000000
# 6 0.000000 0.000000 0.000000 0.000000 0.000000 0.100085
#
#
# Mechanical properties :
#
#
# Convention : Reuss Voigt Hill
#
# Bulk Modulus (GPa) = 22.71173 30.27295 26.49234
# Shear Modulus (GPa) = 45.87189 22.15532 34.01360
#
# Velocity S-wave (km/s) = 4.76185 3.30934 4.10043
# Velocity P-wave (km/s) = 6.43898 5.43753 5.95933
#
# Compressibility (1/GPa) = 0.04403011
#
# Stress axis : x y z
#
# Youngs Moduli (GPa) = 68.20520 119.82863 50.38703
#
# Poissons Ratio (x) = 0.34470 -0.14241
# Poissons Ratio (y) = 0.19620 -0.03218
# Poissons Ratio (z) = -0.19277 -0.07654
#
# Static dielectric constant tensor:
#      x y z
#    x 1.690220 0.000000 0.000000 
#    y 0.000000 1.749490 0.000000 
#    z 0.000000 0.000000 1.800470 
# 
# From -- ./inp_files/9661.got.cif
#   From: 2010.05.17/outbox.cif.g08.bks.cpg/sg65_5_cif.got.tgz:9661.got - 2010.06.03 17:01:31.
