data_PCOD9491361
_publ_section_title
;
Structure prediction by ZEFSAII (Michael W. Deem and Ramdas Pophale) SiO2 
 PCOD9491361
Probable space group: C M M M
;
_chemical_formula_sum "Si O2"
_cell_formula_units_Z 96
_cell_length_a 23.842172
_cell_length_b 8.556913
_cell_length_c 26.480356
_cell_angle_alpha 90.000000
_cell_angle_beta 90.000000
_cell_angle_gamma 90.000000
_cell_volume 5402.400197
_symmetry_space_group_name_H-M "C M M M"
_symmetry_group_IT_number 65
_symmetry_cell_setting 'orthorhombic'
loop_
_space_group_symop_operation_xyz
x,y,z
-x,-y,z
x,-y,-z
-x,y,-z
-x,-y,-z
x,y,-z
-x,y,z
x,-y,z
1/2+x,1/2+y,z
1/2-x,1/2-y,z
1/2+x,1/2-y,-z
1/2-x,1/2+y,-z
1/2-x,1/2-y,-z
1/2+x,1/2+y,-z
1/2-x,1/2+y,z
1/2+x,1/2-y,z
loop_
_atom_site_type_symbol
_atom_site_label
_atom_site_fract_x
_atom_site_fract_y
_atom_site_fract_z
Si Si1 0.878931 0.812898 0.903001
Si Si2 0.186508 0.688239 0.500000
Si Si3 0.500000 0.690451 0.866216
Si Si4 0.686164 0.189420 0.610783
Si Si5 0.616103 0.811887 0.292542
Si Si6 0.000000 0.186733 0.251351
Si Si7 0.312810 0.187304 0.193340
Si Si8 0.813510 0.685538 0.000000
O O1 0.845891 0.764016 0.852791
O O2 0.847460 0.741869 0.950902
O O3 0.943252 0.760305 0.894473
O O4 0.878618 0.000000 0.908091
O O5 0.186534 0.500000 0.500000
O O6 0.250000 0.750000 0.500000
O O7 0.164003 0.737443 0.554963
O O8 0.500000 0.500000 0.865154
O O9 0.500000 0.743024 0.807441
O O10 0.750000 0.250000 0.617139
O O11 0.645782 0.242332 0.655894
O O12 0.688684 0.000000 0.612343
O O13 0.555473 0.743923 0.279809
O O14 0.656376 0.772745 0.245571
O O15 0.611232 0.000000 0.294865
O O16 0.000000 0.000000 0.249598
O O17 0.250000 0.250000 0.194052
O O18 0.312994 0.000000 0.187396
O O19 0.750000 0.750000 0.000000
O O20 0.810076 0.500000 0.000000
#
# Coordination Sequence:
#
# PCOD9491361 Si02
#       8
#    16   8   8  16  16   8  16   8
#     4  11  22  41  64  86 113 147 183 224 269 320
#     4   8  14  26  46  71 102 141 181 224 270 324
#     4   9  20  38  62  87 111 141 181 223 268 319
#     4   9  17  30  49  76 109 143 182 225 275 328
#     4  10  21  35  52  77 109 143 179 225 277 327
#     4  11  21  37  58  81 106 142 186 226 271 326
#     4  11  22  35  53  80 111 145 179 219 271 326
#     4  12  26  45  64  89 117 148 186 224 271 324
#
# _framework density 17.769880000000001
#
# number of rings (size 3 to 8) (size 9 to 14) (size 15 to 20)
#    0.000    1.833    1.667    3.000    0.000    1.667 
#    0.000    3.333    0.000    0.500    0.000    3.500 
#    0.000    0.000    0.000    0.000    0.000    0.000 
#
# Total GULP energy -267916.848697 kJ/mol
# GULP energy per Si atom -5581.601015 kJ/mol
# Density = 1.772944 g / cm^3
# Si number density = 17.769880 Si / 1000 Ang^3
#
#
#
# Elastic Constant Matrix: (Units=GPa)
#
#
# Indices 1 2 3 4 5 6 
#
# 1 171.9306 40.1241 97.0919 0.0000 0.0000 0.0000
# 2 40.1241 38.1368 47.6631 0.0000 0.0000 0.0000
# 3 97.0919 47.6631 182.7295 0.0000 0.0000 0.0000
# 4 0.0000 0.0000 0.0000 -14.4346 0.0000 0.0000
# 5 0.0000 0.0000 0.0000 0.0000 -18.3223 0.0000
# 6 0.0000 0.0000 0.0000 0.0000 0.0000 1.0630
#
#
#
# Elastic Compliance Matrix: (Units=1/GPa)
#
#
# Indices 1 2 3 4 5 6 
#
# 1 0.008943 -0.005149 -0.003409 0.000000 0.000000 0.000000
# 2 -0.005149 0.041868 -0.008185 0.000000 0.000000 0.000000
# 3 -0.003409 -0.008185 0.009419 0.000000 0.000000 0.000000
# 4 0.000000 0.000000 0.000000 -0.069278 0.000000 0.000000
# 5 0.000000 0.000000 0.000000 0.000000 -0.054578 0.000000
# 6 0.000000 0.000000 0.000000 0.000000 0.000000 0.940731
#
#
# Mechanical properties :
#
#
# Convention : Reuss Voigt Hill
#
# Bulk Modulus (GPa) = 37.39062 84.72834 61.05948
# Shear Modulus (GPa) = 5.43771 7.52240 6.48006
#
# Velocity S-wave (km/s) = 1.75120 2.05971 1.91169
# Velocity P-wave (km/s) = 5.01759 7.31033 6.26966
#
# Compressibility (1/GPa) = 0.02674468
#
# Stress axis : x y z
#
# Youngs Moduli (GPa) = 111.82155 23.88450 106.17057
#
# Poissons Ratio (x) = 0.12297 0.36191
# Poissons Ratio (y) = 0.57573 0.86903
# Poissons Ratio (z) = 0.38117 0.19550
#
# Static dielectric constant tensor:
#      x y z
#    x 1.570850 0.000000 0.000000 
#    y 0.000000 1.605950 0.000000 
#    z 0.000000 0.000000 1.619510 
# 
# From -- ./inp_files/71512.got.cif
#   From: 2010.05.17/outbox.cif.g08.bks.cpg/sg65_36_cif.got.tgz:71512.got - 2010.06.03 17:01:31.
