data_PCOD9491760
_publ_section_title
;
Structure prediction by ZEFSAII (Michael W. Deem and Ramdas Pophale) SiO2 
 PCOD9491760
Probable space group: C M M M
;
_chemical_formula_sum "Si O2"
_cell_formula_units_Z 88
_cell_length_a 21.118458
_cell_length_b 7.666579
_cell_length_c 24.770915
_cell_angle_alpha 90.000000
_cell_angle_beta 90.000000
_cell_angle_gamma 90.000000
_cell_volume 4010.567855
_symmetry_space_group_name_H-M "C M M M"
_symmetry_group_IT_number 65
_symmetry_cell_setting 'orthorhombic'
loop_
_space_group_symop_operation_xyz
x,y,z
-x,-y,z
x,-y,-z
-x,y,-z
-x,-y,-z
x,y,-z
-x,y,z
x,-y,z
1/2+x,1/2+y,z
1/2-x,1/2-y,z
1/2+x,1/2-y,-z
1/2-x,1/2+y,-z
1/2-x,1/2-y,-z
1/2+x,1/2+y,-z
1/2-x,1/2+y,z
1/2+x,1/2-y,z
loop_
_atom_site_type_symbol
_atom_site_label
_atom_site_fract_x
_atom_site_fract_y
_atom_site_fract_z
Si Si1 0.571163 0.297399 0.767706
Si Si2 0.500000 0.213392 0.560030
Si Si3 0.177281 0.792690 0.558074
Si Si4 0.901997 0.300127 0.647885
Si Si5 0.071082 0.212358 0.062544
Si Si6 0.825239 0.790189 0.851401
O O1 0.500000 0.221862 0.776229
O O2 0.566361 0.500000 0.783982
O O3 0.586850 0.291105 0.704207
O O4 0.631440 0.225760 0.800865
O O5 0.500000 0.281999 0.500000
O O6 0.557519 0.270095 0.597512
O O7 0.500000 0.000000 0.557463
O O8 0.146824 0.728450 0.500000
O O9 0.250000 0.750000 0.551421
O O10 0.163354 0.710317 0.616822
O O11 0.167506 0.000000 0.560734
O O12 0.920269 0.500000 0.657929
O O13 0.131354 0.269621 0.097786
O O14 0.000000 0.265665 0.081889
O O15 0.070961 0.000000 0.063768
O O16 0.076970 0.265207 0.000000
O O17 0.750000 0.750000 0.851367
O O18 0.826478 0.000000 0.851289
#
# Coordination Sequence:
#
# PCOD9491760 Si02
#       6
#    16   8  16  16  16  16
#     4  10  21  38  58  77 105 145 192 242 284 332
#     4   9  18  32  51  77 107 135 164 205 262 326
#     4  10  21  37  56  79 107 140 177 217 266 327
#     4  11  21  35  56  81 108 138 175 221 274 333
#     4   8  14  28  54  86 116 148 192 240 280 328
#     4  10  21  36  55  82 114 150 190 235 291 343
#
# _framework density 21.942031
#
# number of rings (size 3 to 8) (size 9 to 14) (size 15 to 20)
#    0.000    2.273    0.909    2.727    0.000    5.818 
#    0.000    1.818    0.000    3.818    0.000    1.273 
#    0.000    0.000    0.000    0.000    0.000    0.000 
#
# Total GULP energy -244939.624517 kJ/mol
# GULP energy per Si atom -5566.809648 kJ/mol
# Density = 2.189209 g / cm^3
# Si number density = 21.942031 Si / 1000 Ang^3
#
#
#
# Elastic Constant Matrix: (Units=GPa)
#
#
# Indices 1 2 3 4 5 6 
#
# 1 185.9651 6.1819 96.8787 0.0000 0.0000 0.0000
# 2 6.1819 55.1441 4.0161 0.0000 0.0000 0.0000
# 3 96.8787 4.0161 151.5488 0.0000 0.0000 0.0000
# 4 0.0000 0.0000 0.0000 4.9385 0.0000 0.0000
# 5 0.0000 0.0000 0.0000 0.0000 37.6958 0.0000
# 6 0.0000 0.0000 0.0000 0.0000 0.0000 15.7068
#
#
#
# Elastic Compliance Matrix: (Units=1/GPa)
#
#
# Indices 1 2 3 4 5 6 
#
# 1 0.008078 -0.000531 -0.005150 0.000000 0.000000 0.000000
# 2 -0.000531 0.018204 -0.000143 0.000000 0.000000 0.000000
# 3 -0.005150 -0.000143 0.009894 0.000000 0.000000 0.000000
# 4 0.000000 0.000000 0.000000 0.202490 0.000000 0.000000
# 5 0.000000 0.000000 0.000000 0.000000 0.026528 0.000000
# 6 0.000000 0.000000 0.000000 0.000000 0.000000 0.063667
#
#
# Mechanical properties :
#
#
# Convention : Reuss Voigt Hill
#
# Bulk Modulus (GPa) = 40.76762 67.42350 54.09556
# Shear Modulus (GPa) = 14.33962 30.70700 22.52331
#
# Velocity S-wave (km/s) = 2.55918 3.74499 3.20737
# Velocity P-wave (km/s) = 5.22997 7.03525 6.19868
#
# Compressibility (1/GPa) = 0.02452927
#
# Stress axis : x y z
#
# Youngs Moduli (GPa) = 123.79735 54.93238 101.06828
#
# Poissons Ratio (x) = 0.02914 0.52047
# Poissons Ratio (y) = 0.06567 0.01448
# Poissons Ratio (z) = 0.63752 0.00787
#
# Static dielectric constant tensor:
#      x y z
#    x -0.103740 0.000000 0.000000 
#    y 0.000000 1.875270 0.000000 
#    z 0.000000 0.000000 1.798970 
# 
# From -- ./inp_files/70974.got.cif
#   From: 2010.05.17/outbox.cif.g08.bks.cpg/sg65_36_cif.got.tgz:70974.got - 2010.06.03 17:01:31.
