data_PCOD9491631
_publ_section_title
;
Structure prediction by ZEFSAII (Michael W. Deem and Ramdas Pophale) SiO2 
 PCOD9491631
Probable space group: C M M M
;
_chemical_formula_sum "Si O2"
_cell_formula_units_Z 88
_cell_length_a 18.819740
_cell_length_b 8.022480
_cell_length_c 31.003635
_cell_angle_alpha 90.000000
_cell_angle_beta 90.000000
_cell_angle_gamma 90.000000
_cell_volume 4680.959436
_symmetry_space_group_name_H-M "C M M M"
_symmetry_group_IT_number 65
_symmetry_cell_setting 'orthorhombic'
loop_
_space_group_symop_operation_xyz
x,y,z
-x,-y,z
x,-y,-z
-x,y,-z
-x,-y,-z
x,y,-z
-x,y,z
x,-y,z
1/2+x,1/2+y,z
1/2-x,1/2-y,z
1/2+x,1/2-y,-z
1/2-x,1/2+y,-z
1/2-x,1/2-y,-z
1/2+x,1/2+y,-z
1/2-x,1/2+y,z
1/2+x,1/2-y,z
loop_
_atom_site_type_symbol
_atom_site_label
_atom_site_fract_x
_atom_site_fract_y
_atom_site_fract_z
Si Si1 0.168428 0.201329 0.951608
Si Si2 0.331840 0.801023 0.214264
Si Si3 0.586842 0.000000 0.450230
Si Si4 0.913490 0.185783 0.606512
Si Si5 0.919586 0.799337 0.869742
Si Si6 0.083086 0.701822 0.701751
O O1 0.250000 0.250000 0.943190
O O2 0.118429 0.263443 0.913259
O O3 0.164744 0.000000 0.951975
O O4 0.149626 0.260173 0.000000
O O5 0.250000 0.750000 0.212840
O O6 0.373342 0.741508 0.172045
O O7 0.370382 0.740227 0.257872
O O8 0.335952 0.000000 0.214913
O O9 0.610184 0.834525 0.424674
O O10 0.500000 0.000000 0.449632
O O11 0.608909 0.000000 0.500000
O O12 0.893552 0.223520 0.655998
O O13 0.000000 0.188425 0.605860
O O14 0.890537 0.000000 0.593755
O O15 0.000000 0.735853 0.865426
O O16 0.922706 0.000000 0.873045
O O17 0.086987 0.500000 0.698257
O O18 0.000000 0.744288 0.708890
#
# Coordination Sequence:
#
# PCOD9491631 Si02
#       6
#    16  16   8  16  16  16
#     4   9  18  33  53  76 102 135 174 216 265 319
#     4  11  23  37  54  76 105 140 173 216 265 319
#     4   9  16  26  40  62 100 142 176 218 266 316
#     4   9  16  26  43  67  95 133 177 218 264 317
#     4  10  21  36  54  77 105 136 174 219 265 318
#     4   9  17  32  52  71  96 133 174 215 262 319
#
# _framework density 18.799564
#
# number of rings (size 3 to 8) (size 9 to 14) (size 15 to 20)
#    0.000    2.455    0.909    1.636    0.000    5.455 
#    0.000    5.455    0.000    0.000    0.000    3.818 
#    0.000    0.727    0.364    0.000    0.000    0.000 
#
# Total GULP energy -245514.322803 kJ/mol
# GULP energy per Si atom -5579.870973 kJ/mol
# Density = 1.875678 g / cm^3
# Si number density = 18.799564 Si / 1000 Ang^3
#
#
#
# Elastic Constant Matrix: (Units=GPa)
#
#
# Indices 1 2 3 4 5 6 
#
# 1 82.8897 26.8684 81.4836 0.0000 0.0000 0.0000
# 2 26.8684 66.5035 58.3862 0.0000 0.0000 0.0000
# 3 81.4836 58.3862 182.4146 0.0000 0.0000 0.0000
# 4 0.0000 0.0000 0.0000 -8.6754 0.0000 0.0000
# 5 0.0000 0.0000 0.0000 0.0000 -6.4082 0.0000
# 6 0.0000 0.0000 0.0000 0.0000 0.0000 11.7457
#
#
#
# Elastic Compliance Matrix: (Units=1/GPa)
#
#
# Indices 1 2 3 4 5 6 
#
# 1 0.021515 -0.000354 -0.009497 0.000000 0.000000 0.000000
# 2 -0.000354 0.020920 -0.006537 0.000000 0.000000 0.000000
# 3 -0.009497 -0.006537 0.011817 0.000000 0.000000 0.000000
# 4 0.000000 0.000000 0.000000 -0.115269 0.000000 0.000000
# 5 0.000000 0.000000 0.000000 0.000000 -0.156050 0.000000
# 6 0.000000 0.000000 0.000000 0.000000 0.000000 0.085137
#
#
# Mechanical properties :
#
#
# Convention : Reuss Voigt Hill
#
# Bulk Modulus (GPa) = 46.56950 73.92048 60.24499
# Shear Modulus (GPa) = -54.35155 10.33708 -22.00724
#
# Velocity S-wave (km/s) = -5.38273 2.34745 -3.42515
# Velocity P-wave (km/s) = 3.71570 6.83762 4.05873
#
# Compressibility (1/GPa) = 0.02147328
#
# Stress axis : x y z
#
# Youngs Moduli (GPa) = 46.47844 47.80229 84.62452
#
# Poissons Ratio (x) = 0.01694 0.80371
# Poissons Ratio (y) = 0.01647 0.55323
# Poissons Ratio (z) = 0.44142 0.31251
#
# Static dielectric constant tensor:
#      x y z
#    x 1.610460 0.000000 0.000000 
#    y 0.000000 1.678730 0.000000 
#    z 0.000000 0.000000 1.640690 
# 
# From -- ./inp_files/77900.got.cif
#   From: 2010.05.17/outbox.cif.g08.bks.cpg/sg65_39_cif.got.tgz:77900.got - 2010.06.03 17:01:31.
