data_PCOD9491609
_publ_section_title
;
Structure prediction by ZEFSAII (Michael W. Deem and Ramdas Pophale) SiO2 
 PCOD9491609
Probable space group: C M M M
;
_chemical_formula_sum "Si O2"
_cell_formula_units_Z 112
_cell_length_a 17.217409
_cell_length_b 14.669663
_cell_length_c 24.433499
_cell_angle_alpha 90.000000
_cell_angle_beta 90.000000
_cell_angle_gamma 90.000000
_cell_volume 6171.256504
_symmetry_space_group_name_H-M "C M M M"
_symmetry_group_IT_number 65
_symmetry_cell_setting 'orthorhombic'
loop_
_space_group_symop_operation_xyz
x,y,z
-x,-y,z
x,-y,-z
-x,y,-z
-x,-y,-z
x,y,-z
-x,y,z
x,-y,z
1/2+x,1/2+y,z
1/2-x,1/2-y,z
1/2+x,1/2-y,-z
1/2-x,1/2+y,-z
1/2-x,1/2-y,-z
1/2+x,1/2+y,-z
1/2-x,1/2+y,z
1/2+x,1/2-y,z
loop_
_atom_site_type_symbol
_atom_site_label
_atom_site_fract_x
_atom_site_fract_y
_atom_site_fract_z
Si Si1 0.134367 0.106383 0.851554
Si Si2 0.586453 0.752005 0.062055
Si Si3 0.409790 0.891349 0.768743
Si Si4 0.094095 0.104022 0.727506
Si Si5 0.594640 0.895556 0.562624
Si Si6 0.405421 0.775807 0.336980
Si Si7 0.683962 0.105954 0.122176
O O1 0.091582 0.171270 0.894008
O O2 0.121205 0.132850 0.788221
O O3 0.224847 0.113792 0.867114
O O4 0.110640 0.000000 0.855987
O O5 0.500000 0.793654 0.066036
O O6 0.650789 0.826688 0.076868
O O7 0.596978 0.718331 0.000000
O O8 0.500000 0.867573 0.779275
O O9 0.384610 0.840281 0.714080
O O10 0.359444 0.868499 0.821508
O O11 0.405212 0.000000 0.760117
O O12 0.120017 0.174952 0.681082
O O13 0.000000 0.104686 0.728703
O O14 0.120002 0.000000 0.718105
O O15 0.618597 0.877213 0.500000
O O16 0.500000 0.894196 0.563228
O O17 0.622116 0.822004 0.606957
O O18 0.616792 0.000000 0.576984
O O19 0.500000 0.774323 0.339776
O O20 0.666168 0.000000 0.109956
#
# Coordination Sequence:
#
# PCOD9491609 Si02
#       7
#    16  16  16  16  16  16  16
#     4  10  21  37  56  76  99 127 160 202 250 295
#     4  11  24  39  55  75  98 127 164 202 239 286
#     4   9  16  26  43  68  96 123 151 185 228 283
#     4   9  17  29  46  67  90 118 154 197 243 289
#     4   8  13  21  34  55  86 123 159 193 232 281
#     4   9  15  23  38  60  87 120 156 192 232 279
#     4  10  21  36  54  76 102 130 158 193 242 298
#
# _framework density 18.148654000000001
#
# number of rings (size 3 to 8) (size 9 to 14) (size 15 to 20)
#    0.000    2.571    0.000    3.000    0.000    6.286 
#    0.000    2.857    0.000    0.429    0.000    3.000 
#    0.000    2.286    0.000    7.429    0.000    7.429 
#
# Total GULP energy -312348.871415 kJ/mol
# GULP energy per Si atom -5577.658418 kJ/mol
# Density = 1.810735 g / cm^3
# Si number density = 18.148654 Si / 1000 Ang^3
#
#
#
# Elastic Constant Matrix: (Units=GPa)
#
#
# Indices 1 2 3 4 5 6 
#
# 1 20.8397 15.1756 11.8306 0.0000 0.0000 0.0000
# 2 15.1756 82.6707 72.4050 0.0000 0.0000 0.0000
# 3 11.8306 72.4050 110.8594 0.0000 0.0000 0.0000
# 4 0.0000 0.0000 0.0000 26.2276 0.0000 0.0000
# 5 0.0000 0.0000 0.0000 0.0000 -2.4833 0.0000
# 6 0.0000 0.0000 0.0000 0.0000 0.0000 16.1347
#
#
#
# Elastic Compliance Matrix: (Units=1/GPa)
#
#
# Indices 1 2 3 4 5 6 
#
# 1 0.055528 -0.011690 0.001709 0.000000 0.000000 0.000000
# 2 -0.011690 0.030725 -0.018819 0.000000 0.000000 0.000000
# 3 0.001709 -0.018819 0.021129 0.000000 0.000000 0.000000
# 4 0.000000 0.000000 0.000000 0.038128 0.000000 0.000000
# 5 0.000000 0.000000 0.000000 0.000000 -0.402688 0.000000
# 6 0.000000 0.000000 0.000000 0.000000 0.000000 0.061978
#
#
# Mechanical properties :
#
#
# Convention : Reuss Voigt Hill
#
# Bulk Modulus (GPa) = 20.08787 45.91026 32.99906
# Shear Modulus (GPa) = -41.32029 15.63972 -12.84028
#
# Velocity S-wave (km/s) = -4.77673 2.93875 -2.66278
# Velocity P-wave (km/s) = 4.39662 6.07180 2.96112
#
# Compressibility (1/GPa) = 0.04978129
#
# Stress axis : x y z
#
# Youngs Moduli (GPa) = 18.00902 32.54713 47.32725
#
# Poissons Ratio (x) = 0.38048 -0.08090
# Poissons Ratio (y) = 0.21053 0.89067
# Poissons Ratio (z) = -0.03078 0.61252
#
# Static dielectric constant tensor:
#      x y z
#    x 1.624810 0.000000 0.000000 
#    y 0.000000 1.649510 0.000000 
#    z 0.000000 0.000000 1.604710 
# 
# From -- ./inp_files/70021.got.cif
#   From: 2010.05.17/outbox.cif.g08.bks.cpg/sg65_36_cif.got.tgz:70021.got - 2010.06.03 17:01:31.
