data_PCOD9491545
_publ_section_title
;
Structure prediction by ZEFSAII (Michael W. Deem and Ramdas Pophale) SiO2 
 PCOD9491545
Probable space group: C M M M
;
_chemical_formula_sum "Si O2"
_cell_formula_units_Z 104
_cell_length_a 29.910960
_cell_length_b 8.965532
_cell_length_c 23.528879
_cell_angle_alpha 90.000000
_cell_angle_beta 90.000000
_cell_angle_gamma 90.000000
_cell_volume 6309.684636
_symmetry_space_group_name_H-M "C M M M"
_symmetry_group_IT_number 65
_symmetry_cell_setting 'orthorhombic'
loop_
_space_group_symop_operation_xyz
x,y,z
-x,-y,z
x,-y,-z
-x,y,-z
-x,-y,-z
x,y,-z
-x,y,z
x,-y,z
1/2+x,1/2+y,z
1/2-x,1/2-y,z
1/2+x,1/2-y,-z
1/2-x,1/2+y,-z
1/2-x,1/2-y,-z
1/2+x,1/2+y,-z
1/2-x,1/2+y,z
1/2+x,1/2-y,z
loop_
_atom_site_type_symbol
_atom_site_label
_atom_site_fract_x
_atom_site_fract_y
_atom_site_fract_z
Si Si1 0.894794 0.320291 0.106445
Si Si2 0.203260 0.678954 0.066799
Si Si3 0.946982 0.675740 0.670373
Si Si4 0.446847 0.320786 0.000000
Si Si5 0.205448 0.169401 0.568918
Si Si6 0.612076 0.820330 0.435312
Si Si7 0.447149 0.322076 0.210017
O O1 0.897636 0.500000 0.103337
O O2 0.842460 0.278221 0.098741
O O3 0.922948 0.249128 0.054894
O O4 0.916712 0.260411 0.164075
O O5 0.207312 0.500000 0.069730
O O6 0.250000 0.750000 0.086690
O O7 0.197487 0.719726 0.000000
O O8 0.936702 0.500000 0.679893
O O9 0.922285 0.726443 0.613278
O O10 0.935312 0.767734 0.726615
O O11 0.000000 0.688170 0.661877
O O12 0.441564 0.500000 0.000000
O O13 0.500000 0.288509 0.000000
O O14 0.208559 0.164522 0.500000
O O15 0.250000 0.250000 0.590059
O O16 0.160771 0.260282 0.581064
O O17 0.202529 0.000000 0.589369
O O18 0.601684 0.769483 0.500000
O O19 0.612822 0.000000 0.436593
O O20 0.500000 0.285878 0.200682
O O21 0.442345 0.500000 0.204799
#
# Coordination Sequence:
#
# PCOD9491545 Si02
#       7
#    16  16  16   8  16  16  16
#     4  11  21  35  54  77 104 134 170 210 253 300
#     4   9  18  33  51  75 104 133 168 206 246 296
#     4   9  18  33  52  73  98 132 172 208 247 298
#     4  11  23  35  48  73 108 139 168 205 250 299
#     4   9  16  26  42  65  94 127 161 196 238 292
#     4   9  17  29  47  73 103 131 162 205 254 302
#     4  10  21  36  53  74 100 132 172 213 252 300
#
# _framework density 16.482599
#
# number of rings (size 3 to 8) (size 9 to 14) (size 15 to 20)
#    0.000    2.385    0.769    2.077    0.000    7.385 
#    0.000    1.538    0.000    0.923    0.000    8.615 
#    0.000    0.000    0.000    0.000    0.000    0.000 
#
# Total GULP energy -289916.947258 kJ/mol
# GULP energy per Si atom -5575.325909 kJ/mol
# Density = 1.644508 g / cm^3
# Si number density = 16.482599 Si / 1000 Ang^3
#
#
#
# Elastic Constant Matrix: (Units=GPa)
#
#
# Indices 1 2 3 4 5 6 
#
# 1 116.9526 47.9228 74.7265 0.0000 0.0000 0.0000
# 2 47.9228 41.8943 39.5408 0.0000 0.0000 0.0000
# 3 74.7265 39.5408 100.0669 0.0000 0.0000 0.0000
# 4 0.0000 0.0000 0.0000 16.2202 0.0000 0.0000
# 5 0.0000 0.0000 0.0000 0.0000 2.3236 0.0000
# 6 0.0000 0.0000 0.0000 0.0000 0.0000 27.7527
#
#
#
# Elastic Compliance Matrix: (Units=1/GPa)
#
#
# Indices 1 2 3 4 5 6 
#
# 1 0.020717 -0.014507 -0.009739 0.000000 0.000000 0.000000
# 2 -0.014507 0.048224 -0.008222 0.000000 0.000000 0.000000
# 3 -0.009739 -0.008222 0.020515 0.000000 0.000000 0.000000
# 4 0.000000 0.000000 0.000000 0.061652 0.000000 0.000000
# 5 0.000000 0.000000 0.000000 0.000000 0.430365 0.000000
# 6 0.000000 0.000000 0.000000 0.000000 0.000000 0.036033
#
#
# Mechanical properties :
#
#
# Convention : Reuss Voigt Hill
#
# Bulk Modulus (GPa) = 40.78180 64.81044 52.79612
# Shear Modulus (GPa) = 7.23993 15.70755 11.47374
#
# Velocity S-wave (km/s) = 2.09809 3.09038 2.64126
# Velocity P-wave (km/s) = 5.53763 7.22079 6.43449
#
# Compressibility (1/GPa) = 0.02452074
#
# Stress axis : x y z
#
# Youngs Moduli (GPa) = 48.26866 20.73639 48.74524
#
# Poissons Ratio (x) = 0.30082 0.47471
# Poissons Ratio (y) = 0.70023 0.40080
# Poissons Ratio (z) = 0.47007 0.17050
#
# Static dielectric constant tensor:
#      x y z
#    x 1.543640 0.000000 0.000000 
#    y 0.000000 1.556020 0.000000 
#    z 0.000000 0.000000 1.538470 
# 
# From -- ./inp_files/66391.got.cif
#   From: 2010.05.17/outbox.cif.g08.bks.cpg/sg65_34_cif.got.tgz:66391.got - 2010.06.03 17:01:31.
