data_PCOD9491966
_publ_section_title
;
Structure prediction by ZEFSAII (Michael W. Deem and Ramdas Pophale) SiO2 
 PCOD9491966
Probable space group: C M M M
;
_chemical_formula_sum "Si O2"
_cell_formula_units_Z 88
_cell_length_a 21.379646
_cell_length_b 8.835721
_cell_length_c 25.863111
_cell_angle_alpha 90.000000
_cell_angle_beta 90.000000
_cell_angle_gamma 90.000000
_cell_volume 4885.660305
_symmetry_space_group_name_H-M "C M M M"
_symmetry_group_IT_number 65
_symmetry_cell_setting 'orthorhombic'
loop_
_space_group_symop_operation_xyz
x,y,z
-x,-y,z
x,-y,-z
-x,y,-z
-x,-y,-z
x,y,-z
-x,y,z
x,-y,z
1/2+x,1/2+y,z
1/2-x,1/2-y,z
1/2+x,1/2-y,-z
1/2-x,1/2+y,-z
1/2-x,1/2-y,-z
1/2+x,1/2+y,-z
1/2-x,1/2+y,z
1/2+x,1/2-y,z
loop_
_atom_site_type_symbol
_atom_site_label
_atom_site_fract_x
_atom_site_fract_y
_atom_site_fract_z
Si Si1 0.075663 0.170852 0.162192
Si Si2 0.923986 0.322423 0.057023
Si Si3 0.427455 0.180122 0.270565
Si Si4 0.686086 0.319113 0.666141
Si Si5 0.500000 0.670198 0.437570
Si Si6 0.863428 0.185032 0.558481
O O1 0.098886 0.233198 0.107206
O O2 0.088274 0.276210 0.211284
O O3 0.000000 0.166183 0.158400
O O4 0.097737 0.000000 0.171959
O O5 0.908438 0.500000 0.061830
O O6 0.000000 0.313774 0.057161
O O7 0.903434 0.268373 0.000000
O O8 0.500000 0.228228 0.280670
O O9 0.376158 0.260563 0.305836
O O10 0.424425 0.000000 0.277357
O O11 0.688201 0.500000 0.669171
O O12 0.750000 0.250000 0.687941
O O13 0.680341 0.273004 0.605677
O O14 0.500000 0.500000 0.414918
O O15 0.500000 0.655816 0.500000
O O16 0.566788 0.742180 0.426473
O O17 0.847401 0.234149 0.500000
O O18 0.867217 0.000000 0.556914
#
# Coordination Sequence:
#
# PCOD9491966 Si02
#       6
#    16  16  16  16   8  16
#     4   9  16  26  42  66  95 127 168 215 260 308
#     4   8  13  21  34  55  88 131 172 207 250 305
#     4  10  21  37  56  76 101 135 175 220 269 318
#     4  11  23  37  55  78 107 138 173 215 260 313
#     4   7  10  20  40  68  99 125 155 197 240 285
#     4   8  15  28  48  75 104 133 165 204 252 306
#
# _framework density 18.011894000000002
#
# number of rings (size 3 to 8) (size 9 to 14) (size 15 to 20)
#    0.000    3.000    0.000    3.273    1.273    4.000 
#    0.000    1.818    0.000    1.636    0.000    1.273 
#    0.000    0.727    0.000    2.727    0.000    6.364 
#
# Total GULP energy -244942.426105 kJ/mol
# GULP energy per Si atom -5566.873321 kJ/mol
# Density = 1.797090 g / cm^3
# Si number density = 18.011894 Si / 1000 Ang^3
#
#
#
# Elastic Constant Matrix: (Units=GPa)
#
#
# Indices 1 2 3 4 5 6 
#
# 1 77.0088 29.3261 44.6425 0.0000 0.0000 0.0000
# 2 29.3261 43.6493 27.2822 0.0000 0.0000 0.0000
# 3 44.6425 27.2822 97.0405 0.0000 0.0000 0.0000
# 4 0.0000 0.0000 0.0000 15.3234 0.0000 0.0000
# 5 0.0000 0.0000 0.0000 0.0000 0.7766 0.0000
# 6 0.0000 0.0000 0.0000 0.0000 0.0000 14.8928
#
#
#
# Elastic Compliance Matrix: (Units=1/GPa)
#
#
# Indices 1 2 3 4 5 6 
#
# 1 0.020555 -0.009584 -0.006762 0.000000 0.000000 0.000000
# 2 -0.009584 0.032262 -0.004661 0.000000 0.000000 0.000000
# 3 -0.006762 -0.004661 0.014726 0.000000 0.000000 0.000000
# 4 0.000000 0.000000 0.000000 0.065259 0.000000 0.000000
# 5 0.000000 0.000000 0.000000 0.000000 1.287662 0.000000
# 6 0.000000 0.000000 0.000000 0.000000 0.000000 0.067147
#
#
# Mechanical properties :
#
#
# Convention : Reuss Voigt Hill
#
# Bulk Modulus (GPa) = 39.17002 46.68892 42.92947
# Shear Modulus (GPa) = 3.25069 13.96175 8.60622
#
# Velocity S-wave (km/s) = 1.34487 2.78716 2.18825
# Velocity P-wave (km/s) = 4.91991 6.02786 5.50185
#
# Compressibility (1/GPa) = 0.02552973
#
# Stress axis : x y z
#
# Youngs Moduli (GPa) = 48.65007 30.99592 67.90647
#
# Poissons Ratio (x) = 0.29706 0.45916
# Poissons Ratio (y) = 0.46625 0.31654
# Poissons Ratio (z) = 0.32896 0.14448
#
# Static dielectric constant tensor:
#      x y z
#    x 1.619010 0.000000 0.000000 
#    y 0.000000 1.611100 0.000000 
#    z 0.000000 0.000000 1.642700 
# 
# From -- ./inp_files/70995.got.cif
#   From: 2010.05.17/outbox.cif.g08.bks.cpg/sg65_36_cif.got.tgz:70995.got - 2010.06.03 17:01:31.
