data_PCOD9491026
_publ_section_title
;
Structure prediction by ZEFSAII (Michael W. Deem and Ramdas Pophale) SiO2 
 PCOD9491026
Probable space group: C M M M
;
_chemical_formula_sum "Si O2"
_cell_formula_units_Z 48
_cell_length_a 19.319661
_cell_length_b 7.436467
_cell_length_c 17.433947
_cell_angle_alpha 90.000000
_cell_angle_beta 90.000000
_cell_angle_gamma 90.000000
_cell_volume 2504.735540
_symmetry_space_group_name_H-M "C M M M"
_symmetry_group_IT_number 65
_symmetry_cell_setting 'orthorhombic'
loop_
_space_group_symop_operation_xyz
x,y,z
-x,-y,z
x,-y,-z
-x,y,-z
-x,-y,-z
x,y,-z
-x,y,z
x,-y,z
1/2+x,1/2+y,z
1/2-x,1/2-y,z
1/2+x,1/2-y,-z
1/2-x,1/2+y,-z
1/2-x,1/2-y,-z
1/2+x,1/2+y,-z
1/2-x,1/2+y,z
1/2+x,1/2-y,z
loop_
_atom_site_type_symbol
_atom_site_label
_atom_site_fract_x
_atom_site_fract_y
_atom_site_fract_z
Si Si1 0.330982 0.213871 0.817542
Si Si2 0.170203 0.714286 0.357882
Si Si3 0.579645 0.220490 0.500000
Si Si4 0.918462 0.000000 0.908356
O O1 0.250000 0.250000 0.835089
O O2 0.341782 0.277173 0.729177
O O3 0.380193 0.327634 0.872190
O O4 0.343283 0.000000 0.822663
O O5 0.161565 0.500000 0.354779
O O6 0.250000 0.750000 0.378414
O O7 0.119675 0.782400 0.423848
O O8 0.500000 0.274445 0.500000
O O9 0.581545 0.000000 0.500000
O O10 0.000000 0.000000 0.889616
O O11 0.911088 0.000000 0.000000
#
# Coordination Sequence:
#
# PCOD9491026 Si02
#       4
#    16  16   8   8
#     4  10  20  39  65  93 120 156 207 253 298 359
#     4   9  18  31  55  81 108 147 190 239 289 339
#     4   9  17  30  47  75 112 149 192 234 279 339
#     4  11  26  44  62  91 128 160 193 245 314 372
#
# _framework density 19.163699999999999
#
# number of rings (size 3 to 8) (size 9 to 14) (size 15 to 20)
#    0.000    2.333    1.667    0.500    2.333    3.333 
#    0.000    5.000    0.000    1.000    0.000    0.000 
#    0.000    0.000    0.000    0.000    0.000    0.000 
#
# Total GULP energy -134007.471447 kJ/mol
# GULP energy per Si atom -5583.644644 kJ/mol
# Density = 1.912008 g / cm^3
# Si number density = 19.163700 Si / 1000 Ang^3
#
#
#
# Elastic Constant Matrix: (Units=GPa)
#
#
# Indices 1 2 3 4 5 6 
#
# 1 166.0498 48.3046 125.4414 0.0000 0.0000 0.0000
# 2 48.3046 107.1466 45.3424 0.0000 0.0000 0.0000
# 3 125.4414 45.3424 124.5995 0.0000 0.0000 0.0000
# 4 0.0000 0.0000 0.0000 -336.0311 0.0000 0.0000
# 5 0.0000 0.0000 0.0000 0.0000 53.4667 0.0000
# 6 0.0000 0.0000 0.0000 0.0000 0.0000 21.6131
#
#
#
# Elastic Compliance Matrix: (Units=1/GPa)
#
#
# Indices 1 2 3 4 5 6 
#
# 1 0.025200 -0.000738 -0.025101 0.000000 0.000000 0.000000
# 2 -0.000738 0.011054 -0.003279 0.000000 0.000000 0.000000
# 3 -0.025101 -0.003279 0.034490 0.000000 0.000000 0.000000
# 4 0.000000 0.000000 0.000000 -0.002976 0.000000 0.000000
# 5 0.000000 0.000000 0.000000 0.000000 0.018703 0.000000
# 6 0.000000 0.000000 0.000000 0.000000 0.000000 0.046268
#
#
# Mechanical properties :
#
#
# Convention : Reuss Voigt Hill
#
# Bulk Modulus (GPa) = 79.96382 92.88584 86.42483
# Shear Modulus (GPa) = 25.62202 -40.27643 -7.32721
#
# Velocity S-wave (km/s) = 3.66048 -4.58941 -1.95749
# Velocity P-wave (km/s) = 7.72546 4.52674 6.33143
#
# Compressibility (1/GPa) = 0.01250566
#
# Stress axis : x y z
#
# Youngs Moduli (GPa) = 39.68306 90.46887 28.99402
#
# Poissons Ratio (x) = 0.06680 0.72779
# Poissons Ratio (y) = 0.02930 0.09507
# Poissons Ratio (z) = 0.99609 0.29666
#
# Static dielectric constant tensor:
#      x y z
#    x 1.654330 0.000000 0.000000 
#    y 0.000000 1.696680 0.000000 
#    z 0.000000 0.000000 1.660990 
# 
# From -- ./inp_files/41656.got.cif
#   From: 2010.05.17/outbox.cif.g08.bks.cpg/sg65_21_cif.got.tgz:41656.got - 2010.06.03 17:01:31.
