data_PCOD9491869
_publ_section_title
;
Structure prediction by ZEFSAII (Michael W. Deem and Ramdas Pophale) SiO2 
 PCOD9491869
Probable space group: C M M M
;
_chemical_formula_sum "Si O2"
_cell_formula_units_Z 90
_cell_length_a 19.935704
_cell_length_b 8.281643
_cell_length_c 29.322644
_cell_angle_alpha 90.000000
_cell_angle_beta 90.000000
_cell_angle_gamma 90.000000
_cell_volume 4841.179769
_symmetry_space_group_name_H-M "C M M M"
_symmetry_group_IT_number 65
_symmetry_cell_setting 'orthorhombic'
loop_
_space_group_symop_operation_xyz
x,y,z
-x,-y,z
x,-y,-z
-x,y,-z
-x,-y,-z
x,y,-z
-x,y,z
x,-y,z
1/2+x,1/2+y,z
1/2-x,1/2-y,z
1/2+x,1/2-y,-z
1/2-x,1/2+y,-z
1/2-x,1/2-y,-z
1/2+x,1/2+y,-z
1/2-x,1/2+y,z
1/2+x,1/2-y,z
loop_
_atom_site_type_symbol
_atom_site_label
_atom_site_fract_x
_atom_site_fract_y
_atom_site_fract_z
Si Si1 0.500000 0.000000 0.500000
Si Si2 0.106243 0.193251 0.500000
Si Si3 0.077111 0.305807 0.868366
Si Si4 0.577620 0.307985 0.771475
Si Si5 0.825326 0.188357 0.402374
Si Si6 0.174229 0.304747 0.051631
Si Si7 0.076577 0.691184 0.325046
O O1 0.557103 0.850118 0.500000
O O2 0.149735 0.208860 0.545868
O O3 0.081099 0.000000 0.500000
O O4 0.074727 0.500000 0.870823
O O5 0.105815 0.259956 0.818689
O O6 0.122810 0.246371 0.909893
O O7 0.000000 0.245608 0.871583
O O8 0.500000 0.248390 0.770075
O O9 0.577549 0.500000 0.774524
O O10 0.605939 0.258355 0.722479
O O11 0.750000 0.250000 0.396969
O O12 0.877434 0.270387 0.367965
O O13 0.826607 0.000000 0.391374
O O14 0.172896 0.500000 0.051912
O O15 0.250000 0.250000 0.061286
O O16 0.157015 0.251449 0.000000
O O17 0.072142 0.500000 0.320124
O O18 0.000000 0.755437 0.331633
#
# Coordination Sequence:
#
# PCOD9491869 Si02
#       7
#     2   8  16  16  16  16  16
#     4  12  26  40  76  94 132 160 200 260 296 354
#     4  10  26  44  65  98 129 162 202 249 301 354
#     4   9  17  30  50  74 101 132 171 218 265 319
#     4   9  17  31  51  77 108 141 176 220 278 330
#     4  11  24  42  63  87 122 160 200 241 289 351
#     4   9  18  32  49  70  98 133 170 210 260 316
#     4  10  21  36  59  87 115 148 191 236 285 339
#
# _framework density 18.590509000000001
#
# number of rings (size 3 to 8) (size 9 to 14) (size 15 to 20)
#    0.000    2.311    0.000    2.000    3.733    4.267 
#    0.000    2.667    0.000    2.133    0.000    4.978 
#    0.000    0.000    0.000    0.000    0.000    0.000 
#
# Total GULP energy -250539.025839 kJ/mol
# GULP energy per Si atom -5567.533908 kJ/mol
# Density = 1.854820 g / cm^3
# Si number density = 18.590509 Si / 1000 Ang^3
#
#
#
# Elastic Constant Matrix: (Units=GPa)
#
#
# Indices 1 2 3 4 5 6 
#
# 1 77.1725 20.3576 67.0955 0.0000 0.0000 0.0000
# 2 20.3576 49.1759 18.2155 0.0000 0.0000 0.0000
# 3 67.0955 18.2155 165.3559 0.0000 0.0000 0.0000
# 4 0.0000 0.0000 0.0000 17.0811 0.0000 0.0000
# 5 0.0000 0.0000 0.0000 0.0000 -4.0703 0.0000
# 6 0.0000 0.0000 0.0000 0.0000 0.0000 26.3201
#
#
#
# Elastic Compliance Matrix: (Units=1/GPa)
#
#
# Indices 1 2 3 4 5 6 
#
# 1 0.021560 -0.005927 -0.008095 0.000000 0.000000 0.000000
# 2 -0.005927 0.022829 -0.000110 0.000000 0.000000 0.000000
# 3 -0.008095 -0.000110 0.009344 0.000000 0.000000 0.000000
# 4 0.000000 0.000000 0.000000 0.058544 0.000000 0.000000
# 5 0.000000 0.000000 0.000000 0.000000 -0.245684 0.000000
# 6 0.000000 0.000000 0.000000 0.000000 0.000000 0.037994
#
#
# Mechanical properties :
#
#
# Convention : Reuss Voigt Hill
#
# Bulk Modulus (GPa) = 39.26239 55.89350 47.57795
# Shear Modulus (GPa) = -85.23902 20.26856 -32.48523
#
# Velocity S-wave (km/s) = -6.77867 3.30550 -4.18474
# Velocity P-wave (km/s) = 6.33259 6.68575 1.51618
#
# Compressibility (1/GPa) = 0.02546967
#
# Stress axis : x y z
#
# Youngs Moduli (GPa) = 46.38313 43.80317 107.01538
#
# Poissons Ratio (x) = 0.25960 0.86632
# Poissons Ratio (y) = 0.27489 0.01178
# Poissons Ratio (z) = 0.37548 0.00482
#
# Static dielectric constant tensor:
#      x y z
#    x 1.621320 0.000000 0.000000 
#    y 0.000000 1.653510 0.000000 
#    z 0.000000 0.000000 1.651470 
# 
# From -- ./inp_files/71091.got.cif
#   From: 2010.05.17/outbox.cif.g08.bks.cpg/sg65_36_cif.got.tgz:71091.got - 2010.06.03 17:01:31.
