data_PCOD9491818
_publ_section_title
;
Structure prediction by ZEFSAII (Michael W. Deem and Ramdas Pophale) SiO2 
 PCOD9491818
Probable space group: C M M M
;
_chemical_formula_sum "Si O2"
_cell_formula_units_Z 96
_cell_length_a 20.781159
_cell_length_b 25.325883
_cell_length_c 7.727233
_cell_angle_alpha 90.000000
_cell_angle_beta 90.000000
_cell_angle_gamma 90.000000
_cell_volume 4066.852012
_symmetry_space_group_name_H-M "C M M M"
_symmetry_group_IT_number 65
_symmetry_cell_setting 'orthorhombic'
loop_
_space_group_symop_operation_xyz
x,y,z
-x,-y,z
x,-y,-z
-x,y,-z
-x,-y,-z
x,y,-z
-x,y,z
x,-y,z
1/2+x,1/2+y,z
1/2-x,1/2-y,z
1/2+x,1/2-y,-z
1/2-x,1/2+y,-z
1/2-x,1/2-y,-z
1/2+x,1/2+y,-z
1/2-x,1/2+y,z
1/2+x,1/2-y,z
loop_
_atom_site_type_symbol
_atom_site_label
_atom_site_fract_x
_atom_site_fract_y
_atom_site_fract_z
Si Si1 0.070236 0.671866 0.710579
Si Si2 0.677544 0.744601 0.204367
Si Si3 0.068544 0.829462 0.201558
Si Si4 0.748144 0.063276 0.806495
Si Si5 0.105761 0.559234 0.299097
Si Si6 0.109651 0.940155 0.699933
O O1 0.073393 0.671629 0.500000
O O2 0.131848 0.704272 0.774747
O O3 0.072740 0.611172 0.774033
O O4 0.000000 0.693956 0.761240
O O5 0.750000 0.750000 0.276931
O O6 0.631673 0.698306 0.278736
O O7 0.686254 0.733625 0.000000
O O8 0.074549 0.892478 0.208447
O O9 0.000000 0.814621 0.282987
O O10 0.066858 0.813734 0.000000
O O11 0.681509 0.073695 0.712024
O O12 0.814715 0.074485 0.713135
O O13 0.748407 0.000000 0.823275
O O14 0.748199 0.086879 0.000000
O O15 0.086974 0.555558 0.500000
O O16 0.096129 0.500000 0.223788
O O17 0.090234 0.940644 0.500000
O O18 0.101014 0.000000 0.768760
#
# Coordination Sequence:
#
# PCOD9491818 Si02
#       6
#    16  16  16  16  16  16
#     4  10  22  39  60  89 124 161 201 245 296 355
#     4  10  23  43  66  91 117 150 198 253 306 359
#     4  10  22  40  61  86 119 158 198 242 295 355
#     4   9  17  30  50  77 111 152 196 241 287 337
#     4   9  18  33  54  83 121 161 199 240 289 346
#     4  10  21  36  56  85 121 158 195 238 292 351
#
# _framework density 23.60548
#
# number of rings (size 3 to 8) (size 9 to 14) (size 15 to 20)
#    0.000    2.333    0.000    1.500    2.333    6.667 
#    0.000    3.333    0.000    0.000    0.000    3.500 
#    0.000    0.000    0.000    0.000    0.000    0.000 
#
# Total GULP energy -267788.660967 kJ/mol
# GULP energy per Si atom -5578.930437 kJ/mol
# Density = 2.355175 g / cm^3
# Si number density = 23.605480 Si / 1000 Ang^3
#
#
#
# Elastic Constant Matrix: (Units=GPa)
#
#
# Indices 1 2 3 4 5 6 
#
# 1 188.8223 65.5913 -2.0103 0.0000 0.0000 0.0000
# 2 65.5913 135.8101 -8.5394 0.0000 0.0000 0.0000
# 3 -2.0103 -8.5394 44.5676 0.0000 0.0000 0.0000
# 4 0.0000 0.0000 0.0000 16.3083 0.0000 0.0000
# 5 0.0000 0.0000 0.0000 0.0000 -4.9437 0.0000
# 6 0.0000 0.0000 0.0000 0.0000 0.0000 16.6293
#
#
#
# Elastic Compliance Matrix: (Units=1/GPa)
#
#
# Indices 1 2 3 4 5 6 
#
# 1 0.006368 -0.003095 -0.000306 0.000000 0.000000 0.000000
# 2 -0.003095 0.008957 0.001577 0.000000 0.000000 0.000000
# 3 -0.000306 0.001577 0.022726 0.000000 0.000000 0.000000
# 4 0.000000 0.000000 0.000000 0.061318 0.000000 0.000000
# 5 0.000000 0.000000 0.000000 0.000000 -0.202278 0.000000
# 6 0.000000 0.000000 0.000000 0.000000 0.000000 0.060135
#
#
# Mechanical properties :
#
#
# Convention : Reuss Voigt Hill
#
# Bulk Modulus (GPa) = 29.06691 53.25368 41.16029
# Shear Modulus (GPa) = -180.77693 26.54267 -77.11713
#
# Velocity S-wave (km/s) = -8.76064 3.35689 -5.72190
# Velocity P-wave (km/s) = 9.48638 6.13464 5.11653
#
# Compressibility (1/GPa) = 0.03440338
#
# Stress axis : x y z
#
# Youngs Moduli (GPa) = 157.04257 111.64536 44.00220
#
# Poissons Ratio (x) = 0.34550 0.01345
# Poissons Ratio (y) = 0.48598 -0.06937
# Poissons Ratio (z) = 0.04801 -0.17602
#
# Static dielectric constant tensor:
#      x y z
#    x 1.928420 0.000000 0.000000 
#    y 0.000000 1.917540 0.000000 
#    z 0.000000 0.000000 1.877460 
# 
# From -- ./inp_files/12281.got.cif
#   From: 2010.05.17/outbox.cif.g08.bks.cpg/sg65_7_cif.got.tgz:12281.got - 2010.06.03 17:01:31.
