data_PCOD9491743
_publ_section_title
;
Structure prediction by ZEFSAII (Michael W. Deem and Ramdas Pophale) SiO2 
 PCOD9491743
Probable space group: C M M M
;
_chemical_formula_sum "Si O2"
_cell_formula_units_Z 58
_cell_length_a 24.917657
_cell_length_b 8.871903
_cell_length_c 14.443015
_cell_angle_alpha 90.000000
_cell_angle_beta 90.000000
_cell_angle_gamma 90.000000
_cell_volume 3192.874515
_symmetry_space_group_name_H-M "C M M M"
_symmetry_group_IT_number 65
_symmetry_cell_setting 'orthorhombic'
loop_
_space_group_symop_operation_xyz
x,y,z
-x,-y,z
x,-y,-z
-x,y,-z
-x,-y,-z
x,y,-z
-x,y,z
x,-y,z
1/2+x,1/2+y,z
1/2-x,1/2-y,z
1/2+x,1/2-y,-z
1/2-x,1/2+y,-z
1/2-x,1/2-y,-z
1/2+x,1/2+y,-z
1/2-x,1/2+y,z
1/2+x,1/2-y,z
loop_
_atom_site_type_symbol
_atom_site_label
_atom_site_fract_x
_atom_site_fract_y
_atom_site_fract_z
Si Si1 0.806624 0.174613 0.389247
Si Si2 0.500000 0.500000 0.500000
Si Si3 0.500000 0.667064 0.695521
Si Si4 0.192222 0.179798 0.890611
Si Si5 0.611541 0.820922 0.254919
O O1 0.811844 0.176337 0.500000
O O2 0.750000 0.250000 0.365188
O O3 0.853363 0.268863 0.342818
O O4 0.808657 0.000000 0.358809
O O5 0.500000 0.629631 0.584592
O O6 0.500000 0.500000 0.739236
O O7 0.447143 0.753363 0.728428
O O8 0.250000 0.250000 0.863654
O O9 0.144357 0.250845 0.831169
O O10 0.194004 0.000000 0.876862
O O11 0.184794 0.209886 0.000000
O O12 0.609782 0.000000 0.246582
#
# Coordination Sequence:
#
# PCOD9491743 Si02
#       5
#    16   2   8  16  16
#     4  10  21  36  55  80 113 151 193 241 296 355
#     4   8  24  44  70  84 114 160 214 256 308 346
#     4  10  23  43  64  86 114 154 207 249 300 352
#     4  10  21  39  64  93 124 161 203 249 303 363
#     4  12  24  38  59  87 121 156 197 247 302 361
#
# _framework density 18.16545
#
# number of rings (size 3 to 8) (size 9 to 14) (size 15 to 20)
#    0.414    1.103    0.000    5.379    1.931    3.310 
#    0.000    1.379    0.000    4.138    0.000    0.000 
#    0.000    0.000    0.000    0.000    0.000    0.000 
#
# Total GULP energy -161706.823985 kJ/mol
# GULP energy per Si atom -5576.097379 kJ/mol
# Density = 1.812411 g / cm^3
# Si number density = 18.165450 Si / 1000 Ang^3
#
#
#
# Elastic Constant Matrix: (Units=GPa)
#
#
# Indices 1 2 3 4 5 6 
#
# 1 191.1476 91.0755 68.9995 0.0000 0.0000 0.0000
# 2 91.0755 159.4274 53.3888 0.0000 0.0000 0.0000
# 3 68.9995 53.3888 95.4297 0.0000 0.0000 0.0000
# 4 0.0000 0.0000 0.0000 27.0044 0.0000 0.0000
# 5 0.0000 0.0000 0.0000 0.0000 -23.1593 0.0000
# 6 0.0000 0.0000 0.0000 0.0000 0.0000 34.4524
#
#
#
# Elastic Compliance Matrix: (Units=1/GPa)
#
#
# Indices 1 2 3 4 5 6 
#
# 1 0.008333 -0.003375 -0.004137 0.000000 0.000000 0.000000
# 2 -0.003375 0.009085 -0.002643 0.000000 0.000000 0.000000
# 3 -0.004137 -0.002643 0.014949 0.000000 0.000000 0.000000
# 4 0.000000 0.000000 0.000000 0.037031 0.000000 0.000000
# 5 0.000000 0.000000 0.000000 0.000000 -0.043179 0.000000
# 6 0.000000 0.000000 0.000000 0.000000 0.000000 0.029026
#
#
# Mechanical properties :
#
#
# Convention : Reuss Voigt Hill
#
# Bulk Modulus (GPa) = 82.93378 96.99248 89.96313
# Shear Modulus (GPa) = 62.83580 23.16223 42.99902
#
# Velocity S-wave (km/s) = 5.88778 3.57469 4.87054
# Velocity P-wave (km/s) = 9.59036 8.39927 9.01451
#
# Compressibility (1/GPa) = 0.01205781
#
# Stress axis : x y z
#
# Youngs Moduli (GPa) = 120.00570 110.06633 66.89631
#
# Poissons Ratio (x) = 0.37147 0.27674
# Poissons Ratio (y) = 0.40502 0.17678
# Poissons Ratio (z) = 0.49645 0.29087
#
# Static dielectric constant tensor:
#      x y z
#    x 1.624500 0.000000 0.000000 
#    y 0.000000 1.608840 0.000000 
#    z 0.000000 0.000000 1.640470 
# 
# From -- ./inp_files/45015.got.cif
#   From: 2010.05.17/outbox.cif.g08.bks.cpg/sg65_23_cif.got.tgz:45015.got - 2010.06.03 17:01:31.
