data_PCOD9491034
_publ_section_title
;
Structure prediction by ZEFSAII (Michael W. Deem and Ramdas Pophale) SiO2 
 PCOD9491034
Probable space group: C M M M
;
_chemical_formula_sum "Si O2"
_cell_formula_units_Z 56
_cell_length_a 15.971923
_cell_length_b 11.699250
_cell_length_c 16.285022
_cell_angle_alpha 90.000000
_cell_angle_beta 90.000000
_cell_angle_gamma 90.000000
_cell_volume 3043.011397
_symmetry_space_group_name_H-M "C M M M"
_symmetry_group_IT_number 65
_symmetry_cell_setting 'orthorhombic'
loop_
_space_group_symop_operation_xyz
x,y,z
-x,-y,z
x,-y,-z
-x,y,-z
-x,-y,-z
x,y,-z
-x,y,z
x,-y,z
1/2+x,1/2+y,z
1/2-x,1/2-y,z
1/2+x,1/2-y,-z
1/2-x,1/2+y,-z
1/2-x,1/2-y,-z
1/2+x,1/2+y,-z
1/2-x,1/2+y,z
1/2+x,1/2-y,z
loop_
_atom_site_type_symbol
_atom_site_label
_atom_site_fract_x
_atom_site_fract_y
_atom_site_fract_z
Si Si1 0.500000 0.127934 0.902524
Si Si2 0.807045 0.633968 0.500000
Si Si3 0.899624 0.000000 0.904093
Si Si4 0.153720 0.235739 0.827434
Si Si5 0.100448 0.369120 0.326749
O O1 0.415544 0.188341 0.873556
O O2 0.500000 0.000000 0.869583
O O3 0.500000 0.127257 0.000000
O O4 0.771150 0.500000 0.500000
O O5 0.750000 0.750000 0.500000
O O6 0.863280 0.640868 0.418125
O O7 0.870231 0.108725 0.852985
O O8 0.000000 0.000000 0.907653
O O9 0.870223 0.000000 0.000000
O O10 0.250000 0.250000 0.851662
O O11 0.141788 0.276446 0.733514
O O12 0.119025 0.500000 0.298685
O O13 0.000000 0.354530 0.325809
#
# Coordination Sequence:
#
# PCOD9491034 Si02
#       5
#     8   8   8  16  16
#     4  11  24  43  65  90 124 164 214 275 328 386
#     4  10  21  39  63  99 131 168 210 261 321 383
#     4  11  24  44  64  86 128 176 215 266 332 399
#     4  12  25  41  65  95 127 167 218 268 326 386
#     4  10  20  39  67  93 126 166 216 267 314 377
#
# _framework density 18.402823000000001
#
# number of rings (size 3 to 8) (size 9 to 14) (size 15 to 20)
#    0.000    1.143    2.857    3.000    4.000    4.000 
#    2.571    0.000    0.000    0.857    0.000    0.000 
#    0.000    0.000    0.000    0.000    0.000    0.000 
#
# Total GULP energy -156215.234444 kJ/mol
# GULP energy per Si atom -5579.115516 kJ/mol
# Density = 1.836094 g / cm^3
# Si number density = 18.402823 Si / 1000 Ang^3
#
#
#
# Elastic Constant Matrix: (Units=GPa)
#
#
# Indices 1 2 3 4 5 6 
#
# 1 131.6011 74.9456 31.9819 0.0000 0.0000 0.0000
# 2 74.9456 183.3849 66.0565 0.0000 0.0000 0.0000
# 3 31.9819 66.0565 120.4572 0.0000 0.0000 0.0000
# 4 0.0000 0.0000 0.0000 44.3090 0.0000 0.0000
# 5 0.0000 0.0000 0.0000 0.0000 82.3172 0.0000
# 6 0.0000 0.0000 0.0000 0.0000 0.0000 28.2173
#
#
#
# Elastic Compliance Matrix: (Units=1/GPa)
#
#
# Indices 1 2 3 4 5 6 
#
# 1 0.009929 -0.003873 -0.000512 0.000000 0.000000 0.000000
# 2 -0.003873 0.008306 -0.003527 0.000000 0.000000 0.000000
# 3 -0.000512 -0.003527 0.010372 0.000000 0.000000 0.000000
# 4 0.000000 0.000000 0.000000 0.022569 0.000000 0.000000
# 5 0.000000 0.000000 0.000000 0.000000 0.012148 0.000000
# 6 0.000000 0.000000 0.000000 0.000000 0.000000 0.035439
#
#
# Mechanical properties :
#
#
# Convention : Reuss Voigt Hill
#
# Bulk Modulus (GPa) = 78.23051 86.82347 82.52699
# Shear Modulus (GPa) = 42.07050 48.46596 45.26823
#
# Velocity S-wave (km/s) = 4.78649 5.13744 4.96507
# Velocity P-wave (km/s) = 8.55276 9.08146 8.82107
#
# Compressibility (1/GPa) = 0.01278274
#
# Stress axis : x y z
#
# Youngs Moduli (GPa) = 100.71515 120.39115 96.41699
#
# Poissons Ratio (x) = 0.46631 0.04938
# Poissons Ratio (y) = 0.39010 0.34003
# Poissons Ratio (z) = 0.05158 0.42457
#
# Static dielectric constant tensor:
#      x y z
#    x 1.576680 0.000000 0.000000 
#    y 0.000000 0.452940 0.000000 
#    z 0.000000 0.000000 1.643120 
# 
# From -- ./inp_files/39299.got.cif
#   From: 2010.05.17/outbox.cif.g08.bks.cpg/sg65_20_cif.got.tgz:39299.got - 2010.06.03 17:01:31.
