data_PCOD9491496
_publ_section_title
;
Structure prediction by ZEFSAII (Michael W. Deem and Ramdas Pophale) SiO2 
 PCOD9491496
Probable space group: C M M M
;
_chemical_formula_sum "Si O2"
_cell_formula_units_Z 72
_cell_length_a 7.633914
_cell_length_b 18.688321
_cell_length_c 25.925523
_cell_angle_alpha 90.000000
_cell_angle_beta 90.000000
_cell_angle_gamma 90.000000
_cell_volume 3698.665654
_symmetry_space_group_name_H-M "C M M M"
_symmetry_group_IT_number 65
_symmetry_cell_setting 'orthorhombic'
loop_
_space_group_symop_operation_xyz
x,y,z
-x,-y,z
x,-y,-z
-x,y,-z
-x,-y,-z
x,y,-z
-x,y,z
x,-y,z
1/2+x,1/2+y,z
1/2-x,1/2-y,z
1/2+x,1/2-y,-z
1/2-x,1/2+y,-z
1/2-x,1/2-y,-z
1/2+x,1/2+y,-z
1/2-x,1/2+y,z
1/2+x,1/2-y,z
loop_
_atom_site_type_symbol
_atom_site_label
_atom_site_fract_x
_atom_site_fract_y
_atom_site_fract_z
Si Si1 0.208707 0.419626 0.157928
Si Si2 0.292648 0.333707 0.055804
Si Si3 0.500000 0.415783 0.561708
Si Si4 0.212744 0.416866 0.728545
Si Si5 0.209667 0.334308 0.625720
O O1 0.278190 0.500000 0.149830
O O2 0.237691 0.373067 0.107543
O O3 0.273194 0.393701 0.214134
O O4 0.000000 0.424717 0.163472
O O5 0.500000 0.341654 0.053422
O O6 0.250000 0.250000 0.059824
O O7 0.219755 0.359238 0.000000
O O8 0.500000 0.500000 0.575774
O O9 0.500000 0.410094 0.500000
O O10 0.328875 0.376839 0.584999
O O11 0.266426 0.500000 0.720789
O O12 0.264174 0.366147 0.681638
O O13 0.000000 0.416700 0.728215
O O14 0.250000 0.250000 0.623179
O O15 0.000000 0.345386 0.618573
#
# Coordination Sequence:
#
# PCOD9491496 Si02
#       5
#    16  16   8  16  16
#     4   9  18  34  55  81 111 144 184 230 285 346
#     4  10  21  36  52  71 100 138 184 236 289 346
#     4  11  26  46  68  98 131 167 218 266 309 374
#     4   8  16  33  58  84 115 154 194 240 293 355
#     4  11  22  41  65  96 132 170 210 260 318 369
#
# _framework density 19.466479
#
# number of rings (size 3 to 8) (size 9 to 14) (size 15 to 20)
#    0.000    2.333    1.111    2.667    0.000    5.333 
#    2.000    5.556    0.000    0.000    0.000    0.000 
#    0.000    0.000    0.000    0.000    0.000    0.000 
#
# Total GULP energy -200742.020374 kJ/mol
# GULP energy per Si atom -5576.167233 kJ/mol
# Density = 1.942217 g / cm^3
# Si number density = 19.466479 Si / 1000 Ang^3
#
#
#
# Elastic Constant Matrix: (Units=GPa)
#
#
# Indices 1 2 3 4 5 6 
#
# 1 79.4369 28.6671 42.9856 0.0000 0.0000 0.0000
# 2 28.6671 112.2159 95.2899 0.0000 0.0000 0.0000
# 3 42.9856 95.2899 169.0974 0.0000 0.0000 0.0000
# 4 0.0000 0.0000 0.0000 85.9393 0.0000 0.0000
# 5 0.0000 0.0000 0.0000 0.0000 27.5765 0.0000
# 6 0.0000 0.0000 0.0000 0.0000 0.0000 0.7010
#
#
#
# Elastic Compliance Matrix: (Units=1/GPa)
#
#
# Indices 1 2 3 4 5 6 
#
# 1 0.014669 -0.001114 -0.003101 0.000000 0.000000 0.000000
# 2 -0.001114 0.017173 -0.009394 0.000000 0.000000 0.000000
# 3 -0.003101 -0.009394 0.011996 0.000000 0.000000 0.000000
# 4 0.000000 0.000000 0.000000 0.011636 0.000000 0.000000
# 5 0.000000 0.000000 0.000000 0.000000 0.036263 0.000000
# 6 0.000000 0.000000 0.000000 0.000000 0.000000 1.426485
#
#
# Mechanical properties :
#
#
# Convention : Reuss Voigt Hill
#
# Bulk Modulus (GPa) = 60.17153 77.18172 68.67662
# Shear Modulus (GPa) = 3.22377 35.76387 19.49382
#
# Velocity S-wave (km/s) = 1.28828 4.29091 3.16793
# Velocity P-wave (km/s) = 5.76110 8.01772 6.98119
#
# Compressibility (1/GPa) = 0.01661916
#
# Stress axis : x y z
#
# Youngs Moduli (GPa) = 68.17229 58.22978 83.36112
#
# Poissons Ratio (x) = 0.06486 0.25851
# Poissons Ratio (y) = 0.07594 0.78312
# Poissons Ratio (z) = 0.21141 0.54703
#
# Static dielectric constant tensor:
#      x y z
#    x 0.892410 0.000000 0.000000 
#    y 0.000000 1.643700 0.000000 
#    z 0.000000 0.000000 1.716790 
# 
# From -- ./inp_files/67127.got.cif
#   From: 2010.05.17/outbox.cif.g08.bks.cpg/sg65_34_cif.got.tgz:67127.got - 2010.06.03 17:01:31.
