data_PCOD9491951
_publ_section_title
;
Structure prediction by ZEFSAII (Michael W. Deem and Ramdas Pophale) SiO2 
 PCOD9491951
Probable space group: C M M M
;
_chemical_formula_sum "Si O2"
_cell_formula_units_Z 72
_cell_length_a 7.718978
_cell_length_b 15.144485
_cell_length_c 28.875781
_cell_angle_alpha 90.000000
_cell_angle_beta 90.000000
_cell_angle_gamma 90.000000
_cell_volume 3375.577255
_symmetry_space_group_name_H-M "C M M M"
_symmetry_group_IT_number 65
_symmetry_cell_setting 'orthorhombic'
loop_
_space_group_symop_operation_xyz
x,y,z
-x,-y,z
x,-y,-z
-x,y,-z
-x,-y,-z
x,y,-z
-x,y,z
x,-y,z
1/2+x,1/2+y,z
1/2-x,1/2-y,z
1/2+x,1/2-y,-z
1/2-x,1/2+y,-z
1/2-x,1/2-y,-z
1/2+x,1/2+y,-z
1/2-x,1/2+y,z
1/2+x,1/2-y,z
loop_
_atom_site_type_symbol
_atom_site_label
_atom_site_fract_x
_atom_site_fract_y
_atom_site_fract_z
Si Si1 0.296482 0.000000 0.322919
Si Si2 0.705291 0.352998 0.750251
Si Si3 0.707663 0.146112 0.500000
Si Si4 0.700879 0.394312 0.049403
Si Si5 0.787360 0.500000 0.427225
Si Si6 0.207981 0.852607 0.150195
O O1 0.253584 0.085435 0.292270
O O2 0.221335 0.000000 0.374669
O O3 0.500000 0.000000 0.329365
O O4 0.500000 0.356845 0.754824
O O5 0.750000 0.250000 0.743237
O O6 0.774230 0.388167 0.800290
O O7 0.500000 0.141758 0.500000
O O8 0.750000 0.250000 0.500000
O O9 0.766568 0.087748 0.544286
O O10 0.500000 0.362464 0.050277
O O11 0.695549 0.500000 0.047203
O O12 0.780959 0.375528 0.099535
O O13 0.777726 0.363046 0.000000
O O14 0.000000 0.500000 0.427340
O O15 0.250000 0.750000 0.154937
O O16 0.000000 0.870687 0.147759
#
# Coordination Sequence:
#
# PCOD9491951 Si02
#       6
#     8  16   8  16   8  16
#     4  11  22  37  58  84 113 149 188 230 279 322
#     4  10  21  37  55  78 109 145 186 231 277 330
#     4   9  17  35  60  84 112 149 185 219 266 316
#     4   8  14  25  43  67  91 117 154 199 247 305
#     4   8  18  36  56  80 114 149 183 221 265 324
#     4   9  18  31  49  69  94 124 162 207 256 312
#
# _framework density 21.329687
#
# number of rings (size 3 to 8) (size 9 to 14) (size 15 to 20)
#    0.000    2.889    0.000    2.333    1.556    2.222 
#    0.000    5.556    0.000    0.000    0.000    1.556 
#    0.000    0.000    0.000    0.000    0.000    0.000 
#
# Total GULP energy -200429.138201 kJ/mol
# GULP energy per Si atom -5567.476061 kJ/mol
# Density = 2.128114 g / cm^3
# Si number density = 21.329687 Si / 1000 Ang^3
#
#
#
# Elastic Constant Matrix: (Units=GPa)
#
#
# Indices 1 2 3 4 5 6 
#
# 1 38.1640 -0.3105 14.8666 0.0000 0.0000 0.0000
# 2 -0.3105 115.3290 96.0672 0.0000 0.0000 0.0000
# 3 14.8666 96.0672 270.9772 0.0000 0.0000 0.0000
# 4 0.0000 0.0000 0.0000 25.6959 0.0000 0.0000
# 5 0.0000 0.0000 0.0000 0.0000 15.0695 0.0000
# 6 0.0000 0.0000 0.0000 0.0000 0.0000 22.0481
#
#
#
# Elastic Compliance Matrix: (Units=1/GPa)
#
#
# Indices 1 2 3 4 5 6 
#
# 1 0.027053 0.001858 -0.002143 0.000000 0.000000 0.000000
# 2 0.001858 0.012432 -0.004509 0.000000 0.000000 0.000000
# 3 -0.002143 -0.004509 0.005407 0.000000 0.000000 0.000000
# 4 0.000000 0.000000 0.000000 0.038917 0.000000 0.000000
# 5 0.000000 0.000000 0.000000 0.000000 0.066359 0.000000
# 6 0.000000 0.000000 0.000000 0.000000 0.000000 0.045355
#
#
# Mechanical properties :
#
#
# Convention : Reuss Voigt Hill
#
# Bulk Modulus (GPa) = 28.32673 71.74631 50.03652
# Shear Modulus (GPa) = 23.05439 33.48584 28.27012
#
# Velocity S-wave (km/s) = 3.29121 3.96652 3.64454
# Velocity P-wave (km/s) = 5.26802 7.39510 6.42026
#
# Compressibility (1/GPa) = 0.03530234
#
# Stress axis : x y z
#
# Youngs Moduli (GPa) = 36.96515 80.43714 184.96018
#
# Poissons Ratio (x) = -0.14943 0.39633
# Poissons Ratio (y) = -0.06867 0.83405
# Poissons Ratio (z) = 0.07921 0.36272
#
# Static dielectric constant tensor:
#      x y z
#    x 1.835560 0.000000 0.000000 
#    y 0.000000 1.737980 0.000000 
#    z 0.000000 0.000000 1.886560 
# 
# From -- ./inp_files/72598.got.cif
#   From: 2010.05.17/outbox.cif.g08.bks.cpg/sg65_37_cif.got.tgz:72598.got - 2010.06.03 17:01:31.
