data_PCOD9491101
_publ_section_title
;
Structure prediction by ZEFSAII (Michael W. Deem and Ramdas Pophale) SiO2 
 PCOD9491101
Probable space group: C M M M
;
_chemical_formula_sum "Si O2"
_cell_formula_units_Z 72
_cell_length_a 18.062766
_cell_length_b 7.449064
_cell_length_c 28.076988
_cell_angle_alpha 90.000000
_cell_angle_beta 90.000000
_cell_angle_gamma 90.000000
_cell_volume 3777.778388
_symmetry_space_group_name_H-M "C M M M"
_symmetry_group_IT_number 65
_symmetry_cell_setting 'orthorhombic'
loop_
_space_group_symop_operation_xyz
x,y,z
-x,-y,z
x,-y,-z
-x,y,-z
-x,-y,-z
x,y,-z
-x,y,z
x,-y,z
1/2+x,1/2+y,z
1/2-x,1/2-y,z
1/2+x,1/2-y,-z
1/2-x,1/2+y,-z
1/2-x,1/2-y,-z
1/2+x,1/2+y,-z
1/2-x,1/2+y,z
1/2+x,1/2-y,z
loop_
_atom_site_type_symbol
_atom_site_label
_atom_site_fract_x
_atom_site_fract_y
_atom_site_fract_z
Si Si1 0.085786 0.217997 0.052779
Si Si2 0.411048 0.000000 0.783209
Si Si3 0.836977 0.212848 0.850157
Si Si4 0.336945 0.714011 0.500000
Si Si5 0.088920 0.789714 0.402552
Si Si6 0.589853 0.000000 0.326157
O O1 0.134584 0.272808 0.097570
O O2 0.000000 0.272149 0.059544
O O3 0.086551 0.000000 0.052119
O O4 0.109973 0.278074 0.000000
O O5 0.380184 0.827227 0.810951
O O6 0.385328 0.000000 0.728287
O O7 0.500000 0.000000 0.784646
O O8 0.750000 0.250000 0.846181
O O9 0.850890 0.000000 0.845175
O O10 0.650041 0.500000 0.500000
O O11 0.250000 0.750000 0.500000
O O12 0.373787 0.779256 0.451128
O O13 0.112190 0.672647 0.357234
O O14 0.000000 0.775007 0.407908
O O15 0.106801 0.000000 0.395965
O O16 0.500000 0.000000 0.324684
#
# Coordination Sequence:
#
# PCOD9491101 Si02
#       6
#    16   8  16   8  16   8
#     4   8  15  30  54  85 118 152 193 240 294 358
#     4  11  24  42  64  92 119 150 206 264 301 354
#     4  11  22  39  62  86 121 163 200 245 304 362
#     4  10  21  33  52  80 118 150 181 225 272 334
#     4   9  18  35  58  83 111 146 188 229 276 333
#     4   9  20  37  60  86 110 142 189 246 292 331
#
# _framework density 19.058820999999998
#
# number of rings (size 3 to 8) (size 9 to 14) (size 15 to 20)
#    0.000    2.444    1.111    1.667    1.556    4.000 
#    0.000    5.556    0.000    2.000    0.000    0.000 
#    0.000    0.000    0.000    0.000    0.000    0.000 
#
# Total GULP energy -200936.439653 kJ/mol
# GULP energy per Si atom -5581.567768 kJ/mol
# Density = 1.901544 g / cm^3
# Si number density = 19.058821 Si / 1000 Ang^3
#
#
#
# Elastic Constant Matrix: (Units=GPa)
#
#
# Indices 1 2 3 4 5 6 
#
# 1 66.8182 30.6898 69.0195 0.0000 0.0000 0.0000
# 2 30.6898 107.0148 75.1552 0.0000 0.0000 0.0000
# 3 69.0195 75.1552 209.8738 0.0000 0.0000 0.0000
# 4 0.0000 0.0000 0.0000 32.3276 0.0000 0.0000
# 5 0.0000 0.0000 0.0000 0.0000 -9.3969 0.0000
# 6 0.0000 0.0000 0.0000 0.0000 0.0000 1.9164
#
#
#
# Elastic Compliance Matrix: (Units=1/GPa)
#
#
# Indices 1 2 3 4 5 6 
#
# 1 0.022897 -0.001708 -0.006918 0.000000 0.000000 0.000000
# 2 -0.001708 0.012611 -0.003955 0.000000 0.000000 0.000000
# 3 -0.006918 -0.003955 0.008456 0.000000 0.000000 0.000000
# 4 0.000000 0.000000 0.000000 0.030933 0.000000 0.000000
# 5 0.000000 0.000000 0.000000 0.000000 -0.106418 0.000000
# 6 0.000000 0.000000 0.000000 0.000000 0.000000 0.521825
#
#
# Mechanical properties :
#
#
# Convention : Reuss Voigt Hill
#
# Bulk Modulus (GPa) = 53.18288 81.49286 67.33787
# Shear Modulus (GPa) = 9.58345 18.89224 14.23784
#
# Velocity S-wave (km/s) = 2.24483 3.15184 2.73618
# Velocity P-wave (km/s) = 5.88933 7.48979 6.73725
#
# Compressibility (1/GPa) = 0.01880304
#
# Stress axis : x y z
#
# Youngs Moduli (GPa) = 43.67479 79.29304 118.25871
#
# Poissons Ratio (x) = 0.13540 0.81815
# Poissons Ratio (y) = 0.07458 0.46766
# Poissons Ratio (z) = 0.30215 0.31357
#
# Static dielectric constant tensor:
#      x y z
#    x 1.615760 0.000000 0.000000 
#    y 0.000000 1.698530 0.000000 
#    z 0.000000 0.000000 1.648980 
# 
# From -- ./inp_files/70393.got.cif
#   From: 2010.05.17/outbox.cif.g08.bks.cpg/sg65_36_cif.got.tgz:70393.got - 2010.06.03 17:01:31.
