data_PCOD9491612
_publ_section_title
;
Structure prediction by ZEFSAII (Michael W. Deem and Ramdas Pophale) SiO2 
 PCOD9491612
Probable space group: C M M M
;
_chemical_formula_sum "Si O2"
_cell_formula_units_Z 96
_cell_length_a 15.447503
_cell_length_b 14.033536
_cell_length_c 21.229024
_cell_angle_alpha 90.000000
_cell_angle_beta 90.000000
_cell_angle_gamma 90.000000
_cell_volume 4602.093409
_symmetry_space_group_name_H-M "C M M M"
_symmetry_group_IT_number 65
_symmetry_cell_setting 'orthorhombic'
loop_
_space_group_symop_operation_xyz
x,y,z
-x,-y,z
x,-y,-z
-x,y,-z
-x,-y,-z
x,y,-z
-x,y,z
x,-y,z
1/2+x,1/2+y,z
1/2-x,1/2-y,z
1/2+x,1/2-y,-z
1/2-x,1/2+y,-z
1/2-x,1/2-y,-z
1/2+x,1/2+y,-z
1/2-x,1/2+y,z
1/2+x,1/2-y,z
loop_
_atom_site_type_symbol
_atom_site_label
_atom_site_fract_x
_atom_site_fract_y
_atom_site_fract_z
Si Si1 0.280682 0.383562 0.314517
Si Si2 0.651390 0.715902 0.931318
Si Si3 0.099566 0.114698 0.803152
Si Si4 0.399350 0.896513 0.870623
Si Si5 0.598578 0.616013 0.428228
Si Si6 0.400535 0.883757 0.731338
O O1 0.280481 0.500000 0.313839
O O2 0.335879 0.354762 0.252657
O O3 0.332330 0.353274 0.376607
O O4 0.180074 0.353781 0.311828
O O5 0.750000 0.750000 0.927196
O O6 0.626614 0.652540 0.871736
O O7 0.605815 0.817588 0.923246
O O8 0.634130 0.672742 0.000000
O O9 0.000000 0.144999 0.790656
O O10 0.100962 0.000000 0.804332
O O11 0.500000 0.909596 0.858050
O O12 0.368305 0.860161 0.802583
O O13 0.359876 0.000000 0.885825
O O14 0.616933 0.646440 0.500000
O O15 0.500000 0.644957 0.411764
O O16 0.598684 0.500000 0.428193
O O17 0.500000 0.851206 0.719211
O O18 0.404149 0.000000 0.730117
#
# Coordination Sequence:
#
# PCOD9491612 Si02
#       6
#    16  16  16  16  16  16
#     4   9  15  25  44  67  94 130 170 210 251 301
#     4  11  24  38  52  73 102 136 173 215 263 315
#     4  10  21  36  54  76 103 138 179 220 263 315
#     4   9  18  34  55  75  95 122 161 213 268 314
#     4   8  13  21  35  59  92 128 166 208 253 301
#     4   8  14  25  43  67  92 120 157 204 257 307
#
# _framework density 20.860071999999999
#
# number of rings (size 3 to 8) (size 9 to 14) (size 15 to 20)
#    0.000    2.833    0.000    3.500    0.000    6.000 
#    0.000    3.333    0.000    0.500    0.000    3.500 
#    0.000    6.000    0.000    9.167    0.000   28.833 
#
# Total GULP energy -267660.481626 kJ/mol
# GULP energy per Si atom -5576.260034 kJ/mol
# Density = 2.081259 g / cm^3
# Si number density = 20.860072 Si / 1000 Ang^3
#
#
#
# Elastic Constant Matrix: (Units=GPa)
#
#
# Indices 1 2 3 4 5 6 
#
# 1 137.7151 14.3760 84.4656 0.0000 0.0000 0.0000
# 2 14.3760 45.4348 22.0167 0.0000 0.0000 0.0000
# 3 84.4656 22.0167 120.9818 0.0000 0.0000 0.0000
# 4 0.0000 0.0000 0.0000 19.8061 0.0000 0.0000
# 5 0.0000 0.0000 0.0000 0.0000 42.4705 0.0000
# 6 0.0000 0.0000 0.0000 0.0000 0.0000 5.1270
#
#
#
# Elastic Compliance Matrix: (Units=1/GPa)
#
#
# Indices 1 2 3 4 5 6 
#
# 1 0.012703 0.000305 -0.008925 0.000000 0.000000 0.000000
# 2 0.000305 0.024146 -0.004607 0.000000 0.000000 0.000000
# 3 -0.008925 -0.004607 0.015335 0.000000 0.000000 0.000000
# 4 0.000000 0.000000 0.000000 0.050489 0.000000 0.000000
# 5 0.000000 0.000000 0.000000 0.000000 0.023546 0.000000
# 6 0.000000 0.000000 0.000000 0.000000 0.000000 0.195046
#
#
# Mechanical properties :
#
#
# Convention : Reuss Voigt Hill
#
# Bulk Modulus (GPa) = 38.86406 60.64981 49.75693
# Shear Modulus (GPa) = 14.03330 25.69894 19.86612
#
# Velocity S-wave (km/s) = 2.59653 3.51375 3.08937
# Velocity P-wave (km/s) = 5.25933 6.75275 6.05228
#
# Compressibility (1/GPa) = 0.02573071
#
# Stress axis : x y z
#
# Youngs Moduli (GPa) = 78.72004 41.41553 65.21045
#
# Poissons Ratio (x) = -0.01264 0.58197
# Poissons Ratio (y) = -0.02403 0.30044
# Poissons Ratio (z) = 0.70254 0.19081
#
# Static dielectric constant tensor:
#      x y z
#    x 1.737730 0.000000 0.000000 
#    y 0.000000 1.781750 0.000000 
#    z 0.000000 0.000000 1.735210 
# 
# From -- ./inp_files/62613.got.cif
#   From: 2010.05.17/outbox.cif.g08.bks.cpg/sg65_32_cif.got.tgz:62613.got - 2010.06.03 17:01:31.
