data_PCOD9491418
_publ_section_title
;
Structure prediction by ZEFSAII (Michael W. Deem and Ramdas Pophale) SiO2 
 PCOD9491418
Probable space group: C M M M
;
_chemical_formula_sum "Si O2"
_cell_formula_units_Z 72
_cell_length_a 18.791279
_cell_length_b 7.824528
_cell_length_c 25.714771
_cell_angle_alpha 90.000000
_cell_angle_beta 90.000000
_cell_angle_gamma 90.000000
_cell_volume 3780.917062
_symmetry_space_group_name_H-M "C M M M"
_symmetry_group_IT_number 65
_symmetry_cell_setting 'orthorhombic'
loop_
_space_group_symop_operation_xyz
x,y,z
-x,-y,z
x,-y,-z
-x,y,-z
-x,-y,-z
x,y,-z
-x,y,z
x,-y,z
1/2+x,1/2+y,z
1/2-x,1/2-y,z
1/2+x,1/2-y,-z
1/2-x,1/2+y,-z
1/2-x,1/2-y,-z
1/2+x,1/2+y,-z
1/2-x,1/2+y,z
1/2+x,1/2-y,z
loop_
_atom_site_type_symbol
_atom_site_label
_atom_site_fract_x
_atom_site_fract_y
_atom_site_fract_z
Si Si1 0.919767 0.795753 0.158845
Si Si2 0.085420 0.798558 0.362407
Si Si3 0.668150 0.203800 0.941727
Si Si4 0.086337 0.500000 0.440805
Si Si5 0.332743 0.294792 0.742124
O O1 0.882869 0.766294 0.103587
O O2 0.871522 0.727236 0.206048
O O3 0.000000 0.726722 0.160381
O O4 0.924168 0.000000 0.165917
O O5 0.106164 0.670154 0.408681
O O6 0.125939 0.742728 0.310094
O O7 0.000000 0.785083 0.354341
O O8 0.100580 0.000000 0.372900
O O9 0.750000 0.250000 0.929940
O O10 0.662947 0.000000 0.943186
O O11 0.651916 0.270482 0.000000
O O12 0.112759 0.500000 0.500000
O O13 0.000000 0.500000 0.442820
O O14 0.337586 0.500000 0.743385
O O15 0.250000 0.250000 0.740982
#
# Coordination Sequence:
#
# PCOD9491418 Si02
#       5
#    16  16  16   8  16
#     4  10  21  37  56  79 110 143 179 226 277 332
#     4   9  18  34  55  80 112 148 184 228 278 328
#     4  10  21  37  56  78 106 141 182 228 274 327
#     4   9  18  32  54  86 116 144 184 230 274 325
#     4  10  21  35  54  80 107 142 179 223 273 328
#
# _framework density 19.042998999999998
#
# number of rings (size 3 to 8) (size 9 to 14) (size 15 to 20)
#    0.000    2.333    0.000    2.000    1.556    8.000 
#    0.000    4.444    0.000    0.667    0.000    0.000 
#    0.000    0.000    0.000    0.000    0.000    0.000 
#
# Total GULP energy -200891.078860 kJ/mol
# GULP energy per Si atom -5580.307746 kJ/mol
# Density = 1.899966 g / cm^3
# Si number density = 19.042999 Si / 1000 Ang^3
#
#
#
# Elastic Constant Matrix: (Units=GPa)
#
#
# Indices 1 2 3 4 5 6 
#
# 1 102.1317 29.3853 97.7000 0.0000 0.0000 0.0000
# 2 29.3853 52.2013 46.7280 0.0000 0.0000 0.0000
# 3 97.7000 46.7280 175.5530 0.0000 0.0000 0.0000
# 4 0.0000 0.0000 0.0000 49.8898 0.0000 0.0000
# 5 0.0000 0.0000 0.0000 0.0000 -60.8116 0.0000
# 6 0.0000 0.0000 0.0000 0.0000 0.0000 23.7707
#
#
#
# Elastic Compliance Matrix: (Units=1/GPa)
#
#
# Indices 1 2 3 4 5 6 
#
# 1 0.021065 -0.001791 -0.011247 0.000000 0.000000 0.000000
# 2 -0.001791 0.025301 -0.005738 0.000000 0.000000 0.000000
# 3 -0.011247 -0.005738 0.013483 0.000000 0.000000 0.000000
# 4 0.000000 0.000000 0.000000 0.020044 0.000000 0.000000
# 5 0.000000 0.000000 0.000000 0.000000 -0.016444 0.000000
# 6 0.000000 0.000000 0.000000 0.000000 0.000000 0.042069
#
#
# Mechanical properties :
#
#
# Convention : Reuss Voigt Hill
#
# Bulk Modulus (GPa) = 44.84659 75.27917 60.06288
# Shear Modulus (GPa) = 33.22243 12.97463 23.09853
#
# Velocity S-wave (km/s) = 4.18137 2.61307 3.48655
# Velocity P-wave (km/s) = 6.84932 6.98005 6.91499
#
# Compressibility (1/GPa) = 0.02229824
#
# Stress axis : x y z
#
# Youngs Moduli (GPa) = 47.47169 39.52425 74.16896
#
# Poissons Ratio (x) = 0.07077 0.83416
# Poissons Ratio (y) = 0.08500 0.42558
# Poissons Ratio (z) = 0.53390 0.22679
#
# Static dielectric constant tensor:
#      x y z
#    x 1.639170 0.000000 0.000000 
#    y 0.000000 1.683960 0.000000 
#    z 0.000000 0.000000 1.659190 
# 
# From -- ./inp_files/64342.got.cif
#   From: 2010.05.17/outbox.cif.g08.bks.cpg/sg65_33_cif.got.tgz:64342.got - 2010.06.03 17:01:31.
