data_PCOD9491817
_publ_section_title
;
Structure prediction by ZEFSAII (Michael W. Deem and Ramdas Pophale) SiO2 
 PCOD9491817
Probable space group: C M M M
;
_chemical_formula_sum "Si O2"
_cell_formula_units_Z 66
_cell_length_a 21.075488
_cell_length_b 16.575249
_cell_length_c 10.416363
_cell_angle_alpha 90.000000
_cell_angle_beta 90.000000
_cell_angle_gamma 90.000000
_cell_volume 3638.763309
_symmetry_space_group_name_H-M "C M M M"
_symmetry_group_IT_number 65
_symmetry_cell_setting 'orthorhombic'
loop_
_space_group_symop_operation_xyz
x,y,z
-x,-y,z
x,-y,-z
-x,y,-z
-x,-y,-z
x,y,-z
-x,y,z
x,-y,z
1/2+x,1/2+y,z
1/2-x,1/2-y,z
1/2+x,1/2-y,-z
1/2-x,1/2+y,-z
1/2-x,1/2-y,-z
1/2+x,1/2+y,-z
1/2-x,1/2+y,z
1/2+x,1/2-y,z
loop_
_atom_site_type_symbol
_atom_site_label
_atom_site_fract_x
_atom_site_fract_y
_atom_site_fract_z
Si Si1 0.666213 0.909029 0.229820
Si Si2 0.775902 0.373920 0.500000
Si Si3 0.500000 0.500000 0.000000
Si Si4 0.926399 0.258530 0.746052
Si Si5 0.147706 0.794618 0.500000
Si Si6 0.595928 0.346292 0.000000
Si Si7 0.760185 0.903203 0.000000
O O1 0.699526 0.911946 0.368601
O O2 0.611118 0.842596 0.235551
O O3 0.718288 0.882515 0.124833
O O4 0.644424 0.000000 0.196348
O O5 0.810079 0.286630 0.500000
O O6 0.700006 0.364800 0.500000
O O7 0.555396 0.571629 0.000000
O O8 0.894462 0.210672 0.627545
O O9 0.920287 0.205639 0.874069
O O10 0.000000 0.273838 0.717780
O O11 0.671213 0.363339 0.000000
O O12 0.768815 0.000000 0.000000
#
# Coordination Sequence:
#
# PCOD9491817 Si02
#       7
#    16   8   2  16   8   8   8
#     4  10  21  36  56  85 121 152 195 241 286 341
#     4   9  17  34  55  81 110 152 191 236 286 330
#     4  12  24  44  64  90 114 152 182 250 296 364
#     4  11  22  37  58  86 116 157 198 235 286 354
#     4   9  19  34  57  82 114 146 192 242 283 330
#     4  12  23  41  65  83 113 149 194 238 298 354
#     4  10  21  36  57  85 111 143 186 244 294 340
#
# _framework density 18.138029
#
# number of rings (size 3 to 8) (size 9 to 14) (size 15 to 20)
#    0.000    1.697    1.818    2.909    0.000    4.364 
#    0.000    0.000    0.000    8.727    0.000    0.000 
#    0.000    0.000    0.000    0.000    0.000    0.000 
#
# Total GULP energy -183924.173135 kJ/mol
# GULP energy per Si atom -5573.459792 kJ/mol
# Density = 1.809675 g / cm^3
# Si number density = 18.138029 Si / 1000 Ang^3
#
#
#
# Elastic Constant Matrix: (Units=GPa)
#
#
# Indices 1 2 3 4 5 6 
#
# 1 159.8429 56.0965 53.7641 0.0000 0.0000 0.0000
# 2 56.0965 93.0146 35.0616 0.0000 0.0000 0.0000
# 3 53.7641 35.0616 131.2964 0.0000 0.0000 0.0000
# 4 0.0000 0.0000 0.0000 3.8297 0.0000 0.0000
# 5 0.0000 0.0000 0.0000 0.0000 25.2839 0.0000
# 6 0.0000 0.0000 0.0000 0.0000 0.0000 29.6722
#
#
#
# Elastic Compliance Matrix: (Units=1/GPa)
#
#
# Indices 1 2 3 4 5 6 
#
# 1 0.008547 -0.004265 -0.002361 0.000000 0.000000 0.000000
# 2 -0.004265 0.014082 -0.002014 0.000000 0.000000 0.000000
# 3 -0.002361 -0.002014 0.009121 0.000000 0.000000 0.000000
# 4 0.000000 0.000000 0.000000 0.261118 0.000000 0.000000
# 5 0.000000 0.000000 0.000000 0.000000 0.039551 0.000000
# 6 0.000000 0.000000 0.000000 0.000000 0.000000 0.033702
#
#
# Mechanical properties :
#
#
# Convention : Reuss Voigt Hill
#
# Bulk Modulus (GPa) = 69.10637 74.88872 71.99754
# Shear Modulus (GPa) = 12.87915 27.70593 20.29254
#
# Velocity S-wave (km/s) = 2.66759 3.91257 3.34845
# Velocity P-wave (km/s) = 6.90442 7.86059 7.39797
#
# Compressibility (1/GPa) = 0.01447045
#
# Stress axis : x y z
#
# Youngs Moduli (GPa) = 117.00082 71.01148 109.63654
#
# Poissons Ratio (x) = 0.30284 0.25885
# Poissons Ratio (y) = 0.49896 0.22083
# Poissons Ratio (z) = 0.27624 0.14303
#
# Static dielectric constant tensor:
#      x y z
#    x 1.600680 0.000000 0.000000 
#    y 0.000000 1.619010 0.000000 
#    z 0.000000 0.000000 1.613850 
# 
# From -- ./inp_files/26164.got.cif
#   From: 2010.05.17/outbox.cif.g08.bks.cpg/sg65_14_cif.got.tgz:26164.got - 2010.06.03 17:01:31.
