data_PCOD9491900
_publ_section_title
;
Structure prediction by ZEFSAII (Michael W. Deem and Ramdas Pophale) SiO2 
 PCOD9491900
Probable space group: C M M M
;
_chemical_formula_sum "Si O2"
_cell_formula_units_Z 80
_cell_length_a 8.249235
_cell_length_b 26.259428
_cell_length_c 24.304729
_cell_angle_alpha 90.000000
_cell_angle_beta 90.000000
_cell_angle_gamma 90.000000
_cell_volume 5264.895076
_symmetry_space_group_name_H-M "C M M M"
_symmetry_group_IT_number 65
_symmetry_cell_setting 'orthorhombic'
loop_
_space_group_symop_operation_xyz
x,y,z
-x,-y,z
x,-y,-z
-x,y,-z
-x,-y,-z
x,y,-z
-x,y,z
x,-y,z
1/2+x,1/2+y,z
1/2-x,1/2-y,z
1/2+x,1/2-y,-z
1/2-x,1/2+y,-z
1/2-x,1/2-y,-z
1/2+x,1/2+y,-z
1/2-x,1/2+y,z
1/2+x,1/2-y,z
loop_
_atom_site_type_symbol
_atom_site_label
_atom_site_fract_x
_atom_site_fract_y
_atom_site_fract_z
Si Si1 0.818361 0.561910 0.631143
Si Si2 0.500000 0.437926 0.563819
Si Si3 0.805428 0.060494 0.249104
Si Si4 0.306252 0.000000 0.062714
Si Si5 0.193881 0.306726 0.062910
Si Si6 0.306568 0.597506 0.868333
O O1 0.817650 0.500000 0.628954
O O2 0.665366 0.578835 0.594344
O O3 0.782260 0.575504 0.694585
O O4 0.000000 0.578543 0.614623
O O5 0.500000 0.500000 0.565980
O O6 0.500000 0.423038 0.500000
O O7 0.749694 0.089637 0.194487
O O8 0.000000 0.066962 0.256691
O O9 0.778596 0.000000 0.239858
O O10 0.252346 0.949759 0.095011
O O11 0.500000 0.000000 0.060538
O O12 0.243415 0.000000 0.000000
O O13 0.250000 0.250000 0.078107
O O14 0.254587 0.350125 0.103605
O O15 0.000000 0.307916 0.062259
O O16 0.251910 0.316648 0.000000
O O17 0.500000 0.594998 0.866564
#
# Coordination Sequence:
#
# PCOD9491900 Si02
#       6
#    16   8  16   8  16  16
#     4   9  16  25  39  57  78 112 150 188 232 272
#     4   9  16  26  38  54  80 112 148 196 232 260
#     4   9  16  29  44  60  88 117 148 188 231 276
#     4  11  23  35  45  63  95 125 149 188 239 286
#     4  10  21  37  54  70  89 115 150 193 237 286
#     4  11  21  33  50  71  91 118 152 192 237 288
#
# _framework density 15.194985000000001
#
# number of rings (size 3 to 8) (size 9 to 14) (size 15 to 20)
#    0.000    2.200    2.000    2.100    0.000    6.400 
#    0.000    2.000    0.000    0.000    0.000    0.000 
#    0.000    0.000    0.000    0.000    0.000    1.000 
#
# Total GULP energy -223033.472548 kJ/mol
# GULP energy per Si atom -5575.836814 kJ/mol
# Density = 1.516040 g / cm^3
# Si number density = 15.194985 Si / 1000 Ang^3
#
#
#
# Elastic Constant Matrix: (Units=GPa)
#
#
# Indices 1 2 3 4 5 6 
#
# 1 85.5166 23.7400 60.3806 0.0000 0.0000 0.0000
# 2 23.7400 49.9622 41.1776 0.0000 0.0000 0.0000
# 3 60.3806 41.1776 122.1046 0.0000 0.0000 0.0000
# 4 0.0000 0.0000 0.0000 8.3016 0.0000 0.0000
# 5 0.0000 0.0000 0.0000 0.0000 7.2882 0.0000
# 6 0.0000 0.0000 0.0000 0.0000 0.0000 19.7014
#
#
#
# Elastic Compliance Matrix: (Units=1/GPa)
#
#
# Indices 1 2 3 4 5 6 
#
# 1 0.018069 -0.001692 -0.008365 0.000000 0.000000 0.000000
# 2 -0.001692 0.027878 -0.008565 0.000000 0.000000 0.000000
# 3 -0.008365 -0.008565 0.015214 0.000000 0.000000 0.000000
# 4 0.000000 0.000000 0.000000 0.120459 0.000000 0.000000
# 5 0.000000 0.000000 0.000000 0.000000 0.137209 0.000000
# 6 0.000000 0.000000 0.000000 0.000000 0.000000 0.050758
#
#
# Mechanical properties :
#
#
# Convention : Reuss Voigt Hill
#
# Bulk Modulus (GPa) = 41.80772 56.46442 49.13607
# Shear Modulus (GPa) = 12.05393 15.87724 13.96559
#
# Velocity S-wave (km/s) = 2.81958 3.23600 3.03494
# Velocity P-wave (km/s) = 6.17851 7.15561 6.68494
#
# Compressibility (1/GPa) = 0.02391903
#
# Stress axis : x y z
#
# Youngs Moduli (GPa) = 55.34220 35.87084 65.72733
#
# Poissons Ratio (x) = 0.06069 0.54979
# Poissons Ratio (y) = 0.09363 0.56294
# Poissons Ratio (z) = 0.46292 0.30722
#
# Static dielectric constant tensor:
#      x y z
#    x 1.534700 0.000000 0.000000 
#    y 0.000000 1.452690 0.000000 
#    z 0.000000 0.000000 1.518460 
# 
# From -- ./inp_files/59658.got.cif
#   From: 2010.05.17/outbox.cif.g08.bks.cpg/sg65_30_cif.got.tgz:59658.got - 2010.06.03 17:01:31.
