data_PCOD9491050
_publ_section_title
;
Structure prediction by ZEFSAII (Michael W. Deem and Ramdas Pophale) SiO2 
 PCOD9491050
Probable space group: C M M M
;
_chemical_formula_sum "Si O2"
_cell_formula_units_Z 72
_cell_length_a 19.540415
_cell_length_b 7.656009
_cell_length_c 24.833814
_cell_angle_alpha 90.000000
_cell_angle_beta 90.000000
_cell_angle_gamma 90.000000
_cell_volume 3715.178137
_symmetry_space_group_name_H-M "C M M M"
_symmetry_group_IT_number 65
_symmetry_cell_setting 'orthorhombic'
loop_
_space_group_symop_operation_xyz
x,y,z
-x,-y,z
x,-y,-z
-x,y,-z
-x,-y,-z
x,y,-z
-x,y,z
x,-y,z
1/2+x,1/2+y,z
1/2-x,1/2-y,z
1/2+x,1/2-y,-z
1/2-x,1/2+y,-z
1/2-x,1/2-y,-z
1/2+x,1/2+y,-z
1/2-x,1/2+y,z
1/2+x,1/2-y,z
loop_
_atom_site_type_symbol
_atom_site_label
_atom_site_fract_x
_atom_site_fract_y
_atom_site_fract_z
Si Si1 0.419749 0.000000 0.935446
Si Si2 0.670595 0.709525 0.121237
Si Si3 0.423346 0.292294 0.659869
Si Si4 0.327653 0.290982 0.754136
Si Si5 0.171797 0.292351 0.560639
O O1 0.380346 0.829388 0.912931
O O2 0.500000 0.000000 0.919612
O O3 0.416179 0.000000 0.000000
O O4 0.659214 0.500000 0.116095
O O5 0.750000 0.750000 0.107156
O O6 0.662141 0.764760 0.184084
O O7 0.500000 0.220534 0.655973
O O8 0.428668 0.500000 0.668641
O O9 0.380538 0.219604 0.710395
O O10 0.380856 0.269872 0.605268
O O11 0.333674 0.500000 0.755116
O O12 0.250000 0.250000 0.737812
O O13 0.160200 0.221724 0.500000
O O14 0.165776 0.500000 0.558217
O O15 0.250000 0.250000 0.575939
#
# Coordination Sequence:
#
# PCOD9491050 Si02
#       5
#     8  16  16  16  16
#     4  11  26  44  62  94 135 169 210 262 315 374
#     4  10  20  40  67  95 126 164 213 263 313 367
#     4  10  21  36  53  79 114 148 185 228 281 345
#     4   9  19  34  58  85 114 148 187 239 289 342
#     4  10  21  37  56  77 103 137 183 236 286 340
#
# _framework density 19.379957999999998
#
# number of rings (size 3 to 8) (size 9 to 14) (size 15 to 20)
#    0.000    2.111    1.111    1.333    1.556    7.111 
#    0.000    5.556    0.000    0.000    0.000    0.000 
#    0.000    0.000    0.000    0.000    0.000    0.000 
#
# Total GULP energy -200949.420998 kJ/mol
# GULP energy per Si atom -5581.928361 kJ/mol
# Density = 1.933585 g / cm^3
# Si number density = 19.379958 Si / 1000 Ang^3
#
#
#
# Elastic Constant Matrix: (Units=GPa)
#
#
# Indices 1 2 3 4 5 6 
#
# 1 180.9881 41.0307 108.4451 0.0000 0.0000 0.0000
# 2 41.0307 80.5096 28.5509 0.0000 0.0000 0.0000
# 3 108.4451 28.5509 99.9274 0.0000 0.0000 0.0000
# 4 0.0000 0.0000 0.0000 19.3274 0.0000 0.0000
# 5 0.0000 0.0000 0.0000 0.0000 71.0088 0.0000
# 6 0.0000 0.0000 0.0000 0.0000 0.0000 22.0156
#
#
#
# Elastic Compliance Matrix: (Units=1/GPa)
#
#
# Indices 1 2 3 4 5 6 
#
# 1 0.016154 -0.002243 -0.016890 0.000000 0.000000 0.000000
# 2 -0.002243 0.014133 -0.001604 0.000000 0.000000 0.000000
# 3 -0.016890 -0.001604 0.028795 0.000000 0.000000 0.000000
# 4 0.000000 0.000000 0.000000 0.051740 0.000000 0.000000
# 5 0.000000 0.000000 0.000000 0.000000 0.014083 0.000000
# 6 0.000000 0.000000 0.000000 0.000000 0.000000 0.045422
#
#
# Mechanical properties :
#
#
# Convention : Reuss Voigt Hill
#
# Bulk Modulus (GPa) = 56.79136 79.71983 68.25559
# Shear Modulus (GPa) = 22.97054 34.69692 28.83373
#
# Velocity S-wave (km/s) = 3.44651 4.23584 3.86140
# Velocity P-wave (km/s) = 6.72352 8.07141 7.42810
#
# Compressibility (1/GPa) = 0.01760831
#
# Stress axis : x y z
#
# Youngs Moduli (GPa) = 61.90428 70.75773 34.72794
#
# Poissons Ratio (x) = 0.15871 0.58656
# Poissons Ratio (y) = 0.13885 0.05570
# Poissons Ratio (z) = 1.04557 0.11348
#
# Static dielectric constant tensor:
#      x y z
#    x 1.655990 0.000000 0.000000 
#    y 0.000000 1.698600 0.000000 
#    z 0.000000 0.000000 1.682840 
# 
# From -- ./inp_files/66988.got.cif
#   From: 2010.05.17/outbox.cif.g08.bks.cpg/sg65_34_cif.got.tgz:66988.got - 2010.06.03 17:01:31.
