data_PCOD9491789
_publ_section_title
;
Structure prediction by ZEFSAII (Michael W. Deem and Ramdas Pophale) SiO2 
 PCOD9491789
Probable space group: C M M M
;
_chemical_formula_sum "Si O2"
_cell_formula_units_Z 80
_cell_length_a 8.951514
_cell_length_b 19.654734
_cell_length_c 25.425742
_cell_angle_alpha 90.000000
_cell_angle_beta 90.000000
_cell_angle_gamma 90.000000
_cell_volume 4473.395553
_symmetry_space_group_name_H-M "C M M M"
_symmetry_group_IT_number 65
_symmetry_cell_setting 'orthorhombic'
loop_
_space_group_symop_operation_xyz
x,y,z
-x,-y,z
x,-y,-z
-x,y,-z
-x,-y,-z
x,y,-z
-x,y,z
x,-y,z
1/2+x,1/2+y,z
1/2-x,1/2-y,z
1/2+x,1/2-y,-z
1/2-x,1/2+y,-z
1/2-x,1/2-y,-z
1/2+x,1/2+y,-z
1/2-x,1/2+y,z
1/2+x,1/2-y,z
loop_
_atom_site_type_symbol
_atom_site_label
_atom_site_fract_x
_atom_site_fract_y
_atom_site_fract_z
Si Si1 0.678940 0.919666 0.059356
Si Si2 0.821062 0.176123 0.267220
Si Si3 0.679122 0.080058 0.646083
Si Si4 0.176677 0.177424 0.562679
Si Si5 0.177603 0.822957 0.855306
O O1 0.500000 0.910858 0.063483
O O2 0.758619 0.877590 0.104436
O O3 0.710021 0.000000 0.064442
O O4 0.723431 0.898579 0.000000
O O5 0.750000 0.250000 0.279180
O O6 0.750385 0.119591 0.304657
O O7 0.788683 0.160793 0.205848
O O8 0.000000 0.179339 0.274313
O O9 0.500000 0.087155 0.647128
O O10 0.744920 0.117883 0.595069
O O11 0.715819 0.000000 0.646536
O O12 0.195779 0.168218 0.500000
O O13 0.250000 0.250000 0.576998
O O14 0.000000 0.179229 0.574302
O O15 0.250000 0.750000 0.866857
O O16 0.000000 0.818145 0.860424
#
# Coordination Sequence:
#
# PCOD9491789 Si02
#       5
#    16  16  16  16  16
#     4   9  19  36  56  78 107 144 182 220 267 323
#     4  10  21  38  59  81 108 142 181 225 271 323
#     4  11  24  39  56  81 113 148 184 223 270 322
#     4  10  21  38  61  86 112 145 184 225 270 321
#     4  10  21  36  56  82 109 140 179 224 273 321
#
# _framework density 17.883507000000002
#
# number of rings (size 3 to 8) (size 9 to 14) (size 15 to 20)
#    0.000    2.000    0.000    3.600    0.000    7.600 
#    0.000    7.000    0.000    0.000    0.000    0.000 
#    0.000    0.000    0.000    0.000    0.000    0.000 
#
# Total GULP energy -223451.155882 kJ/mol
# GULP energy per Si atom -5586.278897 kJ/mol
# Density = 1.784280 g / cm^3
# Si number density = 17.883507 Si / 1000 Ang^3
#
#
#
# Elastic Constant Matrix: (Units=GPa)
#
#
# Indices 1 2 3 4 5 6 
#
# 1 86.8905 82.0979 69.2501 0.0000 0.0000 0.0000
# 2 82.0979 145.1279 96.3509 0.0000 0.0000 0.0000
# 3 69.2501 96.3509 107.1190 0.0000 0.0000 0.0000
# 4 0.0000 0.0000 0.0000 63.3881 0.0000 0.0000
# 5 0.0000 0.0000 0.0000 0.0000 34.1945 0.0000
# 6 0.0000 0.0000 0.0000 0.0000 0.0000 36.1257
#
#
#
# Elastic Compliance Matrix: (Units=1/GPa)
#
#
# Indices 1 2 3 4 5 6 
#
# 1 0.028241 -0.009569 -0.009650 0.000000 0.000000 0.000000
# 2 -0.009569 0.020347 -0.012116 0.000000 0.000000 0.000000
# 3 -0.009650 -0.012116 0.026472 0.000000 0.000000 0.000000
# 4 0.000000 0.000000 0.000000 0.015776 0.000000 0.000000
# 5 0.000000 0.000000 0.000000 0.000000 0.029244 0.000000
# 6 0.000000 0.000000 0.000000 0.000000 0.000000 0.027681
#
#
# Mechanical properties :
#
#
# Convention : Reuss Voigt Hill
#
# Bulk Modulus (GPa) = 80.70783 92.72615 86.71699
# Shear Modulus (GPa) = 23.30343 32.83755 28.07049
#
# Velocity S-wave (km/s) = 3.61372 4.28973 3.96615
# Velocity P-wave (km/s) = 7.91452 8.74633 8.34080
#
# Compressibility (1/GPa) = 0.01239037
#
# Stress axis : x y z
#
# Youngs Moduli (GPa) = 35.40983 49.14667 37.77612
#
# Poissons Ratio (x) = 0.47028 0.36454
# Poissons Ratio (y) = 0.33883 0.45769
# Poissons Ratio (z) = 0.34170 0.59545
#
# Static dielectric constant tensor:
#      x y z
#    x 1.594250 0.000000 0.000000 
#    y 0.000000 1.570150 0.000000 
#    z 0.000000 0.000000 1.612940 
# 
# From -- ./inp_files/72811.got.cif
#   From: 2010.05.17/outbox.cif.g08.bks.cpg/sg65_37_cif.got.tgz:72811.got - 2010.06.03 17:01:31.
