data_PCOD9491386
_publ_section_title
;
Structure prediction by ZEFSAII (Michael W. Deem and Ramdas Pophale) SiO2 
 PCOD9491386
Probable space group: C M M M
;
_chemical_formula_sum "Si O2"
_cell_formula_units_Z 104
_cell_length_a 29.690173
_cell_length_b 9.573710
_cell_length_c 20.998877
_cell_angle_alpha 90.000000
_cell_angle_beta 90.000000
_cell_angle_gamma 90.000000
_cell_volume 5968.828022
_symmetry_space_group_name_H-M "C M M M"
_symmetry_group_IT_number 65
_symmetry_cell_setting 'orthorhombic'
loop_
_space_group_symop_operation_xyz
x,y,z
-x,-y,z
x,-y,-z
-x,y,-z
-x,-y,-z
x,y,-z
-x,y,z
x,-y,z
1/2+x,1/2+y,z
1/2-x,1/2-y,z
1/2+x,1/2-y,-z
1/2-x,1/2+y,-z
1/2-x,1/2-y,-z
1/2+x,1/2+y,-z
1/2-x,1/2+y,z
1/2+x,1/2-y,z
loop_
_atom_site_type_symbol
_atom_site_label
_atom_site_fract_x
_atom_site_fract_y
_atom_site_fract_z
Si Si1 0.293935 0.663285 0.778382
Si Si2 0.445678 0.665149 0.873281
Si Si3 0.391969 0.756619 0.629110
Si Si4 0.793104 0.839160 0.376834
Si Si5 0.550100 0.000000 0.574420
Si Si6 0.445382 0.162935 0.000000
Si Si7 0.884064 0.331594 0.222028
Si Si8 0.446002 0.500000 0.576427
O O1 0.295079 0.500000 0.798951
O O2 0.250000 0.750000 0.799213
O O3 0.292676 0.659259 0.700807
O O4 0.337696 0.753154 0.797027
O O5 0.500000 0.669408 0.868493
O O6 0.432776 0.500000 0.873714
O O7 0.432373 0.747735 0.937788
O O8 0.423110 0.752764 0.816624
O O9 0.341079 0.728033 0.605971
O O10 0.419083 0.872964 0.592989
O O11 0.389869 0.799625 0.703044
O O12 0.422641 0.625482 0.613295
O O13 0.750000 0.750000 0.397988
O O14 0.790801 0.000000 0.398223
O O15 0.500000 0.000000 0.604699
O O16 0.543835 0.000000 0.500000
O O17 0.500000 0.157394 0.000000
O O18 0.429894 0.000000 0.000000
O O19 0.883024 0.500000 0.212136
O O20 0.500000 0.500000 0.582169
O O21 0.435891 0.500000 0.500000
#
# Coordination Sequence:
#
# PCOD9491386 Si02
#       8
#    16  16  16  16   8   8  16   8
#     4   9  17  30  51  77 109 143 179 222 270 326
#     4  10  21  35  53  78 111 151 192 233 276 327
#     4  11  22  39  59  84 112 142 180 235 288 337
#     4   9  18  31  54  82 108 137 172 214 272 340
#     4  11  24  42  61  81 105 142 191 235 279 335
#     4   9  17  33  55  77 106 147 192 231 271 325
#     4  11  22  35  52  81 116 147 183 227 280 334
#     4  11  24  42  63  81 101 140 191 235 279 339
#
# _framework density 17.423856000000001
#
# number of rings (size 3 to 8) (size 9 to 14) (size 15 to 20)
#    0.000    1.923    1.538    2.538    3.231    6.154 
#    0.000    0.000    0.000    2.769    0.000    0.538 
#    0.000    0.000    0.000    0.000    0.000    0.000 
#
# Total GULP energy -289766.067507 kJ/mol
# GULP energy per Si atom -5572.424375 kJ/mol
# Density = 1.738420 g / cm^3
# Si number density = 17.423856 Si / 1000 Ang^3
#
#
#
# Elastic Constant Matrix: (Units=GPa)
#
#
# Indices 1 2 3 4 5 6 
#
# 1 121.6661 80.6620 33.5004 0.0000 0.0000 0.0000
# 2 80.6620 205.3455 36.5927 0.0000 0.0000 0.0000
# 3 33.5004 36.5927 36.9722 0.0000 0.0000 0.0000
# 4 0.0000 0.0000 0.0000 27.9448 0.0000 0.0000
# 5 0.0000 0.0000 0.0000 0.0000 8.1501 0.0000
# 6 0.0000 0.0000 0.0000 0.0000 0.0000 33.6827
#
#
#
# Elastic Compliance Matrix: (Units=1/GPa)
#
#
# Indices 1 2 3 4 5 6 
#
# 1 0.012826 -0.003603 -0.008056 0.000000 0.000000 0.000000
# 2 -0.003603 0.006925 -0.003589 0.000000 0.000000 0.000000
# 3 -0.008056 -0.003589 0.037899 0.000000 0.000000 0.000000
# 4 0.000000 0.000000 0.000000 0.035785 0.000000 0.000000
# 5 0.000000 0.000000 0.000000 0.000000 0.122698 0.000000
# 6 0.000000 0.000000 0.000000 0.000000 0.000000 0.029689
#
#
# Mechanical properties :
#
#
# Convention : Reuss Voigt Hill
#
# Bulk Modulus (GPa) = 36.82664 73.94378 55.38521
# Shear Modulus (GPa) = 17.52124 28.17075 22.84600
#
# Velocity S-wave (km/s) = 3.17454 4.02530 3.62496
# Velocity P-wave (km/s) = 5.88376 8.00840 7.02684
#
# Compressibility (1/GPa) = 0.02715426
#
# Stress axis : x y z
#
# Youngs Moduli (GPa) = 77.96789 144.41336 26.38581
#
# Poissons Ratio (x) = 0.52026 0.21256
# Poissons Ratio (y) = 0.28088 0.09470
# Poissons Ratio (z) = 0.62810 0.51833
#
# Static dielectric constant tensor:
#      x y z
#    x 1.595610 0.000000 0.000000 
#    y 0.000000 1.561860 0.000000 
#    z 0.000000 0.000000 1.581460 
# 
# From -- ./inp_files/66477.got.cif
#   From: 2010.05.17/outbox.cif.g08.bks.cpg/sg65_34_cif.got.tgz:66477.got - 2010.06.03 17:01:31.
