data_PCOD9491710
_publ_section_title
;
Structure prediction by ZEFSAII (Michael W. Deem and Ramdas Pophale) SiO2 
 PCOD9491710
Probable space group: C M M M
;
_chemical_formula_sum "Si O2"
_cell_formula_units_Z 80
_cell_length_a 31.968461
_cell_length_b 15.203140
_cell_length_c 7.471623
_cell_angle_alpha 90.000000
_cell_angle_beta 90.000000
_cell_angle_gamma 90.000000
_cell_volume 3631.365594
_symmetry_space_group_name_H-M "C M M M"
_symmetry_group_IT_number 65
_symmetry_cell_setting 'orthorhombic'
loop_
_space_group_symop_operation_xyz
x,y,z
-x,-y,z
x,-y,-z
-x,y,-z
-x,-y,-z
x,y,-z
-x,y,z
x,-y,z
1/2+x,1/2+y,z
1/2-x,1/2-y,z
1/2+x,1/2-y,-z
1/2-x,1/2+y,-z
1/2-x,1/2-y,-z
1/2+x,1/2+y,-z
1/2-x,1/2+y,z
1/2+x,1/2-y,z
loop_
_atom_site_type_symbol
_atom_site_label
_atom_site_fract_x
_atom_site_fract_y
_atom_site_fract_z
Si Si1 0.344771 0.093561 0.216175
Si Si2 0.630991 0.600036 0.213421
Si Si3 0.702356 0.732950 0.781036
Si Si4 0.954445 0.792212 0.715647
Si Si5 0.558329 0.095578 0.707528
O O1 0.321204 0.179024 0.276045
O O2 0.391641 0.095655 0.285433
O O3 0.325066 0.000000 0.266791
O O4 0.346918 0.096503 0.000000
O O5 0.627736 0.500000 0.283279
O O6 0.672319 0.652729 0.279150
O O7 0.587711 0.654484 0.239226
O O8 0.636062 0.594370 0.000000
O O9 0.750000 0.750000 0.723745
O O10 0.703275 0.728310 0.000000
O O11 0.954286 0.787685 0.500000
O O12 0.953390 0.690913 0.783714
O O13 0.000000 0.830504 0.770238
O O14 0.545379 0.095108 0.500000
O O15 0.545711 0.000000 0.785353
#
# Coordination Sequence:
#
# PCOD9491710 Si02
#       5
#    16  16  16  16  16
#     4   9  16  27  47  73  99 128 162 201 247 301
#     4  10  21  37  56  78 106 140 179 223 267 310
#     4   9  17  30  50  77 106 134 167 209 259 313
#     4  10  21  36  55  79 106 139 179 221 266 317
#     4   9  17  30  50  75 102 132 165 204 253 307
#
# _framework density 22.030280000000001
#
# number of rings (size 3 to 8) (size 9 to 14) (size 15 to 20)
#    0.000    2.600    2.000    0.000    0.000    2.400 
#    0.000    8.000    0.000    2.400    0.000    7.000 
#    0.000    0.000    0.000    0.000    0.000    0.000 
#
# Total GULP energy -222939.245480 kJ/mol
# GULP energy per Si atom -5573.481137 kJ/mol
# Density = 2.198014 g / cm^3
# Si number density = 22.030280 Si / 1000 Ang^3
#
#
#
# Elastic Constant Matrix: (Units=GPa)
#
#
# Indices 1 2 3 4 5 6 
#
# 1 194.1341 112.0833 0.9191 0.0000 0.0000 0.0000
# 2 112.0833 192.2657 11.9502 0.0000 0.0000 0.0000
# 3 0.9191 11.9502 62.0277 0.0000 0.0000 0.0000
# 4 0.0000 0.0000 0.0000 8.7165 0.0000 0.0000
# 5 0.0000 0.0000 0.0000 0.0000 -90.8875 0.0000
# 6 0.0000 0.0000 0.0000 0.0000 0.0000 -22.8094
#
#
#
# Elastic Compliance Matrix: (Units=1/GPa)
#
#
# Indices 1 2 3 4 5 6 
#
# 1 0.007800 -0.004595 0.000770 0.000000 0.000000 0.000000
# 2 -0.004595 0.007971 -0.001468 0.000000 0.000000 0.000000
# 3 0.000770 -0.001468 0.016393 0.000000 0.000000 0.000000
# 4 0.000000 0.000000 0.000000 0.114724 0.000000 0.000000
# 5 0.000000 0.000000 0.000000 0.000000 -0.011003 0.000000
# 6 0.000000 0.000000 0.000000 0.000000 0.000000 -0.043842
#
#
# Mechanical properties :
#
#
# Convention : Reuss Voigt Hill
#
# Bulk Modulus (GPa) = 46.34218 77.59250 61.96734
# Shear Modulus (GPa) = 45.52733 0.56893 23.04813
#
# Velocity S-wave (km/s) = 4.55090 0.50873 3.23801
# Velocity P-wave (km/s) = 6.97822 5.97012 6.49376
#
# Compressibility (1/GPa) = 0.02157861
#
# Stress axis : x y z
#
# Youngs Moduli (GPa) = 128.19719 125.45185 61.00099
#
# Poissons Ratio (x) = 0.57648 -0.04695
# Poissons Ratio (y) = 0.58909 0.08953
# Poissons Ratio (z) = -0.09868 0.18412
#
# Static dielectric constant tensor:
#      x y z
#    x 1.801280 0.000000 0.000000 
#    y 0.000000 1.827410 0.000000 
#    z 0.000000 0.000000 1.856660 
# 
# From -- ./inp_files/30388.got.cif
#   From: 2010.05.17/outbox.cif.g08.bks.cpg/sg65_16_cif.got.tgz:30388.got - 2010.06.03 17:01:31.
