data_PCOD9491198
_publ_section_title
;
Structure prediction by ZEFSAII (Michael W. Deem and Ramdas Pophale) SiO2 
 PCOD9491198
Probable space group: C M M M
;
_chemical_formula_sum "Si O2"
_cell_formula_units_Z 64
_cell_length_a 18.478897
_cell_length_b 9.259609
_cell_length_c 22.305407
_cell_angle_alpha 90.000000
_cell_angle_beta 90.000000
_cell_angle_gamma 90.000000
_cell_volume 3816.619327
_symmetry_space_group_name_H-M "C M M M"
_symmetry_group_IT_number 65
_symmetry_cell_setting 'orthorhombic'
loop_
_space_group_symop_operation_xyz
x,y,z
-x,-y,z
x,-y,-z
-x,y,-z
-x,-y,-z
x,y,-z
-x,y,z
x,-y,z
1/2+x,1/2+y,z
1/2-x,1/2-y,z
1/2+x,1/2-y,-z
1/2-x,1/2+y,-z
1/2-x,1/2-y,-z
1/2+x,1/2+y,-z
1/2-x,1/2+y,z
1/2+x,1/2-y,z
loop_
_atom_site_type_symbol
_atom_site_label
_atom_site_fract_x
_atom_site_fract_y
_atom_site_fract_z
Si Si1 0.085732 0.500000 0.929028
Si Si2 0.084508 0.827738 0.742192
Si Si3 0.821787 0.336925 0.839959
Si Si4 0.413523 0.331105 0.397665
Si Si5 0.827227 0.327909 0.500000
O O1 0.124588 0.634930 0.896095
O O2 0.000000 0.500000 0.917358
O O3 0.097631 0.500000 0.000000
O O4 0.135456 0.742454 0.787190
O O5 0.101709 0.800265 0.672270
O O6 0.000000 0.789051 0.751822
O O7 0.091203 0.000000 0.751632
O O8 0.801496 0.500000 0.820381
O O9 0.750000 0.250000 0.856061
O O10 0.500000 0.316758 0.406387
O O11 0.395344 0.500000 0.409477
O O12 0.370999 0.228146 0.442114
O O13 0.819969 0.500000 0.500000
O O14 0.750000 0.250000 0.500000
#
# Coordination Sequence:
#
# PCOD9491198 Si02
#       5
#     8  16  16  16   8
#     4   9  20  38  60  84 113 152 196 236 278 334
#     4   9  18  34  58  84 112 146 186 231 280 337
#     4  10  21  34  55  83 116 151 188 229 284 333
#     4   9  19  37  59  81 106 142 182 226 280 337
#     4  12  25  38  53  75 105 143 185 232 287 336
#
# _framework density 16.768765999999999
#
# number of rings (size 3 to 8) (size 9 to 14) (size 15 to 20)
#    0.750    1.625    0.000    4.500    0.000    4.500 
#    0.000    2.500    0.000    0.000    0.000    5.250 
#    0.000    0.000    0.000    0.000    0.000    0.000 
#
# Total GULP energy -178366.593537 kJ/mol
# GULP energy per Si atom -5573.956048 kJ/mol
# Density = 1.673060 g / cm^3
# Si number density = 16.768766 Si / 1000 Ang^3
#
#
#
# Elastic Constant Matrix: (Units=GPa)
#
#
# Indices 1 2 3 4 5 6 
#
# 1 110.1371 73.1178 84.2891 0.0000 0.0000 0.0000
# 2 73.1178 96.3913 74.4779 0.0000 0.0000 0.0000
# 3 84.2891 74.4779 107.9960 0.0000 0.0000 0.0000
# 4 0.0000 0.0000 0.0000 21.1532 0.0000 0.0000
# 5 0.0000 0.0000 0.0000 0.0000 -15.5476 0.0000
# 6 0.0000 0.0000 0.0000 0.0000 0.0000 32.4644
#
#
#
# Elastic Compliance Matrix: (Units=1/GPa)
#
#
# Indices 1 2 3 4 5 6 
#
# 1 0.025406 -0.008457 -0.013996 0.000000 0.000000 0.000000
# 2 -0.008457 0.025023 -0.010656 0.000000 0.000000 0.000000
# 3 -0.013996 -0.010656 0.027533 0.000000 0.000000 0.000000
# 4 0.000000 0.000000 0.000000 0.047274 0.000000 0.000000
# 5 0.000000 0.000000 0.000000 0.000000 -0.064319 0.000000
# 6 0.000000 0.000000 0.000000 0.000000 0.000000 0.030803
#
#
# Mechanical properties :
#
#
# Convention : Reuss Voigt Hill
#
# Bulk Modulus (GPa) = 85.16531 86.47713 85.82122
# Shear Modulus (GPa) = 30.89215 13.12331 22.00773
#
# Velocity S-wave (km/s) = 4.29679 2.80054 3.62667
# Velocity P-wave (km/s) = 8.68993 7.88287 8.29622
#
# Compressibility (1/GPa) = 0.01174187
#
# Stress axis : x y z
#
# Youngs Moduli (GPa) = 39.36133 39.96293 36.32051
#
# Poissons Ratio (x) = 0.33796 0.50836
# Poissons Ratio (y) = 0.33288 0.38705
# Poissons Ratio (z) = 0.55092 0.42586
#
# Static dielectric constant tensor:
#      x y z
#    x 1.557700 0.000000 0.000000 
#    y 0.000000 1.552670 0.000000 
#    z 0.000000 0.000000 1.542790 
# 
# From -- ./inp_files/70282.got.cif
#   From: 2010.05.17/outbox.cif.g08.bks.cpg/sg65_36_cif.got.tgz:70282.got - 2010.06.03 17:01:31.
