data_PCOD9491230
_publ_section_title
;
Structure prediction by ZEFSAII (Michael W. Deem and Ramdas Pophale) SiO2 
 PCOD9491230
Probable space group: C M M M
;
_chemical_formula_sum "Si O2"
_cell_formula_units_Z 120
_cell_length_a 28.970342
_cell_length_b 27.374183
_cell_length_c 7.856816
_cell_angle_alpha 90.000000
_cell_angle_beta 90.000000
_cell_angle_gamma 90.000000
_cell_volume 6230.764988
_symmetry_space_group_name_H-M "C M M M"
_symmetry_group_IT_number 65
_symmetry_cell_setting 'orthorhombic'
loop_
_space_group_symop_operation_xyz
x,y,z
-x,-y,z
x,-y,-z
-x,y,-z
-x,-y,-z
x,y,-z
-x,y,z
x,-y,z
1/2+x,1/2+y,z
1/2-x,1/2-y,z
1/2+x,1/2-y,-z
1/2-x,1/2+y,-z
1/2-x,1/2-y,-z
1/2+x,1/2+y,-z
1/2-x,1/2+y,z
1/2+x,1/2-y,z
loop_
_atom_site_type_symbol
_atom_site_label
_atom_site_fract_x
_atom_site_fract_y
_atom_site_fract_z
Si Si1 0.298939 0.441637 0.798265
Si Si2 0.800643 0.737093 0.698610
Si Si3 0.637836 0.854074 0.799194
Si Si4 0.053824 0.000000 0.291973
Si Si5 0.947692 0.294134 0.791457
Si Si6 0.304941 0.055898 0.208715
Si Si7 0.114155 0.795419 0.198388
Si Si8 0.105259 0.096835 0.695393
O O1 0.304221 0.500000 0.777354
O O2 0.247178 0.429531 0.740875
O O3 0.340511 0.415339 0.705697
O O4 0.302873 0.430786 0.000000
O O5 0.794901 0.725475 0.500000
O O6 0.750000 0.750000 0.769140
O O7 0.825616 0.690124 0.779480
O O8 0.837204 0.781454 0.715660
O O9 0.588982 0.834682 0.731144
O O10 0.659112 0.903922 0.728727
O O11 0.631216 0.862127 0.000000
O O12 0.078848 0.950484 0.231387
O O13 0.057837 0.000000 0.500000
O O14 0.000000 0.000000 0.248290
O O15 0.924891 0.242441 0.740814
O O16 0.000000 0.299974 0.732717
O O17 0.948458 0.295153 0.000000
O O18 0.313747 0.000000 0.261622
O O19 0.304667 0.055760 0.000000
O O20 0.098766 0.850924 0.219441
O O21 0.121831 0.785202 0.000000
O O22 0.090717 0.102032 0.500000
#
# Coordination Sequence:
#
# PCOD9491230 Si02
#       8
#    16  16  16   8  16  16  16  16
#     4   9  17  30  48  69  96 131 170 208 245 291
#     4  10  21  35  49  71 104 136 164 205 258 305
#     4   9  17  30  51  76 100 134 174 205 244 300
#     4   9  20  38  55  71  97 137 177 215 264 319
#     4   8  15  30  51  73  97 125 162 210 255 293
#     4   8  15  28  47  74 104 135 171 205 237 283
#     4  10  21  35  52  74  98 130 170 209 253 309
#     4  11  21  34  52  73  99 129 166 213 261 308
#
# _framework density 19.259270999999998
#
# number of rings (size 3 to 8) (size 9 to 14) (size 15 to 20)
#    0.000    2.733    0.667    2.800    1.867    1.600 
#    0.000    0.000    0.000   14.000    0.000    2.800 
#    0.000    0.000    0.000    4.800    0.000    5.333 
#
# Total GULP energy -334613.366570 kJ/mol
# GULP energy per Si atom -5576.889443 kJ/mol
# Density = 1.921544 g / cm^3
# Si number density = 19.259271 Si / 1000 Ang^3
#
#
#
# Elastic Constant Matrix: (Units=GPa)
#
#
# Indices 1 2 3 4 5 6 
#
# 1 152.4878 79.7425 -2.5260 0.0000 0.0000 0.0000
# 2 79.7425 114.3776 -2.0062 0.0000 0.0000 0.0000
# 3 -2.5260 -2.0062 17.3719 0.0000 0.0000 0.0000
# 4 0.0000 0.0000 0.0000 2.1256 0.0000 0.0000
# 5 0.0000 0.0000 0.0000 0.0000 -111.0618 0.0000
# 6 0.0000 0.0000 0.0000 0.0000 0.0000 15.0242
#
#
#
# Elastic Compliance Matrix: (Units=1/GPa)
#
#
# Indices 1 2 3 4 5 6 
#
# 1 0.010329 -0.007189 0.000672 0.000000 0.000000 0.000000
# 2 -0.007189 0.013765 0.000544 0.000000 0.000000 0.000000
# 3 0.000672 0.000544 0.057725 0.000000 0.000000 0.000000
# 4 0.000000 0.000000 0.000000 0.470461 0.000000 0.000000
# 5 0.000000 0.000000 0.000000 0.000000 -0.009004 0.000000
# 6 0.000000 0.000000 0.000000 0.000000 0.000000 0.066559
#
#
# Mechanical properties :
#
#
# Convention : Reuss Voigt Hill
#
# Bulk Modulus (GPa) = 14.31204 48.29534 31.30369
# Shear Modulus (GPa) = 7.75109 -4.84727 1.45191
#
# Velocity S-wave (km/s) = 2.00832 -1.58818 0.86920
# Velocity P-wave (km/s) = 3.58122 4.66559 4.15890
#
# Compressibility (1/GPa) = 0.06987126
#
# Stress axis : x y z
#
# Youngs Moduli (GPa) = 96.81909 72.64967 17.32364
#
# Poissons Ratio (x) = 0.52229 -0.01164
# Poissons Ratio (y) = 0.69605 -0.00943
# Poissons Ratio (z) = -0.06503 -0.03954
#
# Static dielectric constant tensor:
#      x y z
#    x 1.666870 0.000000 0.000000 
#    y 0.000000 1.666130 0.000000 
#    z 0.000000 0.000000 1.700880 
# 
# From -- ./inp_files/17048.got.cif
#   From: 2010.05.17/outbox.cif.g08.bks.cpg/sg65_9_cif.got.tgz:17048.got - 2010.06.03 17:01:31.
