data_PCOD9491584
_publ_section_title
;
Structure prediction by ZEFSAII (Michael W. Deem and Ramdas Pophale) SiO2 
 PCOD9491584
Probable space group: C M M M
;
_chemical_formula_sum "Si O2"
_cell_formula_units_Z 112
_cell_length_a 19.229598
_cell_length_b 15.648590
_cell_length_c 19.569847
_cell_angle_alpha 90.000000
_cell_angle_beta 90.000000
_cell_angle_gamma 90.000000
_cell_volume 5888.881938
_symmetry_space_group_name_H-M "C M M M"
_symmetry_group_IT_number 65
_symmetry_cell_setting 'orthorhombic'
loop_
_space_group_symop_operation_xyz
x,y,z
-x,-y,z
x,-y,-z
-x,y,-z
-x,-y,-z
x,y,-z
-x,y,z
x,-y,z
1/2+x,1/2+y,z
1/2-x,1/2-y,z
1/2+x,1/2-y,-z
1/2-x,1/2+y,-z
1/2-x,1/2-y,-z
1/2+x,1/2+y,-z
1/2-x,1/2+y,z
1/2+x,1/2-y,z
loop_
_atom_site_type_symbol
_atom_site_label
_atom_site_fract_x
_atom_site_fract_y
_atom_site_fract_z
Si Si1 0.418808 0.130957 0.573073
Si Si2 0.921884 0.400599 0.724029
Si Si3 0.780627 0.845613 0.076615
Si Si4 0.350096 0.397159 0.286472
Si Si5 0.420418 0.603463 0.145322
Si Si6 0.713088 0.100622 0.786075
Si Si7 0.580852 0.663358 0.423989
O O1 0.387764 0.103224 0.500000
O O2 0.500000 0.104375 0.572323
O O3 0.392785 0.101343 0.646414
O O4 0.417390 0.233627 0.574462
O O5 0.929872 0.500000 0.743027
O O6 0.862370 0.360146 0.770962
O O7 0.000000 0.362075 0.725575
O O8 0.750000 0.750000 0.076807
O O9 0.861250 0.852655 0.099352
O O10 0.738161 0.891893 0.136399
O O11 0.772844 0.880471 0.000000
O O12 0.347153 0.500000 0.288904
O O13 0.402854 0.375830 0.224545
O O14 0.274870 0.363952 0.261492
O O15 0.374578 0.365915 0.359882
O O16 0.500000 0.625532 0.128916
O O17 0.412412 0.500000 0.137895
O O18 0.708201 0.000000 0.769921
O O19 0.602948 0.633466 0.500000
O O20 0.500000 0.637654 0.414459
#
# Coordination Sequence:
#
# PCOD9491584 Si02
#       7
#    16  16  16  16  16  16  16
#     4   8  15  28  44  64  91 120 152 193 241 289
#     4   9  17  30  50  73  92 114 153 204 247 283
#     4  10  21  36  53  76 106 136 165 198 241 299
#     4   9  17  30  47  67  95 128 161 200 245 293
#     4   9  18  33  55  82 107 133 170 216 262 305
#     4   9  19  35  52  71  96 126 160 198 244 300
#     4   9  17  28  42  62  91 128 165 196 229 279
#
# _framework density 19.018889999999999
#
# number of rings (size 3 to 8) (size 9 to 14) (size 15 to 20)
#    0.000    3.000    0.000    2.571    0.000    5.143 
#    0.000    5.714    0.000    5.571    0.000    2.000 
#    0.000    0.000    0.000    0.000    0.000    0.000 
#
# Total GULP energy -311856.124425 kJ/mol
# GULP energy per Si atom -5568.859365 kJ/mol
# Density = 1.897560 g / cm^3
# Si number density = 19.018890 Si / 1000 Ang^3
#
#
#
# Elastic Constant Matrix: (Units=GPa)
#
#
# Indices 1 2 3 4 5 6 
#
# 1 129.3464 20.8400 79.0580 0.0000 0.0000 0.0000
# 2 20.8400 19.0126 9.2722 0.0000 0.0000 0.0000
# 3 79.0580 9.2722 140.1986 0.0000 0.0000 0.0000
# 4 0.0000 0.0000 0.0000 42.7701 0.0000 0.0000
# 5 0.0000 0.0000 0.0000 0.0000 16.7584 0.0000
# 6 0.0000 0.0000 0.0000 0.0000 0.0000 15.7011
#
#
#
# Elastic Compliance Matrix: (Units=1/GPa)
#
#
# Indices 1 2 3 4 5 6 
#
# 1 0.013982 -0.011864 -0.007100 0.000000 0.000000 0.000000
# 2 -0.011864 0.064415 0.002430 0.000000 0.000000 0.000000
# 3 -0.007100 0.002430 0.010976 0.000000 0.000000 0.000000
# 4 0.000000 0.000000 0.000000 0.023381 0.000000 0.000000
# 5 0.000000 0.000000 0.000000 0.000000 0.059671 0.000000
# 6 0.000000 0.000000 0.000000 0.000000 0.000000 0.063690
#
#
# Mechanical properties :
#
#
# Convention : Reuss Voigt Hill
#
# Bulk Modulus (GPa) = 17.76019 56.32202 37.04110
# Shear Modulus (GPa) = 17.36404 27.00509 22.18456
#
# Velocity S-wave (km/s) = 3.02485 3.77226 3.41904
# Velocity P-wave (km/s) = 4.64307 6.97504 5.92492
#
# Compressibility (1/GPa) = 0.05630572
#
# Stress axis : x y z
#
# Youngs Moduli (GPa) = 71.51963 15.52422 91.11022
#
# Poissons Ratio (x) = 0.18417 0.64688
# Poissons Ratio (y) = 0.84847 -0.22136
# Poissons Ratio (z) = 0.50779 -0.03772
#
# Static dielectric constant tensor:
#      x y z
#    x 1.690840 0.000000 0.000000 
#    y 0.000000 1.686320 0.000000 
#    z 0.000000 0.000000 1.673080 
# 
# From -- ./inp_files/56055.got.cif
#   From: 2010.05.17/outbox.cif.g08.bks.cpg/sg65_29_cif.got.tgz:56055.got - 2010.06.03 17:01:31.
