data_PCOD9491562
_publ_section_title
;
Structure prediction by ZEFSAII (Michael W. Deem and Ramdas Pophale) SiO2 
 PCOD9491562
Probable space group: C M M M
;
_chemical_formula_sum "Si O2"
_cell_formula_units_Z 88
_cell_length_a 18.481469
_cell_length_b 8.176127
_cell_length_c 29.797185
_cell_angle_alpha 90.000000
_cell_angle_beta 90.000000
_cell_angle_gamma 90.000000
_cell_volume 4502.558397
_symmetry_space_group_name_H-M "C M M M"
_symmetry_group_IT_number 65
_symmetry_cell_setting 'orthorhombic'
loop_
_space_group_symop_operation_xyz
x,y,z
-x,-y,z
x,-y,-z
-x,y,-z
-x,-y,-z
x,y,-z
-x,y,z
x,-y,z
1/2+x,1/2+y,z
1/2-x,1/2-y,z
1/2+x,1/2-y,-z
1/2-x,1/2+y,-z
1/2-x,1/2-y,-z
1/2+x,1/2+y,-z
1/2-x,1/2+y,z
1/2+x,1/2-y,z
loop_
_atom_site_type_symbol
_atom_site_label
_atom_site_fract_x
_atom_site_fract_y
_atom_site_fract_z
Si Si1 0.334241 0.197612 0.548206
Si Si2 0.833705 0.697987 0.646094
Si Si3 0.667058 0.695725 0.822787
Si Si4 0.082522 0.302449 0.734256
Si Si5 0.833049 0.694073 0.000000
Si Si6 0.082808 0.802572 0.088784
O O1 0.365298 0.254753 0.500000
O O2 0.250000 0.250000 0.548156
O O3 0.362143 0.253430 0.596929
O O4 0.337809 0.000000 0.548075
O O5 0.835360 0.500000 0.646278
O O6 0.750000 0.750000 0.650729
O O7 0.879784 0.756872 0.688408
O O8 0.665081 0.500000 0.823426
O O9 0.750000 0.750000 0.824268
O O10 0.628626 0.753700 0.777463
O O11 0.623879 0.757080 0.866619
O O12 0.081020 0.500000 0.732306
O O13 0.000000 0.243570 0.738097
O O14 0.750000 0.750000 0.000000
O O15 0.873894 0.755764 0.955697
O O16 0.834685 0.500000 0.000000
O O17 0.000000 0.743158 0.087212
O O18 0.080729 0.000000 0.090857
#
# Coordination Sequence:
#
# PCOD9491562 Si02
#       6
#    16  16  16  16   8  16
#     4   8  13  22  38  61  89 120 156 201 251 302
#     4   9  17  29  46  69  96 127 165 209 258 311
#     4  11  23  39  60  85 111 141 179 221 266 317
#     4  10  21  36  53  74 103 139 176 217 266 317
#     4  12  25  40  61  89 119 153 193 232 269 312
#     4  10  22  41  63  87 117 150 182 221 270 319
#
# _framework density 19.544443000000001
#
# number of rings (size 3 to 8) (size 9 to 14) (size 15 to 20)
#    0.000    2.182    0.000    3.273    0.000    7.636 
#    0.000    0.000    0.000    0.545    0.000    3.818 
#    0.000    0.000    0.000   31.091    0.000   15.636 
#
# Total GULP energy -245517.670601 kJ/mol
# GULP energy per Si atom -5579.947059 kJ/mol
# Density = 1.949996 g / cm^3
# Si number density = 19.544443 Si / 1000 Ang^3
#
#
#
# Elastic Constant Matrix: (Units=GPa)
#
#
# Indices 1 2 3 4 5 6 
#
# 1 151.6390 12.4073 112.5174 0.0000 0.0000 0.0000
# 2 12.4073 15.6102 14.8081 0.0000 0.0000 0.0000
# 3 112.5174 14.8081 242.0608 0.0000 0.0000 0.0000
# 4 0.0000 0.0000 0.0000 24.3023 0.0000 0.0000
# 5 0.0000 0.0000 0.0000 0.0000 -12.1047 0.0000
# 6 0.0000 0.0000 0.0000 0.0000 0.0000 14.9820
#
#
#
# Elastic Compliance Matrix: (Units=1/GPa)
#
#
# Indices 1 2 3 4 5 6 
#
# 1 0.010281 -0.003863 -0.004543 0.000000 0.000000 0.000000
# 2 -0.003863 0.069458 -0.002454 0.000000 0.000000 0.000000
# 3 -0.004543 -0.002454 0.006393 0.000000 0.000000 0.000000
# 4 0.000000 0.000000 0.000000 0.041148 0.000000 0.000000
# 5 0.000000 0.000000 0.000000 0.000000 -0.082612 0.000000
# 6 0.000000 0.000000 0.000000 0.000000 0.000000 0.066747
#
#
# Mechanical properties :
#
#
# Convention : Reuss Voigt Hill
#
# Bulk Modulus (GPa) = 15.52440 76.53061 46.02751
# Shear Modulus (GPa) = 32.34041 23.40774 27.87407
#
# Velocity S-wave (km/s) = 4.07223 3.46449 3.78059
# Velocity P-wave (km/s) = 5.48371 7.43275 6.53134
#
# Compressibility (1/GPa) = 0.06441472
#
# Stress axis : x y z
#
# Youngs Moduli (GPa) = 97.26219 14.39710 156.42199
#
# Poissons Ratio (x) = 0.05561 0.71060
# Poissons Ratio (y) = 0.37568 0.38381
# Poissons Ratio (z) = 0.44185 0.03533
#
# Static dielectric constant tensor:
#      x y z
#    x -3.844250 0.000000 0.000000 
#    y 0.000000 1.682450 0.000000 
#    z 0.000000 0.000000 1.713060 
# 
# From -- ./inp_files/76548.got.cif
#   From: 2010.05.17/outbox.cif.g08.bks.cpg/sg65_39_cif.got.tgz:76548.got - 2010.06.03 17:01:31.
