data_PCOD9491417
_publ_section_title
;
Structure prediction by ZEFSAII (Michael W. Deem and Ramdas Pophale) SiO2 
 PCOD9491417
Probable space group: C M M M
;
_chemical_formula_sum "Si O2"
_cell_formula_units_Z 52
_cell_length_a 7.220298
_cell_length_b 16.144916
_cell_length_c 18.455250
_cell_angle_alpha 90.000000
_cell_angle_beta 90.000000
_cell_angle_gamma 90.000000
_cell_volume 2151.348880
_symmetry_space_group_name_H-M "C M M M"
_symmetry_group_IT_number 65
_symmetry_cell_setting 'orthorhombic'
loop_
_space_group_symop_operation_xyz
x,y,z
-x,-y,z
x,-y,-z
-x,y,-z
-x,-y,-z
x,y,-z
-x,y,z
x,-y,z
1/2+x,1/2+y,z
1/2-x,1/2-y,z
1/2+x,1/2-y,-z
1/2-x,1/2+y,-z
1/2-x,1/2-y,-z
1/2+x,1/2+y,-z
1/2-x,1/2+y,z
1/2+x,1/2-y,z
loop_
_atom_site_type_symbol
_atom_site_label
_atom_site_fract_x
_atom_site_fract_y
_atom_site_fract_z
Si Si1 0.218470 0.654397 0.733228
Si Si2 0.223739 0.597966 0.578321
Si Si3 0.500000 0.665056 0.000000
Si Si4 0.721471 0.094962 0.887025
O O1 0.250000 0.750000 0.750291
O O2 0.293865 0.636385 0.653062
O O3 0.280273 0.603520 0.803131
O O4 0.000000 0.637096 0.728356
O O5 0.288978 0.630791 0.500000
O O6 0.263999 0.500000 0.580706
O O7 0.000000 0.606336 0.577641
O O8 0.338633 0.654927 0.937031
O O9 0.500000 0.110919 0.892482
O O10 0.755100 0.000000 0.910953
#
# Coordination Sequence:
#
# PCOD9491417 Si02
#       4
#    16  16   4  16
#     4  10  21  35  54  79 115 153 189 232 282 343
#     4   8  14  28  53  83 111 144 191 238 279 330
#     4  12  23  38  66  94 112 142 189 246 301 346
#     4  10  21  38  61  87 115 147 191 242 291 344
#
# _framework density 24.170881000000001
#
# number of rings (size 3 to 8) (size 9 to 14) (size 15 to 20)
#    0.000    2.462    0.000    3.692    2.154    5.538 
#    0.000    0.769    0.000    0.000    0.000    2.154 
#    0.000    0.000    0.000    0.000    0.000    0.308 
#
# Total GULP energy -144804.866508 kJ/mol
# GULP energy per Si atom -5569.417943 kJ/mol
# Density = 2.411587 g / cm^3
# Si number density = 24.170881 Si / 1000 Ang^3
#
#
#
# Elastic Constant Matrix: (Units=GPa)
#
#
# Indices 1 2 3 4 5 6 
#
# 1 128.3489 1.0351 31.3775 0.0000 0.0000 0.0000
# 2 1.0351 42.2058 21.9839 0.0000 0.0000 0.0000
# 3 31.3775 21.9839 198.6326 0.0000 0.0000 0.0000
# 4 0.0000 0.0000 0.0000 -55.1739 0.0000 0.0000
# 5 0.0000 0.0000 0.0000 0.0000 36.8856 0.0000
# 6 0.0000 0.0000 0.0000 0.0000 0.0000 -15.4198
#
#
#
# Elastic Compliance Matrix: (Units=1/GPa)
#
#
# Indices 1 2 3 4 5 6 
#
# 1 0.008114 0.000497 -0.001337 0.000000 0.000000 0.000000
# 2 0.000497 0.025173 -0.002865 0.000000 0.000000 0.000000
# 3 -0.001337 -0.002865 0.005563 0.000000 0.000000 0.000000
# 4 0.000000 0.000000 0.000000 -0.018125 0.000000 0.000000
# 5 0.000000 0.000000 0.000000 0.000000 0.027111 0.000000
# 6 0.000000 0.000000 0.000000 0.000000 0.000000 -0.064852
#
#
# Mechanical properties :
#
#
# Convention : Reuss Voigt Hill
#
# Bulk Modulus (GPa) = 31.80481 53.10892 42.45687
# Shear Modulus (GPa) = 5724.76466 14.24444 2869.50455
#
# Velocity S-wave (km/s) = 48.71957 2.43023 34.49277
# Velocity P-wave (km/s) = 56.37360 5.46760 40.04920
#
# Compressibility (1/GPa) = 0.03144178
#
# Stress axis : x y z
#
# Youngs Moduli (GPa) = 123.24288 39.72453 179.77083
#
# Poissons Ratio (x) = -0.01976 0.24032
# Poissons Ratio (y) = -0.06129 0.51498
# Poissons Ratio (z) = 0.16475 0.11380
#
# Static dielectric constant tensor:
#      x y z
#    x 1.931220 0.000000 0.000000 
#    y 0.000000 1.901940 0.000000 
#    z 0.000000 0.000000 1.931820 
# 
# From -- ./inp_files/35316.got.cif
#   From: 2010.05.17/outbox.cif.g08.bks.cpg/sg65_18_cif.got.tgz:35316.got - 2010.06.03 17:01:31.
