data_PCOD9491816
_publ_section_title
;
Structure prediction by ZEFSAII (Michael W. Deem and Ramdas Pophale) SiO2 
 PCOD9491816
Probable space group: C M M M
;
_chemical_formula_sum "Si O2"
_cell_formula_units_Z 88
_cell_length_a 22.146205
_cell_length_b 23.434859
_cell_length_c 9.043510
_cell_angle_alpha 90.000000
_cell_angle_beta 90.000000
_cell_angle_gamma 90.000000
_cell_volume 4693.520118
_symmetry_space_group_name_H-M "C M M M"
_symmetry_group_IT_number 65
_symmetry_cell_setting 'orthorhombic'
loop_
_space_group_symop_operation_xyz
x,y,z
-x,-y,z
x,-y,-z
-x,y,-z
-x,-y,-z
x,y,-z
-x,y,z
x,-y,z
1/2+x,1/2+y,z
1/2-x,1/2-y,z
1/2+x,1/2-y,-z
1/2-x,1/2+y,-z
1/2-x,1/2-y,-z
1/2+x,1/2+y,-z
1/2-x,1/2+y,z
1/2+x,1/2-y,z
loop_
_atom_site_type_symbol
_atom_site_label
_atom_site_fract_x
_atom_site_fract_y
_atom_site_fract_z
Si Si1 0.379906 0.378668 0.176637
Si Si2 0.159871 0.642653 0.327336
Si Si3 0.744032 0.563190 0.176072
Si Si4 0.500000 0.568288 0.678280
Si Si5 0.180116 0.232743 0.322867
Si Si6 0.428000 0.933927 0.165937
O O1 0.326293 0.424350 0.202118
O O2 0.440629 0.400591 0.255336
O O3 0.351120 0.319804 0.239747
O O4 0.389682 0.373443 0.000000
O O5 0.173898 0.642625 0.500000
O O6 0.215905 0.612790 0.246207
O O7 0.147289 0.707854 0.285359
O O8 0.103131 0.604303 0.286775
O O9 0.760542 0.500000 0.231932
O O10 0.753733 0.564178 0.000000
O O11 0.500000 0.500000 0.715045
O O12 0.500000 0.573179 0.500000
O O13 0.177804 0.221561 0.500000
O O14 0.250000 0.250000 0.287962
O O15 0.500000 0.930914 0.172703
O O16 0.410572 0.000000 0.183009
O O17 0.408929 0.915936 0.000000
#
# Coordination Sequence:
#
# PCOD9491816 Si02
#       6
#    16  16  16   8  16  16
#     4  11  23  40  65  93 122 158 207 260 307 361
#     4  11  22  35  56  85 115 151 195 242 292 351
#     4  10  21  36  56  85 120 154 189 239 301 358
#     4  11  25  45  69  95 127 169 210 253 316 387
#     4  10  21  40  61  83 120 162 197 240 298 362
#     4   9  19  37  58  79 109 150 190 232 288 351
#
# _framework density 18.749254000000001
#
# number of rings (size 3 to 8) (size 9 to 14) (size 15 to 20)
#    0.000    1.727    1.818    3.000    0.000    7.273 
#    1.636    0.909    0.000    0.000    0.000    0.000 
#    0.000    0.000    0.000    0.000    0.000    0.000 
#
# Total GULP energy -245552.139542 kJ/mol
# GULP energy per Si atom -5580.730444 kJ/mol
# Density = 1.870658 g / cm^3
# Si number density = 18.749254 Si / 1000 Ang^3
#
#
#
# Elastic Constant Matrix: (Units=GPa)
#
#
# Indices 1 2 3 4 5 6 
#
# 1 98.3334 51.4357 37.5340 0.0000 0.0000 0.0000
# 2 51.4357 117.2786 53.2840 0.0000 0.0000 0.0000
# 3 37.5340 53.2840 55.1184 0.0000 0.0000 0.0000
# 4 0.0000 0.0000 0.0000 26.4184 0.0000 0.0000
# 5 0.0000 0.0000 0.0000 0.0000 -8.0729 0.0000
# 6 0.0000 0.0000 0.0000 0.0000 0.0000 38.3343
#
#
#
# Elastic Compliance Matrix: (Units=1/GPa)
#
#
# Indices 1 2 3 4 5 6 
#
# 1 0.014433 -0.003325 -0.006614 0.000000 0.000000 0.000000
# 2 -0.003325 0.015971 -0.013175 0.000000 0.000000 0.000000
# 3 -0.006614 -0.013175 0.035384 0.000000 0.000000 0.000000
# 4 0.000000 0.000000 0.000000 0.037852 0.000000 0.000000
# 5 0.000000 0.000000 0.000000 0.000000 -0.123871 0.000000
# 6 0.000000 0.000000 0.000000 0.000000 0.000000 0.026086
#
#
# Mechanical properties :
#
#
# Convention : Reuss Voigt Hill
#
# Bulk Modulus (GPa) = 51.12769 61.69309 56.41039
# Shear Modulus (GPa) = 85.31793 19.90109 52.60951
#
# Velocity S-wave (km/s) = 6.75304 3.26150 5.30287
# Velocity P-wave (km/s) = 9.38792 6.86723 8.22472
#
# Compressibility (1/GPa) = 0.01955887
#
# Stress axis : x y z
#
# Youngs Moduli (GPa) = 69.28356 62.61377 28.26167
#
# Poissons Ratio (x) = 0.20819 0.18693
# Poissons Ratio (y) = 0.23037 0.37235
# Poissons Ratio (z) = 0.45827 0.82495
#
# Static dielectric constant tensor:
#      x y z
#    x 1.658990 0.000000 0.000000 
#    y 0.000000 1.657930 0.000000 
#    z 0.000000 0.000000 1.640480 
# 
# From -- ./inp_files/11835.got.cif
#   From: 2010.05.17/outbox.cif.g08.bks.cpg/sg65_6_cif.got.tgz:11835.got - 2010.06.03 17:01:31.
