data_PCOD9491682
_publ_section_title
;
Structure prediction by ZEFSAII (Michael W. Deem and Ramdas Pophale) SiO2 
 PCOD9491682
Probable space group: C M M M
;
_chemical_formula_sum "Si O2"
_cell_formula_units_Z 72
_cell_length_a 19.553706
_cell_length_b 8.595233
_cell_length_c 23.109170
_cell_angle_alpha 90.000000
_cell_angle_beta 90.000000
_cell_angle_gamma 90.000000
_cell_volume 3883.927214
_symmetry_space_group_name_H-M "C M M M"
_symmetry_group_IT_number 65
_symmetry_cell_setting 'orthorhombic'
loop_
_space_group_symop_operation_xyz
x,y,z
-x,-y,z
x,-y,-z
-x,y,-z
-x,-y,-z
x,y,-z
-x,y,z
x,-y,z
1/2+x,1/2+y,z
1/2-x,1/2-y,z
1/2+x,1/2-y,-z
1/2-x,1/2+y,-z
1/2-x,1/2-y,-z
1/2+x,1/2+y,-z
1/2-x,1/2+y,z
1/2+x,1/2-y,z
loop_
_atom_site_type_symbol
_atom_site_label
_atom_site_fract_x
_atom_site_fract_y
_atom_site_fract_z
Si Si1 0.920185 0.313186 0.500000
Si Si2 0.325121 0.312324 0.065992
Si Si3 0.920640 0.188400 0.171304
Si Si4 0.324950 0.314026 0.600265
Si Si5 0.324498 0.185693 0.729026
O O1 0.915291 0.500000 0.500000
O O2 0.881196 0.247442 0.444097
O O3 0.000000 0.269549 0.500000
O O4 0.322667 0.500000 0.066257
O O5 0.250000 0.250000 0.081509
O O6 0.380952 0.263403 0.112934
O O7 0.340395 0.261888 0.000000
O O8 0.880889 0.259401 0.225576
O O9 0.000000 0.233368 0.170078
O O10 0.917177 0.000000 0.175143
O O11 0.323023 0.500000 0.600008
O O12 0.250000 0.250000 0.583216
O O13 0.338319 0.253536 0.665184
O O14 0.250000 0.250000 0.747252
O O15 0.321380 0.000000 0.725807
#
# Coordination Sequence:
#
# PCOD9491682 Si02
#       5
#     8  16  16  16  16
#     4  11  24  41  60  85 119 155 190 229 276 329
#     4   9  18  33  54  79 106 140 183 229 276 327
#     4  10  21  36  54  79 112 148 185 227 277 332
#     4  11  22  39  63  88 115 147 188 233 278 329
#     4  11  22  38  60  84 111 144 186 232 279 330
#
# _framework density 18.537939000000001
#
# number of rings (size 3 to 8) (size 9 to 14) (size 15 to 20)
#    0.000    1.667    0.000    6.667    0.000    5.333 
#    0.000    2.222    0.000    0.000    0.000    4.667 
#    0.000    0.000    0.000    0.000    0.000    0.000 
#
# Total GULP energy -201214.674947 kJ/mol
# GULP energy per Si atom -5589.296526 kJ/mol
# Density = 1.849575 g / cm^3
# Si number density = 18.537939 Si / 1000 Ang^3
#
#
#
# Elastic Constant Matrix: (Units=GPa)
#
#
# Indices 1 2 3 4 5 6 
#
# 1 196.4182 71.7841 130.6287 0.0000 0.0000 0.0000
# 2 71.7841 92.7127 54.0915 0.0000 0.0000 0.0000
# 3 130.6287 54.0915 123.3098 0.0000 0.0000 0.0000
# 4 0.0000 0.0000 0.0000 9.0911 0.0000 0.0000
# 5 0.0000 0.0000 0.0000 0.0000 -37.2190 0.0000
# 6 0.0000 0.0000 0.0000 0.0000 0.0000 26.8694
#
#
#
# Elastic Compliance Matrix: (Units=1/GPa)
#
#
# Indices 1 2 3 4 5 6 
#
# 1 0.018183 -0.003817 -0.017588 0.000000 0.000000 0.000000
# 2 -0.003817 0.015297 -0.002667 0.000000 0.000000 0.000000
# 3 -0.017588 -0.002667 0.027911 0.000000 0.000000 0.000000
# 4 0.000000 0.000000 0.000000 0.109997 0.000000 0.000000
# 5 0.000000 0.000000 0.000000 0.000000 -0.026868 0.000000
# 6 0.000000 0.000000 0.000000 0.000000 0.000000 0.037217
#
#
# Mechanical properties :
#
#
# Convention : Reuss Voigt Hill
#
# Bulk Modulus (GPa) = 75.48175 102.82772 89.15473
# Shear Modulus (GPa) = 21.34038 10.14407 15.74222
#
# Velocity S-wave (km/s) = 3.39658 2.34178 2.91725
# Velocity P-wave (km/s) = 7.49587 7.93102 7.71652
#
# Compressibility (1/GPa) = 0.01324824
#
# Stress axis : x y z
#
# Youngs Moduli (GPa) = 54.99596 65.37096 35.82789
#
# Poissons Ratio (x) = 0.24954 0.63014
# Poissons Ratio (y) = 0.20993 0.09554
# Poissons Ratio (z) = 0.96726 0.17432
#
# Static dielectric constant tensor:
#      x y z
#    x 1.606860 0.000000 0.000000 
#    y 0.000000 1.625130 0.000000 
#    z 0.000000 0.000000 1.629800 
# 
# From -- ./inp_files/64285.got.cif
#   From: 2010.05.17/outbox.cif.g08.bks.cpg/sg65_33_cif.got.tgz:64285.got - 2010.06.03 17:01:31.
