data_PCOD9491524
_publ_section_title
;
Structure prediction by ZEFSAII (Michael W. Deem and Ramdas Pophale) SiO2 
 PCOD9491524
Probable space group: C M M M
;
_chemical_formula_sum "Si O2"
_cell_formula_units_Z 72
_cell_length_a 14.883860
_cell_length_b 9.420971
_cell_length_c 24.334390
_cell_angle_alpha 90.000000
_cell_angle_beta 90.000000
_cell_angle_gamma 90.000000
_cell_volume 3412.178226
_symmetry_space_group_name_H-M "C M M M"
_symmetry_group_IT_number 65
_symmetry_cell_setting 'orthorhombic'
loop_
_space_group_symop_operation_xyz
x,y,z
-x,-y,z
x,-y,-z
-x,y,-z
-x,-y,-z
x,y,-z
-x,y,z
x,-y,z
1/2+x,1/2+y,z
1/2-x,1/2-y,z
1/2+x,1/2-y,-z
1/2-x,1/2+y,-z
1/2-x,1/2-y,-z
1/2+x,1/2+y,-z
1/2-x,1/2+y,z
1/2+x,1/2-y,z
loop_
_atom_site_type_symbol
_atom_site_label
_atom_site_fract_x
_atom_site_fract_y
_atom_site_fract_z
Si Si1 0.390436 0.665042 0.786866
Si Si2 0.106110 0.840982 0.665175
Si Si3 0.344263 0.169141 0.559607
Si Si4 0.609912 0.337544 0.000000
Si Si5 0.610075 0.162324 0.892726
O O1 0.500000 0.670740 0.788016
O O2 0.366157 0.500000 0.795949
O O3 0.359703 0.705729 0.725238
O O4 0.359852 0.765148 0.836051
O O5 0.116203 0.734162 0.614953
O O6 0.000000 0.856791 0.672544
O O7 0.142717 0.000000 0.652359
O O8 0.390180 0.196617 0.500000
O O9 0.250000 0.250000 0.556360
O O10 0.334627 0.000000 0.564326
O O11 0.637595 0.254406 0.945274
O O12 0.640692 0.500000 0.000000
O O13 0.500000 0.339856 0.000000
O O14 0.500000 0.161325 0.892620
O O15 0.640023 0.000000 0.897041
#
# Coordination Sequence:
#
# PCOD9491524 Si02
#       5
#    16  16  16   8  16
#     4   8  14  25  39  55  78 109 143 177 217 267
#     4   9  18  32  50  72  97 125 157 193 233 279
#     4  10  21  36  53  72  95 124 157 193 234 281
#     4   9  15  21  29  41  61  95 138 179 218 263
#     4   9  15  21  30  46  69  98 135 179 222 262
#
# _framework density 21.100892000000002
#
# number of rings (size 3 to 8) (size 9 to 14) (size 15 to 20)
#    0.000    3.000    0.000    3.000    0.000    7.111 
#    0.000    4.444    0.000    0.000    0.000    0.000 
#    0.000    0.000    0.000    1.000    0.000   14.444 
#
# Total GULP energy -200719.441168 kJ/mol
# GULP energy per Si atom -5575.540032 kJ/mol
# Density = 2.105287 g / cm^3
# Si number density = 21.100892 Si / 1000 Ang^3
#
#
#
# Elastic Constant Matrix: (Units=GPa)
#
#
# Indices 1 2 3 4 5 6 
#
# 1 30.8356 9.0211 10.5414 0.0000 0.0000 0.0000
# 2 9.0211 167.3646 146.9912 0.0000 0.0000 0.0000
# 3 10.5414 146.9912 236.5955 0.0000 0.0000 0.0000
# 4 0.0000 0.0000 0.0000 56.5732 0.0000 0.0000
# 5 0.0000 0.0000 0.0000 0.0000 -3.7131 0.0000
# 6 0.0000 0.0000 0.0000 0.0000 0.0000 11.3335
#
#
#
# Elastic Compliance Matrix: (Units=1/GPa)
#
#
# Indices 1 2 3 4 5 6 
#
# 1 0.033019 -0.001073 -0.000804 0.000000 0.000000 0.000000
# 2 -0.001073 0.013185 -0.008144 0.000000 0.000000 0.000000
# 3 -0.000804 -0.008144 0.009322 0.000000 0.000000 0.000000
# 4 0.000000 0.000000 0.000000 0.017676 0.000000 0.000000
# 5 0.000000 0.000000 0.000000 0.000000 -0.269317 0.000000
# 6 0.000000 0.000000 0.000000 0.000000 0.000000 0.088234
#
#
# Mechanical properties :
#
#
# Convention : Reuss Voigt Hill
#
# Bulk Modulus (GPa) = 28.18228 85.32256 56.75242
# Shear Modulus (GPa) = -65.78200 30.72152 -17.53024
#
# Velocity S-wave (km/s) = -5.58951 3.81981 -2.88546
# Velocity P-wave (km/s) = 5.31713 7.74454 3.98158
#
# Compressibility (1/GPa) = 0.03548329
#
# Stress axis : x y z
#
# Youngs Moduli (GPa) = 30.28559 75.84130 107.27186
#
# Poissons Ratio (x) = 0.08141 0.08627
# Poissons Ratio (y) = 0.03251 0.87362
# Poissons Ratio (z) = 0.02436 0.61765
#
# Static dielectric constant tensor:
#      x y z
#    x 1.851680 0.000000 0.000000 
#    y 0.000000 1.726260 0.000000 
#    z 0.000000 0.000000 1.793720 
# 
# From -- ./inp_files/59539.got.cif
#   From: 2010.05.17/outbox.cif.g08.bks.cpg/sg65_30_cif.got.tgz:59539.got - 2010.06.03 17:01:31.
