data_PCOD9491672
_publ_section_title
;
Structure prediction by ZEFSAII (Michael W. Deem and Ramdas Pophale) SiO2 
 PCOD9491672
Probable space group: C M M M
;
_chemical_formula_sum "Si O2"
_cell_formula_units_Z 116
_cell_length_a 23.290114
_cell_length_b 27.845049
_cell_length_c 7.853832
_cell_angle_alpha 90.000000
_cell_angle_beta 90.000000
_cell_angle_gamma 90.000000
_cell_volume 5093.322877
_symmetry_space_group_name_H-M "C M M M"
_symmetry_group_IT_number 65
_symmetry_cell_setting 'orthorhombic'
loop_
_space_group_symop_operation_xyz
x,y,z
-x,-y,z
x,-y,-z
-x,y,-z
-x,-y,-z
x,y,-z
-x,y,z
x,-y,z
1/2+x,1/2+y,z
1/2-x,1/2-y,z
1/2+x,1/2-y,-z
1/2-x,1/2+y,-z
1/2-x,1/2-y,-z
1/2+x,1/2+y,-z
1/2-x,1/2+y,z
1/2+x,1/2-y,z
loop_
_atom_site_type_symbol
_atom_site_label
_atom_site_fract_x
_atom_site_fract_y
_atom_site_fract_z
Si Si1 0.248592 0.696967 0.694173
Si Si2 0.064783 0.200571 0.703605
Si Si3 0.915133 0.087324 0.303614
Si Si4 0.500000 0.560305 0.000000
Si Si5 0.872781 0.293614 0.194415
Si Si6 0.291461 0.596836 0.804763
Si Si7 0.168586 0.554438 0.294631
Si Si8 0.937307 0.381743 0.705596
O O1 0.270311 0.700249 0.500000
O O2 0.250000 0.750000 0.774091
O O3 0.180413 0.687562 0.694398
O O4 0.282239 0.654042 0.780337
O O5 0.065562 0.206909 0.500000
O O6 0.076805 0.144541 0.735578
O O7 0.109853 0.238565 0.775816
O O8 0.000000 0.210726 0.766568
O O9 0.934127 0.078864 0.500000
O O10 0.950389 0.061829 0.153422
O O11 0.846954 0.078787 0.295376
O O12 0.926338 0.327166 0.238629
O O13 0.855776 0.300866 0.000000
O O14 0.231043 0.574136 0.752008
O O15 0.302608 0.586355 0.000000
O O16 0.165345 0.554538 0.500000
O O17 0.162394 0.500000 0.234095
O O18 0.116147 0.586967 0.230094
O O19 0.936674 0.383143 0.500000
O O20 0.000000 0.398574 0.762860
#
# Coordination Sequence:
#
# PCOD9491672 Si02
#       8
#    16  16  16   4  16  16  16  16
#     4  11  23  39  58  82 119 167 217 269 328 391
#     4  10  21  36  54  78 116 166 220 269 319 378
#     4  11  23  40  63  93 133 178 222 273 328 384
#     4  12  22  40  64  98 135 178 220 276 317 394
#     4  12  24  34  52  81 117 165 214 270 326 389
#     4  12  24  40  64  96 131 170 218 271 326 393
#     4  10  22  42  69  97 127 167 215 270 335 403
#     4  10  21  39  62  88 122 164 212 265 329 400
#
# _framework density 22.774916000000001
#
# number of rings (size 3 to 8) (size 9 to 14) (size 15 to 20)
#    0.000    1.103    2.759    4.345    0.966    7.172 
#    0.000    1.379    0.000    0.000    0.000    2.897 
#    0.000    2.207    0.000    0.000    0.000    0.000 
#
# Total GULP energy -323865.400302 kJ/mol
# GULP energy per Si atom -5583.886212 kJ/mol
# Density = 2.272308 g / cm^3
# Si number density = 22.774916 Si / 1000 Ang^3
#
#
#
# Elastic Constant Matrix: (Units=GPa)
#
#
# Indices 1 2 3 4 5 6 
#
# 1 138.4700 14.1848 25.4183 0.0000 0.0000 0.0000
# 2 14.1848 58.3637 13.7782 0.0000 0.0000 0.0000
# 3 25.4183 13.7782 88.2502 0.0000 0.0000 0.0000
# 4 0.0000 0.0000 0.0000 -513.1316 0.0000 0.0000
# 5 0.0000 0.0000 0.0000 0.0000 16.7808 0.0000
# 6 0.0000 0.0000 0.0000 0.0000 0.0000 -14.2883
#
#
#
# Elastic Compliance Matrix: (Units=1/GPa)
#
#
# Indices 1 2 3 4 5 6 
#
# 1 0.007734 -0.001406 -0.002008 0.000000 0.000000 0.000000
# 2 -0.001406 0.018045 -0.002412 0.000000 0.000000 0.000000
# 3 -0.002008 -0.002412 0.012286 0.000000 0.000000 0.000000
# 4 0.000000 0.000000 0.000000 -0.001949 0.000000 0.000000
# 5 0.000000 0.000000 0.000000 0.000000 0.059592 0.000000
# 6 0.000000 0.000000 0.000000 0.000000 0.000000 -0.069987
#
#
# Mechanical properties :
#
#
# Convention : Reuss Voigt Hill
#
# Bulk Modulus (GPa) = 37.85978 43.53851 40.69915
# Shear Modulus (GPa) = 108.27503 -86.68096 10.79704
#
# Velocity S-wave (km/s) = 6.90250 -6.17596 2.17969
# Velocity P-wave (km/s) = 8.95464 5.63012 4.92379
#
# Compressibility (1/GPa) = 0.02641325
#
# Stress axis : x y z
#
# Youngs Moduli (GPa) = 129.29215 55.41672 81.39027
#
# Poissons Ratio (x) = 0.07790 0.16345
# Poissons Ratio (y) = 0.18175 0.19635
# Poissons Ratio (z) = 0.25965 0.13369
#
# Static dielectric constant tensor:
#      x y z
#    x 1.884330 0.000000 0.000000 
#    y 0.000000 1.858700 0.000000 
#    z 0.000000 0.000000 1.813190 
# 
# From -- ./inp_files/14890.got.cif
#   From: 2010.05.17/outbox.cif.g08.bks.cpg/sg65_8_cif.got.tgz:14890.got - 2010.06.03 17:01:31.
