data_PCOD9491520
_publ_section_title
;
Structure prediction by ZEFSAII (Michael W. Deem and Ramdas Pophale) SiO2 
 PCOD9491520
Probable space group: C M M M
;
_chemical_formula_sum "Si O2"
_cell_formula_units_Z 88
_cell_length_a 9.575696
_cell_length_b 14.740171
_cell_length_c 29.938481
_cell_angle_alpha 90.000000
_cell_angle_beta 90.000000
_cell_angle_gamma 90.000000
_cell_volume 4225.738648
_symmetry_space_group_name_H-M "C M M M"
_symmetry_group_IT_number 65
_symmetry_cell_setting 'orthorhombic'
loop_
_space_group_symop_operation_xyz
x,y,z
-x,-y,z
x,-y,-z
-x,y,-z
-x,-y,-z
x,y,-z
-x,y,z
x,-y,z
1/2+x,1/2+y,z
1/2-x,1/2-y,z
1/2+x,1/2-y,-z
1/2-x,1/2+y,-z
1/2-x,1/2-y,-z
1/2+x,1/2+y,-z
1/2-x,1/2+y,z
1/2+x,1/2-y,z
loop_
_atom_site_type_symbol
_atom_site_label
_atom_site_fract_x
_atom_site_fract_y
_atom_site_fract_z
Si Si1 0.161458 0.389308 0.315859
Si Si2 0.837229 0.889617 0.768407
Si Si3 0.842688 0.106974 0.866674
Si Si4 0.338388 0.889295 0.415071
Si Si5 0.333445 0.843878 0.951335
Si Si6 0.340422 0.611174 0.500000
O O1 0.164936 0.500000 0.315545
O O2 0.249476 0.356883 0.273711
O O3 0.210304 0.361745 0.365430
O O4 0.000000 0.362641 0.311174
O O5 0.793426 0.858295 0.818158
O O6 0.000000 0.866706 0.763483
O O7 0.826935 0.000000 0.767534
O O8 0.735142 0.116003 0.907035
O O9 0.000000 0.143790 0.876838
O O10 0.859662 0.000000 0.860545
O O11 0.500000 0.861464 0.421183
O O12 0.241271 0.859758 0.455577
O O13 0.338734 0.000000 0.415626
O O14 0.500000 0.833105 0.946455
O O15 0.250000 0.750000 0.954434
O O16 0.310751 0.890224 0.000000
O O17 0.341014 0.500000 0.500000
O O18 0.500000 0.641805 0.500000
#
# Coordination Sequence:
#
# PCOD9491520 Si02
#       6
#    16  16  16  16  16   8
#     4   8  13  20  30  44  61  84 116 152 192 240
#     4   8  14  24  37  54  77 103 129 160 201 247
#     4   9  18  32  49  70  96 124 152 183 223 269
#     4   8  13  20  27  34  48  73 104 140 186 237
#     4  10  21  36  53  72  94 121 153 188 225 266
#     4   9  15  19  23  33  47  65  97 143 190 233
#
# _framework density 20.824762
#
# number of rings (size 3 to 8) (size 9 to 14) (size 15 to 20)
#    0.000    3.364    0.000    3.000    0.000    4.364 
#    0.000    7.273    0.000    0.000    0.000    0.000 
#    0.000    0.000    0.000    0.000    0.000    0.000 
#
# Total GULP energy -245130.721590 kJ/mol
# GULP energy per Si atom -5571.152763 kJ/mol
# Density = 2.077736 g / cm^3
# Si number density = 20.824762 Si / 1000 Ang^3
#
#
#
# Elastic Constant Matrix: (Units=GPa)
#
#
# Indices 1 2 3 4 5 6 
#
# 1 110.3250 9.3353 133.0980 0.0000 0.0000 0.0000
# 2 9.3353 37.6626 13.5701 0.0000 0.0000 0.0000
# 3 133.0980 13.5701 264.5371 0.0000 0.0000 0.0000
# 4 0.0000 0.0000 0.0000 5.5866 0.0000 0.0000
# 5 0.0000 0.0000 0.0000 0.0000 35.0512 0.0000
# 6 0.0000 0.0000 0.0000 0.0000 0.0000 7.4149
#
#
#
# Elastic Compliance Matrix: (Units=1/GPa)
#
#
# Indices 1 2 3 4 5 6 
#
# 1 0.023154 -0.001571 -0.011569 0.000000 0.000000 0.000000
# 2 -0.001571 0.027158 -0.000603 0.000000 0.000000 0.000000
# 3 -0.011569 -0.000603 0.009632 0.000000 0.000000 0.000000
# 4 0.000000 0.000000 0.000000 0.179000 0.000000 0.000000
# 5 0.000000 0.000000 0.000000 0.000000 0.028530 0.000000
# 6 0.000000 0.000000 0.000000 0.000000 0.000000 0.134864
#
#
# Mechanical properties :
#
#
# Convention : Reuss Voigt Hill
#
# Bulk Modulus (GPa) = 30.80824 80.50349 55.65587
# Shear Modulus (GPa) = 11.34705 26.71195 19.02950
#
# Velocity S-wave (km/s) = 2.33680 3.58537 3.02618
# Velocity P-wave (km/s) = 4.70181 7.47538 6.24453
#
# Compressibility (1/GPa) = 0.03245885
#
# Stress axis : x y z
#
# Youngs Moduli (GPa) = 43.18856 36.82144 103.82093
#
# Poissons Ratio (x) = 0.05784 1.20112
# Poissons Ratio (y) = 0.06784 0.06259
# Poissons Ratio (z) = 0.49966 0.02220
#
# Static dielectric constant tensor:
#      x y z
#    x 1.705750 0.000000 0.000000 
#    y 0.000000 1.887840 0.000000 
#    z 0.000000 0.000000 1.791370 
# 
# From -- ./inp_files/76784.got.cif
#   From: 2010.05.17/outbox.cif.g08.bks.cpg/sg65_39_cif.got.tgz:76784.got - 2010.06.03 17:01:31.
