data_PCOD9491353
_publ_section_title
;
Structure prediction by ZEFSAII (Michael W. Deem and Ramdas Pophale) SiO2 
 PCOD9491353
Probable space group: C M M M
;
_chemical_formula_sum "Si O2"
_cell_formula_units_Z 72
_cell_length_a 13.797417
_cell_length_b 27.355231
_cell_length_c 10.147536
_cell_angle_alpha 90.000000
_cell_angle_beta 90.000000
_cell_angle_gamma 90.000000
_cell_volume 3830.000030
_symmetry_space_group_name_H-M "C M M M"
_symmetry_group_IT_number 65
_symmetry_cell_setting 'orthorhombic'
loop_
_space_group_symop_operation_xyz
x,y,z
-x,-y,z
x,-y,-z
-x,y,-z
-x,-y,-z
x,y,-z
-x,y,z
x,-y,z
1/2+x,1/2+y,z
1/2-x,1/2-y,z
1/2+x,1/2-y,-z
1/2-x,1/2+y,-z
1/2-x,1/2-y,-z
1/2+x,1/2+y,-z
1/2-x,1/2+y,z
1/2+x,1/2-y,z
loop_
_atom_site_type_symbol
_atom_site_label
_atom_site_fract_x
_atom_site_fract_y
_atom_site_fract_z
Si Si1 0.118063 0.000000 0.152757
Si Si2 0.230750 0.307525 0.847170
Si Si3 0.111469 0.891064 0.840458
Si Si4 0.115847 0.636425 0.648530
Si Si5 0.382074 0.055693 0.853724
O O1 0.144247 0.945695 0.206353
O O2 0.000000 0.000000 0.153959
O O3 0.149287 0.000000 0.000000
O O4 0.250000 0.250000 0.839792
O O5 0.319416 0.344690 0.812350
O O6 0.148839 0.319724 0.741352
O O7 0.203510 0.317655 0.000000
O O8 0.000000 0.882896 0.796366
O O9 0.108752 0.894393 0.000000
O O10 0.154681 0.637838 0.500000
O O11 0.146934 0.589287 0.733171
O O12 0.000000 0.635300 0.640732
O O13 0.500000 0.055674 0.856238
O O14 0.350407 0.000000 0.837172
O O15 0.350471 0.072579 0.000000
#
# Coordination Sequence:
#
# PCOD9491353 Si02
#       5
#     8  16  16  16  16
#     4   7  10  20  42  70  98 125 154 198 255 313
#     4  10  21  35  52  77 107 137 173 221 271 319
#     4   8  14  27  48  74 102 130 163 208 266 326
#     4  10  21  36  53  73 102 143 185 222 261 310
#     4   8  14  27  49  75 101 130 167 213 261 307
#
# _framework density 18.798956
#
# number of rings (size 3 to 8) (size 9 to 14) (size 15 to 20)
#    0.000    3.222    0.000    2.667    0.000    3.111 
#    2.000    4.444    0.000    0.667    0.000    0.000 
#    0.000    2.667    0.000    0.000    0.000    0.000 
#
# Total GULP energy -200453.318564 kJ/mol
# GULP energy per Si atom -5568.147738 kJ/mol
# Density = 1.875617 g / cm^3
# Si number density = 18.798956 Si / 1000 Ang^3
#
#
#
# Elastic Constant Matrix: (Units=GPa)
#
#
# Indices 1 2 3 4 5 6 
#
# 1 59.7277 31.7942 22.1771 0.0000 0.0000 0.0000
# 2 31.7942 147.1896 52.9053 0.0000 0.0000 0.0000
# 3 22.1771 52.9053 120.6769 0.0000 0.0000 0.0000
# 4 0.0000 0.0000 0.0000 80.0120 0.0000 0.0000
# 5 0.0000 0.0000 0.0000 0.0000 15.0664 0.0000
# 6 0.0000 0.0000 0.0000 0.0000 0.0000 30.3995
#
#
#
# Elastic Compliance Matrix: (Units=1/GPa)
#
#
# Indices 1 2 3 4 5 6 
#
# 1 0.019334 -0.003441 -0.002044 0.000000 0.000000 0.000000
# 2 -0.003441 0.008677 -0.003172 0.000000 0.000000 0.000000
# 3 -0.002044 -0.003172 0.010053 0.000000 0.000000 0.000000
# 4 0.000000 0.000000 0.000000 0.012498 0.000000 0.000000
# 5 0.000000 0.000000 0.000000 0.000000 0.066373 0.000000
# 6 0.000000 0.000000 0.000000 0.000000 0.000000 0.032895
#
#
# Mechanical properties :
#
#
# Convention : Reuss Voigt Hill
#
# Bulk Modulus (GPa) = 48.19535 60.14971 54.17253
# Shear Modulus (GPa) = 28.72553 39.81009 34.26781
#
# Velocity S-wave (km/s) = 3.91325 4.60681 4.27412
# Velocity P-wave (km/s) = 6.79051 7.76935 7.29636
#
# Compressibility (1/GPa) = 0.02074889
#
# Stress axis : x y z
#
# Youngs Moduli (GPa) = 51.72329 115.24200 99.47494
#
# Poissons Ratio (x) = 0.39660 0.20335
# Poissons Ratio (y) = 0.17800 0.31551
# Poissons Ratio (z) = 0.10574 0.36552
#
# Static dielectric constant tensor:
#      x y z
#    x 1.737990 0.000000 0.000000 
#    y 0.000000 1.686180 0.000000 
#    z 0.000000 0.000000 1.607980 
# 
# From -- ./inp_files/7251.got.cif
#   From: 2010.05.17/outbox.cif.g08.bks.cpg/sg65_4_cif.got.tgz:7251.got - 2010.06.03 17:01:31.
