data_PCOD9491732
_publ_section_title
;
Structure prediction by ZEFSAII (Michael W. Deem and Ramdas Pophale) SiO2 
 PCOD9491732
Probable space group: C M M M
;
_chemical_formula_sum "Si O2"
_cell_formula_units_Z 104
_cell_length_a 29.562970
_cell_length_b 8.796669
_cell_length_c 20.520852
_cell_angle_alpha 90.000000
_cell_angle_beta 90.000000
_cell_angle_gamma 90.000000
_cell_volume 5336.563746
_symmetry_space_group_name_H-M "C M M M"
_symmetry_group_IT_number 65
_symmetry_cell_setting 'orthorhombic'
loop_
_space_group_symop_operation_xyz
x,y,z
-x,-y,z
x,-y,-z
-x,y,-z
-x,-y,-z
x,y,-z
-x,y,z
x,-y,z
1/2+x,1/2+y,z
1/2-x,1/2-y,z
1/2+x,1/2-y,-z
1/2-x,1/2+y,-z
1/2-x,1/2-y,-z
1/2+x,1/2+y,-z
1/2-x,1/2+y,z
1/2+x,1/2-y,z
loop_
_atom_site_type_symbol
_atom_site_label
_atom_site_fract_x
_atom_site_fract_y
_atom_site_fract_z
Si Si1 0.447553 0.677763 0.752747
Si Si2 0.946974 0.682757 0.000000
Si Si3 0.701037 0.818591 0.684642
Si Si4 0.109528 0.182183 0.119369
Si Si5 0.141545 0.819627 0.428793
Si Si6 0.200612 0.317447 0.164179
Si Si7 0.448139 0.820644 0.612836
O O1 0.500000 0.690800 0.774156
O O2 0.439972 0.500000 0.734669
O O3 0.414783 0.717630 0.811783
O O4 0.441747 0.780444 0.689195
O O5 0.920949 0.747416 0.062686
O O6 0.944806 0.500000 0.000000
O O7 0.000000 0.727482 0.000000
O O8 0.750000 0.750000 0.669035
O O9 0.665980 0.757929 0.631966
O O10 0.690909 0.775529 0.759776
O O11 0.702767 0.000000 0.681753
O O12 0.159928 0.249796 0.121851
O O13 0.111184 0.000000 0.112442
O O14 0.159601 0.771582 0.500000
O O15 0.089155 0.773850 0.424891
O O16 0.146613 0.000000 0.423105
O O17 0.201766 0.500000 0.159232
O O18 0.250000 0.250000 0.148204
O O19 0.500000 0.782193 0.596181
O O20 0.441473 0.000000 0.602200
#
# Coordination Sequence:
#
# PCOD9491732 Si02
#       7
#    16   8  16  16  16  16  16
#     4   9  18  33  55  83 113 146 185 230 281 339
#     4  11  25  43  62  87 122 163 203 241 281 329
#     4  10  21  38  62  89 117 149 185 231 285 340
#     4  11  22  37  60  88 119 156 195 236 284 336
#     4  11  24  39  55  77 107 146 191 236 284 342
#     4  10  21  38  61  90 120 150 189 235 285 339
#     4  10  21  36  55  80 109 142 183 234 290 345
#
# _framework density 19.488195000000001
#
# number of rings (size 3 to 8) (size 9 to 14) (size 15 to 20)
#    0.000    1.769    0.000    3.923    0.000    9.538 
#    0.000    3.462    0.000    0.000    0.000    0.000 
#    0.000    0.000    0.000    0.000    0.000    0.000 
#
# Total GULP energy -290624.540771 kJ/mol
# GULP energy per Si atom -5588.933476 kJ/mol
# Density = 1.944384 g / cm^3
# Si number density = 19.488195 Si / 1000 Ang^3
#
#
#
# Elastic Constant Matrix: (Units=GPa)
#
#
# Indices 1 2 3 4 5 6 
#
# 1 125.5364 40.7549 59.5981 0.0000 0.0000 0.0000
# 2 40.7549 42.7296 23.3155 0.0000 0.0000 0.0000
# 3 59.5981 23.3155 50.3894 0.0000 0.0000 0.0000
# 4 0.0000 0.0000 0.0000 24.8511 0.0000 0.0000
# 5 0.0000 0.0000 0.0000 0.0000 7.6449 0.0000
# 6 0.0000 0.0000 0.0000 0.0000 0.0000 34.6667
#
#
#
# Elastic Compliance Matrix: (Units=1/GPa)
#
#
# Indices 1 2 3 4 5 6 
#
# 1 0.020157 -0.008317 -0.019993 0.000000 0.000000 0.000000
# 2 -0.008317 0.034739 -0.006237 0.000000 0.000000 0.000000
# 3 -0.019993 -0.006237 0.046378 0.000000 0.000000 0.000000
# 4 0.000000 0.000000 0.000000 0.040240 0.000000 0.000000
# 5 0.000000 0.000000 0.000000 0.000000 0.130806 0.000000
# 6 0.000000 0.000000 0.000000 0.000000 0.000000 0.028846
#
#
# Mechanical properties :
#
#
# Convention : Reuss Voigt Hill
#
# Bulk Modulus (GPa) = 31.07477 51.77692 41.42584
# Shear Modulus (GPa) = 13.12381 19.76501 16.44441
#
# Velocity S-wave (km/s) = 2.59786 3.18811 2.90800
# Velocity P-wave (km/s) = 4.99785 6.33862 5.70774
#
# Compressibility (1/GPa) = 0.03218045
#
# Stress axis : x y z
#
# Youngs Moduli (GPa) = 49.60939 28.78636 21.56172
#
# Poissons Ratio (x) = 0.23940 0.43109
# Poissons Ratio (y) = 0.41258 0.13449
# Poissons Ratio (z) = 0.99185 0.17955
#
# Static dielectric constant tensor:
#      x y z
#    x 1.674710 0.000000 0.000000 
#    y 0.000000 1.649430 0.000000 
#    z 0.000000 0.000000 1.681700 
# 
# From -- ./inp_files/65921.got.cif
#   From: 2010.05.17/outbox.cif.g08.bks.cpg/sg65_33_cif.got.tgz:65921.got - 2010.06.03 17:01:31.
