data_PCOD9491063
_publ_section_title
;
Structure prediction by ZEFSAII (Michael W. Deem and Ramdas Pophale) SiO2 
 PCOD9491063
Probable space group: C M M M
;
_chemical_formula_sum "Si O2"
_cell_formula_units_Z 120
_cell_length_a 19.904466
_cell_length_b 13.921543
_cell_length_c 23.320973
_cell_angle_alpha 90.000000
_cell_angle_beta 90.000000
_cell_angle_gamma 90.000000
_cell_volume 6462.262125
_symmetry_space_group_name_H-M "C M M M"
_symmetry_group_IT_number 65
_symmetry_cell_setting 'orthorhombic'
loop_
_space_group_symop_operation_xyz
x,y,z
-x,-y,z
x,-y,-z
-x,y,-z
-x,-y,-z
x,y,-z
-x,y,z
x,-y,z
1/2+x,1/2+y,z
1/2-x,1/2-y,z
1/2+x,1/2-y,-z
1/2-x,1/2+y,-z
1/2-x,1/2-y,-z
1/2+x,1/2+y,-z
1/2-x,1/2+y,z
1/2+x,1/2-y,z
loop_
_atom_site_type_symbol
_atom_site_label
_atom_site_fract_x
_atom_site_fract_y
_atom_site_fract_z
Si Si1 0.175360 0.720669 0.565582
Si Si2 0.923756 0.801790 0.721835
Si Si3 0.078167 0.391081 0.000000
Si Si4 0.077882 0.111261 0.596611
Si Si5 0.827420 0.774612 0.819767
Si Si6 0.921823 0.388363 0.350182
Si Si7 0.201622 0.888345 0.933870
Si Si8 0.855717 0.610025 0.890420
O O1 0.182725 0.687333 0.500000
O O2 0.250000 0.750000 0.587218
O O3 0.129081 0.815873 0.567536
O O4 0.133791 0.644108 0.603351
O O5 0.916964 0.866167 0.664721
O O6 0.868113 0.823916 0.769222
O O7 0.915404 0.691773 0.699547
O O8 0.000000 0.813165 0.743731
O O9 0.100162 0.345855 0.058982
O O10 0.109129 0.500000 0.000000
O O11 0.000000 0.400599 0.000000
O O12 0.000000 0.131011 0.580568
O O13 0.091997 0.000000 0.584869
O O14 0.750000 0.750000 0.805483
O O15 0.829794 0.830984 0.880550
O O16 0.860265 0.672186 0.833963
O O17 0.912860 0.500000 0.333867
O O18 0.000000 0.378138 0.371211
O O19 0.280596 0.886180 0.916837
O O20 0.180609 0.000000 0.932780
O O21 0.193427 0.853410 0.000000
O O22 0.874225 0.500000 0.879549
#
# Coordination Sequence:
#
# PCOD9491063 Si02
#       8
#    16  16   8  16  16  16  16  16
#     4  10  21  35  52  82 123 154 177 215 271 325
#     4   9  19  36  53  74 105 134 168 220 275 317
#     4   9  16  26  41  62  89 119 149 182 226 288
#     4   9  19  37  60  80 100 139 191 233 269 311
#     4  10  21  31  49  74  98 126 167 207 251 312
#     4   9  19  37  60  81 104 145 195 230 261 311
#     4   9  17  31  50  68  90 122 160 203 250 300
#     4   9  17  29  44  65  93 122 153 193 241 294
#
# _framework density 18.569348999999999
#
# number of rings (size 3 to 8) (size 9 to 14) (size 15 to 20)
#    0.000    2.733    0.667    1.200    0.933    6.667 
#    0.000    2.667    0.000    0.000    0.000    0.933 
#    0.000    0.000    0.000    0.000    0.000    0.000 
#
# Total GULP energy -334133.859827 kJ/mol
# GULP energy per Si atom -5568.897664 kJ/mol
# Density = 1.852708 g / cm^3
# Si number density = 18.569349 Si / 1000 Ang^3
#
#
#
# Elastic Constant Matrix: (Units=GPa)
#
#
# Indices 1 2 3 4 5 6 
#
# 1 55.8880 5.1980 22.0546 0.0000 0.0000 0.0000
# 2 5.1980 48.8283 -11.5056 0.0000 0.0000 0.0000
# 3 22.0546 -11.5056 46.5868 0.0000 0.0000 0.0000
# 4 0.0000 0.0000 0.0000 15.5331 0.0000 0.0000
# 5 0.0000 0.0000 0.0000 0.0000 18.0360 0.0000
# 6 0.0000 0.0000 0.0000 0.0000 0.0000 16.7714
#
#
#
# Elastic Compliance Matrix: (Units=1/GPa)
#
#
# Indices 1 2 3 4 5 6 
#
# 1 0.023265 -0.005385 -0.012344 0.000000 0.000000 0.000000
# 2 -0.005385 0.022992 0.008228 0.000000 0.000000 0.000000
# 3 -0.012344 0.008228 0.029341 0.000000 0.000000 0.000000
# 4 0.000000 0.000000 0.000000 0.064379 0.000000 0.000000
# 5 0.000000 0.000000 0.000000 0.000000 0.055445 0.000000
# 6 0.000000 0.000000 0.000000 0.000000 0.000000 0.059625
#
#
# Mechanical properties :
#
#
# Convention : Reuss Voigt Hill
#
# Bulk Modulus (GPa) = 17.66935 20.31081 18.99008
# Shear Modulus (GPa) = 17.06985 19.10519 18.08752
#
# Velocity S-wave (km/s) = 3.03520 3.21106 3.12437
# Velocity P-wave (km/s) = 4.67111 4.97086 4.82331
#
# Compressibility (1/GPa) = 0.05659519
#
# Stress axis : x y z
#
# Youngs Moduli (GPa) = 42.98315 43.49350 34.08201
#
# Poissons Ratio (x) = 0.23422 0.42070
# Poissons Ratio (y) = 0.23148 -0.28042
# Poissons Ratio (z) = 0.53058 -0.35786
#
# Static dielectric constant tensor:
#      x y z
#    x 1.634180 0.000000 0.000000 
#    y 0.000000 1.682790 0.000000 
#    z 0.000000 0.000000 1.564670 
# 
# From -- ./inp_files/64752.got.cif
#   From: 2010.05.17/outbox.cif.g08.bks.cpg/sg65_33_cif.got.tgz:64752.got - 2010.06.03 17:01:31.
