data_PCOD9491235
_publ_section_title
;
Structure prediction by ZEFSAII (Michael W. Deem and Ramdas Pophale) SiO2 
 PCOD9491235
Probable space group: C M M M
;
_chemical_formula_sum "Si O2"
_cell_formula_units_Z 104
_cell_length_a 7.599448
_cell_length_b 27.279317
_cell_length_c 28.067735
_cell_angle_alpha 90.000000
_cell_angle_beta 90.000000
_cell_angle_gamma 90.000000
_cell_volume 5818.659019
_symmetry_space_group_name_H-M "C M M M"
_symmetry_group_IT_number 65
_symmetry_cell_setting 'orthorhombic'
loop_
_space_group_symop_operation_xyz
x,y,z
-x,-y,z
x,-y,-z
-x,y,-z
-x,-y,-z
x,y,-z
-x,y,z
x,-y,z
1/2+x,1/2+y,z
1/2-x,1/2-y,z
1/2+x,1/2-y,-z
1/2-x,1/2+y,-z
1/2-x,1/2-y,-z
1/2+x,1/2+y,-z
1/2-x,1/2+y,z
1/2+x,1/2-y,z
loop_
_atom_site_type_symbol
_atom_site_label
_atom_site_fract_x
_atom_site_fract_y
_atom_site_fract_z
Si Si1 0.789213 0.304583 0.405632
Si Si2 0.706215 0.553645 0.654169
Si Si3 0.795964 0.657527 0.306207
Si Si4 0.711439 0.808287 0.102601
Si Si5 0.788382 0.692096 0.794234
Si Si6 0.788411 0.691642 0.000000
Si Si7 0.713413 0.093129 0.552358
O O1 0.750000 0.250000 0.422594
O O2 0.718449 0.313654 0.351804
O O3 0.729872 0.350541 0.437363
O O4 0.000000 0.309064 0.403385
O O5 0.500000 0.554837 0.665668
O O6 0.777636 0.500000 0.666677
O O7 0.789631 0.600495 0.679636
O O8 0.725631 0.562102 0.597487
O O9 0.718519 0.667973 0.254275
O O10 0.000000 0.672931 0.303409
O O11 0.500000 0.814308 0.102326
O O12 0.750000 0.750000 0.102746
O O13 0.778453 0.826317 0.154075
O O14 0.778097 0.827457 0.051312
O O15 0.750000 0.750000 0.791060
O O16 0.000000 0.685565 0.795475
O O17 0.750000 0.750000 0.000000
O O18 0.000000 0.685871 0.000000
O O19 0.772345 0.077290 0.500000
O O20 0.500000 0.091767 0.552876
#
# Coordination Sequence:
#
# PCOD9491235 Si02
#       7
#    16  16  16  16  16   8  16
#     4   9  17  28  42  61  84 109 136 163 190 223
#     4  10  21  35  50  68  86 102 125 161 203 244
#     4   9  18  31  45  61  82 108 137 167 199 240
#     4   8  13  20  30  46  70 101 137 173 204 233
#     4   9  16  25  38  58  83 110 141 175 206 236
#     4   8  12  18  28  42  64  98 137 172 203 233
#     4   9  19  35  51  67  88 112 137 162 189 229
#
# _framework density 17.873532999999998
#
# number of rings (size 3 to 8) (size 9 to 14) (size 15 to 20)
#    0.000    3.077    0.000    1.846    0.000    5.231 
#    0.000    1.538    0.000    0.000    0.000    0.000 
#    0.000    0.000    0.000    0.692    0.000   17.000 
#
# Total GULP energy -289489.550793 kJ/mol
# GULP energy per Si atom -5567.106746 kJ/mol
# Density = 1.783285 g / cm^3
# Si number density = 17.873533 Si / 1000 Ang^3
#
#
#
# Elastic Constant Matrix: (Units=GPa)
#
#
# Indices 1 2 3 4 5 6 
#
# 1 38.1383 -12.0898 -1.8183 0.0000 0.0000 0.0000
# 2 -12.0898 36.0172 -4.8250 0.0000 0.0000 0.0000
# 3 -1.8183 -4.8250 117.2222 0.0000 0.0000 0.0000
# 4 0.0000 0.0000 0.0000 7.7327 0.0000 0.0000
# 5 0.0000 0.0000 0.0000 0.0000 2.5715 0.0000
# 6 0.0000 0.0000 0.0000 0.0000 0.0000 13.8935
#
#
#
# Elastic Compliance Matrix: (Units=1/GPa)
#
#
# Indices 1 2 3 4 5 6 
#
# 1 0.029430 0.009995 0.000868 0.000000 0.000000 0.000000
# 2 0.009995 0.031313 0.001444 0.000000 0.000000 0.000000
# 3 0.000868 0.001444 0.008604 0.000000 0.000000 0.000000
# 4 0.000000 0.000000 0.000000 0.129321 0.000000 0.000000
# 5 0.000000 0.000000 0.000000 0.000000 0.388879 0.000000
# 6 0.000000 0.000000 0.000000 0.000000 0.000000 0.071976
#
#
# Mechanical properties :
#
#
# Convention : Reuss Voigt Hill
#
# Bulk Modulus (GPa) = 10.64276 17.10128 13.87202
# Shear Modulus (GPa) = 7.50492 18.84692 13.17592
#
# Velocity S-wave (km/s) = 2.05135 3.25077 2.71804
# Velocity P-wave (km/s) = 3.40266 4.86608 4.19862
#
# Compressibility (1/GPa) = 0.09396055
#
# Stress axis : x y z
#
# Youngs Moduli (GPa) = 33.97875 31.93563 116.22902
#
# Poissons Ratio (x) = -0.31920 -0.10088
# Poissons Ratio (y) = -0.33962 -0.16782
# Poissons Ratio (z) = -0.02949 -0.04611
#
# Static dielectric constant tensor:
#      x y z
#    x 1.664660 0.000000 0.000000 
#    y 0.000000 1.542450 0.000000 
#    z 0.000000 0.000000 1.693570 
# 
# From -- ./inp_files/77104.got.cif
#   From: 2010.05.17/outbox.cif.g08.bks.cpg/sg65_39_cif.got.tgz:77104.got - 2010.06.03 17:01:31.
