data_PCOD9491152
_publ_section_title
;
Structure prediction by ZEFSAII (Michael W. Deem and Ramdas Pophale) SiO2 
 PCOD9491152
Probable space group: C M M M
;
_chemical_formula_sum "Si O2"
_cell_formula_units_Z 104
_cell_length_a 19.394567
_cell_length_b 14.932234
_cell_length_c 20.392204
_cell_angle_alpha 90.000000
_cell_angle_beta 90.000000
_cell_angle_gamma 90.000000
_cell_volume 5905.668186
_symmetry_space_group_name_H-M "C M M M"
_symmetry_group_IT_number 65
_symmetry_cell_setting 'orthorhombic'
loop_
_space_group_symop_operation_xyz
x,y,z
-x,-y,z
x,-y,-z
-x,y,-z
-x,-y,-z
x,y,-z
-x,y,z
x,-y,z
1/2+x,1/2+y,z
1/2-x,1/2-y,z
1/2+x,1/2-y,-z
1/2-x,1/2+y,-z
1/2-x,1/2-y,-z
1/2+x,1/2+y,-z
1/2-x,1/2+y,z
1/2+x,1/2-y,z
loop_
_atom_site_type_symbol
_atom_site_label
_atom_site_fract_x
_atom_site_fract_y
_atom_site_fract_z
Si Si1 0.416576 0.697888 0.423121
Si Si2 0.664604 0.394486 0.800257
Si Si3 0.420638 0.109046 0.073586
Si Si4 0.172187 0.394851 0.805505
Si Si5 0.420041 0.608924 0.927702
Si Si6 0.831964 0.745393 0.693687
Si Si7 0.077744 0.000000 0.579173
O O1 0.402079 0.715103 0.500000
O O2 0.500000 0.700641 0.415902
O O3 0.376991 0.758922 0.371735
O O4 0.391439 0.596425 0.405796
O O5 0.650229 0.500000 0.787498
O O6 0.745829 0.385466 0.815818
O O7 0.622696 0.363860 0.864266
O O8 0.649791 0.332523 0.737817
O O9 0.500000 0.135534 0.085813
O O10 0.369995 0.137684 0.131201
O O11 0.419251 0.000000 0.072946
O O12 0.401377 0.138367 0.000000
O O13 0.157393 0.500000 0.795922
O O14 0.154831 0.338038 0.741498
O O15 0.500000 0.635409 0.921600
O O16 0.418176 0.500000 0.927995
O O17 0.394931 0.637916 0.000000
O O18 0.750000 0.750000 0.679025
O O19 0.071860 0.000000 0.500000
O O20 0.000000 0.000000 0.606584
#
# Coordination Sequence:
#
# PCOD9491152 Si02
#       7
#    16  16  16  16  16  16   8
#     4   9  18  33  54  79 105 131 160 196 240 293
#     4   9  18  31  47  68  95 127 163 199 240 290
#     4   8  14  26  46  70  91 114 153 207 259 297
#     4   9  18  33  49  66  94 129 164 205 247 289
#     4   8  14  26  44  66  94 128 164 200 239 290
#     4  10  21  34  49  73 101 131 164 203 242 292
#     4   7  12  26  48  76 106 128 148 182 232 287
#
# _framework density 17.610201
#
# number of rings (size 3 to 8) (size 9 to 14) (size 15 to 20)
#    0.000    3.308    0.000    1.846    1.077    2.154 
#    0.000    3.846    0.000    5.077    0.000    1.077 
#    0.000    0.000    0.000    0.000    0.000    0.000 
#
# Total GULP energy -289629.167000 kJ/mol
# GULP energy per Si atom -5569.791673 kJ/mol
# Density = 1.757012 g / cm^3
# Si number density = 17.610201 Si / 1000 Ang^3
#
#
#
# Elastic Constant Matrix: (Units=GPa)
#
#
# Indices 1 2 3 4 5 6 
#
# 1 43.0761 26.0524 71.3763 0.0000 0.0000 0.0000
# 2 26.0524 50.7480 40.3295 0.0000 0.0000 0.0000
# 3 71.3763 40.3295 146.9400 0.0000 0.0000 0.0000
# 4 0.0000 0.0000 0.0000 67.5901 0.0000 0.0000
# 5 0.0000 0.0000 0.0000 0.0000 39.9387 0.0000
# 6 0.0000 0.0000 0.0000 0.0000 0.0000 9.1090
#
#
#
# Elastic Compliance Matrix: (Units=1/GPa)
#
#
# Indices 1 2 3 4 5 6 
#
# 1 0.136008 -0.022151 -0.059986 0.000000 0.000000 0.000000
# 2 -0.022151 0.028810 0.002853 0.000000 0.000000 0.000000
# 3 -0.059986 0.002853 0.035161 0.000000 0.000000 0.000000
# 4 0.000000 0.000000 0.000000 0.014795 0.000000 0.000000
# 5 0.000000 0.000000 0.000000 0.000000 0.025038 0.000000
# 6 0.000000 0.000000 0.000000 0.000000 0.000000 0.109782
#
#
# Mechanical properties :
#
#
# Convention : Reuss Voigt Hill
#
# Bulk Modulus (GPa) = 24.14913 57.36449 40.75681
# Shear Modulus (GPa) = 9.57916 30.19461 19.88688
#
# Velocity S-wave (km/s) = 2.33481 4.14528 3.36412
# Velocity P-wave (km/s) = 4.58382 7.45362 6.18740
#
# Compressibility (1/GPa) = 0.04140936
#
# Stress axis : x y z
#
# Youngs Moduli (GPa) = 7.35251 34.71044 28.44057
#
# Poissons Ratio (x) = 0.76887 1.70605
# Poissons Ratio (y) = 0.16286 -0.08113
# Poissons Ratio (z) = 0.44105 -0.09902
#
# Static dielectric constant tensor:
#      x y z
#    x 1.583500 0.000000 0.000000 
#    y 0.000000 1.657920 0.000000 
#    z 0.000000 0.000000 1.579820 
# 
# From -- ./inp_files/54623.got.cif
#   From: 2010.05.17/outbox.cif.g08.bks.cpg/sg65_28_cif.got.tgz:54623.got - 2010.06.03 17:01:31.
