data_PCOD9491290
_publ_section_title
;
Structure prediction by ZEFSAII (Michael W. Deem and Ramdas Pophale) SiO2 
 PCOD9491290
Probable space group: C M M M
;
_chemical_formula_sum "Si O2"
_cell_formula_units_Z 112
_cell_length_a 26.940387
_cell_length_b 13.742988
_cell_length_c 16.332023
_cell_angle_alpha 90.000000
_cell_angle_beta 90.000000
_cell_angle_gamma 90.000000
_cell_volume 6046.791310
_symmetry_space_group_name_H-M "C M M M"
_symmetry_group_IT_number 65
_symmetry_cell_setting 'orthorhombic'
loop_
_space_group_symop_operation_xyz
x,y,z
-x,-y,z
x,-y,-z
-x,y,-z
-x,-y,-z
x,y,-z
-x,y,z
x,-y,z
1/2+x,1/2+y,z
1/2-x,1/2-y,z
1/2+x,1/2-y,-z
1/2-x,1/2+y,-z
1/2-x,1/2-y,-z
1/2+x,1/2+y,-z
1/2-x,1/2+y,z
1/2+x,1/2-y,z
loop_
_atom_site_type_symbol
_atom_site_label
_atom_site_fract_x
_atom_site_fract_y
_atom_site_fract_z
Si Si1 0.720097 0.887450 0.407425
Si Si2 0.386990 0.881694 0.091475
Si Si3 0.555157 0.390305 0.402220
Si Si4 0.706842 0.615119 0.749300
Si Si5 0.226358 0.617507 0.906054
Si Si6 0.943942 0.616934 0.751439
Si Si7 0.364350 0.755609 0.337017
O O1 0.740735 0.874372 0.500000
O O2 0.758491 0.877095 0.332175
O O3 0.676635 0.810411 0.391307
O O4 0.702012 0.000000 0.402884
O O5 0.330419 0.850898 0.111128
O O6 0.427663 0.852749 0.157224
O O7 0.386232 0.000000 0.091233
O O8 0.398596 0.848730 0.000000
O O9 0.552563 0.395120 0.500000
O O10 0.500000 0.359268 0.373097
O O11 0.564231 0.500000 0.371291
O O12 0.599825 0.320122 0.381338
O O13 0.692391 0.500000 0.755109
O O14 0.736986 0.642038 0.831711
O O15 0.663373 0.691618 0.732094
O O16 0.225183 0.500000 0.906161
O O17 0.239636 0.645490 0.000000
O O18 0.942244 0.500000 0.746301
O O19 0.901223 0.662477 0.696613
O O20 0.000000 0.647582 0.731884
#
# Coordination Sequence:
#
# PCOD9491290 Si02
#       7
#    16  16  16  16  16  16  16
#     4  10  22  38  54  75 106 142 177 213 253 301
#     4   8  14  27  49  73  96 128 170 212 254 300
#     4   9  19  36  56  77 100 127 165 217 271 314
#     4  10  21  35  52  77 108 140 175 214 256 306
#     4   8  14  28  51  76 103 136 171 208 252 302
#     4  10  21  35  51  73 101 133 169 211 259 308
#     4  12  21  33  53  77 104 136 173 210 254 309
#
# _framework density 18.522220000000001
#
# number of rings (size 3 to 8) (size 9 to 14) (size 15 to 20)
#    0.000    2.429    0.000    4.286    0.000    4.286 
#    0.000    3.571    0.000    3.429    0.000    6.000 
#    0.000    0.000    0.000   12.857    0.000    2.571 
#
# Total GULP energy -312185.710252 kJ/mol
# GULP energy per Si atom -5574.744826 kJ/mol
# Density = 1.848006 g / cm^3
# Si number density = 18.522220 Si / 1000 Ang^3
#
#
#
# Elastic Constant Matrix: (Units=GPa)
#
#
# Indices 1 2 3 4 5 6 
#
# 1 61.0807 32.4478 27.8218 0.0000 0.0000 0.0000
# 2 32.4478 74.6791 18.6020 0.0000 0.0000 0.0000
# 3 27.8218 18.6020 76.4178 0.0000 0.0000 0.0000
# 4 0.0000 0.0000 0.0000 -6.0402 0.0000 0.0000
# 5 0.0000 0.0000 0.0000 0.0000 23.6344 0.0000
# 6 0.0000 0.0000 0.0000 0.0000 0.0000 33.1101
#
#
#
# Elastic Compliance Matrix: (Units=1/GPa)
#
#
# Indices 1 2 3 4 5 6 
#
# 1 0.024065 -0.008808 -0.006617 0.000000 0.000000 0.000000
# 2 -0.008808 0.017479 -0.001048 0.000000 0.000000 0.000000
# 3 -0.006617 -0.001048 0.015750 0.000000 0.000000 0.000000
# 4 0.000000 0.000000 0.000000 -0.165558 0.000000 0.000000
# 5 0.000000 0.000000 0.000000 0.000000 0.042311 0.000000
# 6 0.000000 0.000000 0.000000 0.000000 0.000000 0.030202
#
#
# Mechanical properties :
#
#
# Convention : Reuss Voigt Hill
#
# Bulk Modulus (GPa) = 41.07212 41.10231 41.08722
# Shear Modulus (GPa) = 941.31745 19.02793 480.17269
#
# Velocity S-wave (km/s) = 22.56797 3.20863 16.11844
# Velocity P-wave (km/s) = 26.48220 5.99717 19.19991
#
# Compressibility (1/GPa) = 0.02434741
#
# Stress axis : x y z
#
# Youngs Moduli (GPa) = 41.55427 57.21265 63.49084
#
# Poissons Ratio (x) = 0.50392 0.42014
# Poissons Ratio (y) = 0.36600 0.06654
# Poissons Ratio (z) = 0.27498 0.05996
#
# Static dielectric constant tensor:
#      x y z
#    x 1.631660 0.000000 0.000000 
#    y 0.000000 1.671960 0.000000 
#    z 0.000000 0.000000 1.661820 
# 
# From -- ./inp_files/47071.got.cif
#   From: 2010.05.17/outbox.cif.g08.bks.cpg/sg65_24_cif.got.tgz:47071.got - 2010.06.03 17:01:31.
