data_PCOD9491853
_publ_section_title
;
Structure prediction by ZEFSAII (Michael W. Deem and Ramdas Pophale) SiO2 
 PCOD9491853
Probable space group: C M M M
;
_chemical_formula_sum "Si O2"
_cell_formula_units_Z 72
_cell_length_a 19.261872
_cell_length_b 24.096955
_cell_length_c 7.882255
_cell_angle_alpha 90.000000
_cell_angle_beta 90.000000
_cell_angle_gamma 90.000000
_cell_volume 3658.568071
_symmetry_space_group_name_H-M "C M M M"
_symmetry_group_IT_number 65
_symmetry_cell_setting 'orthorhombic'
loop_
_space_group_symop_operation_xyz
x,y,z
-x,-y,z
x,-y,-z
-x,y,-z
-x,-y,-z
x,y,-z
-x,y,z
x,-y,z
1/2+x,1/2+y,z
1/2-x,1/2-y,z
1/2+x,1/2-y,-z
1/2-x,1/2+y,-z
1/2-x,1/2-y,-z
1/2+x,1/2+y,-z
1/2-x,1/2+y,z
1/2+x,1/2-y,z
loop_
_atom_site_type_symbol
_atom_site_label
_atom_site_fract_x
_atom_site_fract_y
_atom_site_fract_z
Si Si1 0.420045 0.656680 0.294529
Si Si2 0.687310 0.563884 0.705985
Si Si3 0.417627 0.062753 0.000000
Si Si4 0.830200 0.264110 0.200052
Si Si5 0.662152 0.113813 0.308112
O O1 0.420673 0.655268 0.500000
O O2 0.500000 0.656356 0.236173
O O3 0.375540 0.603314 0.235143
O O4 0.379296 0.712332 0.242336
O O5 0.683406 0.561978 0.500000
O O6 0.685538 0.500000 0.766350
O O7 0.760271 0.594139 0.744608
O O8 0.389659 0.090601 0.169556
O O9 0.500000 0.063654 0.000000
O O10 0.391544 0.000000 0.000000
O O11 0.750000 0.250000 0.235021
O O12 0.845003 0.319976 0.301568
O O13 0.836643 0.276614 0.000000
O O14 0.650171 0.093604 0.500000
#
# Coordination Sequence:
#
# PCOD9491853 Si02
#       5
#    16  16   8  16  16
#     4  10  21  36  57  88 124 162 203 251 311 373
#     4   9  18  34  59  90 122 160 206 253 303 366
#     4  11  26  46  65  92 131 165 203 264 326 380
#     4  11  22  38  62  89 120 162 209 260 319 376
#     4  11  22  40  68  95 124 164 213 262 313 379
#
# _framework density 19.679829999999999
#
# number of rings (size 3 to 8) (size 9 to 14) (size 15 to 20)
#    0.000    1.667    3.333    1.333    0.000    4.444 
#    0.000    3.333    0.000    0.000    0.000    1.556 
#    0.000    0.000    0.000    0.000    0.000    0.000 
#
# Total GULP energy -201090.674177 kJ/mol
# GULP energy per Si atom -5585.852060 kJ/mol
# Density = 1.963504 g / cm^3
# Si number density = 19.679830 Si / 1000 Ang^3
#
#
#
# Elastic Constant Matrix: (Units=GPa)
#
#
# Indices 1 2 3 4 5 6 
#
# 1 90.0371 57.3617 18.9060 0.0000 0.0000 0.0000
# 2 57.3617 151.3002 19.8027 0.0000 0.0000 0.0000
# 3 18.9060 19.8027 59.8704 0.0000 0.0000 0.0000
# 4 0.0000 0.0000 0.0000 -38.8213 0.0000 0.0000
# 5 0.0000 0.0000 0.0000 0.0000 29.4798 0.0000
# 6 0.0000 0.0000 0.0000 0.0000 0.0000 21.2115
#
#
#
# Elastic Compliance Matrix: (Units=1/GPa)
#
#
# Indices 1 2 3 4 5 6 
#
# 1 0.015147 -0.005348 -0.003014 0.000000 0.000000 0.000000
# 2 -0.005348 0.008797 -0.001221 0.000000 0.000000 0.000000
# 3 -0.003014 -0.001221 0.018058 0.000000 0.000000 0.000000
# 4 0.000000 0.000000 0.000000 -0.025759 0.000000 0.000000
# 5 0.000000 0.000000 0.000000 0.000000 0.033922 0.000000
# 6 0.000000 0.000000 0.000000 0.000000 0.000000 0.047144
#
#
# Mechanical properties :
#
#
# Convention : Reuss Voigt Hill
#
# Bulk Modulus (GPa) = 43.79080 54.81649 49.30364
# Shear Modulus (GPa) = 40.29466 16.04984 28.17225
#
# Velocity S-wave (km/s) = 4.52985 2.85888 3.78766
# Velocity P-wave (km/s) = 7.04694 6.22994 6.65100
#
# Compressibility (1/GPa) = 0.02283585
#
# Stress axis : x y z
#
# Youngs Moduli (GPa) = 66.02167 113.67912 55.37612
#
# Poissons Ratio (x) = 0.60795 0.16691
# Poissons Ratio (y) = 0.35308 0.06760
# Poissons Ratio (z) = 0.19900 0.13878
#
# Static dielectric constant tensor:
#      x y z
#    x 1.659420 0.000000 0.000000 
#    y 0.000000 1.706760 0.000000 
#    z 0.000000 0.000000 1.705820 
# 
# From -- ./inp_files/7219.got.cif
#   From: 2010.05.17/outbox.cif.g08.bks.cpg/sg65_4_cif.got.tgz:7219.got - 2010.06.03 17:01:31.
