data_PCOD9491408
_publ_section_title
;
Structure prediction by ZEFSAII (Michael W. Deem and Ramdas Pophale) SiO2 
 PCOD9491408
Probable space group: C M M M
;
_chemical_formula_sum "Si O2"
_cell_formula_units_Z 64
_cell_length_a 13.491118
_cell_length_b 13.348792
_cell_length_c 18.278497
_cell_angle_alpha 90.000000
_cell_angle_beta 90.000000
_cell_angle_gamma 90.000000
_cell_volume 3291.776865
_symmetry_space_group_name_H-M "C M M M"
_symmetry_group_IT_number 65
_symmetry_cell_setting 'orthorhombic'
loop_
_space_group_symop_operation_xyz
x,y,z
-x,-y,z
x,-y,-z
-x,y,-z
-x,-y,-z
x,y,-z
-x,y,z
x,-y,z
1/2+x,1/2+y,z
1/2-x,1/2-y,z
1/2+x,1/2-y,-z
1/2-x,1/2+y,-z
1/2-x,1/2-y,-z
1/2+x,1/2+y,-z
1/2-x,1/2+y,z
1/2+x,1/2-y,z
loop_
_atom_site_type_symbol
_atom_site_label
_atom_site_fract_x
_atom_site_fract_y
_atom_site_fract_z
Si Si1 0.615436 0.619711 0.585053
Si Si2 0.250000 0.250000 0.690588
Si Si3 0.619371 0.193409 0.821114
Si Si4 0.620273 0.000000 0.083739
Si Si5 0.879576 0.113837 0.916587
O O1 0.635708 0.645092 0.500000
O O2 0.500000 0.644054 0.599982
O O3 0.626071 0.500000 0.592569
O O4 0.686585 0.676782 0.639841
O O5 0.324820 0.191251 0.744254
O O6 0.500000 0.191076 0.811417
O O7 0.645947 0.298143 0.860948
O O8 0.647334 0.100702 0.873124
O O9 0.500000 0.000000 0.081106
O O10 0.654696 0.000000 0.000000
O O11 0.000000 0.112470 0.917892
O O12 0.848730 0.000000 0.897606
O O13 0.847957 0.136666 0.000000
#
# Coordination Sequence:
#
# PCOD9491408 Si02
#       5
#    16   8  16   8  16
#     4   9  20  41  67  92 119 156 198 234 281 358
#     4  12  23  34  59  90 128 150 186 238 309 348
#     4  10  21  35  53  81 114 152 196 242 296 354
#     4   9  18  36  58  72 100 157 212 250 286 339
#     4   8  14  28  51  75 102 142 194 249 299 345
#
# _framework density 19.442388000000001
#
# number of rings (size 3 to 8) (size 9 to 14) (size 15 to 20)
#    0.000    2.625    0.000    3.375    1.750    4.000 
#    0.000    5.000    0.000    0.000    0.000    5.250 
#    0.000    0.000    0.000    0.000    0.000    0.000 
#
# Total GULP energy -178861.875862 kJ/mol
# GULP energy per Si atom -5589.433621 kJ/mol
# Density = 1.939814 g / cm^3
# Si number density = 19.442388 Si / 1000 Ang^3
#
#
#
# Elastic Constant Matrix: (Units=GPa)
#
#
# Indices 1 2 3 4 5 6 
#
# 1 107.9747 59.0832 87.8308 0.0000 0.0000 0.0000
# 2 59.0832 118.3045 98.0089 0.0000 0.0000 0.0000
# 3 87.8308 98.0089 162.9638 0.0000 0.0000 0.0000
# 4 0.0000 0.0000 0.0000 25.3645 0.0000 0.0000
# 5 0.0000 0.0000 0.0000 0.0000 40.5170 0.0000
# 6 0.0000 0.0000 0.0000 0.0000 0.0000 35.4561
#
#
#
# Elastic Compliance Matrix: (Units=1/GPa)
#
#
# Indices 1 2 3 4 5 6 
#
# 1 0.016673 -0.001758 -0.007929 0.000000 0.000000 0.000000
# 2 -0.001758 0.017032 -0.009295 0.000000 0.000000 0.000000
# 3 -0.007929 -0.009295 0.016000 0.000000 0.000000 0.000000
# 4 0.000000 0.000000 0.000000 0.039425 0.000000 0.000000
# 5 0.000000 0.000000 0.000000 0.000000 0.024681 0.000000
# 6 0.000000 0.000000 0.000000 0.000000 0.000000 0.028204
#
#
# Mechanical properties :
#
#
# Convention : Reuss Voigt Hill
#
# Bulk Modulus (GPa) = 85.17978 97.67653 91.42815
# Shear Modulus (GPa) = 27.18979 29.88886 28.53933
#
# Velocity S-wave (km/s) = 3.74368 3.92510 3.83546
# Velocity P-wave (km/s) = 7.91160 8.41961 8.16956
#
# Compressibility (1/GPa) = 0.01173988
#
# Stress axis : x y z
#
# Youngs Moduli (GPa) = 59.97728 58.71408 62.50055
#
# Poissons Ratio (x) = 0.10324 0.49554
# Poissons Ratio (y) = 0.10547 0.58097
# Poissons Ratio (z) = 0.47553 0.54577
#
# Static dielectric constant tensor:
#      x y z
#    x 1.743230 0.000000 0.000000 
#    y 0.000000 1.647570 0.000000 
#    z 0.000000 0.000000 1.640760 
# 
# From -- ./inp_files/50902.got.cif
#   From: 2010.05.17/outbox.cif.g08.bks.cpg/sg65_26_cif.got.tgz:50902.got - 2010.06.03 17:01:31.
