data_PCOD9491658
_publ_section_title
;
Structure prediction by ZEFSAII (Michael W. Deem and Ramdas Pophale) SiO2 
 PCOD9491658
Probable space group: C M M M
;
_chemical_formula_sum "Si O2"
_cell_formula_units_Z 80
_cell_length_a 18.904288
_cell_length_b 7.750600
_cell_length_c 26.576653
_cell_angle_alpha 90.000000
_cell_angle_beta 90.000000
_cell_angle_gamma 90.000000
_cell_volume 3893.999891
_symmetry_space_group_name_H-M "C M M M"
_symmetry_group_IT_number 65
_symmetry_cell_setting 'orthorhombic'
loop_
_space_group_symop_operation_xyz
x,y,z
-x,-y,z
x,-y,-z
-x,y,-z
-x,-y,-z
x,y,-z
-x,y,z
x,-y,z
1/2+x,1/2+y,z
1/2-x,1/2-y,z
1/2+x,1/2-y,-z
1/2-x,1/2+y,-z
1/2-x,1/2-y,-z
1/2+x,1/2+y,-z
1/2-x,1/2+y,z
1/2+x,1/2-y,z
loop_
_atom_site_type_symbol
_atom_site_label
_atom_site_fract_x
_atom_site_fract_y
_atom_site_fract_z
Si Si1 0.081546 0.288436 0.847224
Si Si2 0.668278 0.207590 0.943540
Si Si3 0.920251 0.793490 0.650971
Si Si4 0.167498 0.705067 0.250053
Si Si5 0.668264 0.707914 0.443455
O O1 0.082579 0.500000 0.847351
O O2 0.117669 0.229964 0.899154
O O3 0.127291 0.227763 0.799551
O O4 0.000000 0.235576 0.843165
O O5 0.750000 0.250000 0.932244
O O6 0.662175 0.000000 0.944928
O O7 0.652332 0.272817 0.000000
O O8 0.872223 0.761991 0.699551
O O9 0.882140 0.725503 0.600658
O O10 0.000000 0.725828 0.657557
O O11 0.925028 0.000000 0.645225
O O12 0.162258 0.500000 0.248309
O O13 0.250000 0.750000 0.250374
O O14 0.652177 0.771846 0.500000
O O15 0.662315 0.500000 0.444556
O O16 0.750000 0.750000 0.432277
#
# Coordination Sequence:
#
# PCOD9491658 Si02
#       5
#    16  16  16  16  16
#     4   9  18  32  50  74 102 130 164 207 253 300
#     4   9  17  30  50  74  99 129 165 205 247 293
#     4  10  21  36  54  78 107 136 169 211 256 303
#     4  11  22  36  55  76 101 135 173 212 255 304
#     4   9  18  33  53  76 102 134 171 209 250 297
#
# _framework density 20.544429000000001
#
# number of rings (size 3 to 8) (size 9 to 14) (size 15 to 20)
#    0.000    2.400    0.000    2.400    0.000    4.400 
#    0.000    5.000    0.000    3.000    0.000    7.000 
#    0.000    0.000    0.000    0.000    0.000    0.000 
#
# Total GULP energy -223366.605490 kJ/mol
# GULP energy per Si atom -5584.165137 kJ/mol
# Density = 2.049767 g / cm^3
# Si number density = 20.544429 Si / 1000 Ang^3
#
#
#
# Elastic Constant Matrix: (Units=GPa)
#
#
# Indices 1 2 3 4 5 6 
#
# 1 198.7640 1.8451 148.5753 0.0000 0.0000 0.0000
# 2 1.8451 31.0172 6.7014 0.0000 0.0000 0.0000
# 3 148.5753 6.7014 189.8309 0.0000 0.0000 0.0000
# 4 0.0000 0.0000 0.0000 19.6635 0.0000 0.0000
# 5 0.0000 0.0000 0.0000 0.0000 -1.9236 0.0000
# 6 0.0000 0.0000 0.0000 0.0000 0.0000 15.3710
#
#
#
# Elastic Compliance Matrix: (Units=1/GPa)
#
#
# Indices 1 2 3 4 5 6 
#
# 1 0.012180 0.001345 -0.009580 0.000000 0.000000 0.000000
# 2 0.001345 0.032637 -0.002205 0.000000 0.000000 0.000000
# 3 -0.009580 -0.002205 0.012844 0.000000 0.000000 0.000000
# 4 0.000000 0.000000 0.000000 0.050856 0.000000 0.000000
# 5 0.000000 0.000000 0.000000 0.000000 -0.519862 0.000000
# 6 0.000000 0.000000 0.000000 0.000000 0.000000 0.065058
#
#
# Mechanical properties :
#
#
# Convention : Reuss Voigt Hill
#
# Bulk Modulus (GPa) = 27.18856 81.53952 54.36404
# Shear Modulus (GPa) = -15.96686 24.12154 4.07734
#
# Velocity S-wave (km/s) = -2.79083 3.43025 1.41030
# Velocity P-wave (km/s) = 1.69640 7.44744 5.40103
#
# Compressibility (1/GPa) = 0.03678018
#
# Stress axis : x y z
#
# Youngs Moduli (GPa) = 82.10278 30.64051 77.85772
#
# Poissons Ratio (x) = -0.04122 0.74590
# Poissons Ratio (y) = -0.11045 0.17168
# Poissons Ratio (z) = 0.78657 0.06756
#
# Static dielectric constant tensor:
#      x y z
#    x 1.680370 0.000000 0.000000 
#    y 0.000000 1.767230 0.000000 
#    z 0.000000 0.000000 1.733270 
# 
# From -- ./inp_files/72734.got.cif
#   From: 2010.05.17/outbox.cif.g08.bks.cpg/sg65_37_cif.got.tgz:72734.got - 2010.06.03 17:01:31.
