data_PCOD9491345
_publ_section_title
;
Structure prediction by ZEFSAII (Michael W. Deem and Ramdas Pophale) SiO2 
 PCOD9491345
Probable space group: C M M M
;
_chemical_formula_sum "Si O2"
_cell_formula_units_Z 104
_cell_length_a 14.973086
_cell_length_b 16.574956
_cell_length_c 19.525998
_cell_angle_alpha 90.000000
_cell_angle_beta 90.000000
_cell_angle_gamma 90.000000
_cell_volume 4845.927850
_symmetry_space_group_name_H-M "C M M M"
_symmetry_group_IT_number 65
_symmetry_cell_setting 'orthorhombic'
loop_
_space_group_symop_operation_xyz
x,y,z
-x,-y,z
x,-y,-z
-x,y,-z
-x,-y,-z
x,y,-z
-x,y,z
x,-y,z
1/2+x,1/2+y,z
1/2-x,1/2-y,z
1/2+x,1/2-y,-z
1/2-x,1/2+y,-z
1/2-x,1/2-y,-z
1/2+x,1/2+y,-z
1/2-x,1/2+y,z
1/2+x,1/2-y,z
loop_
_atom_site_type_symbol
_atom_site_label
_atom_site_fract_x
_atom_site_fract_y
_atom_site_fract_z
Si Si1 0.896924 0.500000 0.416491
Si Si2 0.145102 0.249055 0.285622
Si Si3 0.608005 0.337859 0.923153
Si Si4 0.392142 0.150389 0.076372
Si Si5 0.144540 0.586989 0.221766
Si Si6 0.391752 0.176101 0.421813
Si Si7 0.853013 0.088201 0.781247
O O1 0.898219 0.500000 0.500000
O O2 0.857474 0.587142 0.397906
O O3 0.000000 0.500000 0.394054
O O4 0.250000 0.250000 0.266674
O O5 0.105059 0.331250 0.253789
O O6 0.136316 0.258095 0.366877
O O7 0.106626 0.166309 0.256138
O O8 0.500000 0.340126 0.920851
O O9 0.634924 0.244111 0.912546
O O10 0.642883 0.392092 0.861936
O O11 0.635406 0.361543 0.000000
O O12 0.500000 0.148946 0.076362
O O13 0.361465 0.097930 0.139948
O O14 0.362624 0.125999 0.000000
O O15 0.105600 0.500000 0.241957
O O16 0.249180 0.584782 0.239716
O O17 0.363126 0.190819 0.500000
O O18 0.500000 0.171806 0.422388
O O19 0.892438 0.000000 0.767649
#
# Coordination Sequence:
#
# PCOD9491345 Si02
#       7
#     8  16  16  16  16  16  16
#     4   7  12  26  48  78 112 136 156 190 240 295
#     4  10  21  36  53  76 106 139 170 212 256 299
#     4   9  18  33  53  76 100 129 171 222 269 309
#     4   9  18  33  52  74 103 137 172 212 257 307
#     4  10  21  35  52  76 104 136 175 210 250 308
#     4   9  18  33  55  82 110 138 168 204 248 303
#     4  10  21  37  54  73 101 136 175 218 262 306
#
# _framework density 21.461319
#
# number of rings (size 3 to 8) (size 9 to 14) (size 15 to 20)
#    0.000    2.692    1.538    1.846    1.077    3.385 
#    0.000    4.615    0.000    0.462    0.000    1.077 
#    0.000    0.000    0.000    0.000    0.000    0.000 
#
# Total GULP energy -290195.127906 kJ/mol
# GULP energy per Si atom -5580.675537 kJ/mol
# Density = 2.141247 g / cm^3
# Si number density = 21.461319 Si / 1000 Ang^3
#
#
#
# Elastic Constant Matrix: (Units=GPa)
#
#
# Indices 1 2 3 4 5 6 
#
# 1 51.1469 9.4674 -4.5359 0.0000 0.0000 0.0000
# 2 9.4674 172.0216 74.3927 0.0000 0.0000 0.0000
# 3 -4.5359 74.3927 100.1539 0.0000 0.0000 0.0000
# 4 0.0000 0.0000 0.0000 17.7835 0.0000 0.0000
# 5 0.0000 0.0000 0.0000 0.0000 23.5241 0.0000
# 6 0.0000 0.0000 0.0000 0.0000 0.0000 0.5671
#
#
#
# Elastic Compliance Matrix: (Units=1/GPa)
#
#
# Indices 1 2 3 4 5 6 
#
# 1 0.020190 -0.002220 0.002563 0.000000 0.000000 0.000000
# 2 -0.002220 0.008808 -0.006643 0.000000 0.000000 0.000000
# 3 0.002563 -0.006643 0.015035 0.000000 0.000000 0.000000
# 4 0.000000 0.000000 0.000000 0.056232 0.000000 0.000000
# 5 0.000000 0.000000 0.000000 0.000000 0.042510 0.000000
# 6 0.000000 0.000000 0.000000 0.000000 0.000000 1.763486
#
#
# Mechanical properties :
#
#
# Convention : Reuss Voigt Hill
#
# Bulk Modulus (GPa) = 31.81300 53.55231 42.68266
# Shear Modulus (GPa) = 2.59156 24.64148 13.61652
#
# Velocity S-wave (km/s) = 1.10008 3.39216 2.52160
# Velocity P-wave (km/s) = 4.05822 6.35212 5.33004
#
# Compressibility (1/GPa) = 0.03143369
#
# Stress axis : x y z
#
# Youngs Moduli (GPa) = 49.53028 113.52934 66.51077
#
# Poissons Ratio (x) = 0.25199 -0.17047
# Poissons Ratio (y) = 0.10994 0.44184
# Poissons Ratio (z) = -0.12695 0.75420
#
# Static dielectric constant tensor:
#      x y z
#    x 1.778020 0.000000 0.000000 
#    y 0.000000 1.830570 0.000000 
#    z 0.000000 0.000000 1.781680 
# 
# From -- ./inp_files/55845.got.cif
#   From: 2010.05.17/outbox.cif.g08.bks.cpg/sg65_28_cif.got.tgz:55845.got - 2010.06.03 17:01:31.
