data_PCOD9491510
_publ_section_title
;
Structure prediction by ZEFSAII (Michael W. Deem and Ramdas Pophale) SiO2 
 PCOD9491510
Probable space group: C M M M
;
_chemical_formula_sum "Si O2"
_cell_formula_units_Z 88
_cell_length_a 18.398548
_cell_length_b 7.642893
_cell_length_c 30.393883
_cell_angle_alpha 90.000000
_cell_angle_beta 90.000000
_cell_angle_gamma 90.000000
_cell_volume 4273.931104
_symmetry_space_group_name_H-M "C M M M"
_symmetry_group_IT_number 65
_symmetry_cell_setting 'orthorhombic'
loop_
_space_group_symop_operation_xyz
x,y,z
-x,-y,z
x,-y,-z
-x,y,-z
-x,-y,-z
x,y,-z
-x,y,z
x,-y,z
1/2+x,1/2+y,z
1/2-x,1/2-y,z
1/2+x,1/2-y,-z
1/2-x,1/2+y,-z
1/2-x,1/2-y,-z
1/2+x,1/2+y,-z
1/2-x,1/2+y,z
1/2+x,1/2-y,z
loop_
_atom_site_type_symbol
_atom_site_label
_atom_site_fract_x
_atom_site_fract_y
_atom_site_fract_z
Si Si1 0.663442 0.289377 0.952640
Si Si2 0.163651 0.789744 0.858006
Si Si3 0.334867 0.207474 0.587441
Si Si4 0.915901 0.285481 0.500000
Si Si5 0.664358 0.289136 0.762305
Si Si6 0.081645 0.791423 0.323519
O O1 0.655174 0.500000 0.952675
O O2 0.750000 0.250000 0.952608
O O3 0.634815 0.223742 0.905293
O O4 0.634868 0.223889 0.000000
O O5 0.250000 0.750000 0.857938
O O6 0.137564 0.724418 0.810341
O O7 0.154640 0.000000 0.858249
O O8 0.250000 0.250000 0.586514
O O9 0.375415 0.276843 0.544023
O O10 0.371765 0.265355 0.632667
O O11 0.342396 0.000000 0.586121
O O12 0.914091 0.500000 0.500000
O O13 0.000000 0.233616 0.500000
O O14 0.657748 0.500000 0.763015
O O15 0.750000 0.250000 0.757777
O O16 0.621177 0.220792 0.720110
O O17 0.000000 0.721380 0.328866
O O18 0.076360 0.000000 0.317402
#
# Coordination Sequence:
#
# PCOD9491510 Si02
#       6
#    16  16  16   8  16  16
#     4   8  12  17  26  42  66  96 129 166 209 258
#     4   8  13  21  33  50  73 102 137 174 215 266
#     4  11  22  37  58  81 106 135 167 201 238 282
#     4   9  19  36  57  81 108 137 168 201 236 276
#     4   9  17  29  45  64  87 117 151 188 231 279
#     4  10  21  36  52  72  99 128 161 203 247 289
#
# _framework density 20.589942000000001
#
# number of rings (size 3 to 8) (size 9 to 14) (size 15 to 20)
#    0.000    2.818    0.000    1.909    0.000    3.273 
#    0.000    1.364    0.000    3.273    0.000    0.000 
#    0.000    0.727    0.000   10.182    0.000    3.455 
#
# Total GULP energy -245165.163402 kJ/mol
# GULP energy per Si atom -5571.935532 kJ/mol
# Density = 2.054308 g / cm^3
# Si number density = 20.589942 Si / 1000 Ang^3
#
#
#
# Elastic Constant Matrix: (Units=GPa)
#
#
# Indices 1 2 3 4 5 6 
#
# 1 96.8091 -1.0814 95.4822 0.0000 0.0000 0.0000
# 2 -1.0814 43.7288 6.8565 0.0000 0.0000 0.0000
# 3 95.4822 6.8565 275.9858 0.0000 0.0000 0.0000
# 4 0.0000 0.0000 0.0000 5.8012 0.0000 0.0000
# 5 0.0000 0.0000 0.0000 0.0000 -7.5522 0.0000
# 6 0.0000 0.0000 0.0000 0.0000 0.0000 0.3828
#
#
#
# Elastic Compliance Matrix: (Units=1/GPa)
#
#
# Indices 1 2 3 4 5 6 
#
# 1 0.015748 0.001249 -0.005479 0.000000 0.000000 0.000000
# 2 0.001249 0.023057 -0.001005 0.000000 0.000000 0.000000
# 3 -0.005479 -0.001005 0.005544 0.000000 0.000000 0.000000
# 4 0.000000 0.000000 0.000000 0.172378 0.000000 0.000000
# 5 0.000000 0.000000 0.000000 0.000000 -0.132411 0.000000
# 6 0.000000 0.000000 0.000000 0.000000 0.000000 2.612476
#
#
# Mechanical properties :
#
#
# Convention : Reuss Voigt Hill
#
# Bulk Modulus (GPa) = 29.51819 68.78203 49.15011
# Shear Modulus (GPa) = 1.83921 20.74411 11.29166
#
# Velocity S-wave (km/s) = 0.94615 3.17754 2.34435
# Velocity P-wave (km/s) = 3.94474 6.85131 5.59023
#
# Compressibility (1/GPa) = 0.03387742
#
# Stress axis : x y z
#
# Youngs Moduli (GPa) = 63.50156 43.37146 180.37639
#
# Poissons Ratio (x) = -0.05415 0.98832
# Poissons Ratio (y) = -0.07929 0.18124
# Poissons Ratio (z) = 0.34794 0.04358
#
# Static dielectric constant tensor:
#      x y z
#    x 1.675220 0.000000 0.000000 
#    y 0.000000 1.765750 0.000000 
#    z 0.000000 0.000000 1.810320 
# 
# From -- ./inp_files/77948.got.cif
#   From: 2010.05.17/outbox.cif.g08.bks.cpg/sg65_39_cif.got.tgz:77948.got - 2010.06.03 17:01:31.
