data_PCOD9491713
_publ_section_title
;
Structure prediction by ZEFSAII (Michael W. Deem and Ramdas Pophale) SiO2 
 PCOD9491713
Probable space group: C M M M
;
_chemical_formula_sum "Si O2"
_cell_formula_units_Z 88
_cell_length_a 25.274712
_cell_length_b 20.329436
_cell_length_c 7.404861
_cell_angle_alpha 90.000000
_cell_angle_beta 90.000000
_cell_angle_gamma 90.000000
_cell_volume 3804.770418
_symmetry_space_group_name_H-M "C M M M"
_symmetry_group_IT_number 65
_symmetry_cell_setting 'orthorhombic'
loop_
_space_group_symop_operation_xyz
x,y,z
-x,-y,z
x,-y,-z
-x,y,-z
-x,-y,-z
x,y,-z
-x,y,z
x,-y,z
1/2+x,1/2+y,z
1/2-x,1/2-y,z
1/2+x,1/2-y,-z
1/2-x,1/2+y,-z
1/2-x,1/2-y,-z
1/2+x,1/2+y,-z
1/2-x,1/2+y,z
1/2+x,1/2-y,z
loop_
_atom_site_type_symbol
_atom_site_label
_atom_site_fract_x
_atom_site_fract_y
_atom_site_fract_z
Si Si1 0.240598 0.823053 0.289197
Si Si2 0.672776 0.928943 0.218419
Si Si3 0.557863 0.898993 0.207899
Si Si4 0.558865 0.253307 0.717077
Si Si5 0.630136 0.626456 0.720349
Si Si6 0.061890 0.000000 0.720891
O O1 0.227751 0.812290 0.500000
O O2 0.250000 0.750000 0.211263
O O3 0.292524 0.867545 0.277484
O O4 0.190708 0.865067 0.217905
O O5 0.612449 0.924995 0.286371
O O6 0.695727 0.000000 0.271537
O O7 0.671093 0.926385 0.000000
O O8 0.500000 0.914263 0.288385
O O9 0.563777 0.819922 0.208964
O O10 0.556037 0.921130 0.000000
O O11 0.562351 0.247231 0.500000
O O12 0.500000 0.278142 0.761142
O O13 0.601523 0.306006 0.775444
O O14 0.629300 0.622775 0.500000
O O15 0.595324 0.564153 0.779187
O O16 0.060753 0.000000 0.500000
O O17 0.000000 0.000000 0.777340
#
# Coordination Sequence:
#
# PCOD9491713 Si02
#       6
#    16  16  16  16  16   8
#     4  10  21  36  55  79 107 140 179 221 265 318
#     4  10  22  38  55  77 106 138 175 219 265 316
#     4   9  18  33  53  76 101 131 168 210 259 312
#     4   9  16  28  49  76 104 132 165 210 260 305
#     4   9  17  28  45  70 101 134 169 209 257 310
#     4   9  16  26  42  68 101 133 168 211 256 306
#
# _framework density 23.128861000000001
#
# number of rings (size 3 to 8) (size 9 to 14) (size 15 to 20)
#    0.000    2.636    0.000    1.636    1.273    5.455 
#    0.000    2.727    0.000    0.000    0.000    3.818 
#    0.000    4.364    0.000    0.000    0.000    0.000 
#
# Total GULP energy -245679.319784 kJ/mol
# GULP energy per Si atom -5583.620904 kJ/mol
# Density = 2.307622 g / cm^3
# Si number density = 23.128861 Si / 1000 Ang^3
#
#
#
# Elastic Constant Matrix: (Units=GPa)
#
#
# Indices 1 2 3 4 5 6 
#
# 1 161.8540 80.3352 0.6176 0.0000 0.0000 0.0000
# 2 80.3352 145.2409 -1.6951 0.0000 0.0000 0.0000
# 3 0.6176 -1.6951 71.5666 0.0000 0.0000 0.0000
# 4 0.0000 0.0000 0.0000 -9.2497 0.0000 0.0000
# 5 0.0000 0.0000 0.0000 0.0000 6.9271 0.0000
# 6 0.0000 0.0000 0.0000 0.0000 0.0000 34.8286
#
#
#
# Elastic Compliance Matrix: (Units=1/GPa)
#
#
# Indices 1 2 3 4 5 6 
#
# 1 0.008519 -0.004714 -0.000185 0.000000 0.000000 0.000000
# 2 -0.004714 0.009496 0.000266 0.000000 0.000000 0.000000
# 3 -0.000185 0.000266 0.013981 0.000000 0.000000 0.000000
# 4 0.000000 0.000000 0.000000 -0.108112 0.000000 0.000000
# 5 0.000000 0.000000 0.000000 0.000000 0.144362 0.000000
# 6 0.000000 0.000000 0.000000 0.000000 0.000000 0.028712
#
#
# Mechanical properties :
#
#
# Convention : Reuss Voigt Hill
#
# Bulk Modulus (GPa) = 43.99844 59.68632 51.84238
# Shear Modulus (GPa) = 43.93638 26.46144 35.19891
#
# Velocity S-wave (km/s) = 4.36321 3.38611 3.90534
# Velocity P-wave (km/s) = 6.66693 6.41480 6.54208
#
# Compressibility (1/GPa) = 0.02272808
#
# Stress axis : x y z
#
# Youngs Moduli (GPa) = 117.38533 105.31096 71.52626
#
# Poissons Ratio (x) = 0.49645 0.01324
# Poissons Ratio (y) = 0.55337 -0.01900
# Poissons Ratio (z) = 0.02174 -0.02797
#
# Static dielectric constant tensor:
#      x y z
#    x 1.854880 0.000000 0.000000 
#    y 0.000000 1.816570 0.000000 
#    z 0.000000 0.000000 1.907090 
# 
# From -- ./inp_files/11721.got.cif
#   From: 2010.05.17/outbox.cif.g08.bks.cpg/sg65_6_cif.got.tgz:11721.got - 2010.06.03 17:01:31.
