data_PCOD9491280
_publ_section_title
;
Structure prediction by ZEFSAII (Michael W. Deem and Ramdas Pophale) SiO2 
 PCOD9491280
Probable space group: C M M M
;
_chemical_formula_sum "Si O2"
_cell_formula_units_Z 72
_cell_length_a 9.669878
_cell_length_b 27.143199
_cell_length_c 16.237543
_cell_angle_alpha 90.000000
_cell_angle_beta 90.000000
_cell_angle_gamma 90.000000
_cell_volume 4261.891015
_symmetry_space_group_name_H-M "C M M M"
_symmetry_group_IT_number 65
_symmetry_cell_setting 'orthorhombic'
loop_
_space_group_symop_operation_xyz
x,y,z
-x,-y,z
x,-y,-z
-x,y,-z
-x,-y,-z
x,y,-z
-x,y,z
x,-y,z
1/2+x,1/2+y,z
1/2-x,1/2-y,z
1/2+x,1/2-y,-z
1/2-x,1/2+y,-z
1/2-x,1/2-y,-z
1/2+x,1/2+y,-z
1/2-x,1/2+y,z
1/2+x,1/2-y,z
loop_
_atom_site_type_symbol
_atom_site_label
_atom_site_fract_x
_atom_site_fract_y
_atom_site_fract_z
Si Si1 0.331141 0.500000 0.403395
Si Si2 0.667342 0.397721 0.319663
Si Si3 0.843413 0.558240 0.000000
Si Si4 0.164545 0.114824 0.127662
Si Si5 0.337669 0.700763 0.000000
Si Si6 0.660516 0.296586 0.400882
O O1 0.500000 0.500000 0.401329
O O2 0.291795 0.500000 0.500000
O O3 0.284371 0.550155 0.357472
O O4 0.500000 0.398950 0.327028
O O5 0.698434 0.388827 0.223764
O O6 0.713630 0.349160 0.368707
O O7 0.757599 0.576556 0.921679
O O8 0.850183 0.500000 0.000000
O O9 0.000000 0.578393 0.000000
O O10 0.189512 0.166590 0.080443
O O11 0.000000 0.104509 0.117714
O O12 0.250000 0.750000 0.000000
O O13 0.500000 0.712673 0.000000
O O14 0.663356 0.297558 0.500000
O O15 0.500000 0.290816 0.375106
O O16 0.750000 0.250000 0.372467
#
# Coordination Sequence:
#
# PCOD9491280 Si02
#       6
#     8  16   8  16   8  16
#     4   9  16  26  44  73 105 134 164 203 255 303
#     4   9  17  29  47  73 103 131 166 211 253 295
#     4  10  21  35  51  71  98 128 158 196 246 297
#     4   9  19  34  51  74  99 126 167 208 245 294
#     4   9  18  32  48  68  95 128 162 202 247 298
#     4   9  17  30  48  71 101 135 169 208 253 299
#
# _framework density 16.893908
#
# number of rings (size 3 to 8) (size 9 to 14) (size 15 to 20)
#    0.000    2.889    0.000    1.667    1.556    6.222 
#    0.000    1.111    0.000    0.000    0.000    0.000 
#    0.000    5.333    0.000    0.000    0.000    0.000 
#
# Total GULP energy -200475.758216 kJ/mol
# GULP energy per Si atom -5568.771062 kJ/mol
# Density = 1.685546 g / cm^3
# Si number density = 16.893908 Si / 1000 Ang^3
#
#
#
# Elastic Constant Matrix: (Units=GPa)
#
#
# Indices 1 2 3 4 5 6 
#
# 1 38.5982 51.3342 30.9791 0.0000 0.0000 0.0000
# 2 51.3342 168.0212 72.4802 0.0000 0.0000 0.0000
# 3 30.9791 72.4802 88.9260 0.0000 0.0000 0.0000
# 4 0.0000 0.0000 0.0000 1.8447 0.0000 0.0000
# 5 0.0000 0.0000 0.0000 0.0000 1.4019 0.0000
# 6 0.0000 0.0000 0.0000 0.0000 0.0000 28.7695
#
#
#
# Elastic Compliance Matrix: (Units=1/GPa)
#
#
# Indices 1 2 3 4 5 6 
#
# 1 0.046381 -0.011105 -0.007107 0.000000 0.000000 0.000000
# 2 -0.011105 0.011838 -0.005780 0.000000 0.000000 0.000000
# 3 -0.007107 -0.005780 0.018432 0.000000 0.000000 0.000000
# 4 0.000000 0.000000 0.000000 0.542100 0.000000 0.000000
# 5 0.000000 0.000000 0.000000 0.000000 0.713313 0.000000
# 6 0.000000 0.000000 0.000000 0.000000 0.000000 0.034759
#
#
# Mechanical properties :
#
#
# Convention : Reuss Voigt Hill
#
# Bulk Modulus (GPa) = 34.88217 67.23694 51.05955
# Shear Modulus (GPa) = 3.51035 15.78668 9.64851
#
# Velocity S-wave (km/s) = 1.44305 3.06021 2.39241
# Velocity P-wave (km/s) = 4.84449 7.23688 6.15798
#
# Compressibility (1/GPa) = 0.02866794
#
# Stress axis : x y z
#
# Youngs Moduli (GPa) = 21.56072 84.47606 54.25356
#
# Poissons Ratio (x) = 0.93808 0.38556
# Poissons Ratio (y) = 0.23943 0.31358
# Poissons Ratio (z) = 0.15322 0.48826
#
# Static dielectric constant tensor:
#      x y z
#    x 1.570730 0.000000 0.000000 
#    y 0.000000 1.568100 0.000000 
#    z 0.000000 0.000000 1.571130 
# 
# From -- ./inp_files/36686.got.cif
#   From: 2010.05.17/outbox.cif.g08.bks.cpg/sg65_19_cif.got.tgz:36686.got - 2010.06.03 17:01:31.
