data_PCOD9491108
_publ_section_title
;
Structure prediction by ZEFSAII (Michael W. Deem and Ramdas Pophale) SiO2 
 PCOD9491108
Probable space group: C M M M
;
_chemical_formula_sum "Si O2"
_cell_formula_units_Z 80
_cell_length_a 14.445274
_cell_length_b 15.101643
_cell_length_c 19.412923
_cell_angle_alpha 90.000000
_cell_angle_beta 90.000000
_cell_angle_gamma 90.000000
_cell_volume 4234.878116
_symmetry_space_group_name_H-M "C M M M"
_symmetry_group_IT_number 65
_symmetry_cell_setting 'orthorhombic'
loop_
_space_group_symop_operation_xyz
x,y,z
-x,-y,z
x,-y,-z
-x,y,-z
-x,-y,-z
x,y,-z
-x,y,z
x,-y,z
1/2+x,1/2+y,z
1/2-x,1/2-y,z
1/2+x,1/2-y,-z
1/2-x,1/2+y,-z
1/2-x,1/2-y,-z
1/2+x,1/2+y,-z
1/2-x,1/2+y,z
1/2+x,1/2-y,z
loop_
_atom_site_type_symbol
_atom_site_label
_atom_site_fract_x
_atom_site_fract_y
_atom_site_fract_z
Si Si1 0.604580 0.392972 0.708553
Si Si2 0.893862 0.392159 0.921504
Si Si3 0.278787 0.108789 0.791806
Si Si4 0.272275 0.646526 0.423577
Si Si5 0.398124 0.896558 0.663495
O O1 0.500000 0.359179 0.714602
O O2 0.601394 0.500000 0.712013
O O3 0.676375 0.363410 0.767931
O O4 0.651792 0.371036 0.635123
O O5 0.892607 0.500000 0.921376
O O6 0.820138 0.362451 0.864682
O O7 0.000000 0.366872 0.903569
O O8 0.874681 0.363782 0.000000
O O9 0.347352 0.141092 0.730950
O O10 0.278788 0.000000 0.791585
O O11 0.299108 0.616005 0.500000
O O12 0.250000 0.750000 0.425677
O O13 0.174657 0.607477 0.398306
O O14 0.500000 0.858672 0.649747
O O15 0.409103 0.000000 0.678926
#
# Coordination Sequence:
#
# PCOD9491108 Si02
#       5
#    16  16  16  16  16
#     4   9  18  32  49  66  83 111 153 192 220 250
#     4   8  12  17  29  54  87 119 146 171 206 255
#     4   8  13  23  39  58  83 113 144 178 213 250
#     4  10  21  34  46  63  88 114 139 173 221 271
#     4   9  17  29  46  66  86 111 142 174 211 257
#
# _framework density 18.890746
#
# number of rings (size 3 to 8) (size 9 to 14) (size 15 to 20)
#    0.000    3.200    0.000    3.000    0.000    5.600 
#    0.000    4.000    0.000    0.600    0.000    4.200 
#    0.000   12.800    0.000   16.000    0.000   16.000 
#
# Total GULP energy -222774.585958 kJ/mol
# GULP energy per Si atom -5569.364649 kJ/mol
# Density = 1.884775 g / cm^3
# Si number density = 18.890746 Si / 1000 Ang^3
#
#
#
# Elastic Constant Matrix: (Units=GPa)
#
#
# Indices 1 2 3 4 5 6 
#
# 1 180.3745 5.4421 95.9435 0.0000 0.0000 0.0000
# 2 5.4421 21.7187 -1.3545 0.0000 0.0000 0.0000
# 3 95.9435 -1.3545 140.4765 0.0000 0.0000 0.0000
# 4 0.0000 0.0000 0.0000 -28.5411 0.0000 0.0000
# 5 0.0000 0.0000 0.0000 0.0000 17.3444 0.0000
# 6 0.0000 0.0000 0.0000 0.0000 0.0000 -3.4694
#
#
#
# Elastic Compliance Matrix: (Units=1/GPa)
#
#
# Indices 1 2 3 4 5 6 
#
# 1 0.008851 -0.002596 -0.006070 0.000000 0.000000 0.000000
# 2 -0.002596 0.046833 0.002225 0.000000 0.000000 0.000000
# 3 -0.006070 0.002225 0.011286 0.000000 0.000000 0.000000
# 4 0.000000 0.000000 0.000000 -0.035037 0.000000 0.000000
# 5 0.000000 0.000000 0.000000 0.000000 0.057655 0.000000
# 6 0.000000 0.000000 0.000000 0.000000 0.000000 -0.288237
#
#
# Mechanical properties :
#
#
# Convention : Reuss Voigt Hill
#
# Bulk Modulus (GPa) = 18.48904 60.29244 39.39074
# Shear Modulus (GPa) = -29.80863 13.23603 -8.28630
#
# Velocity S-wave (km/s) = -3.97665 2.64987 -2.09665
# Velocity P-wave (km/s) = 3.35803 6.43025 3.87761
#
# Compressibility (1/GPa) = 0.05408611
#
# Stress axis : x y z
#
# Youngs Moduli (GPa) = 112.97860 21.35267 88.60522
#
# Poissons Ratio (x) = 0.05544 0.53786
# Poissons Ratio (y) = 0.29334 -0.19714
# Poissons Ratio (z) = 0.68581 -0.04751
#
# Static dielectric constant tensor:
#      x y z
#    x 1.664040 0.000000 0.000000 
#    y 0.000000 1.636150 0.000000 
#    z 0.000000 0.000000 1.653760 
# 
# From -- ./inp_files/52863.got.cif
#   From: 2010.05.17/outbox.cif.g08.bks.cpg/sg65_27_cif.got.tgz:52863.got - 2010.06.03 17:01:31.
