data_PCOD9491053
_publ_section_title
;
Structure prediction by ZEFSAII (Michael W. Deem and Ramdas Pophale) SiO2 
 PCOD9491053
Probable space group: C M M M
;
_chemical_formula_sum "Si O2"
_cell_formula_units_Z 72
_cell_length_a 15.735519
_cell_length_b 26.420978
_cell_length_c 8.534675
_cell_angle_alpha 90.000000
_cell_angle_beta 90.000000
_cell_angle_gamma 90.000000
_cell_volume 3548.272366
_symmetry_space_group_name_H-M "C M M M"
_symmetry_group_IT_number 65
_symmetry_cell_setting 'orthorhombic'
loop_
_space_group_symop_operation_xyz
x,y,z
-x,-y,z
x,-y,-z
-x,y,-z
-x,-y,-z
x,y,-z
-x,y,z
x,-y,z
1/2+x,1/2+y,z
1/2-x,1/2-y,z
1/2+x,1/2-y,-z
1/2-x,1/2+y,-z
1/2-x,1/2-y,-z
1/2+x,1/2+y,-z
1/2-x,1/2+y,z
1/2+x,1/2-y,z
loop_
_atom_site_type_symbol
_atom_site_label
_atom_site_fract_x
_atom_site_fract_y
_atom_site_fract_z
Si Si1 0.601875 0.943412 0.175477
Si Si2 0.000000 0.288654 0.815737
Si Si3 0.664358 0.610488 0.690886
Si Si4 0.500000 0.324202 0.688321
Si Si5 0.839157 0.348014 0.322334
Si Si6 0.101260 0.000000 0.691317
O O1 0.500000 0.945190 0.172356
O O2 0.627989 0.905532 0.309696
O O3 0.634368 0.000000 0.199410
O O4 0.628368 0.925936 0.000000
O O5 0.000000 0.230559 0.764742
O O6 0.086463 0.315242 0.754971
O O7 0.000000 0.294095 0.000000
O O8 0.672447 0.608429 0.500000
O O9 0.581597 0.642670 0.730293
O O10 0.745490 0.642935 0.748689
O O11 0.648274 0.552150 0.741987
O O12 0.500000 0.317448 0.500000
O O13 0.830565 0.329869 0.500000
O O14 0.101353 0.000000 0.500000
O O15 0.000000 0.000000 0.735758
#
# Coordination Sequence:
#
# PCOD9491053 Si02
#       6
#    16   8  16   8  16   8
#     4   9  18  33  52  75 111 158 198 232 280 345
#     4  12  26  44  62  80 111 160 206 252 304 359
#     4   9  19  33  57  93 129 156 187 237 298 354
#     4  10  20  41  66  89 115 152 198 249 302 356
#     4  11  22  36  57  90 122 152 195 249 297 346
#     4   9  14  28  56  91 130 163 185 220 288 363
#
# _framework density 20.291564999999999
#
# number of rings (size 3 to 8) (size 9 to 14) (size 15 to 20)
#    0.000    2.111    2.222    2.333    1.556    1.333 
#    0.000    7.778    0.000    0.000    0.000    0.778 
#    0.000    0.000    0.000    0.000    0.000    0.000 
#
# Total GULP energy -200629.212850 kJ/mol
# GULP energy per Si atom -5573.033690 kJ/mol
# Density = 2.024538 g / cm^3
# Si number density = 20.291565 Si / 1000 Ang^3
#
#
#
# Elastic Constant Matrix: (Units=GPa)
#
#
# Indices 1 2 3 4 5 6 
#
# 1 165.2633 75.3315 29.2664 0.0000 0.0000 0.0000
# 2 75.3315 109.1487 25.3559 0.0000 0.0000 0.0000
# 3 29.2664 25.3559 26.0266 0.0000 0.0000 0.0000
# 4 0.0000 0.0000 0.0000 132.7302 0.0000 0.0000
# 5 0.0000 0.0000 0.0000 0.0000 -12.4646 0.0000
# 6 0.0000 0.0000 0.0000 0.0000 0.0000 -16.0446
#
#
#
# Elastic Compliance Matrix: (Units=1/GPa)
#
#
# Indices 1 2 3 4 5 6 
#
# 1 0.009399 -0.005211 -0.005492 0.000000 0.000000 0.000000
# 2 -0.005211 0.014731 -0.008492 0.000000 0.000000 0.000000
# 3 -0.005492 -0.008492 0.052871 0.000000 0.000000 0.000000
# 4 0.000000 0.000000 0.000000 0.007534 0.000000 0.000000
# 5 0.000000 0.000000 0.000000 0.000000 -0.080227 0.000000
# 6 0.000000 0.000000 0.000000 0.000000 0.000000 -0.062326
#
#
# Mechanical properties :
#
#
# Convention : Reuss Voigt Hill
#
# Bulk Modulus (GPa) = 25.89934 62.26072 44.08003
# Shear Modulus (GPa) = -739.76123 32.20986 -353.77568
#
# Velocity S-wave (km/s) = -19.11432 3.98848 -13.21835
# Velocity P-wave (km/s) = 21.77962 7.20835 14.53258
#
# Compressibility (1/GPa) = 0.03861102
#
# Stress axis : x y z
#
# Youngs Moduli (GPa) = 106.39583 67.88415 18.91402
#
# Poissons Ratio (x) = 0.35374 0.10388
# Poissons Ratio (y) = 0.55443 0.16061
# Poissons Ratio (z) = 0.58434 0.57645
#
# Static dielectric constant tensor:
#      x y z
#    x 1.864400 0.000000 0.000000 
#    y 0.000000 1.708410 0.000000 
#    z 0.000000 0.000000 1.738400 
# 
# From -- ./inp_files/7444.got.cif
#   From: 2010.05.17/outbox.cif.g08.bks.cpg/sg65_4_cif.got.tgz:7444.got - 2010.06.03 17:01:31.
