data_PCOD9491973
_publ_section_title
;
Structure prediction by ZEFSAII (Michael W. Deem and Ramdas Pophale) SiO2 
 PCOD9491973
Probable space group: C M M M
;
_chemical_formula_sum "Si O2"
_cell_formula_units_Z 104
_cell_length_a 8.029719
_cell_length_b 19.640534
_cell_length_c 34.378829
_cell_angle_alpha 90.000000
_cell_angle_beta 90.000000
_cell_angle_gamma 90.000000
_cell_volume 5421.815299
_symmetry_space_group_name_H-M "C M M M"
_symmetry_group_IT_number 65
_symmetry_cell_setting 'orthorhombic'
loop_
_space_group_symop_operation_xyz
x,y,z
-x,-y,z
x,-y,-z
-x,y,-z
-x,-y,-z
x,y,-z
-x,y,z
x,-y,z
1/2+x,1/2+y,z
1/2-x,1/2-y,z
1/2+x,1/2-y,-z
1/2-x,1/2+y,-z
1/2-x,1/2-y,-z
1/2+x,1/2+y,-z
1/2-x,1/2+y,z
1/2+x,1/2-y,z
loop_
_atom_site_type_symbol
_atom_site_label
_atom_site_fract_x
_atom_site_fract_y
_atom_site_fract_z
Si Si1 0.796597 0.922153 0.544352
Si Si2 0.698539 0.922195 0.685248
Si Si3 0.802427 0.828278 0.613864
Si Si4 0.701061 0.577795 0.771582
Si Si5 0.200953 0.827893 0.071056
Si Si6 0.298952 0.327658 0.158675
Si Si7 0.795851 0.921534 0.000000
O O1 0.744655 0.907198 0.500000
O O2 0.734338 0.868736 0.576163
O O3 0.000000 0.921374 0.544560
O O4 0.747087 0.000000 0.553972
O O5 0.500000 0.925172 0.683626
O O6 0.757459 0.871267 0.652060
O O7 0.749101 0.898930 0.728487
O O8 0.763890 0.000000 0.679642
O O9 0.750000 0.750000 0.615966
O O10 0.000000 0.828841 0.610313
O O11 0.500000 0.577364 0.773086
O O12 0.760141 0.500000 0.775878
O O13 0.763049 0.623976 0.806948
O O14 0.250000 0.750000 0.062145
O O15 0.260196 0.844520 0.114873
O O16 0.259304 0.880018 0.038158
O O17 0.000000 0.830528 0.071407
O O18 0.500000 0.332079 0.158144
O O19 0.250000 0.250000 0.166491
O O20 0.000000 0.921426 0.000000
O O21 0.742667 0.000000 0.000000
#
# Coordination Sequence:
#
# PCOD9491973 Si02
#       7
#    16  16  16  16  16  16   8
#     4   8  15  30  53  79 104 133 172 213 251 296
#     4  10  21  37  56  77 102 133 170 212 256 304
#     4  11  22  35  53  78 108 141 175 212 256 302
#     4   9  18  33  52  73  97 127 164 204 247 296
#     4   9  17  30  48  69  94 126 162 197 237 287
#     4   9  18  31  48  71  97 126 160 199 242 289
#     4   9  17  28  45  71  98 123 156 200 244 283
#
# _framework density 19.181766
#
# number of rings (size 3 to 8) (size 9 to 14) (size 15 to 20)
#    0.000    2.692    0.000    2.077    0.000    3.692 
#    0.000    4.615    0.000    2.308    0.000    9.692 
#    0.000    0.000    0.000    0.000    0.000    0.000 
#
# Total GULP energy -290089.049515 kJ/mol
# GULP energy per Si atom -5578.635568 kJ/mol
# Density = 1.913811 g / cm^3
# Si number density = 19.181766 Si / 1000 Ang^3
#
#
#
# Elastic Constant Matrix: (Units=GPa)
#
#
# Indices 1 2 3 4 5 6 
#
# 1 16.4244 10.4051 12.5319 0.0000 0.0000 0.0000
# 2 10.4051 144.0790 143.4528 0.0000 0.0000 0.0000
# 3 12.5319 143.4528 193.9253 0.0000 0.0000 0.0000
# 4 0.0000 0.0000 0.0000 23.9730 0.0000 0.0000
# 5 0.0000 0.0000 0.0000 0.0000 -2.8991 0.0000
# 6 0.0000 0.0000 0.0000 0.0000 0.0000 16.5403
#
#
#
# Elastic Compliance Matrix: (Units=1/GPa)
#
#
# Indices 1 2 3 4 5 6 
#
# 1 0.064182 -0.001919 -0.002728 0.000000 0.000000 0.000000
# 2 -0.001919 0.026399 -0.019404 0.000000 0.000000 0.000000
# 3 -0.002728 -0.019404 0.019687 0.000000 0.000000 0.000000
# 4 0.000000 0.000000 0.000000 0.041714 0.000000 0.000000
# 5 0.000000 0.000000 0.000000 0.000000 -0.344936 0.000000
# 6 0.000000 0.000000 0.000000 0.000000 0.000000 0.060459
#
#
# Mechanical properties :
#
#
# Convention : Reuss Voigt Hill
#
# Bulk Modulus (GPa) = 16.08600 76.35646 46.22123
# Shear Modulus (GPa) = -78.52930 20.05876 -29.23527
#
# Velocity S-wave (km/s) = -6.40534 3.23727 -3.90823
# Velocity P-wave (km/s) = 6.80443 7.33937 1.94501
#
# Compressibility (1/GPa) = 0.06216584
#
# Stress axis : x y z
#
# Youngs Moduli (GPa) = 15.58062 37.87980 50.79488
#
# Poissons Ratio (x) = 0.07268 0.13859
# Poissons Ratio (y) = 0.02989 0.98565
# Poissons Ratio (z) = 0.04251 0.73504
#
# Static dielectric constant tensor:
#      x y z
#    x 1.685890 0.000000 0.000000 
#    y 0.000000 1.626000 0.000000 
#    z 0.000000 0.000000 1.672090 
# 
# From -- ./inp_files/76933.got.cif
#   From: 2010.05.17/outbox.cif.g08.bks.cpg/sg65_39_cif.got.tgz:76933.got - 2010.06.03 17:01:31.
