data_PCOD9491704
_publ_section_title
;
Structure prediction by ZEFSAII (Michael W. Deem and Ramdas Pophale) SiO2 
 PCOD9491704
Probable space group: C M M M
;
_chemical_formula_sum "Si O2"
_cell_formula_units_Z 88
_cell_length_a 8.044362
_cell_length_b 18.883974
_cell_length_c 31.235509
_cell_angle_alpha 90.000000
_cell_angle_beta 90.000000
_cell_angle_gamma 90.000000
_cell_volume 4744.971268
_symmetry_space_group_name_H-M "C M M M"
_symmetry_group_IT_number 65
_symmetry_cell_setting 'orthorhombic'
loop_
_space_group_symop_operation_xyz
x,y,z
-x,-y,z
x,-y,-z
-x,y,-z
-x,-y,-z
x,y,-z
-x,y,z
x,-y,z
1/2+x,1/2+y,z
1/2-x,1/2-y,z
1/2+x,1/2-y,-z
1/2-x,1/2+y,-z
1/2-x,1/2-y,-z
1/2+x,1/2+y,-z
1/2-x,1/2+y,z
1/2+x,1/2-y,z
loop_
_atom_site_type_symbol
_atom_site_label
_atom_site_fract_x
_atom_site_fract_y
_atom_site_fract_z
Si Si1 0.700802 0.668231 0.952803
Si Si2 0.197318 0.419323 0.778694
Si Si3 0.196040 0.085182 0.610175
Si Si4 0.802485 0.168406 0.696199
Si Si5 0.300214 0.580754 0.871671
Si Si6 0.500000 0.085901 0.548840
O O1 0.500000 0.664034 0.952670
O O2 0.750000 0.750000 0.948730
O O3 0.763978 0.624860 0.912025
O O4 0.757712 0.643084 0.000000
O O5 0.264759 0.500000 0.772918
O O6 0.240064 0.370460 0.738738
O O7 0.258994 0.390925 0.824487
O O8 0.000000 0.424014 0.781335
O O9 0.246991 0.125068 0.653712
O O10 0.331056 0.105625 0.574124
O O11 0.000000 0.100957 0.600450
O O12 0.206322 0.000000 0.616367
O O13 0.750000 0.250000 0.694091
O O14 0.000000 0.165871 0.697603
O O15 0.500000 0.578653 0.874953
O O16 0.237146 0.500000 0.873374
O O17 0.500000 0.111803 0.500000
O O18 0.500000 0.000000 0.547602
#
# Coordination Sequence:
#
# PCOD9491704 Si02
#       6
#    16  16  16  16  16   8
#     4   9  18  32  50  72  97 128 167 209 258 313
#     4  10  21  36  55  78 106 140 177 218 265 323
#     4   9  19  35  56  83 113 148 187 230 281 333
#     4  11  23  37  55  81 109 144 182 225 273 321
#     4   9  18  33  52  73  99 132 168 212 262 310
#     4   9  18  32  56  88 116 146 185 233 282 328
#
# _framework density 18.545950000000001
#
# number of rings (size 3 to 8) (size 9 to 14) (size 15 to 20)
#    0.000    2.455    0.000    1.636    2.545    4.000 
#    0.000    5.455    0.000    0.545    0.000    5.091 
#    0.000    0.000    0.000    0.000    0.000    0.000 
#
# Total GULP energy -245345.025022 kJ/mol
# GULP energy per Si atom -5576.023296 kJ/mol
# Density = 1.850374 g / cm^3
# Si number density = 18.545950 Si / 1000 Ang^3
#
#
#
# Elastic Constant Matrix: (Units=GPa)
#
#
# Indices 1 2 3 4 5 6 
#
# 1 46.1493 23.7635 60.0357 0.0000 0.0000 0.0000
# 2 23.7635 53.6790 73.0459 0.0000 0.0000 0.0000
# 3 60.0357 73.0459 207.5803 0.0000 0.0000 0.0000
# 4 0.0000 0.0000 0.0000 -18.1588 0.0000 0.0000
# 5 0.0000 0.0000 0.0000 0.0000 21.4040 0.0000
# 6 0.0000 0.0000 0.0000 0.0000 0.0000 20.4521
#
#
#
# Elastic Compliance Matrix: (Units=1/GPa)
#
#
# Indices 1 2 3 4 5 6 
#
# 1 0.035042 -0.003304 -0.008972 0.000000 0.000000 0.000000
# 2 -0.003304 0.036058 -0.011733 0.000000 0.000000 0.000000
# 3 -0.008972 -0.011733 0.011541 0.000000 0.000000 0.000000
# 4 0.000000 0.000000 0.000000 -0.055070 0.000000 0.000000
# 5 0.000000 0.000000 0.000000 0.000000 0.046720 0.000000
# 6 0.000000 0.000000 0.000000 0.000000 0.000000 0.048895
#
#
# Mechanical properties :
#
#
# Convention : Reuss Voigt Hill
#
# Bulk Modulus (GPa) = 28.88237 69.01098 48.94668
# Shear Modulus (GPa) = 27.36054 14.77703 21.06879
#
# Velocity S-wave (km/s) = 3.84511 2.82579 3.37416
# Velocity P-wave (km/s) = 5.94309 6.92375 6.45208
#
# Compressibility (1/GPa) = 0.03462320
#
# Stress axis : x y z
#
# Youngs Moduli (GPa) = 28.53735 27.73309 86.64691
#
# Poissons Ratio (x) = 0.09162 0.77741
# Poissons Ratio (y) = 0.09428 1.01664
# Poissons Ratio (z) = 0.25604 0.32539
#
# Static dielectric constant tensor:
#      x y z
#    x 1.650240 0.000000 0.000000 
#    y 0.000000 1.616370 0.000000 
#    z 0.000000 0.000000 1.650710 
# 
# From -- ./inp_files/67594.got.cif
#   From: 2010.05.17/outbox.cif.g08.bks.cpg/sg65_34_cif.got.tgz:67594.got - 2010.06.03 17:01:31.
