data_PCOD9491321
_publ_section_title
;
Structure prediction by ZEFSAII (Michael W. Deem and Ramdas Pophale) SiO2 
 PCOD9491321
Probable space group: C M M M
;
_chemical_formula_sum "Si O2"
_cell_formula_units_Z 112
_cell_length_a 15.106285
_cell_length_b 26.302220
_cell_length_c 14.374892
_cell_angle_alpha 90.000000
_cell_angle_beta 90.000000
_cell_angle_gamma 90.000000
_cell_volume 5711.559041
_symmetry_space_group_name_H-M "C M M M"
_symmetry_group_IT_number 65
_symmetry_cell_setting 'orthorhombic'
loop_
_space_group_symop_operation_xyz
x,y,z
-x,-y,z
x,-y,-z
-x,y,-z
-x,-y,-z
x,y,-z
-x,y,z
x,-y,z
1/2+x,1/2+y,z
1/2-x,1/2-y,z
1/2+x,1/2-y,-z
1/2-x,1/2+y,-z
1/2-x,1/2-y,-z
1/2+x,1/2+y,-z
1/2-x,1/2+y,z
1/2+x,1/2-y,z
loop_
_atom_site_type_symbol
_atom_site_label
_atom_site_fract_x
_atom_site_fract_y
_atom_site_fract_z
Si Si1 0.099536 0.829048 0.611451
Si Si2 0.284068 0.130903 0.610953
Si Si3 0.601132 0.060848 0.734108
Si Si4 0.856173 0.754373 0.894229
Si Si5 0.099835 0.718175 0.699348
Si Si6 0.901885 0.127763 0.887917
Si Si7 0.763502 0.560574 0.890715
O O1 0.102856 0.820363 0.500000
O O2 0.179911 0.866446 0.634851
O O3 0.114428 0.775166 0.661425
O O4 0.000000 0.846635 0.634426
O O5 0.292875 0.131825 0.500000
O O6 0.337907 0.084590 0.654540
O O7 0.329658 0.180693 0.654793
O O8 0.500000 0.079420 0.730685
O O9 0.650606 0.073850 0.830398
O O10 0.599541 0.000000 0.726451
O O11 0.750000 0.750000 0.892561
O O12 0.892159 0.720168 0.810920
O O13 0.883043 0.812630 0.872657
O O14 0.885613 0.742581 0.000000
O O15 0.000000 0.703387 0.672302
O O16 0.820847 0.092773 0.856388
O O17 0.000000 0.114844 0.852222
O O18 0.904178 0.121372 0.000000
O O19 0.746748 0.500000 0.881322
O O20 0.777511 0.571325 0.000000
#
# Coordination Sequence:
#
# PCOD9491321 Si02
#       7
#    16  16  16  16  16  16  16
#     4   9  19  36  58  85 116 149 185 228 283 345
#     4  11  23  40  62  86 115 147 187 242 294 340
#     4  10  23  42  62  86 115 148 189 235 285 344
#     4  10  21  35  51  75 113 163 207 241 278 331
#     4  11  22  34  54  85 117 153 194 237 285 335
#     4   9  18  33  54  81 116 157 198 238 283 335
#     4   9  19  36  60  89 118 150 189 234 284 339
#
# _framework density 19.609356999999999
#
# number of rings (size 3 to 8) (size 9 to 14) (size 15 to 20)
#    0.000    2.143    0.000    2.571    4.000    4.571 
#    0.000    3.571    0.000    3.000    0.000    2.000 
#    0.000    0.000    0.000    0.000    0.000    0.000 
#
# Total GULP energy -312746.908685 kJ/mol
# GULP energy per Si atom -5584.766227 kJ/mol
# Density = 1.956473 g / cm^3
# Si number density = 19.609357 Si / 1000 Ang^3
#
#
#
# Elastic Constant Matrix: (Units=GPa)
#
#
# Indices 1 2 3 4 5 6 
#
# 1 144.9600 42.4826 37.0118 0.0000 0.0000 0.0000
# 2 42.4826 31.6381 32.2949 0.0000 0.0000 0.0000
# 3 37.0118 32.2949 88.9822 0.0000 0.0000 0.0000
# 4 0.0000 0.0000 0.0000 27.5669 0.0000 0.0000
# 5 0.0000 0.0000 0.0000 0.0000 19.3427 0.0000
# 6 0.0000 0.0000 0.0000 0.0000 0.0000 28.6316
#
#
#
# Elastic Compliance Matrix: (Units=1/GPa)
#
#
# Indices 1 2 3 4 5 6 
#
# 1 0.011469 -0.016727 0.001301 0.000000 0.000000 0.000000
# 2 -0.016727 0.074605 -0.020119 0.000000 0.000000 0.000000
# 3 0.001301 -0.020119 0.017999 0.000000 0.000000 0.000000
# 4 0.000000 0.000000 0.000000 0.036275 0.000000 0.000000
# 5 0.000000 0.000000 0.000000 0.000000 0.051699 0.000000
# 6 0.000000 0.000000 0.000000 0.000000 0.000000 0.034926
#
#
# Mechanical properties :
#
#
# Convention : Reuss Voigt Hill
#
# Bulk Modulus (GPa) = 30.32030 54.35097 42.33564
# Shear Modulus (GPa) = 16.17811 25.36097 20.76954
#
# Velocity S-wave (km/s) = 2.87543 3.60016 3.25801
# Velocity P-wave (km/s) = 5.14974 6.71257 5.98241
#
# Compressibility (1/GPa) = 0.03298120
#
# Stress axis : x y z
#
# Youngs Moduli (GPa) = 87.19526 13.40388 55.55780
#
# Poissons Ratio (x) = 0.22421 -0.07226
# Poissons Ratio (y) = 1.45853 1.11779
# Poissons Ratio (z) = -0.11341 0.26968
#
# Static dielectric constant tensor:
#      x y z
#    x 1.709550 0.000000 0.000000 
#    y 0.000000 1.672390 0.000000 
#    z 0.000000 0.000000 1.704840 
# 
# From -- ./inp_files/40852.got.cif
#   From: 2010.05.17/outbox.cif.g08.bks.cpg/sg65_21_cif.got.tgz:40852.got - 2010.06.03 17:01:31.
