data_PCOD9491993
_publ_section_title
;
Structure prediction by ZEFSAII (Michael W. Deem and Ramdas Pophale) SiO2 
 PCOD9491993
Probable space group: C M M M
;
_chemical_formula_sum "Si O2"
_cell_formula_units_Z 80
_cell_length_a 7.684441
_cell_length_b 19.034158
_cell_length_c 27.095628
_cell_angle_alpha 90.000000
_cell_angle_beta 90.000000
_cell_angle_gamma 90.000000
_cell_volume 3963.192539
_symmetry_space_group_name_H-M "C M M M"
_symmetry_group_IT_number 65
_symmetry_cell_setting 'orthorhombic'
loop_
_space_group_symop_operation_xyz
x,y,z
-x,-y,z
x,-y,-z
-x,y,-z
-x,-y,-z
x,y,-z
-x,y,z
x,-y,z
1/2+x,1/2+y,z
1/2-x,1/2-y,z
1/2+x,1/2-y,-z
1/2-x,1/2+y,-z
1/2-x,1/2-y,-z
1/2+x,1/2+y,-z
1/2-x,1/2+y,z
1/2+x,1/2-y,z
loop_
_atom_site_type_symbol
_atom_site_label
_atom_site_fract_x
_atom_site_fract_y
_atom_site_fract_z
Si Si1 0.713301 0.918249 0.607146
Si Si2 0.709064 0.168254 0.298960
Si Si3 0.792649 0.420616 0.096718
Si Si4 0.290252 0.832039 0.810940
Si Si5 0.205049 0.832392 0.000000
Si Si6 0.705382 0.914647 0.500000
O O1 0.500000 0.915604 0.606169
O O2 0.775216 0.875631 0.654562
O O3 0.775453 0.891538 0.553314
O O4 0.760601 0.000000 0.611943
O O5 0.500000 0.159747 0.298136
O O6 0.750000 0.250000 0.305991
O O7 0.773970 0.148723 0.244075
O O8 0.723869 0.500000 0.090372
O O9 0.722290 0.380753 0.145078
O O10 0.000000 0.426488 0.103641
O O11 0.768181 0.372716 0.048683
O O12 0.500000 0.837848 0.810178
O O13 0.250000 0.750000 0.819982
O O14 0.250000 0.750000 0.000000
O O15 0.000000 0.837666 0.000000
O O16 0.500000 0.897441 0.500000
O O17 0.717478 0.000000 0.500000
#
# Coordination Sequence:
#
# PCOD9491993 Si02
#       6
#    16  16  16  16   8   8
#     4   8  13  22  39  62  86 114 151 194 235 276
#     4   9  17  29  45  66  93 123 155 193 236 281
#     4  10  21  37  56  79 107 134 161 200 248 291
#     4   9  18  32  50  71  95 127 163 196 234 283
#     4  12  25  40  59  81 105 135 171 204 237 284
#     4   7  10  18  33  56  85 113 144 187 236 278
#
# _framework density 20.185748
#
# number of rings (size 3 to 8) (size 9 to 14) (size 15 to 20)
#    0.000    2.900    0.000    3.000    0.000    4.800 
#    0.000    4.500    0.000    0.600    0.000    5.600 
#    0.000    2.400    0.000    0.000    0.000    0.000 
#
# Total GULP energy -223011.545575 kJ/mol
# GULP energy per Si atom -5575.288639 kJ/mol
# Density = 2.013980 g / cm^3
# Si number density = 20.185748 Si / 1000 Ang^3
#
#
#
# Elastic Constant Matrix: (Units=GPa)
#
#
# Indices 1 2 3 4 5 6 
#
# 1 36.6334 0.5094 4.7394 0.0000 0.0000 0.0000
# 2 0.5094 113.9900 125.1122 0.0000 0.0000 0.0000
# 3 4.7394 125.1122 244.0812 0.0000 0.0000 0.0000
# 4 0.0000 0.0000 0.0000 36.1174 0.0000 0.0000
# 5 0.0000 0.0000 0.0000 0.0000 -8.5575 0.0000
# 6 0.0000 0.0000 0.0000 0.0000 0.0000 16.4603
#
#
#
# Elastic Compliance Matrix: (Units=1/GPa)
#
#
# Indices 1 2 3 4 5 6 
#
# 1 0.027422 0.001056 -0.001074 0.000000 0.000000 0.000000
# 2 0.001056 0.020097 -0.010322 0.000000 0.000000 0.000000
# 3 -0.001074 -0.010322 0.009409 0.000000 0.000000 0.000000
# 4 0.000000 0.000000 0.000000 0.027687 0.000000 0.000000
# 5 0.000000 0.000000 0.000000 0.000000 -0.116856 0.000000
# 6 0.000000 0.000000 0.000000 0.000000 0.000000 0.060752
#
#
# Mechanical properties :
#
#
# Convention : Reuss Voigt Hill
#
# Bulk Modulus (GPa) = 27.58772 72.82519 50.20645
# Shear Modulus (GPa) = 81.60213 26.42694 54.01454
#
# Velocity S-wave (km/s) = 6.36501 3.62220 5.17850
# Velocity P-wave (km/s) = 8.22888 7.32459 7.78987
#
# Compressibility (1/GPa) = 0.03624801
#
# Stress axis : x y z
#
# Youngs Moduli (GPa) = 36.46745 49.75866 106.28471
#
# Poissons Ratio (x) = -0.05254 0.11412
# Poissons Ratio (y) = -0.03851 1.09706
# Poissons Ratio (z) = 0.03915 0.51360
#
# Static dielectric constant tensor:
#      x y z
#    x 1.747330 0.000000 0.000000 
#    y 0.000000 1.664520 0.000000 
#    z 0.000000 0.000000 1.809730 
# 
# From -- ./inp_files/72962.got.cif
#   From: 2010.05.17/outbox.cif.g08.bks.cpg/sg65_37_cif.got.tgz:72962.got - 2010.06.03 17:01:31.
