data_PCOD9491954
_publ_section_title
;
Structure prediction by ZEFSAII (Michael W. Deem and Ramdas Pophale) SiO2 
 PCOD9491954
Probable space group: C M M M
;
_chemical_formula_sum "Si O2"
_cell_formula_units_Z 80
_cell_length_a 8.588059
_cell_length_b 18.347148
_cell_length_c 26.729544
_cell_angle_alpha 90.000000
_cell_angle_beta 90.000000
_cell_angle_gamma 90.000000
_cell_volume 4211.677741
_symmetry_space_group_name_H-M "C M M M"
_symmetry_group_IT_number 65
_symmetry_cell_setting 'orthorhombic'
loop_
_space_group_symop_operation_xyz
x,y,z
-x,-y,z
x,-y,-z
-x,y,-z
-x,-y,-z
x,y,-z
-x,y,z
x,-y,z
1/2+x,1/2+y,z
1/2-x,1/2-y,z
1/2+x,1/2-y,-z
1/2-x,1/2+y,-z
1/2-x,1/2-y,-z
1/2+x,1/2+y,-z
1/2-x,1/2+y,z
1/2+x,1/2-y,z
loop_
_atom_site_type_symbol
_atom_site_label
_atom_site_fract_x
_atom_site_fract_y
_atom_site_fract_z
Si Si1 0.814337 0.168071 0.694177
Si Si2 0.312985 0.914764 0.402815
Si Si3 0.812075 0.667278 0.000000
Si Si4 0.685780 0.332024 0.500000
Si Si5 0.811414 0.415177 0.790800
Si Si6 0.311672 0.832565 0.109094
O O1 0.750000 0.250000 0.692280
O O2 0.748766 0.122957 0.647314
O O3 0.759549 0.129804 0.745193
O O4 0.000000 0.169727 0.691817
O O5 0.500000 0.909786 0.403843
O O6 0.245612 0.873832 0.450950
O O7 0.269493 0.000000 0.403749
O O8 0.750000 0.750000 0.000000
O O9 0.763010 0.637081 0.945742
O O10 0.000000 0.667731 0.000000
O O11 0.500000 0.330117 0.500000
O O12 0.750000 0.250000 0.500000
O O13 0.768146 0.500000 0.787557
O O14 0.762148 0.380670 0.843815
O O15 0.000000 0.410599 0.787711
O O16 0.500000 0.829741 0.109675
O O17 0.250000 0.750000 0.114144
#
# Coordination Sequence:
#
# PCOD9491954 Si02
#       6
#    16  16   8   8  16  16
#     4  12  25  41  62  87 115 148 190 237 285 339
#     4  11  24  43  66  92 124 159 194 236 288 341
#     4   8  14  26  45  71 101 133 175 224 273 326
#     4  12  25  42  65  93 127 163 203 246 285 332
#     4  10  21  37  55  78 111 148 185 229 283 339
#     4   9  17  30  50  75 103 138 180 227 277 330
#
# _framework density 18.994804999999999
#
# number of rings (size 3 to 8) (size 9 to 14) (size 15 to 20)
#    0.000    1.600    0.000    5.400    0.000    8.000 
#    0.000    0.500    0.000    3.000    0.000    0.000 
#    0.000    9.600    0.000    0.000    0.000    0.000 
#
# Total GULP energy -223491.940306 kJ/mol
# GULP energy per Si atom -5587.298508 kJ/mol
# Density = 1.895157 g / cm^3
# Si number density = 18.994805 Si / 1000 Ang^3
#
#
#
# Elastic Constant Matrix: (Units=GPa)
#
#
# Indices 1 2 3 4 5 6 
#
# 1 62.8885 59.8794 58.3685 0.0000 0.0000 0.0000
# 2 59.8794 167.8953 114.0618 0.0000 0.0000 0.0000
# 3 58.3685 114.0618 222.0969 0.0000 0.0000 0.0000
# 4 0.0000 0.0000 0.0000 -519.7370 0.0000 0.0000
# 5 0.0000 0.0000 0.0000 0.0000 -17.3454 0.0000
# 6 0.0000 0.0000 0.0000 0.0000 0.0000 26.2029
#
#
#
# Elastic Compliance Matrix: (Units=1/GPa)
#
#
# Indices 1 2 3 4 5 6 
#
# 1 0.025401 -0.006948 -0.003107 0.000000 0.000000 0.000000
# 2 -0.006948 0.011048 -0.003848 0.000000 0.000000 0.000000
# 3 -0.003107 -0.003848 0.007295 0.000000 0.000000 0.000000
# 4 0.000000 0.000000 0.000000 -0.001924 0.000000 0.000000
# 5 0.000000 0.000000 0.000000 0.000000 -0.057652 0.000000
# 6 0.000000 0.000000 0.000000 0.000000 0.000000 0.038164
#
#
# Mechanical properties :
#
#
# Convention : Reuss Voigt Hill
#
# Bulk Modulus (GPa) = 62.74442 101.94446 82.34444
# Shear Modulus (GPa) = 90.16941 -87.47116 1.34912
#
# Velocity S-wave (km/s) = 6.89736 -6.79338 0.84368
# Velocity P-wave (km/s) = 9.82525 2.78338 6.66290
#
# Compressibility (1/GPa) = 0.01593767
#
# Stress axis : x y z
#
# Youngs Moduli (GPa) = 39.36896 90.51095 137.07404
#
# Poissons Ratio (x) = 0.62889 0.42590
# Poissons Ratio (y) = 0.27355 0.52747
# Poissons Ratio (z) = 0.12232 0.34829
#
# Static dielectric constant tensor:
#      x y z
#    x 1.637950 0.000000 0.000000 
#    y 0.000000 1.613860 0.000000 
#    z 0.000000 0.000000 1.661490 
# 
# From -- ./inp_files/72883.got.cif
#   From: 2010.05.17/outbox.cif.g08.bks.cpg/sg65_37_cif.got.tgz:72883.got - 2010.06.03 17:01:31.
