data_PCOD9491030
_publ_section_title
;
Structure prediction by ZEFSAII (Michael W. Deem and Ramdas Pophale) SiO2 
 PCOD9491030
Probable space group: C M M M
;
_chemical_formula_sum "Si O2"
_cell_formula_units_Z 58
_cell_length_a 15.967655
_cell_length_b 11.734055
_cell_length_c 16.814792
_cell_angle_alpha 90.000000
_cell_angle_beta 90.000000
_cell_angle_gamma 90.000000
_cell_volume 3150.509254
_symmetry_space_group_name_H-M "C M M M"
_symmetry_group_IT_number 65
_symmetry_cell_setting 'orthorhombic'
loop_
_space_group_symop_operation_xyz
x,y,z
-x,-y,z
x,-y,-z
-x,y,-z
-x,-y,-z
x,y,-z
-x,y,z
x,-y,z
1/2+x,1/2+y,z
1/2-x,1/2-y,z
1/2+x,1/2-y,-z
1/2-x,1/2+y,-z
1/2-x,1/2-y,-z
1/2+x,1/2+y,-z
1/2-x,1/2+y,z
1/2+x,1/2-y,z
loop_
_atom_site_type_symbol
_atom_site_label
_atom_site_fract_x
_atom_site_fract_y
_atom_site_fract_z
Si Si1 0.657104 0.745707 0.319144
Si Si2 0.500000 0.135114 0.405113
Si Si3 0.000000 0.000000 0.500000
Si Si4 0.908936 0.000000 0.665881
Si Si5 0.903209 0.633986 0.166721
Si Si6 0.808837 0.364231 0.000000
O O1 0.750000 0.750000 0.354509
O O2 0.582794 0.805111 0.369606
O O3 0.636924 0.613674 0.311276
O O4 0.651562 0.803350 0.232866
O O5 0.500000 0.150559 0.500000
O O6 0.500000 0.000000 0.386902
O O7 0.928867 0.000000 0.428638
O O8 0.000000 0.000000 0.705878
O O9 0.903669 0.500000 0.186417
O O10 0.000000 0.674165 0.170568
O O11 0.865110 0.645555 0.079162
O O12 0.750000 0.250000 0.000000
O O13 0.776131 0.500000 0.000000
#
# Coordination Sequence:
#
# PCOD9491030 Si02
#       6
#    16   8   2   8  16   8
#     4  12  25  40  66  96 128 168 216 268 324 383
#     4  11  25  46  65  92 127 165 212 272 328 387
#     4   8  20  44  68  80 118 180 212 252 332 398
#     4  10  22  42  64  86 124 172 211 259 322 393
#     4  10  20  39  66  92 126 168 216 265 315 377
#     4  10  21  39  63  97 129 170 214 265 317 381
#
# _framework density 18.409721999999999
#
# number of rings (size 3 to 8) (size 9 to 14) (size 15 to 20)
#    0.414    0.966    2.759    2.069    7.724    2.207 
#    2.483    0.000    0.000    0.828    0.000    0.000 
#    0.000    0.000    0.000    0.000    0.000    0.000 
#
# Total GULP energy -161458.441337 kJ/mol
# GULP energy per Si atom -5567.532460 kJ/mol
# Density = 1.836782 g / cm^3
# Si number density = 18.409722 Si / 1000 Ang^3
#
#
#
# Elastic Constant Matrix: (Units=GPa)
#
#
# Indices 1 2 3 4 5 6 
#
# 1 129.6211 55.8924 14.0958 0.0000 0.0000 0.0000
# 2 55.8924 118.6332 25.1684 0.0000 0.0000 0.0000
# 3 14.0958 25.1684 84.0131 0.0000 0.0000 0.0000
# 4 0.0000 0.0000 0.0000 14.2366 0.0000 0.0000
# 5 0.0000 0.0000 0.0000 0.0000 -0.3602 0.0000
# 6 0.0000 0.0000 0.0000 0.0000 0.0000 30.1816
#
#
#
# Elastic Compliance Matrix: (Units=1/GPa)
#
#
# Indices 1 2 3 4 5 6 
#
# 1 0.009688 -0.004506 -0.000276 0.000000 0.000000 0.000000
# 2 -0.004506 0.011097 -0.002568 0.000000 0.000000 0.000000
# 3 -0.000276 -0.002568 0.012719 0.000000 0.000000 0.000000
# 4 0.000000 0.000000 0.000000 0.070242 0.000000 0.000000
# 5 0.000000 0.000000 0.000000 0.000000 -2.776242 0.000000
# 6 0.000000 0.000000 0.000000 0.000000 0.000000 0.033133
#
#
# Mechanical properties :
#
#
# Convention : Reuss Voigt Hill
#
# Bulk Modulus (GPa) = 53.18089 58.06452 55.62271
# Shear Modulus (GPa) = -1.90957 24.61898 11.35471
#
# Velocity S-wave (km/s) = -1.01956 3.66085 2.48620
# Velocity P-wave (km/s) = 5.25015 7.03404 6.20652
#
# Compressibility (1/GPa) = 0.01880375
#
# Stress axis : x y z
#
# Youngs Moduli (GPa) = 103.22450 90.11392 78.62507
#
# Poissons Ratio (x) = 0.40603 0.02167
# Poissons Ratio (y) = 0.46510 0.20195
# Poissons Ratio (z) = 0.02845 0.23145
#
# Static dielectric constant tensor:
#      x y z
#    x 1.647800 0.000000 0.000000 
#    y 0.000000 1.627350 0.000000 
#    z 0.000000 0.000000 1.608340 
# 
# From -- ./inp_files/52486.got.cif
#   From: 2010.05.17/outbox.cif.g08.bks.cpg/sg65_27_cif.got.tgz:52486.got - 2010.06.03 17:01:31.
