data_PCOD9491415
_publ_section_title
;
Structure prediction by ZEFSAII (Michael W. Deem and Ramdas Pophale) SiO2 
 PCOD9491415
Probable space group: C M M M
;
_chemical_formula_sum "Si O2"
_cell_formula_units_Z 90
_cell_length_a 20.478458
_cell_length_b 26.362949
_cell_length_c 7.918557
_cell_angle_alpha 90.000000
_cell_angle_beta 90.000000
_cell_angle_gamma 90.000000
_cell_volume 4275.011511
_symmetry_space_group_name_H-M "C M M M"
_symmetry_group_IT_number 65
_symmetry_cell_setting 'orthorhombic'
loop_
_space_group_symop_operation_xyz
x,y,z
-x,-y,z
x,-y,-z
-x,y,-z
-x,-y,-z
x,y,-z
-x,y,z
x,-y,z
1/2+x,1/2+y,z
1/2-x,1/2-y,z
1/2+x,1/2-y,-z
1/2-x,1/2+y,-z
1/2-x,1/2-y,-z
1/2+x,1/2+y,-z
1/2-x,1/2+y,z
1/2+x,1/2-y,z
loop_
_atom_site_type_symbol
_atom_site_label
_atom_site_fract_x
_atom_site_fract_y
_atom_site_fract_z
Si Si1 0.500000 0.104512 0.186319
Si Si2 0.000000 0.500000 0.000000
Si Si3 0.111452 0.943934 0.695944
Si Si4 0.860933 0.361480 0.696861
Si Si5 0.243190 0.556453 0.195843
Si Si6 0.825486 0.250101 0.293563
Si Si7 0.072705 0.834531 0.706725
O O1 0.434244 0.119845 0.278635
O O2 0.500000 0.129853 0.000000
O O3 0.500000 0.045005 0.143972
O O4 0.090901 0.945992 0.500000
O O5 0.189951 0.936848 0.702521
O O6 0.081971 0.892316 0.768743
O O7 0.097206 0.000000 0.770223
O O8 0.843668 0.360606 0.500000
O O9 0.810375 0.400673 0.778242
O O10 0.854262 0.304145 0.760913
O O11 0.216196 0.500000 0.235343
O O12 0.262688 0.556639 0.000000
O O13 0.826301 0.248132 0.500000
O O14 0.750000 0.250000 0.240777
O O15 0.869897 0.203074 0.235692
O O16 0.076166 0.836000 0.500000
O O17 0.000000 0.816192 0.750980
#
# Coordination Sequence:
#
# PCOD9491415 Si02
#       7
#     8   2  16  16  16  16  16
#     4  10  23  41  59  77 111 152 191 224 280 349
#     4   8  24  44  62  72 108 164 198 212 272 380
#     4   9  17  31  52  81 111 137 177 229 273 318
#     4  11  22  35  57  86 110 138 188 242 283 324
#     4  10  21  35  54  77 107 146 183 219 275 344
#     4   9  18  32  52  80 113 145 181 227 280 338
#     4   9  17  29  50  79 111 146 179 222 281 336
#
# _framework density 21.052574
#
# number of rings (size 3 to 8) (size 9 to 14) (size 15 to 20)
#    0.267    2.133    0.000    2.400    2.489    4.267 
#    0.000    2.222    0.000   10.133    0.000    2.489 
#    0.000    0.000    0.000    0.000    0.000    0.000 
#
# Total GULP energy -250781.594073 kJ/mol
# GULP energy per Si atom -5572.924313 kJ/mol
# Density = 2.100466 g / cm^3
# Si number density = 21.052574 Si / 1000 Ang^3
#
#
#
# Elastic Constant Matrix: (Units=GPa)
#
#
# Indices 1 2 3 4 5 6 
#
# 1 108.0643 78.3625 -6.1582 0.0000 0.0000 0.0000
# 2 78.3625 167.0738 3.9690 0.0000 0.0000 0.0000
# 3 -6.1582 3.9690 26.1684 0.0000 0.0000 0.0000
# 4 0.0000 0.0000 0.0000 -41.5263 0.0000 0.0000
# 5 0.0000 0.0000 0.0000 0.0000 267.7583 0.0000
# 6 0.0000 0.0000 0.0000 0.0000 0.0000 -220.2003
#
#
#
# Elastic Compliance Matrix: (Units=1/GPa)
#
#
# Indices 1 2 3 4 5 6 
#
# 1 0.014526 -0.006919 0.004468 0.000000 0.000000 0.000000
# 2 -0.006919 0.009303 -0.003039 0.000000 0.000000 0.000000
# 3 0.004468 -0.003039 0.039726 0.000000 0.000000 0.000000
# 4 0.000000 0.000000 0.000000 -0.024081 0.000000 0.000000
# 5 0.000000 0.000000 0.000000 0.000000 0.003735 0.000000
# 6 0.000000 0.000000 0.000000 0.000000 0.000000 -0.004541
#
#
# Mechanical properties :
#
#
# Convention : Reuss Voigt Hill
#
# Bulk Modulus (GPa) = 19.02087 50.40590 34.71339
# Shear Modulus (GPa) = 74.43450 16.21521 45.32485
#
# Velocity S-wave (km/s) = 5.95258 2.77830 4.64501
# Velocity P-wave (km/s) = 7.50326 5.85549 6.73000
#
# Compressibility (1/GPa) = 0.05257383
#
# Stress axis : x y z
#
# Youngs Moduli (GPa) = 68.84335 107.49393 25.17213
#
# Poissons Ratio (x) = 0.74376 -0.11246
# Poissons Ratio (y) = 0.47634 0.07650
# Poissons Ratio (z) = -0.30758 0.32670
#
# Static dielectric constant tensor:
#      x y z
#    x 1.731390 0.000000 0.000000 
#    y 0.000000 1.764200 0.000000 
#    z 0.000000 0.000000 1.769640 
# 
# From -- ./inp_files/11871.got.cif
#   From: 2010.05.17/outbox.cif.g08.bks.cpg/sg65_6_cif.got.tgz:11871.got - 2010.06.03 17:01:31.
