data_PCOD9491882
_publ_section_title
;
Structure prediction by ZEFSAII (Michael W. Deem and Ramdas Pophale) SiO2 
 PCOD9491882
Probable space group: C M M M
;
_chemical_formula_sum "Si O2"
_cell_formula_units_Z 90
_cell_length_a 19.266578
_cell_length_b 20.101910
_cell_length_c 12.279911
_cell_angle_alpha 90.000000
_cell_angle_beta 90.000000
_cell_angle_gamma 90.000000
_cell_volume 4755.948339
_symmetry_space_group_name_H-M "C M M M"
_symmetry_group_IT_number 65
_symmetry_cell_setting 'orthorhombic'
loop_
_space_group_symop_operation_xyz
x,y,z
-x,-y,z
x,-y,-z
-x,y,-z
-x,-y,-z
x,y,-z
-x,y,z
x,-y,z
1/2+x,1/2+y,z
1/2-x,1/2-y,z
1/2+x,1/2-y,-z
1/2-x,1/2+y,-z
1/2-x,1/2-y,-z
1/2+x,1/2+y,-z
1/2-x,1/2+y,z
1/2+x,1/2-y,z
loop_
_atom_site_type_symbol
_atom_site_label
_atom_site_fract_x
_atom_site_fract_y
_atom_site_fract_z
Si Si1 0.918753 0.721534 0.877259
Si Si2 0.000000 0.500000 0.000000
Si Si3 0.582291 0.920209 0.500000
Si Si4 0.081367 0.141595 0.229761
Si Si5 0.709344 0.320429 0.627870
Si Si6 0.858066 0.500000 0.119601
Si Si7 0.658588 0.122453 0.721574
Si Si8 0.415715 0.500000 0.874866
O O1 0.914713 0.801046 0.862466
O O2 0.873727 0.685156 0.785940
O O3 0.000000 0.702423 0.863901
O O4 0.897760 0.702137 0.000000
O O5 0.939289 0.500000 0.907884
O O6 0.500000 0.907031 0.500000
O O7 0.616285 0.891137 0.389886
O O8 0.592895 0.000000 0.500000
O O9 0.133747 0.169028 0.320971
O O10 0.102798 0.068811 0.186080
O O11 0.000000 0.138614 0.264054
O O12 0.705701 0.333152 0.500000
O O13 0.750000 0.250000 0.641311
O O14 0.762166 0.369249 0.687253
O O15 0.844365 0.563545 0.192312
O O16 0.822782 0.500000 0.000000
O O17 0.500000 0.500000 0.878923
O O18 0.390734 0.500000 0.000000
#
# Coordination Sequence:
#
# PCOD9491882 Si02
#       8
#    16   2   8  16  16   8  16   8
#     4  10  21  36  61  92 128 165 208 262 318 377
#     4   8  24  40  64  94 132 192 206 258 322 372
#     4  11  24  38  61  92 127 166 215 268 304 369
#     4  10  21  41  66  98 125 163 219 267 319 398
#     4  11  24  44  64  89 129 172 208 269 341 387
#     4  10  24  38  61  92 131 172 216 254 314 376
#     4  12  22  40  60  90 127 168 219 260 317 383
#     4   9  18  37  67  95 128 161 198 258 327 383
#
# _framework density 18.923670999999999
#
# number of rings (size 3 to 8) (size 9 to 14) (size 15 to 20)
#    0.267    1.244    3.556    1.600    2.489    3.200 
#    0.000    6.667    0.000    1.600    0.000    0.000 
#    0.000    0.000    0.000    0.000    0.000    0.000 
#
# Total GULP energy -250700.269201 kJ/mol
# GULP energy per Si atom -5571.117093 kJ/mol
# Density = 1.888060 g / cm^3
# Si number density = 18.923671 Si / 1000 Ang^3
#
#
#
# Elastic Constant Matrix: (Units=GPa)
#
#
# Indices 1 2 3 4 5 6 
#
# 1 94.7179 31.8430 64.0512 0.0000 0.0000 0.0000
# 2 31.8430 102.8582 55.3216 0.0000 0.0000 0.0000
# 3 64.0512 55.3216 150.7271 0.0000 0.0000 0.0000
# 4 0.0000 0.0000 0.0000 40.6393 0.0000 0.0000
# 5 0.0000 0.0000 0.0000 0.0000 62.3901 0.0000
# 6 0.0000 0.0000 0.0000 0.0000 0.0000 688.0526
#
#
#
# Elastic Compliance Matrix: (Units=1/GPa)
#
#
# Indices 1 2 3 4 5 6 
#
# 1 0.015002 -0.001515 -0.005819 0.000000 0.000000 0.000000
# 2 -0.001515 0.012266 -0.003859 0.000000 0.000000 0.000000
# 3 -0.005819 -0.003859 0.010524 0.000000 0.000000 0.000000
# 4 0.000000 0.000000 0.000000 0.024607 0.000000 0.000000
# 5 0.000000 0.000000 0.000000 0.000000 0.016028 0.000000
# 6 0.000000 0.000000 0.000000 0.000000 0.000000 0.001453
#
#
# Mechanical properties :
#
#
# Convention : Reuss Voigt Hill
#
# Bulk Modulus (GPa) = 64.90411 72.30385 68.60398
# Shear Modulus (GPa) = 46.55486 171.35557 108.95521
#
# Velocity S-wave (km/s) = 4.96536 9.52615 7.59613
# Velocity P-wave (km/s) = 8.20033 12.62093 10.64268
#
# Compressibility (1/GPa) = 0.01540734
#
# Stress axis : x y z
#
# Youngs Moduli (GPa) = 66.65812 81.52438 95.02505
#
# Poissons Ratio (x) = 0.12347 0.55297
# Poissons Ratio (y) = 0.10096 0.36666
# Poissons Ratio (z) = 0.38789 0.31456
#
# Static dielectric constant tensor:
#      x y z
#    x 1.657310 0.000000 0.000000 
#    y 0.000000 1.715220 0.000000 
#    z 0.000000 0.000000 1.662210 
# 
# From -- ./inp_files/26895.got.cif
#   From: 2010.05.17/outbox.cif.g08.bks.cpg/sg65_14_cif.got.tgz:26895.got - 2010.06.03 17:01:31.
