data_PCOD9491695
_publ_section_title
;
Structure prediction by ZEFSAII (Michael W. Deem and Ramdas Pophale) SiO2 
 PCOD9491695
Probable space group: C M M M
;
_chemical_formula_sum "Si O2"
_cell_formula_units_Z 112
_cell_length_a 24.890649
_cell_length_b 16.220308
_cell_length_c 14.927025
_cell_angle_alpha 90.000000
_cell_angle_beta 90.000000
_cell_angle_gamma 90.000000
_cell_volume 6026.547408
_symmetry_space_group_name_H-M "C M M M"
_symmetry_group_IT_number 65
_symmetry_cell_setting 'orthorhombic'
loop_
_space_group_symop_operation_xyz
x,y,z
-x,-y,z
x,-y,-z
-x,y,-z
-x,-y,-z
x,y,-z
-x,y,z
x,-y,z
1/2+x,1/2+y,z
1/2-x,1/2-y,z
1/2+x,1/2-y,-z
1/2-x,1/2+y,-z
1/2-x,1/2-y,-z
1/2+x,1/2+y,-z
1/2-x,1/2+y,z
1/2+x,1/2-y,z
loop_
_atom_site_type_symbol
_atom_site_label
_atom_site_fract_x
_atom_site_fract_y
_atom_site_fract_z
Si Si1 0.936600 0.279858 0.244757
Si Si2 0.238715 0.590101 0.289232
Si Si3 0.351814 0.809589 0.396107
Si Si4 0.386219 0.902788 0.897409
Si Si5 0.656186 0.615390 0.600888
Si Si6 0.238421 0.347382 0.902241
Si Si7 0.563691 0.591371 0.739887
O O1 0.905414 0.307306 0.335130
O O2 0.918224 0.343045 0.168258
O O3 0.924287 0.183057 0.219017
O O4 0.000000 0.284942 0.258654
O O5 0.214005 0.500000 0.277348
O O6 0.194316 0.645653 0.338295
O O7 0.290717 0.585379 0.350675
O O8 0.259463 0.619164 0.191944
O O9 0.356666 0.839724 0.500000
O O10 0.337132 0.713820 0.400806
O O11 0.324585 0.870815 0.896996
O O12 0.388044 0.000000 0.873011
O O13 0.405627 0.895914 0.000000
O O14 0.652542 0.587241 0.500000
O O15 0.602684 0.592827 0.654605
O O16 0.250000 0.250000 0.901967
O O17 0.257836 0.379268 0.000000
O O18 0.500000 0.593385 0.718727
O O19 0.572922 0.500000 0.784505
#
# Coordination Sequence:
#
# PCOD9491695 Si02
#       7
#    16  16  16  16  16  16  16
#     4  10  21  37  60  87 115 152 198 246 296 351
#     4  12  23  34  54  83 116 151 190 235 285 346
#     4  10  21  37  56  77 111 156 195 235 288 345
#     4  10  21  39  63  90 120 151 189 242 299 350
#     4  10  21  36  54  80 113 150 194 240 285 339
#     4  10  21  37  59  84 111 148 188 228 280 344
#     4   9  19  36  57  82 114 154 198 242 291 346
#
# _framework density 18.584439
#
# number of rings (size 3 to 8) (size 9 to 14) (size 15 to 20)
#    0.000    1.857    1.429    2.571    2.000    5.143 
#    0.000    4.286    0.000    0.429    0.000    4.000 
#    0.000    0.000    0.000    0.000    0.000    0.143 
#
# Total GULP energy -311841.780767 kJ/mol
# GULP energy per Si atom -5568.603228 kJ/mol
# Density = 1.854214 g / cm^3
# Si number density = 18.584439 Si / 1000 Ang^3
#
#
#
# Elastic Constant Matrix: (Units=GPa)
#
#
# Indices 1 2 3 4 5 6 
#
# 1 45.3529 39.6574 22.6621 0.0000 0.0000 0.0000
# 2 39.6574 143.0835 73.2591 0.0000 0.0000 0.0000
# 3 22.6621 73.2591 77.9534 0.0000 0.0000 0.0000
# 4 0.0000 0.0000 0.0000 33.6103 0.0000 0.0000
# 5 0.0000 0.0000 0.0000 0.0000 6.3572 0.0000
# 6 0.0000 0.0000 0.0000 0.0000 0.0000 140.1862
#
#
#
# Elastic Compliance Matrix: (Units=1/GPa)
#
#
# Indices 1 2 3 4 5 6 
#
# 1 0.029219 -0.007227 -0.001703 0.000000 0.000000 0.000000
# 2 -0.007227 0.015258 -0.012238 0.000000 0.000000 0.000000
# 3 -0.001703 -0.012238 0.024824 0.000000 0.000000 0.000000
# 4 0.000000 0.000000 0.000000 0.029753 0.000000 0.000000
# 5 0.000000 0.000000 0.000000 0.000000 0.157301 0.000000
# 6 0.000000 0.000000 0.000000 0.000000 0.000000 0.007133
#
#
# Mechanical properties :
#
#
# Convention : Reuss Voigt Hill
#
# Bulk Modulus (GPa) = 37.08365 59.72745 48.40555
# Shear Modulus (GPa) = 15.88242 44.75148 30.31695
#
# Velocity S-wave (km/s) = 2.92654 4.91247 4.04333
# Velocity P-wave (km/s) = 5.60508 8.02401 6.92104
#
# Compressibility (1/GPa) = 0.02696606
#
# Stress axis : x y z
#
# Youngs Moduli (GPa) = 34.22395 65.54016 40.28280
#
# Poissons Ratio (x) = 0.47363 0.06861
# Poissons Ratio (y) = 0.24732 0.49299
# Poissons Ratio (z) = 0.05829 0.80209
#
# Static dielectric constant tensor:
#      x y z
#    x 1.615080 0.000000 0.000000 
#    y 0.000000 1.684850 0.000000 
#    z 0.000000 0.000000 1.661120 
# 
# From -- ./inp_files/40768.got.cif
#   From: 2010.05.17/outbox.cif.g08.bks.cpg/sg65_21_cif.got.tgz:40768.got - 2010.06.03 17:01:31.
