data_PCOD9491473
_publ_section_title
;
Structure prediction by ZEFSAII (Michael W. Deem and Ramdas Pophale) SiO2 
 PCOD9491473
Probable space group: C M M M
;
_chemical_formula_sum "Si O2"
_cell_formula_units_Z 80
_cell_length_a 8.750956
_cell_length_b 29.126597
_cell_length_c 18.903634
_cell_angle_alpha 90.000000
_cell_angle_beta 90.000000
_cell_angle_gamma 90.000000
_cell_volume 4818.263504
_symmetry_space_group_name_H-M "C M M M"
_symmetry_group_IT_number 65
_symmetry_cell_setting 'orthorhombic'
loop_
_space_group_symop_operation_xyz
x,y,z
-x,-y,z
x,-y,-z
-x,y,-z
-x,-y,-z
x,y,-z
-x,y,z
x,-y,z
1/2+x,1/2+y,z
1/2-x,1/2-y,z
1/2+x,1/2-y,-z
1/2-x,1/2+y,-z
1/2-x,1/2-y,-z
1/2+x,1/2+y,-z
1/2-x,1/2+y,z
1/2+x,1/2-y,z
loop_
_atom_site_type_symbol
_atom_site_label
_atom_site_fract_x
_atom_site_fract_y
_atom_site_fract_z
Si Si1 0.326216 0.444306 0.000000
Si Si2 0.683525 0.198645 0.919913
Si Si3 0.815936 0.801400 0.500000
Si Si4 0.684712 0.301445 0.654809
Si Si5 0.683167 0.640399 0.790804
Si Si6 0.317561 0.053317 0.849970
O O1 0.239739 0.432217 0.071863
O O2 0.332325 0.500000 0.000000
O O3 0.500000 0.426809 0.000000
O O4 0.500000 0.199930 0.913879
O O5 0.750000 0.250000 0.912241
O O6 0.751828 0.167377 0.858580
O O7 0.722109 0.182775 0.000000
O O8 0.750000 0.750000 0.500000
O O9 0.769904 0.820528 0.423075
O O10 0.000000 0.799728 0.500000
O O11 0.500000 0.298292 0.656705
O O12 0.750000 0.250000 0.662717
O O13 0.733134 0.333284 0.719759
O O14 0.500000 0.640564 0.793934
O O15 0.743700 0.588627 0.795635
O O16 0.500000 0.056459 0.848003
O O17 0.273785 0.000000 0.838840
#
# Coordination Sequence:
#
# PCOD9491473 Si02
#       6
#     8  16   8  16  16  16
#     4   9  17  31  51  71  90 115 150 197 249 295
#     4  10  21  36  51  67  92 128 168 206 243 284
#     4   8  14  28  48  70  99 130 159 191 234 285
#     4   9  18  31  49  74 102 132 162 196 237 286
#     4  11  22  33  49  73  99 128 164 203 248 294
#     4  10  21  36  52  70  94 125 162 205 253 300
#
# _framework density 16.603491999999999
#
# number of rings (size 3 to 8) (size 9 to 14) (size 15 to 20)
#    0.000    2.300    0.000    2.700    1.400    6.800 
#    0.000    0.000    0.000    0.000    0.000    0.700 
#    0.000    5.600    0.000    0.000    0.000    0.000 
#
# Total GULP energy -223117.546405 kJ/mol
# GULP energy per Si atom -5577.938660 kJ/mol
# Density = 1.656570 g / cm^3
# Si number density = 16.603492 Si / 1000 Ang^3
#
#
#
# Elastic Constant Matrix: (Units=GPa)
#
#
# Indices 1 2 3 4 5 6 
#
# 1 39.7473 27.2458 39.4655 0.0000 0.0000 0.0000
# 2 27.2458 83.3339 77.1126 0.0000 0.0000 0.0000
# 3 39.4655 77.1126 146.2201 0.0000 0.0000 0.0000
# 4 0.0000 0.0000 0.0000 9.7887 0.0000 0.0000
# 5 0.0000 0.0000 0.0000 0.0000 16.0823 0.0000
# 6 0.0000 0.0000 0.0000 0.0000 0.0000 25.0247
#
#
#
# Elastic Compliance Matrix: (Units=1/GPa)
#
#
# Indices 1 2 3 4 5 6 
#
# 1 0.035555 -0.005361 -0.006769 0.000000 0.000000 0.000000
# 2 -0.005361 0.024246 -0.011340 0.000000 0.000000 0.000000
# 3 -0.006769 -0.011340 0.014646 0.000000 0.000000 0.000000
# 4 0.000000 0.000000 0.000000 0.102158 0.000000 0.000000
# 5 0.000000 0.000000 0.000000 0.000000 0.062180 0.000000
# 6 0.000000 0.000000 0.000000 0.000000 0.000000 0.039961
#
#
# Mechanical properties :
#
#
# Convention : Reuss Voigt Hill
#
# Bulk Modulus (GPa) = 36.35356 61.88323 49.11839
# Shear Modulus (GPa) = 14.93187 18.54431 16.73809
#
# Velocity S-wave (km/s) = 3.00212 3.34562 3.17851
# Velocity P-wave (km/s) = 5.82749 7.23024 6.56643
#
# Compressibility (1/GPa) = 0.02750762
#
# Stress axis : x y z
#
# Youngs Moduli (GPa) = 28.12552 41.24460 68.27646
#
# Poissons Ratio (x) = 0.22109 0.46219
# Poissons Ratio (y) = 0.15077 0.77423
# Poissons Ratio (z) = 0.19039 0.46770
#
# Static dielectric constant tensor:
#      x y z
#    x 1.558400 0.000000 0.000000 
#    y 0.000000 1.559360 0.000000 
#    z 0.000000 0.000000 1.579680 
# 
# From -- ./inp_files/50215.got.cif
#   From: 2010.05.17/outbox.cif.g08.bks.cpg/sg65_26_cif.got.tgz:50215.got - 2010.06.03 17:01:31.
