data_PCOD9491377
_publ_section_title
;
Structure prediction by ZEFSAII (Michael W. Deem and Ramdas Pophale) SiO2 
 PCOD9491377
Probable space group: C M M M
;
_chemical_formula_sum "Si O2"
_cell_formula_units_Z 88
_cell_length_a 24.915767
_cell_length_b 20.653002
_cell_length_c 7.480057
_cell_angle_alpha 90.000000
_cell_angle_beta 90.000000
_cell_angle_gamma 90.000000
_cell_volume 3849.128016
_symmetry_space_group_name_H-M "C M M M"
_symmetry_group_IT_number 65
_symmetry_cell_setting 'orthorhombic'
loop_
_space_group_symop_operation_xyz
x,y,z
-x,-y,z
x,-y,-z
-x,y,-z
-x,-y,-z
x,y,-z
-x,y,z
x,-y,z
1/2+x,1/2+y,z
1/2-x,1/2-y,z
1/2+x,1/2-y,-z
1/2-x,1/2+y,-z
1/2-x,1/2-y,-z
1/2+x,1/2+y,-z
1/2-x,1/2+y,z
1/2+x,1/2-y,z
loop_
_atom_site_type_symbol
_atom_site_label
_atom_site_fract_x
_atom_site_fract_y
_atom_site_fract_z
Si Si1 0.246263 0.824282 0.281480
Si Si2 0.675639 0.931202 0.293628
Si Si3 0.559024 0.896868 0.204735
Si Si4 0.560772 0.252353 0.713708
Si Si5 0.630411 0.627032 0.718041
Si Si6 0.063143 0.000000 0.718513
O O1 0.246087 0.820316 0.500000
O O2 0.250000 0.750000 0.219439
O O3 0.296464 0.867289 0.219359
O O4 0.192286 0.863009 0.229835
O O5 0.693030 0.933342 0.500000
O O6 0.611672 0.925183 0.292050
O O7 0.691175 0.000000 0.210365
O O8 0.500000 0.911252 0.282287
O O9 0.565602 0.819066 0.208273
O O10 0.558986 0.918650 0.000000
O O11 0.568280 0.244443 0.500000
O O12 0.500000 0.275313 0.744541
O O13 0.600746 0.307328 0.776606
O O14 0.629191 0.625707 0.500000
O O15 0.596861 0.563779 0.774959
O O16 0.062229 0.000000 0.500000
O O17 0.000000 0.000000 0.773818
#
# Coordination Sequence:
#
# PCOD9491377 Si02
#       6
#    16  16  16  16  16   8
#     4   9  17  29  47  71 100 134 173 213 255 303
#     4  10  21  35  53  77 105 135 171 213 254 302
#     4  10  21  36  54  76 101 131 168 210 260 315
#     4   9  16  28  49  76 104 135 173 215 257 301
#     4   9  16  25  43  69 103 141 172 210 261 309
#     4   9  16  24  36  64 107 145 174 207 256 318
#
# _framework density 22.862321000000001
#
# number of rings (size 3 to 8) (size 9 to 14) (size 15 to 20)
#    0.000    2.636    0.000    2.182    1.273    6.909 
#    0.000    1.818    0.000    4.909    0.000    0.636 
#    0.000    3.636    0.000    0.000    0.000    0.000 
#
# Total GULP energy -245642.191479 kJ/mol
# GULP energy per Si atom -5582.777079 kJ/mol
# Density = 2.281029 g / cm^3
# Si number density = 22.862321 Si / 1000 Ang^3
#
#
#
# Elastic Constant Matrix: (Units=GPa)
#
#
# Indices 1 2 3 4 5 6 
#
# 1 128.7621 84.7085 10.0166 0.0000 0.0000 0.0000
# 2 84.7085 155.9873 2.1632 0.0000 0.0000 0.0000
# 3 10.0166 2.1632 51.9229 0.0000 0.0000 0.0000
# 4 0.0000 0.0000 0.0000 8.0247 0.0000 0.0000
# 5 0.0000 0.0000 0.0000 0.0000 -69.8387 0.0000
# 6 0.0000 0.0000 0.0000 0.0000 0.0000 26.4203
#
#
#
# Elastic Compliance Matrix: (Units=1/GPa)
#
#
# Indices 1 2 3 4 5 6 
#
# 1 0.012307 -0.006654 -0.002097 0.000000 0.000000 0.000000
# 2 -0.006654 0.010012 0.000867 0.000000 0.000000 0.000000
# 3 -0.002097 0.000867 0.019628 0.000000 0.000000 0.000000
# 4 0.000000 0.000000 0.000000 0.124615 0.000000 0.000000
# 5 0.000000 0.000000 0.000000 0.000000 -0.014319 0.000000
# 6 0.000000 0.000000 0.000000 0.000000 0.000000 0.037850
#
#
# Mechanical properties :
#
#
# Convention : Reuss Voigt Hill
#
# Bulk Modulus (GPa) = 38.20026 58.93877 48.56952
# Shear Modulus (GPa) = 23.30042 8.90687 16.10364
#
# Velocity S-wave (km/s) = 3.19590 1.97594 2.65689
# Velocity P-wave (km/s) = 5.51030 5.57150 5.54099
#
# Compressibility (1/GPa) = 0.02617783
#
# Stress axis : x y z
#
# Youngs Moduli (GPa) = 81.25482 99.87712 50.94831
#
# Poissons Ratio (x) = 0.66460 0.10684
# Poissons Ratio (y) = 0.54068 -0.04415
# Poissons Ratio (z) = 0.17039 -0.08655
#
# Static dielectric constant tensor:
#      x y z
#    x 1.831130 0.000000 0.000000 
#    y 0.000000 1.841230 0.000000 
#    z 0.000000 0.000000 1.877360 
# 
# From -- ./inp_files/11774.got.cif
#   From: 2010.05.17/outbox.cif.g08.bks.cpg/sg65_6_cif.got.tgz:11774.got - 2010.06.03 17:01:31.
