data_PCOD9491135
_publ_section_title
;
Structure prediction by ZEFSAII (Michael W. Deem and Ramdas Pophale) SiO2 
 PCOD9491135
Probable space group: C M M M
;
_chemical_formula_sum "Si O2"
_cell_formula_units_Z 72
_cell_length_a 19.860937
_cell_length_b 20.853698
_cell_length_c 7.311001
_cell_angle_alpha 90.000000
_cell_angle_beta 90.000000
_cell_angle_gamma 90.000000
_cell_volume 3028.026398
_symmetry_space_group_name_H-M "C M M M"
_symmetry_group_IT_number 65
_symmetry_cell_setting 'orthorhombic'
loop_
_space_group_symop_operation_xyz
x,y,z
-x,-y,z
x,-y,-z
-x,y,-z
-x,-y,-z
x,y,-z
-x,y,z
x,-y,z
1/2+x,1/2+y,z
1/2-x,1/2-y,z
1/2+x,1/2-y,-z
1/2-x,1/2+y,-z
1/2-x,1/2-y,-z
1/2+x,1/2+y,-z
1/2-x,1/2+y,z
1/2+x,1/2-y,z
loop_
_atom_site_type_symbol
_atom_site_label
_atom_site_fract_x
_atom_site_fract_y
_atom_site_fract_z
Si Si1 0.080679 0.930550 0.780059
Si Si2 0.852686 0.572444 0.275285
Si Si3 0.000000 0.577676 0.294380
Si Si4 0.199899 0.699474 0.710556
Si Si5 0.578086 0.288957 0.221392
O O1 0.103594 0.859984 0.717394
O O2 0.000000 0.930557 0.745195
O O3 0.107198 0.000000 0.713005
O O4 0.088806 0.930934 0.000000
O O5 0.855364 0.572364 0.500000
O O6 0.837135 0.500000 0.219751
O O7 0.927832 0.591815 0.210908
O O8 0.803638 0.628188 0.212564
O O9 0.000000 0.500000 0.307835
O O10 0.000000 0.604688 0.500000
O O11 0.221057 0.691108 0.500000
O O12 0.250000 0.750000 0.798602
O O13 0.127009 0.733100 0.713852
O O14 0.500000 0.280691 0.276928
O O15 0.578877 0.288606 0.000000
#
# Coordination Sequence:
#
# PCOD9491135 Si02
#       5
#    16  16   8  16  16
#     4   7  10  20  41  67  92 118 153 197 234 268
#     4   8  14  26  45  67  92 124 165 208 242 281
#     4   7  10  18  36  64  87 105 146 203 242 268
#     4  10  21  34  48  71 103 133 164 201 246 302
#     4   9  18  32  51  75  99 126 164 205 248 299
#
# _framework density 23.777864000000001
#
# number of rings (size 3 to 8) (size 9 to 14) (size 15 to 20)
#    0.000    3.667    0.000    3.333    1.556    0.889 
#    0.000    1.111    0.000    2.667    0.000    4.667 
#    0.000    0.000    0.000    0.000    0.000    0.000 
#
# Total GULP energy -200697.380197 kJ/mol
# GULP energy per Si atom -5574.927228 kJ/mol
# Density = 2.372374 g / cm^3
# Si number density = 23.777864 Si / 1000 Ang^3
#
#
#
# Elastic Constant Matrix: (Units=GPa)
#
#
# Indices 1 2 3 4 5 6 
#
# 1 49.4139 54.0036 -0.5500 0.0000 0.0000 0.0000
# 2 54.0036 189.1108 0.0750 0.0000 0.0000 0.0000
# 3 -0.5500 0.0750 100.2126 0.0000 0.0000 0.0000
# 4 0.0000 0.0000 0.0000 0.0108 0.0000 0.0000
# 5 0.0000 0.0000 0.0000 0.0000 -2.2706 0.0000
# 6 0.0000 0.0000 0.0000 0.0000 0.0000 31.8289
#
#
#
# Elastic Compliance Matrix: (Units=1/GPa)
#
#
# Indices 1 2 3 4 5 6 
#
# 1 0.029421 -0.008402 0.000168 0.000000 0.000000 0.000000
# 2 -0.008402 0.007687 -0.000052 0.000000 0.000000 0.000000
# 3 0.000168 -0.000052 0.009980 0.000000 0.000000 0.000000
# 4 0.000000 0.000000 0.000000 92.789658 0.000000 0.000000
# 5 0.000000 0.000000 0.000000 0.000000 -0.440422 0.000000
# 6 0.000000 0.000000 0.000000 0.000000 0.000000 0.031418
#
#
# Mechanical properties :
#
#
# Convention : Reuss Voigt Hill
#
# Bulk Modulus (GPa) = 32.76926 49.53274 41.15100
# Shear Modulus (GPa) = 0.05408 24.92773 12.49091
#
# Velocity S-wave (km/s) = 0.15098 3.24135 2.29447
# Velocity P-wave (km/s) = 3.72045 5.90636 4.93593
#
# Compressibility (1/GPa) = 0.03051641
#
# Stress axis : x y z
#
# Youngs Moduli (GPa) = 33.98906 130.08672 100.20300
#
# Poissons Ratio (x) = 1.09296 -0.01681
# Poissons Ratio (y) = 0.28557 0.00520
# Poissons Ratio (z) = -0.00570 0.00675
#
# Static dielectric constant tensor:
#      x y z
#    x 1.886890 0.000000 0.000000 
#    y 0.000000 1.940940 0.000000 
#    z 0.000000 0.000000 1.890320 
# 
# From -- ./inp_files/26549.got.cif
#   From: 2010.05.17/outbox.cif.g08.bks.cpg/sg65_14_cif.got.tgz:26549.got - 2010.06.03 17:01:31.
