data_PCOD9491712
_publ_section_title
;
Structure prediction by ZEFSAII (Michael W. Deem and Ramdas Pophale) SiO2 
 PCOD9491712
Probable space group: C M M M
;
_chemical_formula_sum "Si O2"
_cell_formula_units_Z 72
_cell_length_a 18.939644
_cell_length_b 9.162648
_cell_length_c 23.379358
_cell_angle_alpha 90.000000
_cell_angle_beta 90.000000
_cell_angle_gamma 90.000000
_cell_volume 4057.190458
_symmetry_space_group_name_H-M "C M M M"
_symmetry_group_IT_number 65
_symmetry_cell_setting 'orthorhombic'
loop_
_space_group_symop_operation_xyz
x,y,z
-x,-y,z
x,-y,-z
-x,y,-z
-x,-y,-z
x,y,-z
-x,y,z
x,-y,z
1/2+x,1/2+y,z
1/2-x,1/2-y,z
1/2+x,1/2-y,-z
1/2-x,1/2+y,-z
1/2-x,1/2-y,-z
1/2+x,1/2+y,-z
1/2-x,1/2+y,z
1/2+x,1/2-y,z
loop_
_atom_site_type_symbol
_atom_site_label
_atom_site_fract_x
_atom_site_fract_y
_atom_site_fract_z
Si Si1 0.826280 0.824840 0.000000
Si Si2 0.824900 0.326952 0.340744
Si Si3 0.915419 0.171716 0.564468
Si Si4 0.174151 0.325838 0.208137
Si Si5 0.417189 0.324753 0.887645
O O1 0.750000 0.750000 0.000000
O O2 0.871836 0.786625 0.943907
O O3 0.816693 0.000000 0.000000
O O4 0.817583 0.500000 0.347377
O O5 0.750000 0.250000 0.350476
O O6 0.879316 0.263593 0.386190
O O7 0.845078 0.297927 0.274563
O O8 0.893253 0.215313 0.500000
O O9 0.000000 0.185527 0.567331
O O10 0.898410 0.000000 0.571539
O O11 0.180593 0.500000 0.199981
O O12 0.250000 0.250000 0.197351
O O13 0.116985 0.258033 0.165729
O O14 0.500000 0.290626 0.895139
O O15 0.411405 0.500000 0.879294
#
# Coordination Sequence:
#
# PCOD9491712 Si02
#       5
#     8  16  16  16  16
#     4  10  21  37  57  81 109 142 181 222 264 314
#     4  10  21  36  55  79 107 140 178 221 267 315
#     4   9  19  36  56  78 106 140 177 218 265 318
#     4  10  21  37  56  79 108 141 179 222 266 316
#     4  10  21  37  57  81 110 144 180 219 265 316
#
# _framework density 17.746269999999999
#
# number of rings (size 3 to 8) (size 9 to 14) (size 15 to 20)
#    0.000    2.222    0.000    3.000    0.000    9.333 
#    0.000    5.556    0.000    2.000    0.000    0.000 
#    0.000    0.000    0.000    0.000    0.000    0.000 
#
# Total GULP energy -200982.569229 kJ/mol
# GULP energy per Si atom -5582.849145 kJ/mol
# Density = 1.770588 g / cm^3
# Si number density = 17.746270 Si / 1000 Ang^3
#
#
#
# Elastic Constant Matrix: (Units=GPa)
#
#
# Indices 1 2 3 4 5 6 
#
# 1 117.5509 63.8974 93.2602 0.0000 0.0000 0.0000
# 2 63.8974 63.3491 75.9281 0.0000 0.0000 0.0000
# 3 93.2602 75.9281 127.8589 0.0000 0.0000 0.0000
# 4 0.0000 0.0000 0.0000 31.8744 0.0000 0.0000
# 5 0.0000 0.0000 0.0000 0.0000 43.2451 0.0000
# 6 0.0000 0.0000 0.0000 0.0000 0.0000 36.8533
#
#
#
# Elastic Compliance Matrix: (Units=1/GPa)
#
#
# Indices 1 2 3 4 5 6 
#
# 1 0.021951 -0.010237 -0.009932 0.000000 0.000000 0.000000
# 2 -0.010237 0.059539 -0.027890 0.000000 0.000000 0.000000
# 3 -0.009932 -0.027890 0.031628 0.000000 0.000000 0.000000
# 4 0.000000 0.000000 0.000000 0.031373 0.000000 0.000000
# 5 0.000000 0.000000 0.000000 0.000000 0.023124 0.000000
# 6 0.000000 0.000000 0.000000 0.000000 0.000000 0.027135
#
#
# Mechanical properties :
#
#
# Convention : Reuss Voigt Hill
#
# Bulk Modulus (GPa) = 58.82319 86.10337 72.46328
# Shear Modulus (GPa) = 16.86141 27.43945 22.15043
#
# Velocity S-wave (km/s) = 3.08578 3.93645 3.53678
# Velocity P-wave (km/s) = 6.77604 8.32378 7.58947
#
# Compressibility (1/GPa) = 0.01700010
#
# Stress axis : x y z
#
# Youngs Moduli (GPa) = 45.55577 16.79562 31.61763
#
# Poissons Ratio (x) = 0.17194 0.31403
# Poissons Ratio (y) = 0.46635 0.88182
# Poissons Ratio (z) = 0.45246 0.46843
#
# Static dielectric constant tensor:
#      x y z
#    x 1.573210 0.000000 0.000000 
#    y 0.000000 1.588610 0.000000 
#    z 0.000000 0.000000 1.599520 
# 
# From -- ./inp_files/59226.got.cif
#   From: 2010.05.17/outbox.cif.g08.bks.cpg/sg65_30_cif.got.tgz:59226.got - 2010.06.03 17:01:31.
