data_PCOD9491469
_publ_section_title
;
Structure prediction by ZEFSAII (Michael W. Deem and Ramdas Pophale) SiO2 
 PCOD9491469
Probable space group: C M M M
;
_chemical_formula_sum "Si O2"
_cell_formula_units_Z 104
_cell_length_a 33.182075
_cell_length_b 21.497831
_cell_length_c 7.447078
_cell_angle_alpha 90.000000
_cell_angle_beta 90.000000
_cell_angle_gamma 90.000000
_cell_volume 5312.318285
_symmetry_space_group_name_H-M "C M M M"
_symmetry_group_IT_number 65
_symmetry_cell_setting 'orthorhombic'
loop_
_space_group_symop_operation_xyz
x,y,z
-x,-y,z
x,-y,-z
-x,y,-z
-x,-y,-z
x,y,-z
-x,y,z
x,-y,z
1/2+x,1/2+y,z
1/2-x,1/2-y,z
1/2+x,1/2-y,-z
1/2-x,1/2+y,-z
1/2-x,1/2-y,-z
1/2+x,1/2+y,-z
1/2-x,1/2+y,z
1/2+x,1/2-y,z
loop_
_atom_site_type_symbol
_atom_site_label
_atom_site_fract_x
_atom_site_fract_y
_atom_site_fract_z
Si Si1 0.807295 0.069181 0.214451
Si Si2 0.500000 0.069842 0.279809
Si Si3 0.133995 0.182505 0.711920
Si Si4 0.713695 0.070234 0.289289
Si Si5 0.955671 0.198334 0.718509
Si Si6 0.657771 0.818358 0.718866
Si Si7 0.567102 0.162286 0.282618
O O1 0.837987 0.123035 0.266115
O O2 0.761568 0.081110 0.275595
O O3 0.818991 0.000000 0.279686
O O4 0.806271 0.067567 0.000000
O O5 0.500000 0.070036 0.500000
O O6 0.539122 0.107167 0.220026
O O7 0.500000 0.000000 0.218747
O O8 0.128761 0.194035 0.500000
O O9 0.087998 0.172207 0.780238
O O10 0.155863 0.245875 0.780300
O O11 0.703165 0.066851 0.500000
O O12 0.690020 0.130576 0.216387
O O13 0.705729 0.000000 0.214982
O O14 0.956560 0.193461 0.500000
O O15 0.951325 0.271109 0.767511
O O16 0.000000 0.175454 0.780196
O O17 0.661600 0.816397 0.500000
O O18 0.613402 0.842443 0.769346
O O19 0.566757 0.162084 0.500000
#
# Coordination Sequence:
#
# PCOD9491469 Si02
#       7
#    16   8  16  16  16  16  16
#     4  10  21  36  51  66  88 117 147 184 232 285
#     4   9  14  16  22  42  76 120 160 185 210 252
#     4   9  17  29  48  73  95 118 152 190 226 266
#     4   9  17  30  48  67  89 123 162 192 222 265
#     4   8  12  21  40  63  87 114 145 181 218 256
#     4   8  15  26  41  64  92 119 151 192 231 262
#     4   8  12  19  30  48  80 118 150 181 218 257
#
# _framework density 19.577138999999999
#
# number of rings (size 3 to 8) (size 9 to 14) (size 15 to 20)
#    0.000    3.308    0.769    2.308    0.000    2.154 
#    0.000    6.923    0.000    0.923    0.000    3.231 
#    0.000    0.000    0.000    0.000    0.000   16.231 
#
# Total GULP energy -289515.395126 kJ/mol
# GULP energy per Si atom -5567.603752 kJ/mol
# Density = 1.953258 g / cm^3
# Si number density = 19.577139 Si / 1000 Ang^3
#
#
#
# Elastic Constant Matrix: (Units=GPa)
#
#
# Indices 1 2 3 4 5 6 
#
# 1 140.1419 109.5764 -4.4484 0.0000 0.0000 0.0000
# 2 109.5764 142.3975 -1.5363 0.0000 0.0000 0.0000
# 3 -4.4484 -1.5363 55.1906 0.0000 0.0000 0.0000
# 4 0.0000 0.0000 0.0000 -623.2754 0.0000 0.0000
# 5 0.0000 0.0000 0.0000 0.0000 -50.3810 0.0000
# 6 0.0000 0.0000 0.0000 0.0000 0.0000 24.6621
#
#
#
# Elastic Compliance Matrix: (Units=1/GPa)
#
#
# Indices 1 2 3 4 5 6 
#
# 1 0.017976 -0.013822 0.001064 0.000000 0.000000 0.000000
# 2 -0.013822 0.017652 -0.000623 0.000000 0.000000 0.000000
# 3 0.001064 -0.000623 0.018187 0.000000 0.000000 0.000000
# 4 0.000000 0.000000 0.000000 -0.001604 0.000000 0.000000
# 5 0.000000 0.000000 0.000000 0.000000 -0.019849 0.000000
# 6 0.000000 0.000000 0.000000 0.000000 0.000000 0.040548
#
#
# Mechanical properties :
#
#
# Convention : Reuss Voigt Hill
#
# Bulk Modulus (GPa) = 36.96106 60.54592 48.75349
# Shear Modulus (GPa) = 46.00269 -114.18964 -34.09347
#
# Velocity S-wave (km/s) = 4.85275 -7.64557 -4.17765
# Velocity P-wave (km/s) = 7.09363 6.85168 1.29885
#
# Compressibility (1/GPa) = 0.02705550
#
# Stress axis : x y z
#
# Youngs Moduli (GPa) = 55.62829 56.65157 54.98287
#
# Poissons Ratio (x) = 0.78302 -0.05851
# Poissons Ratio (y) = 0.76887 0.03424
# Poissons Ratio (z) = -0.05920 0.03528
#
# Static dielectric constant tensor:
#      x y z
#    x 1.689820 0.000000 0.000000 
#    y 0.000000 1.608480 0.000000 
#    z 0.000000 0.000000 1.770930 
# 
# From -- ./inp_files/18860.got.cif
#   From: 2010.05.17/outbox.cif.g08.bks.cpg/sg65_10_cif.got.tgz:18860.got - 2010.06.03 17:01:31.
