data_PCOD9491770
_publ_section_title
;
Structure prediction by ZEFSAII (Michael W. Deem and Ramdas Pophale) SiO2 
 PCOD9491770
Probable space group: C M M M
;
_chemical_formula_sum "Si O2"
_cell_formula_units_Z 104
_cell_length_a 29.745460
_cell_length_b 8.848411
_cell_length_c 20.451774
_cell_angle_alpha 90.000000
_cell_angle_beta 90.000000
_cell_angle_gamma 90.000000
_cell_volume 5382.908051
_symmetry_space_group_name_H-M "C M M M"
_symmetry_group_IT_number 65
_symmetry_cell_setting 'orthorhombic'
loop_
_space_group_symop_operation_xyz
x,y,z
-x,-y,z
x,-y,-z
-x,y,-z
-x,-y,-z
x,y,-z
-x,y,z
x,-y,z
1/2+x,1/2+y,z
1/2-x,1/2-y,z
1/2+x,1/2-y,-z
1/2-x,1/2+y,-z
1/2-x,1/2-y,-z
1/2+x,1/2+y,-z
1/2-x,1/2+y,z
1/2+x,1/2-y,z
loop_
_atom_site_type_symbol
_atom_site_label
_atom_site_fract_x
_atom_site_fract_y
_atom_site_fract_z
Si Si1 0.051829 0.680367 0.862214
Si Si2 0.951766 0.320502 0.579228
Si Si3 0.700658 0.682103 0.925754
Si Si4 0.646875 0.182669 0.576869
Si Si5 0.136149 0.181705 0.807404
Si Si6 0.702016 0.319508 0.689815
Si Si7 0.445554 0.670391 0.000000
O O1 0.053173 0.500000 0.864049
O O2 0.087417 0.743816 0.810995
O O3 0.000000 0.726892 0.849898
O O4 0.065890 0.745266 0.933206
O O5 0.951589 0.308868 0.500000
O O6 0.952119 0.500000 0.593915
O O7 0.902905 0.262289 0.600022
O O8 0.000000 0.256818 0.602411
O O9 0.704017 0.500000 0.923057
O O10 0.750000 0.750000 0.913111
O O11 0.665196 0.729527 0.870928
O O12 0.687290 0.724567 0.000000
O O13 0.651802 0.217903 0.500000
O O14 0.684761 0.256113 0.620984
O O15 0.648060 0.000000 0.582836
O O16 0.165072 0.222683 0.744110
O O17 0.131255 0.000000 0.809615
O O18 0.705576 0.500000 0.688057
O O19 0.750000 0.250000 0.707137
O O20 0.426934 0.500000 0.000000
O O21 0.500000 0.662030 0.000000
#
# Coordination Sequence:
#
# PCOD9491770 Si02
#       7
#    16  16  16  16  16  16   8
#     4  10  21  36  55  83 117 150 191 242 286 329
#     4   7  10  20  43  76 110 140 171 210 256 309
#     4   9  18  33  53  78 106 135 174 225 274 325
#     4   9  18  34  58  87 116 147 187 234 284 340
#     4  10  22  38  57  81 109 147 190 228 277 343
#     4  11  24  41  60  82 110 145 187 234 286 348
#     4   9  17  31  53  79 110 151 192 231 281 335
#
# _framework density 19.320412000000001
#
# number of rings (size 3 to 8) (size 9 to 14) (size 15 to 20)
#    0.000    2.692    0.000    3.000    1.077    4.308 
#    0.000    0.769    0.000    3.231    0.000    2.154 
#    0.000    0.000    0.000    0.000    0.000    0.000 
#
# Total GULP energy -290031.157904 kJ/mol
# GULP energy per Si atom -5577.522267 kJ/mol
# Density = 1.927644 g / cm^3
# Si number density = 19.320412 Si / 1000 Ang^3
#
#
#
# Elastic Constant Matrix: (Units=GPa)
#
#
# Indices 1 2 3 4 5 6 
#
# 1 116.7158 40.9677 58.5416 0.0000 0.0000 0.0000
# 2 40.9677 26.7781 33.3431 0.0000 0.0000 0.0000
# 3 58.5416 33.3431 68.0807 0.0000 0.0000 0.0000
# 4 0.0000 0.0000 0.0000 13.4834 0.0000 0.0000
# 5 0.0000 0.0000 0.0000 0.0000 31.6658 0.0000
# 6 0.0000 0.0000 0.0000 0.0000 0.0000 22.7244
#
#
#
# Elastic Compliance Matrix: (Units=1/GPa)
#
#
# Indices 1 2 3 4 5 6 
#
# 1 0.019266 -0.022675 -0.005462 0.000000 0.000000 0.000000
# 2 -0.022675 0.122398 -0.040448 0.000000 0.000000 0.000000
# 3 -0.005462 -0.040448 0.039194 0.000000 0.000000 0.000000
# 4 0.000000 0.000000 0.000000 0.074165 0.000000 0.000000
# 5 0.000000 0.000000 0.000000 0.000000 0.031580 0.000000
# 6 0.000000 0.000000 0.000000 0.000000 0.000000 0.044006
#
#
# Mechanical properties :
#
#
# Convention : Reuss Voigt Hill
#
# Bulk Modulus (GPa) = 22.88833 53.03104 37.95969
# Shear Modulus (GPa) = 10.36613 18.82288 14.59450
#
# Velocity S-wave (km/s) = 2.31884 3.12468 2.75142
# Velocity P-wave (km/s) = 4.36369 6.36600 5.45746
#
# Compressibility (1/GPa) = 0.04369039
#
# Stress axis : x y z
#
# Youngs Moduli (GPa) = 51.90485 8.17008 25.51386
#
# Poissons Ratio (x) = 0.18525 0.13934
# Poissons Ratio (y) = 1.17692 1.03198
# Poissons Ratio (z) = 0.28348 0.33046
#
# Static dielectric constant tensor:
#      x y z
#    x 1.706700 0.000000 0.000000 
#    y 0.000000 1.646720 0.000000 
#    z 0.000000 0.000000 1.672610 
# 
# From -- ./inp_files/65935.got.cif
#   From: 2010.05.17/outbox.cif.g08.bks.cpg/sg65_33_cif.got.tgz:65935.got - 2010.06.03 17:01:31.
