data_PCOD9491718
_publ_section_title
;
Structure prediction by ZEFSAII (Michael W. Deem and Ramdas Pophale) SiO2 
 PCOD9491718
Probable space group: C M M M
;
_chemical_formula_sum "Si O2"
_cell_formula_units_Z 104
_cell_length_a 8.204147
_cell_length_b 29.225781
_cell_length_c 21.280109
_cell_angle_alpha 90.000000
_cell_angle_beta 90.000000
_cell_angle_gamma 90.000000
_cell_volume 5102.387138
_symmetry_space_group_name_H-M "C M M M"
_symmetry_group_IT_number 65
_symmetry_cell_setting 'orthorhombic'
loop_
_space_group_symop_operation_xyz
x,y,z
-x,-y,z
x,-y,-z
-x,y,-z
-x,-y,-z
x,y,-z
-x,y,z
x,-y,z
1/2+x,1/2+y,z
1/2-x,1/2-y,z
1/2+x,1/2-y,-z
1/2-x,1/2+y,-z
1/2-x,1/2-y,-z
1/2+x,1/2+y,-z
1/2-x,1/2+y,z
1/2+x,1/2-y,z
loop_
_atom_site_type_symbol
_atom_site_label
_atom_site_fract_x
_atom_site_fract_y
_atom_site_fract_z
Si Si1 0.197591 0.400177 0.369843
Si Si2 0.303607 0.800468 0.572939
Si Si3 0.696741 0.123173 0.229079
Si Si4 0.694426 0.952052 0.863498
Si Si5 0.694312 0.699209 0.138986
Si Si6 0.184854 0.933721 0.000000
Si Si7 0.304502 0.500000 0.573228
Si Si8 0.813507 0.824823 0.000000
O O1 0.249133 0.350948 0.401140
O O2 0.250979 0.393014 0.297483
O O3 0.251331 0.450443 0.396394
O O4 0.000000 0.401048 0.373284
O O5 0.252191 0.800104 0.500000
O O6 0.500000 0.800533 0.576922
O O7 0.250000 0.750000 0.599580
O O8 0.500000 0.121888 0.231113
O O9 0.763960 0.088867 0.176277
O O10 0.744784 0.170968 0.198886
O O11 0.500000 0.951288 0.855610
O O12 0.729552 0.948522 0.936637
O O13 0.758884 0.000000 0.838944
O O14 0.500000 0.693450 0.135567
O O15 0.750000 0.750000 0.150127
O O16 0.760753 0.687503 0.068180
O O17 0.180866 0.879209 0.000000
O O18 0.000000 0.950151 0.000000
O O19 0.500000 0.500000 0.574685
O O20 0.249251 0.500000 0.500000
O O21 0.000000 0.806099 0.000000
#
# Coordination Sequence:
#
# PCOD9491718 Si02
#       8
#    16  16  16  16  16   8   8   8
#     4  10  22  40  64  91 124 164 208 250 296 359
#     4   9  18  34  58  88 118 151 193 240 291 345
#     4  10  22  39  59  85 115 152 195 240 292 352
#     4  10  21  36  55  79 110 146 186 234 291 350
#     4  11  22  39  60  83 114 152 197 250 306 363
#     4  11  20  35  56  80 108 140 188 242 293 347
#     4  11  25  43  65  97 133 166 205 254 305 355
#     4   9  19  35  55  79 108 143 189 249 307 357
#
# _framework density 20.382617
#
# number of rings (size 3 to 8) (size 9 to 14) (size 15 to 20)
#    0.000    1.923    1.538    1.846    1.077    4.308 
#    0.000    4.231    0.000    0.000    0.000    0.000 
#    0.000    0.000    0.000    0.000    0.000    0.000 
#
# Total GULP energy -289514.951945 kJ/mol
# GULP energy per Si atom -5567.595230 kJ/mol
# Density = 2.033623 g / cm^3
# Si number density = 20.382617 Si / 1000 Ang^3
#
#
#
# Elastic Constant Matrix: (Units=GPa)
#
#
# Indices 1 2 3 4 5 6 
#
# 1 15.3531 16.0963 15.2855 0.0000 0.0000 0.0000
# 2 16.0963 196.0612 83.5563 0.0000 0.0000 0.0000
# 3 15.2855 83.5563 129.6727 0.0000 0.0000 0.0000
# 4 0.0000 0.0000 0.0000 209.5591 0.0000 0.0000
# 5 0.0000 0.0000 0.0000 0.0000 20.8531 0.0000
# 6 0.0000 0.0000 0.0000 0.0000 0.0000 21.3348
#
#
#
# Elastic Compliance Matrix: (Units=1/GPa)
#
#
# Indices 1 2 3 4 5 6 
#
# 1 0.075319 -0.003308 -0.006747 0.000000 0.000000 0.000000
# 2 -0.003308 0.007177 -0.004234 0.000000 0.000000 0.000000
# 3 -0.006747 -0.004234 0.011235 0.000000 0.000000 0.000000
# 4 0.000000 0.000000 0.000000 0.004772 0.000000 0.000000
# 5 0.000000 0.000000 0.000000 0.000000 0.047955 0.000000
# 6 0.000000 0.000000 0.000000 0.000000 0.000000 0.046872
#
#
# Mechanical properties :
#
#
# Convention : Reuss Voigt Hill
#
# Bulk Modulus (GPa) = 15.34871 63.44036 39.39454
# Shear Modulus (GPa) = 20.52336 65.42599 42.97467
#
# Velocity S-wave (km/s) = 3.17662 5.67174 4.59671
# Velocity P-wave (km/s) = 4.58271 8.60719 6.89511
#
# Compressibility (1/GPa) = 0.06515206
#
# Stress axis : x y z
#
# Youngs Moduli (GPa) = 13.27695 139.34094 89.00377
#
# Poissons Ratio (x) = 0.46098 0.60047
# Poissons Ratio (y) = 0.04392 0.37688
# Poissons Ratio (z) = 0.08957 0.59002
#
# Static dielectric constant tensor:
#      x y z
#    x 1.731310 0.000000 0.000000 
#    y 0.000000 1.762540 0.000000 
#    z 0.000000 0.000000 1.738670 
# 
# From -- ./inp_files/60479.got.cif
#   From: 2010.05.17/outbox.cif.g08.bks.cpg/sg65_31_cif.got.tgz:60479.got - 2010.06.03 17:01:31.
