data_PCOD9491856
_publ_section_title
;
Structure prediction by ZEFSAII (Michael W. Deem and Ramdas Pophale) SiO2 
 PCOD9491856
Probable space group: C M M M
;
_chemical_formula_sum "Si O2"
_cell_formula_units_Z 120
_cell_length_a 11.442355
_cell_length_b 19.439033
_cell_length_c 26.573042
_cell_angle_alpha 90.000000
_cell_angle_beta 90.000000
_cell_angle_gamma 90.000000
_cell_volume 5910.596995
_symmetry_space_group_name_H-M "C M M M"
_symmetry_group_IT_number 65
_symmetry_cell_setting 'orthorhombic'
loop_
_space_group_symop_operation_xyz
x,y,z
-x,-y,z
x,-y,-z
-x,y,-z
-x,-y,-z
x,y,-z
-x,y,z
x,-y,z
1/2+x,1/2+y,z
1/2-x,1/2-y,z
1/2+x,1/2-y,-z
1/2-x,1/2+y,-z
1/2-x,1/2-y,-z
1/2+x,1/2+y,-z
1/2-x,1/2+y,z
1/2+x,1/2-y,z
loop_
_atom_site_type_symbol
_atom_site_label
_atom_site_fract_x
_atom_site_fract_y
_atom_site_fract_z
Si Si1 0.869586 0.578449 0.797007
Si Si2 0.298388 0.820169 0.711731
Si Si3 0.862592 0.923532 0.654733
Si Si4 0.752649 0.581516 0.099410
Si Si5 0.289356 0.922568 0.557873
Si Si6 0.631756 0.788242 0.940108
Si Si7 0.500000 0.583308 0.057329
Si Si8 0.874534 0.286197 0.601256
O O1 0.854666 0.500000 0.778280
O O2 0.860388 0.632524 0.752272
O O3 0.777607 0.590665 0.841365
O O4 0.000000 0.582657 0.819472
O O5 0.250000 0.750000 0.734892
O O6 0.194183 0.865930 0.688959
O O7 0.368837 0.799402 0.661364
O O8 0.815326 0.917045 0.597956
O O9 0.000000 0.918384 0.655525
O O10 0.827243 0.000000 0.672363
O O11 0.768505 0.500000 0.088070
O O12 0.841003 0.631636 0.070621
O O13 0.620812 0.602029 0.084166
O O14 0.253192 0.915332 0.500000
O O15 0.371058 0.859674 0.573526
O O16 0.339654 0.000000 0.563740
O O17 0.500000 0.770180 0.920994
O O18 0.750000 0.750000 0.920174
O O19 0.629426 0.776172 0.000000
O O20 0.500000 0.500000 0.055337
O O21 0.500000 0.609673 0.000000
O O22 0.750000 0.250000 0.588455
O O23 0.000000 0.251500 0.589627
#
# Coordination Sequence:
#
# PCOD9491856 Si02
#       8
#    16  16  16  16  16  16   8  16
#     4  10  21  38  59  82 114 153 193 243 297 350
#     4  10  21  36  58  84 112 148 195 245 294 353
#     4   9  18  34  55  81 115 154 196 242 295 356
#     4  10  21  38  61  89 119 153 199 248 297 352
#     4   9  19  35  55  82 115 150 193 244 297 353
#     4  10  22  38  58  86 121 160 199 242 293 349
#     4   9  18  34  60  92 122 154 191 239 296 352
#     4  10  22  39  60  84 115 153 197 247 298 357
#
# _framework density 20.302517000000002
#
# number of rings (size 3 to 8) (size 9 to 14) (size 15 to 20)
#    0.000    2.333    0.000    1.600    0.933    9.067 
#    1.200    2.667    0.000    0.000    0.000    0.000 
#    0.000    0.000    0.000    0.000    0.000    0.000 
#
# Total GULP energy -334544.140634 kJ/mol
# GULP energy per Si atom -5575.735677 kJ/mol
# Density = 2.025631 g / cm^3
# Si number density = 20.302517 Si / 1000 Ang^3
#
#
#
# Elastic Constant Matrix: (Units=GPa)
#
#
# Indices 1 2 3 4 5 6 
#
# 1 143.0896 54.0948 36.4185 0.0000 0.0000 0.0000
# 2 54.0948 95.8784 26.6451 0.0000 0.0000 0.0000
# 3 36.4185 26.6451 49.0454 0.0000 0.0000 0.0000
# 4 0.0000 0.0000 0.0000 22.1000 0.0000 0.0000
# 5 0.0000 0.0000 0.0000 0.0000 -102.8145 0.0000
# 6 0.0000 0.0000 0.0000 0.0000 0.0000 14.9004
#
#
#
# Elastic Compliance Matrix: (Units=1/GPa)
#
#
# Indices 1 2 3 4 5 6 
#
# 1 0.009844 -0.004149 -0.005055 0.000000 0.000000 0.000000
# 2 -0.004149 0.014033 -0.004543 0.000000 0.000000 0.000000
# 3 -0.005055 -0.004543 0.026611 0.000000 0.000000 0.000000
# 4 0.000000 0.000000 0.000000 0.045249 0.000000 0.000000
# 5 0.000000 0.000000 0.000000 0.000000 -0.009726 0.000000
# 6 0.000000 0.000000 0.000000 0.000000 0.000000 0.067112
#
#
# Mechanical properties :
#
#
# Convention : Reuss Voigt Hill
#
# Bulk Modulus (GPa) = 43.49084 58.03669 50.76377
# Shear Modulus (GPa) = 26.55577 -1.77248 12.39164
#
# Velocity S-wave (km/s) = 3.62056 -0.93538 2.47321
# Velocity P-wave (km/s) = 6.24066 5.24227 5.76313
#
# Compressibility (1/GPa) = 0.02299335
#
# Stress axis : x y z
#
# Youngs Moduli (GPa) = 101.58636 71.25911 37.57797
#
# Poissons Ratio (x) = 0.29565 0.18997
# Poissons Ratio (y) = 0.42148 0.17072
# Poissons Ratio (z) = 0.51357 0.32374
#
# Static dielectric constant tensor:
#      x y z
#    x 1.739850 0.000000 0.000000 
#    y 0.000000 1.773650 0.000000 
#    z 0.000000 0.000000 1.678500 
# 
# From -- ./inp_files/69193.got.cif
#   From: 2010.05.17/outbox.cif.g08.bks.cpg/sg65_35_cif.got.tgz:69193.got - 2010.06.03 17:01:31.
