data_PCOD9491461
_publ_section_title
;
Structure prediction by ZEFSAII (Michael W. Deem and Ramdas Pophale) SiO2 
 PCOD9491461
Probable space group: C M M M
;
_chemical_formula_sum "Si O2"
_cell_formula_units_Z 72
_cell_length_a 12.531459
_cell_length_b 17.441506
_cell_length_c 18.136367
_cell_angle_alpha 90.000000
_cell_angle_beta 90.000000
_cell_angle_gamma 90.000000
_cell_volume 3964.020709
_symmetry_space_group_name_H-M "C M M M"
_symmetry_group_IT_number 65
_symmetry_cell_setting 'orthorhombic'
loop_
_space_group_symop_operation_xyz
x,y,z
-x,-y,z
x,-y,-z
-x,y,-z
-x,-y,-z
x,y,-z
-x,y,z
x,-y,z
1/2+x,1/2+y,z
1/2-x,1/2-y,z
1/2+x,1/2-y,-z
1/2-x,1/2+y,-z
1/2-x,1/2-y,-z
1/2+x,1/2+y,-z
1/2-x,1/2+y,z
1/2+x,1/2-y,z
loop_
_atom_site_type_symbol
_atom_site_label
_atom_site_fract_x
_atom_site_fract_y
_atom_site_fract_z
Si Si1 0.000000 0.411102 0.795791
Si Si2 0.726522 0.840290 0.794868
Si Si3 0.622983 0.407820 0.918236
Si Si4 0.000000 0.411046 0.617385
Si Si5 0.121030 0.091333 0.500000
Si Si6 0.728426 0.159081 0.622686
O O1 0.107008 0.365758 0.816874
O O2 0.000000 0.500000 0.821577
O O3 0.000000 0.413528 0.706591
O O4 0.750000 0.750000 0.798403
O O5 0.806751 0.879495 0.851185
O O6 0.740885 0.863143 0.708882
O O7 0.500000 0.383164 0.909591
O O8 0.624160 0.500000 0.918346
O O9 0.660115 0.382288 0.000000
O O10 0.890653 0.366763 0.597688
O O11 0.000000 0.500000 0.591520
O O12 0.185592 0.118731 0.428707
O O13 0.000000 0.121394 0.500000
O O14 0.117813 0.000000 0.500000
O O15 0.750000 0.250000 0.616822
#
# Coordination Sequence:
#
# PCOD9491461 Si02
#       6
#     8  16  16   8   8  16
#     4   9  18  34  54  82 117 146 180 238 294 334
#     4  10  21  35  59  86 113 150 193 237 289 348
#     4   9  19  36  57  82 114 153 195 236 280 338
#     4   9  18  35  60  84 108 144 194 240 276 335
#     4  11  25  41  57  83 119 151 187 239 289 339
#     4  10  22  39  59  84 115 151 191 237 293 348
#
# _framework density 18.163374999999998
#
# number of rings (size 3 to 8) (size 9 to 14) (size 15 to 20)
#    0.000    2.333    0.000    2.333    3.111    4.444 
#    0.000    3.889    0.000    2.000    0.000    0.000 
#    0.000    0.000    0.000    0.000    0.000    0.000 
#
# Total GULP energy -200794.342651 kJ/mol
# GULP energy per Si atom -5577.620629 kJ/mol
# Density = 1.812203 g / cm^3
# Si number density = 18.163375 Si / 1000 Ang^3
#
#
#
# Elastic Constant Matrix: (Units=GPa)
#
#
# Indices 1 2 3 4 5 6 
#
# 1 171.9759 67.3981 84.1038 0.0000 0.0000 0.0000
# 2 67.3981 74.3947 42.1053 0.0000 0.0000 0.0000
# 3 84.1038 42.1053 104.7493 0.0000 0.0000 0.0000
# 4 0.0000 0.0000 0.0000 68.5990 0.0000 0.0000
# 5 0.0000 0.0000 0.0000 0.0000 34.8340 0.0000
# 6 0.0000 0.0000 0.0000 0.0000 0.0000 26.2200
#
#
#
# Elastic Compliance Matrix: (Units=1/GPa)
#
#
# Indices 1 2 3 4 5 6 
#
# 1 0.011790 -0.006892 -0.006696 0.000000 0.000000 0.000000
# 2 -0.006892 0.021429 -0.003080 0.000000 0.000000 0.000000
# 3 -0.006696 -0.003080 0.016161 0.000000 0.000000 0.000000
# 4 0.000000 0.000000 0.000000 0.014577 0.000000 0.000000
# 5 0.000000 0.000000 0.000000 0.000000 0.028708 0.000000
# 6 0.000000 0.000000 0.000000 0.000000 0.000000 0.038139
#
#
# Mechanical properties :
#
#
# Convention : Reuss Voigt Hill
#
# Bulk Modulus (GPa) = 62.32899 82.03714 72.18306
# Shear Modulus (GPa) = 29.50049 36.43146 32.96598
#
# Velocity S-wave (km/s) = 4.03448 4.48344 4.26487
# Velocity P-wave (km/s) = 7.48952 8.48916 8.00496
#
# Compressibility (1/GPa) = 0.01604390
#
# Stress axis : x y z
#
# Youngs Moduli (GPa) = 84.81410 46.66667 61.87602
#
# Poissons Ratio (x) = 0.32161 0.41435
# Poissons Ratio (y) = 0.58451 0.19059
# Poissons Ratio (z) = 0.56796 0.14374
#
# Static dielectric constant tensor:
#      x y z
#    x 1.614580 0.000000 0.000000 
#    y 0.000000 1.526760 0.000000 
#    z 0.000000 0.000000 1.614480 
# 
# From -- ./inp_files/51163.got.cif
#   From: 2010.05.17/outbox.cif.g08.bks.cpg/sg65_26_cif.got.tgz:51163.got - 2010.06.03 17:01:31.
