data_PCOD9491693
_publ_section_title
;
Structure prediction by ZEFSAII (Michael W. Deem and Ramdas Pophale) SiO2 
 PCOD9491693
Probable space group: C M M M
;
_chemical_formula_sum "Si O2"
_cell_formula_units_Z 104
_cell_length_a 29.394523
_cell_length_b 9.227303
_cell_length_c 20.514178
_cell_angle_alpha 90.000000
_cell_angle_beta 90.000000
_cell_angle_gamma 90.000000
_cell_volume 5564.105020
_symmetry_space_group_name_H-M "C M M M"
_symmetry_group_IT_number 65
_symmetry_cell_setting 'orthorhombic'
loop_
_space_group_symop_operation_xyz
x,y,z
-x,-y,z
x,-y,-z
-x,y,-z
-x,-y,-z
x,y,-z
-x,y,z
x,-y,z
1/2+x,1/2+y,z
1/2-x,1/2-y,z
1/2+x,1/2-y,-z
1/2-x,1/2+y,-z
1/2-x,1/2-y,-z
1/2+x,1/2+y,-z
1/2-x,1/2+y,z
1/2+x,1/2-y,z
loop_
_atom_site_type_symbol
_atom_site_label
_atom_site_fract_x
_atom_site_fract_y
_atom_site_fract_z
Si Si1 0.053483 0.672403 0.866185
Si Si2 0.949878 0.331059 0.579242
Si Si3 0.701786 0.673583 0.074373
Si Si4 0.641576 0.325786 0.575305
Si Si5 0.133853 0.173185 0.809244
Si Si6 0.702753 0.326719 0.692661
Si Si7 0.444992 0.664117 0.000000
O O1 0.059184 0.500000 0.871554
O O2 0.086948 0.740385 0.813096
O O3 0.000000 0.701537 0.853774
O O4 0.066350 0.749757 0.934492
O O5 0.950496 0.324640 0.500000
O O6 0.944832 0.500000 0.597076
O O7 0.906143 0.240284 0.599570
O O8 0.000000 0.280619 0.601533
O O9 0.708165 0.500000 0.078177
O O10 0.750000 0.750000 0.087316
O O11 0.664459 0.713237 0.127834
O O12 0.687882 0.709504 0.000000
O O13 0.648820 0.281946 0.500000
O O14 0.638071 0.500000 0.577264
O O15 0.682300 0.281909 0.622790
O O16 0.164486 0.205258 0.746504
O O17 0.125173 0.000000 0.811467
O O18 0.709682 0.500000 0.692859
O O19 0.750000 0.250000 0.707360
O O20 0.426059 0.500000 0.000000
O O21 0.500000 0.653775 0.000000
#
# Coordination Sequence:
#
# PCOD9491693 Si02
#       7
#    16  16  16  16  16  16   8
#     4  10  21  36  54  80 113 145 183 230 272 316
#     4   8  14  26  46  74 107 139 171 209 254 308
#     4   9  18  32  50  74 101 128 164 211 257 305
#     4   9  18  33  53  78 108 140 178 225 274 327
#     4  10  21  36  55  77 104 140 180 220 265 325
#     4  10  22  39  57  79 106 138 179 225 275 333
#     4   9  17  31  53  79 108 145 184 221 267 317
#
# _framework density 18.691237000000001
#
# number of rings (size 3 to 8) (size 9 to 14) (size 15 to 20)
#    0.000    2.692    0.000    1.615    1.077    4.308 
#    0.000    2.308    0.000    4.615    0.000    0.000 
#    0.000    0.000    0.000    0.000    0.000    0.000 
#
# Total GULP energy -290072.190534 kJ/mol
# GULP energy per Si atom -5578.311356 kJ/mol
# Density = 1.864869 g / cm^3
# Si number density = 18.691237 Si / 1000 Ang^3
#
#
#
# Elastic Constant Matrix: (Units=GPa)
#
#
# Indices 1 2 3 4 5 6 
#
# 1 107.0293 53.5862 55.0249 0.0000 0.0000 0.0000
# 2 53.5862 42.0635 35.6262 0.0000 0.0000 0.0000
# 3 55.0249 35.6262 64.4432 0.0000 0.0000 0.0000
# 4 0.0000 0.0000 0.0000 13.9931 0.0000 0.0000
# 5 0.0000 0.0000 0.0000 0.0000 26.8495 0.0000
# 6 0.0000 0.0000 0.0000 0.0000 0.0000 25.2710
#
#
#
# Elastic Compliance Matrix: (Units=1/GPa)
#
#
# Indices 1 2 3 4 5 6 
#
# 1 0.027737 -0.028727 -0.007802 0.000000 0.000000 0.000000
# 2 -0.028727 0.074459 -0.016635 0.000000 0.000000 0.000000
# 3 -0.007802 -0.016635 0.031375 0.000000 0.000000 0.000000
# 4 0.000000 0.000000 0.000000 0.071464 0.000000 0.000000
# 5 0.000000 0.000000 0.000000 0.000000 0.037245 0.000000
# 6 0.000000 0.000000 0.000000 0.000000 0.000000 0.039571
#
#
# Mechanical properties :
#
#
# Convention : Reuss Voigt Hill
#
# Bulk Modulus (GPa) = 36.70532 55.77895 46.24213
# Shear Modulus (GPa) = 12.58617 17.84261 15.21439
#
# Velocity S-wave (km/s) = 2.59776 3.09301 2.85614
# Velocity P-wave (km/s) = 5.35520 6.53167 5.97247
#
# Compressibility (1/GPa) = 0.02724401
#
# Stress axis : x y z
#
# Youngs Moduli (GPa) = 36.05256 13.43013 31.87201
#
# Poissons Ratio (x) = 0.38581 0.24867
# Poissons Ratio (y) = 1.03570 0.53018
# Poissons Ratio (z) = 0.28128 0.22340
#
# Static dielectric constant tensor:
#      x y z
#    x 1.644330 0.000000 0.000000 
#    y 0.000000 1.621330 0.000000 
#    z 0.000000 0.000000 1.666460 
# 
# From -- ./inp_files/65936.got.cif
#   From: 2010.05.17/outbox.cif.g08.bks.cpg/sg65_33_cif.got.tgz:65936.got - 2010.06.03 17:01:31.
