data_PCOD9491474
_publ_section_title
;
Structure prediction by ZEFSAII (Michael W. Deem and Ramdas Pophale) SiO2 
 PCOD9491474
Probable space group: C M M M
;
_chemical_formula_sum "Si O2"
_cell_formula_units_Z 80
_cell_length_a 8.478576
_cell_length_b 18.646831
_cell_length_c 27.555613
_cell_angle_alpha 90.000000
_cell_angle_beta 90.000000
_cell_angle_gamma 90.000000
_cell_volume 4356.503115
_symmetry_space_group_name_H-M "C M M M"
_symmetry_group_IT_number 65
_symmetry_cell_setting 'orthorhombic'
loop_
_space_group_symop_operation_xyz
x,y,z
-x,-y,z
x,-y,-z
-x,y,-z
-x,-y,-z
x,y,-z
-x,y,z
x,-y,z
1/2+x,1/2+y,z
1/2-x,1/2-y,z
1/2+x,1/2-y,-z
1/2-x,1/2+y,-z
1/2-x,1/2-y,-z
1/2+x,1/2+y,-z
1/2-x,1/2+y,z
1/2+x,1/2-y,z
loop_
_atom_site_type_symbol
_atom_site_label
_atom_site_fract_x
_atom_site_fract_y
_atom_site_fract_z
Si Si1 0.809067 0.668342 0.341948
Si Si2 0.189081 0.667838 0.947263
Si Si3 0.309331 0.832213 0.552146
Si Si4 0.190934 0.417449 0.752970
Si Si5 0.812731 0.831614 0.845595
O O1 0.750000 0.750000 0.337348
O O2 0.759096 0.638749 0.395143
O O3 0.755124 0.622077 0.296191
O O4 0.000000 0.669575 0.341289
O O5 0.250000 0.750000 0.947920
O O6 0.255828 0.636748 0.897353
O O7 0.000000 0.668547 0.944349
O O8 0.234377 0.636083 0.000000
O O9 0.257492 0.864228 0.500000
O O10 0.500000 0.832371 0.552008
O O11 0.250000 0.750000 0.552105
O O12 0.241455 0.500000 0.753318
O O13 0.250970 0.376389 0.800242
O O14 0.000000 0.415636 0.753414
O O15 0.750000 0.750000 0.841723
O O16 0.000000 0.829077 0.845388
#
# Coordination Sequence:
#
# PCOD9491474 Si02
#       5
#    16  16  16  16  16
#     4   9  17  29  47  70  93 121 157 196 240 287
#     4   9  16  27  46  73 103 131 159 193 235 282
#     4   8  13  22  38  62  91 118 146 185 232 281
#     4  10  21  36  51  67  93 129 166 205 249 295
#     4  11  21  33  52  76 102 130 163 202 242 287
#
# _framework density 18.363353
#
# number of rings (size 3 to 8) (size 9 to 14) (size 15 to 20)
#    0.000    2.600    0.000    4.200    0.000    4.000 
#    0.000    0.000    0.000    1.200    0.000    8.400 
#    0.000    0.000    0.000   34.200    0.000   17.200 
#
# Total GULP energy -222771.016450 kJ/mol
# GULP energy per Si atom -5569.275411 kJ/mol
# Density = 1.832156 g / cm^3
# Si number density = 18.363353 Si / 1000 Ang^3
#
#
#
# Elastic Constant Matrix: (Units=GPa)
#
#
# Indices 1 2 3 4 5 6 
#
# 1 29.5827 15.8476 33.6729 0.0000 0.0000 0.0000
# 2 15.8476 54.5221 72.1233 0.0000 0.0000 0.0000
# 3 33.6729 72.1233 251.1281 0.0000 0.0000 0.0000
# 4 0.0000 0.0000 0.0000 -3.9782 0.0000 0.0000
# 5 0.0000 0.0000 0.0000 0.0000 26.9020 0.0000
# 6 0.0000 0.0000 0.0000 0.0000 0.0000 12.6400
#
#
#
# Elastic Compliance Matrix: (Units=1/GPa)
#
#
# Indices 1 2 3 4 5 6 
#
# 1 0.041773 -0.007632 -0.003409 0.000000 0.000000 0.000000
# 2 -0.007632 0.030973 -0.007872 0.000000 0.000000 0.000000
# 3 -0.003409 -0.007872 0.006700 0.000000 0.000000 0.000000
# 4 0.000000 0.000000 0.000000 -0.251367 0.000000 0.000000
# 5 0.000000 0.000000 0.000000 0.000000 0.037172 0.000000
# 6 0.000000 0.000000 0.000000 0.000000 0.000000 0.079114
#
#
# Mechanical properties :
#
#
# Convention : Reuss Voigt Hill
#
# Bulk Modulus (GPa) = 24.02745 64.28005 44.15375
# Shear Modulus (GPa) = -1270.30866 21.35202 -624.47832
#
# Velocity S-wave (km/s) = -26.32992 3.41361 -18.46093
# Velocity P-wave (km/s) = 30.18675 7.11460 20.74395
#
# Compressibility (1/GPa) = 0.04161906
#
# Stress axis : x y z
#
# Youngs Moduli (GPa) = 23.93906 32.28642 149.25445
#
# Poissons Ratio (x) = 0.24641 0.50885
# Poissons Ratio (y) = 0.18270 1.17492
# Poissons Ratio (z) = 0.08161 0.25416
#
# Static dielectric constant tensor:
#      x y z
#    x 1.615720 0.000000 0.000000 
#    y 0.000000 1.606240 0.000000 
#    z 0.000000 0.000000 1.709790 
# 
# From -- ./inp_files/72796.got.cif
#   From: 2010.05.17/outbox.cif.g08.bks.cpg/sg65_37_cif.got.tgz:72796.got - 2010.06.03 17:01:31.
