data_PCOD9491003
_publ_section_title
;
Structure prediction by ZEFSAII (Michael W. Deem and Ramdas Pophale) SiO2 
 PCOD9491003
Probable space group: C M M M
;
_chemical_formula_sum "Si O2"
_cell_formula_units_Z 88
_cell_length_a 18.253300
_cell_length_b 13.421369
_cell_length_c 15.755974
_cell_angle_alpha 90.000000
_cell_angle_beta 90.000000
_cell_angle_gamma 90.000000
_cell_volume 3859.965864
_symmetry_space_group_name_H-M "C M M M"
_symmetry_group_IT_number 65
_symmetry_cell_setting 'orthorhombic'
loop_
_space_group_symop_operation_xyz
x,y,z
-x,-y,z
x,-y,-z
-x,y,-z
-x,-y,-z
x,y,-z
-x,y,z
x,-y,z
1/2+x,1/2+y,z
1/2-x,1/2-y,z
1/2+x,1/2-y,-z
1/2-x,1/2+y,-z
1/2-x,1/2-y,-z
1/2+x,1/2+y,-z
1/2-x,1/2+y,z
1/2+x,1/2-y,z
loop_
_atom_site_type_symbol
_atom_site_label
_atom_site_fract_x
_atom_site_fract_y
_atom_site_fract_z
Si Si1 0.920306 0.191349 0.278960
Si Si2 0.704513 0.380138 0.405707
Si Si3 0.916230 0.378592 0.000000
Si Si4 0.790581 0.382454 0.875361
Si Si5 0.846019 0.383972 0.311575
Si Si6 0.874927 0.878746 0.094773
O O1 0.853576 0.147369 0.333345
O O2 0.910823 0.165037 0.179664
O O3 0.000000 0.154551 0.306576
O O4 0.792870 0.000000 0.405739
O O5 0.683112 0.346657 0.500000
O O6 0.788168 0.350879 0.383031
O O7 0.587552 0.190934 0.297900
O O8 0.864910 0.347923 0.921062
O O9 0.921126 0.500000 0.000000
O O10 0.000000 0.343489 0.000000
O O11 0.788013 0.500000 0.895722
O O12 0.799819 0.372996 0.775352
O O13 0.710773 0.346083 0.902427
O O14 0.866124 0.500000 0.321633
O O15 0.877742 0.000000 0.102851
O O16 0.904019 0.855525 0.000000
#
# Coordination Sequence:
#
# PCOD9491003 Si02
#       6
#    16  16   8  16  16  16
#     4  12  26  41  62  98 139 175 218 274 334 399
#     4  10  22  43  73 105 133 166 214 272 332 399
#     4   9  16  26  46  81 121 159 206 264 318 370
#     4   9  16  31  56  84 115 158 209 260 316 379
#     4  10  22  42  67  92 126 173 223 271 324 389
#     4  10  20  38  65  93 126 172 227 279 332 396
#
# _framework density 22.798128999999999
#
# number of rings (size 3 to 8) (size 9 to 14) (size 15 to 20)
#    0.000    1.909    2.727    1.091    0.000    4.727 
#    1.636    4.545    0.000    0.000    0.000    3.818 
#    0.000    0.000    0.000    0.000    0.000    0.000 
#
# Total GULP energy -245926.724483 kJ/mol
# GULP energy per Si atom -5589.243738 kJ/mol
# Density = 2.274624 g / cm^3
# Si number density = 22.798129 Si / 1000 Ang^3
#
#
#
# Elastic Constant Matrix: (Units=GPa)
#
#
# Indices 1 2 3 4 5 6 
#
# 1 124.8631 25.8961 32.2905 0.0000 0.0000 0.0000
# 2 25.8961 81.0705 21.1370 0.0000 0.0000 0.0000
# 3 32.2905 21.1370 107.9880 0.0000 0.0000 0.0000
# 4 0.0000 0.0000 0.0000 30.0264 0.0000 0.0000
# 5 0.0000 0.0000 0.0000 0.0000 12.1078 0.0000
# 6 0.0000 0.0000 0.0000 0.0000 0.0000 17.4615
#
#
#
# Elastic Compliance Matrix: (Units=1/GPa)
#
#
# Indices 1 2 3 4 5 6 
#
# 1 0.009072 -0.002308 -0.002261 0.000000 0.000000 0.000000
# 2 -0.002308 0.013586 -0.001969 0.000000 0.000000 0.000000
# 3 -0.002261 -0.001969 0.010322 0.000000 0.000000 0.000000
# 4 0.000000 0.000000 0.000000 0.033304 0.000000 0.000000
# 5 0.000000 0.000000 0.000000 0.000000 0.082592 0.000000
# 6 0.000000 0.000000 0.000000 0.000000 0.000000 0.057269
#
#
# Mechanical properties :
#
#
# Convention : Reuss Voigt Hill
#
# Bulk Modulus (GPa) = 50.24355 52.50766 51.37561
# Shear Modulus (GPa) = 22.13812 27.55902 24.84857
#
# Velocity S-wave (km/s) = 3.11955 3.48059 3.30500
# Velocity P-wave (km/s) = 5.92129 6.26373 6.09492
#
# Compressibility (1/GPa) = 0.01990305
#
# Stress axis : x y z
#
# Youngs Moduli (GPa) = 110.22657 73.60698 96.88294
#
# Poissons Ratio (x) = 0.16992 0.21905
# Poissons Ratio (y) = 0.25445 0.19076
# Poissons Ratio (z) = 0.24921 0.14493
#
# Static dielectric constant tensor:
#      x y z
#    x 1.773890 0.000000 0.000000 
#    y 0.000000 1.963120 0.000000 
#    z 0.000000 0.000000 1.812800 
# 
# From -- ./inp_files/44006.got.cif
#   From: 2010.05.17/outbox.cif.g08.bks.cpg/sg65_23_cif.got.tgz:44006.got - 2010.06.03 17:01:31.
