data_PCOD9491149
_publ_section_title
;
Structure prediction by ZEFSAII (Michael W. Deem and Ramdas Pophale) SiO2 
 PCOD9491149
Probable space group: C M M M
;
_chemical_formula_sum "Si O2"
_cell_formula_units_Z 112
_cell_length_a 30.189209
_cell_length_b 14.628778
_cell_length_c 13.564169
_cell_angle_alpha 90.000000
_cell_angle_beta 90.000000
_cell_angle_gamma 90.000000
_cell_volume 5990.360727
_symmetry_space_group_name_H-M "C M M M"
_symmetry_group_IT_number 65
_symmetry_cell_setting 'orthorhombic'
loop_
_space_group_symop_operation_xyz
x,y,z
-x,-y,z
x,-y,-z
-x,y,-z
-x,-y,-z
x,y,-z
-x,y,z
x,-y,z
1/2+x,1/2+y,z
1/2-x,1/2-y,z
1/2+x,1/2-y,-z
1/2-x,1/2+y,-z
1/2-x,1/2-y,-z
1/2+x,1/2+y,-z
1/2-x,1/2+y,z
1/2+x,1/2-y,z
loop_
_atom_site_type_symbol
_atom_site_label
_atom_site_fract_x
_atom_site_fract_y
_atom_site_fract_z
Si Si1 0.357652 0.890452 0.815962
Si Si2 0.180677 0.611832 0.607553
Si Si3 0.451266 0.891529 0.779710
Si Si4 0.550112 0.739405 0.384303
Si Si5 0.631114 0.392759 0.381426
Si Si6 0.774115 0.895472 0.683016
Si Si7 0.763778 0.645393 0.106744
O O1 0.348193 0.862764 0.702206
O O2 0.407862 0.866313 0.842554
O O3 0.316598 0.856160 0.878491
O O4 0.353772 0.000000 0.820525
O O5 0.165075 0.642944 0.500000
O O6 0.181438 0.500000 0.607045
O O7 0.231176 0.643735 0.627284
O O8 0.500000 0.876645 0.824625
O O9 0.448618 0.830109 0.681936
O O10 0.447764 0.000000 0.756541
O O11 0.555729 0.761066 0.500000
O O12 0.500000 0.700611 0.372535
O O13 0.588553 0.668331 0.355328
O O14 0.636061 0.390200 0.500000
O O15 0.624742 0.500000 0.353229
O O16 0.677275 0.355907 0.335497
O O17 0.759543 0.896548 0.797310
O O18 0.778113 0.000000 0.647064
O O19 0.750000 0.750000 0.107524
O O20 0.752377 0.605356 0.000000
#
# Coordination Sequence:
#
# PCOD9491149 Si02
#       7
#    16  16  16  16  16  16  16
#     4   9  18  31  49  70  93 127 163 199 244 288
#     4   8  13  23  40  62  89 119 153 190 227 273
#     4   9  18  32  49  69  94 127 167 209 251 291
#     4   9  18  30  44  66  96 132 171 207 246 288
#     4   9  17  29  47  71  99 132 167 202 240 283
#     4   9  17  29  47  68  91 124 160 196 238 282
#     4  10  21  34  49  71  97 126 155 192 244 298
#
# _framework density 18.696704
#
# number of rings (size 3 to 8) (size 9 to 14) (size 15 to 20)
#    0.000    3.000    0.000    1.714    2.000    4.000 
#    0.000    4.286    0.000    2.571    0.000    2.000 
#    0.000    0.571    0.000    3.143    0.000    0.143 
#
# Total GULP energy -312018.580061 kJ/mol
# GULP energy per Si atom -5571.760358 kJ/mol
# Density = 1.865415 g / cm^3
# Si number density = 18.696704 Si / 1000 Ang^3
#
#
#
# Elastic Constant Matrix: (Units=GPa)
#
#
# Indices 1 2 3 4 5 6 
#
# 1 158.0104 28.8721 8.3251 0.0000 0.0000 0.0000
# 2 28.8721 42.8282 -4.3879 0.0000 0.0000 0.0000
# 3 8.3251 -4.3879 38.4089 0.0000 0.0000 0.0000
# 4 0.0000 0.0000 0.0000 34.3443 0.0000 0.0000
# 5 0.0000 0.0000 0.0000 0.0000 -2.2055 0.0000
# 6 0.0000 0.0000 0.0000 0.0000 0.0000 25.4907
#
#
#
# Elastic Compliance Matrix: (Units=1/GPa)
#
#
# Indices 1 2 3 4 5 6 
#
# 1 0.007397 -0.005212 -0.002199 0.000000 0.000000 0.000000
# 2 -0.005212 0.027298 0.004248 0.000000 0.000000 0.000000
# 3 -0.002199 0.004248 0.026998 0.000000 0.000000 0.000000
# 4 0.000000 0.000000 0.000000 0.029117 0.000000 0.000000
# 5 0.000000 0.000000 0.000000 0.000000 -0.453417 0.000000
# 6 0.000000 0.000000 0.000000 0.000000 0.000000 0.039230
#
#
# Mechanical properties :
#
#
# Convention : Reuss Voigt Hill
#
# Bulk Modulus (GPa) = 18.06108 33.87402 25.96755
# Shear Modulus (GPa) = -16.74493 25.28844 4.27176
#
# Velocity S-wave (km/s) = -2.99592 3.68171 1.51318
# Velocity P-wave (km/s) = 1.51207 6.01916 4.11970
#
# Compressibility (1/GPa) = 0.05536767
#
# Stress axis : x y z
#
# Youngs Moduli (GPa) = 135.19273 36.63305 37.04045
#
# Poissons Ratio (x) = 0.19092 0.08144
# Poissons Ratio (y) = 0.70459 -0.15735
# Poissons Ratio (z) = 0.29724 -0.15562
#
# Static dielectric constant tensor:
#      x y z
#    x 1.701130 0.000000 0.000000 
#    y 0.000000 1.672980 0.000000 
#    z 0.000000 0.000000 1.636400 
# 
# From -- ./inp_files/48022.got.cif
#   From: 2010.05.17/outbox.cif.g08.bks.cpg/sg65_25_cif.got.tgz:48022.got - 2010.06.03 17:01:31.
