data_PCOD9491039
_publ_section_title
;
Structure prediction by ZEFSAII (Michael W. Deem and Ramdas Pophale) SiO2 
 PCOD9491039
Probable space group: C M M M
;
_chemical_formula_sum "Si O2"
_cell_formula_units_Z 68
_cell_length_a 26.477082
_cell_length_b 11.341875
_cell_length_c 12.549978
_cell_angle_alpha 90.000000
_cell_angle_beta 90.000000
_cell_angle_gamma 90.000000
_cell_volume 3768.755311
_symmetry_space_group_name_H-M "C M M M"
_symmetry_group_IT_number 65
_symmetry_cell_setting 'orthorhombic'
loop_
_space_group_symop_operation_xyz
x,y,z
-x,-y,z
x,-y,-z
-x,y,-z
-x,-y,-z
x,y,-z
-x,y,z
x,-y,z
1/2+x,1/2+y,z
1/2-x,1/2-y,z
1/2+x,1/2-y,-z
1/2-x,1/2+y,-z
1/2-x,1/2-y,-z
1/2+x,1/2+y,-z
1/2-x,1/2+y,z
1/2+x,1/2-y,z
loop_
_atom_site_type_symbol
_atom_site_label
_atom_site_fract_x
_atom_site_fract_y
_atom_site_fract_z
Si Si1 0.595589 0.141596 0.227026
Si Si2 0.326042 0.500000 0.880636
Si Si3 0.714884 0.631849 0.500000
Si Si4 0.923504 0.000000 0.000000
Si Si5 0.692080 0.291878 0.722150
Si Si6 0.556386 0.770340 0.000000
Si Si7 0.000000 0.643197 0.624615
O O1 0.649517 0.192904 0.263432
O O2 0.550123 0.177910 0.307969
O O3 0.596975 0.000000 0.224815
O O4 0.583536 0.188648 0.108208
O O5 0.312145 0.614990 0.816422
O O6 0.304139 0.500000 0.000000
O O7 0.386106 0.500000 0.898787
O O8 0.739476 0.500000 0.500000
O O9 0.750000 0.750000 0.500000
O O10 0.683981 0.644728 0.391388
O O11 0.947707 0.871840 0.000000
O O12 0.750000 0.250000 0.723119
O O13 0.500000 0.822018 0.000000
O O14 0.000000 0.500000 0.622473
O O15 0.000000 0.682039 0.500000
#
# Coordination Sequence:
#
# PCOD9491039 Si02
#       7
#    16   8   8   4  16   8   8
#     4  11  23  39  62  94 126 162 206 261 320 383
#     4  10  20  40  61  80 122 162 205 250 305 370
#     4  10  22  40  66  91 122 171 219 266 318 368
#     4  10  21  40  58  92 114 164 214 247 314 372
#     4  11  24  40  62  90 125 166 211 259 312 379
#     4  12  22  40  63  91 123 163 209 261 317 381
#     4   9  20  39  61  85 120 161 202 256 319 373
#
# _framework density 18.043092000000001
#
# number of rings (size 3 to 8) (size 9 to 14) (size 15 to 20)
#    0.353    1.059    4.706    0.529    3.294    1.882 
#    0.000    0.000    0.000    0.000    0.000    2.471 
#    0.000    0.000    0.000    0.000    0.000    0.000 
#
# Total GULP energy -189377.850299 kJ/mol
# GULP energy per Si atom -5569.936773 kJ/mol
# Density = 1.800203 g / cm^3
# Si number density = 18.043092 Si / 1000 Ang^3
#
#
#
# Elastic Constant Matrix: (Units=GPa)
#
#
# Indices 1 2 3 4 5 6 
#
# 1 131.7287 42.8692 55.3949 0.0000 0.0000 0.0000
# 2 42.8692 108.5861 50.1928 0.0000 0.0000 0.0000
# 3 55.3949 50.1928 165.0951 0.0000 0.0000 0.0000
# 4 0.0000 0.0000 0.0000 15.6794 0.0000 0.0000
# 5 0.0000 0.0000 0.0000 0.0000 15.7728 0.0000
# 6 0.0000 0.0000 0.0000 0.0000 0.0000 33.8397
#
#
#
# Elastic Compliance Matrix: (Units=1/GPa)
#
#
# Indices 1 2 3 4 5 6 
#
# 1 0.009444 -0.002634 -0.002368 0.000000 0.000000 0.000000
# 2 -0.002634 0.011450 -0.002597 0.000000 0.000000 0.000000
# 3 -0.002368 -0.002597 0.007641 0.000000 0.000000 0.000000
# 4 0.000000 0.000000 0.000000 0.063778 0.000000 0.000000
# 5 0.000000 0.000000 0.000000 0.000000 0.063400 0.000000
# 6 0.000000 0.000000 0.000000 0.000000 0.000000 0.029551
#
#
# Mechanical properties :
#
#
# Convention : Reuss Voigt Hill
#
# Bulk Modulus (GPa) = 74.98030 78.03597 76.50814
# Shear Modulus (GPa) = 24.40108 30.18859 27.29483
#
# Velocity S-wave (km/s) = 3.68146 4.09484 3.89364
# Velocity P-wave (km/s) = 7.72770 8.10559 7.91890
#
# Compressibility (1/GPa) = 0.01333684
#
# Stress axis : x y z
#
# Youngs Moduli (GPa) = 105.88299 87.33877 130.86773
#
# Poissons Ratio (x) = 0.23005 0.30991
# Poissons Ratio (y) = 0.27889 0.33989
# Poissons Ratio (z) = 0.25074 0.22684
#
# Static dielectric constant tensor:
#      x y z
#    x 1.660710 0.000000 0.000000 
#    y 0.000000 1.658440 0.000000 
#    z 0.000000 0.000000 1.631940 
# 
# From -- ./inp_files/32047.got.cif
#   From: 2010.05.17/outbox.cif.g08.bks.cpg/sg65_17_cif.got.tgz:32047.got - 2010.06.03 17:01:31.
