data_PCOD9491673
_publ_section_title
;
Structure prediction by ZEFSAII (Michael W. Deem and Ramdas Pophale) SiO2 
 PCOD9491673
Probable space group: C M M M
;
_chemical_formula_sum "Si O2"
_cell_formula_units_Z 120
_cell_length_a 27.815668
_cell_length_b 27.817145
_cell_length_c 8.875453
_cell_angle_alpha 90.000000
_cell_angle_beta 90.000000
_cell_angle_gamma 90.000000
_cell_volume 6867.403681
_symmetry_space_group_name_H-M "C M M M"
_symmetry_group_IT_number 65
_symmetry_cell_setting 'orthorhombic'
loop_
_space_group_symop_operation_xyz
x,y,z
-x,-y,z
x,-y,-z
-x,y,-z
-x,-y,-z
x,y,-z
-x,y,z
x,-y,z
1/2+x,1/2+y,z
1/2-x,1/2-y,z
1/2+x,1/2-y,-z
1/2-x,1/2+y,-z
1/2-x,1/2-y,-z
1/2+x,1/2+y,-z
1/2-x,1/2+y,z
1/2+x,1/2-y,z
loop_
_atom_site_type_symbol
_atom_site_label
_atom_site_fract_x
_atom_site_fract_y
_atom_site_fract_z
Si Si1 0.396733 0.786849 0.320022
Si Si2 0.305184 0.258888 0.180372
Si Si3 0.554526 0.685882 0.681336
Si Si4 0.909622 0.389128 0.820421
Si Si5 0.284057 0.444205 0.818665
Si Si6 0.000000 0.557265 0.678202
Si Si7 0.854476 0.139558 0.180020
Si Si8 0.319682 0.943058 0.679293
O O1 0.398696 0.792762 0.500000
O O2 0.342609 0.774844 0.266992
O O3 0.428088 0.739869 0.277753
O O4 0.414022 0.834896 0.239711
O O5 0.250000 0.250000 0.221747
O O6 0.321475 0.313612 0.211596
O O7 0.310086 0.250716 0.000000
O O8 0.555523 0.683310 0.500000
O O9 0.500000 0.677338 0.732679
O O10 0.594183 0.649694 0.745722
O O11 0.952987 0.420202 0.753249
O O12 0.859886 0.411611 0.760431
O O13 0.910581 0.390011 0.000000
O O14 0.295148 0.500000 0.785160
O O15 0.325931 0.407853 0.770783
O O16 0.233457 0.432001 0.741044
O O17 0.278172 0.439714 0.000000
O O18 0.000000 0.500000 0.697046
O O19 0.000000 0.567994 0.500000
O O20 0.860953 0.137150 0.000000
O O21 0.321942 0.935393 0.500000
O O22 0.328464 0.000000 0.708241
#
# Coordination Sequence:
#
# PCOD9491673 Si02
#       8
#    16  16  16  16  16   8  16  16
#     4  10  21  36  54  79 108 142 182 223 272 325
#     4   9  18  32  50  74 108 145 178 220 272 326
#     4   9  19  36  57  79 105 140 178 222 273 328
#     4  12  25  39  58  83 110 142 183 229 279 333
#     4   9  18  33  54  81 113 148 184 222 267 323
#     4  11  25  45  65  83 107 141 183 235 290 337
#     4   9  18  32  51  78 108 142 180 221 272 325
#     4  10  21  37  56  80 109 143 184 227 273 323
#
# _framework density 17.473852999999998
#
# number of rings (size 3 to 8) (size 9 to 14) (size 15 to 20)
#    0.000    2.200    0.000    2.600    2.800    4.533 
#    0.000    0.000    0.000    0.400    0.000    2.800 
#    0.000    0.000    0.000    0.000    0.000    0.000 
#
# Total GULP energy -335021.617182 kJ/mol
# GULP energy per Si atom -5583.693620 kJ/mol
# Density = 1.743408 g / cm^3
# Si number density = 17.473853 Si / 1000 Ang^3
#
#
#
# Elastic Constant Matrix: (Units=GPa)
#
#
# Indices 1 2 3 4 5 6 
#
# 1 146.5425 70.1995 50.1204 0.0000 0.0000 0.0000
# 2 70.1995 86.5836 52.5916 0.0000 0.0000 0.0000
# 3 50.1204 52.5916 57.9312 0.0000 0.0000 0.0000
# 4 0.0000 0.0000 0.0000 23.4013 0.0000 0.0000
# 5 0.0000 0.0000 0.0000 0.0000 34.8260 0.0000
# 6 0.0000 0.0000 0.0000 0.0000 0.0000 20.3225
#
#
#
# Elastic Compliance Matrix: (Units=1/GPa)
#
#
# Indices 1 2 3 4 5 6 
#
# 1 0.011432 -0.007270 -0.003291 0.000000 0.000000 0.000000
# 2 -0.007270 0.030370 -0.021281 0.000000 0.000000 0.000000
# 3 -0.003291 -0.021281 0.039429 0.000000 0.000000 0.000000
# 4 0.000000 0.000000 0.000000 0.042733 0.000000 0.000000
# 5 0.000000 0.000000 0.000000 0.000000 0.028714 0.000000
# 6 0.000000 0.000000 0.000000 0.000000 0.000000 0.049206
#
#
# Mechanical properties :
#
#
# Convention : Reuss Voigt Hill
#
# Bulk Modulus (GPa) = 56.98984 70.76449 63.87717
# Shear Modulus (GPa) = 18.42186 23.58637 21.00411
#
# Velocity S-wave (km/s) = 3.25045 3.67796 3.47079
# Velocity P-wave (km/s) = 6.83903 7.65649 7.25928
#
# Compressibility (1/GPa) = 0.01754699
#
# Stress axis : x y z
#
# Youngs Moduli (GPa) = 87.47330 32.92716 25.36228
#
# Poissons Ratio (x) = 0.23938 0.08346
# Poissons Ratio (y) = 0.63592 0.53974
# Poissons Ratio (z) = 0.28786 0.70073
#
# Static dielectric constant tensor:
#      x y z
#    x 1.572220 0.000000 0.000000 
#    y 0.000000 1.586700 0.000000 
#    z 0.000000 0.000000 1.584880 
# 
# From -- ./inp_files/17121.got.cif
#   From: 2010.05.17/outbox.cif.g08.bks.cpg/sg65_9_cif.got.tgz:17121.got - 2010.06.03 17:01:31.
