data_PCOD9491158
_publ_section_title
;
Structure prediction by ZEFSAII (Michael W. Deem and Ramdas Pophale) SiO2 
 PCOD9491158
Probable space group: C M M M
;
_chemical_formula_sum "Si O2"
_cell_formula_units_Z 88
_cell_length_a 13.882071
_cell_length_b 29.550116
_cell_length_c 11.929891
_cell_angle_alpha 90.000000
_cell_angle_beta 90.000000
_cell_angle_gamma 90.000000
_cell_volume 4893.841810
_symmetry_space_group_name_H-M "C M M M"
_symmetry_group_IT_number 65
_symmetry_cell_setting 'orthorhombic'
loop_
_space_group_symop_operation_xyz
x,y,z
-x,-y,z
x,-y,-z
-x,y,-z
-x,-y,-z
x,y,-z
-x,y,z
x,-y,z
1/2+x,1/2+y,z
1/2-x,1/2-y,z
1/2+x,1/2-y,-z
1/2-x,1/2+y,-z
1/2-x,1/2-y,-z
1/2+x,1/2+y,-z
1/2-x,1/2+y,z
1/2+x,1/2-y,z
loop_
_atom_site_type_symbol
_atom_site_label
_atom_site_fract_x
_atom_site_fract_y
_atom_site_fract_z
Si Si1 0.766357 0.367426 0.723929
Si Si2 0.617967 0.871036 0.500000
Si Si3 0.615669 0.206066 0.869232
Si Si4 0.500000 0.947033 0.134216
Si Si5 0.212894 0.553582 0.134433
Si Si6 0.884709 0.789823 0.717816
Si Si7 0.114656 0.735235 0.500000
O O1 0.825413 0.384451 0.613978
O O2 0.833673 0.332830 0.796027
O O3 0.728601 0.410345 0.795405
O O4 0.674066 0.335656 0.703824
O O5 0.500000 0.879931 0.500000
O O6 0.634673 0.817217 0.500000
O O7 0.500000 0.200074 0.857438
O O8 0.637065 0.256689 0.823099
O O9 0.640960 0.201550 0.000000
O O10 0.395970 0.930701 0.168978
O O11 0.500000 0.000000 0.161462
O O12 0.500000 0.943183 0.000000
O O13 0.224681 0.500000 0.158428
O O14 0.222672 0.558460 0.000000
O O15 0.854635 0.759751 0.611716
O O16 0.000000 0.797427 0.717422
O O17 0.000000 0.738759 0.500000
#
# Coordination Sequence:
#
# PCOD9491158 Si02
#       7
#    16   8  16   8  16  16   8
#     4  12  22  33  56  78 103 143 181 217 263 316
#     4  11  23  35  51  81 114 141 175 214 257 314
#     4  10  21  34  49  75 110 140 170 214 266 322
#     4   7  12  26  48  71  95 125 161 204 249 297
#     4   9  19  35  55  79 105 136 178 222 263 315
#     4  10  21  36  53  76 105 139 181 225 262 304
#     4   9  17  35  55  70 102 144 177 212 254 302
#
# _framework density 17.981783
#
# number of rings (size 3 to 8) (size 9 to 14) (size 15 to 20)
#    0.000    2.091    1.818    3.273    2.545    2.909 
#    0.000    0.455    0.000    1.091    0.000    1.273 
#    0.000    3.636    0.000    0.000    0.000    0.000 
#
# Total GULP energy -245086.277442 kJ/mol
# GULP energy per Si atom -5570.142669 kJ/mol
# Density = 1.794086 g / cm^3
# Si number density = 17.981783 Si / 1000 Ang^3
#
#
#
# Elastic Constant Matrix: (Units=GPa)
#
#
# Indices 1 2 3 4 5 6 
#
# 1 56.4213 13.1395 19.2536 0.0000 0.0000 0.0000
# 2 13.1395 72.6670 26.6745 0.0000 0.0000 0.0000
# 3 19.2536 26.6745 92.3748 0.0000 0.0000 0.0000
# 4 0.0000 0.0000 0.0000 31.1042 0.0000 0.0000
# 5 0.0000 0.0000 0.0000 0.0000 -15.6725 0.0000
# 6 0.0000 0.0000 0.0000 0.0000 0.0000 12.3284
#
#
#
# Elastic Compliance Matrix: (Units=1/GPa)
#
#
# Indices 1 2 3 4 5 6 
#
# 1 0.019408 -0.002264 -0.003391 0.000000 0.000000 0.000000
# 2 -0.002264 0.015657 -0.004049 0.000000 0.000000 0.000000
# 3 -0.003391 -0.004049 0.012702 0.000000 0.000000 0.000000
# 4 0.000000 0.000000 0.000000 0.032150 0.000000 0.000000
# 5 0.000000 0.000000 0.000000 0.000000 -0.063806 0.000000
# 6 0.000000 0.000000 0.000000 0.000000 0.000000 0.081113
#
#
# Mechanical properties :
#
#
# Convention : Reuss Voigt Hill
#
# Bulk Modulus (GPa) = 35.26461 37.73315 36.49888
# Shear Modulus (GPa) = 39.65512 16.37840 28.01676
#
# Velocity S-wave (km/s) = 4.70115 3.02128 3.95151
# Velocity P-wave (km/s) = 7.00868 5.76198 6.41569
#
# Compressibility (1/GPa) = 0.02835705
#
# Stress axis : x y z
#
# Youngs Moduli (GPa) = 51.52391 63.86816 78.73026
#
# Poissons Ratio (x) = 0.14463 0.26700
# Poissons Ratio (y) = 0.11668 0.31880
# Poissons Ratio (z) = 0.17474 0.25862
#
# Static dielectric constant tensor:
#      x y z
#    x 1.677620 0.000000 0.000000 
#    y 0.000000 1.616680 0.000000 
#    z 0.000000 0.000000 1.634320 
# 
# From -- ./inp_files/25232.got.cif
#   From: 2010.05.17/outbox.cif.g08.bks.cpg/sg65_13_cif.got.tgz:25232.got - 2010.06.03 17:01:31.
