data_PCOD9491987
_publ_section_title
;
Structure prediction by ZEFSAII (Michael W. Deem and Ramdas Pophale) SiO2 
 PCOD9491987
Probable space group: C M M M
;
_chemical_formula_sum "Si O2"
_cell_formula_units_Z 64
_cell_length_a 21.487032
_cell_length_b 8.656467
_cell_length_c 17.880912
_cell_angle_alpha 90.000000
_cell_angle_beta 90.000000
_cell_angle_gamma 90.000000
_cell_volume 3325.881521
_symmetry_space_group_name_H-M "C M M M"
_symmetry_group_IT_number 65
_symmetry_cell_setting 'orthorhombic'
loop_
_space_group_symop_operation_xyz
x,y,z
-x,-y,z
x,-y,-z
-x,y,-z
-x,-y,-z
x,y,-z
-x,y,z
x,-y,z
1/2+x,1/2+y,z
1/2-x,1/2-y,z
1/2+x,1/2-y,-z
1/2-x,1/2+y,-z
1/2-x,1/2-y,-z
1/2+x,1/2+y,-z
1/2-x,1/2+y,z
1/2+x,1/2-y,z
loop_
_atom_site_type_symbol
_atom_site_label
_atom_site_fract_x
_atom_site_fract_y
_atom_site_fract_z
Si Si1 0.500000 0.674137 0.409757
Si Si2 0.814575 0.184263 0.731594
Si Si3 0.928520 0.810727 0.835282
Si Si4 0.867235 0.684331 0.586296
Si Si5 0.924771 0.824411 0.000000
O O1 0.500000 0.500000 0.377944
O O2 0.500000 0.662678 0.500000
O O3 0.436896 0.762288 0.391422
O O4 0.750000 0.250000 0.762431
O O5 0.875657 0.237192 0.777226
O O6 0.822564 0.239608 0.646452
O O7 0.812888 0.000000 0.733799
O O8 0.000000 0.763827 0.817965
O O9 0.929307 0.000000 0.837430
O O10 0.910185 0.755135 0.918988
O O11 0.856325 0.732987 0.500000
O O12 0.862856 0.500000 0.589465
O O13 0.000000 0.834686 0.000000
O O14 0.899693 0.000000 0.000000
#
# Coordination Sequence:
#
# PCOD9491987 Si02
#       5
#     8  16  16  16   8
#     4   9  17  31  53  81 109 136 171 218 271 325
#     4  11  23  37  54  77 111 147 184 230 278 334
#     4   8  15  29  52  81 108 138 178 224 271 321
#     4  10  21  37  56  78 106 141 184 232 280 328
#     4   7  10  22  47  78 109 135 168 219 271 317
#
# _framework density 19.243017999999999
#
# number of rings (size 3 to 8) (size 9 to 14) (size 15 to 20)
#    0.000    2.750    0.000    3.375    1.750    3.500 
#    0.000    0.625    0.000    0.000    0.000    2.625 
#    0.000   12.000    0.000    0.000    0.000    0.000 
#
# Total GULP energy -178378.060517 kJ/mol
# GULP energy per Si atom -5574.314391 kJ/mol
# Density = 1.919922 g / cm^3
# Si number density = 19.243018 Si / 1000 Ang^3
#
#
#
# Elastic Constant Matrix: (Units=GPa)
#
#
# Indices 1 2 3 4 5 6 
#
# 1 120.8762 20.7224 68.0211 0.0000 0.0000 0.0000
# 2 20.7224 31.7385 23.7450 0.0000 0.0000 0.0000
# 3 68.0211 23.7450 113.6620 0.0000 0.0000 0.0000
# 4 0.0000 0.0000 0.0000 3.6287 0.0000 0.0000
# 5 0.0000 0.0000 0.0000 0.0000 10.5842 0.0000
# 6 0.0000 0.0000 0.0000 0.0000 0.0000 27.2307
#
#
#
# Elastic Compliance Matrix: (Units=1/GPa)
#
#
# Indices 1 2 3 4 5 6 
#
# 1 0.012725 -0.003095 -0.006969 0.000000 0.000000 0.000000
# 2 -0.003095 0.038097 -0.006107 0.000000 0.000000 0.000000
# 3 -0.006969 -0.006107 0.014244 0.000000 0.000000 0.000000
# 4 0.000000 0.000000 0.000000 0.275579 0.000000 0.000000
# 5 0.000000 0.000000 0.000000 0.000000 0.094480 0.000000
# 6 0.000000 0.000000 0.000000 0.000000 0.000000 0.036723
#
#
# Mechanical properties :
#
#
# Convention : Reuss Voigt Hill
#
# Bulk Modulus (GPa) = 30.55706 54.58373 42.57040
# Shear Modulus (GPa) = 9.70690 18.54126 14.12408
#
# Velocity S-wave (km/s) = 2.24840 3.10745 2.71215
# Velocity P-wave (km/s) = 4.75967 6.42667 5.65493
#
# Compressibility (1/GPa) = 0.03272566
#
# Stress axis : x y z
#
# Youngs Moduli (GPa) = 78.58523 26.24892 70.20374
#
# Poissons Ratio (x) = 0.08123 0.48924
# Poissons Ratio (y) = 0.24319 0.42872
# Poissons Ratio (z) = 0.54765 0.16030
#
# Static dielectric constant tensor:
#      x y z
#    x 1.622210 0.000000 0.000000 
#    y 0.000000 1.659900 0.000000 
#    z 0.000000 0.000000 1.719520 
# 
# From -- ./inp_files/55306.got.cif
#   From: 2010.05.17/outbox.cif.g08.bks.cpg/sg65_28_cif.got.tgz:55306.got - 2010.06.03 17:01:31.
