data_PCOD9491785
_publ_section_title
;
Structure prediction by ZEFSAII (Michael W. Deem and Ramdas Pophale) SiO2 
 PCOD9491785
Probable space group: C M M M
;
_chemical_formula_sum "Si O2"
_cell_formula_units_Z 72
_cell_length_a 15.100903
_cell_length_b 8.908044
_cell_length_c 28.041958
_cell_angle_alpha 90.000000
_cell_angle_beta 90.000000
_cell_angle_gamma 90.000000
_cell_volume 3772.190404
_symmetry_space_group_name_H-M "C M M M"
_symmetry_group_IT_number 65
_symmetry_cell_setting 'orthorhombic'
loop_
_space_group_symop_operation_xyz
x,y,z
-x,-y,z
x,-y,-z
-x,y,-z
-x,-y,-z
x,y,-z
-x,y,z
x,-y,z
1/2+x,1/2+y,z
1/2-x,1/2-y,z
1/2+x,1/2-y,-z
1/2-x,1/2+y,-z
1/2-x,1/2-y,-z
1/2+x,1/2+y,-z
1/2-x,1/2+y,z
1/2+x,1/2-y,z
loop_
_atom_site_type_symbol
_atom_site_label
_atom_site_fract_x
_atom_site_fract_y
_atom_site_fract_z
Si Si1 0.394671 0.830550 0.051724
Si Si2 0.150962 0.181298 0.254668
Si Si3 0.000000 0.818585 0.424260
Si Si4 0.000000 0.679867 0.319793
Si Si5 0.845886 0.821979 0.850537
Si Si6 0.651537 0.319627 0.500000
O O1 0.500000 0.843022 0.047810
O O2 0.381000 0.738003 0.099462
O O3 0.358006 0.000000 0.057673
O O4 0.362529 0.770793 0.000000
O O5 0.250000 0.250000 0.258622
O O6 0.085754 0.252833 0.293042
O O7 0.113191 0.215416 0.201198
O O8 0.155186 0.000000 0.259540
O O9 0.000000 0.735989 0.374096
O O10 0.911704 0.780334 0.454902
O O11 0.000000 0.000000 0.418000
O O12 0.000000 0.500000 0.317052
O O13 0.750000 0.750000 0.847145
O O14 0.842093 0.000000 0.853169
O O15 0.661173 0.500000 0.500000
O O16 0.750000 0.250000 0.500000
#
# Coordination Sequence:
#
# PCOD9491785 Si02
#       6
#    16  16   8   8  16   8
#     4   9  19  35  53  75 104 137 173 217 272 335
#     4  10  22  41  61  85 118 154 198 251 302 359
#     4   9  20  40  60  86 126 165 205 251 296 351
#     4  12  25  39  61  92 123 165 208 247 304 358
#     4  10  21  36  56  79 104 136 178 226 281 340
#     4   9  19  37  64  92 122 165 207 247 301 350
#
# _framework density 19.087053999999998
#
# number of rings (size 3 to 8) (size 9 to 14) (size 15 to 20)
#    0.000    2.222    0.000    3.667    1.556    5.778 
#    0.000    4.444    0.000    0.000    0.000    0.000 
#    0.000    0.000    0.000    0.000    0.000    0.000 
#
# Total GULP energy -200631.943642 kJ/mol
# GULP energy per Si atom -5573.109546 kJ/mol
# Density = 1.904361 g / cm^3
# Si number density = 19.087054 Si / 1000 Ang^3
#
#
#
# Elastic Constant Matrix: (Units=GPa)
#
#
# Indices 1 2 3 4 5 6 
#
# 1 113.8418 46.0405 80.9243 0.0000 0.0000 0.0000
# 2 46.0405 86.1331 89.3099 0.0000 0.0000 0.0000
# 3 80.9243 89.3099 209.0989 0.0000 0.0000 0.0000
# 4 0.0000 0.0000 0.0000 31.9022 0.0000 0.0000
# 5 0.0000 0.0000 0.0000 0.0000 25.3439 0.0000
# 6 0.0000 0.0000 0.0000 0.0000 0.0000 29.0037
#
#
#
# Elastic Compliance Matrix: (Units=1/GPa)
#
#
# Indices 1 2 3 4 5 6 
#
# 1 0.012535 -0.002998 -0.003571 0.000000 0.000000 0.000000
# 2 -0.002998 0.021556 -0.008047 0.000000 0.000000 0.000000
# 3 -0.003571 -0.008047 0.009601 0.000000 0.000000 0.000000
# 4 0.000000 0.000000 0.000000 0.031346 0.000000 0.000000
# 5 0.000000 0.000000 0.000000 0.000000 0.039457 0.000000
# 6 0.000000 0.000000 0.000000 0.000000 0.000000 0.034478
#
#
# Mechanical properties :
#
#
# Convention : Reuss Voigt Hill
#
# Bulk Modulus (GPa) = 69.14940 93.51367 81.33154
# Shear Modulus (GPa) = 27.31883 30.10323 28.71103
#
# Velocity S-wave (km/s) = 3.78732 3.97565 3.88263
# Velocity P-wave (km/s) = 7.44528 8.37699 7.92484
#
# Compressibility (1/GPa) = 0.01446144
#
# Stress axis : x y z
#
# Youngs Moduli (GPa) = 79.77837 46.39126 104.15313
#
# Poissons Ratio (x) = 0.13907 0.37190
# Poissons Ratio (y) = 0.23915 0.83809
# Poissons Ratio (z) = 0.28487 0.37330
#
# Static dielectric constant tensor:
#      x y z
#    x 1.662110 0.000000 0.000000 
#    y 0.000000 1.661820 0.000000 
#    z 0.000000 0.000000 1.717580 
# 
# From -- ./inp_files/74627.got.cif
#   From: 2010.05.17/outbox.cif.g08.bks.cpg/sg65_38_cif.got.tgz:74627.got - 2010.06.03 17:01:31.
