data_PCOD9491207
_publ_section_title
;
Structure prediction by ZEFSAII (Michael W. Deem and Ramdas Pophale) SiO2 
 PCOD9491207
Probable space group: C M M M
;
_chemical_formula_sum "Si O2"
_cell_formula_units_Z 64
_cell_length_a 29.333525
_cell_length_b 14.748809
_cell_length_c 7.420440
_cell_angle_alpha 90.000000
_cell_angle_beta 90.000000
_cell_angle_gamma 90.000000
_cell_volume 3210.338776
_symmetry_space_group_name_H-M "C M M M"
_symmetry_group_IT_number 65
_symmetry_cell_setting 'orthorhombic'
loop_
_space_group_symop_operation_xyz
x,y,z
-x,-y,z
x,-y,-z
-x,y,-z
-x,-y,-z
x,y,-z
-x,y,z
x,-y,z
1/2+x,1/2+y,z
1/2-x,1/2-y,z
1/2+x,1/2-y,-z
1/2-x,1/2+y,-z
1/2-x,1/2-y,-z
1/2+x,1/2+y,-z
1/2-x,1/2+y,z
1/2+x,1/2-y,z
loop_
_atom_site_type_symbol
_atom_site_label
_atom_site_fract_x
_atom_site_fract_y
_atom_site_fract_z
Si Si1 0.802120 0.500000 0.219395
Si Si2 0.948318 0.000000 0.285366
Si Si3 0.802185 0.000000 0.778766
Si Si4 0.051781 0.500000 0.219779
Si Si5 0.624572 0.853100 0.779935
Si Si6 0.873122 0.851688 0.213048
O O1 0.750022 0.500000 0.279671
O O2 0.831147 0.411585 0.273945
O O3 0.801585 0.500000 0.000000
O O4 0.918648 0.911867 0.233967
O O5 0.950774 0.000000 0.500000
O O6 0.000000 0.000000 0.214091
O O7 0.831238 0.912696 0.718118
O O8 0.802546 0.000000 0.000000
O O9 0.080683 0.588088 0.275165
O O10 0.000000 0.500000 0.282086
O O11 0.051205 0.500000 0.000000
O O12 0.623963 0.750012 0.714652
O O13 0.624246 0.852101 0.000000
O O14 0.865362 0.842399 0.000000
#
# Coordination Sequence:
#
# PCOD9491207 Si02
#       6
#     8   8   8   8  16  16
#     4   8  13  22  36  59  93 123 143 171 215 259
#     4  10  21  35  48  63  85 114 145 175 214 265
#     4   8  14  23  36  58  88 118 145 176 214 255
#     4   8  13  21  32  50  80 114 143 172 213 263
#     4   8  14  23  36  58  88 117 143 175 215 256
#     4   9  17  29  45  67  90 111 143 183 218 252
#
# _framework density 19.935592
#
# number of rings (size 3 to 8) (size 9 to 14) (size 15 to 20)
#    0.000    3.500    0.000    2.625    0.000    3.000 
#    0.000    7.500    0.000    0.000    0.000   17.500 
#    0.000    9.000    0.000    0.000    0.000    0.000 
#
# Total GULP energy -178417.476483 kJ/mol
# GULP energy per Si atom -5575.546140 kJ/mol
# Density = 1.989022 g / cm^3
# Si number density = 19.935592 Si / 1000 Ang^3
#
#
#
# Elastic Constant Matrix: (Units=GPa)
#
#
# Indices 1 2 3 4 5 6 
#
# 1 225.3038 130.0222 -0.8242 0.0000 0.0000 0.0000
# 2 130.0222 237.6303 6.0985 0.0000 0.0000 0.0000
# 3 -0.8242 6.0985 61.9877 0.0000 0.0000 0.0000
# 4 0.0000 0.0000 0.0000 -28.6761 0.0000 0.0000
# 5 0.0000 0.0000 0.0000 0.0000 -57.0501 0.0000
# 6 0.0000 0.0000 0.0000 0.0000 0.0000 7.4368
#
#
#
# Elastic Compliance Matrix: (Units=1/GPa)
#
#
# Indices 1 2 3 4 5 6 
#
# 1 0.006499 -0.003567 0.000437 0.000000 0.000000 0.000000
# 2 -0.003567 0.006177 -0.000655 0.000000 0.000000 0.000000
# 3 0.000437 -0.000655 0.016202 0.000000 0.000000 0.000000
# 4 0.000000 0.000000 0.000000 -0.034872 0.000000 0.000000
# 5 0.000000 0.000000 0.000000 0.000000 -0.017528 0.000000
# 6 0.000000 0.000000 0.000000 0.000000 0.000000 0.134467
#
#
# Mechanical properties :
#
#
# Convention : Reuss Voigt Hill
#
# Bulk Modulus (GPa) = 46.93012 88.39054 67.66033
# Shear Modulus (GPa) = 39.80383 10.31715 25.06049
#
# Velocity S-wave (km/s) = 4.47320 2.27738 3.54937
# Velocity P-wave (km/s) = 7.09023 7.16586 7.12815
#
# Compressibility (1/GPa) = 0.02130828
#
# Stress axis : x y z
#
# Youngs Moduli (GPa) = 153.88062 161.89758 61.71888
#
# Poissons Ratio (x) = 0.57749 -0.02699
# Poissons Ratio (y) = 0.54889 0.04043
# Poissons Ratio (z) = -0.06730 0.10606
#
# Static dielectric constant tensor:
#      x y z
#    x 1.671810 0.000000 0.000000 
#    y 0.000000 1.784220 0.000000 
#    z 0.000000 0.000000 1.734780 
# 
# From -- ./inp_files/17978.got.cif
#   From: 2010.05.17/outbox.cif.g08.bks.cpg/sg65_9_cif.got.tgz:17978.got - 2010.06.03 17:01:31.
