data_PCOD9491120
_publ_section_title
;
Structure prediction by ZEFSAII (Michael W. Deem and Ramdas Pophale) SiO2 
 PCOD9491120
Probable space group: C M M M
;
_chemical_formula_sum "Si O2"
_cell_formula_units_Z 80
_cell_length_a 9.797458
_cell_length_b 26.652199
_cell_length_c 20.435151
_cell_angle_alpha 90.000000
_cell_angle_beta 90.000000
_cell_angle_gamma 90.000000
_cell_volume 5336.104289
_symmetry_space_group_name_H-M "C M M M"
_symmetry_group_IT_number 65
_symmetry_cell_setting 'orthorhombic'
loop_
_space_group_symop_operation_xyz
x,y,z
-x,-y,z
x,-y,-z
-x,y,-z
-x,-y,-z
x,y,-z
-x,y,z
x,-y,z
1/2+x,1/2+y,z
1/2-x,1/2-y,z
1/2+x,1/2-y,-z
1/2-x,1/2+y,-z
1/2-x,1/2-y,-z
1/2+x,1/2+y,-z
1/2-x,1/2+y,z
1/2+x,1/2-y,z
loop_
_atom_site_type_symbol
_atom_site_label
_atom_site_fract_x
_atom_site_fract_y
_atom_site_fract_z
Si Si1 0.160169 0.938806 0.000000
Si Si2 0.500000 0.188497 0.419454
Si Si3 0.335982 0.940802 0.500000
Si Si4 0.000000 0.193507 0.578352
Si Si5 0.340996 0.060723 0.124871
Si Si6 0.337019 0.440072 0.746419
Si Si7 0.254498 0.624244 0.620698
O O1 0.248024 0.922870 0.936598
O O2 0.000000 0.922969 0.000000
O O3 0.156862 0.000000 0.000000
O O4 0.500000 0.183187 0.500000
O O5 0.500000 0.247686 0.405513
O O6 0.375024 0.160080 0.386414
O O7 0.500000 0.931122 0.500000
O O8 0.267639 0.916155 0.563166
O O9 0.317068 0.000000 0.500000
O O10 0.874114 0.162668 0.605401
O O11 0.000000 0.190453 0.500000
O O12 0.500000 0.078184 0.124274
O O13 0.256283 0.072204 0.190637
O O14 0.347572 0.000000 0.121082
O O15 0.500000 0.431890 0.757717
O O16 0.320787 0.500000 0.732768
O O17 0.284648 0.406320 0.686502
#
# Coordination Sequence:
#
# PCOD9491120 Si02
#       7
#     8   8   8   8  16  16  16
#     4   9  15  25  43  65  95 131 168 209 244 277
#     4  11  22  38  56  74  94 121 162 211 267 320
#     4  11  22  35  50  72  99 130 167 203 242 293
#     4  11  22  36  58  76  94 117 160 219 265 314
#     4   9  17  28  44  67  93 129 173 209 240 281
#     4  10  21  34  47  67  99 136 170 203 245 297
#     4  12  20  37  51  74  96 128 163 205 257 303
#
# _framework density 14.99221
#
# number of rings (size 3 to 8) (size 9 to 14) (size 15 to 20)
#    0.000    1.600    4.000    2.100    1.400    5.200 
#    0.000    0.500    0.000    0.000    0.000    0.000 
#    0.000    0.000    0.000    5.400    0.000    0.700 
#
# Total GULP energy -222853.491894 kJ/mol
# GULP energy per Si atom -5571.337297 kJ/mol
# Density = 1.495809 g / cm^3
# Si number density = 14.992210 Si / 1000 Ang^3
#
#
#
# Elastic Constant Matrix: (Units=GPa)
#
#
# Indices 1 2 3 4 5 6 
#
# 1 173.4449 57.8418 84.1590 0.0000 0.0000 0.0000
# 2 57.8418 91.4736 55.0824 0.0000 0.0000 0.0000
# 3 84.1590 55.0824 136.8691 0.0000 0.0000 0.0000
# 4 0.0000 0.0000 0.0000 0.2200 0.0000 0.0000
# 5 0.0000 0.0000 0.0000 0.0000 24.2168 0.0000
# 6 0.0000 0.0000 0.0000 0.0000 0.0000 35.1195
#
#
#
# Elastic Compliance Matrix: (Units=1/GPa)
#
#
# Indices 1 2 3 4 5 6 
#
# 1 0.008818 -0.003050 -0.004195 0.000000 0.000000 0.000000
# 2 -0.003050 0.015484 -0.004356 0.000000 0.000000 0.000000
# 3 -0.004195 -0.004356 0.011638 0.000000 0.000000 0.000000
# 4 0.000000 0.000000 0.000000 4.545085 0.000000 0.000000
# 5 0.000000 0.000000 0.000000 0.000000 0.041294 0.000000
# 6 0.000000 0.000000 0.000000 0.000000 0.000000 0.028474
#
#
# Mechanical properties :
#
#
# Convention : Reuss Voigt Hill
#
# Bulk Modulus (GPa) = 78.49866 88.43934 83.46900
# Shear Modulus (GPa) = 1.06878 25.55822 13.31350
#
# Velocity S-wave (km/s) = 0.84524 4.13336 2.98321
# Velocity P-wave (km/s) = 7.30930 9.04974 8.22568
#
# Compressibility (1/GPa) = 0.01273907
#
# Stress axis : x y z
#
# Youngs Moduli (GPa) = 113.40478 64.58376 85.92200
#
# Poissons Ratio (x) = 0.19698 0.36041
# Poissons Ratio (y) = 0.34589 0.37427
# Poissons Ratio (z) = 0.47568 0.28132
#
# Static dielectric constant tensor:
#      x y z
#    x 1.487730 0.000000 0.000000 
#    y 0.000000 1.457870 0.000000 
#    z 0.000000 0.000000 1.489780 
# 
# From -- ./inp_files/50011.got.cif
#   From: 2010.05.17/outbox.cif.g08.bks.cpg/sg65_26_cif.got.tgz:50011.got - 2010.06.03 17:01:31.
