data_PCOD9491622
_publ_section_title
;
Structure prediction by ZEFSAII (Michael W. Deem and Ramdas Pophale) SiO2 
 PCOD9491622
Probable space group: C M M M
;
_chemical_formula_sum "Si O2"
_cell_formula_units_Z 88
_cell_length_a 7.592270
_cell_length_b 18.773052
_cell_length_c 30.130078
_cell_angle_alpha 90.000000
_cell_angle_beta 90.000000
_cell_angle_gamma 90.000000
_cell_volume 4294.442413
_symmetry_space_group_name_H-M "C M M M"
_symmetry_group_IT_number 65
_symmetry_cell_setting 'orthorhombic'
loop_
_space_group_symop_operation_xyz
x,y,z
-x,-y,z
x,-y,-z
-x,y,-z
-x,-y,-z
x,y,-z
-x,y,z
x,-y,z
1/2+x,1/2+y,z
1/2-x,1/2-y,z
1/2+x,1/2-y,-z
1/2-x,1/2+y,-z
1/2-x,1/2-y,-z
1/2+x,1/2+y,-z
1/2-x,1/2+y,z
1/2+x,1/2-y,z
loop_
_atom_site_type_symbol
_atom_site_label
_atom_site_fract_x
_atom_site_fract_y
_atom_site_fract_z
Si Si1 0.291330 0.666784 0.221864
Si Si2 0.214147 0.915086 0.500000
Si Si3 0.215682 0.916830 0.692197
Si Si4 0.788797 0.085748 0.404592
Si Si5 0.211778 0.666956 0.049565
Si Si6 0.290227 0.079926 0.866437
O O1 0.500000 0.659184 0.223917
O O2 0.250000 0.750000 0.220152
O O3 0.220247 0.629229 0.266385
O O4 0.234695 0.626625 0.177406
O O5 0.278617 0.886688 0.452270
O O6 0.000000 0.909197 0.500000
O O7 0.252008 0.000000 0.500000
O O8 0.276389 0.889798 0.643611
O O9 0.000000 0.915510 0.691440
O O10 0.265032 0.000000 0.697572
O O11 0.000000 0.096891 0.404961
O O12 0.762156 0.000000 0.404454
O O13 0.250000 0.750000 0.058035
O O14 0.281152 0.619176 0.089746
O O15 0.000000 0.659521 0.048448
O O16 0.278140 0.649173 0.000000
O O17 0.500000 0.074416 0.872773
O O18 0.219480 0.000000 0.860770
#
# Coordination Sequence:
#
# PCOD9491622 Si02
#       6
#    16   8  16  16  16  16
#     4  11  22  35  51  70  94 126 164 202 242 288
#     4   7   8  10  20  42  73 106 135 167 214 269
#     4   8  14  25  41  61  85 114 149 189 233 281
#     4   7   9  14  26  47  76 107 138 174 219 271
#     4   9  18  33  53  76 102 133 166 197 231 274
#     4  10  21  36  54  77 103 129 159 198 242 285
#
# _framework density 20.491599999999998
#
# number of rings (size 3 to 8) (size 9 to 14) (size 15 to 20)
#    0.000    3.182    0.000    3.818    0.000    3.636 
#    0.000    1.818    0.000    0.000    0.000    4.455 
#    0.000    0.000    0.000    2.455    0.000   54.455 
#
# Total GULP energy -245175.946216 kJ/mol
# GULP energy per Si atom -5572.180596 kJ/mol
# Density = 2.044496 g / cm^3
# Si number density = 20.491600 Si / 1000 Ang^3
#
#
#
# Elastic Constant Matrix: (Units=GPa)
#
#
# Indices 1 2 3 4 5 6 
#
# 1 44.2278 -0.0389 7.1405 0.0000 0.0000 0.0000
# 2 -0.0389 100.2431 113.9656 0.0000 0.0000 0.0000
# 3 7.1405 113.9656 252.9812 0.0000 0.0000 0.0000
# 4 0.0000 0.0000 0.0000 -57.5919 0.0000 0.0000
# 5 0.0000 0.0000 0.0000 0.0000 22.4688 0.0000
# 6 0.0000 0.0000 0.0000 0.0000 0.0000 -17.8614
#
#
#
# Elastic Compliance Matrix: (Units=1/GPa)
#
#
# Indices 1 2 3 4 5 6 
#
# 1 0.022826 0.001520 -0.001329 0.000000 0.000000 0.000000
# 2 0.001520 0.020550 -0.009300 0.000000 0.000000 0.000000
# 3 -0.001329 -0.009300 0.008180 0.000000 0.000000 0.000000
# 4 0.000000 0.000000 0.000000 -0.017364 0.000000 0.000000
# 5 0.000000 0.000000 0.000000 0.000000 0.044506 0.000000
# 6 0.000000 0.000000 0.000000 0.000000 0.000000 -0.055987
#
#
# Mechanical properties :
#
#
# Convention : Reuss Voigt Hill
#
# Bulk Modulus (GPa) = 29.99689 71.06517 50.53103
# Shear Modulus (GPa) = 96.07341 7.82877 51.95109
#
# Velocity S-wave (km/s) = 6.85464 1.95672 5.04058
# Velocity P-wave (km/s) = 8.79309 6.31351 7.65438
#
# Compressibility (1/GPa) = 0.03333679
#
# Stress axis : x y z
#
# Youngs Moduli (GPa) = 43.80954 48.66202 122.24764
#
# Poissons Ratio (x) = -0.07395 0.16245
# Poissons Ratio (y) = -0.06657 1.13695
# Poissons Ratio (z) = 0.05822 0.45258
#
# Static dielectric constant tensor:
#      x y z
#    x 1.777070 0.000000 0.000000 
#    y 0.000000 1.673590 0.000000 
#    z 0.000000 0.000000 1.790570 
# 
# From -- ./inp_files/76476.got.cif
#   From: 2010.05.17/outbox.cif.g08.bks.cpg/sg65_39_cif.got.tgz:76476.got - 2010.06.03 17:01:31.
