data_PCOD9491351
_publ_section_title
;
Structure prediction by ZEFSAII (Michael W. Deem and Ramdas Pophale) SiO2 
 PCOD9491351
Probable space group: C M M M
;
_chemical_formula_sum "Si O2"
_cell_formula_units_Z 88
_cell_length_a 31.628638
_cell_length_b 8.712090
_cell_length_c 18.027116
_cell_angle_alpha 90.000000
_cell_angle_beta 90.000000
_cell_angle_gamma 90.000000
_cell_volume 4967.399591
_symmetry_space_group_name_H-M "C M M M"
_symmetry_group_IT_number 65
_symmetry_cell_setting 'orthorhombic'
loop_
_space_group_symop_operation_xyz
x,y,z
-x,-y,z
x,-y,-z
-x,y,-z
-x,-y,-z
x,y,-z
-x,y,z
x,-y,z
1/2+x,1/2+y,z
1/2-x,1/2-y,z
1/2+x,1/2-y,-z
1/2-x,1/2+y,-z
1/2-x,1/2-y,-z
1/2+x,1/2+y,-z
1/2-x,1/2+y,z
1/2+x,1/2-y,z
loop_
_atom_site_type_symbol
_atom_site_label
_atom_site_fract_x
_atom_site_fract_y
_atom_site_fract_z
Si Si1 0.676579 0.817330 0.082908
Si Si2 0.412025 0.817312 0.846235
Si Si3 0.047409 0.684806 0.413221
Si Si4 0.705181 0.683949 0.240123
Si Si5 0.500000 0.186876 0.916688
Si Si6 0.617857 0.318653 0.693943
O O1 0.626121 0.797922 0.095410
O O2 0.696876 0.739223 0.155208
O O3 0.685518 0.000000 0.086754
O O4 0.688650 0.762939 0.000000
O O5 0.456993 0.768813 0.877196
O O6 0.401985 0.721873 0.773434
O O7 0.413087 0.000000 0.827780
O O8 0.051152 0.727108 0.500000
O O9 0.047741 0.500000 0.408650
O O10 0.086948 0.745809 0.366757
O O11 0.000000 0.735210 0.387514
O O12 0.705820 0.500000 0.239903
O O13 0.750000 0.750000 0.264413
O O14 0.666405 0.735866 0.293264
O O15 0.500000 0.000000 0.918785
O O16 0.500000 0.244486 0.000000
O O17 0.619009 0.500000 0.681325
#
# Coordination Sequence:
#
# PCOD9491351 Si02
#       6
#    16  16  16  16   8  16
#     4   9  17  30  48  69  95 129 170 217 268 317
#     4   9  17  29  46  68  95 131 173 215 255 301
#     4   9  19  36  58  84 112 141 173 206 241 289
#     4  10  21  36  53  74 100 132 173 217 263 313
#     4   9  16  26  43  67  92 123 170 221 257 288
#     4  10  21  35  52  77 107 137 168 208 256 306
#
# _framework density 17.715506000000001
#
# number of rings (size 3 to 8) (size 9 to 14) (size 15 to 20)
#    0.000    2.636    0.000    2.182    1.273    5.818 
#    0.000    0.909    0.000    2.727    0.000    0.000 
#    0.000    0.000    0.000    0.000    0.000    0.000 
#
# Total GULP energy -245209.894257 kJ/mol
# GULP energy per Si atom -5572.952142 kJ/mol
# Density = 1.767518 g / cm^3
# Si number density = 17.715506 Si / 1000 Ang^3
#
#
#
# Elastic Constant Matrix: (Units=GPa)
#
#
# Indices 1 2 3 4 5 6 
#
# 1 159.6672 30.9840 57.7495 0.0000 0.0000 0.0000
# 2 30.9840 19.9807 21.1918 0.0000 0.0000 0.0000
# 3 57.7495 21.1918 70.5159 0.0000 0.0000 0.0000
# 4 0.0000 0.0000 0.0000 -80.5819 0.0000 0.0000
# 5 0.0000 0.0000 0.0000 0.0000 13.3239 0.0000
# 6 0.0000 0.0000 0.0000 0.0000 0.0000 21.7039
#
#
#
# Elastic Compliance Matrix: (Units=1/GPa)
#
#
# Indices 1 2 3 4 5 6 
#
# 1 0.010129 -0.010141 -0.005247 0.000000 0.000000 0.000000
# 2 -0.010141 0.083618 -0.016824 0.000000 0.000000 0.000000
# 3 -0.005247 -0.016824 0.023535 0.000000 0.000000 0.000000
# 4 0.000000 0.000000 0.000000 -0.012410 0.000000 0.000000
# 5 0.000000 0.000000 0.000000 0.000000 0.075053 0.000000
# 6 0.000000 0.000000 0.000000 0.000000 0.000000 0.046075
#
#
# Mechanical properties :
#
#
# Convention : Reuss Voigt Hill
#
# Bulk Modulus (GPa) = 18.91929 52.22383 35.57156
# Shear Modulus (GPa) = 16.23143 0.23840 8.23492
#
# Velocity S-wave (km/s) = 3.03021 0.36724 2.15836
# Velocity P-wave (km/s) = 4.79015 5.45188 5.13169
#
# Compressibility (1/GPa) = 0.05285612
#
# Stress axis : x y z
#
# Youngs Moduli (GPa) = 98.72719 11.95912 42.49054
#
# Poissons Ratio (x) = 0.12128 0.22297
# Poissons Ratio (y) = 1.00123 0.71486
# Poissons Ratio (z) = 0.51806 0.20120
#
# Static dielectric constant tensor:
#      x y z
#    x 1.651590 0.000000 0.000000 
#    y 0.000000 1.604920 0.000000 
#    z 0.000000 0.000000 1.580620 
# 
# From -- ./inp_files/58005.got.cif
#   From: 2010.05.17/outbox.cif.g08.bks.cpg/sg65_30_cif.got.tgz:58005.got - 2010.06.03 17:01:31.
