data_PCOD9491181
_publ_section_title
;
Structure prediction by ZEFSAII (Michael W. Deem and Ramdas Pophale) SiO2 
 PCOD9491181
Probable space group: C M M M
;
_chemical_formula_sum "Si O2"
_cell_formula_units_Z 116
_cell_length_a 30.101983
_cell_length_b 23.476928
_cell_length_c 7.787185
_cell_angle_alpha 90.000000
_cell_angle_beta 90.000000
_cell_angle_gamma 90.000000
_cell_volume 5503.219896
_symmetry_space_group_name_H-M "C M M M"
_symmetry_group_IT_number 65
_symmetry_cell_setting 'orthorhombic'
loop_
_space_group_symop_operation_xyz
x,y,z
-x,-y,z
x,-y,-z
-x,y,-z
-x,-y,-z
x,y,-z
-x,y,z
x,-y,z
1/2+x,1/2+y,z
1/2-x,1/2-y,z
1/2+x,1/2-y,-z
1/2-x,1/2+y,-z
1/2-x,1/2-y,-z
1/2+x,1/2+y,-z
1/2-x,1/2+y,z
1/2+x,1/2-y,z
loop_
_atom_site_type_symbol
_atom_site_label
_atom_site_fract_x
_atom_site_fract_y
_atom_site_fract_z
Si Si1 0.617117 0.181481 0.703538
Si Si2 0.950211 0.218594 0.205577
Si Si3 0.860208 0.436711 0.203606
Si Si4 0.259041 0.064461 0.299053
Si Si5 0.913913 0.092474 0.792578
Si Si6 0.064636 0.000000 0.500000
Si Si7 0.320748 0.638598 0.194687
Si Si8 0.701584 0.757939 0.695697
O O1 0.622203 0.181931 0.500000
O O2 0.580864 0.228778 0.745712
O O3 0.608585 0.116637 0.756550
O O4 0.664854 0.201628 0.778774
O O5 0.930642 0.156458 0.247337
O O6 0.000000 0.224468 0.276007
O O7 0.952590 0.219294 0.000000
O O8 0.874312 0.500000 0.263340
O O9 0.811389 0.424844 0.280821
O O10 0.854499 0.439121 0.000000
O O11 0.247592 0.066874 0.500000
O O12 0.226610 0.108146 0.207806
O O13 0.251321 0.000000 0.235377
O O14 0.860488 0.095246 0.763664
O O15 0.934085 0.049236 0.654768
O O16 0.921792 0.080867 0.000000
O O17 0.319897 0.695249 0.306915
O O18 0.329301 0.658048 0.000000
O O19 0.709953 0.778583 0.500000
O O20 0.750000 0.750000 0.778614
#
# Coordination Sequence:
#
# PCOD9491181 Si02
#       8
#    16  16  16  16  16   4  16  16
#     4  11  22  36  62  95 127 163 209 262 316 380
#     4  10  22  44  71  95 127 168 209 266 329 387
#     4  10  21  38  59  86 124 167 211 255 309 375
#     4  10  21  34  52  77 112 161 215 262 308 372
#     4  10  24  43  63  96 129 164 218 271 325 395
#     4  12  26  40  73  92 126 176 206 266 334 392
#     4  11  22  34  52  77 115 159 207 267 319 370
#     4  10  21  35  53  80 118 161 206 254 311 379
#
# _framework density 21.078568000000001
#
# number of rings (size 3 to 8) (size 9 to 14) (size 15 to 20)
#    0.000    1.655    1.379    2.690    3.862    3.862 
#    0.000    0.690    0.000    2.069    0.000    2.897 
#    0.000    0.000    0.000    0.000    0.000    0.000 
#
# Total GULP energy -323313.025344 kJ/mol
# GULP energy per Si atom -5574.362506 kJ/mol
# Density = 2.103059 g / cm^3
# Si number density = 21.078568 Si / 1000 Ang^3
#
#
#
# Elastic Constant Matrix: (Units=GPa)
#
#
# Indices 1 2 3 4 5 6 
#
# 1 61.4692 43.5687 18.4820 0.0000 0.0000 0.0000
# 2 43.5687 162.4192 30.0285 0.0000 0.0000 0.0000
# 3 18.4820 30.0285 61.7039 0.0000 0.0000 0.0000
# 4 0.0000 0.0000 0.0000 32.2296 0.0000 0.0000
# 5 0.0000 0.0000 0.0000 0.0000 1.1644 0.0000
# 6 0.0000 0.0000 0.0000 0.0000 0.0000 -0.9280
#
#
#
# Elastic Compliance Matrix: (Units=1/GPa)
#
#
# Indices 1 2 3 4 5 6 
#
# 1 0.020900 -0.004889 -0.003881 0.000000 0.000000 0.000000
# 2 -0.004889 0.007909 -0.002385 0.000000 0.000000 0.000000
# 3 -0.003881 -0.002385 0.018529 0.000000 0.000000 0.000000
# 4 0.000000 0.000000 0.000000 0.031027 0.000000 0.000000
# 5 0.000000 0.000000 0.000000 0.000000 0.858820 0.000000
# 6 0.000000 0.000000 0.000000 0.000000 0.000000 -1.077562
#
#
# Mechanical properties :
#
#
# Convention : Reuss Voigt Hill
#
# Bulk Modulus (GPa) = 39.95240 52.19450 46.07345
# Shear Modulus (GPa) = -45.56945 19.39408 -13.08769
#
# Velocity S-wave (km/s) = -4.65465 3.03658 -2.49449
# Velocity P-wave (km/s) = 3.14524 6.09180 3.68901
#
# Compressibility (1/GPa) = 0.02502979
#
# Stress axis : x y z
#
# Youngs Moduli (GPa) = 47.84582 126.43408 53.96822
#
# Poissons Ratio (x) = 0.61813 0.20945
# Poissons Ratio (y) = 0.23392 0.12870
# Poissons Ratio (z) = 0.18569 0.30151
#
# Static dielectric constant tensor:
#      x y z
#    x 1.782140 0.000000 0.000000 
#    y 0.000000 1.804490 0.000000 
#    z 0.000000 0.000000 1.783630 
# 
# From -- ./inp_files/16909.got.cif
#   From: 2010.05.17/outbox.cif.g08.bks.cpg/sg65_9_cif.got.tgz:16909.got - 2010.06.03 17:01:31.
