data_PCOD9491898
_publ_section_title
;
Structure prediction by ZEFSAII (Michael W. Deem and Ramdas Pophale) SiO2 
 PCOD9491898
Probable space group: C M M M
;
_chemical_formula_sum "Si O2"
_cell_formula_units_Z 80
_cell_length_a 26.574923
_cell_length_b 8.155949
_cell_length_c 24.490151
_cell_angle_alpha 90.000000
_cell_angle_beta 90.000000
_cell_angle_gamma 90.000000
_cell_volume 5308.086349
_symmetry_space_group_name_H-M "C M M M"
_symmetry_group_IT_number 65
_symmetry_cell_setting 'orthorhombic'
loop_
_space_group_symop_operation_xyz
x,y,z
-x,-y,z
x,-y,-z
-x,y,-z
-x,-y,-z
x,y,-z
-x,y,z
x,-y,z
1/2+x,1/2+y,z
1/2-x,1/2-y,z
1/2+x,1/2-y,-z
1/2-x,1/2+y,-z
1/2-x,1/2-y,-z
1/2+x,1/2+y,-z
1/2-x,1/2+y,z
1/2+x,1/2-y,z
loop_
_atom_site_type_symbol
_atom_site_label
_atom_site_fract_x
_atom_site_fract_y
_atom_site_fract_z
Si Si1 0.061331 0.000000 0.936852
Si Si2 0.500000 0.299314 0.563215
Si Si3 0.805643 0.695307 0.437969
Si Si4 0.442652 0.803058 0.741466
Si Si5 0.938777 0.689273 0.864897
Si Si6 0.598337 0.305086 0.628977
O O1 0.077387 0.167180 0.906038
O O2 0.000000 0.000000 0.935610
O O3 0.076855 0.000000 0.000000
O O4 0.500000 0.500000 0.563903
O O5 0.500000 0.248653 0.500000
O O6 0.550007 0.241876 0.594692
O O7 0.813983 0.760197 0.500000
O O8 0.805952 0.500000 0.440443
O O9 0.750000 0.750000 0.420446
O O10 0.850162 0.749278 0.398553
O O11 0.500000 0.739343 0.733597
O O12 0.425214 0.761819 0.802710
O O13 0.408831 0.745664 0.691623
O O14 0.445137 0.000000 0.740117
O O15 0.922497 0.500000 0.876118
O O16 0.000000 0.684910 0.865738
O O17 0.596555 0.500000 0.626110
#
# Coordination Sequence:
#
# PCOD9491898 Si02
#       6
#     8   8  16  16  16  16
#     4   9  16  24  36  56  78 108 150 194 228 264
#     4   9  18  30  41  61  93 119 141 176 227 278
#     4  10  21  37  54  69  86 112 147 189 233 280
#     4   9  17  29  43  60  87 117 149 188 228 270
#     4   8  15  26  38  54  78 112 147 188 232 268
#     4  11  20  30  47  70  91 117 149 186 229 278
#
# _framework density 15.071344
#
# number of rings (size 3 to 8) (size 9 to 14) (size 15 to 20)
#    0.000    2.600    1.000    3.000    1.400    2.400 
#    0.000    2.000    0.000    2.400    0.000    0.000 
#    0.000    0.000    0.000    0.000    0.000    1.000 
#
# Total GULP energy -222882.327041 kJ/mol
# GULP energy per Si atom -5572.058176 kJ/mol
# Density = 1.503704 g / cm^3
# Si number density = 15.071344 Si / 1000 Ang^3
#
#
#
# Elastic Constant Matrix: (Units=GPa)
#
#
# Indices 1 2 3 4 5 6 
#
# 1 67.9131 25.4242 60.8794 0.0000 0.0000 0.0000
# 2 25.4242 55.2122 61.0141 0.0000 0.0000 0.0000
# 3 60.8794 61.0141 133.5607 0.0000 0.0000 0.0000
# 4 0.0000 0.0000 0.0000 22.2470 0.0000 0.0000
# 5 0.0000 0.0000 0.0000 0.0000 9.8814 0.0000
# 6 0.0000 0.0000 0.0000 0.0000 0.0000 12.6256
#
#
#
# Elastic Compliance Matrix: (Units=1/GPa)
#
#
# Indices 1 2 3 4 5 6 
#
# 1 0.025028 0.002185 -0.012407 0.000000 0.000000 0.000000
# 2 0.002185 0.036768 -0.017793 0.000000 0.000000 0.000000
# 3 -0.012407 -0.017793 0.021271 0.000000 0.000000 0.000000
# 4 0.000000 0.000000 0.000000 0.044950 0.000000 0.000000
# 5 0.000000 0.000000 0.000000 0.000000 0.101201 0.000000
# 6 0.000000 0.000000 0.000000 0.000000 0.000000 0.079204
#
#
# Mechanical properties :
#
#
# Convention : Reuss Voigt Hill
#
# Bulk Modulus (GPa) = 36.98384 61.25793 49.12088
# Shear Modulus (GPa) = 13.38821 16.24202 14.81512
#
# Velocity S-wave (km/s) = 2.98371 3.28636 3.13868
# Velocity P-wave (km/s) = 6.03842 7.42521 6.76743
#
# Compressibility (1/GPa) = 0.02703884
#
# Stress axis : x y z
#
# Youngs Moduli (GPa) = 39.95477 27.19750 47.01322
#
# Poissons Ratio (x) = -0.05944 0.58328
# Poissons Ratio (y) = -0.08731 0.83649
# Poissons Ratio (z) = 0.49571 0.48392
#
# Static dielectric constant tensor:
#      x y z
#    x 1.421520 0.000000 0.000000 
#    y 0.000000 1.522510 0.000000 
#    z 0.000000 0.000000 1.515620 
# 
# From -- ./inp_files/65056.got.cif
#   From: 2010.05.17/outbox.cif.g08.bks.cpg/sg65_33_cif.got.tgz:65056.got - 2010.06.03 17:01:31.
