data_PCOD9491392
_publ_section_title
;
Structure prediction by ZEFSAII (Michael W. Deem and Ramdas Pophale) SiO2 
 PCOD9491392
Probable space group: C M M M
;
_chemical_formula_sum "Si O2"
_cell_formula_units_Z 80
_cell_length_a 9.823555
_cell_length_b 14.699699
_cell_length_c 25.189601
_cell_angle_alpha 90.000000
_cell_angle_beta 90.000000
_cell_angle_gamma 90.000000
_cell_volume 3637.461551
_symmetry_space_group_name_H-M "C M M M"
_symmetry_group_IT_number 65
_symmetry_cell_setting 'orthorhombic'
loop_
_space_group_symop_operation_xyz
x,y,z
-x,-y,z
x,-y,-z
-x,y,-z
-x,-y,-z
x,y,-z
-x,y,z
x,-y,z
1/2+x,1/2+y,z
1/2-x,1/2-y,z
1/2+x,1/2-y,-z
1/2-x,1/2+y,-z
1/2-x,1/2-y,-z
1/2+x,1/2+y,-z
1/2-x,1/2+y,z
1/2+x,1/2-y,z
loop_
_atom_site_type_symbol
_atom_site_label
_atom_site_fract_x
_atom_site_fract_y
_atom_site_fract_z
Si Si1 0.333182 0.155083 0.752572
Si Si2 0.000000 0.864618 0.061983
Si Si3 0.254470 0.861177 0.132087
Si Si4 0.154292 0.388705 0.561150
Si Si5 0.500000 0.142711 0.059674
Si Si6 0.846139 0.893344 0.653161
O O1 0.500000 0.161730 0.750876
O O2 0.250000 0.250000 0.753726
O O3 0.287240 0.109075 0.808060
O O4 0.263330 0.112392 0.700864
O O5 0.875771 0.891391 0.099492
O O6 0.000000 0.753748 0.058592
O O7 0.000000 0.894717 0.000000
O O8 0.250000 0.750000 0.134233
O O9 0.373540 0.887592 0.093204
O O10 0.177756 0.362338 0.500000
O O11 0.154920 0.500000 0.562469
O O12 0.270367 0.355353 0.601205
O O13 0.000000 0.361032 0.576716
O O14 0.500000 0.110774 0.000000
O O15 0.000000 0.855766 0.664052
O O16 0.864357 0.000000 0.643559
#
# Coordination Sequence:
#
# PCOD9491392 Si02
#       6
#    16   8  16  16   8  16
#     4  11  22  35  53  74 102 141 179 216 258 310
#     4   9  16  24  38  60  89 125 160 199 250 304
#     4   9  17  26  40  62  90 127 163 202 250 304
#     4   8  14  27  49  76 105 136 169 208 255 303
#     4   9  14  24  38  58  89 121 158 199 248 302
#     4  10  21  35  53  79 109 139 174 217 258 301
#
# _framework density 21.993359999999999
#
# number of rings (size 3 to 8) (size 9 to 14) (size 15 to 20)
#    0.000    2.600    1.000    2.400    5.600    4.000 
#    0.000    2.000    0.000    0.600    0.000    0.000 
#    0.000    4.800    0.000    0.000    0.000    0.000 
#
# Total GULP energy -222880.109921 kJ/mol
# GULP energy per Si atom -5572.002748 kJ/mol
# Density = 2.194330 g / cm^3
# Si number density = 21.993360 Si / 1000 Ang^3
#
#
#
# Elastic Constant Matrix: (Units=GPa)
#
#
# Indices 1 2 3 4 5 6 
#
# 1 245.0708 9.5645 118.7259 0.0000 0.0000 0.0000
# 2 9.5645 60.0056 4.7568 0.0000 0.0000 0.0000
# 3 118.7259 4.7568 179.3802 0.0000 0.0000 0.0000
# 4 0.0000 0.0000 0.0000 12.3829 0.0000 0.0000
# 5 0.0000 0.0000 0.0000 0.0000 37.6233 0.0000
# 6 0.0000 0.0000 0.0000 0.0000 0.0000 5.7460
#
#
#
# Elastic Compliance Matrix: (Units=1/GPa)
#
#
# Indices 1 2 3 4 5 6 
#
# 1 0.006031 -0.000646 -0.003975 0.000000 0.000000 0.000000
# 2 -0.000646 0.016769 -0.000017 0.000000 0.000000 0.000000
# 3 -0.003975 -0.000017 0.008206 0.000000 0.000000 0.000000
# 4 0.000000 0.000000 0.000000 0.080757 0.000000 0.000000
# 5 0.000000 0.000000 0.000000 0.000000 0.026579 0.000000
# 6 0.000000 0.000000 0.000000 0.000000 0.000000 0.174033
#
#
# Mechanical properties :
#
#
# Convention : Reuss Voigt Hill
#
# Bulk Modulus (GPa) = 46.01773 83.39456 64.70614
# Shear Modulus (GPa) = 15.20239 34.57773 24.89006
#
# Velocity S-wave (km/s) = 2.63197 3.96939 3.36774
# Velocity P-wave (km/s) = 5.49593 7.68169 6.67883
#
# Compressibility (1/GPa) = 0.02173075
#
# Stress axis : x y z
#
# Youngs Moduli (GPa) = 165.80251 59.63216 121.86257
#
# Poissons Ratio (x) = 0.03854 0.48437
# Poissons Ratio (y) = 0.10715 0.00207
# Poissons Ratio (z) = 0.65903 0.00101
#
# Static dielectric constant tensor:
#      x y z
#    x 1.783760 0.000000 0.000000 
#    y 0.000000 1.917590 0.000000 
#    z 0.000000 0.000000 1.793440 
# 
# From -- ./inp_files/73004.got.cif
#   From: 2010.05.17/outbox.cif.g08.bks.cpg/sg65_37_cif.got.tgz:73004.got - 2010.06.03 17:01:31.
