data_PCOD9491414
_publ_section_title
;
Structure prediction by ZEFSAII (Michael W. Deem and Ramdas Pophale) SiO2 
 PCOD9491414
Probable space group: C M M M
;
_chemical_formula_sum "Si O2"
_cell_formula_units_Z 66
_cell_length_a 7.448648
_cell_length_b 21.790512
_cell_length_c 17.846216
_cell_angle_alpha 90.000000
_cell_angle_beta 90.000000
_cell_angle_gamma 90.000000
_cell_volume 2896.616707
_symmetry_space_group_name_H-M "C M M M"
_symmetry_group_IT_number 65
_symmetry_cell_setting 'orthorhombic'
loop_
_space_group_symop_operation_xyz
x,y,z
-x,-y,z
x,-y,-z
-x,y,-z
-x,-y,-z
x,y,-z
-x,y,z
x,-y,z
1/2+x,1/2+y,z
1/2-x,1/2-y,z
1/2+x,1/2-y,-z
1/2-x,1/2+y,-z
1/2-x,1/2-y,-z
1/2+x,1/2+y,-z
1/2-x,1/2+y,z
1/2+x,1/2-y,z
loop_
_atom_site_type_symbol
_atom_site_label
_atom_site_fract_x
_atom_site_fract_y
_atom_site_fract_z
Si Si1 0.714617 0.681921 0.185698
Si Si2 0.783791 0.132663 0.339000
Si Si3 0.718956 0.431845 0.912860
Si Si4 0.000000 0.000000 0.500000
Si Si5 0.703362 0.000000 0.632480
Si Si6 0.785236 0.822342 0.500000
O O1 0.500000 0.675150 0.188923
O O2 0.750000 0.750000 0.156373
O O3 0.782181 0.674637 0.271173
O O4 0.782729 0.625578 0.135842
O O5 0.715593 0.149777 0.422063
O O6 0.000000 0.137804 0.342761
O O7 0.736365 0.062405 0.322360
O O8 0.500000 0.431405 0.910871
O O9 0.775252 0.500000 0.887108
O O10 0.770130 0.425026 0.000000
O O11 0.155361 0.000000 0.434847
O O12 0.500000 0.000000 0.604768
O O13 0.750000 0.750000 0.500000
O O14 0.000000 0.834324 0.500000
#
# Coordination Sequence:
#
# PCOD9491414 Si02
#       6
#    16  16  16   2   8   8
#     4  10  21  35  57  86 119 163 203 254 321 375
#     4  10  21  38  58  80 118 159 200 256 316 372
#     4   8  15  30  54  84 116 153 207 261 307 377
#     4  12  22  44  60  86 136 152 208 280 322 386
#     4  12  25  39  65  94 118 164 207 260 329 377
#     4  10  21  35  54  74 103 149 192 241 304 355
#
# _framework density 22.785202000000002
#
# number of rings (size 3 to 8) (size 9 to 14) (size 15 to 20)
#    0.000    2.182    1.212    2.364    3.394    2.424 
#    0.000    0.000    0.000    0.000    0.000    1.697 
#    0.000    0.000    0.000    0.000    0.000    0.000 
#
# Total GULP energy -184152.697750 kJ/mol
# GULP energy per Si atom -5580.384780 kJ/mol
# Density = 2.273334 g / cm^3
# Si number density = 22.785202 Si / 1000 Ang^3
#
#
#
# Elastic Constant Matrix: (Units=GPa)
#
#
# Indices 1 2 3 4 5 6 
#
# 1 91.8776 -18.7097 8.1013 0.0000 0.0000 0.0000
# 2 -18.7097 186.2081 88.3010 0.0000 0.0000 0.0000
# 3 8.1013 88.3010 102.2493 0.0000 0.0000 0.0000
# 4 0.0000 0.0000 0.0000 47.1073 0.0000 0.0000
# 5 0.0000 0.0000 0.0000 0.0000 -8.7909 0.0000
# 6 0.0000 0.0000 0.0000 0.0000 0.0000 23.6731
#
#
#
# Elastic Compliance Matrix: (Units=1/GPa)
#
#
# Indices 1 2 3 4 5 6 
#
# 1 0.011734 0.002743 -0.003299 0.000000 0.000000 0.000000
# 2 0.002743 0.009736 -0.008625 0.000000 0.000000 0.000000
# 3 -0.003299 -0.008625 0.017490 0.000000 0.000000 0.000000
# 4 0.000000 0.000000 0.000000 0.021228 0.000000 0.000000
# 5 0.000000 0.000000 0.000000 0.000000 -0.113754 0.000000
# 6 0.000000 0.000000 0.000000 0.000000 0.000000 0.042242
#
#
# Mechanical properties :
#
#
# Convention : Reuss Voigt Hill
#
# Bulk Modulus (GPa) = 48.54796 59.52445 54.03621
# Shear Modulus (GPa) = 359.61509 32.57406 196.09457
#
# Velocity S-wave (km/s) = 12.57660 3.78513 9.28704
# Velocity P-wave (km/s) = 15.23967 6.72932 11.77989
#
# Compressibility (1/GPa) = 0.02059819
#
# Stress axis : x y z
#
# Youngs Moduli (GPa) = 85.22591 102.70997 57.17525
#
# Poissons Ratio (x) = -0.28175 0.18860
# Poissons Ratio (y) = -0.23379 0.49316
# Poissons Ratio (z) = 0.28113 0.88591
#
# Static dielectric constant tensor:
#      x y z
#    x 1.867880 0.000000 0.000000 
#    y 0.000000 1.849320 0.000000 
#    z 0.000000 0.000000 1.836770 
# 
# From -- ./inp_files/49260.got.cif
#   From: 2010.05.17/outbox.cif.g08.bks.cpg/sg65_25_cif.got.tgz:49260.got - 2010.06.03 17:01:31.
