data_PCOD9491084
_publ_section_title
;
Structure prediction by ZEFSAII (Michael W. Deem and Ramdas Pophale) SiO2 
 PCOD9491084
Probable space group: C M M M
;
_chemical_formula_sum "Si O2"
_cell_formula_units_Z 72
_cell_length_a 21.973838
_cell_length_b 15.324766
_cell_length_c 13.179273
_cell_angle_alpha 90.000000
_cell_angle_beta 90.000000
_cell_angle_gamma 90.000000
_cell_volume 4438.040125
_symmetry_space_group_name_H-M "C M M M"
_symmetry_group_IT_number 65
_symmetry_cell_setting 'orthorhombic'
loop_
_space_group_symop_operation_xyz
x,y,z
-x,-y,z
x,-y,-z
-x,y,-z
-x,-y,-z
x,y,-z
-x,y,z
x,-y,z
1/2+x,1/2+y,z
1/2-x,1/2-y,z
1/2+x,1/2-y,-z
1/2-x,1/2+y,-z
1/2-x,1/2-y,-z
1/2+x,1/2+y,-z
1/2-x,1/2+y,z
1/2+x,1/2-y,z
loop_
_atom_site_type_symbol
_atom_site_label
_atom_site_fract_x
_atom_site_fract_y
_atom_site_fract_z
Si Si1 0.000000 0.102547 0.114166
Si Si2 0.628172 0.343099 0.118567
Si Si3 0.429298 0.000000 0.261184
Si Si4 0.249398 0.144852 0.762763
Si Si5 0.869748 0.365772 0.884752
Si Si6 0.197468 0.500000 0.379477
O O1 0.936293 0.127059 0.162148
O O2 0.000000 0.000000 0.103247
O O3 0.000000 0.143461 0.000000
O O4 0.684388 0.373457 0.186375
O O5 0.624330 0.238386 0.118032
O O6 0.634912 0.371871 0.000000
O O7 0.414970 0.916356 0.189853
O O8 0.373669 0.000000 0.342598
O O9 0.500000 0.000000 0.295106
O O10 0.250000 0.250000 0.742651
O O11 0.301112 0.120416 0.845280
O O12 0.268573 0.084738 0.668256
O O13 0.877838 0.395163 0.000000
O O14 0.200184 0.500000 0.500000
#
# Coordination Sequence:
#
# PCOD9491084 Si02
#       6
#     8  16   8  16  16   8
#     4   9  18  28  38  63  97 133 170 188 212 268
#     4   9  17  29  47  70 103 137 162 192 229 277
#     4  10  21  33  48  71 100 132 167 198 235 290
#     4   9  18  33  52  75  98 125 161 201 247 293
#     4   9  17  29  46  72 104 135 163 190 225 277
#     4  10  22  38  55  75  93 116 162 217 265 304
#
# _framework density 16.223376999999999
#
# number of rings (size 3 to 8) (size 9 to 14) (size 15 to 20)
#    0.000    2.778    0.000    1.000    3.111    4.222 
#    0.000    1.111    0.000    0.000    0.000    1.556 
#    0.000    0.000    0.000    0.000    0.000    0.000 
#
# Total GULP energy -200414.282998 kJ/mol
# GULP energy per Si atom -5567.063417 kJ/mol
# Density = 1.618645 g / cm^3
# Si number density = 16.223377 Si / 1000 Ang^3
#
#
#
# Elastic Constant Matrix: (Units=GPa)
#
#
# Indices 1 2 3 4 5 6 
#
# 1 158.3036 38.3707 48.2146 0.0000 0.0000 0.0000
# 2 38.3707 39.9093 29.8681 0.0000 0.0000 0.0000
# 3 48.2146 29.8681 91.0504 0.0000 0.0000 0.0000
# 4 0.0000 0.0000 0.0000 13.2887 0.0000 0.0000
# 5 0.0000 0.0000 0.0000 0.0000 12.0302 0.0000
# 6 0.0000 0.0000 0.0000 0.0000 0.0000 21.1186
#
#
#
# Elastic Compliance Matrix: (Units=1/GPa)
#
#
# Indices 1 2 3 4 5 6 
#
# 1 0.008630 -0.006464 -0.002449 0.000000 0.000000 0.000000
# 2 -0.006464 0.038052 -0.009060 0.000000 0.000000 0.000000
# 3 -0.002449 -0.009060 0.015252 0.000000 0.000000 0.000000
# 4 0.000000 0.000000 0.000000 0.075252 0.000000 0.000000
# 5 0.000000 0.000000 0.000000 0.000000 0.083124 0.000000
# 6 0.000000 0.000000 0.000000 0.000000 0.000000 0.047352
#
#
# Mechanical properties :
#
#
# Convention : Reuss Voigt Hill
#
# Bulk Modulus (GPa) = 38.47990 58.01892 48.24941
# Shear Modulus (GPa) = 16.01181 20.80815 18.40998
#
# Velocity S-wave (km/s) = 3.14500 3.58523 3.37231
# Velocity P-wave (km/s) = 6.07934 7.27865 6.70586
#
# Compressibility (1/GPa) = 0.02598759
#
# Stress axis : x y z
#
# Youngs Moduli (GPa) = 115.87812 26.28000 65.56583
#
# Poissons Ratio (x) = 0.16987 0.16059
# Poissons Ratio (y) = 0.74903 0.59400
# Poissons Ratio (z) = 0.28383 0.23809
#
# Static dielectric constant tensor:
#      x y z
#    x 1.569870 0.000000 0.000000 
#    y 0.000000 1.607940 0.000000 
#    z 0.000000 0.000000 1.520090 
# 
# From -- ./inp_files/26600.got.cif
#   From: 2010.05.17/outbox.cif.g08.bks.cpg/sg65_14_cif.got.tgz:26600.got - 2010.06.03 17:01:31.
