data_PCOD9491508
_publ_section_title
;
Structure prediction by ZEFSAII (Michael W. Deem and Ramdas Pophale) SiO2 
 PCOD9491508
Probable space group: C M M M
;
_chemical_formula_sum "Si O2"
_cell_formula_units_Z 88
_cell_length_a 8.711203
_cell_length_b 28.802185
_cell_length_c 21.613914
_cell_angle_alpha 90.000000
_cell_angle_beta 90.000000
_cell_angle_gamma 90.000000
_cell_volume 5422.967342
_symmetry_space_group_name_H-M "C M M M"
_symmetry_group_IT_number 65
_symmetry_cell_setting 'orthorhombic'
loop_
_space_group_symop_operation_xyz
x,y,z
-x,-y,z
x,-y,-z
-x,y,-z
-x,-y,-z
x,y,-z
-x,y,z
x,-y,z
1/2+x,1/2+y,z
1/2-x,1/2-y,z
1/2+x,1/2-y,-z
1/2-x,1/2+y,-z
1/2-x,1/2-y,-z
1/2+x,1/2+y,-z
1/2-x,1/2+y,z
1/2+x,1/2-y,z
loop_
_atom_site_type_symbol
_atom_site_label
_atom_site_fract_x
_atom_site_fract_y
_atom_site_fract_z
Si Si1 0.314890 0.801914 0.431490
Si Si2 0.184126 0.302379 0.067712
Si Si3 0.816828 0.054236 0.631864
Si Si4 0.683193 0.697665 0.195748
Si Si5 0.315899 0.859027 0.310290
Si Si6 0.673883 0.056311 0.500000
O O1 0.268599 0.819563 0.500000
O O2 0.500000 0.799855 0.430441
O O3 0.250000 0.750000 0.425140
O O4 0.266087 0.832357 0.373147
O O5 0.250000 0.250000 0.065753
O O6 0.257155 0.322340 0.130036
O O7 0.000000 0.300583 0.074077
O O8 0.220080 0.323505 0.000000
O O9 0.739205 0.088364 0.680719
O O10 0.758033 0.068411 0.563465
O O11 0.000000 0.058450 0.634209
O O12 0.776368 0.000000 0.640980
O O13 0.500000 0.700502 0.195301
O O14 0.750000 0.750000 0.202571
O O15 0.742398 0.666599 0.252020
O O16 0.500000 0.856908 0.305915
O O17 0.500000 0.075035 0.500000
O O18 0.666338 0.000000 0.500000
#
# Coordination Sequence:
#
# PCOD9491508 Si02
#       6
#    16  16  16  16  16   8
#     4   9  19  34  49  66  88 117 155 199 241 283
#     4   9  16  27  45  69  97 129 165 201 238 282
#     4  10  21  36  52  72  97 122 154 200 252 305
#     4  11  21  33  49  70 101 135 170 206 243 288
#     4  11  22  34  51  71  95 126 164 205 247 300
#     4   9  17  31  51  71  90 115 148 189 241 297
#
# _framework density 16.227277000000001
#
# number of rings (size 3 to 8) (size 9 to 14) (size 15 to 20)
#    0.000    2.091    0.000    5.182    1.273    6.182 
#    0.000    0.000    0.000    0.000    0.000    0.000 
#    0.000    0.727    0.000    7.636    0.000    3.273 
#
# Total GULP energy -245500.593950 kJ/mol
# GULP energy per Si atom -5579.558953 kJ/mol
# Density = 1.619034 g / cm^3
# Si number density = 16.227277 Si / 1000 Ang^3
#
#
#
# Elastic Constant Matrix: (Units=GPa)
#
#
# Indices 1 2 3 4 5 6 
#
# 1 82.7102 33.9835 58.9711 0.0000 0.0000 0.0000
# 2 33.9835 60.2146 59.9575 0.0000 0.0000 0.0000
# 3 58.9711 59.9575 152.1233 0.0000 0.0000 0.0000
# 4 0.0000 0.0000 0.0000 9.3794 0.0000 0.0000
# 5 0.0000 0.0000 0.0000 0.0000 19.7786 0.0000
# 6 0.0000 0.0000 0.0000 0.0000 0.0000 21.0239
#
#
#
# Elastic Compliance Matrix: (Units=1/GPa)
#
#
# Indices 1 2 3 4 5 6 
#
# 1 0.017638 -0.005178 -0.004796 0.000000 0.000000 0.000000
# 2 -0.005178 0.028855 -0.009366 0.000000 0.000000 0.000000
# 3 -0.004796 -0.009366 0.012124 0.000000 0.000000 0.000000
# 4 0.000000 0.000000 0.000000 0.106617 0.000000 0.000000
# 5 0.000000 0.000000 0.000000 0.000000 0.050560 0.000000
# 6 0.000000 0.000000 0.000000 0.000000 0.000000 0.047565
#
#
# Mechanical properties :
#
#
# Convention : Reuss Voigt Hill
#
# Bulk Modulus (GPa) = 50.15853 66.76359 58.46106
# Shear Modulus (GPa) = 16.19772 19.51210 17.85491
#
# Velocity S-wave (km/s) = 3.16282 3.47136 3.32068
# Velocity P-wave (km/s) = 6.65696 7.56963 7.12791
#
# Compressibility (1/GPa) = 0.01993679
#
# Stress axis : x y z
#
# Youngs Moduli (GPa) = 56.69637 34.65553 82.47930
#
# Poissons Ratio (x) = 0.17946 0.39560
# Poissons Ratio (y) = 0.29360 0.77247
# Poissons Ratio (z) = 0.27193 0.32457
#
# Static dielectric constant tensor:
#      x y z
#    x 1.540870 0.000000 0.000000 
#    y 0.000000 1.540840 0.000000 
#    z 0.000000 0.000000 1.569940 
# 
# From -- ./inp_files/60302.got.cif
#   From: 2010.05.17/outbox.cif.g08.bks.cpg/sg65_31_cif.got.tgz:60302.got - 2010.06.03 17:01:31.
