data_PCOD9491285
_publ_section_title
;
Structure prediction by ZEFSAII (Michael W. Deem and Ramdas Pophale) SiO2 
 PCOD9491285
Probable space group: C M M M
;
_chemical_formula_sum "Si O2"
_cell_formula_units_Z 88
_cell_length_a 14.622758
_cell_length_b 10.194023
_cell_length_c 28.155591
_cell_angle_alpha 90.000000
_cell_angle_beta 90.000000
_cell_angle_gamma 90.000000
_cell_volume 4197.005609
_symmetry_space_group_name_H-M "C M M M"
_symmetry_group_IT_number 65
_symmetry_cell_setting 'orthorhombic'
loop_
_space_group_symop_operation_xyz
x,y,z
-x,-y,z
x,-y,-z
-x,y,-z
-x,-y,-z
x,y,-z
-x,y,z
x,-y,z
1/2+x,1/2+y,z
1/2-x,1/2-y,z
1/2+x,1/2-y,-z
1/2-x,1/2+y,-z
1/2-x,1/2-y,-z
1/2+x,1/2+y,-z
1/2-x,1/2+y,z
1/2+x,1/2-y,z
loop_
_atom_site_type_symbol
_atom_site_label
_atom_site_fract_x
_atom_site_fract_y
_atom_site_fract_z
Si Si1 0.111453 0.147783 0.945393
Si Si2 0.392703 0.354891 0.423040
Si Si3 0.387884 0.850527 0.500000
Si Si4 0.388006 0.149914 0.864864
Si Si5 0.831950 0.150002 0.682796
Si Si6 0.892973 0.855002 0.788287
O O1 0.140044 0.262933 0.910152
O O2 0.000000 0.147534 0.944949
O O3 0.139486 0.000000 0.930523
O O4 0.139763 0.168556 0.000000
O O5 0.500000 0.363135 0.434436
O O6 0.352828 0.500000 0.433746
O O7 0.357849 0.234510 0.454379
O O8 0.384066 0.331693 0.366783
O O9 0.500000 0.857055 0.500000
O O10 0.355345 0.000000 0.500000
O O11 0.500000 0.144407 0.864878
O O12 0.357605 0.233346 0.818877
O O13 0.355832 0.000000 0.865654
O O14 0.750000 0.250000 0.683447
O O15 0.885850 0.167160 0.731912
O O16 0.798548 0.000000 0.682698
O O17 0.000000 0.863522 0.800656
O O18 0.852652 0.000000 0.798793
#
# Coordination Sequence:
#
# PCOD9491285 Si02
#       6
#    16  16   8  16  16  16
#     4   8  13  21  33  50  76 113 152 185 222 273
#     4   9  17  32  54  76  98 127 163 197 229 272
#     4   9  17  29  48  77 106 127 153 193 238 277
#     4   9  16  24  36  58  86 114 147 189 235 278
#     4  10  21  35  51  72  97 125 157 195 239 283
#     4   9  17  31  50  68  88 119 159 197 231 274
#
# _framework density 20.967328999999999
#
# number of rings (size 3 to 8) (size 9 to 14) (size 15 to 20)
#    0.000    3.000    0.000    1.909    0.000    7.273 
#    0.000    2.273    0.000    5.455    0.000    0.000 
#    0.000    0.727    0.000    2.364    0.000    4.727 
#
# Total GULP energy -245409.816178 kJ/mol
# GULP energy per Si atom -5577.495822 kJ/mol
# Density = 2.091961 g / cm^3
# Si number density = 20.967329 Si / 1000 Ang^3
#
#
#
# Elastic Constant Matrix: (Units=GPa)
#
#
# Indices 1 2 3 4 5 6 
#
# 1 38.5484 17.4468 -4.7380 0.0000 0.0000 0.0000
# 2 17.4468 218.7161 128.9726 0.0000 0.0000 0.0000
# 3 -4.7380 128.9726 143.3386 0.0000 0.0000 0.0000
# 4 0.0000 0.0000 0.0000 -11.3290 0.0000 0.0000
# 5 0.0000 0.0000 0.0000 0.0000 -25.0598 0.0000
# 6 0.0000 0.0000 0.0000 0.0000 0.0000 11.3066
#
#
#
# Elastic Compliance Matrix: (Units=1/GPa)
#
#
# Indices 1 2 3 4 5 6 
#
# 1 0.029585 -0.006256 0.006607 0.000000 0.000000 0.000000
# 2 -0.006256 0.011063 -0.010161 0.000000 0.000000 0.000000
# 3 0.006607 -0.010161 0.016337 0.000000 0.000000 0.000000
# 4 0.000000 0.000000 0.000000 -0.088269 0.000000 0.000000
# 5 0.000000 0.000000 0.000000 0.000000 -0.039905 0.000000
# 6 0.000000 0.000000 0.000000 0.000000 0.000000 0.088444
#
#
# Mechanical properties :
#
#
# Convention : Reuss Voigt Hill
#
# Bulk Modulus (GPa) = 26.76286 75.99621 51.37954
# Shear Modulus (GPa) = 101.35784 12.24501 56.80143
#
# Velocity S-wave (km/s) = 6.96030 2.41924 5.21049
# Velocity P-wave (km/s) = 8.79694 6.64284 7.79466
#
# Compressibility (1/GPa) = 0.03736521
#
# Stress axis : x y z
#
# Youngs Moduli (GPa) = 33.80109 90.39295 61.20940
#
# Poissons Ratio (x) = 0.56549 -0.40440
# Poissons Ratio (y) = 0.21145 0.62194
# Poissons Ratio (z) = -0.22332 0.91847
#
# Static dielectric constant tensor:
#      x y z
#    x 1.761150 0.000000 0.000000 
#    y 0.000000 1.744160 0.000000 
#    z 0.000000 0.000000 1.771880 
# 
# From -- ./inp_files/77850.got.cif
#   From: 2010.05.17/outbox.cif.g08.bks.cpg/sg65_39_cif.got.tgz:77850.got - 2010.06.03 17:01:31.
