data_PCOD9491301
_publ_section_title
;
Structure prediction by ZEFSAII (Michael W. Deem and Ramdas Pophale) SiO2 
 PCOD9491301
Probable space group: C M M M
;
_chemical_formula_sum "Si O2"
_cell_formula_units_Z 72
_cell_length_a 7.591740
_cell_length_b 19.185538
_cell_length_c 24.688869
_cell_angle_alpha 90.000000
_cell_angle_beta 90.000000
_cell_angle_gamma 90.000000
_cell_volume 3595.973673
_symmetry_space_group_name_H-M "C M M M"
_symmetry_group_IT_number 65
_symmetry_cell_setting 'orthorhombic'
loop_
_space_group_symop_operation_xyz
x,y,z
-x,-y,z
x,-y,-z
-x,y,-z
-x,-y,-z
x,y,-z
-x,y,z
x,-y,z
1/2+x,1/2+y,z
1/2-x,1/2-y,z
1/2+x,1/2-y,-z
1/2-x,1/2+y,-z
1/2-x,1/2-y,-z
1/2+x,1/2+y,-z
1/2-x,1/2+y,z
1/2+x,1/2-y,z
loop_
_atom_site_type_symbol
_atom_site_label
_atom_site_fract_x
_atom_site_fract_y
_atom_site_fract_z
Si Si1 0.288487 0.667084 0.058218
Si Si2 0.788068 0.832072 0.176038
Si Si3 0.288885 0.079770 0.601668
Si Si4 0.288329 0.420456 0.722675
Si Si5 0.788227 0.668387 0.500000
O O1 0.500000 0.658065 0.057974
O O2 0.250000 0.750000 0.058219
O O3 0.222309 0.642235 0.116897
O O4 0.221534 0.639600 0.000000
O O5 0.750000 0.750000 0.181224
O O6 0.720559 0.874064 0.227844
O O7 0.000000 0.839344 0.175089
O O8 0.500000 0.076133 0.596371
O O9 0.251554 0.105977 0.662299
O O10 0.221864 0.129011 0.553807
O O11 0.221274 0.000000 0.597099
O O12 0.500000 0.422783 0.727129
O O13 0.221929 0.500000 0.726115
O O14 0.750000 0.750000 0.500000
O O15 0.000000 0.661590 0.500000
#
# Coordination Sequence:
#
# PCOD9491301 Si02
#       5
#    16  16  16  16   8
#     4   8  13  22  37  57  81 109 142 179 217 258
#     4   9  17  28  43  64  89 116 146 183 225 265
#     4   9  18  34  54  71  88 116 154 188 216 253
#     4   9  18  32  48  66  90 120 151 182 219 263
#     4  10  21  35  51  73  99 122 144 178 224 266
#
# _framework density 20.022393999999998
#
# number of rings (size 3 to 8) (size 9 to 14) (size 15 to 20)
#    0.000    3.111    0.000    0.333    0.000    4.000 
#    0.000    4.444    0.000    4.000    0.000    4.667 
#    0.000    0.000    0.000   41.556    0.000   22.667 
#
# Total GULP energy -200544.665543 kJ/mol
# GULP energy per Si atom -5570.685154 kJ/mol
# Density = 1.997682 g / cm^3
# Si number density = 20.022394 Si / 1000 Ang^3
#
#
#
# Elastic Constant Matrix: (Units=GPa)
#
#
# Indices 1 2 3 4 5 6 
#
# 1 46.3783 1.0077 7.0273 0.0000 0.0000 0.0000
# 2 1.0077 59.3680 98.4892 0.0000 0.0000 0.0000
# 3 7.0273 98.4892 271.7485 0.0000 0.0000 0.0000
# 4 0.0000 0.0000 0.0000 317.4281 0.0000 0.0000
# 5 0.0000 0.0000 0.0000 0.0000 7.9136 0.0000
# 6 0.0000 0.0000 0.0000 0.0000 0.0000 14.4150
#
#
#
# Elastic Compliance Matrix: (Units=1/GPa)
#
#
# Indices 1 2 3 4 5 6 
#
# 1 0.021694 0.001410 -0.001072 0.000000 0.000000 0.000000
# 2 0.001410 0.042334 -0.015380 0.000000 0.000000 0.000000
# 3 -0.001072 -0.015380 0.009282 0.000000 0.000000 0.000000
# 4 0.000000 0.000000 0.000000 0.003150 0.000000 0.000000
# 5 0.000000 0.000000 0.000000 0.000000 0.126365 0.000000
# 6 0.000000 0.000000 0.000000 0.000000 0.000000 0.069372
#
#
# Mechanical properties :
#
#
# Convention : Reuss Voigt Hill
#
# Bulk Modulus (GPa) = 23.13373 65.61590 44.37482
# Shear Modulus (GPa) = 15.78837 86.01604 50.90221
#
# Velocity S-wave (km/s) = 2.81113 6.56149 5.04756
# Velocity P-wave (km/s) = 4.70273 9.49982 7.49541
#
# Compressibility (1/GPa) = 0.04322692
#
# Stress axis : x y z
#
# Youngs Moduli (GPa) = 46.09649 23.62152 107.74020
#
# Poissons Ratio (x) = -0.03332 0.11552
# Poissons Ratio (y) = -0.06502 1.65700
# Poissons Ratio (z) = 0.04942 0.36329
#
# Static dielectric constant tensor:
#      x y z
#    x 1.817740 0.000000 0.000000 
#    y 0.000000 1.762520 0.000000 
#    z 0.000000 0.000000 1.761310 
# 
# From -- ./inp_files/61314.got.cif
#   From: 2010.05.17/outbox.cif.g08.bks.cpg/sg65_31_cif.got.tgz:61314.got - 2010.06.03 17:01:31.
