data_PCOD9491860
_publ_section_title
;
Structure prediction by ZEFSAII (Michael W. Deem and Ramdas Pophale) SiO2 
 PCOD9491860
Probable space group: C M M M
;
_chemical_formula_sum "Si O2"
_cell_formula_units_Z 64
_cell_length_a 10.563193
_cell_length_b 36.570705
_cell_length_c 8.709885
_cell_angle_alpha 90.000000
_cell_angle_beta 90.000000
_cell_angle_gamma 90.000000
_cell_volume 3364.658320
_symmetry_space_group_name_H-M "C M M M"
_symmetry_group_IT_number 65
_symmetry_cell_setting 'orthorhombic'
loop_
_space_group_symop_operation_xyz
x,y,z
-x,-y,z
x,-y,-z
-x,y,-z
-x,-y,-z
x,y,-z
-x,y,z
x,-y,z
1/2+x,1/2+y,z
1/2-x,1/2-y,z
1/2+x,1/2-y,-z
1/2-x,1/2+y,-z
1/2-x,1/2-y,-z
1/2+x,1/2+y,-z
1/2-x,1/2+y,z
1/2+x,1/2-y,z
loop_
_atom_site_type_symbol
_atom_site_label
_atom_site_fract_x
_atom_site_fract_y
_atom_site_fract_z
Si Si1 0.500000 0.416479 0.185257
Si Si2 0.500000 0.665101 0.314823
Si Si3 0.500000 0.166439 0.817083
Si Si4 0.500000 0.915212 0.317006
Si Si5 0.257965 0.042771 0.814372
Si Si6 0.744314 0.207266 0.314427
O O1 0.500000 0.375621 0.249391
O O2 0.626586 0.438059 0.232140
O O3 0.500000 0.414902 0.000000
O O4 0.500000 0.663232 0.500000
O O5 0.373671 0.686897 0.268469
O O6 0.500000 0.125640 0.749603
O O7 0.375996 0.187639 0.758750
O O8 0.500000 0.164540 0.000000
O O9 0.500000 0.913573 0.500000
O O10 0.376234 0.936492 0.258377
O O11 0.257857 0.000000 0.772945
O O12 0.267958 0.045079 0.000000
O O13 0.732990 0.205104 0.500000
O O14 0.750000 0.250000 0.272956
#
# Coordination Sequence:
#
# PCOD9491860 Si02
#       6
#     8   8   8   8  16  16
#     4  10  21  37  59  86 116 152 191 232 285 349
#     4  10  21  36  58  87 115 148 193 242 291 345
#     4  12  25  40  60  88 121 157 199 244 291 343
#     4  12  25  40  59  85 118 156 199 242 289 347
#     4  10  21  39  62  87 116 151 192 239 293 352
#     4  10  21  40  64  88 117 155 197 241 293 351
#
# _framework density 19.021246999999999
#
# number of rings (size 3 to 8) (size 9 to 14) (size 15 to 20)
#    0.000    1.500    0.000    5.250    0.000   12.000 
#    0.000    1.250    0.000    2.250    0.000    0.000 
#    0.000    0.000    0.000    0.000    0.000    0.000 
#
# Total GULP energy -178975.874616 kJ/mol
# GULP energy per Si atom -5592.996082 kJ/mol
# Density = 1.897795 g / cm^3
# Si number density = 19.021247 Si / 1000 Ang^3
#
#
#
# Elastic Constant Matrix: (Units=GPa)
#
#
# Indices 1 2 3 4 5 6 
#
# 1 243.5814 150.5164 68.8686 0.0000 0.0000 0.0000
# 2 150.5164 239.0173 69.3869 0.0000 0.0000 0.0000
# 3 68.8686 69.3869 42.8584 0.0000 0.0000 0.0000
# 4 0.0000 0.0000 0.0000 36.0095 0.0000 0.0000
# 5 0.0000 0.0000 0.0000 0.0000 3.9985 0.0000
# 6 0.0000 0.0000 0.0000 0.0000 0.0000 45.5373
#
#
#
# Elastic Compliance Matrix: (Units=1/GPa)
#
#
# Indices 1 2 3 4 5 6 
#
# 1 0.008271 -0.002548 -0.009166 0.000000 0.000000 0.000000
# 2 -0.002548 0.008679 -0.009957 0.000000 0.000000 0.000000
# 3 -0.009166 -0.009957 0.054182 0.000000 0.000000 0.000000
# 4 0.000000 0.000000 0.000000 0.027770 0.000000 0.000000
# 5 0.000000 0.000000 0.000000 0.000000 0.250092 0.000000
# 6 0.000000 0.000000 0.000000 0.000000 0.000000 0.021960
#
#
# Mechanical properties :
#
#
# Convention : Reuss Voigt Hill
#
# Bulk Modulus (GPa) = 35.98411 122.55566 79.26988
# Shear Modulus (GPa) = 11.80474 32.88808 22.34641
#
# Velocity S-wave (km/s) = 2.49390 4.16266 3.43127
# Velocity P-wave (km/s) = 5.22031 9.36346 7.58044
#
# Compressibility (1/GPa) = 0.02779005
#
# Stress axis : x y z
#
# Youngs Moduli (GPa) = 120.89887 115.22664 18.45645
#
# Poissons Ratio (x) = 0.29356 0.16918
# Poissons Ratio (y) = 0.30801 0.18376
# Poissons Ratio (z) = 1.10822 1.14726
#
# Static dielectric constant tensor:
#      x y z
#    x 1.629030 0.000000 0.000000 
#    y 0.000000 1.620000 0.000000 
#    z 0.000000 0.000000 1.643080 
# 
# From -- ./inp_files/5039.got.cif
#   From: 2010.05.17/outbox.cif.g08.bks.cpg/sg65_3_cif.got.tgz:5039.got - 2010.06.03 17:01:31.
