data_PCOD9491162
_publ_section_title
;
Structure prediction by ZEFSAII (Michael W. Deem and Ramdas Pophale) SiO2 
 PCOD9491162
Probable space group: C M M M
;
_chemical_formula_sum "Si O2"
_cell_formula_units_Z 64
_cell_length_a 27.315365
_cell_length_b 7.404749
_cell_length_c 14.935721
_cell_angle_alpha 90.000000
_cell_angle_beta 90.000000
_cell_angle_gamma 90.000000
_cell_volume 3020.950035
_symmetry_space_group_name_H-M "C M M M"
_symmetry_group_IT_number 65
_symmetry_cell_setting 'orthorhombic'
loop_
_space_group_symop_operation_xyz
x,y,z
-x,-y,z
x,-y,-z
-x,y,-z
-x,-y,-z
x,y,-z
-x,y,z
x,-y,z
1/2+x,1/2+y,z
1/2-x,1/2-y,z
1/2+x,1/2-y,-z
1/2-x,1/2+y,-z
1/2-x,1/2-y,-z
1/2+x,1/2+y,-z
1/2-x,1/2+y,z
1/2+x,1/2-y,z
loop_
_atom_site_type_symbol
_atom_site_label
_atom_site_fract_x
_atom_site_fract_y
_atom_site_fract_z
Si Si1 0.000000 0.288197 0.890820
Si Si2 0.864181 0.715718 0.396312
Si Si3 0.944961 0.000000 0.608844
Si Si4 0.194003 0.714699 0.229054
Si Si5 0.893382 0.721331 0.103862
O O1 0.053036 0.215365 0.862885
O O2 0.000000 0.500000 0.866464
O O3 0.000000 0.278825 0.000000
O O4 0.853323 0.757737 0.500000
O O5 0.872145 0.500000 0.389594
O O6 0.912696 0.824591 0.368450
O O7 0.821058 0.771950 0.329152
O O8 0.948350 0.000000 0.500000
O O9 0.000000 0.000000 0.644796
O O10 0.188835 0.500000 0.227459
O O11 0.250000 0.750000 0.205794
O O12 0.152482 0.784863 0.161809
O O13 0.894536 0.500000 0.105892
O O14 0.887659 0.772294 0.000000
#
# Coordination Sequence:
#
# PCOD9491162 Si02
#       5
#     8  16   8  16  16
#     4   7  10  20  42  68  94 124 157 202 255 308
#     4   9  19  36  55  79 112 145 183 226 270 322
#     4   9  18  34  58  84 111 147 183 218 270 327
#     4  10  21  34  50  74 103 138 180 226 275 323
#     4   8  14  27  47  72 101 131 168 215 268 326
#
# _framework density 21.185388
#
# number of rings (size 3 to 8) (size 9 to 14) (size 15 to 20)
#    0.000    3.250    0.000    1.500    1.750    1.500 
#    2.250    2.500    0.000    0.000    0.000    0.000 
#    0.000    4.000    0.000    0.000    0.000    0.000 
#
# Total GULP energy -178426.888705 kJ/mol
# GULP energy per Si atom -5575.840272 kJ/mol
# Density = 2.113717 g / cm^3
# Si number density = 21.185388 Si / 1000 Ang^3
#
#
#
# Elastic Constant Matrix: (Units=GPa)
#
#
# Indices 1 2 3 4 5 6 
#
# 1 223.3258 13.8869 88.9840 0.0000 0.0000 0.0000
# 2 13.8869 62.0130 12.5714 0.0000 0.0000 0.0000
# 3 88.9840 12.5714 88.2493 0.0000 0.0000 0.0000
# 4 0.0000 0.0000 0.0000 -22.4753 0.0000 0.0000
# 5 0.0000 0.0000 0.0000 0.0000 33.4662 0.0000
# 6 0.0000 0.0000 0.0000 0.0000 0.0000 33.2221
#
#
#
# Elastic Compliance Matrix: (Units=1/GPa)
#
#
# Indices 1 2 3 4 5 6 
#
# 1 0.007486 -0.000151 -0.007527 0.000000 0.000000 0.000000
# 2 -0.000151 0.016608 -0.002214 0.000000 0.000000 0.000000
# 3 -0.007527 -0.002214 0.019237 0.000000 0.000000 0.000000
# 4 0.000000 0.000000 0.000000 -0.044493 0.000000 0.000000
# 5 0.000000 0.000000 0.000000 0.000000 0.029881 0.000000
# 6 0.000000 0.000000 0.000000 0.000000 0.000000 0.030100
#
#
# Mechanical properties :
#
#
# Convention : Reuss Voigt Hill
#
# Bulk Modulus (GPa) = 42.46710 67.16366 54.81538
# Shear Modulus (GPa) = 57.83526 26.05231 41.94378
#
# Velocity S-wave (km/s) = 5.23057 3.51056 4.45437
# Velocity P-wave (km/s) = 7.52113 6.94288 7.23779
#
# Compressibility (1/GPa) = 0.02354764
#
# Stress axis : x y z
#
# Youngs Moduli (GPa) = 133.57661 60.21119 51.98361
#
# Poissons Ratio (x) = 0.00906 0.39129
# Poissons Ratio (y) = 0.02011 0.11510
# Poissons Ratio (z) = 1.00546 0.13332
#
# Static dielectric constant tensor:
#      x y z
#    x 1.772940 0.000000 0.000000 
#    y 0.000000 1.850100 0.000000 
#    z 0.000000 0.000000 1.772560 
# 
# From -- ./inp_files/45119.got.cif
#   From: 2010.05.17/outbox.cif.g08.bks.cpg/sg65_23_cif.got.tgz:45119.got - 2010.06.03 17:01:31.
