data_PCOD9491043
_publ_section_title
;
Structure prediction by ZEFSAII (Michael W. Deem and Ramdas Pophale) SiO2 
 PCOD9491043
Probable space group: C M M M
;
_chemical_formula_sum "Si O2"
_cell_formula_units_Z 64
_cell_length_a 26.685529
_cell_length_b 15.142469
_cell_length_c 8.507189
_cell_angle_alpha 90.000000
_cell_angle_beta 90.000000
_cell_angle_gamma 90.000000
_cell_volume 3437.625728
_symmetry_space_group_name_H-M "C M M M"
_symmetry_group_IT_number 65
_symmetry_cell_setting 'orthorhombic'
loop_
_space_group_symop_operation_xyz
x,y,z
-x,-y,z
x,-y,-z
-x,y,-z
-x,-y,-z
x,y,-z
-x,y,z
x,-y,z
1/2+x,1/2+y,z
1/2-x,1/2-y,z
1/2+x,1/2-y,-z
1/2-x,1/2+y,-z
1/2-x,1/2-y,-z
1/2+x,1/2+y,-z
1/2-x,1/2+y,z
1/2+x,1/2-y,z
loop_
_atom_site_type_symbol
_atom_site_label
_atom_site_fract_x
_atom_site_fract_y
_atom_site_fract_z
Si Si1 0.056324 0.000000 0.308922
Si Si2 0.000000 0.396625 0.311445
Si Si3 0.136907 0.142990 0.311256
Si Si4 0.213375 0.000000 0.811098
Si Si5 0.171371 0.500000 0.191466
Si Si6 0.893764 0.332015 0.188590
O O1 0.088224 0.914502 0.262590
O O2 0.054628 0.000000 0.500000
O O3 0.000000 0.000000 0.248819
O O4 0.949737 0.349245 0.251547
O O5 0.000000 0.500000 0.259322
O O6 0.000000 0.395328 0.500000
O O7 0.139062 0.144965 0.500000
O O8 0.129979 0.240683 0.246477
O O9 0.183901 0.086392 0.249649
O O10 0.270974 0.000000 0.757575
O O11 0.211936 0.000000 0.000000
O O12 0.141018 0.586516 0.242072
O O13 0.171707 0.500000 0.000000
O O14 0.895557 0.332028 0.000000
#
# Coordination Sequence:
#
# PCOD9491043 Si02
#       6
#     8   8  16   8   8  16
#     4   8  16  32  53  75 106 149 187 226 281 343
#     4  11  23  39  59  86 121 158 193 239 301 356
#     4  10  21  37  57  86 120 152 192 244 301 352
#     4  10  20  40  64  84 112 155 202 246 294 352
#     4   9  21  39  61  85 113 154 202 248 294 346
#     4  11  22  39  61  87 118 156 201 245 290 349
#
# _framework density 18.617501000000001
#
# number of rings (size 3 to 8) (size 9 to 14) (size 15 to 20)
#    0.000    2.000    1.250    3.000    1.750    1.500 
#    0.000   10.000    0.000    2.250    0.000    0.000 
#    0.000    0.000    0.000    0.000    0.000    0.000 
#
# Total GULP energy -178697.243645 kJ/mol
# GULP energy per Si atom -5584.288864 kJ/mol
# Density = 1.857513 g / cm^3
# Si number density = 18.617501 Si / 1000 Ang^3
#
#
#
# Elastic Constant Matrix: (Units=GPa)
#
#
# Indices 1 2 3 4 5 6 
#
# 1 191.1927 98.7137 36.3377 0.0000 0.0000 0.0000
# 2 98.7137 192.2472 39.6779 0.0000 0.0000 0.0000
# 3 36.3377 39.6779 57.1598 0.0000 0.0000 0.0000
# 4 0.0000 0.0000 0.0000 31.5766 0.0000 0.0000
# 5 0.0000 0.0000 0.0000 0.0000 11.1570 0.0000
# 6 0.0000 0.0000 0.0000 0.0000 0.0000 0.1559
#
#
#
# Elastic Compliance Matrix: (Units=1/GPa)
#
#
# Indices 1 2 3 4 5 6 
#
# 1 0.007391 -0.003298 -0.002409 0.000000 0.000000 0.000000
# 2 -0.003298 0.007543 -0.003140 0.000000 0.000000 0.000000
# 3 -0.002409 -0.003140 0.021206 0.000000 0.000000 0.000000
# 4 0.000000 0.000000 0.000000 0.031669 0.000000 0.000000
# 5 0.000000 0.000000 0.000000 0.000000 0.089630 0.000000
# 6 0.000000 0.000000 0.000000 0.000000 0.000000 6.415923
#
#
# Mechanical properties :
#
#
# Convention : Reuss Voigt Hill
#
# Bulk Modulus (GPa) = 54.21139 87.78427 70.99783
# Shear Modulus (GPa) = 0.75790 26.30260 13.53025
#
# Velocity S-wave (km/s) = 0.63873 3.76279 2.69875
# Velocity P-wave (km/s) = 5.45213 8.13215 6.92306
#
# Compressibility (1/GPa) = 0.01844631
#
# Stress axis : x y z
#
# Youngs Moduli (GPa) = 135.30174 132.57502 47.15688
#
# Poissons Ratio (x) = 0.43720 0.11362
# Poissons Ratio (y) = 0.44619 0.14805
# Poissons Ratio (z) = 0.32600 0.41622
#
# Static dielectric constant tensor:
#      x y z
#    x 1.622820 0.000000 0.000000 
#    y 0.000000 1.631700 0.000000 
#    z 0.000000 0.000000 1.638910 
# 
# From -- ./inp_files/13432.got.cif
#   From: 2010.05.17/outbox.cif.g08.bks.cpg/sg65_7_cif.got.tgz:13432.got - 2010.06.03 17:01:31.
