data_PCOD9491208
_publ_section_title
;
Structure prediction by ZEFSAII (Michael W. Deem and Ramdas Pophale) SiO2 
 PCOD9491208
Probable space group: C M M M
;
_chemical_formula_sum "Si O2"
_cell_formula_units_Z 80
_cell_length_a 27.597361
_cell_length_b 18.908635
_cell_length_c 7.487938
_cell_angle_alpha 90.000000
_cell_angle_beta 90.000000
_cell_angle_gamma 90.000000
_cell_volume 3907.418901
_symmetry_space_group_name_H-M "C M M M"
_symmetry_group_IT_number 65
_symmetry_cell_setting 'orthorhombic'
loop_
_space_group_symop_operation_xyz
x,y,z
-x,-y,z
x,-y,-z
-x,y,-z
-x,-y,-z
x,y,-z
-x,y,z
x,-y,z
1/2+x,1/2+y,z
1/2-x,1/2-y,z
1/2+x,1/2-y,-z
1/2-x,1/2+y,-z
1/2-x,1/2-y,-z
1/2+x,1/2+y,-z
1/2-x,1/2+y,z
1/2+x,1/2-y,z
loop_
_atom_site_type_symbol
_atom_site_label
_atom_site_fract_x
_atom_site_fract_y
_atom_site_fract_z
Si Si1 0.916395 0.423017 0.783789
Si Si2 0.188958 0.372555 0.217832
Si Si3 0.052425 0.267438 0.707679
Si Si4 0.705173 0.577972 0.781532
Si Si5 0.841634 0.220704 0.206170
O O1 0.934245 0.500000 0.724848
O O2 0.859988 0.413246 0.731015
O O3 0.942817 0.352500 0.720843
O O4 0.918678 0.421494 0.000000
O O5 0.239174 0.407390 0.271487
O O6 0.183089 0.291555 0.282649
O O7 0.188768 0.371398 0.000000
O O8 0.053541 0.248193 0.500000
O O9 0.100891 0.234750 0.789700
O O10 0.000000 0.246614 0.783095
O O11 0.689698 0.500000 0.721505
O O12 0.674057 0.645208 0.718701
O O13 0.703690 0.576759 0.000000
O O14 0.825695 0.219330 0.000000
#
# Coordination Sequence:
#
# PCOD9491208 Si02
#       5
#    16  16  16  16  16
#     4   9  17  29  47  72  99 125 153 184 218 259
#     4   8  13  23  41  67  98 127 152 177 209 256
#     4  10  21  35  49  64  84 116 157 196 235 277
#     4   9  15  23  41  71 101 123 146 182 226 269
#     4   9  17  29  47  70  93 119 153 190 226 266
#
# _framework density 20.473875
#
# number of rings (size 3 to 8) (size 9 to 14) (size 15 to 20)
#    0.000    3.000    0.000    3.000    0.000    7.200 
#    0.000    2.000    0.000   10.800    0.000    4.200 
#    0.000    0.000    0.000    0.000    0.000    0.000 
#
# Total GULP energy -223122.685399 kJ/mol
# GULP energy per Si atom -5578.067135 kJ/mol
# Density = 2.042728 g / cm^3
# Si number density = 20.473875 Si / 1000 Ang^3
#
#
#
# Elastic Constant Matrix: (Units=GPa)
#
#
# Indices 1 2 3 4 5 6 
#
# 1 56.2755 27.6917 -12.8406 0.0000 0.0000 0.0000
# 2 27.6917 109.2954 -0.8921 0.0000 0.0000 0.0000
# 3 -12.8406 -0.8921 53.4258 0.0000 0.0000 0.0000
# 4 0.0000 0.0000 0.0000 -17.9982 0.0000 0.0000
# 5 0.0000 0.0000 0.0000 0.0000 17.1358 0.0000
# 6 0.0000 0.0000 0.0000 0.0000 0.0000 -0.0287
#
#
#
# Elastic Compliance Matrix: (Units=1/GPa)
#
#
# Indices 1 2 3 4 5 6 
#
# 1 0.021607 -0.005433 0.005102 0.000000 0.000000 0.000000
# 2 -0.005433 0.010517 -0.001130 0.000000 0.000000 0.000000
# 3 0.005102 -0.001130 0.019925 0.000000 0.000000 0.000000
# 4 0.000000 0.000000 0.000000 -0.055561 0.000000 0.000000
# 5 0.000000 0.000000 0.000000 0.000000 0.058357 0.000000
# 6 0.000000 0.000000 0.000000 0.000000 0.000000-34.899614
#
#
# Mechanical properties :
#
#
# Convention : Reuss Voigt Hill
#
# Bulk Modulus (GPa) = 20.35498 27.43497 23.89497
# Shear Modulus (GPa) = -0.14357 13.49096 6.67369
#
# Velocity S-wave (km/s) = -0.26510 2.56976 1.80740
# Velocity P-wave (km/s) = 3.14162 4.71529 4.00648
#
# Compressibility (1/GPa) = 0.04912804
#
# Stress axis : x y z
#
# Youngs Moduli (GPa) = 46.28051 95.08589 50.18810
#
# Poissons Ratio (x) = 0.51659 -0.25608
# Poissons Ratio (y) = 0.25144 0.05672
# Poissons Ratio (z) = -0.23615 0.10746
#
# Static dielectric constant tensor:
#      x y z
#    x 1.716000 0.000000 0.000000 
#    y 0.000000 1.732360 0.000000 
#    z 0.000000 0.000000 1.807520 
# 
# From -- ./inp_files/9604.got.cif
#   From: 2010.05.17/outbox.cif.g08.bks.cpg/sg65_5_cif.got.tgz:9604.got - 2010.06.03 17:01:31.
