data_PCOD9491442
_publ_section_title
;
Structure prediction by ZEFSAII (Michael W. Deem and Ramdas Pophale) SiO2 
 PCOD9491442
Probable space group: C M M M
;
_chemical_formula_sum "Si O2"
_cell_formula_units_Z 50
_cell_length_a 10.185197
_cell_length_b 15.889219
_cell_length_c 16.029750
_cell_angle_alpha 90.000000
_cell_angle_beta 90.000000
_cell_angle_gamma 90.000000
_cell_volume 2594.171797
_symmetry_space_group_name_H-M "C M M M"
_symmetry_group_IT_number 65
_symmetry_cell_setting 'orthorhombic'
loop_
_space_group_symop_operation_xyz
x,y,z
-x,-y,z
x,-y,-z
-x,y,-z
-x,-y,-z
x,y,-z
-x,y,z
x,-y,z
1/2+x,1/2+y,z
1/2-x,1/2-y,z
1/2+x,1/2-y,-z
1/2-x,1/2+y,-z
1/2-x,1/2-y,-z
1/2+x,1/2+y,-z
1/2-x,1/2+y,z
1/2+x,1/2-y,z
loop_
_atom_site_type_symbol
_atom_site_label
_atom_site_fract_x
_atom_site_fract_y
_atom_site_fract_z
Si Si1 0.273134 0.000000 0.357434
Si Si2 0.152856 0.500000 0.166658
Si Si3 0.148929 0.822316 0.398728
Si Si4 0.652128 0.822772 0.100660
Si Si5 0.500000 0.000000 0.500000
O O1 0.189851 0.914684 0.368679
O O2 0.333269 0.000000 0.265524
O O3 0.385409 0.000000 0.427358
O O4 0.205613 0.412897 0.130489
O O5 0.000000 0.500000 0.141344
O O6 0.153763 0.824048 0.500000
O O7 0.250000 0.750000 0.370799
O O8 0.000000 0.801489 0.374128
O O9 0.500000 0.811490 0.129024
O O10 0.750000 0.750000 0.129870
O O11 0.649923 0.822152 0.000000
#
# Coordination Sequence:
#
# PCOD9491442 Si02
#       5
#     8   8  16  16   2
#     4  12  23  38  58  82 120 152 200 245 294 336
#     4  10  21  35  56  86 116 151 191 236 281 336
#     4  10  22  38  60  82 107 142 191 244 299 352
#     4   9  18  36  61  87 116 149 186 227 281 346
#     4  12  24  36  62  84 110 166 206 244 288 360
#
# _framework density 19.273973999999999
#
# number of rings (size 3 to 8) (size 9 to 14) (size 15 to 20)
#    0.000    1.920    2.400    0.960    2.240    4.480 
#    0.000    7.200    0.000    3.840    0.000    0.000 
#    0.000    0.000    0.000    0.000    0.000    0.000 
#
# Total GULP energy -139274.248538 kJ/mol
# GULP energy per Si atom -5570.969942 kJ/mol
# Density = 1.923011 g / cm^3
# Si number density = 19.273974 Si / 1000 Ang^3
#
#
#
# Elastic Constant Matrix: (Units=GPa)
#
#
# Indices 1 2 3 4 5 6 
#
# 1 103.2818 89.3873 5.9430 0.0000 0.0000 0.0000
# 2 89.3873 199.0663 18.4960 0.0000 0.0000 0.0000
# 3 5.9430 18.4960 9.6203 0.0000 0.0000 0.0000
# 4 0.0000 0.0000 0.0000 39.5863 0.0000 0.0000
# 5 0.0000 0.0000 0.0000 0.0000 16.7745 0.0000
# 6 0.0000 0.0000 0.0000 0.0000 0.0000 15.6246
#
#
#
# Elastic Compliance Matrix: (Units=1/GPa)
#
#
# Indices 1 2 3 4 5 6 
#
# 1 0.016016 -0.007637 0.004788 0.000000 0.000000 0.000000
# 2 -0.007637 0.009757 -0.014042 0.000000 0.000000 0.000000
# 3 0.004788 -0.014042 0.127985 0.000000 0.000000 0.000000
# 4 0.000000 0.000000 0.000000 0.025261 0.000000 0.000000
# 5 0.000000 0.000000 0.000000 0.000000 0.059614 0.000000
# 6 0.000000 0.000000 0.000000 0.000000 0.000000 0.064001
#
#
# Mechanical properties :
#
#
# Convention : Reuss Voigt Hill
#
# Bulk Modulus (GPa) = 8.33486 59.95790 34.14638
# Shear Modulus (GPa) = 13.28345 27.60656 20.44501
#
# Velocity S-wave (km/s) = 2.62809 3.78871 3.26046
# Velocity P-wave (km/s) = 3.68008 7.09330 5.65057
#
# Compressibility (1/GPa) = 0.11997807
#
# Stress axis : x y z
#
# Youngs Moduli (GPa) = 62.43774 102.48871 7.81341
#
# Poissons Ratio (x) = 0.78266 -0.03741
# Poissons Ratio (y) = 0.47681 0.10971
# Poissons Ratio (z) = -0.29895 1.43910
#
# Static dielectric constant tensor:
#      x y z
#    x 1.667840 0.000000 0.000000 
#    y 0.000000 1.678870 0.000000 
#    z 0.000000 0.000000 1.647680 
# 
# From -- ./inp_files/35117.got.cif
#   From: 2010.05.17/outbox.cif.g08.bks.cpg/sg65_18_cif.got.tgz:35117.got - 2010.06.03 17:01:31.
