data_PCOD9491731
_publ_section_title
;
Structure prediction by ZEFSAII (Michael W. Deem and Ramdas Pophale) SiO2 
 PCOD9491731
Probable space group: C M M M
;
_chemical_formula_sum "Si O2"
_cell_formula_units_Z 88
_cell_length_a 18.591107
_cell_length_b 8.957785
_cell_length_c 28.932066
_cell_angle_alpha 90.000000
_cell_angle_beta 90.000000
_cell_angle_gamma 90.000000
_cell_volume 4818.205645
_symmetry_space_group_name_H-M "C M M M"
_symmetry_group_IT_number 65
_symmetry_cell_setting 'orthorhombic'
loop_
_space_group_symop_operation_xyz
x,y,z
-x,-y,z
x,-y,-z
-x,y,-z
-x,-y,-z
x,y,-z
-x,y,z
x,-y,z
1/2+x,1/2+y,z
1/2-x,1/2-y,z
1/2+x,1/2-y,-z
1/2-x,1/2+y,-z
1/2-x,1/2-y,-z
1/2+x,1/2+y,-z
1/2-x,1/2+y,z
1/2+x,1/2-y,z
loop_
_atom_site_type_symbol
_atom_site_label
_atom_site_fract_x
_atom_site_fract_y
_atom_site_fract_z
Si Si1 0.171905 0.322293 0.633636
Si Si2 0.586133 0.323798 0.448583
Si Si3 0.170567 0.179649 0.914301
Si Si4 0.083473 0.178847 0.820799
Si Si5 0.328853 0.821442 0.738544
Si Si6 0.414479 0.820932 0.000000
O O1 0.177883 0.500000 0.630872
O O2 0.250000 0.250000 0.627511
O O3 0.121240 0.262647 0.593460
O O4 0.147618 0.284281 0.685981
O O5 0.610026 0.273793 0.500000
O O6 0.500000 0.308892 0.446897
O O7 0.602931 0.500000 0.444551
O O8 0.250000 0.250000 0.914951
O O9 0.130836 0.213793 0.865957
O O10 0.174915 0.000000 0.919434
O O11 0.123520 0.249141 0.955448
O O12 0.117071 0.258691 0.776490
O O13 0.000000 0.219887 0.827946
O O14 0.086860 0.000000 0.813980
O O15 0.250000 0.750000 0.745695
O O16 0.322994 0.000000 0.742476
O O17 0.500000 0.790414 0.000000
O O18 0.404265 0.000000 0.000000
#
# Coordination Sequence:
#
# PCOD9491731 Si02
#       6
#    16  16  16  16  16   8
#     4  10  21  36  55  80 109 142 182 226 273 326
#     4   9  19  36  56  78 106 141 180 222 271 327
#     4  11  23  40  62  87 117 152 191 233 278 330
#     4  10  22  39  59  85 115 148 187 229 276 330
#     4  10  21  37  57  81 110 145 184 227 275 327
#     4  11  24  41  62  89 119 151 190 235 282 331
#
# _framework density 18.264060000000001
#
# number of rings (size 3 to 8) (size 9 to 14) (size 15 to 20)
#    0.000    1.909    0.000    3.818    0.000    8.727 
#    0.000    4.545    0.000    0.000    0.000    0.000 
#    0.000    0.000    0.000    0.000    0.000    0.000 
#
# Total GULP energy -245782.800196 kJ/mol
# GULP energy per Si atom -5585.972732 kJ/mol
# Density = 1.822249 g / cm^3
# Si number density = 18.264060 Si / 1000 Ang^3
#
#
#
# Elastic Constant Matrix: (Units=GPa)
#
#
# Indices 1 2 3 4 5 6 
#
# 1 121.6375 64.4546 96.6807 0.0000 0.0000 0.0000
# 2 64.4546 67.9350 81.0869 0.0000 0.0000 0.0000
# 3 96.6807 81.0869 167.0227 0.0000 0.0000 0.0000
# 4 0.0000 0.0000 0.0000 34.3089 0.0000 0.0000
# 5 0.0000 0.0000 0.0000 0.0000 42.4881 0.0000
# 6 0.0000 0.0000 0.0000 0.0000 0.0000 30.7127
#
#
#
# Elastic Compliance Matrix: (Units=1/GPa)
#
#
# Indices 1 2 3 4 5 6 
#
# 1 0.018204 -0.011162 -0.005118 0.000000 0.000000 0.000000
# 2 -0.011162 0.041848 -0.013855 0.000000 0.000000 0.000000
# 3 -0.005118 -0.013855 0.015676 0.000000 0.000000 0.000000
# 4 0.000000 0.000000 0.000000 0.029147 0.000000 0.000000
# 5 0.000000 0.000000 0.000000 0.000000 0.023536 0.000000
# 6 0.000000 0.000000 0.000000 0.000000 0.000000 0.032560
#
#
# Mechanical properties :
#
#
# Convention : Reuss Voigt Hill
#
# Bulk Modulus (GPa) = 64.69648 93.44884 79.07266
# Shear Modulus (GPa) = 22.08529 29.12681 25.60605
#
# Velocity S-wave (km/s) = 3.48116 3.99778 3.74838
# Velocity P-wave (km/s) = 7.18733 8.51975 7.88175
#
# Compressibility (1/GPa) = 0.01545679
#
# Stress axis : x y z
#
# Youngs Moduli (GPa) = 54.93271 23.89606 63.79009
#
# Poissons Ratio (x) = 0.26673 0.32650
# Poissons Ratio (y) = 0.61318 0.88383
# Poissons Ratio (z) = 0.28116 0.33109
#
# Static dielectric constant tensor:
#      x y z
#    x 1.594770 0.000000 0.000000 
#    y 0.000000 1.609650 0.000000 
#    z 0.000000 0.000000 1.618380 
# 
# From -- ./inp_files/71000.got.cif
#   From: 2010.05.17/outbox.cif.g08.bks.cpg/sg65_36_cif.got.tgz:71000.got - 2010.06.03 17:01:31.
