data_PCOD9491532
_publ_section_title
;
Structure prediction by ZEFSAII (Michael W. Deem and Ramdas Pophale) SiO2 
 PCOD9491532
Probable space group: C M M M
;
_chemical_formula_sum "Si O2"
_cell_formula_units_Z 56
_cell_length_a 37.066951
_cell_length_b 8.084726
_cell_length_c 9.928405
_cell_angle_alpha 90.000000
_cell_angle_beta 90.000000
_cell_angle_gamma 90.000000
_cell_volume 2975.306111
_symmetry_space_group_name_H-M "C M M M"
_symmetry_group_IT_number 65
_symmetry_cell_setting 'orthorhombic'
loop_
_space_group_symop_operation_xyz
x,y,z
-x,-y,z
x,-y,-z
-x,y,-z
-x,-y,-z
x,y,-z
-x,y,z
x,-y,z
1/2+x,1/2+y,z
1/2-x,1/2-y,z
1/2+x,1/2-y,-z
1/2-x,1/2+y,-z
1/2-x,1/2-y,-z
1/2+x,1/2+y,-z
1/2-x,1/2+y,z
1/2+x,1/2-y,z
loop_
_atom_site_type_symbol
_atom_site_label
_atom_site_fract_x
_atom_site_fract_y
_atom_site_fract_z
Si Si1 0.789330 0.196807 0.652861
Si Si2 0.565168 0.798185 0.154844
Si Si3 0.000000 0.297334 0.655350
Si Si4 0.646726 0.199179 0.847309
O O1 0.792952 0.264349 0.500000
O O2 0.750000 0.250000 0.705279
O O3 0.822328 0.249907 0.745367
O O4 0.789457 0.000000 0.645855
O O5 0.535236 0.743401 0.261017
O O6 0.606044 0.745189 0.188400
O O7 0.564752 0.000000 0.155538
O O8 0.557108 0.748843 0.000000
O O9 0.000000 0.500000 0.654776
O O10 0.000000 0.243841 0.500000
O O11 0.645756 0.000000 0.850000
O O12 0.654390 0.256718 0.000000
#
# Coordination Sequence:
#
# PCOD9491532 Si02
#       4
#    16  16   8  16
#     4  10  21  36  53  73  97 127 162 198 240 291
#     4   8  14  25  40  59  88 125 159 192 234 282
#     4   9  15  21  33  59  92 123 158 197 234 274
#     4   9  18  32  50  73  99 128 164 203 243 288
#
# _framework density 18.821591999999999
#
# number of rings (size 3 to 8) (size 9 to 14) (size 15 to 20)
#    0.000    3.000    0.000    3.000    0.000    5.714 
#    0.000    2.857    0.000    0.000    0.000    1.000 
#    0.000    8.000    0.000    0.000    0.000    0.000 
#
# Total GULP energy -156106.330234 kJ/mol
# GULP energy per Si atom -5575.226080 kJ/mol
# Density = 1.877875 g / cm^3
# Si number density = 18.821592 Si / 1000 Ang^3
#
#
#
# Elastic Constant Matrix: (Units=GPa)
#
#
# Indices 1 2 3 4 5 6 
#
# 1 199.1965 14.9140 138.1577 0.0000 0.0000 0.0000
# 2 14.9140 12.3902 11.1761 0.0000 0.0000 0.0000
# 3 138.1577 11.1761 135.4553 0.0000 0.0000 0.0000
# 4 0.0000 0.0000 0.0000 14.8262 0.0000 0.0000
# 5 0.0000 0.0000 0.0000 0.0000 988.7420 0.0000
# 6 0.0000 0.0000 0.0000 0.0000 0.0000 15.1814
#
#
#
# Elastic Compliance Matrix: (Units=1/GPa)
#
#
# Indices 1 2 3 4 5 6 
#
# 1 0.017481 -0.005358 -0.017388 0.000000 0.000000 0.000000
# 2 -0.005358 0.088841 -0.001865 0.000000 0.000000 0.000000
# 3 -0.017388 -0.001865 0.025271 0.000000 0.000000 0.000000
# 4 0.000000 0.000000 0.000000 0.067448 0.000000 0.000000
# 5 0.000000 0.000000 0.000000 0.000000 0.001011 0.000000
# 6 0.000000 0.000000 0.000000 0.000000 0.000000 0.065870
#
#
# Mechanical properties :
#
#
# Convention : Reuss Voigt Hill
#
# Bulk Modulus (GPa) = 12.14017 75.05974 43.59995
# Shear Modulus (GPa) = 14.59424 215.93619 115.26522
#
# Velocity S-wave (km/s) = 2.78762 10.72273 7.83415
# Velocity P-wave (km/s) = 4.10186 13.90211 10.24924
#
# Compressibility (1/GPa) = 0.08237116
#
# Stress axis : x y z
#
# Youngs Moduli (GPa) = 57.20516 11.25608 39.57118
#
# Poissons Ratio (x) = 0.06031 0.68805
# Poissons Ratio (y) = 0.30650 0.07381
# Poissons Ratio (z) = 0.99466 0.02100
#
# Static dielectric constant tensor:
#      x y z
#    x 1.640160 0.000000 0.000000 
#    y 0.000000 1.686490 0.000000 
#    z 0.000000 0.000000 1.650250 
# 
# From -- ./inp_files/33119.got.cif
#   From: 2010.05.17/outbox.cif.g08.bks.cpg/sg65_17_cif.got.tgz:33119.got - 2010.06.03 17:01:31.
