data_PCOD9491502
_publ_section_title
;
Structure prediction by ZEFSAII (Michael W. Deem and Ramdas Pophale) SiO2 
 PCOD9491502
Probable space group: C M M M
;
_chemical_formula_sum "Si O2"
_cell_formula_units_Z 72
_cell_length_a 18.856707
_cell_length_b 7.726819
_cell_length_c 24.320219
_cell_angle_alpha 90.000000
_cell_angle_beta 90.000000
_cell_angle_gamma 90.000000
_cell_volume 3543.513351
_symmetry_space_group_name_H-M "C M M M"
_symmetry_group_IT_number 65
_symmetry_cell_setting 'orthorhombic'
loop_
_space_group_symop_operation_xyz
x,y,z
-x,-y,z
x,-y,-z
-x,y,-z
-x,-y,-z
x,y,-z
-x,y,z
x,-y,z
1/2+x,1/2+y,z
1/2-x,1/2-y,z
1/2+x,1/2-y,-z
1/2-x,1/2+y,-z
1/2-x,1/2-y,-z
1/2+x,1/2+y,-z
1/2-x,1/2+y,z
1/2+x,1/2-y,z
loop_
_atom_site_type_symbol
_atom_site_label
_atom_site_fract_x
_atom_site_fract_y
_atom_site_fract_z
Si Si1 0.666596 0.708894 0.619789
Si Si2 0.917896 0.711221 0.938320
Si Si3 0.333731 0.292218 0.500000
Si Si4 0.080103 0.793084 0.724682
Si Si5 0.332442 0.794242 0.166710
O O1 0.661385 0.500000 0.619145
O O2 0.750000 0.750000 0.626247
O O3 0.640696 0.772280 0.559571
O O4 0.621738 0.775580 0.671274
O O5 0.916240 0.500000 0.938466
O O6 0.868201 0.774923 0.889289
O O7 0.000000 0.760531 0.928689
O O8 0.897429 0.767256 0.000000
O O9 0.342713 0.500000 0.500000
O O10 0.250000 0.250000 0.500000
O O11 0.124547 0.763199 0.779767
O O12 0.000000 0.724529 0.729298
O O13 0.075376 0.000000 0.717705
O O14 0.250000 0.750000 0.170718
O O15 0.338414 0.000000 0.164604
#
# Coordination Sequence:
#
# PCOD9491502 Si02
#       5
#    16  16   8  16  16
#     4   9  17  30  49  72  97 127 163 203 246 292
#     4   8  15  30  52  76 101 130 165 204 245 291
#     4   8  14  26  45  69  95 123 159 200 241 288
#     4  10  21  36  52  72 101 134 167 207 255 302
#     4  11  22  35  53  77 103 133 170 209 250 296
#
# _framework density 20.318818
#
# number of rings (size 3 to 8) (size 9 to 14) (size 15 to 20)
#    0.000    2.667    0.000    2.667    0.000    4.444 
#    0.000    0.556    0.000    5.333    0.000    7.778 
#    0.000   10.667    0.000    0.000    0.000    0.000 
#
# Total GULP energy -200811.396600 kJ/mol
# GULP energy per Si atom -5578.094350 kJ/mol
# Density = 2.027257 g / cm^3
# Si number density = 20.318818 Si / 1000 Ang^3
#
#
#
# Elastic Constant Matrix: (Units=GPa)
#
#
# Indices 1 2 3 4 5 6 
#
# 1 141.6173 1.5952 131.2573 0.0000 0.0000 0.0000
# 2 1.5952 33.8917 6.3156 0.0000 0.0000 0.0000
# 3 131.2573 6.3156 240.5933 0.0000 0.0000 0.0000
# 4 0.0000 0.0000 0.0000 16.1497 0.0000 0.0000
# 5 0.0000 0.0000 0.0000 0.0000 -28.2463 0.0000
# 6 0.0000 0.0000 0.0000 0.0000 0.0000 3.1266
#
#
#
# Elastic Compliance Matrix: (Units=1/GPa)
#
#
# Indices 1 2 3 4 5 6 
#
# 1 0.014305 0.000785 -0.007825 0.000000 0.000000 0.000000
# 2 0.000785 0.029694 -0.001208 0.000000 0.000000 0.000000
# 3 -0.007825 -0.001208 0.008457 0.000000 0.000000 0.000000
# 4 0.000000 0.000000 0.000000 0.061921 0.000000 0.000000
# 5 0.000000 0.000000 0.000000 0.000000 -0.035403 0.000000
# 6 0.000000 0.000000 0.000000 0.000000 0.000000 0.319841
#
#
# Mechanical properties :
#
#
# Convention : Reuss Voigt Hill
#
# Bulk Modulus (GPa) = 27.80829 77.15982 52.48405
# Shear Modulus (GPa) = 11.70150 16.66827 14.18488
#
# Velocity S-wave (km/s) = 2.40238 2.86726 2.64505
# Velocity P-wave (km/s) = 4.62720 7.00133 5.93420
#
# Compressibility (1/GPa) = 0.03596050
#
# Stress axis : x y z
#
# Youngs Moduli (GPa) = 69.90747 33.67703 118.24739
#
# Poissons Ratio (x) = -0.02643 0.92524
# Poissons Ratio (y) = -0.05486 0.14280
# Poissons Ratio (z) = 0.54700 0.04067
#
# Static dielectric constant tensor:
#      x y z
#    x 1.669520 0.000000 0.000000 
#    y 0.000000 1.761980 0.000000 
#    z 0.000000 0.000000 1.752300 
# 
# From -- ./inp_files/59221.got.cif
#   From: 2010.05.17/outbox.cif.g08.bks.cpg/sg65_30_cif.got.tgz:59221.got - 2010.06.03 17:01:31.
