data_PCOD9491958
_publ_section_title
;
Structure prediction by ZEFSAII (Michael W. Deem and Ramdas Pophale) SiO2 
 PCOD9491958
Probable space group: C M M M
;
_chemical_formula_sum "Si O2"
_cell_formula_units_Z 64
_cell_length_a 7.849704
_cell_length_b 18.351949
_cell_length_c 23.156564
_cell_angle_alpha 90.000000
_cell_angle_beta 90.000000
_cell_angle_gamma 90.000000
_cell_volume 3335.873650
_symmetry_space_group_name_H-M "C M M M"
_symmetry_group_IT_number 65
_symmetry_cell_setting 'orthorhombic'
loop_
_space_group_symop_operation_xyz
x,y,z
-x,-y,z
x,-y,-z
-x,y,-z
-x,-y,-z
x,y,-z
-x,y,z
x,-y,z
1/2+x,1/2+y,z
1/2-x,1/2-y,z
1/2+x,1/2-y,-z
1/2-x,1/2+y,-z
1/2-x,1/2-y,-z
1/2+x,1/2+y,-z
1/2-x,1/2+y,z
1/2+x,1/2-y,z
loop_
_atom_site_type_symbol
_atom_site_label
_atom_site_fract_x
_atom_site_fract_y
_atom_site_fract_z
Si Si1 0.794258 0.665329 0.000000
Si Si2 0.296558 0.082318 0.113682
Si Si3 0.299814 0.587709 0.651913
Si Si4 0.000000 0.411449 0.565886
Si Si5 0.202546 0.165341 0.229873
O O1 0.750000 0.750000 0.000000
O O2 0.729855 0.625657 0.057895
O O3 0.000000 0.660437 0.000000
O O4 0.500000 0.077141 0.106154
O O5 0.267325 0.125486 0.172696
O O6 0.227935 0.000000 0.116948
O O7 0.500000 0.605331 0.640712
O O8 0.289915 0.500000 0.659012
O O9 0.169908 0.609484 0.601209
O O10 0.241546 0.625856 0.711195
O O11 0.000000 0.500000 0.564179
O O12 0.000000 0.385099 0.500000
O O13 0.250000 0.250000 0.229937
O O14 0.000000 0.159172 0.228763
#
# Coordination Sequence:
#
# PCOD9491958 Si02
#       5
#     8  16  16   8  16
#     4  10  21  37  55  79 111 148 189 234 280 340
#     4  10  21  37  58  81 109 146 188 234 286 339
#     4   9  19  35  55  82 115 149 187 236 288 339
#     4   9  18  32  56  88 116 147 188 232 281 341
#     4  11  23  37  55  82 111 146 186 234 284 341
#
# _framework density 19.185378
#
# number of rings (size 3 to 8) (size 9 to 14) (size 15 to 20)
#    0.000    2.125    0.000    2.625    3.500    6.500 
#    0.000    2.500    0.000    3.000    0.000    0.000 
#    0.000    0.000    0.000    0.000    0.000    0.000 
#
# Total GULP energy -178643.355880 kJ/mol
# GULP energy per Si atom -5582.604871 kJ/mol
# Density = 1.914171 g / cm^3
# Si number density = 19.185378 Si / 1000 Ang^3
#
#
#
# Elastic Constant Matrix: (Units=GPa)
#
#
# Indices 1 2 3 4 5 6 
#
# 1 56.3852 29.6020 60.9736 0.0000 0.0000 0.0000
# 2 29.6020 106.0076 86.8732 0.0000 0.0000 0.0000
# 3 60.9736 86.8732 215.2167 0.0000 0.0000 0.0000
# 4 0.0000 0.0000 0.0000 -10.1718 0.0000 0.0000
# 5 0.0000 0.0000 0.0000 0.0000 -9.4233 0.0000
# 6 0.0000 0.0000 0.0000 0.0000 0.0000 18.4839
#
#
#
# Elastic Compliance Matrix: (Units=1/GPa)
#
#
# Indices 1 2 3 4 5 6 
#
# 1 0.025800 -0.001815 -0.006577 0.000000 0.000000 0.000000
# 2 -0.001815 0.014224 -0.005227 0.000000 0.000000 0.000000
# 3 -0.006577 -0.005227 0.008620 0.000000 0.000000 0.000000
# 4 0.000000 0.000000 0.000000 -0.098311 0.000000 0.000000
# 5 0.000000 0.000000 0.000000 0.000000 -0.106120 0.000000
# 6 0.000000 0.000000 0.000000 0.000000 0.000000 0.054101
#
#
# Mechanical properties :
#
#
# Convention : Reuss Voigt Hill
#
# Bulk Modulus (GPa) = 46.71658 81.38965 64.05312
# Shear Modulus (GPa) = -74.27985 13.12182 -30.57901
#
# Velocity S-wave (km/s) = -6.22904 2.61808 -3.99666
# Velocity P-wave (km/s) = 5.22797 7.18707 3.48729
#
# Compressibility (1/GPa) = 0.02140568
#
# Stress axis : x y z
#
# Youngs Moduli (GPa) = 38.75967 70.30426 116.01082
#
# Poissons Ratio (x) = 0.12758 0.76300
# Poissons Ratio (y) = 0.07034 0.60644
# Poissons Ratio (z) = 0.25492 0.36751
#
# Static dielectric constant tensor:
#      x y z
#    x 1.695060 0.000000 0.000000 
#    y 0.000000 1.634360 0.000000 
#    z 0.000000 0.000000 1.655490 
# 
# From -- ./inp_files/58900.got.cif
#   From: 2010.05.17/outbox.cif.g08.bks.cpg/sg65_30_cif.got.tgz:58900.got - 2010.06.03 17:01:31.
