data_PCOD9491858
_publ_section_title
;
Structure prediction by ZEFSAII (Michael W. Deem and Ramdas Pophale) SiO2 
 PCOD9491858
Probable space group: C M M M
;
_chemical_formula_sum "Si O2"
_cell_formula_units_Z 80
_cell_length_a 29.719245
_cell_length_b 15.967318
_cell_length_c 9.028907
_cell_angle_alpha 90.000000
_cell_angle_beta 90.000000
_cell_angle_gamma 90.000000
_cell_volume 4284.547151
_symmetry_space_group_name_H-M "C M M M"
_symmetry_group_IT_number 65
_symmetry_cell_setting 'orthorhombic'
loop_
_space_group_symop_operation_xyz
x,y,z
-x,-y,z
x,-y,-z
-x,y,-z
-x,-y,-z
x,y,-z
-x,y,z
x,-y,z
1/2+x,1/2+y,z
1/2-x,1/2-y,z
1/2+x,1/2-y,-z
1/2-x,1/2+y,-z
1/2-x,1/2-y,-z
1/2+x,1/2+y,-z
1/2-x,1/2+y,z
1/2+x,1/2-y,z
loop_
_atom_site_type_symbol
_atom_site_label
_atom_site_fract_x
_atom_site_fract_y
_atom_site_fract_z
Si Si1 0.119273 0.500000 0.678473
Si Si2 0.217276 0.500000 0.177705
Si Si3 0.448887 0.148487 0.323725
Si Si4 0.449743 0.328938 0.823374
Si Si5 0.731585 0.342373 0.678821
Si Si6 0.864524 0.097369 0.672720
O O1 0.127215 0.500000 0.500000
O O2 0.166139 0.500000 0.763336
O O3 0.088691 0.580655 0.714455
O O4 0.241610 0.417022 0.241978
O O5 0.219033 0.500000 0.000000
O O6 0.445558 0.164780 0.500000
O O7 0.500000 0.117136 0.295995
O O8 0.443235 0.235069 0.237859
O O9 0.500000 0.356728 0.775889
O O10 0.409407 0.383981 0.761776
O O11 0.448603 0.328236 0.000000
O O12 0.734813 0.354895 0.500000
O O13 0.750000 0.250000 0.713136
O O14 0.678946 0.349732 0.719679
O O15 0.873474 0.115622 0.500000
O O16 0.851811 0.000000 0.685510
#
# Coordination Sequence:
#
# PCOD9491858 Si02
#       6
#     8   8  16  16  16  16
#     4  10  21  36  58  84 116 157 199 244 293 340
#     4  12  26  41  59  91 131 161 196 246 299 363
#     4   9  18  35  59  85 113 150 200 249 290 338
#     4  10  22  38  56  83 121 158 190 231 288 354
#     4  10  22  43  69  91 117 157 204 253 303 356
#     4  10  21  39  63  89 115 146 192 245 294 347
#
# _framework density 18.671752000000001
#
# number of rings (size 3 to 8) (size 9 to 14) (size 15 to 20)
#    0.000    2.000    1.000    1.800    2.800    5.200 
#    0.000    2.000    0.000    3.000    0.000    0.000 
#    0.000    0.000    0.000    0.000    0.000    0.000 
#
# Total GULP energy -223365.368262 kJ/mol
# GULP energy per Si atom -5584.134207 kJ/mol
# Density = 1.862925 g / cm^3
# Si number density = 18.671752 Si / 1000 Ang^3
#
#
#
# Elastic Constant Matrix: (Units=GPa)
#
#
# Indices 1 2 3 4 5 6 
#
# 1 133.4614 52.2396 49.4543 0.0000 0.0000 0.0000
# 2 52.2396 67.5996 33.1528 0.0000 0.0000 0.0000
# 3 49.4543 33.1528 41.6196 0.0000 0.0000 0.0000
# 4 0.0000 0.0000 0.0000 -15.1607 0.0000 0.0000
# 5 0.0000 0.0000 0.0000 0.0000 16.0730 0.0000
# 6 0.0000 0.0000 0.0000 0.0000 0.0000 35.2696
#
#
#
# Elastic Compliance Matrix: (Units=1/GPa)
#
#
# Indices 1 2 3 4 5 6 
#
# 1 0.014146 -0.004412 -0.013295 0.000000 0.000000 0.000000
# 2 -0.004412 0.025653 -0.015192 0.000000 0.000000 0.000000
# 3 -0.013295 -0.015192 0.051926 0.000000 0.000000 0.000000
# 4 0.000000 0.000000 0.000000 -0.065960 0.000000 0.000000
# 5 0.000000 0.000000 0.000000 0.000000 0.062216 0.000000
# 6 0.000000 0.000000 0.000000 0.000000 0.000000 0.028353
#
#
# Mechanical properties :
#
#
# Convention : Reuss Voigt Hill
#
# Bulk Modulus (GPa) = 38.56844 56.93043 47.74943
# Shear Modulus (GPa) = 26.20914 14.42532 20.31723
#
# Velocity S-wave (km/s) = 3.75063 2.78254 3.30226
# Velocity P-wave (km/s) = 6.28150 6.39372 6.33786
#
# Compressibility (1/GPa) = 0.02592794
#
# Stress axis : x y z
#
# Youngs Moduli (GPa) = 70.69152 38.98211 19.25819
#
# Poissons Ratio (x) = 0.17197 0.25603
# Poissons Ratio (y) = 0.31186 0.29257
# Poissons Ratio (z) = 0.93982 0.59222
#
# Static dielectric constant tensor:
#      x y z
#    x 1.645720 0.000000 0.000000 
#    y 0.000000 1.626000 0.000000 
#    z 0.000000 0.000000 1.624820 
# 
# From -- ./inp_files/16119.got.cif
#   From: 2010.05.17/outbox.cif.g08.bks.cpg/sg65_9_cif.got.tgz:16119.got - 2010.06.03 17:01:31.
