data_PCOD9491980
_publ_section_title
;
Structure prediction by ZEFSAII (Michael W. Deem and Ramdas Pophale) SiO2 
 PCOD9491980
Probable space group: C M M M
;
_chemical_formula_sum "Si O2"
_cell_formula_units_Z 88
_cell_length_a 18.845488
_cell_length_b 8.172774
_cell_length_c 29.978725
_cell_angle_alpha 90.000000
_cell_angle_beta 90.000000
_cell_angle_gamma 90.000000
_cell_volume 4617.320657
_symmetry_space_group_name_H-M "C M M M"
_symmetry_group_IT_number 65
_symmetry_cell_setting 'orthorhombic'
loop_
_space_group_symop_operation_xyz
x,y,z
-x,-y,z
x,-y,-z
-x,y,-z
-x,-y,-z
x,y,-z
-x,y,z
x,-y,z
1/2+x,1/2+y,z
1/2-x,1/2-y,z
1/2+x,1/2-y,-z
1/2-x,1/2+y,-z
1/2-x,1/2-y,-z
1/2+x,1/2+y,-z
1/2-x,1/2+y,z
1/2+x,1/2-y,z
loop_
_atom_site_type_symbol
_atom_site_label
_atom_site_fract_x
_atom_site_fract_y
_atom_site_fract_z
Si Si1 0.168699 0.304989 0.913372
Si Si2 0.332673 0.197716 0.547946
Si Si3 0.082062 0.299605 0.000000
Si Si4 0.418528 0.304782 0.172291
Si Si5 0.168176 0.301978 0.355082
Si Si6 0.418439 0.197514 0.269609
O O1 0.167847 0.500000 0.915407
O O2 0.250000 0.250000 0.915293
O O3 0.123648 0.243507 0.955869
O O4 0.130512 0.253065 0.867847
O O5 0.362950 0.254932 0.500000
O O6 0.250000 0.250000 0.547986
O O7 0.360875 0.253366 0.596251
O O8 0.335976 0.000000 0.547794
O O9 0.082067 0.500000 0.000000
O O10 0.000000 0.247664 0.000000
O O11 0.500000 0.242016 0.167026
O O12 0.420998 0.500000 0.171542
O O13 0.391786 0.250520 0.221001
O O14 0.165417 0.500000 0.354836
O O15 0.250000 0.250000 0.351910
O O16 0.125772 0.242047 0.311982
O O17 0.500000 0.253693 0.273113
O O18 0.418172 0.000000 0.270668
#
# Coordination Sequence:
#
# PCOD9491980 Si02
#       6
#    16  16   8  16  16  16
#     4  11  22  37  58  83 113 144 174 211 255 300
#     4   8  13  22  37  58  85 115 147 186 233 284
#     4   9  19  36  59  85 110 141 180 215 248 294
#     4  10  21  37  56  78 103 132 171 215 256 303
#     4   9  17  28  44  67  92 119 154 197 242 289
#     4   9  18  33  51  69  93 129 168 202 242 296
#
# _framework density 19.058672000000001
#
# number of rings (size 3 to 8) (size 9 to 14) (size 15 to 20)
#    0.000    2.636    0.000    1.909    0.000    3.273 
#    0.000    3.182    0.000    3.818    0.000    3.818 
#    0.000    0.000    0.000   34.000    0.000   18.545 
#
# Total GULP energy -245252.147352 kJ/mol
# GULP energy per Si atom -5573.912440 kJ/mol
# Density = 1.901529 g / cm^3
# Si number density = 19.058672 Si / 1000 Ang^3
#
#
#
# Elastic Constant Matrix: (Units=GPa)
#
#
# Indices 1 2 3 4 5 6 
#
# 1 85.6200 8.9354 101.6046 0.0000 0.0000 0.0000
# 2 8.9354 16.5870 19.8466 0.0000 0.0000 0.0000
# 3 101.6046 19.8466 250.0713 0.0000 0.0000 0.0000
# 4 0.0000 0.0000 0.0000 11.0992 0.0000 0.0000
# 5 0.0000 0.0000 0.0000 0.0000 -131.0517 0.0000
# 6 0.0000 0.0000 0.0000 0.0000 0.0000 15.7490
#
#
#
# Elastic Compliance Matrix: (Units=1/GPa)
#
#
# Indices 1 2 3 4 5 6 
#
# 1 0.022580 -0.001311 -0.009070 0.000000 0.000000 0.000000
# 2 -0.001311 0.066690 -0.004760 0.000000 0.000000 0.000000
# 3 -0.009070 -0.004760 0.008062 0.000000 0.000000 0.000000
# 4 0.000000 0.000000 0.000000 0.090097 0.000000 0.000000
# 5 0.000000 0.000000 0.000000 0.000000 -0.007631 0.000000
# 6 0.000000 0.000000 0.000000 0.000000 0.000000 0.063496
#
#
# Mechanical properties :
#
#
# Convention : Reuss Voigt Hill
#
# Bulk Modulus (GPa) = 14.91451 68.11683 41.51567
# Shear Modulus (GPa) = 16.89609 -6.04792 5.42408
#
# Velocity S-wave (km/s) = 2.98070 -1.78331 1.68884
# Velocity P-wave (km/s) = 4.43719 5.61942 5.06293
#
# Compressibility (1/GPa) = 0.06704880
#
# Stress axis : x y z
#
# Youngs Moduli (GPa) = 44.28718 14.99481 124.04046
#
# Poissons Ratio (x) = 0.01966 1.12507
# Poissons Ratio (y) = 0.05807 0.59044
# Poissons Ratio (z) = 0.40169 0.07138
#
# Static dielectric constant tensor:
#      x y z
#    x 1.617720 0.000000 0.000000 
#    y 0.000000 1.664160 0.000000 
#    z 0.000000 0.000000 1.702620 
# 
# From -- ./inp_files/76632.got.cif
#   From: 2010.05.17/outbox.cif.g08.bks.cpg/sg65_39_cif.got.tgz:76632.got - 2010.06.03 17:01:31.
