data_PCOD9491505
_publ_section_title
;
Structure prediction by ZEFSAII (Michael W. Deem and Ramdas Pophale) SiO2 
 PCOD9491505
Probable space group: C M M M
;
_chemical_formula_sum "Si O2"
_cell_formula_units_Z 64
_cell_length_a 21.232435
_cell_length_b 18.051627
_cell_length_c 8.643568
_cell_angle_alpha 90.000000
_cell_angle_beta 90.000000
_cell_angle_gamma 90.000000
_cell_volume 3312.906716
_symmetry_space_group_name_H-M "C M M M"
_symmetry_group_IT_number 65
_symmetry_cell_setting 'orthorhombic'
loop_
_space_group_symop_operation_xyz
x,y,z
-x,-y,z
x,-y,-z
-x,y,-z
-x,-y,-z
x,y,-z
-x,y,z
x,-y,z
1/2+x,1/2+y,z
1/2-x,1/2-y,z
1/2+x,1/2-y,-z
1/2-x,1/2+y,-z
1/2-x,1/2-y,-z
1/2+x,1/2+y,-z
1/2-x,1/2+y,z
1/2+x,1/2-y,z
loop_
_atom_site_type_symbol
_atom_site_label
_atom_site_fract_x
_atom_site_fract_y
_atom_site_fract_z
Si Si1 0.773022 0.417817 0.686700
Si Si2 0.500000 0.381426 0.678740
Si Si3 0.867025 0.296537 0.816586
Si Si4 0.864254 0.869002 0.312689
Si Si5 0.500000 0.200814 0.678641
O O1 0.776231 0.410323 0.500000
O O2 0.795733 0.500000 0.728662
O O3 0.814309 0.353642 0.761178
O O4 0.699619 0.410049 0.731389
O O5 0.500000 0.406886 0.500000
O O6 0.568568 0.400755 0.746385
O O7 0.500000 0.291177 0.679816
O O8 0.857269 0.215890 0.740797
O O9 0.935979 0.323051 0.761185
O O10 0.865902 0.288577 0.000000
O O11 0.868397 0.869470 0.500000
O O12 0.500000 0.177670 0.500000
#
# Coordination Sequence:
#
# PCOD9491505 Si02
#       5
#    16   8  16  16   8
#     4  10  21  36  52  72 102 142 185 223 259 304
#     4   7  12  25  48  76 100 124 159 206 256 297
#     4  11  21  33  53  81 108 134 169 214 264 316
#     4   9  17  32  54  77 103 138 178 217 258 308
#     4   9  17  33  56  79 104 133 167 210 258 309
#
# _framework density 19.318383000000001
#
# number of rings (size 3 to 8) (size 9 to 14) (size 15 to 20)
#    0.000    2.500    0.000    4.875    0.000    4.500 
#    0.000    1.250    0.000    7.500    0.000    0.000 
#    0.000    8.000    0.000    0.000    0.000    0.000 
#
# Total GULP energy -178485.173277 kJ/mol
# GULP energy per Si atom -5577.661665 kJ/mol
# Density = 1.927441 g / cm^3
# Si number density = 19.318383 Si / 1000 Ang^3
#
#
#
# Elastic Constant Matrix: (Units=GPa)
#
#
# Indices 1 2 3 4 5 6 
#
# 1 105.1289 23.5676 14.3229 0.0000 0.0000 0.0000
# 2 23.5676 44.7317 -2.6641 0.0000 0.0000 0.0000
# 3 14.3229 -2.6641 10.1220 0.0000 0.0000 0.0000
# 4 0.0000 0.0000 0.0000 -4.8574 0.0000 0.0000
# 5 0.0000 0.0000 0.0000 0.0000 4.4343 0.0000
# 6 0.0000 0.0000 0.0000 0.0000 0.0000 -19.4690
#
#
#
# Elastic Compliance Matrix: (Units=1/GPa)
#
#
# Indices 1 2 3 4 5 6 
#
# 1 0.014730 -0.009145 -0.023250 0.000000 0.000000 0.000000
# 2 -0.009145 0.028390 0.020413 0.000000 0.000000 0.000000
# 3 -0.023250 0.020413 0.137068 0.000000 0.000000 0.000000
# 4 0.000000 0.000000 0.000000 -0.205871 0.000000 0.000000
# 5 0.000000 0.000000 0.000000 0.000000 0.225515 0.000000
# 6 0.000000 0.000000 0.000000 0.000000 0.000000 -0.051364
#
#
# Mechanical properties :
#
#
# Convention : Reuss Voigt Hill
#
# Bulk Modulus (GPa) = 6.40115 25.60392 16.00253
# Shear Modulus (GPa) = 22.27099 4.33865 13.30482
#
# Velocity S-wave (km/s) = 3.39903 1.50025 2.62718
# Velocity P-wave (km/s) = 4.32727 4.03527 4.18382
#
# Compressibility (1/GPa) = 0.15622198
#
# Stress axis : x y z
#
# Youngs Moduli (GPa) = 67.88857 35.22398 7.29568
#
# Poissons Ratio (x) = 0.32214 0.16963
# Poissons Ratio (y) = 0.62087 -0.14893
# Poissons Ratio (z) = 1.57844 -0.71904
#
# Static dielectric constant tensor:
#      x y z
#    x 1.714360 0.000000 0.000000 
#    y 0.000000 1.645010 0.000000 
#    z 0.000000 0.000000 1.647530 
# 
# From -- ./inp_files/8861.got.cif
#   From: 2010.05.17/outbox.cif.g08.bks.cpg/sg65_5_cif.got.tgz:8861.got - 2010.06.03 17:01:31.
