data_PCOD9491001
_publ_section_title
;
Structure prediction by ZEFSAII (Michael W. Deem and Ramdas Pophale) SiO2 
 PCOD9491001
Probable space group: C M M M
;
_chemical_formula_sum "Si O2"
_cell_formula_units_Z 64
_cell_length_a 10.738427
_cell_length_b 31.250072
_cell_length_c 9.527681
_cell_angle_alpha 90.000000
_cell_angle_beta 90.000000
_cell_angle_gamma 90.000000
_cell_volume 3197.266957
_symmetry_space_group_name_H-M "C M M M"
_symmetry_group_IT_number 65
_symmetry_cell_setting 'orthorhombic'
loop_
_space_group_symop_operation_xyz
x,y,z
-x,-y,z
x,-y,-z
-x,y,-z
-x,-y,-z
x,y,-z
-x,y,z
x,-y,z
1/2+x,1/2+y,z
1/2-x,1/2-y,z
1/2+x,1/2-y,-z
1/2-x,1/2+y,-z
1/2-x,1/2-y,-z
1/2+x,1/2+y,-z
1/2-x,1/2+y,z
1/2+x,1/2-y,z
loop_
_atom_site_type_symbol
_atom_site_label
_atom_site_fract_x
_atom_site_fract_y
_atom_site_fract_z
Si Si1 0.500000 0.091998 0.840299
Si Si2 0.746945 0.922860 0.334150
Si Si3 0.645802 0.500000 0.841444
Si Si4 0.500000 0.812155 0.241424
Si Si5 0.218606 0.176807 0.658360
Si Si6 0.000000 0.783797 0.158715
O O1 0.617179 0.078303 0.748472
O O2 0.500000 0.143749 0.844496
O O3 0.500000 0.075755 0.000000
O O4 0.733767 0.932670 0.500000
O O5 0.798683 0.874410 0.324870
O O6 0.821845 0.958494 0.250499
O O7 0.500000 0.500000 0.859708
O O8 0.703068 0.500000 0.000000
O O9 0.366577 0.813915 0.321976
O O10 0.500000 0.767561 0.161152
O O11 0.184285 0.189095 0.500000
O O12 0.124930 0.200280 0.763180
O O13 0.000000 0.799906 0.000000
#
# Coordination Sequence:
#
# PCOD9491001 Si02
#       6
#     8  16   8   8  16   8
#     4  10  20  38  65  92 124 160 198 251 308 363
#     4  10  22  41  64  91 122 159 203 250 303 364
#     4  11  25  42  63  92 123 157 199 247 300 365
#     4  10  22  40  65  93 122 165 213 263 315 373
#     4  10  23  42  65  92 124 164 211 262 314 369
#     4  12  26  39  58  91 130 169 212 259 312 374
#
# _framework density 20.017095000000001
#
# number of rings (size 3 to 8) (size 9 to 14) (size 15 to 20)
#    0.000    1.625    0.000    3.375    1.750   14.500 
#    0.000    2.500    0.000    0.000    0.000    0.000 
#    0.000    0.000    0.000    0.000    0.000    0.000 
#
# Total GULP energy -178591.440706 kJ/mol
# GULP energy per Si atom -5580.982522 kJ/mol
# Density = 1.997154 g / cm^3
# Si number density = 20.017095 Si / 1000 Ang^3
#
#
#
# Elastic Constant Matrix: (Units=GPa)
#
#
# Indices 1 2 3 4 5 6 
#
# 1 110.0813 54.4254 68.2767 0.0000 0.0000 0.0000
# 2 54.4254 84.1424 62.4370 0.0000 0.0000 0.0000
# 3 68.2767 62.4370 190.1490 0.0000 0.0000 0.0000
# 4 0.0000 0.0000 0.0000 -92.5712 0.0000 0.0000
# 5 0.0000 0.0000 0.0000 0.0000 11.9023 0.0000
# 6 0.0000 0.0000 0.0000 0.0000 0.0000 23.8109
#
#
#
# Elastic Compliance Matrix: (Units=1/GPa)
#
#
# Indices 1 2 3 4 5 6 
#
# 1 0.014395 -0.007240 -0.002792 0.000000 0.000000 0.000000
# 2 -0.007240 0.019354 -0.003756 0.000000 0.000000 0.000000
# 3 -0.002792 -0.003756 0.007495 0.000000 0.000000 0.000000
# 4 0.000000 0.000000 0.000000 -0.010802 0.000000 0.000000
# 5 0.000000 0.000000 0.000000 0.000000 0.084018 0.000000
# 6 0.000000 0.000000 0.000000 0.000000 0.000000 0.041998
#
#
# Mechanical properties :
#
#
# Convention : Reuss Voigt Hill
#
# Bulk Modulus (GPa) = 73.15186 83.85011 78.50099
# Shear Modulus (GPa) = 26.51300 1.91063 14.21181
#
# Velocity S-wave (km/s) = 3.64334 0.97804 2.66744
# Velocity P-wave (km/s) = 7.37039 6.57690 6.98492
#
# Compressibility (1/GPa) = 0.01367019
#
# Stress axis : x y z
#
# Youngs Moduli (GPa) = 69.46871 51.66861 133.42927
#
# Poissons Ratio (x) = 0.37406 0.37249
# Poissons Ratio (y) = 0.50292 0.50111
# Poissons Ratio (z) = 0.19393 0.19405
#
# Static dielectric constant tensor:
#      x y z
#    x 1.704050 0.000000 0.000000 
#    y 0.000000 1.705570 0.000000 
#    z 0.000000 0.000000 1.681030 
# 
# From -- ./inp_files/5020.got.cif
#   From: 2010.05.17/outbox.cif.g08.bks.cpg/sg65_3_cif.got.tgz:5020.got - 2010.06.03 17:01:31.
