data_PCOD9491787
_publ_section_title
;
Structure prediction by ZEFSAII (Michael W. Deem and Ramdas Pophale) SiO2 
 PCOD9491787
Probable space group: C M M M
;
_chemical_formula_sum "Si O2"
_cell_formula_units_Z 72
_cell_length_a 24.025433
_cell_length_b 7.873773
_cell_length_c 18.565465
_cell_angle_alpha 90.000000
_cell_angle_beta 90.000000
_cell_angle_gamma 90.000000
_cell_volume 3512.043972
_symmetry_space_group_name_H-M "C M M M"
_symmetry_group_IT_number 65
_symmetry_cell_setting 'orthorhombic'
loop_
_space_group_symop_operation_xyz
x,y,z
-x,-y,z
x,-y,-z
-x,y,-z
-x,-y,-z
x,y,-z
-x,y,z
x,-y,z
1/2+x,1/2+y,z
1/2-x,1/2-y,z
1/2+x,1/2-y,-z
1/2-x,1/2+y,-z
1/2-x,1/2-y,-z
1/2+x,1/2+y,-z
1/2-x,1/2+y,z
1/2+x,1/2-y,z
loop_
_atom_site_type_symbol
_atom_site_label
_atom_site_fract_x
_atom_site_fract_y
_atom_site_fract_z
Si Si1 0.117111 0.703507 0.080702
Si Si2 0.000000 0.797491 0.316336
Si Si3 0.500000 0.296223 0.150573
Si Si4 0.685058 0.205188 0.500000
Si Si5 0.378165 0.796246 0.357688
Si Si6 0.314273 0.795129 0.215953
O O1 0.124279 0.500000 0.077110
O O2 0.159421 0.769872 0.141336
O O3 0.055142 0.737238 0.109587
O O4 0.124731 0.772142 0.000000
O O5 0.000000 0.732262 0.233389
O O6 0.943476 0.742051 0.355027
O O7 0.000000 0.000000 0.312829
O O8 0.500000 0.500000 0.152109
O O9 0.750000 0.250000 0.500000
O O10 0.653812 0.268394 0.428244
O O11 0.681254 0.000000 0.500000
O O12 0.349565 0.730959 0.284299
O O13 0.372008 0.000000 0.357432
O O14 0.250000 0.750000 0.223406
O O15 0.319050 0.000000 0.215397
#
# Coordination Sequence:
#
# PCOD9491787 Si02
#       6
#    16   8   8   8  16  16
#     4  10  21  37  57  81 110 148 191 230 277 341
#     4  11  23  37  59  89 116 147 188 236 286 334
#     4  11  22  36  56  85 115 143 184 237 289 335
#     4  10  22  39  62  91 119 152 192 232 277 330
#     4  10  21  39  61  85 115 152 190 228 278 340
#     4  10  21  36  56  80 109 148 189 230 278 330
#
# _framework density 20.500882000000001
#
# number of rings (size 3 to 8) (size 9 to 14) (size 15 to 20)
#    0.000    1.778    2.222    1.667    0.000    6.222 
#    0.000    2.222    0.000    0.000    0.000    0.000 
#    0.000    0.000    0.000    0.000    0.000    0.000 
#
# Total GULP energy -201172.914727 kJ/mol
# GULP energy per Si atom -5588.136520 kJ/mol
# Density = 2.045422 g / cm^3
# Si number density = 20.500882 Si / 1000 Ang^3
#
#
#
# Elastic Constant Matrix: (Units=GPa)
#
#
# Indices 1 2 3 4 5 6 
#
# 1 180.4155 -10.4847 104.6589 0.0000 0.0000 0.0000
# 2 -10.4847 18.5908 16.2265 0.0000 0.0000 0.0000
# 3 104.6589 16.2265 188.7072 0.0000 0.0000 0.0000
# 4 0.0000 0.0000 0.0000 8.0587 0.0000 0.0000
# 5 0.0000 0.0000 0.0000 0.0000 25.0365 0.0000
# 6 0.0000 0.0000 0.0000 0.0000 0.0000 29.7855
#
#
#
# Elastic Compliance Matrix: (Units=1/GPa)
#
#
# Indices 1 2 3 4 5 6 
#
# 1 0.009971 0.011298 -0.006501 0.000000 0.000000 0.000000
# 2 0.011298 0.070956 -0.012367 0.000000 0.000000 0.000000
# 3 -0.006501 -0.012367 0.009968 0.000000 0.000000 0.000000
# 4 0.000000 0.000000 0.000000 0.124090 0.000000 0.000000
# 5 0.000000 0.000000 0.000000 0.000000 0.039942 0.000000
# 6 0.000000 0.000000 0.000000 0.000000 0.000000 0.033573
#
#
# Mechanical properties :
#
#
# Convention : Reuss Voigt Hill
#
# Bulk Modulus (GPa) = 13.20068 67.61276 40.40672
# Shear Modulus (GPa) = 15.20253 31.06367 23.13310
#
# Velocity S-wave (km/s) = 2.72610 3.89683 3.36280
# Velocity P-wave (km/s) = 4.04499 7.30062 5.90173
#
# Compressibility (1/GPa) = 0.07575367
#
# Stress axis : x y z
#
# Youngs Moduli (GPa) = 100.29352 14.09321 100.31760
#
# Poissons Ratio (x) = -0.15922 0.65220
# Poissons Ratio (y) = -1.13309 1.24065
# Poissons Ratio (z) = 0.65204 0.17429
#
# Static dielectric constant tensor:
#      x y z
#    x 1.669360 0.000000 0.000000 
#    y 0.000000 1.743350 0.000000 
#    z 0.000000 0.000000 1.749340 
# 
# From -- ./inp_files/49541.got.cif
#   From: 2010.05.17/outbox.cif.g08.bks.cpg/sg65_25_cif.got.tgz:49541.got - 2010.06.03 17:01:31.
