data_PCOD9491433
_publ_section_title
;
Structure prediction by ZEFSAII (Michael W. Deem and Ramdas Pophale) SiO2 
 PCOD9491433
Probable space group: C M M M
;
_chemical_formula_sum "Si O2"
_cell_formula_units_Z 66
_cell_length_a 20.139809
_cell_length_b 7.967033
_cell_length_c 20.408985
_cell_angle_alpha 90.000000
_cell_angle_beta 90.000000
_cell_angle_gamma 90.000000
_cell_volume 3274.713951
_symmetry_space_group_name_H-M "C M M M"
_symmetry_group_IT_number 65
_symmetry_cell_setting 'orthorhombic'
loop_
_space_group_symop_operation_xyz
x,y,z
-x,-y,z
x,-y,-z
-x,y,-z
-x,-y,-z
x,y,-z
-x,y,z
x,-y,z
1/2+x,1/2+y,z
1/2-x,1/2-y,z
1/2+x,1/2-y,-z
1/2-x,1/2+y,-z
1/2-x,1/2-y,-z
1/2+x,1/2+y,-z
1/2-x,1/2+y,z
1/2+x,1/2-y,z
loop_
_atom_site_type_symbol
_atom_site_label
_atom_site_fract_x
_atom_site_fract_y
_atom_site_fract_z
Si Si1 0.424281 0.800416 0.735074
Si Si2 0.823124 0.192993 0.626143
Si Si3 0.827271 0.202579 0.000000
Si Si4 0.075771 0.796833 0.115126
Si Si5 0.000000 0.000000 0.500000
Si Si6 0.394637 0.812953 0.500000
O O1 0.500000 0.743673 0.721570
O O2 0.373368 0.714410 0.686413
O O3 0.410646 0.763397 0.811242
O O4 0.421158 0.000000 0.724535
O O5 0.750000 0.250000 0.645866
O O6 0.850091 0.297270 0.564899
O O7 0.820870 0.000000 0.605906
O O8 0.750000 0.250000 0.000000
O O9 0.869021 0.261176 0.063493
O O10 0.830028 0.000000 0.000000
O O11 0.000000 0.744768 0.097429
O O12 0.076186 0.000000 0.115319
O O13 0.056882 0.848158 0.500000
O O14 0.425370 0.000000 0.500000
#
# Coordination Sequence:
#
# PCOD9491433 Si02
#       6
#    16  16   8  16   2   8
#     4  10  22  39  61  91 124 160 204 257 314 372
#     4  12  25  44  66  94 128 171 217 261 321 387
#     4  10  21  35  55  83 115 150 194 244 304 368
#     4   9  18  36  59  83 111 153 200 250 301 362
#     4  12  26  48  68 110 128 176 216 266 340 374
#     4  12  26  46  70 101 137 170 218 272 322 387
#
# _framework density 20.154432
#
# number of rings (size 3 to 8) (size 9 to 14) (size 15 to 20)
#    0.000    1.455    1.212    3.818    1.697    4.848 
#    0.000    2.424    0.000    3.636    0.000    0.000 
#    0.000    0.000    0.000    0.000    0.000    0.000 
#
# Total GULP energy -184166.247823 kJ/mol
# GULP energy per Si atom -5580.795389 kJ/mol
# Density = 2.010856 g / cm^3
# Si number density = 20.154432 Si / 1000 Ang^3
#
#
#
# Elastic Constant Matrix: (Units=GPa)
#
#
# Indices 1 2 3 4 5 6 
#
# 1 146.3183 29.7275 86.1585 0.0000 0.0000 0.0000
# 2 29.7275 94.5347 14.3155 0.0000 0.0000 0.0000
# 3 86.1585 14.3155 93.6069 0.0000 0.0000 0.0000
# 4 0.0000 0.0000 0.0000 137.4914 0.0000 0.0000
# 5 0.0000 0.0000 0.0000 0.0000 -41.9439 0.0000
# 6 0.0000 0.0000 0.0000 0.0000 0.0000 12.6208
#
#
#
# Elastic Compliance Matrix: (Units=1/GPa)
#
#
# Indices 1 2 3 4 5 6 
#
# 1 0.015613 -0.002798 -0.013943 0.000000 0.000000 0.000000
# 2 -0.002798 0.011330 0.000843 0.000000 0.000000 0.000000
# 3 -0.013943 0.000843 0.023387 0.000000 0.000000 0.000000
# 4 0.000000 0.000000 0.000000 0.007273 0.000000 0.000000
# 5 0.000000 0.000000 0.000000 0.000000 -0.023841 0.000000
# 6 0.000000 0.000000 0.000000 0.000000 0.000000 0.079235
#
#
# Mechanical properties :
#
#
# Convention : Reuss Voigt Hill
#
# Bulk Modulus (GPa) = 53.95351 66.09588 60.02470
# Shear Modulus (GPa) = 33.11880 35.25090 34.18485
#
# Velocity S-wave (km/s) = 4.05810 4.18669 4.12290
# Velocity P-wave (km/s) = 6.98468 7.49914 7.24648
#
# Compressibility (1/GPa) = 0.01853447
#
# Stress axis : x y z
#
# Youngs Moduli (GPa) = 64.04913 88.25770 42.75816
#
# Poissons Ratio (x) = 0.24697 0.59616
# Poissons Ratio (y) = 0.17923 -0.03604
# Poissons Ratio (z) = 0.89302 -0.07439
#
# Static dielectric constant tensor:
#      x y z
#    x 1.695390 0.000000 0.000000 
#    y 0.000000 1.725950 0.000000 
#    z 0.000000 0.000000 1.676120 
# 
# From -- ./inp_files/55464.got.cif
#   From: 2010.05.17/outbox.cif.g08.bks.cpg/sg65_28_cif.got.tgz:55464.got - 2010.06.03 17:01:31.
