data_PCOD9491625
_publ_section_title
;
Structure prediction by ZEFSAII (Michael W. Deem and Ramdas Pophale) SiO2 
 PCOD9491625
Probable space group: C M M M
;
_chemical_formula_sum "Si O2"
_cell_formula_units_Z 104
_cell_length_a 9.340233
_cell_length_b 26.372734
_cell_length_c 22.658348
_cell_angle_alpha 90.000000
_cell_angle_beta 90.000000
_cell_angle_gamma 90.000000
_cell_volume 5581.373773
_symmetry_space_group_name_H-M "C M M M"
_symmetry_group_IT_number 65
_symmetry_cell_setting 'orthorhombic'
loop_
_space_group_symop_operation_xyz
x,y,z
-x,-y,z
x,-y,-z
-x,y,-z
-x,-y,-z
x,y,-z
-x,y,z
x,-y,z
1/2+x,1/2+y,z
1/2-x,1/2-y,z
1/2+x,1/2-y,-z
1/2-x,1/2+y,-z
1/2-x,1/2-y,-z
1/2+x,1/2+y,-z
1/2-x,1/2+y,z
1/2+x,1/2-y,z
loop_
_atom_site_type_symbol
_atom_site_label
_atom_site_fract_x
_atom_site_fract_y
_atom_site_fract_z
Si Si1 0.329180 0.413702 0.934089
Si Si2 0.671402 0.301544 0.644947
Si Si3 0.671374 0.345777 0.227575
Si Si4 0.835792 0.500000 0.427960
Si Si5 0.670594 0.057095 0.816231
Si Si6 0.830580 0.899707 0.570245
Si Si7 0.669119 0.299944 0.898578
O O1 0.500000 0.420636 0.922910
O O2 0.238645 0.438033 0.881715
O O3 0.301495 0.353049 0.931120
O O4 0.297479 0.432328 0.000000
O O5 0.500000 0.294834 0.640554
O O6 0.750000 0.250000 0.628682
O O7 0.705871 0.317108 0.712213
O O8 0.712384 0.348815 0.603833
O O9 0.500000 0.355436 0.225960
O O10 0.753954 0.398804 0.221235
O O11 0.706299 0.312444 0.169799
O O12 0.832472 0.500000 0.500000
O O13 0.755316 0.449035 0.409142
O O14 0.000000 0.500000 0.408973
O O15 0.500000 0.065255 0.818763
O O16 0.697386 0.000000 0.794116
O O17 0.809209 0.893687 0.500000
O O18 0.000000 0.908025 0.580236
O O19 0.500000 0.290663 0.902565
O O20 0.750000 0.250000 0.919252
#
# Coordination Sequence:
#
# PCOD9491625 Si02
#       7
#    16  16  16   8  16  16  16
#     4   9  19  35  52  72 101 136 173 209 247 303
#     4  10  21  36  55  81 111 144 184 226 271 324
#     4   9  19  36  54  73  99 133 174 215 256 312
#     4   9  17  31  53  79 105 137 181 229 272 315
#     4  10  21  36  54  77 104 131 164 212 267 317
#     4   9  18  34  55  79 111 150 187 224 272 330
#     4   9  17  29  47  70  95 125 162 204 250 295
#
# _framework density 18.633405
#
# number of rings (size 3 to 8) (size 9 to 14) (size 15 to 20)
#    0.000    2.692    0.000    2.077    0.000    7.077 
#    1.385    1.538    0.000    0.000    0.000    0.000 
#    0.000    0.000    0.000    0.000    0.000    0.000 
#
# Total GULP energy -290159.358789 kJ/mol
# GULP energy per Si atom -5579.987669 kJ/mol
# Density = 1.859099 g / cm^3
# Si number density = 18.633405 Si / 1000 Ang^3
#
#
#
# Elastic Constant Matrix: (Units=GPa)
#
#
# Indices 1 2 3 4 5 6 
#
# 1 34.9158 51.8941 22.2347 0.0000 0.0000 0.0000
# 2 51.8941 133.6014 32.0663 0.0000 0.0000 0.0000
# 3 22.2347 32.0663 36.5440 0.0000 0.0000 0.0000
# 4 0.0000 0.0000 0.0000 -8.8160 0.0000 0.0000
# 5 0.0000 0.0000 0.0000 0.0000 14.1914 0.0000
# 6 0.0000 0.0000 0.0000 0.0000 0.0000 37.9398
#
#
#
# Elastic Compliance Matrix: (Units=1/GPa)
#
#
# Indices 1 2 3 4 5 6 
#
# 1 0.087384 -0.026832 -0.029623 0.000000 0.000000 0.000000
# 2 -0.026832 0.017721 0.000776 0.000000 0.000000 0.000000
# 3 -0.029623 0.000776 0.044707 0.000000 0.000000 0.000000
# 4 0.000000 0.000000 0.000000 -0.113430 0.000000 0.000000
# 5 0.000000 0.000000 0.000000 0.000000 0.070465 0.000000
# 6 0.000000 0.000000 0.000000 0.000000 0.000000 0.026358
#
#
# Mechanical properties :
#
#
# Convention : Reuss Voigt Hill
#
# Bulk Modulus (GPa) = 26.00533 46.38348 36.19441
# Shear Modulus (GPa) = 19.42636 15.25412 17.34024
#
# Velocity S-wave (km/s) = 3.23237 2.86430 3.05388
# Velocity P-wave (km/s) = 5.28370 5.99046 5.64815
#
# Compressibility (1/GPa) = 0.03845365
#
# Stress axis : x y z
#
# Youngs Moduli (GPa) = 11.44370 56.43027 22.36781
#
# Poissons Ratio (x) = 1.51415 0.66261
# Poissons Ratio (y) = 0.30706 -0.01736
# Poissons Ratio (z) = 0.33900 -0.04379
#
# Static dielectric constant tensor:
#      x y z
#    x 1.617670 0.000000 0.000000 
#    y 0.000000 1.628840 0.000000 
#    z 0.000000 0.000000 1.650710 
# 
# From -- ./inp_files/68218.got.cif
#   From: 2010.05.17/outbox.cif.g08.bks.cpg/sg65_35_cif.got.tgz:68218.got - 2010.06.03 17:01:31.
