data_PCOD9491739
_publ_section_title
;
Structure prediction by ZEFSAII (Michael W. Deem and Ramdas Pophale) SiO2 
 PCOD9491739
Probable space group: C M M M
;
_chemical_formula_sum "Si O2"
_cell_formula_units_Z 104
_cell_length_a 8.310466
_cell_length_b 22.857744
_cell_length_c 25.850741
_cell_angle_alpha 90.000000
_cell_angle_beta 90.000000
_cell_angle_gamma 90.000000
_cell_volume 4910.568097
_symmetry_space_group_name_H-M "C M M M"
_symmetry_group_IT_number 65
_symmetry_cell_setting 'orthorhombic'
loop_
_space_group_symop_operation_xyz
x,y,z
-x,-y,z
x,-y,-z
-x,y,-z
-x,-y,-z
x,y,-z
-x,y,z
x,-y,z
1/2+x,1/2+y,z
1/2-x,1/2-y,z
1/2+x,1/2-y,-z
1/2-x,1/2+y,-z
1/2-x,1/2-y,-z
1/2+x,1/2+y,-z
1/2-x,1/2+y,z
1/2+x,1/2-y,z
loop_
_atom_site_type_symbol
_atom_site_label
_atom_site_fract_x
_atom_site_fract_y
_atom_site_fract_z
Si Si1 0.309531 0.359218 0.153818
Si Si2 0.181786 0.689075 0.588672
Si Si3 0.305912 0.066924 0.939630
Si Si4 0.191100 0.568496 0.248891
Si Si5 0.311736 0.063163 0.437767
Si Si6 0.250000 0.750000 0.788422
Si Si7 0.325265 0.327863 0.691483
O O1 0.500000 0.344507 0.157309
O O2 0.269655 0.385329 0.097995
O O3 0.263274 0.409839 0.194567
O O4 0.206398 0.302401 0.171901
O O5 0.250000 0.750000 0.568096
O O6 0.261008 0.625965 0.577159
O O7 0.192289 0.692829 0.651052
O O8 0.000000 0.685206 0.570023
O O9 0.500000 0.069476 0.934582
O O10 0.257266 0.000000 0.925863
O O11 0.266284 0.076016 0.000000
O O12 0.212302 0.500000 0.256009
O O13 0.279540 0.606836 0.291928
O O14 0.000000 0.582008 0.249881
O O15 0.312194 0.062172 0.500000
O O16 0.500000 0.063562 0.420248
O O17 0.243012 0.000000 0.420184
O O18 0.332487 0.708656 0.744777
O O19 0.500000 0.323664 0.666193
#
# Coordination Sequence:
#
# PCOD9491739 Si02
#       7
#    16  16  16  16  16   8  16
#     4  11  23  36  56  84 111 143 186 234 283 335
#     4  11  22  35  57  86 118 154 195 242 296 355
#     4   9  19  37  60  85 114 148 184 224 276 337
#     4  10  21  36  55  80 111 147 186 229 280 343
#     4   8  16  34  59  86 116 152 197 246 294 348
#     4  10  22  38  55  74 107 146 188 226 278 336
#     4  11  23  38  58  81 110 148 191 239 289 339
#
# _framework density 21.178813000000002
#
# number of rings (size 3 to 8) (size 9 to 14) (size 15 to 20)
#    0.000    2.000    0.769    4.615    0.000   11.385 
#    0.000    2.692    0.000    2.769    0.000    4.308 
#    0.000    0.000    0.000    0.000    0.000    0.000 
#
# Total GULP energy -289585.603600 kJ/mol
# GULP energy per Si atom -5568.953915 kJ/mol
# Density = 2.113061 g / cm^3
# Si number density = 21.178813 Si / 1000 Ang^3
#
#
#
# Elastic Constant Matrix: (Units=GPa)
#
#
# Indices 1 2 3 4 5 6 
#
# 1 45.3295 27.5879 -1.4319 0.0000 0.0000 0.0000
# 2 27.5879 170.4919 30.2201 0.0000 0.0000 0.0000
# 3 -1.4319 30.2201 42.3935 0.0000 0.0000 0.0000
# 4 0.0000 0.0000 0.0000 32.4745 0.0000 0.0000
# 5 0.0000 0.0000 0.0000 0.0000 3.0423 0.0000
# 6 0.0000 0.0000 0.0000 0.0000 0.0000 4.6034
#
#
#
# Elastic Compliance Matrix: (Units=1/GPa)
#
#
# Indices 1 2 3 4 5 6 
#
# 1 0.025134 -0.004828 0.004290 0.000000 0.000000 0.000000
# 2 -0.004828 0.007641 -0.005610 0.000000 0.000000 0.000000
# 3 0.004290 -0.005610 0.027732 0.000000 0.000000 0.000000
# 4 0.000000 0.000000 0.000000 0.030793 0.000000 0.000000
# 5 0.000000 0.000000 0.000000 0.000000 0.328699 0.000000
# 6 0.000000 0.000000 0.000000 0.000000 0.000000 0.217232
#
#
# Mechanical properties :
#
#
# Convention : Reuss Voigt Hill
#
# Bulk Modulus (GPa) = 20.74116 41.21857 30.97987
# Shear Modulus (GPa) = 7.51205 21.47995 14.49600
#
# Velocity S-wave (km/s) = 1.88538 3.18814 2.61905
# Velocity P-wave (km/s) = 3.81499 5.74950 4.87908
#
# Compressibility (1/GPa) = 0.04821331
#
# Stress axis : x y z
#
# Youngs Moduli (GPa) = 39.78628 130.87457 36.05890
#
# Poissons Ratio (x) = 0.63180 -0.15470
# Poissons Ratio (y) = 0.19207 0.20229
# Poissons Ratio (z) = -0.17069 0.73419
#
# Static dielectric constant tensor:
#      x y z
#    x 1.822960 0.000000 0.000000 
#    y 0.000000 1.819030 0.000000 
#    z 0.000000 0.000000 1.760450 
# 
# From -- ./inp_files/73344.got.cif
#   From: 2010.05.17/outbox.cif.g08.bks.cpg/sg65_37_cif.got.tgz:73344.got - 2010.06.03 17:01:31.
