data_PCOD9491548
_publ_section_title
;
Structure prediction by ZEFSAII (Michael W. Deem and Ramdas Pophale) SiO2 
 PCOD9491548
Probable space group: C M M M
;
_chemical_formula_sum "Si O2"
_cell_formula_units_Z 80
_cell_length_a 8.471025
_cell_length_b 18.912204
_cell_length_c 27.409419
_cell_angle_alpha 90.000000
_cell_angle_beta 90.000000
_cell_angle_gamma 90.000000
_cell_volume 4391.146607
_symmetry_space_group_name_H-M "C M M M"
_symmetry_group_IT_number 65
_symmetry_cell_setting 'orthorhombic'
loop_
_space_group_symop_operation_xyz
x,y,z
-x,-y,z
x,-y,-z
-x,y,-z
-x,-y,-z
x,y,-z
-x,y,z
x,-y,z
1/2+x,1/2+y,z
1/2-x,1/2-y,z
1/2+x,1/2-y,-z
1/2-x,1/2+y,-z
1/2-x,1/2-y,-z
1/2+x,1/2+y,-z
1/2-x,1/2+y,z
1/2+x,1/2-y,z
loop_
_atom_site_type_symbol
_atom_site_label
_atom_site_fract_x
_atom_site_fract_y
_atom_site_fract_z
Si Si1 0.191134 0.581184 0.852158
Si Si2 0.190828 0.331208 0.447495
Si Si3 0.809255 0.329429 0.945087
Si Si4 0.312536 0.330518 0.239444
Si Si5 0.310365 0.831156 0.657979
O O1 0.243240 0.500000 0.850470
O O2 0.244415 0.619188 0.902030
O O3 0.250124 0.624205 0.805551
O O4 0.000000 0.582268 0.851798
O O5 0.242041 0.362544 0.500000
O O6 0.250000 0.250000 0.447601
O O7 0.239130 0.362438 0.394837
O O8 0.000000 0.330395 0.447324
O O9 0.750000 0.250000 0.935905
O O10 0.000000 0.328656 0.944689
O O11 0.758529 0.350049 0.000000
O O12 0.500000 0.327991 0.238955
O O13 0.250000 0.250000 0.235273
O O14 0.256201 0.361274 0.291675
O O15 0.500000 0.831251 0.660803
O O16 0.250000 0.750000 0.657236
#
# Coordination Sequence:
#
# PCOD9491548 Si02
#       5
#    16  16  16  16  16
#     4  10  21  36  53  74 101 131 163 201 245 291
#     4   8  13  20  31  50  78 112 147 184 229 281
#     4   9  18  33  54  79 104 131 163 197 234 279
#     4  11  21  33  50  70  95 127 166 208 247 290
#     4   9  15  24  39  59  85 117 155 196 238 285
#
# _framework density 18.218475999999999
#
# number of rings (size 3 to 8) (size 9 to 14) (size 15 to 20)
#    0.000    2.600    0.000    4.200    0.000    4.000 
#    0.000    2.000    0.000    0.000    0.000    4.200 
#    0.000    0.800    0.000    9.200    0.000    6.000 
#
# Total GULP energy -222785.004949 kJ/mol
# GULP energy per Si atom -5569.625124 kJ/mol
# Density = 1.817701 g / cm^3
# Si number density = 18.218476 Si / 1000 Ang^3
#
#
#
# Elastic Constant Matrix: (Units=GPa)
#
#
# Indices 1 2 3 4 5 6 
#
# 1 30.0213 16.4364 31.9982 0.0000 0.0000 0.0000
# 2 16.4364 56.9393 84.3708 0.0000 0.0000 0.0000
# 3 31.9982 84.3708 227.0509 0.0000 0.0000 0.0000
# 4 0.0000 0.0000 0.0000 -3.4105 0.0000 0.0000
# 5 0.0000 0.0000 0.0000 0.0000 17.9575 0.0000
# 6 0.0000 0.0000 0.0000 0.0000 0.0000 13.6329
#
#
#
# Elastic Compliance Matrix: (Units=1/GPa)
#
#
# Indices 1 2 3 4 5 6 
#
# 1 0.040479 -0.007192 -0.003032 0.000000 0.000000 0.000000
# 2 -0.007192 0.040359 -0.013984 0.000000 0.000000 0.000000
# 3 -0.003032 -0.013984 0.010028 0.000000 0.000000 0.000000
# 4 0.000000 0.000000 0.000000 -0.293209 0.000000 0.000000
# 5 0.000000 0.000000 0.000000 0.000000 0.055687 0.000000
# 6 0.000000 0.000000 0.000000 0.000000 0.000000 0.073352
#
#
# Mechanical properties :
#
#
# Convention : Reuss Voigt Hill
#
# Bulk Modulus (GPa) = 23.55680 64.40247 43.97964
# Shear Modulus (GPa) = -465.61514 17.71639 -223.94937
#
# Velocity S-wave (km/s) = -16.00400 3.12178 -11.09915
# Velocity P-wave (km/s) = 18.12583 6.95851 11.83479
#
# Compressibility (1/GPa) = 0.04245059
#
# Stress axis : x y z
#
# Youngs Moduli (GPa) = 24.70413 24.77752 99.72191
#
# Poissons Ratio (x) = 0.17820 0.30238
# Poissons Ratio (y) = 0.17767 1.39448
# Poissons Ratio (z) = 0.07491 0.34648
#
# Static dielectric constant tensor:
#      x y z
#    x 1.614750 0.000000 0.000000 
#    y 0.000000 1.576880 0.000000 
#    z 0.000000 0.000000 1.699920 
# 
# From -- ./inp_files/72810.got.cif
#   From: 2010.05.17/outbox.cif.g08.bks.cpg/sg65_37_cif.got.tgz:72810.got - 2010.06.03 17:01:31.
