data_PCOD9491997
_publ_section_title
;
Structure prediction by ZEFSAII (Michael W. Deem and Ramdas Pophale) SiO2 
 PCOD9491997
Probable space group: C M M M
;
_chemical_formula_sum "Si O2"
_cell_formula_units_Z 88
_cell_length_a 21.349944
_cell_length_b 9.090639
_cell_length_c 25.991242
_cell_angle_alpha 90.000000
_cell_angle_beta 90.000000
_cell_angle_gamma 90.000000
_cell_volume 5044.500680
_symmetry_space_group_name_H-M "C M M M"
_symmetry_group_IT_number 65
_symmetry_cell_setting 'orthorhombic'
loop_
_space_group_symop_operation_xyz
x,y,z
-x,-y,z
x,-y,-z
-x,y,-z
-x,-y,-z
x,y,-z
-x,y,z
x,-y,z
1/2+x,1/2+y,z
1/2-x,1/2-y,z
1/2+x,1/2-y,-z
1/2-x,1/2+y,-z
1/2-x,1/2-y,-z
1/2+x,1/2+y,-z
1/2-x,1/2+y,z
1/2+x,1/2-y,z
loop_
_atom_site_type_symbol
_atom_site_label
_atom_site_fract_x
_atom_site_fract_y
_atom_site_fract_z
Si Si1 0.071525 0.679211 0.726797
Si Si2 0.423916 0.831703 0.158684
Si Si3 0.924000 0.827376 0.943913
Si Si4 0.870046 0.824882 0.439153
Si Si5 0.500000 0.166873 0.562037
Si Si6 0.187378 0.676541 0.654596
O O1 0.069660 0.500000 0.728705
O O2 0.089672 0.730071 0.784504
O O3 0.125457 0.719279 0.686895
O O4 0.000000 0.726825 0.714428
O O5 0.500000 0.833455 0.156761
O O6 0.400962 0.748930 0.107978
O O7 0.402236 0.000000 0.156514
O O8 0.000000 0.815252 0.943592
O O9 0.909356 0.000000 0.941933
O O10 0.903116 0.768733 0.000000
O O11 0.859336 0.799056 0.500000
O O12 0.937814 0.756508 0.425279
O O13 0.822431 0.740931 0.402441
O O14 0.868943 0.000000 0.430492
O O15 0.500000 0.154150 0.500000
O O16 0.500000 0.000000 0.583769
O O17 0.192337 0.500000 0.653665
O O18 0.250000 0.750000 0.676632
#
# Coordination Sequence:
#
# PCOD9491997 Si02
#       6
#    16  16  16  16   8  16
#     4   8  16  32  53  75  97 127 168 211 254 299
#     4   8  13  23  40  61  85 114 155 202 241 283
#     4   8  13  20  30  49  83 124 158 188 230 285
#     4  10  21  37  56  79 108 137 167 209 257 302
#     4   9  17  31  53  81 109 137 169 201 240 295
#     4  11  23  38  57  78 105 136 170 212 258 314
#
# _framework density 17.444739999999999
#
# number of rings (size 3 to 8) (size 9 to 14) (size 15 to 20)
#    0.000    3.000    0.000    3.000    1.273    2.909 
#    0.000    3.636    0.000    2.182    0.000    0.000 
#    0.000    0.727    0.000    1.636    0.000    4.364 
#
# Total GULP energy -245001.889613 kJ/mol
# GULP energy per Si atom -5568.224764 kJ/mol
# Density = 1.740504 g / cm^3
# Si number density = 17.444740 Si / 1000 Ang^3
#
#
#
# Elastic Constant Matrix: (Units=GPa)
#
#
# Indices 1 2 3 4 5 6 
#
# 1 74.3983 27.3414 51.7832 0.0000 0.0000 0.0000
# 2 27.3414 56.0634 49.0612 0.0000 0.0000 0.0000
# 3 51.7832 49.0612 114.4427 0.0000 0.0000 0.0000
# 4 0.0000 0.0000 0.0000 9.6627 0.0000 0.0000
# 5 0.0000 0.0000 0.0000 0.0000 3.4002 0.0000
# 6 0.0000 0.0000 0.0000 0.0000 0.0000 19.1412
#
#
#
# Elastic Compliance Matrix: (Units=1/GPa)
#
#
# Indices 1 2 3 4 5 6 
#
# 1 0.019915 -0.002923 -0.007758 0.000000 0.000000 0.000000
# 2 -0.002923 0.028975 -0.011099 0.000000 0.000000 0.000000
# 3 -0.007758 -0.011099 0.017006 0.000000 0.000000 0.000000
# 4 0.000000 0.000000 0.000000 0.103491 0.000000 0.000000
# 5 0.000000 0.000000 0.000000 0.000000 0.294099 0.000000
# 6 0.000000 0.000000 0.000000 0.000000 0.000000 0.052243
#
#
# Mechanical properties :
#
#
# Convention : Reuss Voigt Hill
#
# Bulk Modulus (GPa) = 44.76983 55.69735 50.23359
# Shear Modulus (GPa) = 8.82244 14.22206 11.52225
#
# Velocity S-wave (km/s) = 2.25130 2.85838 2.57281
# Velocity P-wave (km/s) = 5.69889 6.54912 6.13874
#
# Compressibility (1/GPa) = 0.02233647
#
# Stress axis : x y z
#
# Youngs Moduli (GPa) = 50.21261 34.51220 58.80133
#
# Poissons Ratio (x) = 0.10089 0.45619
# Poissons Ratio (y) = 0.14679 0.65263
# Poissons Ratio (z) = 0.38955 0.38305
#
# Static dielectric constant tensor:
#      x y z
#    x 1.594340 0.000000 0.000000 
#    y 0.000000 1.585640 0.000000 
#    z 0.000000 0.000000 1.643400 
# 
# From -- ./inp_files/78133.got.cif
#   From: 2010.05.17/outbox.cif.g08.bks.cpg/sg65_40_cif.got.tgz:78133.got - 2010.06.03 17:01:31.
