data_PCOD9491052
_publ_section_title
;
Structure prediction by ZEFSAII (Michael W. Deem and Ramdas Pophale) SiO2 
 PCOD9491052
Probable space group: C M M M
;
_chemical_formula_sum "Si O2"
_cell_formula_units_Z 56
_cell_length_a 14.532160
_cell_length_b 9.656839
_cell_length_c 19.425247
_cell_angle_alpha 90.000000
_cell_angle_beta 90.000000
_cell_angle_gamma 90.000000
_cell_volume 2726.036782
_symmetry_space_group_name_H-M "C M M M"
_symmetry_group_IT_number 65
_symmetry_cell_setting 'orthorhombic'
loop_
_space_group_symop_operation_xyz
x,y,z
-x,-y,z
x,-y,-z
-x,y,-z
-x,-y,-z
x,y,-z
-x,y,z
x,-y,z
1/2+x,1/2+y,z
1/2-x,1/2-y,z
1/2+x,1/2-y,-z
1/2-x,1/2+y,-z
1/2-x,1/2-y,-z
1/2+x,1/2+y,-z
1/2-x,1/2+y,z
1/2+x,1/2-y,z
loop_
_atom_site_type_symbol
_atom_site_label
_atom_site_fract_x
_atom_site_fract_y
_atom_site_fract_z
Si Si1 0.345088 0.337242 0.341858
Si Si2 0.642341 0.277320 0.189639
Si Si3 0.814569 0.000000 0.919813
Si Si4 0.000000 0.337254 0.417524
Si Si5 0.401735 0.000000 0.121855
O O1 0.333123 0.500000 0.360912
O O2 0.250000 0.250000 0.343168
O O3 0.385296 0.335963 0.263456
O O4 0.413565 0.249639 0.389270
O O5 0.750000 0.250000 0.198623
O O6 0.641290 0.373279 0.122295
O O7 0.598102 0.133669 0.170004
O O8 0.701312 0.000000 0.912856
O O9 0.836263 0.000000 0.000000
O O10 0.000000 0.500000 0.394672
O O11 0.000000 0.337664 0.500000
O O12 0.500000 0.000000 0.082116
#
# Coordination Sequence:
#
# PCOD9491052 Si02
#       5
#    16  16   8   8   8
#     4  11  23  41  69 101 136 182 227 279 329 400
#     4   9  20  36  59  92 120 162 220 262 317 388
#     4  10  20  41  63  82 122 170 214 269 334 397
#     4  11  27  47  69 105 143 176 218 271 338 405
#     4  10  22  35  56  91 121 159 207 282 321 392
#
# _framework density 20.542642000000001
#
# number of rings (size 3 to 8) (size 9 to 14) (size 15 to 20)
#    0.000    1.857    1.429    1.286   10.000    7.143 
#    0.000    0.714    0.000    0.857    0.000    0.000 
#    0.000    0.000    0.000    0.000    0.000    0.000 
#
# Total GULP energy -155995.315792 kJ/mol
# GULP energy per Si atom -5571.261278 kJ/mol
# Density = 2.049589 g / cm^3
# Si number density = 20.542642 Si / 1000 Ang^3
#
#
#
# Elastic Constant Matrix: (Units=GPa)
#
#
# Indices 1 2 3 4 5 6 
#
# 1 103.2491 68.5496 43.1885 0.0000 0.0000 0.0000
# 2 68.5496 214.1129 67.8581 0.0000 0.0000 0.0000
# 3 43.1885 67.8581 123.0275 0.0000 0.0000 0.0000
# 4 0.0000 0.0000 0.0000 20.6560 0.0000 0.0000
# 5 0.0000 0.0000 0.0000 0.0000 37.6744 0.0000
# 6 0.0000 0.0000 0.0000 0.0000 0.0000 102.6217
#
#
#
# Elastic Compliance Matrix: (Units=1/GPa)
#
#
# Indices 1 2 3 4 5 6 
#
# 1 0.013027 -0.003298 -0.002754 0.000000 0.000000 0.000000
# 2 -0.003298 0.006495 -0.002425 0.000000 0.000000 0.000000
# 3 -0.002754 -0.002425 0.010432 0.000000 0.000000 0.000000
# 4 0.000000 0.000000 0.000000 0.048412 0.000000 0.000000
# 5 0.000000 0.000000 0.000000 0.000000 0.026543 0.000000
# 6 0.000000 0.000000 0.000000 0.000000 0.000000 0.009745
#
#
# Mechanical properties :
#
#
# Convention : Reuss Voigt Hill
#
# Bulk Modulus (GPa) = 76.91713 88.84243 82.87978
# Shear Modulus (GPa) = 36.78087 49.57662 43.17875
#
# Velocity S-wave (km/s) = 4.23598 4.91792 4.58963
# Velocity P-wave (km/s) = 7.83892 8.69423 8.27763
#
# Compressibility (1/GPa) = 0.01300101
#
# Stress axis : x y z
#
# Youngs Moduli (GPa) = 76.76478 153.97289 95.85529
#
# Poissons Ratio (x) = 0.50777 0.26399
# Poissons Ratio (y) = 0.25315 0.23241
# Poissons Ratio (z) = 0.21142 0.37332
#
# Static dielectric constant tensor:
#      x y z
#    x 1.811900 0.000000 0.000000 
#    y 0.000000 2.531230 0.000000 
#    z 0.000000 0.000000 1.706840 
# 
# From -- ./inp_files/62181.got.cif
#   From: 2010.05.17/outbox.cif.g08.bks.cpg/sg65_32_cif.got.tgz:62181.got - 2010.06.03 17:01:31.
