data_PCOD9491874
_publ_section_title
;
Structure prediction by ZEFSAII (Michael W. Deem and Ramdas Pophale) SiO2 
 PCOD9491874
Probable space group: C M M M
;
_chemical_formula_sum "Si O2"
_cell_formula_units_Z 64
_cell_length_a 25.413558
_cell_length_b 7.697617
_cell_length_c 15.388313
_cell_angle_alpha 90.000000
_cell_angle_beta 90.000000
_cell_angle_gamma 90.000000
_cell_volume 3010.320820
_symmetry_space_group_name_H-M "C M M M"
_symmetry_group_IT_number 65
_symmetry_cell_setting 'orthorhombic'
loop_
_space_group_symop_operation_xyz
x,y,z
-x,-y,z
x,-y,-z
-x,y,-z
-x,-y,-z
x,y,-z
-x,y,z
x,-y,z
1/2+x,1/2+y,z
1/2-x,1/2-y,z
1/2+x,1/2-y,-z
1/2-x,1/2+y,-z
1/2-x,1/2-y,-z
1/2+x,1/2+y,-z
1/2-x,1/2+y,z
1/2+x,1/2-y,z
loop_
_atom_site_type_symbol
_atom_site_label
_atom_site_fract_x
_atom_site_fract_y
_atom_site_fract_z
Si Si1 0.080317 0.500000 0.000000
Si Si2 0.311938 0.204692 0.500000
Si Si3 0.306985 0.707839 0.191063
Si Si4 0.500000 0.000000 0.845032
Si Si5 0.164900 0.789670 0.000000
Si Si6 0.000000 0.211862 0.301157
Si Si7 0.616303 0.294026 0.336010
O O1 0.112073 0.679560 0.000000
O O2 0.048271 0.500000 0.088972
O O3 0.250000 0.250000 0.500000
O O4 0.344542 0.265979 0.583941
O O5 0.314526 0.000000 0.500000
O O6 0.311640 0.500000 0.189381
O O7 0.250000 0.750000 0.230018
O O8 0.308434 0.765420 0.090742
O O9 0.354371 0.778825 0.250183
O O10 0.500000 0.827093 0.786034
O O11 0.158847 0.000000 0.000000
O O12 0.944508 0.261526 0.347101
O O13 0.000000 0.000000 0.287781
O O14 0.612714 0.500000 0.323544
#
# Coordination Sequence:
#
# PCOD9491874 Si02
#       7
#     4   8  16   4   8   8  16
#     4  11  24  38  60  92 122 180 214 273 340 376
#     4  12  26  43  66  97 133 171 211 267 325 389
#     4  10  21  36  59  89 124 167 214 266 328 390
#     4  11  24  40  62  95 132 162 236 273 314 399
#     4  10  22  40  59  89 129 166 218 269 322 397
#     4  10  23  44  70  95 131 173 216 274 329 383
#     4  10  22  42  66  94 127 171 218 266 329 389
#
# _framework density 21.260190999999999
#
# number of rings (size 3 to 8) (size 9 to 14) (size 15 to 20)
#    0.000    1.625    0.000    3.750    3.500    6.500 
#    0.000    3.750    0.000    0.000    0.000    0.000 
#    0.000    0.000    0.000    0.000    0.000    0.000 
#
# Total GULP energy -178497.090449 kJ/mol
# GULP energy per Si atom -5578.034077 kJ/mol
# Density = 2.121180 g / cm^3
# Si number density = 21.260191 Si / 1000 Ang^3
#
#
#
# Elastic Constant Matrix: (Units=GPa)
#
#
# Indices 1 2 3 4 5 6 
#
# 1 206.0105 12.1724 77.2164 0.0000 0.0000 0.0000
# 2 12.1724 36.7851 -2.8380 0.0000 0.0000 0.0000
# 3 77.2164 -2.8380 110.1148 0.0000 0.0000 0.0000
# 4 0.0000 0.0000 0.0000 -256.1840 0.0000 0.0000
# 5 0.0000 0.0000 0.0000 0.0000 177.5002 0.0000
# 6 0.0000 0.0000 0.0000 0.0000 0.0000 29.2135
#
#
#
# Elastic Compliance Matrix: (Units=1/GPa)
#
#
# Indices 1 2 3 4 5 6 
#
# 1 0.006831 -0.002635 -0.004858 0.000000 0.000000 0.000000
# 2 -0.002635 0.028256 0.002576 0.000000 0.000000 0.000000
# 3 -0.004858 0.002576 0.012554 0.000000 0.000000 0.000000
# 4 0.000000 0.000000 0.000000 -0.003903 0.000000 0.000000
# 5 0.000000 0.000000 0.000000 0.000000 0.005634 0.000000
# 6 0.000000 0.000000 0.000000 0.000000 0.000000 0.034231
#
#
# Mechanical properties :
#
#
# Convention : Reuss Voigt Hill
#
# Bulk Modulus (GPa) = 26.45022 58.44576 42.44799
# Shear Modulus (GPa) = 47.15315 7.86324 27.50819
#
# Velocity S-wave (km/s) = 4.71458 1.92525 3.60096
# Velocity P-wave (km/s) = 6.48880 5.70022 6.10725
#
# Compressibility (1/GPa) = 0.03780687
#
# Stress axis : x y z
#
# Youngs Moduli (GPa) = 146.40017 35.39120 79.65424
#
# Poissons Ratio (x) = 0.09326 0.38694
# Poissons Ratio (y) = 0.38577 -0.20519
# Poissons Ratio (z) = 0.71118 -0.09117
#
# Static dielectric constant tensor:
#      x y z
#    x 1.767280 0.000000 0.000000 
#    y 0.000000 1.688220 0.000000 
#    z 0.000000 0.000000 1.738810 
# 
# From -- ./inp_files/45174.got.cif
#   From: 2010.05.17/outbox.cif.g08.bks.cpg/sg65_23_cif.got.tgz:45174.got - 2010.06.03 17:01:31.
