data_PCOD9491009
_publ_section_title
;
Structure prediction by ZEFSAII (Michael W. Deem and Ramdas Pophale) SiO2 
 PCOD9491009
Probable space group: C M M M
;
_chemical_formula_sum "Si O2"
_cell_formula_units_Z 108
_cell_length_a 26.781146
_cell_length_b 14.328377
_cell_length_c 15.277920
_cell_angle_alpha 90.000000
_cell_angle_beta 90.000000
_cell_angle_gamma 90.000000
_cell_volume 5862.601686
_symmetry_space_group_name_H-M "C M M M"
_symmetry_group_IT_number 65
_symmetry_cell_setting 'orthorhombic'
loop_
_space_group_symop_operation_xyz
x,y,z
-x,-y,z
x,-y,-z
-x,y,-z
-x,-y,-z
x,y,-z
-x,y,z
x,-y,z
1/2+x,1/2+y,z
1/2-x,1/2-y,z
1/2+x,1/2-y,-z
1/2-x,1/2+y,-z
1/2-x,1/2-y,-z
1/2+x,1/2+y,-z
1/2-x,1/2+y,z
1/2+x,1/2-y,z
loop_
_atom_site_type_symbol
_atom_site_label
_atom_site_fract_x
_atom_site_fract_y
_atom_site_fract_z
Si Si1 0.360247 0.607439 0.306637
Si Si2 0.000000 0.604731 0.894304
Si Si3 0.250000 0.250000 0.000000
Si Si4 0.559446 0.391750 0.827706
Si Si5 0.308756 0.227204 0.399177
Si Si6 0.717399 0.605395 0.852031
Si Si7 0.398443 0.789352 0.899165
Si Si8 0.173430 0.606716 0.766822
O O1 0.355575 0.500000 0.335612
O O2 0.415643 0.623189 0.267859
O O3 0.340869 0.680694 0.376855
O O4 0.324688 0.619625 0.221348
O O5 0.949644 0.658573 0.872428
O O6 0.000000 0.500000 0.859188
O O7 0.000000 0.600074 0.000000
O O8 0.277454 0.315030 0.075894
O O9 0.500000 0.376160 0.829059
O O10 0.568717 0.500000 0.851117
O O11 0.587554 0.319003 0.889951
O O12 0.314710 0.199432 0.500000
O O13 0.250000 0.250000 0.384563
O O14 0.325909 0.149880 0.329674
O O15 0.710871 0.500000 0.888663
O O16 0.770009 0.605888 0.801086
O O17 0.357473 0.828596 0.833248
O O18 0.384976 0.811760 0.000000
O O19 0.154677 0.500000 0.769385
#
# Coordination Sequence:
#
# PCOD9491009 Si02
#       8
#    16   8   4  16  16  16  16  16
#     4  10  20  39  60  81 115 152 190 237 292 355
#     4   9  18  34  51  77 112 148 200 251 285 327
#     4  12  22  32  52  74 112 154 200 248 264 320
#     4  10  21  37  60  88 118 154 198 248 302 358
#     4  11  22  37  62  93 118 148 192 237 291 355
#     4  10  22  36  53  78 111 156 197 231 281 342
#     4  11  22  35  58  85 115 159 203 245 290 340
#     4  11  23  39  57  83 122 156 193 240 290 343
#
# _framework density 18.421855999999998
#
# number of rings (size 3 to 8) (size 9 to 14) (size 15 to 20)
#    0.000    1.556    3.704    1.556    1.037    1.778 
#    0.000    2.222    0.000    0.444    0.000    2.074 
#    0.000    2.963    0.000    0.000    0.000    0.000 
#
# Total GULP energy -301021.068247 kJ/mol
# GULP energy per Si atom -5574.464227 kJ/mol
# Density = 1.837993 g / cm^3
# Si number density = 18.421856 Si / 1000 Ang^3
#
#
#
# Elastic Constant Matrix: (Units=GPa)
#
#
# Indices 1 2 3 4 5 6 
#
# 1 67.9640 28.7172 29.4855 0.0000 0.0000 0.0000
# 2 28.7172 95.9861 43.0448 0.0000 0.0000 0.0000
# 3 29.4855 43.0448 96.2612 0.0000 0.0000 0.0000
# 4 0.0000 0.0000 0.0000 15.4371 0.0000 0.0000
# 5 0.0000 0.0000 0.0000 0.0000 10.8678 0.0000
# 6 0.0000 0.0000 0.0000 0.0000 0.0000 24.0077
#
#
#
# Elastic Compliance Matrix: (Units=1/GPa)
#
#
# Indices 1 2 3 4 5 6 
#
# 1 0.017925 -0.003628 -0.003868 0.000000 0.000000 0.000000
# 2 -0.003628 0.013766 -0.005044 0.000000 0.000000 0.000000
# 3 -0.003868 -0.005044 0.013829 0.000000 0.000000 0.000000
# 4 0.000000 0.000000 0.000000 0.064779 0.000000 0.000000
# 5 0.000000 0.000000 0.000000 0.000000 0.092015 0.000000
# 6 0.000000 0.000000 0.000000 0.000000 0.000000 0.041653
#
#
# Mechanical properties :
#
#
# Convention : Reuss Voigt Hill
#
# Bulk Modulus (GPa) = 48.92746 51.41180 50.16963
# Shear Modulus (GPa) = 18.12510 20.66011 19.39261
#
# Velocity S-wave (km/s) = 3.14011 3.35251 3.24805
# Velocity P-wave (km/s) = 6.30588 6.55396 6.43112
#
# Compressibility (1/GPa) = 0.02043842
#
# Stress axis : x y z
#
# Youngs Moduli (GPa) = 55.78854 72.64427 72.31250
#
# Poissons Ratio (x) = 0.26356 0.27972
# Poissons Ratio (y) = 0.20241 0.36476
# Poissons Ratio (z) = 0.21580 0.36644
#
# Static dielectric constant tensor:
#      x y z
#    x 1.660250 0.000000 0.000000 
#    y 0.000000 1.683210 0.000000 
#    z 0.000000 0.000000 1.602880 
# 
# From -- ./inp_files/45819.got.cif
#   From: 2010.05.17/outbox.cif.g08.bks.cpg/sg65_23_cif.got.tgz:45819.got - 2010.06.03 17:01:31.
