data_PCOD9491544
_publ_section_title
;
Structure prediction by ZEFSAII (Michael W. Deem and Ramdas Pophale) SiO2 
 PCOD9491544
Probable space group: C M M M
;
_chemical_formula_sum "Si O2"
_cell_formula_units_Z 112
_cell_length_a 13.911546
_cell_length_b 30.641859
_cell_length_c 13.048770
_cell_angle_alpha 90.000000
_cell_angle_beta 90.000000
_cell_angle_gamma 90.000000
_cell_volume 5562.372666
_symmetry_space_group_name_H-M "C M M M"
_symmetry_group_IT_number 65
_symmetry_cell_setting 'orthorhombic'
loop_
_space_group_symop_operation_xyz
x,y,z
-x,-y,z
x,-y,-z
-x,y,-z
-x,-y,-z
x,y,-z
-x,y,z
x,-y,z
1/2+x,1/2+y,z
1/2-x,1/2-y,z
1/2+x,1/2-y,-z
1/2-x,1/2+y,-z
1/2-x,1/2-y,-z
1/2+x,1/2+y,-z
1/2-x,1/2+y,z
1/2+x,1/2-y,z
loop_
_atom_site_type_symbol
_atom_site_label
_atom_site_fract_x
_atom_site_fract_y
_atom_site_fract_z
Si Si1 0.884679 0.405927 0.881315
Si Si2 0.385176 0.182371 0.244316
Si Si3 0.884453 0.141486 0.185396
Si Si4 0.245511 0.861994 0.385058
Si Si5 0.383399 0.264035 0.886582
Si Si6 0.885057 0.952974 0.837713
Si Si7 0.218003 0.547802 0.696182
O O1 0.864719 0.357661 0.834858
O O2 0.835688 0.439705 0.802697
O O3 0.000000 0.411812 0.877275
O O4 0.855391 0.410088 0.000000
O O5 0.500000 0.182878 0.260453
O O6 0.327397 0.170974 0.346358
O O7 0.353984 0.228102 0.195617
O O8 0.836206 0.140498 0.297540
O O9 0.852750 0.186343 0.133003
O O10 0.859762 0.096216 0.126130
O O11 0.000000 0.142614 0.194072
O O12 0.212475 0.853715 0.500000
O O13 0.290939 0.910690 0.376418
O O14 0.500000 0.264481 0.883672
O O15 0.356066 0.249390 0.000000
O O16 0.829936 0.954376 0.729523
O O17 0.000000 0.953230 0.830432
O O18 0.858364 0.000000 0.887159
O O19 0.187856 0.500000 0.659377
#
# Coordination Sequence:
#
# PCOD9491544 Si02
#       7
#    16  16  16  16  16  16  16
#     4   9  17  30  50  75 103 135 167 202 250 307
#     4   9  18  34  54  76 102 131 169 213 252 296
#     4   9  18  33  52  77 107 133 165 210 254 299
#     4  10  21  36  53  73  99 135 176 213 254 302
#     4   9  17  32  56  81 105 134 165 203 254 306
#     4   8  14  28  50  70  93 130 167 200 243 289
#     4   9  18  32  50  74 101 128 165 213 257 299
#
# _framework density 20.135292
#
# number of rings (size 3 to 8) (size 9 to 14) (size 15 to 20)
#    0.000    3.000    0.000    0.429    0.000    3.714 
#    0.000   10.000    0.000    5.143    0.000   21.000 
#    0.000    0.000    0.000    0.000    0.000    0.000 
#
# Total GULP energy -311878.968984 kJ/mol
# GULP energy per Si atom -5569.267303 kJ/mol
# Density = 2.008946 g / cm^3
# Si number density = 20.135292 Si / 1000 Ang^3
#
#
#
# Elastic Constant Matrix: (Units=GPa)
#
#
# Indices 1 2 3 4 5 6 
#
# 1 45.7486 8.8956 1.1791 0.0000 0.0000 0.0000
# 2 8.8956 122.5368 0.3826 0.0000 0.0000 0.0000
# 3 1.1791 0.3826 66.8360 0.0000 0.0000 0.0000
# 4 0.0000 0.0000 0.0000 -1.6665 0.0000 0.0000
# 5 0.0000 0.0000 0.0000 0.0000 22.7305 0.0000
# 6 0.0000 0.0000 0.0000 0.0000 0.0000 23.3505
#
#
#
# Elastic Compliance Matrix: (Units=1/GPa)
#
#
# Indices 1 2 3 4 5 6 
#
# 1 0.022181 -0.001609 -0.000382 0.000000 0.000000 0.000000
# 2 -0.001609 0.008278 -0.000019 0.000000 0.000000 0.000000
# 3 -0.000382 -0.000019 0.014969 0.000000 0.000000 0.000000
# 4 0.000000 0.000000 0.000000 -0.600068 0.000000 0.000000
# 5 0.000000 0.000000 0.000000 0.000000 0.043994 0.000000
# 6 0.000000 0.000000 0.000000 0.000000 0.000000 0.042826
#
#
# Mechanical properties :
#
#
# Convention : Reuss Voigt Hill
#
# Bulk Modulus (GPa) = 24.15023 28.44847 26.29935
# Shear Modulus (GPa) = -11.11116 23.86050 6.37467
#
# Velocity S-wave (km/s) = -2.35164 3.44613 1.78123
# Velocity P-wave (km/s) = 2.15555 5.47666 4.16174
#
# Compressibility (1/GPa) = 0.04140747
#
# Stress axis : x y z
#
# Youngs Moduli (GPa) = 45.08302 120.80678 66.80540
#
# Poissons Ratio (x) = 0.19439 0.02553
# Poissons Ratio (y) = 0.07254 0.00127
# Poissons Ratio (z) = 0.01723 0.00230
#
# Static dielectric constant tensor:
#      x y z
#    x 1.757550 0.000000 0.000000 
#    y 0.000000 1.764980 0.000000 
#    z 0.000000 0.000000 1.679930 
# 
# From -- ./inp_files/25564.got.cif
#   From: 2010.05.17/outbox.cif.g08.bks.cpg/sg65_13_cif.got.tgz:25564.got - 2010.06.03 17:01:31.
