data_PCOD9491989
_publ_section_title
;
Structure prediction by ZEFSAII (Michael W. Deem and Ramdas Pophale) SiO2 
 PCOD9491989
Probable space group: C M M M
;
_chemical_formula_sum "Si O2"
_cell_formula_units_Z 96
_cell_length_a 29.460052
_cell_length_b 8.701812
_cell_length_c 20.913448
_cell_angle_alpha 90.000000
_cell_angle_beta 90.000000
_cell_angle_gamma 90.000000
_cell_volume 5361.284404
_symmetry_space_group_name_H-M "C M M M"
_symmetry_group_IT_number 65
_symmetry_cell_setting 'orthorhombic'
loop_
_space_group_symop_operation_xyz
x,y,z
-x,-y,z
x,-y,-z
-x,y,-z
-x,-y,-z
x,y,-z
-x,y,z
x,-y,z
1/2+x,1/2+y,z
1/2-x,1/2-y,z
1/2+x,1/2-y,-z
1/2-x,1/2+y,-z
1/2-x,1/2-y,-z
1/2+x,1/2+y,-z
1/2-x,1/2+y,z
1/2+x,1/2-y,z
loop_
_atom_site_type_symbol
_atom_site_label
_atom_site_fract_x
_atom_site_fract_y
_atom_site_fract_z
Si Si1 0.797901 0.683246 0.879809
Si Si2 0.553107 0.314460 0.804153
Si Si3 0.202265 0.183214 0.736364
Si Si4 0.611181 0.181851 0.687215
Si Si5 0.109710 0.184675 0.070882
Si Si6 0.052706 0.184260 0.425273
O O1 0.795453 0.500000 0.877747
O O2 0.750000 0.750000 0.904025
O O3 0.804005 0.748065 0.807738
O O4 0.841427 0.738666 0.918781
O O5 0.500000 0.274860 0.803141
O O6 0.556859 0.500000 0.797327
O O7 0.579982 0.237490 0.746208
O O8 0.576546 0.270761 0.871263
O O9 0.250000 0.250000 0.712091
O O10 0.159495 0.235325 0.695069
O O11 0.204535 0.000000 0.741136
O O12 0.585859 0.230004 0.622537
O O13 0.617601 0.000000 0.690681
O O14 0.115534 0.000000 0.074684
O O15 0.092054 0.221740 0.000000
O O16 0.060985 0.218406 0.500000
O O17 0.000000 0.222666 0.411133
O O18 0.057405 0.000000 0.416699
#
# Coordination Sequence:
#
# PCOD9491989 Si02
#       6
#    16  16  16  16  16  16
#     4  11  21  35  56  81 109 142 179 226 283 341
#     4  10  21  37  57  80 108 145 189 237 285 335
#     4  11  21  36  58  84 114 146 184 231 280 334
#     4  12  23  35  56  87 119 153 189 230 279 332
#     4  10  21  37  56  78 107 145 188 234 285 341
#     4   9  19  37  60  86 118 157 198 237 280 331
#
# _framework density 17.906158000000001
#
# number of rings (size 3 to 8) (size 9 to 14) (size 15 to 20)
#    0.000    1.500    1.667    6.500    0.000    4.000 
#    0.000    2.500    0.000    0.500    0.000    2.333 
#    0.000    0.000    0.000    0.000    0.000    0.000 
#
# Total GULP energy -268257.356870 kJ/mol
# GULP energy per Si atom -5588.694935 kJ/mol
# Density = 1.786540 g / cm^3
# Si number density = 17.906158 Si / 1000 Ang^3
#
#
#
# Elastic Constant Matrix: (Units=GPa)
#
#
# Indices 1 2 3 4 5 6 
#
# 1 111.8113 43.0300 48.5229 0.0000 0.0000 0.0000
# 2 43.0300 73.9337 34.9676 0.0000 0.0000 0.0000
# 3 48.5229 34.9676 68.7654 0.0000 0.0000 0.0000
# 4 0.0000 0.0000 0.0000 10.6546 0.0000 0.0000
# 5 0.0000 0.0000 0.0000 0.0000 13.0557 0.0000
# 6 0.0000 0.0000 0.0000 0.0000 0.0000 27.1802
#
#
#
# Elastic Compliance Matrix: (Units=1/GPa)
#
#
# Indices 1 2 3 4 5 6 
#
# 1 0.013972 -0.004567 -0.007537 0.000000 0.000000 0.000000
# 2 -0.004567 0.019302 -0.006592 0.000000 0.000000 0.000000
# 3 -0.007537 -0.006592 0.023212 0.000000 0.000000 0.000000
# 4 0.000000 0.000000 0.000000 0.093856 0.000000 0.000000
# 5 0.000000 0.000000 0.000000 0.000000 0.076595 0.000000
# 6 0.000000 0.000000 0.000000 0.000000 0.000000 0.036792
#
#
# Mechanical properties :
#
#
# Convention : Reuss Voigt Hill
#
# Bulk Modulus (GPa) = 52.37261 56.39459 54.38360
# Shear Modulus (GPa) = 16.26096 18.71077 17.48586
#
# Velocity S-wave (km/s) = 3.01677 3.23605 3.12833
# Velocity P-wave (km/s) = 6.43789 6.74727 6.59439
#
# Compressibility (1/GPa) = 0.01909395
#
# Stress axis : x y z
#
# Youngs Moduli (GPa) = 71.57175 51.80890 43.08055
#
# Poissons Ratio (x) = 0.23663 0.32468
# Poissons Ratio (y) = 0.32689 0.28399
# Poissons Ratio (z) = 0.53940 0.34153
#
# Static dielectric constant tensor:
#      x y z
#    x 1.602530 0.000000 0.000000 
#    y 0.000000 1.601690 0.000000 
#    z 0.000000 0.000000 1.602390 
# 
# From -- ./inp_files/60273.got.cif
#   From: 2010.05.17/outbox.cif.g08.bks.cpg/sg65_31_cif.got.tgz:60273.got - 2010.06.03 17:01:31.
