data_PCOD9491282
_publ_section_title
;
Structure prediction by ZEFSAII (Michael W. Deem and Ramdas Pophale) SiO2 
 PCOD9491282
Probable space group: C M M M
;
_chemical_formula_sum "Si O2"
_cell_formula_units_Z 72
_cell_length_a 8.192702
_cell_length_b 14.757005
_cell_length_c 30.534957
_cell_angle_alpha 90.000000
_cell_angle_beta 90.000000
_cell_angle_gamma 90.000000
_cell_volume 3691.668496
_symmetry_space_group_name_H-M "C M M M"
_symmetry_group_IT_number 65
_symmetry_cell_setting 'orthorhombic'
loop_
_space_group_symop_operation_xyz
x,y,z
-x,-y,z
x,-y,-z
-x,y,-z
-x,-y,-z
x,y,-z
-x,y,z
x,-y,z
1/2+x,1/2+y,z
1/2-x,1/2-y,z
1/2+x,1/2-y,-z
1/2-x,1/2+y,-z
1/2-x,1/2-y,-z
1/2+x,1/2+y,-z
1/2-x,1/2+y,z
1/2+x,1/2-y,z
loop_
_atom_site_type_symbol
_atom_site_label
_atom_site_fract_x
_atom_site_fract_y
_atom_site_fract_z
Si Si1 0.696752 0.500000 0.188466
Si Si2 0.695249 0.000000 0.049829
Si Si3 0.305134 0.646402 0.118972
Si Si4 0.802738 0.500000 0.711556
Si Si5 0.197260 0.353820 0.357371
Si Si6 0.802575 0.644496 0.452912
O O1 0.500000 0.500000 0.187240
O O2 0.754033 0.411742 0.161112
O O3 0.748700 0.500000 0.238541
O O4 0.750689 0.088268 0.076894
O O5 0.500000 0.000000 0.048845
O O6 0.757163 0.000000 0.000000
O O7 0.500000 0.645447 0.119866
O O8 0.250000 0.750000 0.118700
O O9 0.745666 0.413736 0.683220
O O10 0.000000 0.500000 0.711358
O O11 0.250000 0.250000 0.353140
O O12 0.252730 0.389888 0.405330
O O13 0.000000 0.357058 0.357774
O O14 0.745341 0.606704 0.500000
O O15 0.750000 0.750000 0.452869
O O16 0.000000 0.638419 0.453173
#
# Coordination Sequence:
#
# PCOD9491282 Si02
#       6
#     8   8  16   8  16  16
#     4   9  21  39  56  77 104 135 176 224 270 319
#     4  10  21  37  58  87 123 160 195 230 269 314
#     4  10  21  38  60  85 113 147 188 233 278 324
#     4  10  21  35  51  72 100 132 164 206 261 316
#     4   9  18  32  48  69  96 125 160 200 246 303
#     4   8  13  23  41  63  87 117 152 191 236 288
#
# _framework density 19.503374999999998
#
# number of rings (size 3 to 8) (size 9 to 14) (size 15 to 20)
#    0.000    2.778    0.000    1.667    0.000    5.778 
#    0.000    5.000    0.000    3.333    0.000    0.000 
#    0.000   18.667    0.000    0.000    0.000    0.000 
#
# Total GULP energy -200659.651243 kJ/mol
# GULP energy per Si atom -5573.879201 kJ/mol
# Density = 1.945898 g / cm^3
# Si number density = 19.503375 Si / 1000 Ang^3
#
#
#
# Elastic Constant Matrix: (Units=GPa)
#
#
# Indices 1 2 3 4 5 6 
#
# 1 21.5144 18.9465 23.5777 0.0000 0.0000 0.0000
# 2 18.9465 155.7859 106.4084 0.0000 0.0000 0.0000
# 3 23.5777 106.4084 239.0600 0.0000 0.0000 0.0000
# 4 0.0000 0.0000 0.0000 14.5601 0.0000 0.0000
# 5 0.0000 0.0000 0.0000 0.0000 25.3568 0.0000
# 6 0.0000 0.0000 0.0000 0.0000 0.0000 16.8001
#
#
#
# Elastic Compliance Matrix: (Units=1/GPa)
#
#
# Indices 1 2 3 4 5 6 
#
# 1 0.053966 -0.004207 -0.003450 0.000000 0.000000 0.000000
# 2 -0.004207 0.009551 -0.003836 0.000000 0.000000 0.000000
# 3 -0.003450 -0.003836 0.006231 0.000000 0.000000 0.000000
# 4 0.000000 0.000000 0.000000 0.068681 0.000000 0.000000
# 5 0.000000 0.000000 0.000000 0.000000 0.039437 0.000000
# 6 0.000000 0.000000 0.000000 0.000000 0.000000 0.059524
#
#
# Mechanical properties :
#
#
# Convention : Reuss Voigt Hill
#
# Bulk Modulus (GPa) = 21.38502 79.35839 50.37170
# Shear Modulus (GPa) = 18.11834 29.17190 23.64512
#
# Velocity S-wave (km/s) = 3.05123 3.87167 3.48567
# Velocity P-wave (km/s) = 4.83755 7.79515 6.48715
#
# Compressibility (1/GPa) = 0.04676172
#
# Stress axis : x y z
#
# Youngs Moduli (GPa) = 18.53016 104.69963 160.48928
#
# Poissons Ratio (x) = 0.44045 0.55369
# Poissons Ratio (y) = 0.07795 0.61570
# Poissons Ratio (z) = 0.06393 0.40167
#
# Static dielectric constant tensor:
#      x y z
#    x 1.685850 0.000000 0.000000 
#    y 0.000000 1.641990 0.000000 
#    z 0.000000 0.000000 1.703390 
# 
# From -- ./inp_files/76386.got.cif
#   From: 2010.05.17/outbox.cif.g08.bks.cpg/sg65_39_cif.got.tgz:76386.got - 2010.06.03 17:01:31.
