data_PCOD9491883
_publ_section_title
;
Structure prediction by ZEFSAII (Michael W. Deem and Ramdas Pophale) SiO2 
 PCOD9491883
Probable space group: C M M M
;
_chemical_formula_sum "Si O2"
_cell_formula_units_Z 64
_cell_length_a 23.796882
_cell_length_b 14.495696
_cell_length_c 9.396301
_cell_angle_alpha 90.000000
_cell_angle_beta 90.000000
_cell_angle_gamma 90.000000
_cell_volume 3241.276273
_symmetry_space_group_name_H-M "C M M M"
_symmetry_group_IT_number 65
_symmetry_cell_setting 'orthorhombic'
loop_
_space_group_symop_operation_xyz
x,y,z
-x,-y,z
x,-y,-z
-x,y,-z
-x,-y,-z
x,y,-z
-x,y,z
x,-y,z
1/2+x,1/2+y,z
1/2-x,1/2-y,z
1/2+x,1/2-y,-z
1/2-x,1/2+y,-z
1/2-x,1/2-y,-z
1/2+x,1/2+y,-z
1/2-x,1/2+y,z
1/2+x,1/2-y,z
loop_
_atom_site_type_symbol
_atom_site_label
_atom_site_fract_x
_atom_site_fract_y
_atom_site_fract_z
Si Si1 0.000000 0.897225 0.256043
Si Si2 0.105304 0.610138 0.167412
Si Si3 0.500000 0.191794 0.338790
Si Si4 0.683565 0.764871 0.333908
Si Si5 0.125718 0.894142 0.839875
O O1 0.000000 0.802967 0.344224
O O2 0.057993 0.892287 0.169078
O O3 0.000000 0.000000 0.325248
O O4 0.101995 0.500000 0.180401
O O5 0.054018 0.656592 0.252304
O O6 0.161148 0.650719 0.239379
O O7 0.102385 0.633875 0.000000
O O8 0.500000 0.155710 0.500000
O O9 0.669573 0.779209 0.500000
O O10 0.750000 0.750000 0.320928
O O11 0.651737 0.675243 0.273170
O O12 0.142887 0.000000 0.813178
O O13 0.143030 0.868034 0.000000
#
# Coordination Sequence:
#
# PCOD9491883 Si02
#       5
#     8  16   8  16  16
#     4  10  21  36  61  99 135 164 197 243 307 377
#     4  11  25  44  67  94 125 166 214 264 317 374
#     4  12  24  39  65  99 133 169 206 253 317 382
#     4  11  25  43  63  90 125 166 210 260 319 374
#     4  10  21  38  63  94 127 163 203 250 308 374
#
# _framework density 19.745308000000001
#
# number of rings (size 3 to 8) (size 9 to 14) (size 15 to 20)
#    0.000    1.250    2.500    2.625    0.000    9.750 
#    0.000    7.500    0.000    0.000    0.000    0.000 
#    0.000    0.000    0.000    0.000    0.000    0.000 
#
# Total GULP energy -178783.784134 kJ/mol
# GULP energy per Si atom -5586.993254 kJ/mol
# Density = 1.970037 g / cm^3
# Si number density = 19.745308 Si / 1000 Ang^3
#
#
#
# Elastic Constant Matrix: (Units=GPa)
#
#
# Indices 1 2 3 4 5 6 
#
# 1 78.8567 34.1493 56.2963 0.0000 0.0000 0.0000
# 2 34.1493 117.6647 67.2693 0.0000 0.0000 0.0000
# 3 56.2963 67.2693 164.1460 0.0000 0.0000 0.0000
# 4 0.0000 0.0000 0.0000 71.8011 0.0000 0.0000
# 5 0.0000 0.0000 0.0000 0.0000 -8.0238 0.0000
# 6 0.0000 0.0000 0.0000 0.0000 0.0000 12.3313
#
#
#
# Elastic Compliance Matrix: (Units=1/GPa)
#
#
# Indices 1 2 3 4 5 6 
#
# 1 0.017186 -0.002113 -0.005028 0.000000 0.000000 0.000000
# 2 -0.002113 0.011359 -0.003930 0.000000 0.000000 0.000000
# 3 -0.005028 -0.003930 0.009427 0.000000 0.000000 0.000000
# 4 0.000000 0.000000 0.000000 0.013927 0.000000 0.000000
# 5 0.000000 0.000000 0.000000 0.000000 -0.124629 0.000000
# 6 0.000000 0.000000 0.000000 0.000000 0.000000 0.081095
#
#
# Mechanical properties :
#
#
# Convention : Reuss Voigt Hill
#
# Bulk Modulus (GPa) = 63.17541 75.12193 69.14867
# Shear Modulus (GPa) = 139.72082 28.75186 84.23634
#
# Velocity S-wave (km/s) = 8.42111 3.82008 6.53866
# Velocity P-wave (km/s) = 11.25247 7.58850 9.59697
#
# Compressibility (1/GPa) = 0.01582894
#
# Stress axis : x y z
#
# Youngs Moduli (GPa) = 58.18682 88.03578 106.07454
#
# Poissons Ratio (x) = 0.18604 0.53336
# Poissons Ratio (y) = 0.12296 0.41691
# Poissons Ratio (z) = 0.29257 0.34601
#
# Static dielectric constant tensor:
#      x y z
#    x 1.682200 0.000000 0.000000 
#    y 0.000000 1.696840 0.000000 
#    z 0.000000 0.000000 1.675010 
# 
# From -- ./inp_files/13394.got.cif
#   From: 2010.05.17/outbox.cif.g08.bks.cpg/sg65_7_cif.got.tgz:13394.got - 2010.06.03 17:01:31.
