data_PCOD9491663
_publ_section_title
;
Structure prediction by ZEFSAII (Michael W. Deem and Ramdas Pophale) SiO2 
 PCOD9491663
Probable space group: C M M M
;
_chemical_formula_sum "Si O2"
_cell_formula_units_Z 80
_cell_length_a 17.134165
_cell_length_b 24.699980
_cell_length_c 9.836233
_cell_angle_alpha 90.000000
_cell_angle_beta 90.000000
_cell_angle_gamma 90.000000
_cell_volume 4162.826918
_symmetry_space_group_name_H-M "C M M M"
_symmetry_group_IT_number 65
_symmetry_cell_setting 'orthorhombic'
loop_
_space_group_symop_operation_xyz
x,y,z
-x,-y,z
x,-y,-z
-x,y,-z
-x,-y,-z
x,y,-z
-x,y,z
x,-y,z
1/2+x,1/2+y,z
1/2-x,1/2-y,z
1/2+x,1/2-y,-z
1/2-x,1/2+y,-z
1/2-x,1/2-y,-z
1/2+x,1/2+y,-z
1/2-x,1/2+y,z
1/2+x,1/2-y,z
loop_
_atom_site_type_symbol
_atom_site_label
_atom_site_fract_x
_atom_site_fract_y
_atom_site_fract_z
Si Si1 0.413520 0.060792 0.247773
Si Si2 0.410886 0.268854 0.842857
Si Si3 0.120248 0.675568 0.352687
Si Si4 0.259247 0.562969 0.149429
Si Si5 0.803185 0.843707 0.656517
O O1 0.500000 0.063644 0.182754
O O2 0.405796 0.113089 0.343169
O O3 0.335415 0.065661 0.158054
O O4 0.408705 0.000000 0.310422
O O5 0.500000 0.289003 0.840001
O O6 0.410076 0.209747 0.773563
O O7 0.356346 0.305484 0.748547
O O8 0.384909 0.266880 0.000000
O O9 0.095968 0.697978 0.500000
O O10 0.214128 0.677674 0.345765
O O11 0.280089 0.500000 0.162462
O O12 0.295515 0.598626 0.268434
O O13 0.283387 0.582984 0.000000
O O14 0.829631 0.847088 0.500000
#
# Coordination Sequence:
#
# PCOD9491663 Si02
#       5
#    16  16  16  16  16
#     4   9  18  31  48  75 111 148 186 227 267 308
#     4  11  24  39  56  80 108 138 175 221 273 326
#     4  10  21  36  54  78 108 143 184 225 265 314
#     4   9  18  33  54  80 110 145 182 220 265 315
#     4  10  21  37  58  82 108 141 180 221 265 315
#
# _framework density 19.21771
#
# number of rings (size 3 to 8) (size 9 to 14) (size 15 to 20)
#    0.000    2.200    0.000    2.400    0.000   10.400 
#    0.000    7.000    0.000    0.600    0.000    4.200 
#    0.000    0.000    0.000    0.000    0.000    0.000 
#
# Total GULP energy -222989.468080 kJ/mol
# GULP energy per Si atom -5574.736702 kJ/mol
# Density = 1.917397 g / cm^3
# Si number density = 19.217710 Si / 1000 Ang^3
#
#
#
# Elastic Constant Matrix: (Units=GPa)
#
#
# Indices 1 2 3 4 5 6 
#
# 1 57.6829 38.8841 43.2552 0.0000 0.0000 0.0000
# 2 38.8841 91.8547 68.9055 0.0000 0.0000 0.0000
# 3 43.2552 68.9055 173.2453 0.0000 0.0000 0.0000
# 4 0.0000 0.0000 0.0000 14.4726 0.0000 0.0000
# 5 0.0000 0.0000 0.0000 0.0000 -3.7959 0.0000
# 6 0.0000 0.0000 0.0000 0.0000 0.0000 11.3389
#
#
#
# Elastic Compliance Matrix: (Units=1/GPa)
#
#
# Indices 1 2 3 4 5 6 
#
# 1 0.025259 -0.008497 -0.002927 0.000000 0.000000 0.000000
# 2 -0.008497 0.018374 -0.005187 0.000000 0.000000 0.000000
# 3 -0.002927 -0.005187 0.008566 0.000000 0.000000 0.000000
# 4 0.000000 0.000000 0.000000 0.069096 0.000000 0.000000
# 5 0.000000 0.000000 0.000000 0.000000 -0.263443 0.000000
# 6 0.000000 0.000000 0.000000 0.000000 0.000000 0.088192
#
#
# Mechanical properties :
#
#
# Convention : Reuss Voigt Hill
#
# Bulk Modulus (GPa) = 52.69248 69.43026 61.06137
# Shear Modulus (GPa) = -347.03235 15.85233 -165.59001
#
# Velocity S-wave (km/s) = -13.45256 2.87519 -9.29260
# Velocity P-wave (km/s) = 14.62249 6.87234 9.12656
#
# Compressibility (1/GPa) = 0.01897804
#
# Stress axis : x y z
#
# Youngs Moduli (GPa) = 39.59008 54.42326 116.74211
#
# Poissons Ratio (x) = 0.46243 0.34171
# Poissons Ratio (y) = 0.33639 0.60550
# Poissons Ratio (z) = 0.11588 0.28228
#
# Static dielectric constant tensor:
#      x y z
#    x 1.668060 0.000000 0.000000 
#    y 0.000000 1.684290 0.000000 
#    z 0.000000 0.000000 1.680130 
# 
# From -- ./inp_files/9605.got.cif
#   From: 2010.05.17/outbox.cif.g08.bks.cpg/sg65_5_cif.got.tgz:9605.got - 2010.06.03 17:01:31.
