data_PCOD9491284
_publ_section_title
;
Structure prediction by ZEFSAII (Michael W. Deem and Ramdas Pophale) SiO2 
 PCOD9491284
Probable space group: C M M M
;
_chemical_formula_sum "Si O2"
_cell_formula_units_Z 80
_cell_length_a 28.049272
_cell_length_b 9.082987
_cell_length_c 19.256050
_cell_angle_alpha 90.000000
_cell_angle_beta 90.000000
_cell_angle_gamma 90.000000
_cell_volume 4905.886445
_symmetry_space_group_name_H-M "C M M M"
_symmetry_group_IT_number 65
_symmetry_cell_setting 'orthorhombic'
loop_
_space_group_symop_operation_xyz
x,y,z
-x,-y,z
x,-y,-z
-x,y,-z
-x,-y,-z
x,y,-z
-x,y,z
x,-y,z
1/2+x,1/2+y,z
1/2-x,1/2-y,z
1/2+x,1/2-y,-z
1/2-x,1/2+y,-z
1/2-x,1/2-y,-z
1/2+x,1/2+y,-z
1/2-x,1/2+y,z
1/2+x,1/2-y,z
loop_
_atom_site_type_symbol
_atom_site_label
_atom_site_fract_x
_atom_site_fract_y
_atom_site_fract_z
Si Si1 0.801226 0.822979 0.420973
Si Si2 0.199767 0.175464 0.849642
Si Si3 0.898358 0.822890 0.920569
Si Si4 0.640791 0.677175 0.712984
Si Si5 0.445115 0.824123 0.789279
O O1 0.815645 0.785052 0.500000
O O2 0.750000 0.750000 0.407674
O O3 0.838505 0.779489 0.361644
O O4 0.795898 0.000000 0.417173
O O5 0.250000 0.250000 0.863941
O O6 0.156625 0.214001 0.901766
O O7 0.179452 0.213861 0.773037
O O8 0.206060 0.000000 0.852151
O O9 0.930778 0.742603 0.864080
O O10 0.903179 0.000000 0.911837
O O11 0.909320 0.785469 0.000000
O O12 0.634289 0.500000 0.715050
O O13 0.591950 0.754242 0.735054
O O14 0.500000 0.788892 0.773419
O O15 0.439512 0.000000 0.790830
#
# Coordination Sequence:
#
# PCOD9491284 Si02
#       5
#    16  16  16  16  16
#     4   9  17  29  47  74 106 135 162 193 230 273
#     4   9  17  28  43  65  92 122 156 190 223 264
#     4   9  19  35  51  68  93 124 157 191 230 283
#     4   9  18  32  49  69  95 127 161 195 230 276
#     4  10  21  35  51  72  94 116 150 199 248 288
#
# _framework density 16.306940000000001
#
# number of rings (size 3 to 8) (size 9 to 14) (size 15 to 20)
#    0.000    2.800    0.000    2.400    0.000    6.800 
#    0.000    2.000    0.000    0.600    0.000    4.200 
#    0.000    0.000    0.000    0.000    0.000    0.000 
#
# Total GULP energy -222993.466082 kJ/mol
# GULP energy per Si atom -5574.836652 kJ/mol
# Density = 1.626982 g / cm^3
# Si number density = 16.306940 Si / 1000 Ang^3
#
#
#
# Elastic Constant Matrix: (Units=GPa)
#
#
# Indices 1 2 3 4 5 6 
#
# 1 87.3455 31.8945 53.6207 0.0000 0.0000 0.0000
# 2 31.8945 18.5692 32.0404 0.0000 0.0000 0.0000
# 3 53.6207 32.0404 121.6412 0.0000 0.0000 0.0000
# 4 0.0000 0.0000 0.0000 13.2755 0.0000 0.0000
# 5 0.0000 0.0000 0.0000 0.0000 9.9237 0.0000
# 6 0.0000 0.0000 0.0000 0.0000 0.0000 31.4435
#
#
#
# Elastic Compliance Matrix: (Units=1/GPa)
#
#
# Indices 1 2 3 4 5 6 
#
# 1 0.030738 -0.053924 0.000654 0.000000 0.000000 0.000000
# 2 -0.053924 0.193321 -0.027150 0.000000 0.000000 0.000000
# 3 0.000654 -0.027150 0.015084 0.000000 0.000000 0.000000
# 4 0.000000 0.000000 0.000000 0.075327 0.000000 0.000000
# 5 0.000000 0.000000 0.000000 0.000000 0.100768 0.000000
# 6 0.000000 0.000000 0.000000 0.000000 0.000000 0.031803
#
#
# Mechanical properties :
#
#
# Convention : Reuss Voigt Hill
#
# Bulk Modulus (GPa) = 12.77118 51.40746 32.08932
# Shear Modulus (GPa) = 7.88665 18.26189 13.07427
#
# Velocity S-wave (km/s) = 2.20156 3.35010 2.83461
# Velocity P-wave (km/s) = 3.78302 6.82331 5.51674
#
# Compressibility (1/GPa) = 0.07830129
#
# Stress axis : x y z
#
# Youngs Moduli (GPa) = 32.53312 5.17275 66.29547
#
# Poissons Ratio (x) = 0.27894 -0.04337
# Poissons Ratio (y) = 1.75433 1.79995
# Poissons Ratio (z) = -0.02128 0.14044
#
# Static dielectric constant tensor:
#      x y z
#    x 1.522300 0.000000 0.000000 
#    y 0.000000 1.543590 0.000000 
#    z 0.000000 0.000000 1.553440 
# 
# From -- ./inp_files/49878.got.cif
#   From: 2010.05.17/outbox.cif.g08.bks.cpg/sg65_25_cif.got.tgz:49878.got - 2010.06.03 17:01:31.
