data_PCOD9491103
_publ_section_title
;
Structure prediction by ZEFSAII (Michael W. Deem and Ramdas Pophale) SiO2 
 PCOD9491103
Probable space group: C M M M
;
_chemical_formula_sum "Si O2"
_cell_formula_units_Z 100
_cell_length_a 29.282775
_cell_length_b 7.398347
_cell_length_c 22.655968
_cell_angle_alpha 90.000000
_cell_angle_beta 90.000000
_cell_angle_gamma 90.000000
_cell_volume 4908.282490
_symmetry_space_group_name_H-M "C M M M"
_symmetry_group_IT_number 65
_symmetry_cell_setting 'orthorhombic'
loop_
_space_group_symop_operation_xyz
x,y,z
-x,-y,z
x,-y,-z
-x,y,-z
-x,-y,-z
x,y,-z
-x,y,z
x,-y,z
1/2+x,1/2+y,z
1/2-x,1/2-y,z
1/2+x,1/2-y,-z
1/2-x,1/2+y,-z
1/2-x,1/2-y,-z
1/2+x,1/2+y,-z
1/2-x,1/2+y,z
1/2+x,1/2-y,z
loop_
_atom_site_type_symbol
_atom_site_label
_atom_site_fract_x
_atom_site_fract_y
_atom_site_fract_z
Si Si1 0.052455 0.217410 0.500000
Si Si2 0.195932 0.283474 0.500000
Si Si3 0.417098 0.292711 0.718581
Si Si4 0.873590 0.290690 0.402112
Si Si5 0.374713 0.719680 0.840236
Si Si6 0.500000 0.000000 0.709844
Si Si7 0.696413 0.284070 0.934602
Si Si8 0.552187 0.719726 0.934887
O O1 0.081440 0.279176 0.556416
O O2 0.000000 0.279881 0.500000
O O3 0.052171 0.000000 0.500000
O O4 0.189407 0.500000 0.500000
O O5 0.250000 0.250000 0.500000
O O6 0.168084 0.216875 0.557756
O O7 0.432509 0.500000 0.730772
O O8 0.386632 0.296083 0.659553
O O9 0.385962 0.228360 0.773647
O O10 0.459554 0.158553 0.710307
O O11 0.863778 0.500000 0.389908
O O12 0.372567 0.500000 0.839402
O O13 0.331152 0.783652 0.877825
O O14 0.416943 0.777836 0.881238
O O15 0.689007 0.500000 0.936666
O O16 0.750000 0.250000 0.928394
O O17 0.682462 0.215032 0.000000
O O18 0.500000 0.777242 0.927989
O O19 0.552619 0.500000 0.934852
O O20 0.568444 0.775623 0.000000
#
# Coordination Sequence:
#
# PCOD9491103 Si02
#       8
#     8   8  16  16  16   4  16  16
#     4  10  21  33  53  85 116 154 198 241 298 362
#     4   9  20  38  66  94 125 163 202 253 311 364
#     4  11  24  41  63  88 121 168 213 255 305 364
#     4  10  21  40  58  86 126 160 201 258 307 359
#     4   9  18  32  52  79 111 148 198 249 297 361
#     4  12  26  44  60  87 127 170 216 256 302 362
#     4   9  17  32  55  83 113 146 190 248 314 381
#     4   8  13  22  40  69 102 134 176 235 294 348
#
# _framework density 20.373726999999999
#
# number of rings (size 3 to 8) (size 9 to 14) (size 15 to 20)
#    0.000    2.480    0.800    2.400    2.240    4.480 
#    1.440    0.800    0.000    3.840    0.000    2.240 
#    0.000    0.000    0.000    0.000    0.000    0.000 
#
# Total GULP energy -278417.445772 kJ/mol
# GULP energy per Si atom -5568.348915 kJ/mol
# Density = 2.032736 g / cm^3
# Si number density = 20.373727 Si / 1000 Ang^3
#
#
#
# Elastic Constant Matrix: (Units=GPa)
#
#
# Indices 1 2 3 4 5 6 
#
# 1 139.5186 9.2050 82.8681 0.0000 0.0000 0.0000
# 2 9.2050 99.3824 8.0105 0.0000 0.0000 0.0000
# 3 82.8681 8.0105 180.7842 0.0000 0.0000 0.0000
# 4 0.0000 0.0000 0.0000 34.6378 0.0000 0.0000
# 5 0.0000 0.0000 0.0000 0.0000 1.5259 0.0000
# 6 0.0000 0.0000 0.0000 0.0000 0.0000 25.0950
#
#
#
# Elastic Compliance Matrix: (Units=1/GPa)
#
#
# Indices 1 2 3 4 5 6 
#
# 1 0.009879 -0.000552 -0.004504 0.000000 0.000000 0.000000
# 2 -0.000552 0.010129 -0.000196 0.000000 0.000000 0.000000
# 3 -0.004504 -0.000196 0.007605 0.000000 0.000000 0.000000
# 4 0.000000 0.000000 0.000000 0.028870 0.000000 0.000000
# 5 0.000000 0.000000 0.000000 0.000000 0.655339 0.000000
# 6 0.000000 0.000000 0.000000 0.000000 0.000000 0.039849
#
#
# Mechanical properties :
#
#
# Convention : Reuss Voigt Hill
#
# Bulk Modulus (GPa) = 58.44758 68.87249 63.66003
# Shear Modulus (GPa) = 6.51146 33.55851 20.03498
#
# Velocity S-wave (km/s) = 1.78968 4.06291 3.13928
# Velocity P-wave (km/s) = 5.74635 7.47580 6.66739
#
# Compressibility (1/GPa) = 0.01710935
#
# Stress axis : x y z
#
# Youngs Moduli (GPa) = 101.22430 98.72597 131.49862
#
# Poissons Ratio (x) = 0.05450 0.59226
# Poissons Ratio (y) = 0.05587 0.02575
# Poissons Ratio (z) = 0.45591 0.01933
#
# Static dielectric constant tensor:
#      x y z
#    x 1.702320 0.000000 0.000000 
#    y 0.000000 1.639650 0.000000 
#    z 0.000000 0.000000 1.809410 
# 
# From -- ./inp_files/66465.got.cif
#   From: 2010.05.17/outbox.cif.g08.bks.cpg/sg65_34_cif.got.tgz:66465.got - 2010.06.03 17:01:31.
