data_PCOD9491919
_publ_section_title
;
Structure prediction by ZEFSAII (Michael W. Deem and Ramdas Pophale) SiO2 
 PCOD9491919
Probable space group: C M M M
;
_chemical_formula_sum "Si O2"
_cell_formula_units_Z 104
_cell_length_a 19.282046
_cell_length_b 8.543711
_cell_length_c 35.724532
_cell_angle_alpha 90.000000
_cell_angle_beta 90.000000
_cell_angle_gamma 90.000000
_cell_volume 5885.267565
_symmetry_space_group_name_H-M "C M M M"
_symmetry_group_IT_number 65
_symmetry_cell_setting 'orthorhombic'
loop_
_space_group_symop_operation_xyz
x,y,z
-x,-y,z
x,-y,-z
-x,y,-z
-x,-y,-z
x,y,-z
-x,y,z
x,-y,z
1/2+x,1/2+y,z
1/2-x,1/2-y,z
1/2+x,1/2-y,-z
1/2-x,1/2+y,-z
1/2-x,1/2-y,-z
1/2+x,1/2+y,-z
1/2-x,1/2+y,z
1/2+x,1/2-y,z
loop_
_atom_site_type_symbol
_atom_site_label
_atom_site_fract_x
_atom_site_fract_y
_atom_site_fract_z
Si Si1 0.329297 0.189179 0.419388
Si Si2 0.170727 0.688000 0.338433
Si Si3 0.670564 0.810541 0.500000
Si Si4 0.671483 0.314220 0.739747
Si Si5 0.419113 0.187219 0.807693
Si Si6 0.827976 0.189167 0.041733
Si Si7 0.080595 0.810979 0.111698
O O1 0.250000 0.250000 0.419473
O O2 0.360182 0.236181 0.378977
O O3 0.360260 0.239417 0.459668
O O4 0.327694 0.000000 0.419254
O O5 0.171334 0.500000 0.336228
O O6 0.250000 0.750000 0.338996
O O7 0.140783 0.753901 0.299876
O O8 0.750000 0.750000 0.500000
O O9 0.671548 0.000000 0.500000
O O10 0.674882 0.500000 0.738667
O O11 0.750000 0.250000 0.743268
O O12 0.626209 0.257684 0.774529
O O13 0.500000 0.235417 0.803913
O O14 0.394893 0.243531 0.848629
O O15 0.415760 0.000000 0.805992
O O16 0.750000 0.250000 0.046390
O O17 0.875461 0.242794 0.076010
O O18 0.827151 0.000000 0.042415
O O19 0.852251 0.237089 0.000000
O O20 0.000000 0.766473 0.107012
O O21 0.084047 0.000000 0.113585
#
# Coordination Sequence:
#
# PCOD9491919 Si02
#       7
#    16  16   8  16  16  16  16
#     4   8  13  19  29  44  66  98 135 176 218 263
#     4   9  15  24  37  55  80 110 145 185 230 275
#     4   8  12  18  26  40  62  92 133 174 213 258
#     4  11  21  33  50  71  95 123 158 198 238 283
#     4  10  21  37  55  74  98 127 158 195 241 290
#     4   9  18  32  50  73 101 132 163 196 235 276
#     4   9  18  33  52  73  97 126 161 198 234 276
#
# _framework density 17.671244000000002
#
# number of rings (size 3 to 8) (size 9 to 14) (size 15 to 20)
#    0.000    2.769    0.000    3.231    0.000    3.077 
#    0.000    3.077    0.000    0.000    0.000    4.308 
#    0.000    0.000    0.000    0.692    0.000   16.615 
#
# Total GULP energy -289473.047435 kJ/mol
# GULP energy per Si atom -5566.789374 kJ/mol
# Density = 1.763102 g / cm^3
# Si number density = 17.671244 Si / 1000 Ang^3
#
#
#
# Elastic Constant Matrix: (Units=GPa)
#
#
# Indices 1 2 3 4 5 6 
#
# 1 27.1078 14.6760 62.8262 0.0000 0.0000 0.0000
# 2 14.6760 37.2437 45.3339 0.0000 0.0000 0.0000
# 3 62.8262 45.3339 241.9439 0.0000 0.0000 0.0000
# 4 0.0000 0.0000 0.0000 19.1759 0.0000 0.0000
# 5 0.0000 0.0000 0.0000 0.0000 -10.0828 0.0000
# 6 0.0000 0.0000 0.0000 0.0000 0.0000 15.3405
#
#
#
# Elastic Compliance Matrix: (Units=1/GPa)
#
#
# Indices 1 2 3 4 5 6 
#
# 1 0.095236 -0.009620 -0.022928 0.000000 0.000000 0.000000
# 2 -0.009620 0.035755 -0.004202 0.000000 0.000000 0.000000
# 3 -0.022928 -0.004202 0.010874 0.000000 0.000000 0.000000
# 4 0.000000 0.000000 0.000000 0.052149 0.000000 0.000000
# 5 0.000000 0.000000 0.000000 0.000000 -0.099179 0.000000
# 6 0.000000 0.000000 0.000000 0.000000 0.000000 0.065187
#
#
# Mechanical properties :
#
#
# Convention : Reuss Voigt Hill
#
# Bulk Modulus (GPa) = 14.62696 61.32974 37.97835
# Shear Modulus (GPa) = 19.50771 17.11734 18.31253
#
# Velocity S-wave (km/s) = 3.32614 3.11570 3.22264
# Velocity P-wave (km/s) = 4.80064 6.90831 5.94857
#
# Compressibility (1/GPa) = 0.06836690
#
# Stress axis : x y z
#
# Youngs Moduli (GPa) = 10.50027 27.96802 91.96161
#
# Poissons Ratio (x) = 0.26905 2.10845
# Poissons Ratio (y) = 0.10101 0.38638
# Poissons Ratio (z) = 0.24075 0.11751
#
# Static dielectric constant tensor:
#      x y z
#    x 1.565500 0.000000 0.000000 
#    y 0.000000 1.696490 0.000000 
#    z 0.000000 0.000000 1.672450 
# 
# From -- ./inp_files/78377.got.cif
#   From: 2010.05.17/outbox.cif.g08.bks.cpg/sg65_40_cif.got.tgz:78377.got - 2010.06.03 17:01:31.
