data_PCOD9491720
_publ_section_title
;
Structure prediction by ZEFSAII (Michael W. Deem and Ramdas Pophale) SiO2 
 PCOD9491720
Probable space group: C M M M
;
_chemical_formula_sum "Si O2"
_cell_formula_units_Z 96
_cell_length_a 9.464791
_cell_length_b 26.269248
_cell_length_c 19.219802
_cell_angle_alpha 90.000000
_cell_angle_beta 90.000000
_cell_angle_gamma 90.000000
_cell_volume 4778.675917
_symmetry_space_group_name_H-M "C M M M"
_symmetry_group_IT_number 65
_symmetry_cell_setting 'orthorhombic'
loop_
_space_group_symop_operation_xyz
x,y,z
-x,-y,z
x,-y,-z
-x,y,-z
-x,-y,-z
x,y,-z
-x,y,z
x,-y,z
1/2+x,1/2+y,z
1/2-x,1/2-y,z
1/2+x,1/2-y,-z
1/2-x,1/2+y,-z
1/2-x,1/2-y,-z
1/2+x,1/2+y,-z
1/2-x,1/2+y,z
1/2+x,1/2-y,z
loop_
_atom_site_type_symbol
_atom_site_label
_atom_site_fract_x
_atom_site_fract_y
_atom_site_fract_z
Si Si1 0.333745 0.299863 0.277664
Si Si2 0.166801 0.442593 0.636169
Si Si3 0.332238 0.599610 0.077434
Si Si4 0.657347 0.796457 0.082285
Si Si5 0.831833 0.150708 0.422913
Si Si6 0.832822 0.913733 0.228405
O O1 0.500000 0.289817 0.272448
O O2 0.250000 0.250000 0.257247
O O3 0.297372 0.313181 0.358059
O O4 0.307314 0.352584 0.236247
O O5 0.185018 0.500000 0.609818
O O6 0.246037 0.400998 0.589858
O O7 0.237446 0.438690 0.712634
O O8 0.000000 0.431521 0.640406
O O9 0.500000 0.612129 0.079705
O O10 0.241339 0.650800 0.084041
O O11 0.304055 0.569642 0.148994
O O12 0.304938 0.577269 0.000000
O O13 0.500000 0.799675 0.113243
O O14 0.750000 0.750000 0.110127
O O15 0.640125 0.785852 0.000000
O O16 0.802816 0.171239 0.500000
O O17 0.000000 0.140054 0.417738
O O18 0.000000 0.922051 0.243309
#
# Coordination Sequence:
#
# PCOD9491720 Si02
#       6
#    16  16  16  16  16  16
#     4   9  18  32  49  71 101 138 179 216 248 288
#     4  10  21  36  55  80 107 134 167 209 256 306
#     4   9  17  30  48  69  93 122 160 210 266 316
#     4   9  16  25  37  55  82 117 156 196 240 293
#     4   9  19  36  56  79 108 140 175 213 251 299
#     4   9  19  35  53  74 101 134 173 215 258 310
#
# _framework density 20.089247
#
# number of rings (size 3 to 8) (size 9 to 14) (size 15 to 20)
#    0.000    2.833    0.000    2.000    0.000    8.333 
#    0.000    3.333    0.000    0.500    0.000    3.500 
#    0.000    0.000    0.000    0.000    0.000    0.000 
#
# Total GULP energy -267635.719077 kJ/mol
# GULP energy per Si atom -5575.744147 kJ/mol
# Density = 2.004352 g / cm^3
# Si number density = 20.089247 Si / 1000 Ang^3
#
#
#
# Elastic Constant Matrix: (Units=GPa)
#
#
# Indices 1 2 3 4 5 6 
#
# 1 23.6469 11.8405 11.9297 0.0000 0.0000 0.0000
# 2 11.8405 39.1811 -3.2629 0.0000 0.0000 0.0000
# 3 11.9297 -3.2629 123.2610 0.0000 0.0000 0.0000
# 4 0.0000 0.0000 0.0000 -1.9292 0.0000 0.0000
# 5 0.0000 0.0000 0.0000 0.0000 11.9637 0.0000
# 6 0.0000 0.0000 0.0000 0.0000 0.0000 23.3625
#
#
#
# Elastic Compliance Matrix: (Units=1/GPa)
#
#
# Indices 1 2 3 4 5 6 
#
# 1 0.053441 -0.016617 -0.005612 0.000000 0.000000 0.000000
# 2 -0.016617 0.030746 0.002422 0.000000 0.000000 0.000000
# 3 -0.005612 0.002422 0.008720 0.000000 0.000000 0.000000
# 4 0.000000 0.000000 0.000000 -0.518349 0.000000 0.000000
# 5 0.000000 0.000000 0.000000 0.000000 0.083586 0.000000
# 6 0.000000 0.000000 0.000000 0.000000 0.000000 0.042804
#
#
# Mechanical properties :
#
#
# Convention : Reuss Voigt Hill
#
# Bulk Modulus (GPa) = 18.76429 25.23372 21.99900
# Shear Modulus (GPa) = -20.68899 17.71818 -1.48540
#
# Velocity S-wave (km/s) = -3.21261 2.97303 -0.86082
# Velocity P-wave (km/s) = 2.09772 4.93693 3.16013
#
# Compressibility (1/GPa) = 0.05329271
#
# Stress axis : x y z
#
# Youngs Moduli (GPa) = 18.71239 32.52475 114.67705
#
# Poissons Ratio (x) = 0.54046 0.64357
# Poissons Ratio (y) = 0.31094 -0.27776
# Poissons Ratio (z) = 0.10501 -0.07878
#
# Static dielectric constant tensor:
#      x y z
#    x 1.677650 0.000000 0.000000 
#    y 0.000000 1.683520 0.000000 
#    z 0.000000 0.000000 1.763580 
# 
# From -- ./inp_files/60144.got.cif
#   From: 2010.05.17/outbox.cif.g08.bks.cpg/sg65_31_cif.got.tgz:60144.got - 2010.06.03 17:01:31.
