data_PCOD9491025
_publ_section_title
;
Structure prediction by ZEFSAII (Michael W. Deem and Ramdas Pophale) SiO2 
 PCOD9491025
Probable space group: C M M M
;
_chemical_formula_sum "Si O2"
_cell_formula_units_Z 58
_cell_length_a 14.724582
_cell_length_b 8.026457
_cell_length_c 26.204497
_cell_angle_alpha 90.000000
_cell_angle_beta 90.000000
_cell_angle_gamma 90.000000
_cell_volume 3097.010559
_symmetry_space_group_name_H-M "C M M M"
_symmetry_group_IT_number 65
_symmetry_cell_setting 'orthorhombic'
loop_
_space_group_symop_operation_xyz
x,y,z
-x,-y,z
x,-y,-z
-x,y,-z
-x,-y,-z
x,y,-z
-x,y,z
x,-y,z
1/2+x,1/2+y,z
1/2-x,1/2-y,z
1/2+x,1/2-y,-z
1/2-x,1/2+y,-z
1/2-x,1/2-y,-z
1/2+x,1/2+y,-z
1/2-x,1/2+y,z
1/2+x,1/2-y,z
loop_
_atom_site_type_symbol
_atom_site_label
_atom_site_fract_x
_atom_site_fract_y
_atom_site_fract_z
Si Si1 0.500000 0.193476 0.416843
Si Si2 0.000000 0.000000 0.500000
Si Si3 0.500000 0.303080 0.746842
Si Si4 0.645661 0.300930 0.943430
Si Si5 0.355175 0.701032 0.334224
Si Si6 0.000000 0.692927 0.862083
O O1 0.500000 0.348356 0.456118
O O2 0.588539 0.219744 0.380912
O O3 0.500000 0.000000 0.435847
O O4 0.500000 0.500000 0.739204
O O5 0.410355 0.242741 0.716597
O O6 0.500000 0.275327 0.806865
O O7 0.638518 0.500000 0.943694
O O8 0.750000 0.250000 0.937353
O O9 0.585589 0.236555 0.897375
O O10 0.615953 0.240439 0.000000
O O11 0.360761 0.500000 0.338811
O O12 0.250000 0.750000 0.333236
O O13 0.000000 0.500000 0.851433
#
# Coordination Sequence:
#
# PCOD9491025 Si02
#       6
#     8   2   8  16  16   8
#     4  11  22  40  67  93 129 173 206 253 309 353
#     4  12  22  44  64  94 140 162 214 256 302 358
#     4   9  21  39  58  84 119 158 199 252 302 352
#     4  10  21  38  59  81 108 147 192 237 294 361
#     4  10  20  39  65  92 122 159 206 251 297 366
#     4  12  24  36  55  83 119 150 192 244 297 354
#
# _framework density 18.727737000000001
#
# number of rings (size 3 to 8) (size 9 to 14) (size 15 to 20)
#    0.000    1.655    1.379    4.345    0.000    7.724 
#    0.000    3.448    0.000    0.000    0.000    0.000 
#    0.000    0.000    0.000    0.000    0.000    0.000 
#
# Total GULP energy -161540.498434 kJ/mol
# GULP energy per Si atom -5570.362015 kJ/mol
# Density = 1.868511 g / cm^3
# Si number density = 18.727737 Si / 1000 Ang^3
#
#
#
# Elastic Constant Matrix: (Units=GPa)
#
#
# Indices 1 2 3 4 5 6 
#
# 1 139.8816 19.6373 69.8836 0.0000 0.0000 0.0000
# 2 19.6373 78.1420 16.1753 0.0000 0.0000 0.0000
# 3 69.8836 16.1753 138.6116 0.0000 0.0000 0.0000
# 4 0.0000 0.0000 0.0000 19.4247 0.0000 0.0000
# 5 0.0000 0.0000 0.0000 0.0000 -22.1780 0.0000
# 6 0.0000 0.0000 0.0000 0.0000 0.0000 29.1181
#
#
#
# Elastic Compliance Matrix: (Units=1/GPa)
#
#
# Indices 1 2 3 4 5 6 
#
# 1 0.009716 -0.001463 -0.004728 0.000000 0.000000 0.000000
# 2 -0.001463 0.013334 -0.000818 0.000000 0.000000 0.000000
# 3 -0.004728 -0.000818 0.009694 0.000000 0.000000 0.000000
# 4 0.000000 0.000000 0.000000 0.051481 0.000000 0.000000
# 5 0.000000 0.000000 0.000000 0.000000 -0.045090 0.000000
# 6 0.000000 0.000000 0.000000 0.000000 0.000000 0.034343
#
#
# Mechanical properties :
#
#
# Convention : Reuss Voigt Hill
#
# Bulk Modulus (GPa) = 53.40345 63.11419 58.25882
# Shear Modulus (GPa) = 53.33968 22.00222 37.67095
#
# Velocity S-wave (km/s) = 5.34261 3.43132 4.48985
# Velocity P-wave (km/s) = 8.16306 7.03368 7.61933
#
# Compressibility (1/GPa) = 0.01872538
#
# Stress axis : x y z
#
# Youngs Moduli (GPa) = 102.91952 74.99452 103.16096
#
# Poissons Ratio (x) = 0.10972 0.48774
# Poissons Ratio (y) = 0.15058 0.08443
# Poissons Ratio (z) = 0.48660 0.06138
#
# Static dielectric constant tensor:
#      x y z
#    x 1.631700 0.000000 0.000000 
#    y 0.000000 1.661280 0.000000 
#    z 0.000000 0.000000 1.676520 
# 
# From -- ./inp_files/69473.got.cif
#   From: 2010.05.17/outbox.cif.g08.bks.cpg/sg65_35_cif.got.tgz:69473.got - 2010.06.03 17:01:31.
