data_PCOD9491360
_publ_section_title
;
Structure prediction by ZEFSAII (Michael W. Deem and Ramdas Pophale) SiO2 
 PCOD9491360
Probable space group: C M M M
;
_chemical_formula_sum "Si O2"
_cell_formula_units_Z 96
_cell_length_a 24.152478
_cell_length_b 8.303950
_cell_length_c 26.518186
_cell_angle_alpha 90.000000
_cell_angle_beta 90.000000
_cell_angle_gamma 90.000000
_cell_volume 5318.513099
_symmetry_space_group_name_H-M "C M M M"
_symmetry_group_IT_number 65
_symmetry_cell_setting 'orthorhombic'
loop_
_space_group_symop_operation_xyz
x,y,z
-x,-y,z
x,-y,-z
-x,y,-z
-x,-y,-z
x,y,-z
-x,y,z
x,-y,z
1/2+x,1/2+y,z
1/2-x,1/2-y,z
1/2+x,1/2-y,-z
1/2-x,1/2+y,-z
1/2-x,1/2-y,-z
1/2+x,1/2+y,-z
1/2-x,1/2+y,z
1/2+x,1/2-y,z
loop_
_atom_site_type_symbol
_atom_site_label
_atom_site_fract_x
_atom_site_fract_y
_atom_site_fract_z
Si Si1 0.890215 0.806898 0.894236
Si Si2 0.186064 0.305636 0.500000
Si Si3 0.500000 0.695923 0.836881
Si Si4 0.686629 0.194806 0.609387
Si Si5 0.621043 0.805849 0.292535
Si Si6 0.000000 0.192816 0.278323
Si Si7 0.313078 0.192757 0.192684
Si Si8 0.934893 0.692376 0.000000
O O1 0.838802 0.748474 0.860649
O O2 0.901148 0.748616 0.950850
O O3 0.944958 0.748890 0.864568
O O4 0.889068 0.000000 0.894572
O O5 0.184622 0.500000 0.500000
O O6 0.250000 0.250000 0.500000
O O7 0.163256 0.251817 0.445497
O O8 0.500000 0.500000 0.837753
O O9 0.500000 0.749351 0.779698
O O10 0.750000 0.250000 0.612231
O O11 0.655124 0.252917 0.658960
O O12 0.685368 0.000000 0.610084
O O13 0.557740 0.754807 0.299570
O O14 0.648559 0.747937 0.239698
O O15 0.623513 0.000000 0.291237
O O16 0.000000 0.000000 0.279564
O O17 0.250000 0.250000 0.199070
O O18 0.313688 0.000000 0.193712
O O19 0.937783 0.500000 0.000000
O O20 0.000000 0.752185 0.000000
#
# Coordination Sequence:
#
# PCOD9491360 Si02
#       8
#    16   8   8  16  16   8  16   8
#     4  11  21  38  60  83 111 143 179 220 265 314
#     4   8  14  26  46  71 100 135 175 220 264 310
#     4   9  18  32  54  81 107 135 171 215 262 309
#     4   9  17  30  49  75 106 139 177 219 266 316
#     4  10  21  35  52  77 109 141 175 218 267 318
#     4  11  21  35  54  79 106 138 178 218 265 316
#     4  11  23  38  56  80 109 144 179 216 264 318
#     4  11  23  37  56  87 118 143 177 220 264 312
#
# _framework density 18.050158
#
# number of rings (size 3 to 8) (size 9 to 14) (size 15 to 20)
#    0.000    1.917    2.500    2.000    0.000    1.667 
#    0.000    0.417    0.000    0.500    0.000    3.500 
#    0.000    0.000    0.000    0.000    0.000    0.000 
#
# Total GULP energy -267652.532362 kJ/mol
# GULP energy per Si atom -5576.094424 kJ/mol
# Density = 1.800908 g / cm^3
# Si number density = 18.050158 Si / 1000 Ang^3
#
#
#
# Elastic Constant Matrix: (Units=GPa)
#
#
# Indices 1 2 3 4 5 6 
#
# 1 107.2203 13.2449 62.1408 0.0000 0.0000 0.0000
# 2 13.2449 29.1962 21.4895 0.0000 0.0000 0.0000
# 3 62.1408 21.4895 155.6679 0.0000 0.0000 0.0000
# 4 0.0000 0.0000 0.0000 10.7521 0.0000 0.0000
# 5 0.0000 0.0000 0.0000 0.0000 20.2946 0.0000
# 6 0.0000 0.0000 0.0000 0.0000 0.0000 23.5978
#
#
#
# Elastic Compliance Matrix: (Units=1/GPa)
#
#
# Indices 1 2 3 4 5 6 
#
# 1 0.012257 -0.002181 -0.004592 0.000000 0.000000 0.000000
# 2 -0.002181 0.038513 -0.004446 0.000000 0.000000 0.000000
# 3 -0.004592 -0.004446 0.008871 0.000000 0.000000 0.000000
# 4 0.000000 0.000000 0.000000 0.093005 0.000000 0.000000
# 5 0.000000 0.000000 0.000000 0.000000 0.049274 0.000000
# 6 0.000000 0.000000 0.000000 0.000000 0.000000 0.042377
#
#
# Mechanical properties :
#
#
# Convention : Reuss Voigt Hill
#
# Bulk Modulus (GPa) = 26.87923 53.98163 40.43043
# Shear Modulus (GPa) = 17.91243 23.94284 20.92763
#
# Velocity S-wave (km/s) = 3.15361 3.64601 3.40871
# Velocity P-wave (km/s) = 5.30887 6.90622 6.15954
#
# Compressibility (1/GPa) = 0.03720345
#
# Stress axis : x y z
#
# Youngs Moduli (GPa) = 81.58421 25.96539 112.73009
#
# Poissons Ratio (x) = 0.05662 0.51765
# Poissons Ratio (y) = 0.17791 0.50121
# Poissons Ratio (z) = 0.37463 0.11544
#
# Static dielectric constant tensor:
#      x y z
#    x 1.592170 0.000000 0.000000 
#    y 0.000000 1.617170 0.000000 
#    z 0.000000 0.000000 1.653670 
# 
# From -- ./inp_files/71513.got.cif
#   From: 2010.05.17/outbox.cif.g08.bks.cpg/sg65_36_cif.got.tgz:71513.got - 2010.06.03 17:01:31.
