data_PCOD9491903
_publ_section_title
;
Structure prediction by ZEFSAII (Michael W. Deem and Ramdas Pophale) SiO2 
 PCOD9491903
Probable space group: C M M M
;
_chemical_formula_sum "Si O2"
_cell_formula_units_Z 72
_cell_length_a 8.580780
_cell_length_b 15.839095
_cell_length_c 28.816064
_cell_angle_alpha 90.000000
_cell_angle_beta 90.000000
_cell_angle_gamma 90.000000
_cell_volume 3916.442827
_symmetry_space_group_name_H-M "C M M M"
_symmetry_group_IT_number 65
_symmetry_cell_setting 'orthorhombic'
loop_
_space_group_symop_operation_xyz
x,y,z
-x,-y,z
x,-y,-z
-x,y,-z
-x,-y,-z
x,y,-z
-x,y,z
x,-y,z
1/2+x,1/2+y,z
1/2-x,1/2-y,z
1/2+x,1/2-y,-z
1/2-x,1/2+y,-z
1/2-x,1/2-y,-z
1/2+x,1/2+y,-z
1/2-x,1/2+y,z
1/2+x,1/2-y,z
loop_
_atom_site_type_symbol
_atom_site_label
_atom_site_fract_x
_atom_site_fract_y
_atom_site_fract_z
Si Si1 0.186778 0.342077 0.054175
Si Si2 0.688139 0.841952 0.614965
Si Si3 0.312060 0.841929 0.278012
Si Si4 0.185471 0.000000 0.111577
Si Si5 0.689094 0.000000 0.784246
Si Si6 0.690556 0.000000 0.446651
O O1 0.250000 0.250000 0.068081
O O2 0.253009 0.417166 0.085060
O O3 0.000000 0.342059 0.057111
O O4 0.230734 0.355389 0.000000
O O5 0.500000 0.840139 0.614258
O O6 0.750000 0.750000 0.601339
O O7 0.736466 0.858042 0.668486
O O8 0.740639 0.916669 0.581235
O O9 0.500000 0.839841 0.277493
O O10 0.250000 0.750000 0.264275
O O11 0.261256 0.916913 0.244287
O O12 0.246335 0.000000 0.164096
O O13 0.000000 0.000000 0.110999
O O14 0.500000 0.000000 0.786062
O O15 0.500000 0.000000 0.446498
O O16 0.741382 0.000000 0.500000
#
# Coordination Sequence:
#
# PCOD9491903 Si02
#       6
#    16  16  16   8   8   8
#     4  10  21  39  63  88 113 144 184 228 271 316
#     4   9  17  31  51  74  98 127 168 212 255 305
#     4   9  18  33  54  76  98 129 169 215 262 309
#     4  12  25  38  55  82 116 151 184 220 267 322
#     4  10  21  37  54  73 102 139 176 215 264 317
#     4   9  17  29  47  71 100 135 170 203 245 304
#
# _framework density 18.384029000000002
#
# number of rings (size 3 to 8) (size 9 to 14) (size 15 to 20)
#    0.000    2.333    0.000    2.667    0.000    7.556 
#    0.000    2.778    0.000    6.000    0.000    0.000 
#    0.000    0.000    0.000    0.000    0.000    0.000 
#
# Total GULP energy -200985.954766 kJ/mol
# GULP energy per Si atom -5582.943188 kJ/mol
# Density = 1.834219 g / cm^3
# Si number density = 18.384029 Si / 1000 Ang^3
#
#
#
# Elastic Constant Matrix: (Units=GPa)
#
#
# Indices 1 2 3 4 5 6 
#
# 1 24.5522 42.2609 34.2170 0.0000 0.0000 0.0000
# 2 42.2609 217.5604 143.6357 0.0000 0.0000 0.0000
# 3 34.2170 143.6357 136.2847 0.0000 0.0000 0.0000
# 4 0.0000 0.0000 0.0000 9.6150 0.0000 0.0000
# 5 0.0000 0.0000 0.0000 0.0000 17.1793 0.0000
# 6 0.0000 0.0000 0.0000 0.0000 0.0000 34.5586
#
#
#
# Elastic Compliance Matrix: (Units=1/GPa)
#
#
# Indices 1 2 3 4 5 6 
#
# 1 0.065016 -0.006090 -0.009906 0.000000 0.000000 0.000000
# 2 -0.006090 0.015681 -0.014998 0.000000 0.000000 0.000000
# 3 -0.009906 -0.014998 0.025632 0.000000 0.000000 0.000000
# 4 0.000000 0.000000 0.000000 0.104004 0.000000 0.000000
# 5 0.000000 0.000000 0.000000 0.000000 0.058209 0.000000
# 6 0.000000 0.000000 0.000000 0.000000 0.000000 0.028936
#
#
# Mechanical properties :
#
#
# Convention : Reuss Voigt Hill
#
# Bulk Modulus (GPa) = 22.55170 90.95827 56.75499
# Shear Modulus (GPa) = 13.36017 22.82283 18.09150
#
# Velocity S-wave (km/s) = 2.69871 3.52724 3.14042
# Velocity P-wave (km/s) = 4.69088 8.13467 6.63992
#
# Compressibility (1/GPa) = 0.04434255
#
# Stress axis : x y z
#
# Youngs Moduli (GPa) = 15.38077 63.77029 39.01410
#
# Poissons Ratio (x) = 0.38833 0.38646
# Poissons Ratio (y) = 0.09366 0.58514
# Poissons Ratio (z) = 0.15236 0.95644
#
# Static dielectric constant tensor:
#      x y z
#    x 1.622770 0.000000 0.000000 
#    y 0.000000 1.605420 0.000000 
#    z 0.000000 0.000000 1.616210 
# 
# From -- ./inp_files/72565.got.cif
#   From: 2010.05.17/outbox.cif.g08.bks.cpg/sg65_37_cif.got.tgz:72565.got - 2010.06.03 17:01:31.
