data_PCOD9491889
_publ_section_title
;
Structure prediction by ZEFSAII (Michael W. Deem and Ramdas Pophale) SiO2 
 PCOD9491889
Probable space group: C M M M
;
_chemical_formula_sum "Si O2"
_cell_formula_units_Z 96
_cell_length_a 9.099947
_cell_length_b 29.530547
_cell_length_c 20.645514
_cell_angle_alpha 90.000000
_cell_angle_beta 90.000000
_cell_angle_gamma 90.000000
_cell_volume 5547.994913
_symmetry_space_group_name_H-M "C M M M"
_symmetry_group_IT_number 65
_symmetry_cell_setting 'orthorhombic'
loop_
_space_group_symop_operation_xyz
x,y,z
-x,-y,z
x,-y,-z
-x,y,-z
-x,-y,-z
x,y,-z
-x,y,z
x,-y,z
1/2+x,1/2+y,z
1/2-x,1/2-y,z
1/2+x,1/2-y,-z
1/2-x,1/2+y,-z
1/2-x,1/2-y,-z
1/2+x,1/2+y,-z
1/2-x,1/2+y,z
1/2+x,1/2-y,z
loop_
_atom_site_type_symbol
_atom_site_label
_atom_site_fract_x
_atom_site_fract_y
_atom_site_fract_z
Si Si1 0.675339 0.639864 0.820192
Si Si2 0.675107 0.050910 0.615101
Si Si3 0.674533 0.948496 0.229860
Si Si4 0.826117 0.702269 0.076907
Si Si5 0.176705 0.858037 0.571764
Si Si6 0.823329 0.201170 0.305294
O O1 0.500000 0.639803 0.828200
O O2 0.734802 0.589808 0.806238
O O3 0.752920 0.663076 0.881107
O O4 0.711585 0.670335 0.756968
O O5 0.500000 0.054444 0.603850
O O6 0.699286 0.054963 0.692625
O O7 0.757212 0.092122 0.581724
O O8 0.721070 0.000000 0.595378
O O9 0.500000 0.941872 0.219340
O O10 0.711855 0.000000 0.210735
O O11 0.750000 0.750000 0.094111
O O12 0.000000 0.705050 0.089741
O O13 0.804928 0.695112 0.000000
O O14 0.216210 0.841096 0.500000
O O15 0.225623 0.825320 0.629883
O O16 0.000000 0.861234 0.575764
O O17 0.750000 0.250000 0.300286
O O18 0.000000 0.206333 0.307759
#
# Coordination Sequence:
#
# PCOD9491889 Si02
#       6
#    16  16  16  16  16  16
#     4  11  21  34  56  84 112 143 180 221 267 318
#     4   9  18  33  53  77 104 134 171 217 267 319
#     4   9  18  33  54  80 109 141 177 219 269 321
#     4  10  21  37  57  83 116 151 185 221 264 316
#     4  10  21  37  53  71 101 138 176 220 270 323
#     4  10  22  37  52  75 102 133 175 221 267 314
#
# _framework density 17.303547999999999
#
# number of rings (size 3 to 8) (size 9 to 14) (size 15 to 20)
#    0.000    2.167    1.667    2.500    0.000    6.000 
#    0.000    3.333    0.000    0.500    0.000    3.500 
#    0.000    0.000    0.000    0.000    0.000    0.000 
#
# Total GULP energy -267951.129853 kJ/mol
# GULP energy per Si atom -5582.315205 kJ/mol
# Density = 1.726416 g / cm^3
# Si number density = 17.303548 Si / 1000 Ang^3
#
#
#
# Elastic Constant Matrix: (Units=GPa)
#
#
# Indices 1 2 3 4 5 6 
#
# 1 42.7578 48.9731 44.7558 0.0000 0.0000 0.0000
# 2 48.9731 117.7737 48.7301 0.0000 0.0000 0.0000
# 3 44.7558 48.7301 61.8157 0.0000 0.0000 0.0000
# 4 0.0000 0.0000 0.0000 14.9333 0.0000 0.0000
# 5 0.0000 0.0000 0.0000 0.0000 20.4914 0.0000
# 6 0.0000 0.0000 0.0000 0.0000 0.0000 36.5188
#
#
#
# Elastic Compliance Matrix: (Units=1/GPa)
#
#
# Indices 1 2 3 4 5 6 
#
# 1 0.125131 -0.021588 -0.073579 0.000000 0.000000 0.000000
# 2 -0.021588 0.016326 0.002761 0.000000 0.000000 0.000000
# 3 -0.073579 0.002761 0.067273 0.000000 0.000000 0.000000
# 4 0.000000 0.000000 0.000000 0.066965 0.000000 0.000000
# 5 0.000000 0.000000 0.000000 0.000000 0.048801 0.000000
# 6 0.000000 0.000000 0.000000 0.000000 0.000000 0.027383
#
#
# Mechanical properties :
#
#
# Convention : Reuss Voigt Hill
#
# Bulk Modulus (GPa) = 41.81149 56.36280 49.08715
# Shear Modulus (GPa) = 9.17997 19.71456 14.44727
#
# Velocity S-wave (km/s) = 2.30581 3.37907 2.89265
# Velocity P-wave (km/s) = 5.59509 6.91866 6.29177
#
# Compressibility (1/GPa) = 0.02391687
#
# Stress axis : x y z
#
# Youngs Moduli (GPa) = 7.99162 61.25382 14.86472
#
# Poissons Ratio (x) = 1.32237 1.09373
# Poissons Ratio (y) = 0.17253 -0.04104
# Poissons Ratio (z) = 0.58802 -0.16911
#
# Static dielectric constant tensor:
#      x y z
#    x 1.573100 0.000000 0.000000 
#    y 0.000000 1.560150 0.000000 
#    z 0.000000 0.000000 1.591210 
# 
# From -- ./inp_files/60234.got.cif
#   From: 2010.05.17/outbox.cif.g08.bks.cpg/sg65_31_cif.got.tgz:60234.got - 2010.06.03 17:01:31.
