data_PCOD9491045
_publ_section_title
;
Structure prediction by ZEFSAII (Michael W. Deem and Ramdas Pophale) SiO2 
 PCOD9491045
Probable space group: C M M M
;
_chemical_formula_sum "Si O2"
_cell_formula_units_Z 64
_cell_length_a 11.229242
_cell_length_b 31.907709
_cell_length_c 9.672896
_cell_angle_alpha 90.000000
_cell_angle_beta 90.000000
_cell_angle_gamma 90.000000
_cell_volume 3465.792698
_symmetry_space_group_name_H-M "C M M M"
_symmetry_group_IT_number 65
_symmetry_cell_setting 'orthorhombic'
loop_
_space_group_symop_operation_xyz
x,y,z
-x,-y,z
x,-y,-z
-x,y,-z
-x,-y,-z
x,y,-z
-x,y,z
x,-y,z
1/2+x,1/2+y,z
1/2-x,1/2-y,z
1/2+x,1/2-y,-z
1/2-x,1/2+y,-z
1/2-x,1/2-y,-z
1/2+x,1/2+y,-z
1/2-x,1/2+y,z
1/2+x,1/2-y,z
loop_
_atom_site_type_symbol
_atom_site_label
_atom_site_fract_x
_atom_site_fract_y
_atom_site_fract_z
Si Si1 0.633831 0.343329 0.761278
Si Si2 0.858965 0.000000 0.339273
Si Si3 0.234665 0.572373 0.833829
Si Si4 0.000000 0.449266 0.663521
Si Si5 0.371627 0.275378 0.000000
Si Si6 0.853147 0.786355 0.500000
O O1 0.500000 0.360759 0.742431
O O2 0.716607 0.380944 0.809497
O O3 0.668403 0.317459 0.627044
O O4 0.629234 0.306738 0.872716
O O5 0.818237 0.039752 0.248713
O O6 0.810447 0.000000 0.500000
O O7 0.000000 0.000000 0.350584
O O8 0.111998 0.566742 0.751110
O O9 0.227003 0.563981 0.000000
O O10 0.000000 0.500000 0.666660
O O11 0.000000 0.437060 0.500000
O O12 0.250000 0.250000 0.000000
O O13 0.500000 0.251780 0.000000
O O14 0.750000 0.750000 0.500000
O O15 0.000000 0.774515 0.500000
#
# Coordination Sequence:
#
# PCOD9491045 Si02
#       6
#    16   8  16   8   8   8
#     4  10  22  40  64  93 130 167 208 265 321 379
#     4  11  25  40  63  96 129 167 215 267 318 383
#     4  12  24  42  66  94 129 168 218 264 322 387
#     4  11  25  45  67  89 128 176 214 264 328 388
#     4  10  20  40  64  91 126 167 207 258 325 388
#     4  10  22  42  66  93 130 171 219 270 329 392
#
# _framework density 18.466196
#
# number of rings (size 3 to 8) (size 9 to 14) (size 15 to 20)
#    0.000    1.250    2.500    3.000    3.500    2.500 
#    4.500    0.000    0.000    0.000    0.000    0.000 
#    0.000    0.000    0.000    0.000    0.000    0.000 
#
# Total GULP energy -178305.439077 kJ/mol
# GULP energy per Si atom -5572.044971 kJ/mol
# Density = 1.842417 g / cm^3
# Si number density = 18.466196 Si / 1000 Ang^3
#
#
#
# Elastic Constant Matrix: (Units=GPa)
#
#
# Indices 1 2 3 4 5 6 
#
# 1 139.2056 63.1109 54.2534 0.0000 0.0000 0.0000
# 2 63.1109 79.4836 47.4828 0.0000 0.0000 0.0000
# 3 54.2534 47.4828 205.5982 0.0000 0.0000 0.0000
# 4 0.0000 0.0000 0.0000 15.5110 0.0000 0.0000
# 5 0.0000 0.0000 0.0000 0.0000 39.1195 0.0000
# 6 0.0000 0.0000 0.0000 0.0000 0.0000 40.4404
#
#
#
# Elastic Compliance Matrix: (Units=1/GPa)
#
#
# Indices 1 2 3 4 5 6 
#
# 1 0.011422 -0.008432 -0.001067 0.000000 0.000000 0.000000
# 2 -0.008432 0.020820 -0.002583 0.000000 0.000000 0.000000
# 3 -0.001067 -0.002583 0.005742 0.000000 0.000000 0.000000
# 4 0.000000 0.000000 0.000000 0.064470 0.000000 0.000000
# 5 0.000000 0.000000 0.000000 0.000000 0.025563 0.000000
# 6 0.000000 0.000000 0.000000 0.000000 0.000000 0.024728
#
#
# Mechanical properties :
#
#
# Convention : Reuss Voigt Hill
#
# Bulk Modulus (GPa) = 72.36062 83.77573 78.06817
# Shear Modulus (GPa) = 27.54593 36.31019 31.92806
#
# Velocity S-wave (km/s) = 3.86644 4.43912 4.16264
# Velocity P-wave (km/s) = 7.69435 8.46994 8.09144
#
# Compressibility (1/GPa) = 0.01381967
#
# Stress axis : x y z
#
# Youngs Moduli (GPa) = 87.54903 48.03172 174.15758
#
# Poissons Ratio (x) = 0.40501 0.18577
# Poissons Ratio (y) = 0.73822 0.44988
# Poissons Ratio (z) = 0.09339 0.12408
#
# Static dielectric constant tensor:
#      x y z
#    x 1.705390 0.000000 0.000000 
#    y 0.000000 1.465730 0.000000 
#    z 0.000000 0.000000 1.590990 
# 
# From -- ./inp_files/5016.got.cif
#   From: 2010.05.17/outbox.cif.g08.bks.cpg/sg65_3_cif.got.tgz:5016.got - 2010.06.03 17:01:31.
