data_PCOD9491801
_publ_section_title
;
Structure prediction by ZEFSAII (Michael W. Deem and Ramdas Pophale) SiO2 
 PCOD9491801
Probable space group: C M M M
;
_chemical_formula_sum "Si O2"
_cell_formula_units_Z 72
_cell_length_a 18.541408
_cell_length_b 8.967621
_cell_length_c 23.725787
_cell_angle_alpha 90.000000
_cell_angle_beta 90.000000
_cell_angle_gamma 90.000000
_cell_volume 3944.941642
_symmetry_space_group_name_H-M "C M M M"
_symmetry_group_IT_number 65
_symmetry_cell_setting 'orthorhombic'
loop_
_space_group_symop_operation_xyz
x,y,z
-x,-y,z
x,-y,-z
-x,y,-z
-x,-y,-z
x,y,-z
-x,y,z
x,-y,z
1/2+x,1/2+y,z
1/2-x,1/2-y,z
1/2+x,1/2-y,-z
1/2-x,1/2+y,-z
1/2-x,1/2-y,-z
1/2+x,1/2+y,-z
1/2-x,1/2+y,z
1/2+x,1/2-y,z
loop_
_atom_site_type_symbol
_atom_site_label
_atom_site_fract_x
_atom_site_fract_y
_atom_site_fract_z
Si Si1 0.671094 0.822020 0.436560
Si Si2 0.670645 0.179616 0.104288
Si Si3 0.915764 0.678352 0.217761
Si Si4 0.913411 0.173664 0.664686
Si Si5 0.414157 0.678304 0.000000
O O1 0.644194 0.786083 0.500000
O O2 0.750000 0.750000 0.431089
O O3 0.621533 0.758955 0.387389
O O4 0.676775 0.000000 0.432024
O O5 0.750000 0.250000 0.101755
O O6 0.632629 0.215419 0.163898
O O7 0.622585 0.248157 0.054493
O O8 0.674310 0.000000 0.098569
O O9 0.912786 0.500000 0.226267
O O10 0.891580 0.758132 0.275035
O O11 0.000000 0.717736 0.206995
O O12 0.000000 0.186733 0.661544
O O13 0.893718 0.000000 0.662171
O O14 0.401877 0.500000 0.000000
O O15 0.500000 0.704893 0.000000
#
# Coordination Sequence:
#
# PCOD9491801 Si02
#       5
#    16  16  16  16   8
#     4  10  21  37  57  80 108 144 185 230 280 334
#     4  11  23  39  60  86 117 151 188 231 278 328
#     4   9  19  37  59  81 108 146 190 233 278 329
#     4  10  21  36  56  83 114 148 185 228 277 329
#     4  11  24  41  62  87 115 149 188 231 280 333
#
# _framework density 18.251221999999999
#
# number of rings (size 3 to 8) (size 9 to 14) (size 15 to 20)
#    0.000    1.889    0.000    3.333    0.000    7.556 
#    0.000    6.667    0.000    0.000    0.000    0.000 
#    0.000    0.000    0.000    0.000    0.000    0.000 
#
# Total GULP energy -201120.153816 kJ/mol
# GULP energy per Si atom -5586.670939 kJ/mol
# Density = 1.820968 g / cm^3
# Si number density = 18.251222 Si / 1000 Ang^3
#
#
#
# Elastic Constant Matrix: (Units=GPa)
#
#
# Indices 1 2 3 4 5 6 
#
# 1 85.2444 64.4574 86.1495 0.0000 0.0000 0.0000
# 2 64.4574 95.3457 100.5606 0.0000 0.0000 0.0000
# 3 86.1495 100.5606 193.6643 0.0000 0.0000 0.0000
# 4 0.0000 0.0000 0.0000 23.8566 0.0000 0.0000
# 5 0.0000 0.0000 0.0000 0.0000 61.5918 0.0000
# 6 0.0000 0.0000 0.0000 0.0000 0.0000 27.9696
#
#
#
# Elastic Compliance Matrix: (Units=1/GPa)
#
#
# Indices 1 2 3 4 5 6 
#
# 1 0.026384 -0.012066 -0.005471 0.000000 0.000000 0.000000
# 2 -0.012066 0.028704 -0.009537 0.000000 0.000000 0.000000
# 3 -0.005471 -0.009537 0.012550 0.000000 0.000000 0.000000
# 4 0.000000 0.000000 0.000000 0.041917 0.000000 0.000000
# 5 0.000000 0.000000 0.000000 0.000000 0.016236 0.000000
# 6 0.000000 0.000000 0.000000 0.000000 0.000000 0.035753
#
#
# Mechanical properties :
#
#
# Convention : Reuss Voigt Hill
#
# Bulk Modulus (GPa) = 74.13649 97.39884 85.76767
# Shear Modulus (GPa) = 22.70765 30.88938 26.79852
#
# Velocity S-wave (km/s) = 3.53111 4.11841 3.83602
# Velocity P-wave (km/s) = 7.57187 8.72333 8.16792
#
# Compressibility (1/GPa) = 0.01348863
#
# Stress axis : x y z
#
# Youngs Moduli (GPa) = 37.90139 34.83811 79.68331
#
# Poissons Ratio (x) = 0.42036 0.43598
# Poissons Ratio (y) = 0.45732 0.75996
# Poissons Ratio (z) = 0.20737 0.33226
#
# Static dielectric constant tensor:
#      x y z
#    x 1.602060 0.000000 0.000000 
#    y 0.000000 1.609500 0.000000 
#    z 0.000000 0.000000 1.603640 
# 
# From -- ./inp_files/64349.got.cif
#   From: 2010.05.17/outbox.cif.g08.bks.cpg/sg65_33_cif.got.tgz:64349.got - 2010.06.03 17:01:31.
