data_PCOD9491670
_publ_section_title
;
Structure prediction by ZEFSAII (Michael W. Deem and Ramdas Pophale) SiO2 
 PCOD9491670
Probable space group: C M M M
;
_chemical_formula_sum "Si O2"
_cell_formula_units_Z 88
_cell_length_a 15.673881
_cell_length_b 8.768751
_cell_length_c 31.404815
_cell_angle_alpha 90.000000
_cell_angle_beta 90.000000
_cell_angle_gamma 90.000000
_cell_volume 4316.289070
_symmetry_space_group_name_H-M "C M M M"
_symmetry_group_IT_number 65
_symmetry_cell_setting 'orthorhombic'
loop_
_space_group_symop_operation_xyz
x,y,z
-x,-y,z
x,-y,-z
-x,y,-z
-x,-y,-z
x,y,-z
-x,y,z
x,-y,z
1/2+x,1/2+y,z
1/2-x,1/2-y,z
1/2+x,1/2-y,-z
1/2-x,1/2+y,-z
1/2-x,1/2-y,-z
1/2+x,1/2+y,-z
1/2-x,1/2+y,z
1/2+x,1/2-y,z
loop_
_atom_site_type_symbol
_atom_site_label
_atom_site_fract_x
_atom_site_fract_y
_atom_site_fract_z
Si Si1 0.156051 0.180208 0.807176
Si Si2 0.000000 0.180746 0.949204
Si Si3 0.898601 0.668257 0.277358
Si Si4 0.845232 0.184884 0.545878
Si Si5 0.398153 0.326911 0.638399
Si Si6 0.846436 0.317359 0.104394
O O1 0.250000 0.250000 0.803492
O O2 0.113801 0.221252 0.762465
O O3 0.120059 0.261571 0.849275
O O4 0.157693 0.000000 0.814252
O O5 0.085127 0.255689 0.929384
O O6 0.000000 0.000000 0.939304
O O7 0.000000 0.199568 0.000000
O O8 0.863116 0.500000 0.267393
O O9 0.863336 0.730706 0.322048
O O10 0.000000 0.654147 0.282945
O O11 0.885313 0.229365 0.500000
O O12 0.750000 0.250000 0.545400
O O13 0.883495 0.235771 0.590899
O O14 0.845398 0.000000 0.546651
O O15 0.500000 0.336339 0.643576
O O16 0.363957 0.500000 0.640711
O O17 0.841307 0.500000 0.103348
O O18 0.750000 0.250000 0.098736
#
# Coordination Sequence:
#
# PCOD9491670 Si02
#       6
#    16   8  16  16  16  16
#     4  11  22  38  60  86 118 153 196 242 292 351
#     4  11  25  45  69  99 133 173 223 271 320 379
#     4  10  21  36  54  78 110 146 186 229 280 338
#     4   9  18  32  50  72  97 127 165 212 266 326
#     4   9  18  33  51  72 100 134 175 220 270 327
#     4  11  23  42  67  96 133 172 215 267 322 380
#
# _framework density 20.387885000000001
#
# number of rings (size 3 to 8) (size 9 to 14) (size 15 to 20)
#    0.000    1.909    0.000    5.182    1.273    4.000 
#    0.000    3.636    0.000    0.000    0.000    5.091 
#    0.000    0.000    0.000    0.000    0.000    0.000 
#
# Total GULP energy -245458.098617 kJ/mol
# GULP energy per Si atom -5578.593150 kJ/mol
# Density = 2.034148 g / cm^3
# Si number density = 20.387885 Si / 1000 Ang^3
#
#
#
# Elastic Constant Matrix: (Units=GPa)
#
#
# Indices 1 2 3 4 5 6 
#
# 1 43.9211 30.5552 40.0358 0.0000 0.0000 0.0000
# 2 30.5552 134.2054 70.2149 0.0000 0.0000 0.0000
# 3 40.0358 70.2149 148.1046 0.0000 0.0000 0.0000
# 4 0.0000 0.0000 0.0000 35.8148 0.0000 0.0000
# 5 0.0000 0.0000 0.0000 0.0000 50.8840 0.0000
# 6 0.0000 0.0000 0.0000 0.0000 0.0000 24.7752
#
#
#
# Elastic Compliance Matrix: (Units=1/GPa)
#
#
# Indices 1 2 3 4 5 6 
#
# 1 0.031475 -0.003610 -0.006797 0.000000 0.000000 0.000000
# 2 -0.003610 0.010323 -0.003918 0.000000 0.000000 0.000000
# 3 -0.006797 -0.003918 0.010447 0.000000 0.000000 0.000000
# 4 0.000000 0.000000 0.000000 0.027921 0.000000 0.000000
# 5 0.000000 0.000000 0.000000 0.000000 0.019653 0.000000
# 6 0.000000 0.000000 0.000000 0.000000 0.000000 0.040363
#
#
# Mechanical properties :
#
#
# Convention : Reuss Voigt Hill
#
# Bulk Modulus (GPa) = 42.38203 67.53808 54.96006
# Shear Modulus (GPa) = 28.29694 34.65649 31.47671
#
# Velocity S-wave (km/s) = 3.72953 4.12740 3.93350
# Velocity P-wave (km/s) = 6.27526 7.47746 6.90258
#
# Compressibility (1/GPa) = 0.02359491
#
# Stress axis : x y z
#
# Youngs Moduli (GPa) = 31.77104 96.86958 95.72185
#
# Poissons Ratio (x) = 0.34970 0.65062
# Poissons Ratio (y) = 0.11469 0.37506
# Poissons Ratio (z) = 0.21595 0.37956
#
# Static dielectric constant tensor:
#      x y z
#    x 1.700690 0.000000 0.000000 
#    y 0.000000 1.734500 0.000000 
#    z 0.000000 0.000000 1.765270 
# 
# From -- ./inp_files/77880.got.cif
#   From: 2010.05.17/outbox.cif.g08.bks.cpg/sg65_39_cif.got.tgz:77880.got - 2010.06.03 17:01:31.
