data_PCOD9491779
_publ_section_title
;
Structure prediction by ZEFSAII (Michael W. Deem and Ramdas Pophale) SiO2 
 PCOD9491779
Probable space group: C M M M
;
_chemical_formula_sum "Si O2"
_cell_formula_units_Z 88
_cell_length_a 22.528212
_cell_length_b 23.649483
_cell_length_c 8.202713
_cell_angle_alpha 90.000000
_cell_angle_beta 90.000000
_cell_angle_gamma 90.000000
_cell_volume 4370.246081
_symmetry_space_group_name_H-M "C M M M"
_symmetry_group_IT_number 65
_symmetry_cell_setting 'orthorhombic'
loop_
_space_group_symop_operation_xyz
x,y,z
-x,-y,z
x,-y,-z
-x,y,-z
-x,-y,-z
x,y,-z
-x,y,z
x,-y,z
1/2+x,1/2+y,z
1/2-x,1/2-y,z
1/2+x,1/2-y,-z
1/2-x,1/2+y,-z
1/2-x,1/2-y,-z
1/2+x,1/2+y,-z
1/2-x,1/2+y,z
1/2+x,1/2-y,z
loop_
_atom_site_type_symbol
_atom_site_label
_atom_site_fract_x
_atom_site_fract_y
_atom_site_fract_z
Si Si1 0.070464 0.436355 0.693085
Si Si2 0.000000 0.934646 0.805437
Si Si3 0.241698 0.937522 0.196760
Si Si4 0.161119 0.349305 0.810991
Si Si5 0.375882 0.618056 0.695376
Si Si6 0.684877 0.733276 0.691604
O O1 0.083470 0.429784 0.500000
O O2 0.087583 0.500000 0.741731
O O3 0.105922 0.390747 0.793422
O O4 0.000000 0.431059 0.712856
O O5 0.059565 0.901586 0.753588
O O6 0.000000 0.000000 0.742432
O O7 0.000000 0.937674 0.000000
O O8 0.283300 0.886181 0.256169
O O9 0.174517 0.925893 0.248857
O O10 0.260794 0.000000 0.253378
O O11 0.245497 0.936931 0.000000
O O12 0.150128 0.291535 0.716242
O O13 0.172120 0.335761 0.000000
O O14 0.377874 0.620036 0.500000
O O15 0.350552 0.678967 0.757566
O O16 0.693826 0.721820 0.500000
O O17 0.750000 0.750000 0.762082
#
# Coordination Sequence:
#
# PCOD9491779 Si02
#       6
#    16   8  16  16  16  16
#     4   9  19  37  59  82 112 153 197 240 291 348
#     4  11  25  45  67  91 125 165 200 247 314 377
#     4  10  21  36  55  84 122 157 189 234 297 360
#     4  11  22  35  57  87 119 154 196 242 292 354
#     4  11  23  40  64  91 118 154 204 254 297 351
#     4  10  21  40  62  85 118 155 193 240 295 351
#
# _framework density 20.136164999999998
#
# number of rings (size 3 to 8) (size 9 to 14) (size 15 to 20)
#    0.000    1.727    1.818    3.000    0.000    7.273 
#    1.636    0.909    0.000    0.000    0.000    0.000 
#    0.000    0.000    0.000    0.000    0.000    0.000 
#
# Total GULP energy -245648.656528 kJ/mol
# GULP energy per Si atom -5582.924012 kJ/mol
# Density = 2.009033 g / cm^3
# Si number density = 20.136165 Si / 1000 Ang^3
#
#
#
# Elastic Constant Matrix: (Units=GPa)
#
#
# Indices 1 2 3 4 5 6 
#
# 1 80.8150 52.3030 13.1654 0.0000 0.0000 0.0000
# 2 52.3030 130.0614 15.8061 0.0000 0.0000 0.0000
# 3 13.1654 15.8061 16.8137 0.0000 0.0000 0.0000
# 4 0.0000 0.0000 0.0000 18.9049 0.0000 0.0000
# 5 0.0000 0.0000 0.0000 0.0000 27.4831 0.0000
# 6 0.0000 0.0000 0.0000 0.0000 0.0000 23.1059
#
#
#
# Elastic Compliance Matrix: (Units=1/GPa)
#
#
# Indices 1 2 3 4 5 6 
#
# 1 0.017646 -0.006116 -0.008068 0.000000 0.000000 0.000000
# 2 -0.006116 0.010800 -0.005364 0.000000 0.000000 0.000000
# 3 -0.008068 -0.005364 0.070835 0.000000 0.000000 0.000000
# 4 0.000000 0.000000 0.000000 0.052896 0.000000 0.000000
# 5 0.000000 0.000000 0.000000 0.000000 0.036386 0.000000
# 6 0.000000 0.000000 0.000000 0.000000 0.000000 0.043279
#
#
# Mechanical properties :
#
#
# Convention : Reuss Voigt Hill
#
# Bulk Modulus (GPa) = 16.61519 43.35988 29.98754
# Shear Modulus (GPa) = 17.18210 23.65983 20.42097
#
# Velocity S-wave (km/s) = 2.92429 3.43153 3.18802
# Velocity P-wave (km/s) = 4.43523 6.10579 5.33629
#
# Compressibility (1/GPa) = 0.06018587
#
# Stress axis : x y z
#
# Youngs Moduli (GPa) = 56.66870 92.59282 14.11728
#
# Poissons Ratio (x) = 0.56628 0.11390
# Poissons Ratio (y) = 0.34658 0.07572
# Poissons Ratio (z) = 0.45721 0.49666
#
# Static dielectric constant tensor:
#      x y z
#    x 1.713890 0.000000 0.000000 
#    y 0.000000 1.739960 0.000000 
#    z 0.000000 0.000000 1.714100 
# 
# From -- ./inp_files/11808.got.cif
#   From: 2010.05.17/outbox.cif.g08.bks.cpg/sg65_6_cif.got.tgz:11808.got - 2010.06.03 17:01:31.
