data_PCOD9491699
_publ_section_title
;
Structure prediction by ZEFSAII (Michael W. Deem and Ramdas Pophale) SiO2 
 PCOD9491699
Probable space group: C M M M
;
_chemical_formula_sum "Si O2"
_cell_formula_units_Z 64
_cell_length_a 12.040078
_cell_length_b 27.954571
_cell_length_c 7.995542
_cell_angle_alpha 90.000000
_cell_angle_beta 90.000000
_cell_angle_gamma 90.000000
_cell_volume 2691.101270
_symmetry_space_group_name_H-M "C M M M"
_symmetry_group_IT_number 65
_symmetry_cell_setting 'orthorhombic'
loop_
_space_group_symop_operation_xyz
x,y,z
-x,-y,z
x,-y,-z
-x,y,-z
-x,-y,-z
x,y,-z
-x,y,z
x,-y,z
1/2+x,1/2+y,z
1/2-x,1/2-y,z
1/2+x,1/2-y,-z
1/2-x,1/2+y,-z
1/2-x,1/2-y,-z
1/2+x,1/2+y,-z
1/2-x,1/2+y,z
1/2+x,1/2-y,z
loop_
_atom_site_type_symbol
_atom_site_label
_atom_site_fract_x
_atom_site_fract_y
_atom_site_fract_z
Si Si1 0.000000 0.054666 0.702809
Si Si2 0.123618 0.242021 0.192824
Si Si3 0.133704 0.500000 0.687796
Si Si4 0.626066 0.895695 0.804996
Si Si5 0.844182 0.139754 0.307367
O O1 0.896892 0.089133 0.748157
O O2 0.000000 0.051009 0.500000
O O3 0.000000 0.000000 0.766792
O O4 0.250000 0.250000 0.266129
O O5 0.117718 0.184514 0.201015
O O6 0.000000 0.258743 0.259043
O O7 0.128324 0.259072 0.000000
O O8 0.182249 0.500000 0.500000
O O9 0.159682 0.451095 0.780118
O O10 0.000000 0.500000 0.674019
O O11 0.500000 0.890441 0.746258
O O12 0.712436 0.864336 0.706216
O O13 0.631390 0.883832 0.000000
O O14 0.875761 0.147758 0.500000
#
# Coordination Sequence:
#
# PCOD9491699 Si02
#       5
#     8  16   8  16  16
#     4   9  20  38  59  87 125 169 212 256 313 376
#     4  10  22  42  67  93 125 167 214 266 329 397
#     4   9  17  31  51  76 109 154 207 259 311 368
#     4  10  21  36  54  80 118 161 204 253 310 373
#     4  11  22  38  63  92 125 163 209 264 320 377
#
# _framework density 23.782086
#
# number of rings (size 3 to 8) (size 9 to 14) (size 15 to 20)
#    0.000    2.000    1.250    1.875    1.750    4.500 
#    0.000    2.500    0.000    3.000    0.000    0.000 
#    0.000    0.000    0.000    0.000    0.000    0.000 
#
# Total GULP energy -178496.924897 kJ/mol
# GULP energy per Si atom -5578.028903 kJ/mol
# Density = 2.372796 g / cm^3
# Si number density = 23.782086 Si / 1000 Ang^3
#
#
#
# Elastic Constant Matrix: (Units=GPa)
#
#
# Indices 1 2 3 4 5 6 
#
# 1 202.8035 29.3133 14.4466 0.0000 0.0000 0.0000
# 2 29.3133 88.9861 1.3750 0.0000 0.0000 0.0000
# 3 14.4466 1.3750 38.5539 0.0000 0.0000 0.0000
# 4 0.0000 0.0000 0.0000 -18.8407 0.0000 0.0000
# 5 0.0000 0.0000 0.0000 0.0000 -13.1319 0.0000
# 6 0.0000 0.0000 0.0000 0.0000 0.0000 9.4570
#
#
#
# Elastic Compliance Matrix: (Units=1/GPa)
#
#
# Indices 1 2 3 4 5 6 
#
# 1 0.005317 -0.001722 -0.001931 0.000000 0.000000 0.000000
# 2 -0.001722 0.011801 0.000224 0.000000 0.000000 0.000000
# 3 -0.001931 0.000224 0.026653 0.000000 0.000000 0.000000
# 4 0.000000 0.000000 0.000000 -0.053077 0.000000 0.000000
# 5 0.000000 0.000000 0.000000 0.000000 -0.076150 0.000000
# 6 0.000000 0.000000 0.000000 0.000000 0.000000 0.105742
#
#
# Mechanical properties :
#
#
# Convention : Reuss Voigt Hill
#
# Bulk Modulus (GPa) = 27.08933 46.73483 36.91208
# Shear Modulus (GPa) = 126.74569 14.51078 70.62823
#
# Velocity S-wave (km/s) = 7.30824 2.47281 5.45551
# Velocity P-wave (km/s) = 9.09006 5.27703 7.43223
#
# Compressibility (1/GPa) = 0.03691491
#
# Stress axis : x y z
#
# Youngs Moduli (GPa) = 188.06529 84.73562 37.51884
#
# Poissons Ratio (x) = 0.14589 0.07245
# Poissons Ratio (y) = 0.32380 -0.00841
# Poissons Ratio (z) = 0.36316 -0.01900
#
# Static dielectric constant tensor:
#      x y z
#    x 1.989070 0.000000 0.000000 
#    y 0.000000 1.888020 0.000000 
#    z 0.000000 0.000000 1.879010 
# 
# From -- ./inp_files/4889.got.cif
#   From: 2010.05.17/outbox.cif.g08.bks.cpg/sg65_3_cif.got.tgz:4889.got - 2010.06.03 17:01:31.
