data_PCOD9491837
_publ_section_title
;
Structure prediction by ZEFSAII (Michael W. Deem and Ramdas Pophale) SiO2 
 PCOD9491837
Probable space group: C M M M
;
_chemical_formula_sum "Si O2"
_cell_formula_units_Z 88
_cell_length_a 24.395188
_cell_length_b 21.698353
_cell_length_c 7.716537
_cell_angle_alpha 90.000000
_cell_angle_beta 90.000000
_cell_angle_gamma 90.000000
_cell_volume 4084.636205
_symmetry_space_group_name_H-M "C M M M"
_symmetry_group_IT_number 65
_symmetry_cell_setting 'orthorhombic'
loop_
_space_group_symop_operation_xyz
x,y,z
-x,-y,z
x,-y,-z
-x,y,-z
-x,-y,-z
x,y,-z
-x,y,z
x,-y,z
1/2+x,1/2+y,z
1/2-x,1/2-y,z
1/2+x,1/2-y,-z
1/2-x,1/2+y,-z
1/2-x,1/2-y,-z
1/2+x,1/2+y,-z
1/2-x,1/2+y,z
1/2+x,1/2-y,z
loop_
_atom_site_type_symbol
_atom_site_label
_atom_site_fract_x
_atom_site_fract_y
_atom_site_fract_z
Si Si1 0.934955 0.500000 0.712529
Si Si2 0.218533 0.066953 0.204836
Si Si3 0.500000 0.804471 0.798828
Si Si4 0.110743 0.369160 0.300072
Si Si5 0.500000 0.662724 0.289148
Si Si6 0.223597 0.686765 0.204709
Si Si7 0.408098 0.568377 0.709591
O O1 0.935570 0.500000 0.500000
O O2 0.903363 0.437804 0.770505
O O3 0.000000 0.500000 0.763712
O O4 0.247940 0.126044 0.282098
O O5 0.153490 0.074662 0.224302
O O6 0.233655 0.000000 0.279746
O O7 0.231491 0.064717 0.000000
O O8 0.445968 0.832470 0.713835
O O9 0.500000 0.731156 0.781078
O O10 0.500000 0.822256 0.000000
O O11 0.126029 0.377367 0.500000
O O12 0.159044 0.327612 0.220272
O O13 0.500000 0.665927 0.500000
O O14 0.552580 0.623004 0.233509
O O15 0.250000 0.750000 0.276108
O O16 0.236688 0.687717 0.000000
O O17 0.406636 0.569585 0.500000
O O18 0.428349 0.500000 0.760274
#
# Coordination Sequence:
#
# PCOD9491837 Si02
#       7
#     8  16   8  16   8  16  16
#     4   9  18  38  66  94 128 160 190 243 312 367
#     4   9  19  36  56  79 114 158 198 238 289 349
#     4  12  26  42  60  87 123 161 198 239 296 359
#     4  11  23  42  67  93 122 157 201 249 300 362
#     4  10  21  36  57  85 116 153 195 243 296 352
#     4  10  23  41  60  86 123 163 202 250 304 357
#     4   9  18  34  57  84 114 148 192 245 296 346
#
# _framework density 21.544146000000001
#
# number of rings (size 3 to 8) (size 9 to 14) (size 15 to 20)
#    0.000    2.091    0.909    1.636    3.818    2.909 
#    0.000    1.818    0.000    2.727    0.000    0.000 
#    0.000    0.000    0.000    0.000    0.000    0.000 
#
# Total GULP energy -245625.188190 kJ/mol
# GULP energy per Si atom -5582.390641 kJ/mol
# Density = 2.149511 g / cm^3
# Si number density = 21.544146 Si / 1000 Ang^3
#
#
#
# Elastic Constant Matrix: (Units=GPa)
#
#
# Indices 1 2 3 4 5 6 
#
# 1 94.8771 88.9830 -13.7951 0.0000 0.0000 0.0000
# 2 88.9830 198.2958 4.0451 0.0000 0.0000 0.0000
# 3 -13.7951 4.0451 37.3657 0.0000 0.0000 0.0000
# 4 0.0000 0.0000 0.0000 -9.1726 0.0000 0.0000
# 5 0.0000 0.0000 0.0000 0.0000 21.4270 0.0000
# 6 0.0000 0.0000 0.0000 0.0000 0.0000 30.9193
#
#
#
# Elastic Compliance Matrix: (Units=1/GPa)
#
#
# Indices 1 2 3 4 5 6 
#
# 1 0.020656 -0.009446 0.008649 0.000000 0.000000 0.000000
# 2 -0.009446 0.009373 -0.004502 0.000000 0.000000 0.000000
# 3 0.008649 -0.004502 0.030443 0.000000 0.000000 0.000000
# 4 0.000000 0.000000 0.000000 -0.109020 0.000000 0.000000
# 5 0.000000 0.000000 0.000000 0.000000 0.046670 0.000000
# 6 0.000000 0.000000 0.000000 0.000000 0.000000 0.032342
#
#
# Mechanical properties :
#
#
# Convention : Reuss Voigt Hill
#
# Bulk Modulus (GPa) = 20.05021 54.33383 37.19202
# Shear Modulus (GPa) = 86.67258 25.38844 56.03051
#
# Velocity S-wave (km/s) = 6.34961 3.43656 5.10527
# Velocity P-wave (km/s) = 7.94251 6.40477 7.21473
#
# Compressibility (1/GPa) = 0.04987479
#
# Stress axis : x y z
#
# Youngs Moduli (GPa) = 48.41110 106.68393 32.84832
#
# Poissons Ratio (x) = 1.00771 -0.28410
# Poissons Ratio (y) = 0.45728 0.14788
# Poissons Ratio (z) = -0.41870 0.48030
#
# Static dielectric constant tensor:
#      x y z
#    x 1.759210 0.000000 0.000000 
#    y 0.000000 1.800570 0.000000 
#    z 0.000000 0.000000 1.801600 
# 
# From -- ./inp_files/14038.got.cif
#   From: 2010.05.17/outbox.cif.g08.bks.cpg/sg65_8_cif.got.tgz:14038.got - 2010.06.03 17:01:31.
