data_PCOD9491092
_publ_section_title
;
Structure prediction by ZEFSAII (Michael W. Deem and Ramdas Pophale) SiO2 
 PCOD9491092
Probable space group: C M M M
;
_chemical_formula_sum "Si O2"
_cell_formula_units_Z 72
_cell_length_a 14.169947
_cell_length_b 8.041701
_cell_length_c 27.504048
_cell_angle_alpha 90.000000
_cell_angle_beta 90.000000
_cell_angle_gamma 90.000000
_cell_volume 3134.099388
_symmetry_space_group_name_H-M "C M M M"
_symmetry_group_IT_number 65
_symmetry_cell_setting 'orthorhombic'
loop_
_space_group_symop_operation_xyz
x,y,z
-x,-y,z
x,-y,-z
-x,y,-z
-x,-y,-z
x,y,-z
-x,y,z
x,-y,z
1/2+x,1/2+y,z
1/2-x,1/2-y,z
1/2+x,1/2-y,-z
1/2-x,1/2+y,-z
1/2-x,1/2-y,-z
1/2+x,1/2+y,-z
1/2-x,1/2+y,z
1/2+x,1/2-y,z
loop_
_atom_site_type_symbol
_atom_site_label
_atom_site_fract_x
_atom_site_fract_y
_atom_site_fract_z
Si Si1 0.385343 0.305495 0.946813
Si Si2 0.383819 0.500000 0.669731
Si Si3 0.142281 0.698039 0.500000
Si Si4 0.115145 0.681188 0.156926
Si Si5 0.608615 0.811338 0.391183
Si Si6 0.884411 0.000000 0.781682
O O1 0.500000 0.302264 0.946562
O O2 0.358896 0.500000 0.942507
O O3 0.355256 0.207891 0.899027
O O4 0.356094 0.241485 0.000000
O O5 0.500000 0.500000 0.668009
O O6 0.350595 0.666334 0.642182
O O7 0.354683 0.500000 0.725789
O O8 0.126731 0.500000 0.500000
O O9 0.250000 0.750000 0.500000
O O10 0.106884 0.751965 0.552841
O O11 0.144835 0.500000 0.174709
O O12 0.145764 0.835531 0.189462
O O13 0.000000 0.683929 0.157150
O O14 0.500000 0.828383 0.375911
O O15 0.649350 0.000000 0.389864
O O16 0.000000 0.000000 0.781972
#
# Coordination Sequence:
#
# PCOD9491092 Si02
#       6
#    16   8   8  16  16   8
#     4   8  12  18  27  37  52  77 109 148 198 254
#     4   9  18  29  46  64  80 113 148 181 219 257
#     4  10  21  33  50  76 102 126 149 183 224 266
#     4   9  15  21  30  42  59  85 114 154 208 257
#     4   9  18  33  50  69  94 123 155 185 218 265
#     4   9  16  26  34  48  70  88 122 167 209 253
#
# _framework density 22.973106000000001
#
# number of rings (size 3 to 8) (size 9 to 14) (size 15 to 20)
#    0.000    3.111    1.111    1.000    1.556    2.667 
#    0.000    8.333    0.000    0.000    0.000    0.000 
#    0.000    0.000    0.000    0.000    0.000    0.000 
#
# Total GULP energy -200972.712331 kJ/mol
# GULP energy per Si atom -5582.575343 kJ/mol
# Density = 2.292082 g / cm^3
# Si number density = 22.973106 Si / 1000 Ang^3
#
#
#
# Elastic Constant Matrix: (Units=GPa)
#
#
# Indices 1 2 3 4 5 6 
#
# 1 69.0560 15.4129 -4.9703 0.0000 0.0000 0.0000
# 2 15.4129 172.3431 126.9257 0.0000 0.0000 0.0000
# 3 -4.9703 126.9257 194.4763 0.0000 0.0000 0.0000
# 4 0.0000 0.0000 0.0000 -76.9994 0.0000 0.0000
# 5 0.0000 0.0000 0.0000 0.0000 -66.2419 0.0000
# 6 0.0000 0.0000 0.0000 0.0000 0.0000 15.5515
#
#
#
# Elastic Compliance Matrix: (Units=1/GPa)
#
#
# Indices 1 2 3 4 5 6 
#
# 1 0.015375 -0.003205 0.002485 0.000000 0.000000 0.000000
# 2 -0.003205 0.011841 -0.007810 0.000000 0.000000 0.000000
# 3 0.002485 -0.007810 0.010303 0.000000 0.000000 0.000000
# 4 0.000000 0.000000 0.000000 -0.012987 0.000000 0.000000
# 5 0.000000 0.000000 0.000000 0.000000 -0.015096 0.000000
# 6 0.000000 0.000000 0.000000 0.000000 0.000000 0.064302
#
#
# Mechanical properties :
#
#
# Convention : Reuss Voigt Hill
#
# Bulk Modulus (GPa) = 48.87978 78.95689 63.91834
# Shear Modulus (GPa) = 51.22067 -5.63748 22.79159
#
# Velocity S-wave (km/s) = 4.72698 -1.56821 3.15318
# Velocity P-wave (km/s) = 7.14952 5.58255 6.41406
#
# Compressibility (1/GPa) = 0.02045836
#
# Stress axis : x y z
#
# Youngs Moduli (GPa) = 65.04009 84.45481 97.06305
#
# Poissons Ratio (x) = 0.27067 -0.24116
# Poissons Ratio (y) = 0.20844 0.75804
# Poissons Ratio (z) = -0.16160 0.65957
#
# Static dielectric constant tensor:
#      x y z
#    x 1.907420 0.000000 0.000000 
#    y 0.000000 1.842910 0.000000 
#    z 0.000000 0.000000 1.816010 
# 
# From -- ./inp_files/74634.got.cif
#   From: 2010.05.17/outbox.cif.g08.bks.cpg/sg65_38_cif.got.tgz:74634.got - 2010.06.03 17:01:31.
