data_PCOD9491945
_publ_section_title
;
Structure prediction by ZEFSAII (Michael W. Deem and Ramdas Pophale) SiO2 
 PCOD9491945
Probable space group: C M M M
;
_chemical_formula_sum "Si O2"
_cell_formula_units_Z 104
_cell_length_a 28.015011
_cell_length_b 24.391815
_cell_length_c 7.679253
_cell_angle_alpha 90.000000
_cell_angle_beta 90.000000
_cell_angle_gamma 90.000000
_cell_volume 5247.517443
_symmetry_space_group_name_H-M "C M M M"
_symmetry_group_IT_number 65
_symmetry_cell_setting 'orthorhombic'
loop_
_space_group_symop_operation_xyz
x,y,z
-x,-y,z
x,-y,-z
-x,y,-z
-x,-y,-z
x,y,-z
-x,y,z
x,-y,z
1/2+x,1/2+y,z
1/2-x,1/2-y,z
1/2+x,1/2-y,-z
1/2-x,1/2+y,-z
1/2-x,1/2-y,-z
1/2+x,1/2+y,-z
1/2-x,1/2+y,z
1/2+x,1/2-y,z
loop_
_atom_site_type_symbol
_atom_site_label
_atom_site_fract_x
_atom_site_fract_y
_atom_site_fract_z
Si Si1 0.446708 0.187029 0.290620
Si Si2 0.391085 0.709949 0.296716
Si Si3 0.706511 0.500000 0.286532
Si Si4 0.146803 0.617830 0.793892
Si Si5 0.201491 0.278878 0.211970
Si Si6 0.553520 0.500000 0.288095
Si Si7 0.370238 0.410951 0.712612
Si Si8 0.314698 0.000000 0.295860
O O1 0.448602 0.191176 0.500000
O O2 0.500000 0.172772 0.228167
O O3 0.429758 0.246988 0.222984
O O4 0.404610 0.143423 0.254891
O O5 0.403680 0.701491 0.500000
O O6 0.342090 0.743104 0.280870
O O7 0.379737 0.650206 0.221373
O O8 0.706003 0.500000 0.500000
O O9 0.676420 0.445813 0.232472
O O10 0.760772 0.500000 0.220187
O O11 0.188584 0.659287 0.728979
O O12 0.156930 0.555477 0.745225
O O13 0.148820 0.620466 0.000000
O O14 0.250000 0.250000 0.270385
O O15 0.201241 0.277828 0.000000
O O16 0.500000 0.500000 0.222382
O O17 0.552036 0.500000 0.500000
O O18 0.584333 0.447485 0.237908
O O19 0.367469 0.408787 0.500000
O O20 0.307322 0.000000 0.500000
#
# Coordination Sequence:
#
# PCOD9491945 Si02
#       8
#    16  16   8  16  16   8  16   8
#     4   9  18  34  54  77 106 135 165 208 262 312
#     4   9  17  28  47  74 100 129 166 208 249 296
#     4   8  16  28  42  64  96 136 172 210 253 294
#     4  10  21  37  55  77 105 135 172 214 255 305
#     4   9  19  34  50  70 100 136 167 203 250 297
#     4   8  13  21  35  57  91 134 169 202 248 293
#     4   8  14  25  39  62  98 132 169 210 246 290
#     4  11  22  35  55  78 104 136 174 214 261 308
#
# _framework density 19.818894
#
# number of rings (size 3 to 8) (size 9 to 14) (size 15 to 20)
#    0.000    3.000    0.000    1.615    2.154    1.846 
#    0.000    3.462    0.000    2.308    0.000    1.615 
#    0.000    0.615    0.000    0.000    0.000    0.000 
#
# Total GULP energy -289688.917010 kJ/mol
# GULP energy per Si atom -5570.940712 kJ/mol
# Density = 1.977379 g / cm^3
# Si number density = 19.818894 Si / 1000 Ang^3
#
#
#
# Elastic Constant Matrix: (Units=GPa)
#
#
# Indices 1 2 3 4 5 6 
#
# 1 130.6813 85.3273 7.5420 0.0000 0.0000 0.0000
# 2 85.3273 195.8275 7.8785 0.0000 0.0000 0.0000
# 3 7.5420 7.8785 34.7351 0.0000 0.0000 0.0000
# 4 0.0000 0.0000 0.0000 -6.0798 0.0000 0.0000
# 5 0.0000 0.0000 0.0000 0.0000 -2.5663 0.0000
# 6 0.0000 0.0000 0.0000 0.0000 0.0000 12.2223
#
#
#
# Elastic Compliance Matrix: (Units=1/GPa)
#
#
# Indices 1 2 3 4 5 6 
#
# 1 0.010751 -0.004633 -0.001284 0.000000 0.000000 0.000000
# 2 -0.004633 0.007150 -0.000616 0.000000 0.000000 0.000000
# 3 -0.001284 -0.000616 0.029208 0.000000 0.000000 0.000000
# 4 0.000000 0.000000 0.000000 -0.164480 0.000000 0.000000
# 5 0.000000 0.000000 0.000000 0.000000 -0.389672 0.000000
# 6 0.000000 0.000000 0.000000 0.000000 0.000000 0.081818
#
#
# Mechanical properties :
#
#
# Convention : Reuss Voigt Hill
#
# Bulk Modulus (GPa) = 29.37350 62.52662 45.95006
# Shear Modulus (GPa) = -12.47467 18.08165 2.80349
#
# Velocity S-wave (km/s) = -2.51157 3.02378 1.19064
# Velocity P-wave (km/s) = 2.53820 6.61880 5.01253
#
# Compressibility (1/GPa) = 0.03404429
#
# Stress axis : x y z
#
# Youngs Moduli (GPa) = 93.01127 139.85927 34.23758
#
# Poissons Ratio (x) = 0.64797 0.04395
# Poissons Ratio (y) = 0.43092 0.02108
# Poissons Ratio (z) = 0.11939 0.08612
#
# Static dielectric constant tensor:
#      x y z
#    x 1.711500 0.000000 0.000000 
#    y 0.000000 2.041580 0.000000 
#    z 0.000000 0.000000 1.733140 
# 
# From -- ./inp_files/16839.got.cif
#   From: 2010.05.17/outbox.cif.g08.bks.cpg/sg65_9_cif.got.tgz:16839.got - 2010.06.03 17:01:31.
