data_PCOD9491387
_publ_section_title
;
Structure prediction by ZEFSAII (Michael W. Deem and Ramdas Pophale) SiO2 
 PCOD9491387
Probable space group: C M M M
;
_chemical_formula_sum "Si O2"
_cell_formula_units_Z 80
_cell_length_a 13.452579
_cell_length_b 27.052617
_cell_length_c 12.874723
_cell_angle_alpha 90.000000
_cell_angle_beta 90.000000
_cell_angle_gamma 90.000000
_cell_volume 4685.465334
_symmetry_space_group_name_H-M "C M M M"
_symmetry_group_IT_number 65
_symmetry_cell_setting 'orthorhombic'
loop_
_space_group_symop_operation_xyz
x,y,z
-x,-y,z
x,-y,-z
-x,y,-z
-x,-y,-z
x,y,-z
-x,y,z
x,-y,z
1/2+x,1/2+y,z
1/2-x,1/2-y,z
1/2+x,1/2-y,-z
1/2-x,1/2+y,-z
1/2-x,1/2-y,-z
1/2+x,1/2+y,-z
1/2-x,1/2+y,z
1/2+x,1/2-y,z
loop_
_atom_site_type_symbol
_atom_site_label
_atom_site_fract_x
_atom_site_fract_y
_atom_site_fract_z
Si Si1 0.382891 0.856317 0.194003
Si Si2 0.117954 0.106507 0.000000
Si Si3 0.272952 0.806862 0.378615
Si Si4 0.773821 0.057655 0.805962
Si Si5 0.116713 0.892640 0.378953
Si Si6 0.774343 0.692407 0.000000
O O1 0.500000 0.862039 0.182277
O O2 0.354019 0.829531 0.301608
O O3 0.324711 0.908499 0.191386
O O4 0.336641 0.823821 0.101036
O O5 0.156516 0.077100 0.899141
O O6 0.174412 0.159155 0.000000
O O7 0.000000 0.111597 0.000000
O O8 0.302028 0.809840 0.500000
O O9 0.250000 0.750000 0.353805
O O10 0.174636 0.840717 0.364806
O O11 0.830949 0.069481 0.698838
O O12 0.753021 0.000000 0.817163
O O13 0.127698 0.906819 0.500000
O O14 0.000000 0.887849 0.356070
O O15 0.750000 0.750000 0.000000
#
# Coordination Sequence:
#
# PCOD9491387 Si02
#       6
#    16   8  16  16  16   8
#     4  10  21  36  54  77 104 135 173 213 250 295
#     4  10  21  35  53  79 106 131 164 208 255 304
#     4   9  18  33  52  76 106 137 170 209 253 302
#     4  10  21  36  53  74 101 133 170 213 258 303
#     4   9  18  32  50  74 103 133 168 211 257 307
#     4  10  21  38  56  78 108 138 169 204 246 298
#
# _framework density 17.074076999999999
#
# number of rings (size 3 to 8) (size 9 to 14) (size 15 to 20)
#    0.000    2.400    0.000    1.800    0.000    4.800 
#    0.000    3.000    0.000    3.600    0.000    5.600 
#    0.000    0.000    0.000    0.000    0.000    0.000 
#
# Total GULP energy -223201.788888 kJ/mol
# GULP energy per Si atom -5580.044722 kJ/mol
# Density = 1.703522 g / cm^3
# Si number density = 17.074077 Si / 1000 Ang^3
#
#
#
# Elastic Constant Matrix: (Units=GPa)
#
#
# Indices 1 2 3 4 5 6 
#
# 1 157.2804 71.9231 65.2945 0.0000 0.0000 0.0000
# 2 71.9231 150.6835 63.2431 0.0000 0.0000 0.0000
# 3 65.2945 63.2431 76.9709 0.0000 0.0000 0.0000
# 4 0.0000 0.0000 0.0000 1.5035 0.0000 0.0000
# 5 0.0000 0.0000 0.0000 0.0000 7.9629 0.0000
# 6 0.0000 0.0000 0.0000 0.0000 0.0000 3.4141
#
#
#
# Elastic Compliance Matrix: (Units=1/GPa)
#
#
# Indices 1 2 3 4 5 6 
#
# 1 0.010151 -0.001879 -0.007067 0.000000 0.000000 0.000000
# 2 -0.001879 0.010478 -0.007015 0.000000 0.000000 0.000000
# 3 -0.007067 -0.007015 0.024751 0.000000 0.000000 0.000000
# 4 0.000000 0.000000 0.000000 0.665103 0.000000 0.000000
# 5 0.000000 0.000000 0.000000 0.000000 0.125583 0.000000
# 6 0.000000 0.000000 0.000000 0.000000 0.000000 0.292901
#
#
# Mechanical properties :
#
#
# Convention : Reuss Voigt Hill
#
# Bulk Modulus (GPa) = 74.31004 87.31734 80.81369
# Shear Modulus (GPa) = 4.29046 14.87437 9.58242
#
# Velocity S-wave (km/s) = 1.58692 2.95476 2.37159
# Velocity P-wave (km/s) = 6.85378 7.93045 7.41170
#
# Compressibility (1/GPa) = 0.01345713
#
# Stress axis : x y z
#
# Youngs Moduli (GPa) = 98.50836 95.44238 40.40241
#
# Poissons Ratio (x) = 0.17935 0.28554
# Poissons Ratio (y) = 0.18511 0.28342
# Poissons Ratio (z) = 0.69621 0.66951
#
# Static dielectric constant tensor:
#      x y z
#    x 1.541940 0.000000 0.000000 
#    y 0.000000 1.550160 0.000000 
#    z 0.000000 0.000000 1.592350 
# 
# From -- ./inp_files/38342.got.cif
#   From: 2010.05.17/outbox.cif.g08.bks.cpg/sg65_20_cif.got.tgz:38342.got - 2010.06.03 17:01:31.
