data_PCOD9491017
_publ_section_title
;
Structure prediction by ZEFSAII (Michael W. Deem and Ramdas Pophale) SiO2 
 PCOD9491017
Probable space group: C M M M
;
_chemical_formula_sum "Si O2"
_cell_formula_units_Z 72
_cell_length_a 18.973593
_cell_length_b 7.368521
_cell_length_c 26.450204
_cell_angle_alpha 90.000000
_cell_angle_beta 90.000000
_cell_angle_gamma 90.000000
_cell_volume 3697.932094
_symmetry_space_group_name_H-M "C M M M"
_symmetry_group_IT_number 65
_symmetry_cell_setting 'orthorhombic'
loop_
_space_group_symop_operation_xyz
x,y,z
-x,-y,z
x,-y,-z
-x,y,-z
-x,-y,-z
x,y,-z
-x,y,z
x,-y,z
1/2+x,1/2+y,z
1/2-x,1/2-y,z
1/2+x,1/2-y,-z
1/2-x,1/2+y,-z
1/2-x,1/2-y,-z
1/2+x,1/2+y,-z
1/2-x,1/2+y,z
1/2+x,1/2-y,z
loop_
_atom_site_type_symbol
_atom_site_label
_atom_site_fract_x
_atom_site_fract_y
_atom_site_fract_z
Si Si1 0.916418 0.500000 0.439874
Si Si2 0.082189 0.778414 0.835803
Si Si3 0.166380 0.215293 0.374659
Si Si4 0.415815 0.280973 0.054351
Si Si5 0.832555 0.783925 0.260729
O O1 0.905476 0.500000 0.500000
O O2 0.879138 0.672770 0.414218
O O3 0.000000 0.500000 0.429972
O O4 0.110771 0.718091 0.890873
O O5 0.123942 0.713043 0.786863
O O6 0.000000 0.728677 0.832044
O O7 0.084733 0.000000 0.836083
O O8 0.250000 0.250000 0.381938
O O9 0.149150 0.279694 0.317282
O O10 0.154134 0.000000 0.378427
O O11 0.500000 0.243836 0.054661
O O12 0.408776 0.500000 0.053902
O O13 0.387716 0.214594 0.000000
O O14 0.750000 0.750000 0.252854
O O15 0.843458 0.000000 0.262071
#
# Coordination Sequence:
#
# PCOD9491017 Si02
#       5
#     8  16  16  16  16
#     4  11  26  44  62  92 129 157 188 238 295 340
#     4   8  13  22  37  61  90 119 159 207 255 311
#     4  10  20  39  64  89 116 154 203 243 281 341
#     4   7   9  14  27  49  79 114 151 197 251 301
#     4   9  18  30  50  73  99 133 169 212 263 315
#
# _framework density 19.47034
#
# number of rings (size 3 to 8) (size 9 to 14) (size 15 to 20)
#    0.000    3.222    1.111    2.000    1.556    2.222 
#    0.000    3.333    0.000    0.667    0.000    0.000 
#    0.000    0.000    0.000    5.556    0.000    4.444 
#
# Total GULP energy -200594.746409 kJ/mol
# GULP energy per Si atom -5572.076289 kJ/mol
# Density = 1.942602 g / cm^3
# Si number density = 19.470340 Si / 1000 Ang^3
#
#
#
# Elastic Constant Matrix: (Units=GPa)
#
#
# Indices 1 2 3 4 5 6 
#
# 1 58.2343 21.5375 98.8287 0.0000 0.0000 0.0000
# 2 21.5375 95.1676 48.2356 0.0000 0.0000 0.0000
# 3 98.8287 48.2356 217.3367 0.0000 0.0000 0.0000
# 4 0.0000 0.0000 0.0000 703.3670 0.0000 0.0000
# 5 0.0000 0.0000 0.0000 0.0000 -20.3261 0.0000
# 6 0.0000 0.0000 0.0000 0.0000 0.0000 7.4369
#
#
#
# Elastic Compliance Matrix: (Units=1/GPa)
#
#
# Indices 1 2 3 4 5 6 
#
# 1 0.075231 0.000353 -0.034288 0.000000 0.000000 0.000000
# 2 0.000353 0.011841 -0.002789 0.000000 0.000000 0.000000
# 3 -0.034288 -0.002789 0.020812 0.000000 0.000000 0.000000
# 4 0.000000 0.000000 0.000000 0.001422 0.000000 0.000000
# 5 0.000000 0.000000 0.000000 0.000000 -0.049198 0.000000
# 6 0.000000 0.000000 0.000000 0.000000 0.000000 0.134465
#
#
# Mechanical properties :
#
#
# Convention : Reuss Voigt Hill
#
# Bulk Modulus (GPa) = 29.03842 78.66025 53.84933
# Shear Modulus (GPa) = 17.88922 151.57135 84.73029
#
# Velocity S-wave (km/s) = 3.03445 8.83268 6.60395
# Velocity P-wave (km/s) = 5.21764 12.02121 9.26642
#
# Compressibility (1/GPa) = 0.03443714
#
# Stress axis : x y z
#
# Youngs Moduli (GPa) = 13.29241 84.45038 48.05000
#
# Poissons Ratio (x) = -0.02982 1.64753
# Poissons Ratio (y) = -0.00469 0.13399
# Poissons Ratio (z) = 0.45577 0.23550
#
# Static dielectric constant tensor:
#      x y z
#    x 1.625830 0.000000 0.000000 
#    y 0.000000 1.785450 0.000000 
#    z 0.000000 0.000000 1.722980 
# 
# From -- ./inp_files/75277.got.cif
#   From: 2010.05.17/outbox.cif.g08.bks.cpg/sg65_38_cif.got.tgz:75277.got - 2010.06.03 17:01:31.
