data_PCOD9491555
_publ_section_title
;
Structure prediction by ZEFSAII (Michael W. Deem and Ramdas Pophale) SiO2 
 PCOD9491555
Probable space group: C M M M
;
_chemical_formula_sum "Si O2"
_cell_formula_units_Z 64
_cell_length_a 8.559028
_cell_length_b 42.122520
_cell_length_c 10.065305
_cell_angle_alpha 90.000000
_cell_angle_beta 90.000000
_cell_angle_gamma 90.000000
_cell_volume 3628.822551
_symmetry_space_group_name_H-M "C M M M"
_symmetry_group_IT_number 65
_symmetry_cell_setting 'orthorhombic'
loop_
_space_group_symop_operation_xyz
x,y,z
-x,-y,z
x,-y,-z
-x,y,-z
-x,-y,-z
x,y,-z
-x,y,z
x,-y,z
1/2+x,1/2+y,z
1/2-x,1/2-y,z
1/2+x,1/2-y,-z
1/2-x,1/2+y,-z
1/2-x,1/2-y,-z
1/2+x,1/2+y,-z
1/2-x,1/2+y,z
1/2+x,1/2-y,z
loop_
_atom_site_type_symbol
_atom_site_label
_atom_site_fract_x
_atom_site_fract_y
_atom_site_fract_z
Si Si1 0.312972 0.838943 0.653716
Si Si2 0.811105 0.908229 0.346388
Si Si3 0.312897 0.715234 0.846553
Si Si4 0.309515 0.535823 0.152990
O O1 0.262735 0.833738 0.500000
O O2 0.500000 0.838685 0.657269
O O3 0.252801 0.873819 0.693716
O O4 0.248864 0.811844 0.749516
O O5 0.765729 0.913868 0.500000
O O6 0.756372 0.936638 0.251641
O O7 0.000000 0.907095 0.341083
O O8 0.500000 0.715716 0.842422
O O9 0.250000 0.750000 0.808544
O O10 0.263860 0.709348 0.000000
O O11 0.500000 0.535958 0.155507
O O12 0.260561 0.500000 0.190323
O O13 0.263165 0.541621 0.000000
#
# Coordination Sequence:
#
# PCOD9491555 Si02
#       4
#    16  16  16  16
#     4  10  21  36  53  74 102 136 172 209 250 297
#     4   9  17  29  46  69  96 125 160 204 250 295
#     4  10  21  37  57  80 105 133 166 205 249 297
#     4   8  14  25  42  66  95 124 156 198 247 297
#
# _framework density 17.636574
#
# number of rings (size 3 to 8) (size 9 to 14) (size 15 to 20)
#    0.000    2.750    0.000    2.250    0.000    5.000 
#    0.000    5.000    0.000    0.750    0.000    5.250 
#    0.000    0.000    0.000    0.000    0.000    0.000 
#
# Total GULP energy -178457.905141 kJ/mol
# GULP energy per Si atom -5576.809536 kJ/mol
# Density = 1.759643 g / cm^3
# Si number density = 17.636574 Si / 1000 Ang^3
#
#
#
# Elastic Constant Matrix: (Units=GPa)
#
#
# Indices 1 2 3 4 5 6 
#
# 1 17.1734 33.9485 24.2888 0.0000 0.0000 0.0000
# 2 33.9485 210.4336 130.1190 0.0000 0.0000 0.0000
# 3 24.2888 130.1190 100.4333 0.0000 0.0000 0.0000
# 4 0.0000 0.0000 0.0000 44.5307 0.0000 0.0000
# 5 0.0000 0.0000 0.0000 0.0000 17.5689 0.0000
# 6 0.0000 0.0000 0.0000 0.0000 0.0000 21.2612
#
#
#
# Elastic Compliance Matrix: (Units=1/GPa)
#
#
# Indices 1 2 3 4 5 6 
#
# 1 0.089667 -0.005314 -0.014800 0.000000 0.000000 0.000000
# 2 -0.005314 0.024207 -0.030077 0.000000 0.000000 0.000000
# 3 -0.014800 -0.030077 0.052504 0.000000 0.000000 0.000000
# 4 0.000000 0.000000 0.000000 0.022456 0.000000 0.000000
# 5 0.000000 0.000000 0.000000 0.000000 0.056919 0.000000
# 6 0.000000 0.000000 0.000000 0.000000 0.000000 0.047034
#
#
# Mechanical properties :
#
#
# Convention : Reuss Voigt Hill
#
# Bulk Modulus (GPa) = 15.15272 78.30590 46.72931
# Shear Modulus (GPa) = 12.04328 25.98440 19.01384
#
# Velocity S-wave (km/s) = 2.61599 3.84256 3.28699
# Velocity P-wave (km/s) = 4.21128 8.01143 6.39992
#
# Compressibility (1/GPa) = 0.06599473
#
# Stress axis : x y z
#
# Youngs Moduli (GPa) = 11.15234 41.30981 19.04629
#
# Poissons Ratio (x) = 0.21952 0.28189
# Poissons Ratio (y) = 0.05926 0.57286
# Poissons Ratio (z) = 0.16506 1.24249
#
# Static dielectric constant tensor:
#      x y z
#    x 1.606060 0.000000 0.000000 
#    y 0.000000 1.571450 0.000000 
#    z 0.000000 0.000000 1.597930 
# 
# From -- ./inp_files/20912.got.cif
#   From: 2010.05.17/outbox.cif.g08.bks.cpg/sg65_11_cif.got.tgz:20912.got - 2010.06.03 17:01:31.
