data_PCOD9491372
_publ_section_title
;
Structure prediction by ZEFSAII (Michael W. Deem and Ramdas Pophale) SiO2 
 PCOD9491372
Probable space group: C M M M
;
_chemical_formula_sum "Si O2"
_cell_formula_units_Z 88
_cell_length_a 21.624288
_cell_length_b 8.086094
_cell_length_c 24.869793
_cell_angle_alpha 90.000000
_cell_angle_beta 90.000000
_cell_angle_gamma 90.000000
_cell_volume 4348.633158
_symmetry_space_group_name_H-M "C M M M"
_symmetry_group_IT_number 65
_symmetry_cell_setting 'orthorhombic'
loop_
_space_group_symop_operation_xyz
x,y,z
-x,-y,z
x,-y,-z
-x,y,-z
-x,-y,-z
x,y,-z
-x,y,z
x,-y,z
1/2+x,1/2+y,z
1/2-x,1/2-y,z
1/2+x,1/2-y,-z
1/2-x,1/2+y,-z
1/2-x,1/2-y,-z
1/2+x,1/2+y,-z
1/2-x,1/2+y,z
1/2+x,1/2-y,z
loop_
_atom_site_type_symbol
_atom_site_label
_atom_site_fract_x
_atom_site_fract_y
_atom_site_fract_z
Si Si1 0.931247 0.298132 0.759386
Si Si2 0.135115 0.303699 0.939641
Si Si3 0.816284 0.300261 0.830145
Si Si4 0.000000 0.811731 0.934850
Si Si5 0.317685 0.696802 0.561161
Si Si6 0.931324 0.300859 0.635013
O O1 0.930866 0.500000 0.760510
O O2 0.874450 0.240232 0.795460
O O3 0.923274 0.247908 0.697137
O O4 0.000000 0.246038 0.777721
O O5 0.145237 0.500000 0.943411
O O6 0.176461 0.236145 0.891390
O O7 0.064006 0.276813 0.921291
O O8 0.143803 0.233451 0.000000
O O9 0.819270 0.500000 0.831522
O O10 0.750000 0.250000 0.807755
O O11 0.000000 0.000000 0.915247
O O12 0.000000 0.815415 0.000000
O O13 0.324182 0.763947 0.500000
O O14 0.317644 0.500000 0.558357
O O15 0.250000 0.750000 0.581735
O O16 0.374844 0.748438 0.597915
O O17 0.932409 0.500000 0.635330
O O18 0.000000 0.243931 0.616996
#
# Coordination Sequence:
#
# PCOD9491372 Si02
#       6
#    16  16  16   8  16  16
#     4   8  16  33  56  78 100 133 177 217 258 311
#     4   9  18  32  50  73 100 133 173 210 250 309
#     4  10  21  35  53  75 103 137 172 214 261 310
#     4   9  17  29  47  73 101 127 157 201 254 299
#     4  10  21  36  54  78 110 147 184 221 262 311
#     4   9  18  34  56  81 108 139 177 220 265 316
#
# _framework density 20.236243000000002
#
# number of rings (size 3 to 8) (size 9 to 14) (size 15 to 20)
#    0.000    2.818    0.000    1.909    1.273    4.727 
#    0.000    4.545    0.000    1.091    0.000    0.000 
#    0.000    0.000    0.000    0.000    0.000    0.000 
#
# Total GULP energy -245381.326760 kJ/mol
# GULP energy per Si atom -5576.848335 kJ/mol
# Density = 2.019018 g / cm^3
# Si number density = 20.236243 Si / 1000 Ang^3
#
#
#
# Elastic Constant Matrix: (Units=GPa)
#
#
# Indices 1 2 3 4 5 6 
#
# 1 192.9420 8.4225 98.0618 0.0000 0.0000 0.0000
# 2 8.4225 15.1527 12.6787 0.0000 0.0000 0.0000
# 3 98.0618 12.6787 83.5897 0.0000 0.0000 0.0000
# 4 0.0000 0.0000 0.0000 6.1326 0.0000 0.0000
# 5 0.0000 0.0000 0.0000 0.0000 39.4416 0.0000
# 6 0.0000 0.0000 0.0000 0.0000 0.0000 24.5010
#
#
#
# Elastic Compliance Matrix: (Units=1/GPa)
#
#
# Indices 1 2 3 4 5 6 
#
# 1 0.013377 0.006523 -0.016682 0.000000 0.000000 0.000000
# 2 0.006523 0.078769 -0.019600 0.000000 0.000000 0.000000
# 3 -0.016682 -0.019600 0.034506 0.000000 0.000000 0.000000
# 4 0.000000 0.000000 0.000000 0.163062 0.000000 0.000000
# 5 0.000000 0.000000 0.000000 0.000000 0.025354 0.000000
# 6 0.000000 0.000000 0.000000 0.000000 0.000000 0.040815
#
#
# Mechanical properties :
#
#
# Convention : Reuss Voigt Hill
#
# Bulk Modulus (GPa) = 14.89552 58.89005 36.89278
# Shear Modulus (GPa) = 11.42131 25.51649 18.46890
#
# Velocity S-wave (km/s) = 2.37828 3.55481 3.02431
# Velocity P-wave (km/s) = 3.86244 6.78331 5.51959
#
# Compressibility (1/GPa) = 0.06713428
#
# Stress axis : x y z
#
# Youngs Moduli (GPa) = 74.75668 12.69534 28.98019
#
# Poissons Ratio (x) = -0.08281 0.48345
# Poissons Ratio (y) = -0.48764 0.56801
# Poissons Ratio (z) = 1.24710 0.24883
#
# Static dielectric constant tensor:
#      x y z
#    x 1.717050 0.000000 0.000000 
#    y 0.000000 1.727460 0.000000 
#    z 0.000000 0.000000 1.739760 
# 
# From -- ./inp_files/70955.got.cif
#   From: 2010.05.17/outbox.cif.g08.bks.cpg/sg65_36_cif.got.tgz:70955.got - 2010.06.03 17:01:31.
