data_PCOD9491055
_publ_section_title
;
Structure prediction by ZEFSAII (Michael W. Deem and Ramdas Pophale) SiO2 
 PCOD9491055
Probable space group: C M M M
;
_chemical_formula_sum "Si O2"
_cell_formula_units_Z 64
_cell_length_a 11.933440
_cell_length_b 15.809141
_cell_length_c 16.595088
_cell_angle_alpha 90.000000
_cell_angle_beta 90.000000
_cell_angle_gamma 90.000000
_cell_volume 3130.786745
_symmetry_space_group_name_H-M "C M M M"
_symmetry_group_IT_number 65
_symmetry_cell_setting 'orthorhombic'
loop_
_space_group_symop_operation_xyz
x,y,z
-x,-y,z
x,-y,-z
-x,y,-z
-x,-y,-z
x,y,-z
-x,y,z
x,-y,z
1/2+x,1/2+y,z
1/2-x,1/2-y,z
1/2+x,1/2-y,-z
1/2-x,1/2+y,-z
1/2-x,1/2-y,-z
1/2+x,1/2+y,-z
1/2-x,1/2+y,z
1/2+x,1/2-y,z
loop_
_atom_site_type_symbol
_atom_site_label
_atom_site_fract_x
_atom_site_fract_y
_atom_site_fract_z
Si Si1 0.000000 0.399705 0.811801
Si Si2 0.740065 0.849369 0.820450
Si Si3 0.748867 0.101854 0.368181
Si Si4 0.633459 0.500000 0.093120
Si Si5 0.500000 0.897538 0.374051
Si Si6 0.130992 0.800966 0.500000
O O1 0.884873 0.371808 0.849428
O O2 0.000000 0.500000 0.806124
O O3 0.000000 0.368855 0.719057
O O4 0.750000 0.750000 0.834135
O O5 0.751302 0.868187 0.724460
O O6 0.821262 0.915323 0.864020
O O7 0.624413 0.126992 0.403050
O O8 0.847613 0.141992 0.420294
O O9 0.754461 0.000000 0.369918
O O10 0.500000 0.500000 0.096954
O O11 0.669298 0.500000 0.000000
O O12 0.500000 0.000000 0.378899
O O13 0.250000 0.750000 0.500000
O O14 0.000000 0.770317 0.500000
#
# Coordination Sequence:
#
# PCOD9491055 Si02
#       6
#     8  16  16   8   8   8
#     4   9  16  36  63  95 133 163 219 279 327 385
#     4  11  22  41  71 104 133 178 229 281 336 411
#     4  10  20  41  67  97 129 176 220 277 344 405
#     4  11  26  47  67  96 142 184 222 281 356 424
#     4   7  14  29  60  91 121 157 209 262 320 402
#     4  12  29  45  60  92 136 177 232 298 344 402
#
# _framework density 20.442146000000001
#
# number of rings (size 3 to 8) (size 9 to 14) (size 15 to 20)
#    0.000    1.875    2.500    2.625    3.500    2.500 
#    4.500    3.125    0.000    0.000    0.000    0.000 
#    0.000    0.000    0.000    0.000    0.000    0.000 
#
# Total GULP energy -178394.220360 kJ/mol
# GULP energy per Si atom -5574.819386 kJ/mol
# Density = 2.039562 g / cm^3
# Si number density = 20.442146 Si / 1000 Ang^3
#
#
#
# Elastic Constant Matrix: (Units=GPa)
#
#
# Indices 1 2 3 4 5 6 
#
# 1 121.8392 49.8514 44.9145 0.0000 0.0000 0.0000
# 2 49.8514 114.6201 42.1424 0.0000 0.0000 0.0000
# 3 44.9145 42.1424 90.8185 0.0000 0.0000 0.0000
# 4 0.0000 0.0000 0.0000 -2.7403 0.0000 0.0000
# 5 0.0000 0.0000 0.0000 0.0000 31.7705 0.0000
# 6 0.0000 0.0000 0.0000 0.0000 0.0000 37.7822
#
#
#
# Elastic Compliance Matrix: (Units=1/GPa)
#
#
# Indices 1 2 3 4 5 6 
#
# 1 0.011016 -0.003362 -0.003888 0.000000 0.000000 0.000000
# 2 -0.003362 0.011545 -0.003695 0.000000 0.000000 0.000000
# 3 -0.003888 -0.003695 0.014648 0.000000 0.000000 0.000000
# 4 0.000000 0.000000 0.000000 -0.364924 0.000000 0.000000
# 5 0.000000 0.000000 0.000000 0.000000 0.031476 0.000000
# 6 0.000000 0.000000 0.000000 0.000000 0.000000 0.026468
#
#
# Mechanical properties :
#
#
# Convention : Reuss Voigt Hill
#
# Bulk Modulus (GPa) = 65.27220 66.78827 66.03023
# Shear Modulus (GPa) = -20.59516 26.05379 2.72932
#
# Velocity S-wave (km/s) = -3.17753 3.57391 1.15674
# Velocity P-wave (km/s) = 4.30549 7.05501 5.84425
#
# Compressibility (1/GPa) = 0.01532046
#
# Stress axis : x y z
#
# Youngs Moduli (GPa) = 90.77406 86.61765 68.26722
#
# Poissons Ratio (x) = 0.29119 0.26544
# Poissons Ratio (y) = 0.30516 0.25222
# Poissons Ratio (z) = 0.35295 0.32002
#
# Static dielectric constant tensor:
#      x y z
#    x 1.741440 0.000000 0.000000 
#    y 0.000000 1.667820 0.000000 
#    z 0.000000 0.000000 1.727080 
# 
# From -- ./inp_files/50981.got.cif
#   From: 2010.05.17/outbox.cif.g08.bks.cpg/sg65_26_cif.got.tgz:50981.got - 2010.06.03 17:01:31.
