data_PCOD9491018
_publ_section_title
;
Structure prediction by ZEFSAII (Michael W. Deem and Ramdas Pophale) SiO2 
 PCOD9491018
Probable space group: C M M M
;
_chemical_formula_sum "Si O2"
_cell_formula_units_Z 56
_cell_length_a 19.469290
_cell_length_b 7.397883
_cell_length_c 20.313514
_cell_angle_alpha 90.000000
_cell_angle_beta 90.000000
_cell_angle_gamma 90.000000
_cell_volume 2925.786491
_symmetry_space_group_name_H-M "C M M M"
_symmetry_group_IT_number 65
_symmetry_cell_setting 'orthorhombic'
loop_
_space_group_symop_operation_xyz
x,y,z
-x,-y,z
x,-y,-z
-x,y,-z
-x,-y,-z
x,y,-z
-x,y,z
x,-y,z
1/2+x,1/2+y,z
1/2-x,1/2-y,z
1/2+x,1/2-y,-z
1/2-x,1/2+y,-z
1/2-x,1/2-y,-z
1/2+x,1/2+y,-z
1/2-x,1/2+y,z
1/2+x,1/2-y,z
loop_
_atom_site_type_symbol
_atom_site_label
_atom_site_fract_x
_atom_site_fract_y
_atom_site_fract_z
Si Si1 0.419182 0.000000 0.578785
Si Si2 0.170313 0.215309 0.806460
Si Si3 0.169035 0.214855 0.343485
Si Si4 0.420289 0.279624 0.072910
O O1 0.379654 0.827671 0.608894
O O2 0.500000 0.000000 0.596375
O O3 0.413775 0.000000 0.500000
O O4 0.250000 0.250000 0.820741
O O5 0.156198 0.278385 0.732049
O O6 0.123761 0.286330 0.865561
O O7 0.160240 0.000000 0.804103
O O8 0.250000 0.250000 0.356843
O O9 0.157159 0.000000 0.348184
O O10 0.500000 0.228619 0.079735
O O11 0.418045 0.500000 0.073310
O O12 0.396149 0.222816 0.000000
#
# Coordination Sequence:
#
# PCOD9491018 Si02
#       4
#     8  16  16  16
#     4  11  26  44  62  92 128 156 192 243 298 358
#     4   9  18  30  51  78 106 138 180 231 281 332
#     4  10  20  39  64  90 120 157 202 247 292 353
#     4   8  14  26  44  68 100 138 182 228 272 327
#
# _framework density 19.140153000000002
#
# number of rings (size 3 to 8) (size 9 to 14) (size 15 to 20)
#    0.000    2.714    1.429    0.857    2.000    3.429 
#    0.000    4.286    0.000    0.000    0.000    2.000 
#    0.000    0.000    0.000    0.000    0.000    0.000 
#
# Total GULP energy -156217.147190 kJ/mol
# GULP energy per Si atom -5579.183828 kJ/mol
# Density = 1.909659 g / cm^3
# Si number density = 19.140153 Si / 1000 Ang^3
#
#
#
# Elastic Constant Matrix: (Units=GPa)
#
#
# Indices 1 2 3 4 5 6 
#
# 1 112.6264 37.8062 110.3113 0.0000 0.0000 0.0000
# 2 37.8062 102.9989 42.9110 0.0000 0.0000 0.0000
# 3 110.3113 42.9110 143.5119 0.0000 0.0000 0.0000
# 4 0.0000 0.0000 0.0000 -86.0785 0.0000 0.0000
# 5 0.0000 0.0000 0.0000 0.0000 31.7903 0.0000
# 6 0.0000 0.0000 0.0000 0.0000 0.0000 17.4817
#
#
#
# Elastic Compliance Matrix: (Units=1/GPa)
#
#
# Indices 1 2 3 4 5 6 
#
# 1 0.036262 -0.001939 -0.027293 0.000000 0.000000 0.000000
# 2 -0.001939 0.011194 -0.001856 0.000000 0.000000 0.000000
# 3 -0.027293 -0.001856 0.028502 0.000000 0.000000 0.000000
# 4 0.000000 0.000000 0.000000 -0.011617 0.000000 0.000000
# 5 0.000000 0.000000 0.000000 0.000000 0.031456 0.000000
# 6 0.000000 0.000000 0.000000 0.000000 0.000000 0.057203
#
#
# Mechanical properties :
#
#
# Convention : Reuss Voigt Hill
#
# Bulk Modulus (GPa) = 72.56641 82.35491 77.46066
# Shear Modulus (GPa) = 22.75097 3.84597 13.29847
#
# Velocity S-wave (km/s) = 3.45142 1.41906 2.63875
# Velocity P-wave (km/s) = 7.34020 6.76799 7.05990
#
# Compressibility (1/GPa) = 0.01378048
#
# Stress axis : x y z
#
# Youngs Moduli (GPa) = 27.57709 89.33273 35.08509
#
# Poissons Ratio (x) = 0.17325 0.95758
# Poissons Ratio (y) = 0.05348 0.06513
# Poissons Ratio (z) = 0.75266 0.16584
#
# Static dielectric constant tensor:
#      x y z
#    x 1.611600 0.000000 0.000000 
#    y 0.000000 1.707090 0.000000 
#    z 0.000000 0.000000 1.669090 
# 
# From -- ./inp_files/55214.got.cif
#   From: 2010.05.17/outbox.cif.g08.bks.cpg/sg65_28_cif.got.tgz:55214.got - 2010.06.03 17:01:31.
