data_PCOD9491617
_publ_section_title
;
Structure prediction by ZEFSAII (Michael W. Deem and Ramdas Pophale) SiO2 
 PCOD9491617
Probable space group: C M M M
;
_chemical_formula_sum "Si O2"
_cell_formula_units_Z 88
_cell_length_a 8.600237
_cell_length_b 24.857990
_cell_length_c 23.493916
_cell_angle_alpha 90.000000
_cell_angle_beta 90.000000
_cell_angle_gamma 90.000000
_cell_volume 5022.637560
_symmetry_space_group_name_H-M "C M M M"
_symmetry_group_IT_number 65
_symmetry_cell_setting 'orthorhombic'
loop_
_space_group_symop_operation_xyz
x,y,z
-x,-y,z
x,-y,-z
-x,y,-z
-x,-y,-z
x,y,-z
-x,y,z
x,-y,z
1/2+x,1/2+y,z
1/2-x,1/2-y,z
1/2+x,1/2-y,-z
1/2-x,1/2+y,-z
1/2-x,1/2-y,-z
1/2+x,1/2+y,-z
1/2-x,1/2+y,z
1/2+x,1/2-y,z
loop_
_atom_site_type_symbol
_atom_site_label
_atom_site_fract_x
_atom_site_fract_y
_atom_site_fract_z
Si Si1 0.688627 0.616320 0.065218
Si Si2 0.686837 0.000000 0.567006
Si Si3 0.823886 0.000000 0.068719
Si Si4 0.685716 0.190364 0.835857
Si Si5 0.312721 0.689268 0.500000
Si Si6 0.686959 0.615005 0.393240
Si Si7 0.686717 0.189223 0.293895
O O1 0.500000 0.613984 0.064456
O O2 0.750079 0.556975 0.082084
O O3 0.744022 0.656147 0.113273
O O4 0.736683 0.629058 0.000000
O O5 0.748363 0.944951 0.595676
O O6 0.500000 0.000000 0.569396
O O7 0.734380 0.000000 0.500000
O O8 0.000000 0.000000 0.092230
O O9 0.836967 0.000000 0.000000
O O10 0.500000 0.189934 0.839857
O O11 0.750000 0.250000 0.842356
O O12 0.728130 0.173838 0.771260
O O13 0.500000 0.692485 0.500000
O O14 0.250000 0.750000 0.500000
O O15 0.264593 0.654449 0.554858
O O16 0.500000 0.612017 0.392680
O O17 0.746117 0.645267 0.336973
O O18 0.500000 0.191196 0.298886
O O19 0.750000 0.250000 0.304955
#
# Coordination Sequence:
#
# PCOD9491617 Si02
#       7
#    16   8   8  16   8  16  16
#     4   9  17  31  53  79 106 138 179 226 274 328
#     4  11  23  39  60  85 114 153 189 225 274 327
#     4   7  12  26  48  73 100 131 166 206 255 310
#     4  10  21  36  54  76 106 143 181 224 273 327
#     4  10  22  35  52  81 113 140 172 218 267 316
#     4  11  22  38  59  83 112 147 184 226 272 325
#     4  10  21  38  58  81 108 142 185 230 278 332
#
# _framework density 17.520675000000001
#
# number of rings (size 3 to 8) (size 9 to 14) (size 15 to 20)
#    0.000    2.182    0.909    3.545    0.000    6.182 
#    0.000    1.364    0.000    6.000    0.000    0.000 
#    0.000    0.000    0.000    0.000    0.000    0.000 
#
# Total GULP energy -245338.092543 kJ/mol
# GULP energy per Si atom -5575.865740 kJ/mol
# Density = 1.748080 g / cm^3
# Si number density = 17.520675 Si / 1000 Ang^3
#
#
#
# Elastic Constant Matrix: (Units=GPa)
#
#
# Indices 1 2 3 4 5 6 
#
# 1 40.8059 43.2926 44.8899 0.0000 0.0000 0.0000
# 2 43.2926 154.3012 116.4379 0.0000 0.0000 0.0000
# 3 44.8899 116.4379 152.8248 0.0000 0.0000 0.0000
# 4 0.0000 0.0000 0.0000 -5.0281 0.0000 0.0000
# 5 0.0000 0.0000 0.0000 0.0000 23.8572 0.0000
# 6 0.0000 0.0000 0.0000 0.0000 0.0000 26.7996
#
#
#
# Elastic Compliance Matrix: (Units=1/GPa)
#
#
# Indices 1 2 3 4 5 6 
#
# 1 0.037936 -0.005258 -0.007137 0.000000 0.000000 0.000000
# 2 -0.005258 0.015976 -0.010628 0.000000 0.000000 0.000000
# 3 -0.007137 -0.010628 0.016737 0.000000 0.000000 0.000000
# 4 0.000000 0.000000 0.000000 -0.198881 0.000000 0.000000
# 5 0.000000 0.000000 0.000000 0.000000 0.041916 0.000000
# 6 0.000000 0.000000 0.000000 0.000000 0.000000 0.037314
#
#
# Mechanical properties :
#
#
# Convention : Reuss Voigt Hill
#
# Bulk Modulus (GPa) = 40.64443 84.13029 62.38736
# Shear Modulus (GPa) = 953.48031 18.67984 486.08008
#
# Velocity S-wave (km/s) = 23.35347 3.26875 16.67437
# Velocity P-wave (km/s) = 27.39393 7.89736 20.15931
#
# Compressibility (1/GPa) = 0.02460362
#
# Stress axis : x y z
#
# Youngs Moduli (GPa) = 26.36013 62.59454 59.74803
#
# Poissons Ratio (x) = 0.32914 0.42641
# Poissons Ratio (y) = 0.13861 0.63497
# Poissons Ratio (z) = 0.18813 0.66523
#
# Static dielectric constant tensor:
#      x y z
#    x 1.601460 0.000000 0.000000 
#    y 0.000000 1.591630 0.000000 
#    z 0.000000 0.000000 1.590160 
# 
# From -- ./inp_files/67671.got.cif
#   From: 2010.05.17/outbox.cif.g08.bks.cpg/sg65_34_cif.got.tgz:67671.got - 2010.06.03 17:01:31.
