data_PCOD9491783
_publ_section_title
;
Structure prediction by ZEFSAII (Michael W. Deem and Ramdas Pophale) SiO2 
 PCOD9491783
Probable space group: C M M M
;
_chemical_formula_sum "Si O2"
_cell_formula_units_Z 112
_cell_length_a 16.437943
_cell_length_b 22.881221
_cell_length_c 13.891099
_cell_angle_alpha 90.000000
_cell_angle_beta 90.000000
_cell_angle_gamma 90.000000
_cell_volume 5224.723025
_symmetry_space_group_name_H-M "C M M M"
_symmetry_group_IT_number 65
_symmetry_cell_setting 'orthorhombic'
loop_
_space_group_symop_operation_xyz
x,y,z
-x,-y,z
x,-y,-z
-x,y,-z
-x,-y,-z
x,y,-z
-x,y,z
x,-y,z
1/2+x,1/2+y,z
1/2-x,1/2-y,z
1/2+x,1/2-y,-z
1/2-x,1/2+y,-z
1/2-x,1/2-y,-z
1/2+x,1/2+y,-z
1/2-x,1/2+y,z
1/2+x,1/2-y,z
loop_
_atom_site_type_symbol
_atom_site_label
_atom_site_fract_x
_atom_site_fract_y
_atom_site_fract_z
Si Si1 0.378138 0.142328 0.885589
Si Si2 0.235167 0.938443 0.114324
Si Si3 0.587023 0.930185 0.290589
Si Si4 0.239564 0.930916 0.614887
Si Si5 0.909230 0.127598 0.884495
Si Si6 0.595536 0.338248 0.386415
Si Si7 0.846824 0.240162 0.780702
O O1 0.285481 0.120488 0.875202
O O2 0.416683 0.092052 0.819587
O O3 0.387049 0.202765 0.829185
O O4 0.398678 0.144563 0.000000
O O5 0.145301 0.926133 0.150051
O O6 0.268641 0.000000 0.152528
O O7 0.232771 0.944471 0.000000
O O8 0.500000 0.910047 0.335780
O O9 0.674704 0.911786 0.335194
O O10 0.587103 0.000000 0.297143
O O11 0.251975 0.927108 0.500000
O O12 0.162906 0.888568 0.638075
O O13 0.224130 0.000000 0.636211
O O14 0.868680 0.187404 0.851860
O O15 0.000000 0.124886 0.847329
O O16 0.911244 0.125971 0.000000
O O17 0.605109 0.325829 0.500000
O O18 0.500000 0.354527 0.372041
O O19 0.617058 0.282290 0.320488
O O20 0.750000 0.250000 0.772773
#
# Coordination Sequence:
#
# PCOD9491783 Si02
#       7
#    16  16  16  16  16  16  16
#     4  11  23  39  62  89 121 166 223 277 324 382
#     4   9  18  34  57  85 118 161 211 261 319 384
#     4  10  22  40  62  93 133 173 218 276 335 386
#     4   9  19  39  69 102 133 170 216 262 319 392
#     4  10  21  36  55  86 127 167 210 260 315 379
#     4  10  23  44  68  97 134 169 206 262 328 394
#     4  12  23  39  63  87 120 167 217 268 315 378
#
# _framework density 21.436543
#
# number of rings (size 3 to 8) (size 9 to 14) (size 15 to 20)
#    0.000    1.857    1.429    2.143    0.000    4.000 
#    0.000    5.714    0.000    1.714    0.000    0.000 
#    0.000    0.000    0.000    0.000    0.000    0.143 
#
# Total GULP energy -311979.305584 kJ/mol
# GULP energy per Si atom -5571.059028 kJ/mol
# Density = 2.138775 g / cm^3
# Si number density = 21.436543 Si / 1000 Ang^3
#
#
#
# Elastic Constant Matrix: (Units=GPa)
#
#
# Indices 1 2 3 4 5 6 
#
# 1 152.3002 32.3461 25.3707 0.0000 0.0000 0.0000
# 2 32.3461 83.1399 22.5919 0.0000 0.0000 0.0000
# 3 25.3707 22.5919 128.7200 0.0000 0.0000 0.0000
# 4 0.0000 0.0000 0.0000 17.1022 0.0000 0.0000
# 5 0.0000 0.0000 0.0000 0.0000 14.9235 0.0000
# 6 0.0000 0.0000 0.0000 0.0000 0.0000 119.2678
#
#
#
# Elastic Compliance Matrix: (Units=1/GPa)
#
#
# Indices 1 2 3 4 5 6 
#
# 1 0.007274 -0.002563 -0.000984 0.000000 0.000000 0.000000
# 2 -0.002563 0.013533 -0.001870 0.000000 0.000000 0.000000
# 3 -0.000984 -0.001870 0.008291 0.000000 0.000000 0.000000
# 4 0.000000 0.000000 0.000000 0.058472 0.000000 0.000000
# 5 0.000000 0.000000 0.000000 0.000000 0.067008 0.000000
# 6 0.000000 0.000000 0.000000 0.000000 0.000000 0.008384
#
#
# Mechanical properties :
#
#
# Convention : Reuss Voigt Hill
#
# Bulk Modulus (GPa) = 54.75033 58.30861 56.52947
# Shear Modulus (GPa) = 27.79553 49.18211 38.48882
#
# Velocity S-wave (km/s) = 3.60480 4.79509 4.24190
# Velocity P-wave (km/s) = 6.55150 7.61031 7.10067
#
# Compressibility (1/GPa) = 0.01826473
#
# Stress axis : x y z
#
# Youngs Moduli (GPa) = 137.47288 73.89281 120.61318
#
# Poissons Ratio (x) = 0.18936 0.11868
# Poissons Ratio (y) = 0.35230 0.22556
# Poissons Ratio (z) = 0.13527 0.13819
#
# Static dielectric constant tensor:
#      x y z
#    x 1.890400 0.000000 0.000000 
#    y 0.000000 1.778740 0.000000 
#    z 0.000000 0.000000 1.770030 
# 
# From -- ./inp_files/40828.got.cif
#   From: 2010.05.17/outbox.cif.g08.bks.cpg/sg65_21_cif.got.tgz:40828.got - 2010.06.03 17:01:31.
