data_PCOD9491157
_publ_section_title
;
Structure prediction by ZEFSAII (Michael W. Deem and Ramdas Pophale) SiO2 
 PCOD9491157
Probable space group: C M M M
;
_chemical_formula_sum "Si O2"
_cell_formula_units_Z 48
_cell_length_a 39.162551
_cell_length_b 9.000729
_cell_length_c 7.597912
_cell_angle_alpha 90.000000
_cell_angle_beta 90.000000
_cell_angle_gamma 90.000000
_cell_volume 2678.199462
_symmetry_space_group_name_H-M "C M M M"
_symmetry_group_IT_number 65
_symmetry_cell_setting 'orthorhombic'
loop_
_space_group_symop_operation_xyz
x,y,z
-x,-y,z
x,-y,-z
-x,y,-z
-x,-y,-z
x,y,-z
-x,y,z
x,-y,z
1/2+x,1/2+y,z
1/2-x,1/2-y,z
1/2+x,1/2-y,-z
1/2-x,1/2+y,-z
1/2-x,1/2-y,-z
1/2+x,1/2+y,-z
1/2-x,1/2+y,z
1/2+x,1/2-y,z
loop_
_atom_site_type_symbol
_atom_site_label
_atom_site_fract_x
_atom_site_fract_y
_atom_site_fract_z
Si Si1 0.212941 0.178578 0.000000
Si Si2 0.540096 0.322336 0.000000
Si Si3 0.913495 0.676939 0.292604
Si Si4 0.341014 0.677385 0.294434
O O1 0.250000 0.250000 0.000000
O O2 0.190211 0.220632 0.169555
O O3 0.216529 0.000000 0.000000
O O4 0.558843 0.254653 0.169802
O O5 0.543972 0.500000 0.000000
O O6 0.500000 0.286218 0.000000
O O7 0.919161 0.708573 0.500000
O O8 0.914383 0.500000 0.267133
O O9 0.875921 0.739056 0.247092
O O10 0.333658 0.706076 0.500000
O O11 0.346674 0.500000 0.273051
#
# Coordination Sequence:
#
# PCOD9491157 Si02
#       4
#     8   8  16  16
#     4  10  21  34  49  73 104 138 175 216 265 317
#     4  11  24  39  56  80 111 149 188 223 264 319
#     4  10  21  37  59  86 112 140 178 226 278 326
#     4   9  18  34  55  77 103 137 177 219 263 316
#
# _framework density 17.922488999999999
#
# number of rings (size 3 to 8) (size 9 to 14) (size 15 to 20)
#    0.000    2.167    0.000    2.500    0.000    7.333 
#    0.000    3.333    0.000    0.000    0.000    0.000 
#    0.000    0.000    0.000    0.000    0.000    0.000 
#
# Total GULP energy -134044.389836 kJ/mol
# GULP energy per Si atom -5585.182910 kJ/mol
# Density = 1.788170 g / cm^3
# Si number density = 17.922489 Si / 1000 Ang^3
#
#
#
# Elastic Constant Matrix: (Units=GPa)
#
#
# Indices 1 2 3 4 5 6 
#
# 1 202.4763 84.0075 116.7277 0.0000 0.0000 0.0000
# 2 84.0075 54.7884 62.9040 0.0000 0.0000 0.0000
# 3 116.7277 62.9040 108.7618 0.0000 0.0000 0.0000
# 4 0.0000 0.0000 0.0000 20.7811 0.0000 0.0000
# 5 0.0000 0.0000 0.0000 0.0000 -15.2000 0.0000
# 6 0.0000 0.0000 0.0000 0.0000 0.0000 33.8617
#
#
#
# Elastic Compliance Matrix: (Units=1/GPa)
#
#
# Indices 1 2 3 4 5 6 
#
# 1 0.016022 -0.014359 -0.008891 0.000000 0.000000 0.000000
# 2 -0.014359 0.067195 -0.023453 0.000000 0.000000 0.000000
# 3 -0.008891 -0.023453 0.032301 0.000000 0.000000 0.000000
# 4 0.000000 0.000000 0.000000 0.048121 0.000000 0.000000
# 5 0.000000 0.000000 0.000000 0.000000 -0.065789 0.000000
# 6 0.000000 0.000000 0.000000 0.000000 0.000000 0.029532
#
#
# Mechanical properties :
#
#
# Convention : Reuss Voigt Hill
#
# Bulk Modulus (GPa) = 45.22240 99.25610 72.23925
# Shear Modulus (GPa) = 21.91476 14.71438 18.31457
#
# Velocity S-wave (km/s) = 3.50058 2.86842 3.20015
# Velocity P-wave (km/s) = 6.45180 8.15300 7.35177
#
# Compressibility (1/GPa) = 0.02211293
#
# Stress axis : x y z
#
# Youngs Moduli (GPa) = 62.41521 14.88198 30.95913
#
# Poissons Ratio (x) = 0.21369 0.27525
# Poissons Ratio (y) = 0.89620 0.72609
# Poissons Ratio (z) = 0.55491 0.34903
#
# Static dielectric constant tensor:
#      x y z
#    x 1.565530 0.000000 0.000000 
#    y 0.000000 1.598240 0.000000 
#    z 0.000000 0.000000 1.623150 
# 
# From -- ./inp_files/3029.got.cif
#   From: 2010.05.17/outbox.cif.g08.bks.cpg/sg65_2_cif.got.tgz:3029.got - 2010.06.03 17:01:31.
