data_PCOD9491014
_publ_section_title
;
Structure prediction by ZEFSAII (Michael W. Deem and Ramdas Pophale) SiO2 
 PCOD9491014
Probable space group: C M M M
;
_chemical_formula_sum "Si O2"
_cell_formula_units_Z 92
_cell_length_a 21.822324
_cell_length_b 14.242391
_cell_length_c 16.355230
_cell_angle_alpha 90.000000
_cell_angle_beta 90.000000
_cell_angle_gamma 90.000000
_cell_volume 5083.239355
_symmetry_space_group_name_H-M "C M M M"
_symmetry_group_IT_number 65
_symmetry_cell_setting 'orthorhombic'
loop_
_space_group_symop_operation_xyz
x,y,z
-x,-y,z
x,-y,-z
-x,y,-z
-x,-y,-z
x,y,-z
-x,y,z
x,-y,z
1/2+x,1/2+y,z
1/2-x,1/2-y,z
1/2+x,1/2-y,-z
1/2-x,1/2+y,-z
1/2-x,1/2-y,-z
1/2+x,1/2+y,-z
1/2-x,1/2+y,z
1/2+x,1/2-y,z
loop_
_atom_site_type_symbol
_atom_site_label
_atom_site_fract_x
_atom_site_fract_y
_atom_site_fract_z
Si Si1 0.216271 0.107561 0.598587
Si Si2 0.931038 0.838641 0.901744
Si Si3 0.610152 0.850998 0.179142
Si Si4 0.000000 0.500000 0.198038
Si Si5 0.573509 0.112442 0.500000
Si Si6 0.154375 0.701905 0.357797
Si Si7 0.801445 0.500000 0.098633
Si Si8 0.839846 0.000000 0.099830
O O1 0.216647 0.108387 0.500000
O O2 0.169294 0.188565 0.626266
O O3 0.283098 0.143449 0.626631
O O4 0.204744 0.000000 0.625565
O O5 0.912883 0.734988 0.875189
O O6 0.878935 0.910253 0.872783
O O7 0.000000 0.862123 0.872772
O O8 0.932232 0.844455 0.000000
O O9 0.633865 0.813751 0.265605
O O10 0.553595 0.919398 0.195302
O O11 0.663029 0.909730 0.133500
O O12 0.500000 0.123809 0.500000
O O13 0.604616 0.160560 0.421131
O O14 0.586422 0.000000 0.500000
O O15 0.730641 0.500000 0.125632
O O16 0.804503 0.500000 0.000000
O O17 0.838775 0.000000 0.000000
#
# Coordination Sequence:
#
# PCOD9491014 Si02
#       8
#    16  16  16   4   8  16   8   8
#     4  10  20  39  65  88 119 159 201 242 295 358
#     4  10  20  39  63  88 116 159 207 248 298 360
#     4  11  24  39  61  90 122 158 201 255 306 355
#     4  10  24  42  57  83 126 158 188 250 304 353
#     4  11  24  35  59  89 117 159 193 234 298 365
#     4  11  22  39  59  90 123 152 198 248 297 352
#     4  10  23  42  60  88 126 166 201 247 313 374
#     4   9  20  37  62  87 120 156 196 251 300 359
#
# _framework density 18.098694999999999
#
# number of rings (size 3 to 8) (size 9 to 14) (size 15 to 20)
#    0.000    1.652    2.609    1.826    6.087    4.522 
#    1.565    3.913    0.000    1.043    0.000    0.000 
#    0.000    0.000    0.000    0.000    0.000    0.000 
#
# Total GULP energy -256295.424635 kJ/mol
# GULP energy per Si atom -5571.639666 kJ/mol
# Density = 1.805750 g / cm^3
# Si number density = 18.098695 Si / 1000 Ang^3
#
#
#
# Elastic Constant Matrix: (Units=GPa)
#
#
# Indices 1 2 3 4 5 6 
#
# 1 148.1459 65.8014 32.7735 0.0000 0.0000 0.0000
# 2 65.8014 133.1832 9.8728 0.0000 0.0000 0.0000
# 3 32.7735 9.8728 34.9935 0.0000 0.0000 0.0000
# 4 0.0000 0.0000 0.0000 -63.8671 0.0000 0.0000
# 5 0.0000 0.0000 0.0000 0.0000 2.4723 0.0000
# 6 0.0000 0.0000 0.0000 0.0000 0.0000-1183.8030
#
#
#
# Elastic Compliance Matrix: (Units=1/GPa)
#
#
# Indices 1 2 3 4 5 6 
#
# 1 0.010762 -0.004667 -0.008762 0.000000 0.000000 0.000000
# 2 -0.004667 0.009693 0.001637 0.000000 0.000000 0.000000
# 3 -0.008762 0.001637 0.036321 0.000000 0.000000 0.000000
# 4 0.000000 0.000000 0.000000 -0.015658 0.000000 0.000000
# 5 0.000000 0.000000 0.000000 0.000000 0.404485 0.000000
# 6 0.000000 0.000000 0.000000 0.000000 0.000000 -0.000845
#
#
# Mechanical properties :
#
#
# Convention : Reuss Voigt Hill
#
# Bulk Modulus (GPa) = 30.12947 59.24645 44.68796
# Shear Modulus (GPa) = 10.42954 -235.18122 -112.37584
#
# Velocity S-wave (km/s) = 2.40314 -11.41165 -7.88831
# Velocity P-wave (km/s) = 4.93797 11.86711 7.63035
#
# Compressibility (1/GPa) = 0.03319010
#
# Stress axis : x y z
#
# Youngs Moduli (GPa) = 92.92311 103.16559 27.53219
#
# Poissons Ratio (x) = 0.48152 0.24124
# Poissons Ratio (y) = 0.43371 -0.04506
# Poissons Ratio (z) = 0.81419 -0.16884
#
# Static dielectric constant tensor:
#      x y z
#    x 1.584370 0.000000 0.000000 
#    y 0.000000 1.605960 0.000000 
#    z 0.000000 0.000000 1.614240 
# 
# From -- ./inp_files/44216.got.cif
#   From: 2010.05.17/outbox.cif.g08.bks.cpg/sg65_23_cif.got.tgz:44216.got - 2010.06.03 17:01:31.
