data_PCOD9491832
_publ_section_title
;
Structure prediction by ZEFSAII (Michael W. Deem and Ramdas Pophale) SiO2 
 PCOD9491832
Probable space group: C M M M
;
_chemical_formula_sum "Si O2"
_cell_formula_units_Z 112
_cell_length_a 15.706627
_cell_length_b 25.049165
_cell_length_c 14.069002
_cell_angle_alpha 90.000000
_cell_angle_beta 90.000000
_cell_angle_gamma 90.000000
_cell_volume 5535.278480
_symmetry_space_group_name_H-M "C M M M"
_symmetry_group_IT_number 65
_symmetry_cell_setting 'orthorhombic'
loop_
_space_group_symop_operation_xyz
x,y,z
-x,-y,z
x,-y,-z
-x,y,-z
-x,-y,-z
x,y,-z
-x,y,z
x,-y,z
1/2+x,1/2+y,z
1/2-x,1/2-y,z
1/2+x,1/2-y,-z
1/2-x,1/2+y,-z
1/2-x,1/2-y,-z
1/2+x,1/2+y,-z
1/2-x,1/2+y,z
1/2+x,1/2-y,z
loop_
_atom_site_type_symbol
_atom_site_label
_atom_site_fract_x
_atom_site_fract_y
_atom_site_fract_z
Si Si1 0.096666 0.869443 0.794552
Si Si2 0.763021 0.561184 0.201189
Si Si3 0.396586 0.258690 0.108542
Si Si4 0.900570 0.641302 0.115380
Si Si5 0.354460 0.679459 0.393038
Si Si6 0.405991 0.793106 0.615255
Si Si7 0.812756 0.608173 0.607727
O O1 0.169377 0.913065 0.813013
O O2 0.126708 0.813427 0.840561
O O3 0.095258 0.855469 0.682792
O O4 0.000000 0.882255 0.826413
O O5 0.765355 0.500000 0.170576
O O6 0.834284 0.597180 0.149990
O O7 0.785584 0.566018 0.313689
O O8 0.500000 0.257468 0.107365
O O9 0.372289 0.200811 0.149515
O O10 0.366198 0.261781 0.000000
O O11 0.000000 0.631778 0.141797
O O12 0.899227 0.643514 0.000000
O O13 0.390578 0.678516 0.500000
O O14 0.350502 0.741211 0.362033
O O15 0.262735 0.652019 0.397229
O O16 0.403555 0.797541 0.500000
O O17 0.500000 0.777148 0.647046
O O18 0.387216 0.853376 0.646181
O O19 0.827896 0.588368 0.500000
#
# Coordination Sequence:
#
# PCOD9491832 Si02
#       7
#    16  16  16  16  16  16  16
#     4  10  21  36  57  84 115 153 190 232 287 340
#     4  11  25  40  56  82 112 150 203 247 279 328
#     4   8  16  34  60  89 117 143 174 215 274 349
#     4   9  20  41  67  92 118 146 179 229 288 341
#     4   9  17  30  49  76 111 147 184 228 280 340
#     4   9  16  26  44  72 104 136 170 215 277 344
#     4   9  19  35  52  71 103 148 193 236 282 329
#
# _framework density 20.23385
#
# number of rings (size 3 to 8) (size 9 to 14) (size 15 to 20)
#    0.000    2.714    0.000    1.714    2.000    5.429 
#    0.000    2.143    0.000    0.000    0.000   10.000 
#    0.000    0.000    0.000    0.000    0.000    0.000 
#
# Total GULP energy -312217.804228 kJ/mol
# GULP energy per Si atom -5575.317933 kJ/mol
# Density = 2.018780 g / cm^3
# Si number density = 20.233850 Si / 1000 Ang^3
#
#
#
# Elastic Constant Matrix: (Units=GPa)
#
#
# Indices 1 2 3 4 5 6 
#
# 1 64.2145 29.6191 14.1695 0.0000 0.0000 0.0000
# 2 29.6191 107.4311 22.8814 0.0000 0.0000 0.0000
# 3 14.1695 22.8814 51.2669 0.0000 0.0000 0.0000
# 4 0.0000 0.0000 0.0000 16.1300 0.0000 0.0000
# 5 0.0000 0.0000 0.0000 0.0000 19.9261 0.0000
# 6 0.0000 0.0000 0.0000 0.0000 0.0000 19.0500
#
#
#
# Elastic Compliance Matrix: (Units=1/GPa)
#
#
# Indices 1 2 3 4 5 6 
#
# 1 0.018276 -0.004379 -0.003097 0.000000 0.000000 0.000000
# 2 -0.004379 0.011335 -0.003849 0.000000 0.000000 0.000000
# 3 -0.003097 -0.003849 0.022079 0.000000 0.000000 0.000000
# 4 0.000000 0.000000 0.000000 0.061996 0.000000 0.000000
# 5 0.000000 0.000000 0.000000 0.000000 0.050185 0.000000
# 6 0.000000 0.000000 0.000000 0.000000 0.000000 0.052493
#
#
# Mechanical properties :
#
#
# Convention : Reuss Voigt Hill
#
# Bulk Modulus (GPa) = 34.43368 39.58361 37.00864
# Shear Modulus (GPa) = 20.10488 21.43741 20.77115
#
# Velocity S-wave (km/s) = 3.15560 3.25850 3.20746
# Velocity P-wave (km/s) = 5.50744 5.81056 5.66103
#
# Compressibility (1/GPa) = 0.02904134
#
# Stress axis : x y z
#
# Youngs Moduli (GPa) = 54.71644 88.21922 45.29091
#
# Poissons Ratio (x) = 0.38633 0.14026
# Poissons Ratio (y) = 0.23961 0.17432
# Poissons Ratio (z) = 0.16944 0.33954
#
# Static dielectric constant tensor:
#      x y z
#    x 1.791380 0.000000 0.000000 
#    y 0.000000 1.683390 0.000000 
#    z 0.000000 0.000000 1.790260 
# 
# From -- ./inp_files/40796.got.cif
#   From: 2010.05.17/outbox.cif.g08.bks.cpg/sg65_21_cif.got.tgz:40796.got - 2010.06.03 17:01:31.
