data_PCOD9491798
_publ_section_title
;
Structure prediction by ZEFSAII (Michael W. Deem and Ramdas Pophale) SiO2 
 PCOD9491798
Probable space group: C M M M
;
_chemical_formula_sum "Si O2"
_cell_formula_units_Z 104
_cell_length_a 28.852251
_cell_length_b 21.357564
_cell_length_c 9.018136
_cell_angle_alpha 90.000000
_cell_angle_beta 90.000000
_cell_angle_gamma 90.000000
_cell_volume 5557.099829
_symmetry_space_group_name_H-M "C M M M"
_symmetry_group_IT_number 65
_symmetry_cell_setting 'orthorhombic'
loop_
_space_group_symop_operation_xyz
x,y,z
-x,-y,z
x,-y,-z
-x,y,-z
-x,-y,-z
x,y,-z
-x,y,z
x,-y,z
1/2+x,1/2+y,z
1/2-x,1/2-y,z
1/2+x,1/2-y,-z
1/2-x,1/2+y,-z
1/2-x,1/2-y,-z
1/2+x,1/2+y,-z
1/2-x,1/2+y,z
1/2+x,1/2-y,z
loop_
_atom_site_type_symbol
_atom_site_label
_atom_site_fract_x
_atom_site_fract_y
_atom_site_fract_z
Si Si1 0.360604 0.930944 0.676512
Si Si2 0.555053 0.500000 0.178494
Si Si3 0.944704 0.246802 0.671198
Si Si4 0.392369 0.617582 0.677264
Si Si5 0.054237 0.375801 0.824857
Si Si6 0.192565 0.178982 0.822238
Si Si7 0.802032 0.321551 0.822622
O O1 0.360188 0.926304 0.500000
O O2 0.412449 0.921421 0.736354
O O3 0.330483 0.875651 0.745190
O O4 0.343447 0.000000 0.720099
O O5 0.500000 0.500000 0.216910
O O6 0.580890 0.560689 0.244979
O O7 0.558635 0.500000 0.000000
O O8 0.933359 0.263464 0.500000
O O9 0.919653 0.182310 0.708599
O O10 0.933210 0.305007 0.775901
O O11 0.000000 0.236832 0.679687
O O12 0.391576 0.607843 0.500000
O O13 0.341046 0.630917 0.739981
O O14 0.000000 0.384929 0.790330
O O15 0.060956 0.383179 0.000000
O O16 0.183140 0.251298 0.776289
O O17 0.247197 0.169957 0.793420
O O18 0.185449 0.174475 0.000000
O O19 0.808407 0.324830 0.000000
#
# Coordination Sequence:
#
# PCOD9491798 Si02
#       7
#    16   8  16  16  16  16  16
#     4  11  24  39  55  79 112 150 188 228 278 334
#     4  11  25  43  61  81 111 155 203 249 298 353
#     4   9  18  33  54  81 113 147 183 226 279 336
#     4  11  22  36  57  86 116 151 191 235 288 346
#     4  10  21  36  56  83 112 144 186 234 278 326
#     4   9  19  37  61  89 118 146 184 234 286 339
#     4   9  19  38  63  88 114 148 189 234 283 337
#
# _framework density 18.714798999999999
#
# number of rings (size 3 to 8) (size 9 to 14) (size 15 to 20)
#    0.000    2.077    0.000    3.923    0.000    8.615 
#    1.385    4.615    0.000    0.000    0.000    0.000 
#    0.000    0.000    0.000    0.000    0.000    0.000 
#
# Total GULP energy -290440.941671 kJ/mol
# GULP energy per Si atom -5585.402724 kJ/mol
# Density = 1.867220 g / cm^3
# Si number density = 18.714799 Si / 1000 Ang^3
#
#
#
# Elastic Constant Matrix: (Units=GPa)
#
#
# Indices 1 2 3 4 5 6 
#
# 1 84.9040 65.4904 45.4870 0.0000 0.0000 0.0000
# 2 65.4904 100.6094 47.8805 0.0000 0.0000 0.0000
# 3 45.4870 47.8805 45.8828 0.0000 0.0000 0.0000
# 4 0.0000 0.0000 0.0000 62.5499 0.0000 0.0000
# 5 0.0000 0.0000 0.0000 0.0000 24.5465 0.0000
# 6 0.0000 0.0000 0.0000 0.0000 0.0000 26.3922
#
#
#
# Elastic Compliance Matrix: (Units=1/GPa)
#
#
# Indices 1 2 3 4 5 6 
#
# 1 0.029944 -0.010656 -0.018565 0.000000 0.000000 0.000000
# 2 -0.010656 0.023538 -0.013998 0.000000 0.000000 0.000000
# 3 -0.018565 -0.013998 0.054808 0.000000 0.000000 0.000000
# 4 0.000000 0.000000 0.000000 0.015987 0.000000 0.000000
# 5 0.000000 0.000000 0.000000 0.000000 0.040739 0.000000
# 6 0.000000 0.000000 0.000000 0.000000 0.000000 0.037890
#
#
# Mechanical properties :
#
#
# Convention : Reuss Voigt Hill
#
# Bulk Modulus (GPa) = 45.76761 61.01242 53.39002
# Shear Modulus (GPa) = 16.85605 27.53360 22.19483
#
# Velocity S-wave (km/s) = 3.00439 3.83981 3.44750
# Velocity P-wave (km/s) = 6.04513 7.23400 6.66612
#
# Compressibility (1/GPa) = 0.02184951
#
# Stress axis : x y z
#
# Youngs Moduli (GPa) = 33.39554 42.48471 18.24560
#
# Poissons Ratio (x) = 0.45273 0.33874
# Poissons Ratio (y) = 0.35587 0.25541
# Poissons Ratio (z) = 0.62000 0.59471
#
# Static dielectric constant tensor:
#      x y z
#    x 1.654030 0.000000 0.000000 
#    y 0.000000 1.636410 0.000000 
#    z 0.000000 0.000000 1.623340 
# 
# From -- ./inp_files/16476.got.cif
#   From: 2010.05.17/outbox.cif.g08.bks.cpg/sg65_9_cif.got.tgz:16476.got - 2010.06.03 17:01:31.
