data_PCOD9491483
_publ_section_title
;
Structure prediction by ZEFSAII (Michael W. Deem and Ramdas Pophale) SiO2 
 PCOD9491483
Probable space group: C M M M
;
_chemical_formula_sum "Si O2"
_cell_formula_units_Z 88
_cell_length_a 18.534701
_cell_length_b 7.580086
_cell_length_c 31.787842
_cell_angle_alpha 90.000000
_cell_angle_beta 90.000000
_cell_angle_gamma 90.000000
_cell_volume 4466.021023
_symmetry_space_group_name_H-M "C M M M"
_symmetry_group_IT_number 65
_symmetry_cell_setting 'orthorhombic'
loop_
_space_group_symop_operation_xyz
x,y,z
-x,-y,z
x,-y,-z
-x,y,-z
-x,-y,-z
x,y,-z
-x,y,z
x,-y,z
1/2+x,1/2+y,z
1/2-x,1/2-y,z
1/2+x,1/2-y,-z
1/2-x,1/2+y,-z
1/2-x,1/2-y,-z
1/2+x,1/2+y,-z
1/2-x,1/2+y,z
1/2+x,1/2-y,z
loop_
_atom_site_type_symbol
_atom_site_label
_atom_site_fract_x
_atom_site_fract_y
_atom_site_fract_z
Si Si1 0.416727 0.715108 0.688705
Si Si2 0.911932 0.795061 0.219636
Si Si3 0.585226 0.000000 0.550182
Si Si4 0.334628 0.208966 0.954419
Si Si5 0.581063 0.709897 0.870291
Si Si6 0.834882 0.790014 0.604016
O O1 0.500000 0.770235 0.681503
O O2 0.417841 0.500000 0.690801
O O3 0.392156 0.781166 0.734810
O O4 0.366424 0.762303 0.649817
O O5 0.889004 0.718581 0.174373
O O6 0.000000 0.792187 0.218695
O O7 0.888807 0.000000 0.220739
O O8 0.622986 0.171315 0.570395
O O9 0.500000 0.000000 0.560048
O O10 0.593936 0.000000 0.500000
O O11 0.250000 0.250000 0.951377
O O12 0.373798 0.267704 0.912324
O O13 0.343542 0.000000 0.955884
O O14 0.360243 0.281268 0.000000
O O15 0.500000 0.780049 0.876806
O O16 0.575364 0.500000 0.863646
O O17 0.750000 0.750000 0.601969
O O18 0.846740 0.000000 0.598110
#
# Coordination Sequence:
#
# PCOD9491483 Si02
#       6
#    16  16   8  16  16  16
#     4   8  14  27  53  83 111 148 194 237 279 334
#     4   7  11  23  45  75 106 139 178 218 265 321
#     4  11  26  46  68  96 127 161 209 265 311 365
#     4  10  21  36  52  68  90 125 167 215 269 325
#     4   9  17  30  51  77 105 135 169 212 261 319
#     4  11  22  40  63  93 128 169 207 252 311 368
#
# _framework density 19.704342
#
# number of rings (size 3 to 8) (size 9 to 14) (size 15 to 20)
#    0.000    2.818    0.909    3.273    0.000    3.636 
#    0.000    3.636    2.000    2.182    0.000    0.000 
#    0.000    0.000    0.000    0.000    0.000    0.000 
#
# Total GULP energy -245166.549557 kJ/mol
# GULP energy per Si atom -5571.967035 kJ/mol
# Density = 1.965949 g / cm^3
# Si number density = 19.704342 Si / 1000 Ang^3
#
#
#
# Elastic Constant Matrix: (Units=GPa)
#
#
# Indices 1 2 3 4 5 6 
#
# 1 86.6762 21.3188 90.6533 0.0000 0.0000 0.0000
# 2 21.3188 75.8505 43.0682 0.0000 0.0000 0.0000
# 3 90.6533 43.0682 197.5513 0.0000 0.0000 0.0000
# 4 0.0000 0.0000 0.0000 34.4651 0.0000 0.0000
# 5 0.0000 0.0000 0.0000 0.0000 -46.0551 0.0000
# 6 0.0000 0.0000 0.0000 0.0000 0.0000 -16.2587
#
#
#
# Elastic Compliance Matrix: (Units=1/GPa)
#
#
# Indices 1 2 3 4 5 6 
#
# 1 0.022202 -0.000520 -0.010075 0.000000 0.000000 0.000000
# 2 -0.000520 0.015059 -0.003044 0.000000 0.000000 0.000000
# 3 -0.010075 -0.003044 0.010349 0.000000 0.000000 0.000000
# 4 0.000000 0.000000 0.000000 0.029015 0.000000 0.000000
# 5 0.000000 0.000000 0.000000 0.000000 -0.021713 0.000000
# 6 0.000000 0.000000 0.000000 0.000000 0.000000 -0.061505
#
#
# Mechanical properties :
#
#
# Convention : Reuss Voigt Hill
#
# Bulk Modulus (GPa) = 49.18454 74.46208 61.82331
# Shear Modulus (GPa) = 182.07177 8.09942 95.08560
#
# Velocity S-wave (km/s) = 9.62302 2.02963 6.95420
# Velocity P-wave (km/s) = 12.18546 6.58515 9.79412
#
# Compressibility (1/GPa) = 0.02033159
#
# Stress axis : x y z
#
# Youngs Moduli (GPa) = 45.04031 66.40752 96.62789
#
# Poissons Ratio (x) = 0.03451 0.97353
# Poissons Ratio (y) = 0.02340 0.29418
# Poissons Ratio (z) = 0.45378 0.20217
#
# Static dielectric constant tensor:
#      x y z
#    x 1.646630 0.000000 0.000000 
#    y 0.000000 1.732200 0.000000 
#    z 0.000000 0.000000 1.746940 
# 
# From -- ./inp_files/77933.got.cif
#   From: 2010.05.17/outbox.cif.g08.bks.cpg/sg65_39_cif.got.tgz:77933.got - 2010.06.03 17:01:31.
