data_PCOD9491972
_publ_section_title
;
Structure prediction by ZEFSAII (Michael W. Deem and Ramdas Pophale) SiO2 
 PCOD9491972
Probable space group: C M M M
;
_chemical_formula_sum "Si O2"
_cell_formula_units_Z 80
_cell_length_a 15.038652
_cell_length_b 10.116459
_cell_length_c 25.575779
_cell_angle_alpha 90.000000
_cell_angle_beta 90.000000
_cell_angle_gamma 90.000000
_cell_volume 3891.045471
_symmetry_space_group_name_H-M "C M M M"
_symmetry_group_IT_number 65
_symmetry_cell_setting 'orthorhombic'
loop_
_space_group_symop_operation_xyz
x,y,z
-x,-y,z
x,-y,-z
-x,y,-z
-x,-y,-z
x,y,-z
-x,y,z
x,-y,z
1/2+x,1/2+y,z
1/2-x,1/2-y,z
1/2+x,1/2-y,-z
1/2-x,1/2+y,-z
1/2-x,1/2-y,-z
1/2+x,1/2+y,-z
1/2-x,1/2+y,z
1/2+x,1/2-y,z
loop_
_atom_site_type_symbol
_atom_site_label
_atom_site_fract_x
_atom_site_fract_y
_atom_site_fract_z
Si Si1 0.608509 0.000000 0.940155
Si Si2 0.837764 0.841615 0.557751
Si Si3 0.608892 0.500000 0.939944
Si Si4 0.392152 0.845068 0.236015
Si Si5 0.105250 0.350191 0.647610
Si Si6 0.391265 0.748260 0.873049
O O1 0.635383 0.874230 0.906761
O O2 0.500000 0.000000 0.942024
O O3 0.639235 0.000000 0.000000
O O4 0.881837 0.830284 0.500000
O O5 0.750000 0.750000 0.553996
O O6 0.882859 0.766711 0.606006
O O7 0.824075 0.000000 0.566143
O O8 0.500000 0.500000 0.941421
O O9 0.638173 0.375567 0.906427
O O10 0.638225 0.500000 0.000000
O O11 0.500000 0.832281 0.236956
O O12 0.358809 0.815186 0.294575
O O13 0.360601 0.759824 0.186848
O O14 0.373841 0.000000 0.225593
O O15 0.138247 0.500000 0.632689
O O16 0.000000 0.364649 0.653399
O O17 0.500000 0.746045 0.871468
#
# Coordination Sequence:
#
# PCOD9491972 Si02
#       6
#     8  16   8  16  16  16
#     4   9  14  18  28  44  60  88 136 187 226 264
#     4  10  21  37  56  77 102 132 166 203 244 293
#     4   9  16  22  26  38  64  96 134 183 234 278
#     4   8  13  24  40  57  79 110 150 192 232 277
#     4   9  18  32  51  75 103 134 168 206 247 293
#     4   9  14  21  31  43  64  97 138 184 229 272
#
# _framework density 20.560026000000001
#
# number of rings (size 3 to 8) (size 9 to 14) (size 15 to 20)
#    0.000    3.000    1.000    2.400    0.000    4.400 
#    1.800    2.000    0.000    0.000    0.000    0.000 
#    0.000    0.000    0.000    0.000    0.000    6.000 
#
# Total GULP energy -222697.421478 kJ/mol
# GULP energy per Si atom -5567.435537 kJ/mol
# Density = 2.051323 g / cm^3
# Si number density = 20.560026 Si / 1000 Ang^3
#
#
#
# Elastic Constant Matrix: (Units=GPa)
#
#
# Indices 1 2 3 4 5 6 
#
# 1 32.2795 6.5340 14.9046 0.0000 0.0000 0.0000
# 2 6.5340 181.1136 118.5028 0.0000 0.0000 0.0000
# 3 14.9046 118.5028 215.4401 0.0000 0.0000 0.0000
# 4 0.0000 0.0000 0.0000 5.5383 0.0000 0.0000
# 5 0.0000 0.0000 0.0000 0.0000 58.3834 0.0000
# 6 0.0000 0.0000 0.0000 0.0000 0.0000 8.4513
#
#
#
# Elastic Compliance Matrix: (Units=1/GPa)
#
#
# Indices 1 2 3 4 5 6 
#
# 1 0.032026 0.000460 -0.002469 0.000000 0.000000 0.000000
# 2 0.000460 0.008632 -0.004780 0.000000 0.000000 0.000000
# 3 -0.002469 -0.004780 0.007442 0.000000 0.000000 0.000000
# 4 0.000000 0.000000 0.000000 0.180562 0.000000 0.000000
# 5 0.000000 0.000000 0.000000 0.000000 0.017128 0.000000
# 6 0.000000 0.000000 0.000000 0.000000 0.000000 0.118325
#
#
# Mechanical properties :
#
#
# Convention : Reuss Voigt Hill
#
# Bulk Modulus (GPa) = 28.96650 78.74625 53.85638
# Shear Modulus (GPa) = 12.84684 33.73404 23.29044
#
# Velocity S-wave (km/s) = 2.50240 4.05502 3.36936
# Velocity P-wave (km/s) = 4.74012 7.76583 6.43338
#
# Compressibility (1/GPa) = 0.03452263
#
# Stress axis : x y z
#
# Youngs Moduli (GPa) = 31.22444 115.84250 134.37764
#
# Poissons Ratio (x) = -0.05326 0.33172
# Poissons Ratio (y) = -0.01436 0.64233
# Poissons Ratio (z) = 0.07708 0.55373
#
# Static dielectric constant tensor:
#      x y z
#    x 1.818900 0.000000 0.000000 
#    y 0.000000 1.734740 0.000000 
#    z 0.000000 0.000000 1.771310 
# 
# From -- ./inp_files/70873.got.cif
#   From: 2010.05.17/outbox.cif.g08.bks.cpg/sg65_36_cif.got.tgz:70873.got - 2010.06.03 17:01:31.
