data_PCOD9491619
_publ_section_title
;
Structure prediction by ZEFSAII (Michael W. Deem and Ramdas Pophale) SiO2 
 PCOD9491619
Probable space group: C M M M
;
_chemical_formula_sum "Si O2"
_cell_formula_units_Z 88
_cell_length_a 17.744678
_cell_length_b 15.081449
_cell_length_c 18.011618
_cell_angle_alpha 90.000000
_cell_angle_beta 90.000000
_cell_angle_gamma 90.000000
_cell_volume 4820.187369
_symmetry_space_group_name_H-M "C M M M"
_symmetry_group_IT_number 65
_symmetry_cell_setting 'orthorhombic'
loop_
_space_group_symop_operation_xyz
x,y,z
-x,-y,z
x,-y,-z
-x,y,-z
-x,-y,-z
x,y,-z
-x,y,z
x,-y,z
1/2+x,1/2+y,z
1/2-x,1/2-y,z
1/2+x,1/2-y,-z
1/2-x,1/2+y,-z
1/2-x,1/2-y,-z
1/2+x,1/2+y,-z
1/2-x,1/2+y,z
1/2+x,1/2-y,z
loop_
_atom_site_type_symbol
_atom_site_label
_atom_site_fract_x
_atom_site_fract_y
_atom_site_fract_z
Si Si1 0.586030 0.607637 0.000000
Si Si2 0.415359 0.500000 0.589653
Si Si3 0.913014 0.607860 0.000000
Si Si4 0.409680 0.243902 0.260418
Si Si5 0.343546 0.394975 0.842238
Si Si6 0.407895 0.306206 0.584108
Si Si7 0.836157 0.604655 0.846297
O O1 0.625957 0.632905 0.923408
O O2 0.586059 0.500000 0.000000
O O3 0.500000 0.638600 0.000000
O O4 0.500000 0.500000 0.622397
O O5 0.422520 0.500000 0.500000
O O6 0.379805 0.405170 0.605806
O O7 0.869597 0.634820 0.074401
O O8 0.913158 0.500000 0.000000
O O9 0.000000 0.637121 0.000000
O O10 0.500000 0.242254 0.255431
O O11 0.380307 0.332668 0.219617
O O12 0.387713 0.244363 0.347322
O O13 0.374693 0.161761 0.217191
O O14 0.360730 0.500000 0.830889
O O15 0.253596 0.384140 0.843341
O O16 0.383830 0.283788 0.500000
O O17 0.500000 0.311677 0.581828
O O18 0.852626 0.500000 0.838305
#
# Coordination Sequence:
#
# PCOD9491619 Si02
#       7
#     8   8   8  16  16  16  16
#     4   9  17  32  53  78 110 143 175 214 265 322
#     4   7  10  20  40  66  98 133 161 193 245 307
#     4   9  17  32  57  82 100 125 175 240 283 302
#     4  11  22  33  53  83 109 136 174 224 273 315
#     4  10  21  36  54  76 108 148 180 210 256 324
#     4   8  15  28  47  74 107 138 169 211 266 321
#     4  10  21  38  56  75 105 144 184 223 266 317
#
# _framework density 18.256551000000002
#
# number of rings (size 3 to 8) (size 9 to 14) (size 15 to 20)
#    0.000    2.636    0.000    3.273    1.273    5.091 
#    0.000    3.636    0.000    2.727    0.000    5.091 
#    0.000    0.000    0.000    0.000    0.000    0.000 
#
# Total GULP energy -245359.244452 kJ/mol
# GULP energy per Si atom -5576.346465 kJ/mol
# Density = 1.821500 g / cm^3
# Si number density = 18.256551 Si / 1000 Ang^3
#
#
#
# Elastic Constant Matrix: (Units=GPa)
#
#
# Indices 1 2 3 4 5 6 
#
# 1 66.2823 41.5154 49.0013 0.0000 0.0000 0.0000
# 2 41.5154 66.5769 62.1672 0.0000 0.0000 0.0000
# 3 49.0013 62.1672 163.8817 0.0000 0.0000 0.0000
# 4 0.0000 0.0000 0.0000 28.5704 0.0000 0.0000
# 5 0.0000 0.0000 0.0000 0.0000 -18.5630 0.0000
# 6 0.0000 0.0000 0.0000 0.0000 0.0000 22.8518
#
#
#
# Elastic Compliance Matrix: (Units=1/GPa)
#
#
# Indices 1 2 3 4 5 6 
#
# 1 0.025378 -0.013533 -0.002454 0.000000 0.000000 0.000000
# 2 -0.013533 0.030476 -0.007514 0.000000 0.000000 0.000000
# 3 -0.002454 -0.007514 0.009686 0.000000 0.000000 0.000000
# 4 0.000000 0.000000 0.000000 0.035001 0.000000 0.000000
# 5 0.000000 0.000000 0.000000 0.000000 -0.053870 0.000000
# 6 0.000000 0.000000 0.000000 0.000000 0.000000 0.043760
#
#
# Mechanical properties :
#
#
# Convention : Reuss Voigt Hill
#
# Bulk Modulus (GPa) = 53.94808 66.90098 60.42453
# Shear Modulus (GPa) = 34.81583 16.17562 25.49572
#
# Velocity S-wave (km/s) = 4.37170 2.97983 3.74106
# Velocity P-wave (km/s) = 7.42270 6.96876 7.19931
#
# Compressibility (1/GPa) = 0.01853634
#
# Stress axis : x y z
#
# Youngs Moduli (GPa) = 39.40453 32.81318 103.23845
#
# Poissons Ratio (x) = 0.44406 0.25339
# Poissons Ratio (y) = 0.53326 0.77576
# Poissons Ratio (z) = 0.09672 0.24657
#
# Static dielectric constant tensor:
#      x y z
#    x 1.605910 0.000000 0.000000 
#    y 0.000000 1.661690 0.000000 
#    z 0.000000 0.000000 1.622460 
# 
# From -- ./inp_files/54359.got.cif
#   From: 2010.05.17/outbox.cif.g08.bks.cpg/sg65_28_cif.got.tgz:54359.got - 2010.06.03 17:01:31.
