data_PCOD9491266
_publ_section_title
;
Structure prediction by ZEFSAII (Michael W. Deem and Ramdas Pophale) SiO2 
 PCOD9491266
Probable space group: C M M M
;
_chemical_formula_sum "Si O2"
_cell_formula_units_Z 120
_cell_length_a 26.225209
_cell_length_b 22.030539
_cell_length_c 12.124861
_cell_angle_alpha 90.000000
_cell_angle_beta 90.000000
_cell_angle_gamma 90.000000
_cell_volume 7005.205004
_symmetry_space_group_name_H-M "C M M M"
_symmetry_group_IT_number 65
_symmetry_cell_setting 'orthorhombic'
loop_
_space_group_symop_operation_xyz
x,y,z
-x,-y,z
x,-y,-z
-x,y,-z
-x,-y,-z
x,y,-z
-x,y,z
x,-y,z
1/2+x,1/2+y,z
1/2-x,1/2-y,z
1/2+x,1/2-y,-z
1/2-x,1/2+y,-z
1/2-x,1/2-y,-z
1/2+x,1/2+y,-z
1/2-x,1/2+y,z
1/2+x,1/2-y,z
loop_
_atom_site_type_symbol
_atom_site_label
_atom_site_fract_x
_atom_site_fract_y
_atom_site_fract_z
Si Si1 0.876140 0.839173 0.773505
Si Si2 0.817501 0.572868 0.873929
Si Si3 0.614475 0.858011 0.294952
Si Si4 0.938841 0.931502 0.371402
Si Si5 0.561551 0.927038 0.500000
Si Si6 0.939597 0.732251 0.873630
Si Si7 0.309684 0.753078 0.630898
Si Si8 0.295506 0.568723 0.131974
O O1 0.913877 0.879884 0.701080
O O2 0.907929 0.793543 0.850356
O O3 0.840829 0.798320 0.695022
O O4 0.839356 0.885396 0.836135
O O5 0.817342 0.500000 0.877516
O O6 0.859542 0.596241 0.790814
O O7 0.760815 0.590836 0.833521
O O8 0.825252 0.594958 0.000000
O O9 0.585512 0.893442 0.392744
O O10 0.578066 0.815207 0.220215
O O11 0.659958 0.815280 0.342121
O O12 0.924852 0.924128 0.500000
O O13 0.000000 0.928210 0.364441
O O14 0.923658 0.000000 0.337270
O O15 0.500000 0.920282 0.500000
O O16 0.572679 0.000000 0.500000
O O17 0.000000 0.743168 0.863614
O O18 0.929523 0.711494 0.000000
O O19 0.312085 0.743017 0.500000
O O20 0.250000 0.750000 0.663597
O O21 0.304126 0.500000 0.174437
O O22 0.292697 0.564859 0.000000
#
# Coordination Sequence:
#
# PCOD9491266 Si02
#       8
#    16  16  16  16   8  16  16  16
#     4  11  19  31  53  74 100 137 181 215 262 316
#     4   9  18  33  55  82 108 135 171 212 256 310
#     4  11  20  37  59  79 105 141 175 211 259 320
#     4   9  18  32  49  71 100 134 177 229 275 313
#     4  11  24  40  59  84 110 136 170 215 262 313
#     4  10  22  37  53  76 106 139 177 223 266 307
#     4  10  21  35  50  74 105 138 173 211 254 301
#     4   9  18  32  50  76 108 138 171 215 262 309
#
# _framework density 17.130119000000001
#
# number of rings (size 3 to 8) (size 9 to 14) (size 15 to 20)
#    0.000    2.067    0.667    4.800    0.000    0.000 
#    0.000    0.000    0.000    6.400    0.000   11.200 
#    0.000    0.000    0.000    0.000    0.000    0.000 
#
# Total GULP energy -334562.951100 kJ/mol
# GULP energy per Si atom -5576.049185 kJ/mol
# Density = 1.709113 g / cm^3
# Si number density = 17.130119 Si / 1000 Ang^3
#
#
#
# Elastic Constant Matrix: (Units=GPa)
#
#
# Indices 1 2 3 4 5 6 
#
# 1 105.9602 50.5758 55.8841 0.0000 0.0000 0.0000
# 2 50.5758 82.5976 44.6350 0.0000 0.0000 0.0000
# 3 55.8841 44.6350 87.1938 0.0000 0.0000 0.0000
# 4 0.0000 0.0000 0.0000 27.9616 0.0000 0.0000
# 5 0.0000 0.0000 0.0000 0.0000 32.0698 0.0000
# 6 0.0000 0.0000 0.0000 0.0000 0.0000 33.2897
#
#
#
# Elastic Compliance Matrix: (Units=1/GPa)
#
#
# Indices 1 2 3 4 5 6 
#
# 1 0.016112 -0.005924 -0.007294 0.000000 0.000000 0.000000
# 2 -0.005924 0.018915 -0.005886 0.000000 0.000000 0.000000
# 3 -0.007294 -0.005886 0.019156 0.000000 0.000000 0.000000
# 4 0.000000 0.000000 0.000000 0.035763 0.000000 0.000000
# 5 0.000000 0.000000 0.000000 0.000000 0.031182 0.000000
# 6 0.000000 0.000000 0.000000 0.000000 0.000000 0.030039
#
#
# Mechanical properties :
#
#
# Convention : Reuss Voigt Hill
#
# Bulk Modulus (GPa) = 62.59458 64.21572 63.40515
# Shear Modulus (GPa) = 25.68043 26.97467 26.32755
#
# Velocity S-wave (km/s) = 3.87607 3.97254 3.92460
# Velocity P-wave (km/s) = 7.52675 7.65571 7.59150
#
# Compressibility (1/GPa) = 0.01597582
#
# Stress axis : x y z
#
# Youngs Moduli (GPa) = 62.06576 52.86824 52.20169
#
# Poissons Ratio (x) = 0.31319 0.38075
# Poissons Ratio (y) = 0.36768 0.30725
# Poissons Ratio (z) = 0.45270 0.31117
#
# Static dielectric constant tensor:
#      x y z
#    x 1.572710 0.000000 0.000000 
#    y 0.000000 1.574510 0.000000 
#    z 0.000000 0.000000 1.562220 
# 
# From -- ./inp_files/31145.got.cif
#   From: 2010.05.17/outbox.cif.g08.bks.cpg/sg65_16_cif.got.tgz:31145.got - 2010.06.03 17:01:31.
