data_PCOD9491506
_publ_section_title
;
Structure prediction by ZEFSAII (Michael W. Deem and Ramdas Pophale) SiO2 
 PCOD9491506
Probable space group: C M M M
;
_chemical_formula_sum "Si O2"
_cell_formula_units_Z 72
_cell_length_a 29.705652
_cell_length_b 8.850129
_cell_length_c 15.672390
_cell_angle_alpha 90.000000
_cell_angle_beta 90.000000
_cell_angle_gamma 90.000000
_cell_volume 4120.253343
_symmetry_space_group_name_H-M "C M M M"
_symmetry_group_IT_number 65
_symmetry_cell_setting 'orthorhombic'
loop_
_space_group_symop_operation_xyz
x,y,z
-x,-y,z
x,-y,-z
-x,y,-z
-x,-y,-z
x,y,-z
-x,y,z
x,-y,z
1/2+x,1/2+y,z
1/2-x,1/2-y,z
1/2+x,1/2-y,-z
1/2-x,1/2+y,-z
1/2-x,1/2-y,-z
1/2+x,1/2+y,-z
1/2-x,1/2+y,z
1/2+x,1/2-y,z
loop_
_atom_site_type_symbol
_atom_site_label
_atom_site_fract_x
_atom_site_fract_y
_atom_site_fract_z
Si Si1 0.445423 0.830105 0.000000
Si Si2 0.298958 0.180348 0.400672
Si Si3 0.699895 0.181252 0.902169
Si Si4 0.142745 0.181440 0.747615
Si Si5 0.448912 0.681426 0.178502
O O1 0.434059 0.744867 0.086644
O O2 0.500000 0.837687 0.000000
O O3 0.427055 0.000000 0.000000
O O4 0.309169 0.213696 0.500000
O O5 0.250000 0.250000 0.381532
O O6 0.334402 0.250816 0.335978
O O7 0.297008 0.000000 0.390050
O O8 0.750000 0.250000 0.892766
O O9 0.668350 0.253405 0.830504
O O10 0.701665 0.000000 0.891469
O O11 0.684963 0.213080 0.000000
O O12 0.090051 0.222943 0.755579
O O13 0.146834 0.000000 0.747586
O O14 0.500000 0.734204 0.197034
O O15 0.450233 0.500000 0.172757
#
# Coordination Sequence:
#
# PCOD9491506 Si02
#       5
#     8  16  16  16  16
#     4   9  17  29  47  71  98 131 174 223 269 307
#     4  10  21  38  60  84 110 138 170 213 264 319
#     4  10  21  36  52  72 103 142 179 217 258 309
#     4  11  22  34  54  80 106 139 177 220 265 315
#     4   9  19  35  52  72 102 141 182 222 264 310
#
# _framework density 17.474653
#
# number of rings (size 3 to 8) (size 9 to 14) (size 15 to 20)
#    0.000    2.111    0.000    3.000    1.556    5.778 
#    0.000    0.000    0.000    0.667    0.000    4.667 
#    0.000    0.000    0.000    0.000    0.000    0.000 
#
# Total GULP energy -200984.793837 kJ/mol
# GULP energy per Si atom -5582.910940 kJ/mol
# Density = 1.743488 g / cm^3
# Si number density = 17.474653 Si / 1000 Ang^3
#
#
#
# Elastic Constant Matrix: (Units=GPa)
#
#
# Indices 1 2 3 4 5 6 
#
# 1 126.7003 49.3518 90.3044 0.0000 0.0000 0.0000
# 2 49.3518 52.0500 48.1814 0.0000 0.0000 0.0000
# 3 90.3044 48.1814 99.5594 0.0000 0.0000 0.0000
# 4 0.0000 0.0000 0.0000 21.0725 0.0000 0.0000
# 5 0.0000 0.0000 0.0000 0.0000 24.2185 0.0000
# 6 0.0000 0.0000 0.0000 0.0000 0.0000 20.4002
#
#
#
# Elastic Compliance Matrix: (Units=1/GPa)
#
#
# Indices 1 2 3 4 5 6 
#
# 1 0.022894 -0.004501 -0.018587 0.000000 0.000000 0.000000
# 2 -0.004501 0.035688 -0.013188 0.000000 0.000000 0.000000
# 3 -0.018587 -0.013188 0.033286 0.000000 0.000000 0.000000
# 4 0.000000 0.000000 0.000000 0.047455 0.000000 0.000000
# 5 0.000000 0.000000 0.000000 0.000000 0.041291 0.000000
# 6 0.000000 0.000000 0.000000 0.000000 0.000000 0.049019
#
#
# Mechanical properties :
#
#
# Convention : Reuss Voigt Hill
#
# Bulk Modulus (GPa) = 51.77470 72.66501 62.21986
# Shear Modulus (GPa) = 16.20086 19.16973 17.68529
#
# Velocity S-wave (km/s) = 3.04815 3.31570 3.18473
# Velocity P-wave (km/s) = 6.48699 7.50545 7.01473
#
# Compressibility (1/GPa) = 0.01931445
#
# Stress axis : x y z
#
# Youngs Moduli (GPa) = 43.67980 28.02028 30.04252
#
# Poissons Ratio (x) = 0.12613 0.55841
# Poissons Ratio (y) = 0.19662 0.39621
# Poissons Ratio (z) = 0.81189 0.36954
#
# Static dielectric constant tensor:
#      x y z
#    x 1.615370 0.000000 0.000000 
#    y 0.000000 1.588120 0.000000 
#    z 0.000000 0.000000 1.568700 
# 
# From -- ./inp_files/36566.got.cif
#   From: 2010.05.17/outbox.cif.g08.bks.cpg/sg65_19_cif.got.tgz:36566.got - 2010.06.03 17:01:31.
