data_PCOD9491955
_publ_section_title
;
Structure prediction by ZEFSAII (Michael W. Deem and Ramdas Pophale) SiO2 
 PCOD9491955
Probable space group: C M M M
;
_chemical_formula_sum "Si O2"
_cell_formula_units_Z 104
_cell_length_a 21.683638
_cell_length_b 29.022641
_cell_length_c 8.311634
_cell_angle_alpha 90.000000
_cell_angle_beta 90.000000
_cell_angle_gamma 90.000000
_cell_volume 5230.647930
_symmetry_space_group_name_H-M "C M M M"
_symmetry_group_IT_number 65
_symmetry_cell_setting 'orthorhombic'
loop_
_space_group_symop_operation_xyz
x,y,z
-x,-y,z
x,-y,-z
-x,y,-z
-x,-y,-z
x,y,-z
-x,y,z
x,-y,z
1/2+x,1/2+y,z
1/2-x,1/2-y,z
1/2+x,1/2-y,-z
1/2-x,1/2+y,-z
1/2-x,1/2-y,-z
1/2+x,1/2+y,-z
1/2-x,1/2+y,z
1/2+x,1/2-y,z
loop_
_atom_site_type_symbol
_atom_site_label
_atom_site_fract_x
_atom_site_fract_y
_atom_site_fract_z
Si Si1 0.500000 0.552543 0.808645
Si Si2 0.674139 0.948697 0.806231
Si Si3 0.402653 0.625660 0.308850
Si Si4 0.567472 0.727753 0.303567
Si Si5 0.430168 0.887705 0.693865
Si Si6 0.736288 0.633592 0.807526
Si Si7 0.840068 0.696045 0.305726
O O1 0.500000 0.500000 0.743675
O O2 0.559559 0.582534 0.758658
O O3 0.500000 0.549576 0.000000
O O4 0.606788 0.932204 0.752577
O O5 0.721887 0.909617 0.750489
O O6 0.688656 0.000000 0.748370
O O7 0.676176 0.948705 0.000000
O O8 0.410841 0.624532 0.500000
O O9 0.428646 0.674906 0.250257
O O10 0.330770 0.627555 0.266687
O O11 0.569020 0.728442 0.500000
O O12 0.500000 0.747191 0.257363
O O13 0.626778 0.757072 0.250454
O O14 0.431451 0.887707 0.500000
O O15 0.500000 0.885184 0.753150
O O16 0.389038 0.843757 0.742160
O O17 0.774088 0.679553 0.759262
O O18 0.731342 0.632199 0.000000
O O19 0.835402 0.697084 0.500000
#
# Coordination Sequence:
#
# PCOD9491955 Si02
#       7
#     8  16  16  16  16  16  16
#     4  11  25  45  67  91 121 155 189 229 288 357
#     4   9  19  35  52  69  94 135 183 226 271 329
#     4  11  22  39  63  90 117 145 186 235 283 336
#     4   9  17  32  57  86 114 147 188 235 282 334
#     4   9  17  29  47  74 105 136 174 224 274 319
#     4  10  21  37  55  78 113 150 187 235 289 343
#     4   9  17  32  55  80 108 148 194 231 271 329
#
# _framework density 19.882815999999998
#
# number of rings (size 3 to 8) (size 9 to 14) (size 15 to 20)
#    0.000    2.385    0.769    1.615    0.000    5.231 
#    0.000    7.692    0.000    0.923    0.000    0.000 
#    0.000    0.000    0.000    0.000    0.000    0.000 
#
# Total GULP energy -290100.583286 kJ/mol
# GULP energy per Si atom -5578.857371 kJ/mol
# Density = 1.983756 g / cm^3
# Si number density = 19.882816 Si / 1000 Ang^3
#
#
#
# Elastic Constant Matrix: (Units=GPa)
#
#
# Indices 1 2 3 4 5 6 
#
# 1 136.3813 52.1401 8.8763 0.0000 0.0000 0.0000
# 2 52.1401 121.9516 17.1102 0.0000 0.0000 0.0000
# 3 8.8763 17.1102 11.6802 0.0000 0.0000 0.0000
# 4 0.0000 0.0000 0.0000 4.3158 0.0000 0.0000
# 5 0.0000 0.0000 0.0000 0.0000 9.2998 0.0000
# 6 0.0000 0.0000 0.0000 0.0000 0.0000 7.8459
#
#
#
# Elastic Compliance Matrix: (Units=1/GPa)
#
#
# Indices 1 2 3 4 5 6 
#
# 1 0.008785 -0.003549 -0.001478 0.000000 0.000000 0.000000
# 2 -0.003549 0.011755 -0.014523 0.000000 0.000000 0.000000
# 3 -0.001478 -0.014523 0.108012 0.000000 0.000000 0.000000
# 4 0.000000 0.000000 0.000000 0.231708 0.000000 0.000000
# 5 0.000000 0.000000 0.000000 0.000000 0.107530 0.000000
# 6 0.000000 0.000000 0.000000 0.000000 0.000000 0.127455
#
#
# Mechanical properties :
#
#
# Convention : Reuss Voigt Hill
#
# Bulk Modulus (GPa) = 11.17898 47.36293 29.27095
# Shear Modulus (GPa) = 7.52830 17.08472 12.30651
#
# Velocity S-wave (km/s) = 1.94796 2.93451 2.49057
# Velocity P-wave (km/s) = 3.27018 5.94597 4.79836
#
# Compressibility (1/GPa) = 0.08945358
#
# Stress axis : x y z
#
# Youngs Moduli (GPa) = 113.82637 85.07150 9.25826
#
# Poissons Ratio (x) = 0.30190 0.01368
# Poissons Ratio (y) = 0.40395 0.13445
# Poissons Ratio (z) = 0.16821 1.23546
#
# Static dielectric constant tensor:
#      x y z
#    x 1.704740 0.000000 0.000000 
#    y 0.000000 1.722940 0.000000 
#    z 0.000000 0.000000 1.691640 
# 
# From -- ./inp_files/12455.got.cif
#   From: 2010.05.17/outbox.cif.g08.bks.cpg/sg65_7_cif.got.tgz:12455.got - 2010.06.03 17:01:31.
