data_PCOD9491691
_publ_section_title
;
Structure prediction by ZEFSAII (Michael W. Deem and Ramdas Pophale) SiO2 
 PCOD9491691
Probable space group: C M M M
;
_chemical_formula_sum "Si O2"
_cell_formula_units_Z 88
_cell_length_a 8.774352
_cell_length_b 21.597229
_cell_length_c 24.220875
_cell_angle_alpha 90.000000
_cell_angle_beta 90.000000
_cell_angle_gamma 90.000000
_cell_volume 4589.896733
_symmetry_space_group_name_H-M "C M M M"
_symmetry_group_IT_number 65
_symmetry_cell_setting 'orthorhombic'
loop_
_space_group_symop_operation_xyz
x,y,z
-x,-y,z
x,-y,-z
-x,y,-z
-x,-y,-z
x,y,-z
-x,y,z
x,-y,z
1/2+x,1/2+y,z
1/2-x,1/2-y,z
1/2+x,1/2-y,-z
1/2-x,1/2+y,-z
1/2-x,1/2-y,-z
1/2+x,1/2+y,-z
1/2-x,1/2+y,z
1/2+x,1/2-y,z
loop_
_atom_site_type_symbol
_atom_site_label
_atom_site_fract_x
_atom_site_fract_y
_atom_site_fract_z
Si Si1 0.683762 0.930129 0.132371
Si Si2 0.318110 0.368679 0.435651
Si Si3 0.317855 0.684095 0.935230
Si Si4 0.314942 0.931744 0.738205
Si Si5 0.672634 0.000000 0.433214
Si Si6 0.317770 0.186470 0.669014
O O1 0.500000 0.926288 0.128430
O O2 0.755808 0.874576 0.098106
O O3 0.724161 0.924695 0.197243
O O4 0.728298 0.000000 0.114248
O O5 0.277582 0.358293 0.500000
O O6 0.500000 0.365191 0.430732
O O7 0.259863 0.437265 0.419357
O O8 0.238050 0.322663 0.393582
O O9 0.500000 0.686620 0.931075
O O10 0.250000 0.750000 0.915909
O O11 0.275953 0.677281 0.000000
O O12 0.500000 0.932065 0.735214
O O13 0.262086 0.873491 0.702901
O O14 0.262811 0.000000 0.719109
O O15 0.500000 0.000000 0.410538
O O16 0.662609 0.000000 0.500000
O O17 0.500000 0.188557 0.670685
O O18 0.250000 0.250000 0.691732
#
# Coordination Sequence:
#
# PCOD9491691 Si02
#       6
#    16  16  16  16   8  16
#     4   9  18  35  59  85 114 148 187 230 280 337
#     4  10  21  37  56  80 112 145 180 227 278 328
#     4  10  21  36  54  79 114 154 195 238 282 330
#     4   8  17  36  60  84 109 142 185 231 279 329
#     4   9  17  31  53  81 109 139 177 215 258 319
#     4  11  23  38  58  82 112 146 184 229 279 339
#
# _framework density 19.172543999999998
#
# number of rings (size 3 to 8) (size 9 to 14) (size 15 to 20)
#    0.000    2.455    0.000    3.000    1.273    5.091 
#    0.000    5.455    0.000    2.182    0.000    0.000 
#    0.000    0.000    0.000    0.000    0.000    0.000 
#
# Total GULP energy -245606.863115 kJ/mol
# GULP energy per Si atom -5581.974162 kJ/mol
# Density = 1.912891 g / cm^3
# Si number density = 19.172544 Si / 1000 Ang^3
#
#
#
# Elastic Constant Matrix: (Units=GPa)
#
#
# Indices 1 2 3 4 5 6 
#
# 1 41.6242 43.7863 27.0726 0.0000 0.0000 0.0000
# 2 43.7863 192.7940 81.4371 0.0000 0.0000 0.0000
# 3 27.0726 81.4371 66.6589 0.0000 0.0000 0.0000
# 4 0.0000 0.0000 0.0000 -1.3389 0.0000 0.0000
# 5 0.0000 0.0000 0.0000 0.0000 17.0278 0.0000
# 6 0.0000 0.0000 0.0000 0.0000 0.0000 36.8159
#
#
#
# Elastic Compliance Matrix: (Units=1/GPa)
#
#
# Indices 1 2 3 4 5 6 
#
# 1 0.034014 -0.003905 -0.009044 0.000000 0.000000 0.000000
# 2 -0.003905 0.011166 -0.012056 0.000000 0.000000 0.000000
# 3 -0.009044 -0.012056 0.033403 0.000000 0.000000 0.000000
# 4 0.000000 0.000000 0.000000 -0.746896 0.000000 0.000000
# 5 0.000000 0.000000 0.000000 0.000000 0.058728 0.000000
# 6 0.000000 0.000000 0.000000 0.000000 0.000000 0.027162
#
#
# Mechanical properties :
#
#
# Convention : Reuss Voigt Hill
#
# Bulk Modulus (GPa) = 34.99579 67.29658 51.14618
# Shear Modulus (GPa) = -9.56226 20.41970 5.42872
#
# Velocity S-wave (km/s) = -2.23569 3.26705 1.68453
# Velocity P-wave (km/s) = 3.41003 7.02910 5.52433
#
# Compressibility (1/GPa) = 0.02857486
#
# Stress axis : x y z
#
# Youngs Moduli (GPa) = 29.39926 89.55624 29.93733
#
# Poissons Ratio (x) = 0.34972 0.27074
# Poissons Ratio (y) = 0.11481 0.36092
# Poissons Ratio (z) = 0.26588 1.07966
#
# Static dielectric constant tensor:
#      x y z
#    x 1.644770 0.000000 0.000000 
#    y 0.000000 1.686280 0.000000 
#    z 0.000000 0.000000 1.671260 
# 
# From -- ./inp_files/67590.got.cif
#   From: 2010.05.17/outbox.cif.g08.bks.cpg/sg65_34_cif.got.tgz:67590.got - 2010.06.03 17:01:31.
