data_PCOD9491054
_publ_section_title
;
Structure prediction by ZEFSAII (Michael W. Deem and Ramdas Pophale) SiO2 
 PCOD9491054
Probable space group: C M M M
;
_chemical_formula_sum "Si O2"
_cell_formula_units_Z 72
_cell_length_a 13.523039
_cell_length_b 18.728075
_cell_length_c 15.661545
_cell_angle_alpha 90.000000
_cell_angle_beta 90.000000
_cell_angle_gamma 90.000000
_cell_volume 3966.450539
_symmetry_space_group_name_H-M "C M M M"
_symmetry_group_IT_number 65
_symmetry_cell_setting 'orthorhombic'
loop_
_space_group_symop_operation_xyz
x,y,z
-x,-y,z
x,-y,-z
-x,y,-z
-x,-y,-z
x,y,-z
-x,y,z
x,-y,z
1/2+x,1/2+y,z
1/2-x,1/2-y,z
1/2+x,1/2-y,-z
1/2-x,1/2+y,-z
1/2-x,1/2-y,-z
1/2+x,1/2+y,-z
1/2-x,1/2+y,z
1/2+x,1/2-y,z
loop_
_atom_site_type_symbol
_atom_site_label
_atom_site_fract_x
_atom_site_fract_y
_atom_site_fract_z
Si Si1 0.382300 0.653579 0.399185
Si Si2 0.722112 0.888698 0.171665
Si Si3 0.116831 0.414161 0.000000
Si Si4 0.881419 0.000000 0.104680
Si Si5 0.750000 0.250000 0.284529
Si Si6 0.700836 0.500000 0.600833
Si Si7 0.115687 0.500000 0.291342
O O1 0.356012 0.659339 0.500000
O O2 0.500000 0.654507 0.391969
O O3 0.334609 0.718551 0.346988
O O4 0.344594 0.575241 0.367292
O O5 0.822287 0.932689 0.146641
O O6 0.733360 0.815827 0.221538
O O7 0.651647 0.934817 0.233133
O O8 0.665403 0.881024 0.083019
O O9 0.136700 0.500000 0.000000
O O10 0.000000 0.405156 0.000000
O O11 0.000000 0.000000 0.121686
O O12 0.869702 0.000000 0.000000
O O13 0.683376 0.500000 0.500000
O O14 0.815778 0.500000 0.625204
O O15 0.000000 0.500000 0.307725
#
# Coordination Sequence:
#
# PCOD9491054 Si02
#       7
#    16  16   8   8   8   8   8
#     4  10  22  42  66  90 120 161 205 250 304 362
#     4  11  22  40  60  90 121 160 202 251 299 365
#     4  11  20  37  64  86 112 156 210 255 299 349
#     4  10  20  41  68  89 114 154 206 259 308 356
#     4  12  25  39  60  88 134 162 194 243 307 378
#     4  10  20  41  67  92 118 151 206 264 303 356
#     4  11  21  38  63  90 119 155 204 253 298 353
#
# _framework density 18.152249999999999
#
# number of rings (size 3 to 8) (size 9 to 14) (size 15 to 20)
#    0.000    1.333    5.556    1.333    0.000    4.667 
#    0.000    0.000    0.000    0.000    0.000    0.000 
#    0.000    0.000    0.000    0.000    0.000    0.000 
#
# Total GULP energy -200731.562243 kJ/mol
# GULP energy per Si atom -5575.876729 kJ/mol
# Density = 1.811093 g / cm^3
# Si number density = 18.152250 Si / 1000 Ang^3
#
#
#
# Elastic Constant Matrix: (Units=GPa)
#
#
# Indices 1 2 3 4 5 6 
#
# 1 130.8380 62.9318 37.5641 0.0000 0.0000 0.0000
# 2 62.9318 133.9939 59.5530 0.0000 0.0000 0.0000
# 3 37.5641 59.5530 73.9408 0.0000 0.0000 0.0000
# 4 0.0000 0.0000 0.0000 37.5747 0.0000 0.0000
# 5 0.0000 0.0000 0.0000 0.0000 27.7168 0.0000
# 6 0.0000 0.0000 0.0000 0.0000 0.0000 10.6680
#
#
#
# Elastic Compliance Matrix: (Units=1/GPa)
#
#
# Indices 1 2 3 4 5 6 
#
# 1 0.010066 -0.003824 -0.002034 0.000000 0.000000 0.000000
# 2 -0.003824 0.013076 -0.008589 0.000000 0.000000 0.000000
# 3 -0.002034 -0.008589 0.021476 0.000000 0.000000 0.000000
# 4 0.000000 0.000000 0.000000 0.026614 0.000000 0.000000
# 5 0.000000 0.000000 0.000000 0.000000 0.036079 0.000000
# 6 0.000000 0.000000 0.000000 0.000000 0.000000 0.093739
#
#
# Mechanical properties :
#
#
# Convention : Reuss Voigt Hill
#
# Bulk Modulus (GPa) = 63.59799 73.20782 68.40290
# Shear Modulus (GPa) = 21.25980 27.10682 24.18331
#
# Velocity S-wave (km/s) = 3.42598 3.86852 3.65396
# Velocity P-wave (km/s) = 7.12473 7.76990 7.45430
#
# Compressibility (1/GPa) = 0.01572377
#
# Stress axis : x y z
#
# Youngs Moduli (GPa) = 99.34237 76.47423 46.56386
#
# Poissons Ratio (x) = 0.29240 0.09473
# Poissons Ratio (y) = 0.37984 0.39995
# Poissons Ratio (z) = 0.20210 0.65687
#
# Static dielectric constant tensor:
#      x y z
#    x 1.604950 0.000000 0.000000 
#    y 0.000000 1.622080 0.000000 
#    z 0.000000 0.000000 1.641390 
# 
# From -- ./inp_files/39913.got.cif
#   From: 2010.05.17/outbox.cif.g08.bks.cpg/sg65_20_cif.got.tgz:39913.got - 2010.06.03 17:01:31.
