data_PCOD9491547
_publ_section_title
;
Structure prediction by ZEFSAII (Michael W. Deem and Ramdas Pophale) SiO2 
 PCOD9491547
Probable space group: C M M M
;
_chemical_formula_sum "Si O2"
_cell_formula_units_Z 104
_cell_length_a 20.540457
_cell_length_b 8.590335
_cell_length_c 33.987893
_cell_angle_alpha 90.000000
_cell_angle_beta 90.000000
_cell_angle_gamma 90.000000
_cell_volume 5997.143554
_symmetry_space_group_name_H-M "C M M M"
_symmetry_group_IT_number 65
_symmetry_cell_setting 'orthorhombic'
loop_
_space_group_symop_operation_xyz
x,y,z
-x,-y,z
x,-y,-z
-x,y,-z
-x,-y,-z
x,y,-z
-x,y,z
x,-y,z
1/2+x,1/2+y,z
1/2-x,1/2-y,z
1/2+x,1/2-y,-z
1/2-x,1/2+y,-z
1/2-x,1/2-y,-z
1/2+x,1/2+y,-z
1/2-x,1/2+y,z
1/2+x,1/2-y,z
loop_
_atom_site_type_symbol
_atom_site_label
_atom_site_fract_x
_atom_site_fract_y
_atom_site_fract_z
Si Si1 0.676215 0.311252 0.413591
Si Si2 0.323528 0.312590 0.500000
Si Si3 0.678668 0.186190 0.893631
Si Si4 0.925125 0.187794 0.742067
Si Si5 0.574861 0.687830 0.955009
Si Si6 0.178692 0.686148 0.196582
Si Si7 0.925583 0.189765 0.652122
O O1 0.678875 0.500000 0.412417
O O2 0.750000 0.250000 0.408860
O O3 0.650115 0.264394 0.457186
O O4 0.627559 0.257126 0.379427
O O5 0.323131 0.500000 0.500000
O O6 0.250000 0.250000 0.500000
O O7 0.750000 0.250000 0.904230
O O8 0.624622 0.245225 0.923646
O O9 0.664858 0.236891 0.848520
O O10 0.680601 0.000000 0.894339
O O11 0.875294 0.255006 0.773345
O O12 0.910222 0.236243 0.697039
O O13 0.000000 0.232977 0.750445
O O14 0.921972 0.000000 0.743309
O O15 0.500000 0.734332 0.946947
O O16 0.577379 0.500000 0.953629
O O17 0.590553 0.734924 0.000000
O O18 0.180671 0.500000 0.197235
O O19 0.250000 0.750000 0.207191
O O20 0.000000 0.237970 0.643080
O O21 0.925432 0.000000 0.651487
#
# Coordination Sequence:
#
# PCOD9491547 Si02
#       7
#    16   8  16  16  16  16  16
#     4   9  16  27  44  65  89 117 151 190 230 274
#     4   8  14  24  39  61  87 115 147 184 228 274
#     4  10  21  36  54  76 102 133 167 203 245 292
#     4   9  18  33  52  72  95 127 164 197 237 292
#     4   9  19  36  56  78 105 136 169 205 244 286
#     4  10  21  36  53  74 101 130 162 203 247 289
#     4   8  15  29  47  66  91 122 153 188 231 278
#
# _framework density 17.341588000000002
#
# number of rings (size 3 to 8) (size 9 to 14) (size 15 to 20)
#    0.000    2.923    0.000    2.308    0.000    4.308 
#    0.000    6.538    0.000    3.692    0.000    0.000 
#    0.000    6.154    0.000    0.000    0.000    0.000 
#
# Total GULP energy -289744.714127 kJ/mol
# GULP energy per Si atom -5572.013733 kJ/mol
# Density = 1.730212 g / cm^3
# Si number density = 17.341588 Si / 1000 Ang^3
#
#
#
# Elastic Constant Matrix: (Units=GPa)
#
#
# Indices 1 2 3 4 5 6 
#
# 1 135.0441 29.9294 130.0580 0.0000 0.0000 0.0000
# 2 29.9294 14.5819 32.8766 0.0000 0.0000 0.0000
# 3 130.0580 32.8766 156.8494 0.0000 0.0000 0.0000
# 4 0.0000 0.0000 0.0000 19.7516 0.0000 0.0000
# 5 0.0000 0.0000 0.0000 0.0000 72.5878 0.0000
# 6 0.0000 0.0000 0.0000 0.0000 0.0000 27.8617
#
#
#
# Elastic Compliance Matrix: (Units=1/GPa)
#
#
# Indices 1 2 3 4 5 6 
#
# 1 0.038058 -0.013205 -0.028790 0.000000 0.000000 0.000000
# 2 -0.013205 0.134609 -0.017265 0.000000 0.000000 0.000000
# 3 -0.028790 -0.017265 0.033867 0.000000 0.000000 0.000000
# 4 0.000000 0.000000 0.000000 0.050629 0.000000 0.000000
# 5 0.000000 0.000000 0.000000 0.000000 0.013776 0.000000
# 6 0.000000 0.000000 0.000000 0.000000 0.000000 0.035892
#
#
# Mechanical properties :
#
#
# Convention : Reuss Voigt Hill
#
# Bulk Modulus (GPa) = 11.36191 76.91151 44.13671
# Shear Modulus (GPa) = 10.99653 31.61431 21.30542
#
# Velocity S-wave (km/s) = 2.52089 4.27433 3.50890
# Velocity P-wave (km/s) = 3.87805 8.29500 6.47481
#
# Compressibility (1/GPa) = 0.08801336
#
# Stress axis : x y z
#
# Youngs Moduli (GPa) = 26.27539 7.42894 29.52754
#
# Poissons Ratio (x) = 0.09810 0.85009
# Poissons Ratio (y) = 0.34697 0.50980
# Poissons Ratio (z) = 0.75646 0.12826
#
# Static dielectric constant tensor:
#      x y z
#    x 1.553220 0.000000 0.000000 
#    y 0.000000 1.594280 0.000000 
#    z 0.000000 0.000000 1.605630 
# 
# From -- ./inp_files/75485.got.cif
#   From: 2010.05.17/outbox.cif.g08.bks.cpg/sg65_38_cif.got.tgz:75485.got - 2010.06.03 17:01:31.
