data_PCOD9491489
_publ_section_title
;
Structure prediction by ZEFSAII (Michael W. Deem and Ramdas Pophale) SiO2 
 PCOD9491489
Probable space group: C M M M
;
_chemical_formula_sum "Si O2"
_cell_formula_units_Z 64
_cell_length_a 8.355613
_cell_length_b 37.761468
_cell_length_c 12.914225
_cell_angle_alpha 90.000000
_cell_angle_beta 90.000000
_cell_angle_gamma 90.000000
_cell_volume 4074.699022
_symmetry_space_group_name_H-M "C M M M"
_symmetry_group_IT_number 65
_symmetry_cell_setting 'orthorhombic'
loop_
_space_group_symop_operation_xyz
x,y,z
-x,-y,z
x,-y,-z
-x,y,-z
-x,-y,-z
x,y,-z
-x,y,z
x,-y,z
1/2+x,1/2+y,z
1/2-x,1/2-y,z
1/2+x,1/2-y,-z
1/2-x,1/2+y,-z
1/2-x,1/2-y,-z
1/2+x,1/2+y,-z
1/2-x,1/2+y,z
1/2+x,1/2-y,z
loop_
_atom_site_type_symbol
_atom_site_label
_atom_site_fract_x
_atom_site_fract_y
_atom_site_fract_z
Si Si1 0.690919 0.211231 0.118011
Si Si2 0.810321 0.834269 0.696047
Si Si3 0.686898 0.586174 0.374632
Si Si4 0.500000 0.040714 0.625698
Si Si5 0.810939 0.709950 0.500000
O O1 0.500000 0.212127 0.115754
O O2 0.750000 0.250000 0.153368
O O3 0.744482 0.181213 0.197137
O O4 0.750538 0.205848 0.000000
O O5 0.776858 0.875480 0.674259
O O6 0.745376 0.811048 0.601299
O O7 0.000000 0.830211 0.696855
O O8 0.691123 0.589709 0.500000
O O9 0.500000 0.576216 0.349101
O O10 0.833137 0.560150 0.344357
O O11 0.500000 0.040713 0.500000
O O12 0.500000 0.000000 0.660840
O O13 0.750000 0.750000 0.500000
O O14 0.000000 0.710834 0.500000
#
# Coordination Sequence:
#
# PCOD9491489 Si02
#       5
#    16  16  16   8   8
#     4  10  21  36  52  70  94 128 170 215 262 306
#     4  11  21  34  51  71  98 130 168 211 253 305
#     4   9  18  31  48  71 101 134 167 204 251 298
#     4   9  18  30  48  72 101 135 173 205 240 303
#     4  12  24  34  48  68  96 131 168 211 253 301
#
# _framework density 15.706682000000001
#
# number of rings (size 3 to 8) (size 9 to 14) (size 15 to 20)
#    0.000    1.875    1.250    3.375    3.500    2.000 
#    0.000    2.500    0.000    0.000    0.000    0.000 
#    0.000    2.000    0.000    5.500    0.000    0.250 
#
# Total GULP energy -178471.289712 kJ/mol
# GULP energy per Si atom -5577.227803 kJ/mol
# Density = 1.567093 g / cm^3
# Si number density = 15.706682 Si / 1000 Ang^3
#
#
#
# Elastic Constant Matrix: (Units=GPa)
#
#
# Indices 1 2 3 4 5 6 
#
# 1 108.6324 90.3691 31.0368 0.0000 0.0000 0.0000
# 2 90.3691 119.4132 39.6661 0.0000 0.0000 0.0000
# 3 31.0368 39.6661 48.6471 0.0000 0.0000 0.0000
# 4 0.0000 0.0000 0.0000 8.9326 0.0000 0.0000
# 5 0.0000 0.0000 0.0000 0.0000 24.0658 0.0000
# 6 0.0000 0.0000 0.0000 0.0000 0.0000 31.3007
#
#
#
# Elastic Compliance Matrix: (Units=1/GPa)
#
#
# Indices 1 2 3 4 5 6 
#
# 1 0.024867 -0.018582 -0.000714 0.000000 0.000000 0.000000
# 2 -0.018582 0.025370 -0.008831 0.000000 0.000000 0.000000
# 3 -0.000714 -0.008831 0.028213 0.000000 0.000000 0.000000
# 4 0.000000 0.000000 0.000000 0.111949 0.000000 0.000000
# 5 0.000000 0.000000 0.000000 0.000000 0.041553 0.000000
# 6 0.000000 0.000000 0.000000 0.000000 0.000000 0.031948
#
#
# Mechanical properties :
#
#
# Convention : Reuss Voigt Hill
#
# Bulk Modulus (GPa) = 45.05335 66.53741 55.79538
# Shear Modulus (GPa) = 15.26476 20.56787 17.91631
#
# Velocity S-wave (km/s) = 3.12086 3.62262 3.38106
# Velocity P-wave (km/s) = 6.46009 7.74289 7.13040
#
# Compressibility (1/GPa) = 0.02219591
#
# Stress axis : x y z
#
# Youngs Moduli (GPa) = 40.21392 39.41678 35.44526
#
# Poissons Ratio (x) = 0.73243 0.02531
# Poissons Ratio (y) = 0.74724 0.31302
# Poissons Ratio (z) = 0.02871 0.34810
#
# Static dielectric constant tensor:
#      x y z
#    x 1.489920 0.000000 0.000000 
#    y 0.000000 1.514610 0.000000 
#    z 0.000000 0.000000 1.500830 
# 
# From -- ./inp_files/20960.got.cif
#   From: 2010.05.17/outbox.cif.g08.bks.cpg/sg65_11_cif.got.tgz:20960.got - 2010.06.03 17:01:31.
