data_PCOD9491592
_publ_section_title
;
Structure prediction by ZEFSAII (Michael W. Deem and Ramdas Pophale) SiO2 
 PCOD9491592
Probable space group: C M M M
;
_chemical_formula_sum "Si O2"
_cell_formula_units_Z 72
_cell_length_a 8.949752
_cell_length_b 29.356587
_cell_length_c 15.529788
_cell_angle_alpha 90.000000
_cell_angle_beta 90.000000
_cell_angle_gamma 90.000000
_cell_volume 4080.206010
_symmetry_space_group_name_H-M "C M M M"
_symmetry_group_IT_number 65
_symmetry_cell_setting 'orthorhombic'
loop_
_space_group_symop_operation_xyz
x,y,z
-x,-y,z
x,-y,-z
-x,y,-z
-x,-y,-z
x,y,-z
-x,y,z
x,-y,z
1/2+x,1/2+y,z
1/2-x,1/2-y,z
1/2+x,1/2-y,-z
1/2-x,1/2+y,-z
1/2-x,1/2-y,-z
1/2+x,1/2+y,-z
1/2-x,1/2+y,z
1/2+x,1/2-y,z
loop_
_atom_site_type_symbol
_atom_site_label
_atom_site_fract_x
_atom_site_fract_y
_atom_site_fract_z
Si Si1 0.331035 0.555162 0.000000
Si Si2 0.320229 0.700143 0.097193
Si Si3 0.322696 0.798786 0.398032
Si Si4 0.678159 0.053447 0.820008
Si Si5 0.820786 0.862887 0.258688
O O1 0.244857 0.566909 0.086835
O O2 0.340548 0.500000 0.000000
O O3 0.500000 0.573949 0.000000
O O4 0.500000 0.704255 0.099640
O O5 0.250000 0.750000 0.110813
O O6 0.276220 0.666129 0.173408
O O7 0.278474 0.684783 0.000000
O O8 0.299584 0.806595 0.500000
O O9 0.500000 0.797250 0.381610
O O10 0.250000 0.750000 0.376377
O O11 0.245457 0.836884 0.340373
O O12 0.500000 0.058590 0.820451
O O13 0.753554 0.086970 0.752217
O O14 0.712660 0.000000 0.805760
O O15 0.000000 0.864505 0.262318
#
# Coordination Sequence:
#
# PCOD9491592 Si02
#       5
#     8  16  16  16  16
#     4   9  17  31  51  73 100 137 182 231 279 323
#     4   9  19  34  49  70 103 141 178 215 258 312
#     4  10  21  38  60  85 114 145 179 225 279 333
#     4  10  21  36  53  76 108 145 187 234 280 329
#     4  11  22  34  55  82 109 144 184 229 276 331
#
# _framework density 17.646169
#
# number of rings (size 3 to 8) (size 9 to 14) (size 15 to 20)
#    0.000    2.111    0.000    3.000    1.556    7.556 
#    0.000    0.000    0.000    0.667    0.000    4.667 
#    0.000    0.000    0.000    0.000    0.000    0.000 
#
# Total GULP energy -201073.302699 kJ/mol
# GULP energy per Si atom -5585.369519 kJ/mol
# Density = 1.760601 g / cm^3
# Si number density = 17.646169 Si / 1000 Ang^3
#
#
#
# Elastic Constant Matrix: (Units=GPa)
#
#
# Indices 1 2 3 4 5 6 
#
# 1 80.5169 64.5575 54.4667 0.0000 0.0000 0.0000
# 2 64.5575 107.0273 64.5968 0.0000 0.0000 0.0000
# 3 54.4667 64.5968 65.6349 0.0000 0.0000 0.0000
# 4 0.0000 0.0000 0.0000 26.1656 0.0000 0.0000
# 5 0.0000 0.0000 0.0000 0.0000 27.2322 0.0000
# 6 0.0000 0.0000 0.0000 0.0000 0.0000 30.4257
#
#
#
# Elastic Compliance Matrix: (Units=1/GPa)
#
#
# Indices 1 2 3 4 5 6 
#
# 1 0.030715 -0.007742 -0.017869 0.000000 0.000000 0.000000
# 2 -0.007742 0.024965 -0.018146 0.000000 0.000000 0.000000
# 3 -0.017869 -0.018146 0.047923 0.000000 0.000000 0.000000
# 4 0.000000 0.000000 0.000000 0.038218 0.000000 0.000000
# 5 0.000000 0.000000 0.000000 0.000000 0.036721 0.000000
# 6 0.000000 0.000000 0.000000 0.000000 0.000000 0.032867
#
#
# Mechanical properties :
#
#
# Convention : Reuss Voigt Hill
#
# Bulk Modulus (GPa) = 62.15172 68.93567 65.54369
# Shear Modulus (GPa) = 16.43190 21.40192 18.91691
#
# Velocity S-wave (km/s) = 3.05485 3.48636 3.27771
# Velocity P-wave (km/s) = 6.90944 7.44020 7.17973
#
# Compressibility (1/GPa) = 0.01608966
#
# Stress axis : x y z
#
# Youngs Moduli (GPa) = 32.55753 40.05592 20.86673
#
# Poissons Ratio (x) = 0.31010 0.37287
# Poissons Ratio (y) = 0.25205 0.37864
# Poissons Ratio (z) = 0.58178 0.72684
#
# Static dielectric constant tensor:
#      x y z
#    x 1.585410 0.000000 0.000000 
#    y 0.000000 1.607280 0.000000 
#    z 0.000000 0.000000 1.594030 
# 
# From -- ./inp_files/36564.got.cif
#   From: 2010.05.17/outbox.cif.g08.bks.cpg/sg65_19_cif.got.tgz:36564.got - 2010.06.03 17:01:31.
