data_PCOD9491035
_publ_section_title
;
Structure prediction by ZEFSAII (Michael W. Deem and Ramdas Pophale) SiO2 
 PCOD9491035
Probable space group: C M M M
;
_chemical_formula_sum "Si O2"
_cell_formula_units_Z 88
_cell_length_a 11.832157
_cell_length_b 15.681668
_cell_length_c 24.774616
_cell_angle_alpha 90.000000
_cell_angle_beta 90.000000
_cell_angle_gamma 90.000000
_cell_volume 4596.879404
_symmetry_space_group_name_H-M "C M M M"
_symmetry_group_IT_number 65
_symmetry_cell_setting 'orthorhombic'
loop_
_space_group_symop_operation_xyz
x,y,z
-x,-y,z
x,-y,-z
-x,y,-z
-x,-y,-z
x,y,-z
-x,y,z
x,-y,z
1/2+x,1/2+y,z
1/2-x,1/2-y,z
1/2+x,1/2-y,-z
1/2-x,1/2+y,-z
1/2-x,1/2-y,-z
1/2+x,1/2+y,-z
1/2-x,1/2+y,z
1/2+x,1/2-y,z
loop_
_atom_site_type_symbol
_atom_site_label
_atom_site_fract_x
_atom_site_fract_y
_atom_site_fract_z
Si Si1 0.500000 0.898277 0.239856
Si Si2 0.500000 0.102736 0.364379
Si Si3 0.132303 0.000000 0.407285
Si Si4 0.755825 0.655266 0.217095
Si Si5 0.133884 0.193469 0.000000
Si Si6 0.292656 0.846520 0.438499
Si Si7 0.367714 0.401399 0.886335
Si Si8 0.133440 0.000000 0.722315
O O1 0.500000 0.868866 0.302270
O O2 0.613336 0.867525 0.212135
O O3 0.500000 0.000000 0.240641
O O4 0.609792 0.134489 0.395794
O O5 0.500000 0.000000 0.365289
O O6 0.194373 0.915915 0.429335
O O7 0.144375 0.000000 0.342228
O O8 0.000000 0.000000 0.420811
O O9 0.750000 0.750000 0.240792
O O10 0.698349 0.651296 0.158609
O O11 0.694263 0.583271 0.253043
O O12 0.250000 0.250000 0.000000
O O13 0.142063 0.136999 0.054083
O O14 0.000000 0.228349 0.000000
O O15 0.335286 0.856700 0.500000
O O16 0.250000 0.750000 0.432302
O O17 0.500000 0.400244 0.871760
O O18 0.329311 0.500000 0.884778
O O19 0.000000 0.000000 0.736208
#
# Coordination Sequence:
#
# PCOD9491035 Si02
#       8
#     8   8   8  16   8  16  16   8
#     4  11  24  43  62  91 133 169 207 268 328 383
#     4  11  23  42  69  91 121 168 217 258 313 385
#     4  11  25  43  65  94 127 167 207 261 326 385
#     4  12  25  41  65  96 128 171 219 268 326 383
#     4  10  21  39  63  99 131 172 218 275 331 391
#     4  11  25  43  66  95 126 162 208 261 318 384
#     4  10  20  39  67  93 128 169 223 272 318 380
#     4  11  24  44  65  90 128 167 217 266 315 390
#
# _framework density 19.143421
#
# number of rings (size 3 to 8) (size 9 to 14) (size 15 to 20)
#    0.000    1.091    2.727    3.000    3.818    5.091 
#    1.636    0.000    0.000    0.545    0.000    0.000 
#    0.000    0.000    0.000    0.000    0.000    0.000 
#
# Total GULP energy -245894.725548 kJ/mol
# GULP energy per Si atom -5588.516490 kJ/mol
# Density = 1.909985 g / cm^3
# Si number density = 19.143421 Si / 1000 Ang^3
#
#
#
# Elastic Constant Matrix: (Units=GPa)
#
#
# Indices 1 2 3 4 5 6 
#
# 1 99.0286 39.7907 10.8967 0.0000 0.0000 0.0000
# 2 39.7907 120.4642 14.5543 0.0000 0.0000 0.0000
# 3 10.8967 14.5543 68.6427 0.0000 0.0000 0.0000
# 4 0.0000 0.0000 0.0000 -20.0935 0.0000 0.0000
# 5 0.0000 0.0000 0.0000 0.0000 50.4387 0.0000
# 6 0.0000 0.0000 0.0000 0.0000 0.0000 25.6493
#
#
#
# Elastic Compliance Matrix: (Units=1/GPa)
#
#
# Indices 1 2 3 4 5 6 
#
# 1 0.011719 -0.003742 -0.001067 0.000000 0.000000 0.000000
# 2 -0.003742 0.009714 -0.001466 0.000000 0.000000 0.000000
# 3 -0.001067 -0.001466 0.015048 0.000000 0.000000 0.000000
# 4 0.000000 0.000000 0.000000 -0.049767 0.000000 0.000000
# 5 0.000000 0.000000 0.000000 0.000000 0.019826 0.000000
# 6 0.000000 0.000000 0.000000 0.000000 0.000000 0.038987
#
#
# Mechanical properties :
#
#
# Convention : Reuss Voigt Hill
#
# Bulk Modulus (GPa) = 41.78431 46.51321 44.14876
# Shear Modulus (GPa) = 75.69488 26.05850 50.87669
#
# Velocity S-wave (km/s) = 6.29498 3.69348 5.16084
# Velocity P-wave (km/s) = 8.64350 6.52220 7.65667
#
# Compressibility (1/GPa) = 0.02393243
#
# Stress axis : x y z
#
# Youngs Moduli (GPa) = 85.33097 102.94059 66.45254
#
# Poissons Ratio (x) = 0.38521 0.07090
# Poissons Ratio (y) = 0.31931 0.09740
# Poissons Ratio (z) = 0.09104 0.15088
#
# Static dielectric constant tensor:
#      x y z
#    x 1.648880 0.000000 0.000000 
#    y 0.000000 1.646390 0.000000 
#    z 0.000000 0.000000 1.646840 
# 
# From -- ./inp_files/68970.got.cif
#   From: 2010.05.17/outbox.cif.g08.bks.cpg/sg65_35_cif.got.tgz:68970.got - 2010.06.03 17:01:31.
