data_PCOD9491128
_publ_section_title
;
Structure prediction by ZEFSAII (Michael W. Deem and Ramdas Pophale) SiO2 
 PCOD9491128
Probable space group: C M M M
;
_chemical_formula_sum "Si O2"
_cell_formula_units_Z 88
_cell_length_a 18.516058
_cell_length_b 7.967993
_cell_length_c 31.696198
_cell_angle_alpha 90.000000
_cell_angle_beta 90.000000
_cell_angle_gamma 90.000000
_cell_volume 4676.324580
_symmetry_space_group_name_H-M "C M M M"
_symmetry_group_IT_number 65
_symmetry_cell_setting 'orthorhombic'
loop_
_space_group_symop_operation_xyz
x,y,z
-x,-y,z
x,-y,-z
-x,y,-z
-x,-y,-z
x,y,-z
-x,y,z
x,-y,z
1/2+x,1/2+y,z
1/2-x,1/2-y,z
1/2+x,1/2-y,-z
1/2-x,1/2+y,-z
1/2-x,1/2-y,-z
1/2+x,1/2+y,-z
1/2-x,1/2+y,z
1/2+x,1/2-y,z
loop_
_atom_site_type_symbol
_atom_site_label
_atom_site_fract_x
_atom_site_fract_y
_atom_site_fract_z
Si Si1 0.084594 0.702999 0.197806
Si Si2 0.417294 0.201348 0.636222
Si Si3 0.911717 0.500000 0.951395
Si Si4 0.666845 0.202458 0.281518
Si Si5 0.415279 0.701896 0.454540
Si Si6 0.911987 0.813304 0.105041
O O1 0.089238 0.500000 0.194522
O O2 0.128509 0.761054 0.238578
O O3 0.109998 0.777403 0.153299
O O4 0.000000 0.744717 0.203517
O O5 0.500000 0.266168 0.637774
O O6 0.372717 0.265221 0.676188
O O7 0.384612 0.240559 0.590194
O O8 0.420833 0.000000 0.639457
O O9 0.888155 0.334545 0.925973
O O10 0.000000 0.500000 0.951140
O O11 0.888845 0.500000 0.000000
O O12 0.750000 0.250000 0.281916
O O13 0.660749 0.000000 0.281527
O O14 0.384823 0.759485 0.500000
O O15 0.500000 0.754391 0.454137
O O16 0.413869 0.500000 0.454579
O O17 0.000000 0.808655 0.105269
O O18 0.889648 0.000000 0.092030
#
# Coordination Sequence:
#
# PCOD9491128 Si02
#       6
#    16  16   8  16  16  16
#     4   9  16  30  51  69  90 126 167 204 244 291
#     4   9  17  30  48  70  94 122 160 197 234 285
#     4   9  16  26  40  62  98 138 168 200 248 300
#     4  10  21  34  48  68  96 128 157 197 244 292
#     4   8  14  25  42  66  94 120 147 186 237 286
#     4   9  16  26  42  66  94 127 168 208 246 292
#
# _framework density 18.818197999999999
#
# number of rings (size 3 to 8) (size 9 to 14) (size 15 to 20)
#    0.000    3.000    0.909    1.091    0.000    4.364 
#    0.000    3.636    0.000    6.000    0.000    0.000 
#    0.000    0.727    0.364    0.000    0.000    0.000 
#
# Total GULP energy -245150.222666 kJ/mol
# GULP energy per Si atom -5571.595970 kJ/mol
# Density = 1.877537 g / cm^3
# Si number density = 18.818198 Si / 1000 Ang^3
#
#
#
# Elastic Constant Matrix: (Units=GPa)
#
#
# Indices 1 2 3 4 5 6 
#
# 1 33.1971 15.0496 47.6843 0.0000 0.0000 0.0000
# 2 15.0496 62.2121 64.8381 0.0000 0.0000 0.0000
# 3 47.6843 64.8381 209.9806 0.0000 0.0000 0.0000
# 4 0.0000 0.0000 0.0000 -1.6676 0.0000 0.0000
# 5 0.0000 0.0000 0.0000 0.0000 -3.8356 0.0000
# 6 0.0000 0.0000 0.0000 0.0000 0.0000 13.2785
#
#
#
# Elastic Compliance Matrix: (Units=1/GPa)
#
#
# Indices 1 2 3 4 5 6 
#
# 1 0.044711 -0.000345 -0.010047 0.000000 0.000000 0.000000
# 2 -0.000345 0.023704 -0.007241 0.000000 0.000000 0.000000
# 3 -0.010047 -0.007241 0.009280 0.000000 0.000000 0.000000
# 4 0.000000 0.000000 0.000000 -0.599672 0.000000 0.000000
# 5 0.000000 0.000000 0.000000 0.000000 -0.260714 0.000000
# 6 0.000000 0.000000 0.000000 0.000000 0.000000 0.075310
#
#
# Mechanical properties :
#
#
# Convention : Reuss Voigt Hill
#
# Bulk Modulus (GPa) = 23.56878 62.28151 42.92514
# Shear Modulus (GPa) = -7.59911 13.40957 2.90523
#
# Velocity S-wave (km/s) = -2.01170 2.67233 1.24386
# Velocity P-wave (km/s) = 2.67502 6.53376 4.99228
#
# Compressibility (1/GPa) = 0.04242901
#
# Stress axis : x y z
#
# Youngs Moduli (GPa) = 22.36597 42.18656 107.76136
#
# Poissons Ratio (x) = 0.01456 1.08266
# Poissons Ratio (y) = 0.00772 0.78031
# Poissons Ratio (z) = 0.22471 0.30548
#
# Static dielectric constant tensor:
#      x y z
#    x 1.609890 0.000000 0.000000 
#    y 0.000000 1.677670 0.000000 
#    z 0.000000 0.000000 1.672310 
# 
# From -- ./inp_files/75316.got.cif
#   From: 2010.05.17/outbox.cif.g08.bks.cpg/sg65_38_cif.got.tgz:75316.got - 2010.06.03 17:01:31.
