data_PCOD9491733
_publ_section_title
;
Structure prediction by ZEFSAII (Michael W. Deem and Ramdas Pophale) SiO2 
 PCOD9491733
Probable space group: C M M M
;
_chemical_formula_sum "Si O2"
_cell_formula_units_Z 96
_cell_length_a 9.263561
_cell_length_b 28.378572
_cell_length_c 18.760569
_cell_angle_alpha 90.000000
_cell_angle_beta 90.000000
_cell_angle_gamma 90.000000
_cell_volume 4931.902814
_symmetry_space_group_name_H-M "C M M M"
_symmetry_group_IT_number 65
_symmetry_cell_setting 'orthorhombic'
loop_
_space_group_symop_operation_xyz
x,y,z
-x,-y,z
x,-y,-z
-x,y,-z
-x,-y,-z
x,y,-z
-x,y,z
x,-y,z
1/2+x,1/2+y,z
1/2-x,1/2-y,z
1/2+x,1/2-y,-z
1/2-x,1/2+y,-z
1/2-x,1/2-y,-z
1/2+x,1/2+y,-z
1/2-x,1/2+y,z
1/2+x,1/2-y,z
loop_
_atom_site_type_symbol
_atom_site_label
_atom_site_fract_x
_atom_site_fract_y
_atom_site_fract_z
Si Si1 0.834286 0.053050 0.586557
Si Si2 0.832222 0.353466 0.414325
Si Si3 0.825996 0.200531 0.700621
Si Si4 0.335085 0.707995 0.079524
Si Si5 0.829152 0.443643 0.919548
Si Si6 0.665519 0.622053 0.184224
O O1 0.834702 0.052004 0.500000
O O2 0.727678 0.094827 0.607279
O O3 0.000000 0.063186 0.608804
O O4 0.796007 0.000000 0.610575
O O5 0.822256 0.350296 0.500000
O O6 0.732069 0.315030 0.376584
O O7 0.000000 0.347704 0.394077
O O8 0.750000 0.250000 0.719498
O O9 0.784886 0.155464 0.750492
O O10 0.000000 0.205360 0.704442
O O11 0.500000 0.723479 0.075423
O O12 0.250000 0.750000 0.116008
O O13 0.332748 0.659802 0.120419
O O14 0.275737 0.701360 0.000000
O O15 0.811060 0.500000 0.916326
O O16 0.755236 0.420084 0.850744
O O17 0.000000 0.433130 0.917337
O O18 0.776725 0.428934 0.000000
O O19 0.500000 0.607340 0.198933
#
# Coordination Sequence:
#
# PCOD9491733 Si02
#       6
#    16  16  16  16  16  16
#     4   8  14  27  50  80 112 143 173 210 262 322
#     4  10  21  37  58  84 112 144 187 238 291 350
#     4  11  24  41  60  82 110 145 186 234 290 351
#     4   9  17  29  46  71 103 135 169 210 253 300
#     4   9  19  36  58  86 119 154 193 235 277 322
#     4  10  21  36  55  80 109 143 183 226 274 328
#
# _framework density 19.465104
#
# number of rings (size 3 to 8) (size 9 to 14) (size 15 to 20)
#    0.000    2.500    0.000    3.000    0.000    5.000 
#    0.000    5.000    0.000    1.000    0.000    0.000 
#    0.000    0.000    0.000    0.000    0.000    0.000 
#
# Total GULP energy -267365.376988 kJ/mol
# GULP energy per Si atom -5570.112021 kJ/mol
# Density = 1.942080 g / cm^3
# Si number density = 19.465104 Si / 1000 Ang^3
#
#
#
# Elastic Constant Matrix: (Units=GPa)
#
#
# Indices 1 2 3 4 5 6 
#
# 1 55.2454 39.0714 28.1122 0.0000 0.0000 0.0000
# 2 39.0714 62.6613 31.0779 0.0000 0.0000 0.0000
# 3 28.1122 31.0779 52.5091 0.0000 0.0000 0.0000
# 4 0.0000 0.0000 0.0000 38.2531 0.0000 0.0000
# 5 0.0000 0.0000 0.0000 0.0000 21.4272 0.0000
# 6 0.0000 0.0000 0.0000 0.0000 0.0000 35.1623
#
#
#
# Elastic Compliance Matrix: (Units=1/GPa)
#
#
# Indices 1 2 3 4 5 6 
#
# 1 0.034690 -0.017579 -0.008168 0.000000 0.000000 0.000000
# 2 -0.017579 0.031498 -0.009231 0.000000 0.000000 0.000000
# 3 -0.008168 -0.009231 0.028881 0.000000 0.000000 0.000000
# 4 0.000000 0.000000 0.000000 0.026142 0.000000 0.000000
# 5 0.000000 0.000000 0.000000 0.000000 0.046670 0.000000
# 6 0.000000 0.000000 0.000000 0.000000 0.000000 0.028440
#
#
# Mechanical properties :
#
#
# Convention : Reuss Voigt Hill
#
# Bulk Modulus (GPa) = 39.82041 40.77098 40.29569
# Shear Modulus (GPa) = 18.20518 23.77880 20.99199
#
# Velocity S-wave (km/s) = 3.06154 3.49895 3.28753
# Velocity P-wave (km/s) = 5.74449 6.10857 5.92932
#
# Compressibility (1/GPa) = 0.02511275
#
# Stress axis : x y z
#
# Youngs Moduli (GPa) = 28.82674 31.74762 34.62535
#
# Poissons Ratio (x) = 0.55811 0.28281
# Poissons Ratio (y) = 0.50676 0.31963
# Poissons Ratio (z) = 0.23545 0.29306
#
# Static dielectric constant tensor:
#      x y z
#    x 1.664610 0.000000 0.000000 
#    y 0.000000 1.680420 0.000000 
#    z 0.000000 0.000000 1.738690 
# 
# From -- ./inp_files/60241.got.cif
#   From: 2010.05.17/outbox.cif.g08.bks.cpg/sg65_31_cif.got.tgz:60241.got - 2010.06.03 17:01:31.
