data_PCOD9491116
_publ_section_title
;
Structure prediction by ZEFSAII (Michael W. Deem and Ramdas Pophale) SiO2 
 PCOD9491116
Probable space group: C M M M
;
_chemical_formula_sum "Si O2"
_cell_formula_units_Z 72
_cell_length_a 33.864712
_cell_length_b 13.986492
_cell_length_c 7.554873
_cell_angle_alpha 90.000000
_cell_angle_beta 90.000000
_cell_angle_gamma 90.000000
_cell_volume 3578.354441
_symmetry_space_group_name_H-M "C M M M"
_symmetry_group_IT_number 65
_symmetry_cell_setting 'orthorhombic'
loop_
_space_group_symop_operation_xyz
x,y,z
-x,-y,z
x,-y,-z
-x,y,-z
-x,-y,-z
x,y,-z
-x,y,z
x,-y,z
1/2+x,1/2+y,z
1/2-x,1/2-y,z
1/2+x,1/2-y,-z
1/2-x,1/2+y,-z
1/2-x,1/2-y,-z
1/2+x,1/2+y,-z
1/2-x,1/2+y,z
1/2+x,1/2-y,z
loop_
_atom_site_type_symbol
_atom_site_label
_atom_site_fract_x
_atom_site_fract_y
_atom_site_fract_z
Si Si1 0.708940 0.782952 0.697971
Si Si2 0.658516 0.393907 0.213325
Si Si3 0.000000 0.112545 0.782901
Si Si4 0.419271 0.288944 0.785674
Si Si5 0.368955 0.892811 0.209566
O O1 0.718771 0.817036 0.500000
O O2 0.750000 0.750000 0.787246
O O3 0.684570 0.685204 0.695898
O O4 0.676488 0.856963 0.771626
O O5 0.669392 0.500000 0.264671
O O6 0.613180 0.369974 0.252454
O O7 0.663275 0.383495 0.000000
O O8 0.961378 0.172058 0.724643
O O9 0.000000 0.000000 0.729441
O O10 0.000000 0.111055 0.000000
O O11 0.399150 0.189269 0.721291
O O12 0.421835 0.280319 0.000000
O O13 0.373844 0.000000 0.282777
O O14 0.376367 0.897484 0.000000
#
# Coordination Sequence:
#
# PCOD9491116 Si02
#       5
#    16  16   8  16  16
#     4  10  21  34  47  67  94 120 150 193 240 283
#     4   9  17  30  48  68  92 123 155 187 226 274
#     4   9  14  20  37  67 100 129 153 183 230 283
#     4   8  14  25  41  65  96 124 152 187 227 274
#     4   9  18  33  51  68  90 124 163 200 237 278
#
# _framework density 20.120978999999998
#
# number of rings (size 3 to 8) (size 9 to 14) (size 15 to 20)
#    0.000    3.000    0.000    2.667    0.000    6.222 
#    0.000    5.000    0.000    3.333    0.000   12.444 
#    0.000   28.444    0.000    0.000    0.000    0.000 
#
# Total GULP energy -200430.551714 kJ/mol
# GULP energy per Si atom -5567.515325 kJ/mol
# Density = 2.007518 g / cm^3
# Si number density = 20.120979 Si / 1000 Ang^3
#
#
#
# Elastic Constant Matrix: (Units=GPa)
#
#
# Indices 1 2 3 4 5 6 
#
# 1 136.2117 34.5310 0.4944 0.0000 0.0000 0.0000
# 2 34.5310 120.8191 4.3163 0.0000 0.0000 0.0000
# 3 0.4944 4.3163 39.2206 0.0000 0.0000 0.0000
# 4 0.0000 0.0000 0.0000 7.4230 0.0000 0.0000
# 5 0.0000 0.0000 0.0000 0.0000 -39.6215 0.0000
# 6 0.0000 0.0000 0.0000 0.0000 0.0000 7.4794
#
#
#
# Elastic Compliance Matrix: (Units=1/GPa)
#
#
# Indices 1 2 3 4 5 6 
#
# 1 0.007916 -0.002268 0.000150 0.000000 0.000000 0.000000
# 2 -0.002268 0.008959 -0.000957 0.000000 0.000000 0.000000
# 3 0.000150 -0.000957 0.025600 0.000000 0.000000 0.000000
# 4 0.000000 0.000000 0.000000 0.134717 0.000000 0.000000
# 5 0.000000 0.000000 0.000000 0.000000 -0.025239 0.000000
# 6 0.000000 0.000000 0.000000 0.000000 0.000000 0.133701
#
#
# Mechanical properties :
#
#
# Convention : Reuss Voigt Hill
#
# Bulk Modulus (GPa) = 27.52957 41.65944 34.59451
# Shear Modulus (GPa) = 16.45202 12.18348 14.31775
#
# Velocity S-wave (km/s) = 2.86257 2.46338 2.67045
# Velocity P-wave (km/s) = 4.96361 5.37033 5.17097
#
# Compressibility (1/GPa) = 0.03632457
#
# Stress axis : x y z
#
# Youngs Moduli (GPa) = 126.32845 111.61732 39.06212
#
# Poissons Ratio (x) = 0.25312 -0.00585
# Poissons Ratio (y) = 0.28648 0.03740
# Poissons Ratio (z) = -0.01892 0.10686
#
# Static dielectric constant tensor:
#      x y z
#    x 1.721750 0.000000 0.000000 
#    y 0.000000 1.699020 0.000000 
#    z 0.000000 0.000000 1.798870 
# 
# From -- ./inp_files/7686.got.cif
#   From: 2010.05.17/outbox.cif.g08.bks.cpg/sg65_4_cif.got.tgz:7686.got - 2010.06.03 17:01:31.
