data_PCOD9491336
_publ_section_title
;
Structure prediction by ZEFSAII (Michael W. Deem and Ramdas Pophale) SiO2 
 PCOD9491336
Probable space group: C M M M
;
_chemical_formula_sum "Si O2"
_cell_formula_units_Z 88
_cell_length_a 14.356178
_cell_length_b 18.663115
_cell_length_c 15.890471
_cell_angle_alpha 90.000000
_cell_angle_beta 90.000000
_cell_angle_gamma 90.000000
_cell_volume 4257.549801
_symmetry_space_group_name_H-M "C M M M"
_symmetry_group_IT_number 65
_symmetry_cell_setting 'orthorhombic'
loop_
_space_group_symop_operation_xyz
x,y,z
-x,-y,z
x,-y,-z
-x,y,-z
-x,-y,-z
x,y,-z
-x,y,z
x,-y,z
1/2+x,1/2+y,z
1/2-x,1/2-y,z
1/2+x,1/2-y,-z
1/2-x,1/2+y,-z
1/2-x,1/2-y,-z
1/2+x,1/2+y,-z
1/2-x,1/2+y,z
1/2+x,1/2-y,z
loop_
_atom_site_type_symbol
_atom_site_label
_atom_site_fract_x
_atom_site_fract_y
_atom_site_fract_z
Si Si1 0.797428 0.580924 0.638926
Si Si2 0.840047 0.198648 0.590744
Si Si3 0.000000 0.417005 0.399397
Si Si4 0.356245 0.278857 0.776390
Si Si5 0.600243 0.844193 0.095118
Si Si6 0.773099 0.080470 0.170130
O O1 0.803431 0.500000 0.605869
O O2 0.711788 0.622109 0.597607
O O3 0.900297 0.615056 0.627404
O O4 0.774087 0.579254 0.737321
O O5 0.888534 0.206110 0.500000
O O6 0.750000 0.250000 0.588818
O O7 0.890143 0.212319 0.680069
O O8 0.000000 0.500000 0.367420
O O9 0.000000 0.417727 0.500000
O O10 0.250000 0.250000 0.768143
O O11 0.399271 0.219598 0.836888
O O12 0.349255 0.356422 0.821253
O O13 0.500000 0.882434 0.103486
O O14 0.689442 0.893792 0.110509
O O15 0.606376 0.815146 0.000000
O O16 0.805934 0.000000 0.150819
#
# Coordination Sequence:
#
# PCOD9491336 Si02
#       6
#    16  16   8  16  16  16
#     4   9  17  28  42  64  95 132 165 192 230 281
#     4   9  16  27  44  64  90 124 163 205 240 272
#     4   9  16  24  36  58  89 125 162 190 217 264
#     4   8  16  32  50  69  94 129 169 203 238 289
#     4  10  21  35  52  73  96 129 168 204 249 306
#     4   9  18  31  49  74 102 130 161 201 247 291
#
# _framework density 20.669165
#
# number of rings (size 3 to 8) (size 9 to 14) (size 15 to 20)
#    0.000    3.000    0.000    1.636    1.273    5.091 
#    0.000    0.909    0.000    1.091    0.000    1.273 
#    0.000    0.000    0.000    9.091    1.091    0.000 
#
# Total GULP energy -245042.987854 kJ/mol
# GULP energy per Si atom -5569.158815 kJ/mol
# Density = 2.062212 g / cm^3
# Si number density = 20.669165 Si / 1000 Ang^3
#
#
#
# Elastic Constant Matrix: (Units=GPa)
#
#
# Indices 1 2 3 4 5 6 
#
# 1 30.0314 -6.7312 7.4194 0.0000 0.0000 0.0000
# 2 -6.7312 91.2998 5.7920 0.0000 0.0000 0.0000
# 3 7.4194 5.7920 97.6994 0.0000 0.0000 0.0000
# 4 0.0000 0.0000 0.0000 -41.6741 0.0000 0.0000
# 5 0.0000 0.0000 0.0000 0.0000 -21.5007 0.0000
# 6 0.0000 0.0000 0.0000 0.0000 0.0000 5.0906
#
#
#
# Elastic Compliance Matrix: (Units=1/GPa)
#
#
# Indices 1 2 3 4 5 6 
#
# 1 0.034599 0.002728 -0.002789 0.000000 0.000000 0.000000
# 2 0.002728 0.011209 -0.000872 0.000000 0.000000 0.000000
# 3 -0.002789 -0.000872 0.010499 0.000000 0.000000 0.000000
# 4 0.000000 0.000000 0.000000 -0.023996 0.000000 0.000000
# 5 0.000000 0.000000 0.000000 0.000000 -0.046510 0.000000
# 6 0.000000 0.000000 0.000000 0.000000 0.000000 0.196442
#
#
# Mechanical properties :
#
#
# Convention : Reuss Voigt Hill
#
# Bulk Modulus (GPa) = 18.36846 25.77678 22.07262
# Shear Modulus (GPa) = 24.72112 2.55319 13.63715
#
# Velocity S-wave (km/s) = 3.46213 1.11263 2.57141
# Velocity P-wave (km/s) = 4.98879 3.76149 4.41796
#
# Compressibility (1/GPa) = 0.05444115
#
# Stress axis : x y z
#
# Youngs Moduli (GPa) = 28.90256 89.21134 95.24744
#
# Poissons Ratio (x) = -0.24335 0.26567
# Poissons Ratio (y) = -0.07884 0.08303
# Poissons Ratio (z) = 0.08062 0.07776
#
# Static dielectric constant tensor:
#      x y z
#    x 1.748180 0.000000 0.000000 
#    y 0.000000 1.823060 0.000000 
#    z 0.000000 0.000000 1.777870 
# 
# From -- ./inp_files/44320.got.cif
#   From: 2010.05.17/outbox.cif.g08.bks.cpg/sg65_23_cif.got.tgz:44320.got - 2010.06.03 17:01:31.
