data_PCOD9491814
_publ_section_title
;
Structure prediction by ZEFSAII (Michael W. Deem and Ramdas Pophale) SiO2 
 PCOD9491814
Probable space group: C M M M
;
_chemical_formula_sum "Si O2"
_cell_formula_units_Z 112
_cell_length_a 13.980519
_cell_length_b 14.868182
_cell_length_c 28.092322
_cell_angle_alpha 90.000000
_cell_angle_beta 90.000000
_cell_angle_gamma 90.000000
_cell_volume 5839.407730
_symmetry_space_group_name_H-M "C M M M"
_symmetry_group_IT_number 65
_symmetry_cell_setting 'orthorhombic'
loop_
_space_group_symop_operation_xyz
x,y,z
-x,-y,z
x,-y,-z
-x,y,-z
-x,-y,-z
x,y,-z
-x,y,z
x,-y,z
1/2+x,1/2+y,z
1/2-x,1/2-y,z
1/2+x,1/2-y,-z
1/2-x,1/2+y,-z
1/2-x,1/2-y,-z
1/2+x,1/2+y,-z
1/2-x,1/2+y,z
1/2+x,1/2-y,z
loop_
_atom_site_type_symbol
_atom_site_label
_atom_site_fract_x
_atom_site_fract_y
_atom_site_fract_z
Si Si1 0.392438 0.100908 0.883673
Si Si2 0.777696 0.109323 0.352112
Si Si3 0.274157 0.355194 0.947123
Si Si4 0.385032 0.400215 0.147212
Si Si5 0.615753 0.773107 0.798516
Si Si6 0.885353 0.725556 0.690049
Si Si7 0.608706 0.608708 0.446342
O O1 0.500000 0.130637 0.896197
O O2 0.324334 0.102152 0.928884
O O3 0.353067 0.163247 0.841744
O O4 0.396940 0.000000 0.864897
O O5 0.849586 0.172553 0.321115
O O6 0.674657 0.154597 0.341660
O O7 0.814675 0.128879 0.405735
O O8 0.780638 0.000000 0.344098
O O9 0.250000 0.250000 0.948134
O O10 0.349310 0.374614 0.905458
O O11 0.302946 0.384281 0.000000
O O12 0.500000 0.401036 0.146766
O O13 0.349145 0.500000 0.158299
O O14 0.355422 0.326796 0.185910
O O15 0.500000 0.777668 0.799167
O O16 0.642298 0.795466 0.744872
O O17 0.000000 0.719253 0.684305
O O18 0.630910 0.640355 0.500000
O O19 0.500000 0.639088 0.433853
O O20 0.604712 0.500000 0.448089
#
# Coordination Sequence:
#
# PCOD9491814 Si02
#       7
#    16  16  16  16  16  16  16
#     4  10  21  38  60  81 102 134 177 223 266 312
#     4  10  21  36  56  85 118 151 194 244 290 340
#     4  11  23  37  56  80 108 141 171 207 265 333
#     4  10  21  38  60  82 105 137 178 224 271 320
#     4   9  19  38  58  78 108 142 182 225 266 323
#     4  10  22  38  57  82 117 157 193 235 290 350
#     4   8  14  28  54  85 115 152 198 245 292 341
#
# _framework density 19.180028
#
# number of rings (size 3 to 8) (size 9 to 14) (size 15 to 20)
#    0.000    2.286    1.429    1.286    0.000    6.286 
#    0.000    7.143    0.000    1.286    0.000    2.000 
#    0.000    0.000    0.000    0.000    0.000    0.000 
#
# Total GULP energy -312138.990878 kJ/mol
# GULP energy per Si atom -5573.910551 kJ/mol
# Density = 1.913637 g / cm^3
# Si number density = 19.180028 Si / 1000 Ang^3
#
#
#
# Elastic Constant Matrix: (Units=GPa)
#
#
# Indices 1 2 3 4 5 6 
#
# 1 88.9895 10.4885 23.0671 0.0000 0.0000 0.0000
# 2 10.4885 95.3368 24.8525 0.0000 0.0000 0.0000
# 3 23.0671 24.8525 97.7933 0.0000 0.0000 0.0000
# 4 0.0000 0.0000 0.0000 -4.3513 0.0000 0.0000
# 5 0.0000 0.0000 0.0000 0.0000 30.4645 0.0000
# 6 0.0000 0.0000 0.0000 0.0000 0.0000 20.3707
#
#
#
# Elastic Compliance Matrix: (Units=1/GPa)
#
#
# Indices 1 2 3 4 5 6 
#
# 1 0.012004 -0.000624 -0.002673 0.000000 0.000000 0.000000
# 2 -0.000624 0.011266 -0.002716 0.000000 0.000000 0.000000
# 3 -0.002673 -0.002716 0.011546 0.000000 0.000000 0.000000
# 4 0.000000 0.000000 0.000000 -0.229814 0.000000 0.000000
# 5 0.000000 0.000000 0.000000 0.000000 0.032825 0.000000
# 6 0.000000 0.000000 0.000000 0.000000 0.000000 0.049090
#
#
# Mechanical properties :
#
#
# Convention : Reuss Voigt Hill
#
# Bulk Modulus (GPa) = 43.87765 44.32619 44.10192
# Shear Modulus (GPa) = -53.49827 24.21086 -14.64371
#
# Velocity S-wave (km/s) = -5.28708 3.55673 -2.76612
# Velocity P-wave (km/s) = 3.78743 6.32676 3.58353
#
# Compressibility (1/GPa) = 0.02279065
#
# Stress axis : x y z
#
# Youngs Moduli (GPa) = 83.30806 88.76485 86.60788
#
# Poissons Ratio (x) = 0.05537 0.23149
# Poissons Ratio (y) = 0.05197 0.23521
# Poissons Ratio (z) = 0.22267 0.24107
#
# Static dielectric constant tensor:
#      x y z
#    x 1.709520 0.000000 0.000000 
#    y 0.000000 1.710310 0.000000 
#    z 0.000000 0.000000 1.660520 
# 
# From -- ./inp_files/74861.got.cif
#   From: 2010.05.17/outbox.cif.g08.bks.cpg/sg65_38_cif.got.tgz:74861.got - 2010.06.03 17:01:31.
