data_PCOD9491790
_publ_section_title
;
Structure prediction by ZEFSAII (Michael W. Deem and Ramdas Pophale) SiO2 
 PCOD9491790
Probable space group: C M M M
;
_chemical_formula_sum "Si O2"
_cell_formula_units_Z 88
_cell_length_a 31.416026
_cell_length_b 13.586572
_cell_length_c 12.134009
_cell_angle_alpha 90.000000
_cell_angle_beta 90.000000
_cell_angle_gamma 90.000000
_cell_volume 5179.233069
_symmetry_space_group_name_H-M "C M M M"
_symmetry_group_IT_number 65
_symmetry_cell_setting 'orthorhombic'
loop_
_space_group_symop_operation_xyz
x,y,z
-x,-y,z
x,-y,-z
-x,y,-z
-x,-y,-z
x,y,-z
-x,y,z
x,-y,z
1/2+x,1/2+y,z
1/2-x,1/2-y,z
1/2+x,1/2-y,-z
1/2-x,1/2+y,-z
1/2-x,1/2-y,-z
1/2+x,1/2+y,-z
1/2-x,1/2+y,z
1/2+x,1/2-y,z
loop_
_atom_site_type_symbol
_atom_site_label
_atom_site_fract_x
_atom_site_fract_y
_atom_site_fract_z
Si Si1 0.210524 0.173478 0.500000
Si Si2 0.159638 0.387962 0.271767
Si Si3 0.883204 0.000000 0.871568
Si Si4 0.371760 0.810555 0.500000
Si Si5 0.050445 0.166827 0.500000
Si Si6 0.330951 0.702522 0.869898
Si Si7 0.738975 0.608600 0.268053
Si Si8 0.949931 0.000000 0.679943
O O1 0.250000 0.250000 0.500000
O O2 0.165479 0.227893 0.500000
O O3 0.216318 0.115328 0.386715
O O4 0.151749 0.500000 0.232257
O O5 0.136777 0.371338 0.388649
O O6 0.148953 0.298077 0.189669
O O7 0.210820 0.377946 0.288551
O O8 0.856922 0.899033 0.852433
O O9 0.922097 0.000000 0.788203
O O10 0.895751 0.000000 0.000000
O O11 0.417336 0.757542 0.500000
O O12 0.058809 0.096047 0.604884
O O13 0.000000 0.192180 0.500000
O O14 0.285621 0.680940 0.813007
O O15 0.326889 0.719839 0.000000
O O16 0.734171 0.500000 0.219742
O O17 0.000000 0.000000 0.704230
#
# Coordination Sequence:
#
# PCOD9491790 Si02
#       8
#     8  16   8   8   8  16  16   8
#     4  12  19  32  50  77 109 140 174 221 272 323
#     4  11  23  36  53  76 104 144 185 231 274 318
#     4  10  21  36  56  82 109 142 185 228 272 320
#     4  12  20  34  57  76 108 142 176 223 277 318
#     4   9  20  35  56  85 114 147 177 213 272 343
#     4  11  22  37  53  73 106 146 190 232 267 317
#     4  11  21  34  50  74 108 140 184 230 274 322
#     4   9  18  35  55  83 119 142 171 215 269 341
#
# _framework density 16.990932000000001
#
# number of rings (size 3 to 8) (size 9 to 14) (size 15 to 20)
#    0.000    1.273    4.545    2.727    0.000    3.455 
#    1.636    1.818    0.000    1.091    0.000    0.000 
#    0.000    0.000    0.000   15.636    0.000    0.182 
#
# Total GULP energy -245486.612311 kJ/mol
# GULP energy per Si atom -5579.241189 kJ/mol
# Density = 1.695226 g / cm^3
# Si number density = 16.990932 Si / 1000 Ang^3
#
#
#
# Elastic Constant Matrix: (Units=GPa)
#
#
# Indices 1 2 3 4 5 6 
#
# 1 58.0448 33.4946 39.2856 0.0000 0.0000 0.0000
# 2 33.4946 126.7245 55.3170 0.0000 0.0000 0.0000
# 3 39.2856 55.3170 104.9857 0.0000 0.0000 0.0000
# 4 0.0000 0.0000 0.0000 21.9593 0.0000 0.0000
# 5 0.0000 0.0000 0.0000 0.0000 -32.3433 0.0000
# 6 0.0000 0.0000 0.0000 0.0000 0.0000 25.7438
#
#
#
# Elastic Compliance Matrix: (Units=1/GPa)
#
#
# Indices 1 2 3 4 5 6 
#
# 1 0.024000 -0.003147 -0.007323 0.000000 0.000000 0.000000
# 2 -0.003147 0.010661 -0.004440 0.000000 0.000000 0.000000
# 3 -0.007323 -0.004440 0.014604 0.000000 0.000000 0.000000
# 4 0.000000 0.000000 0.000000 0.045539 0.000000 0.000000
# 5 0.000000 0.000000 0.000000 0.000000 -0.030918 0.000000
# 6 0.000000 0.000000 0.000000 0.000000 0.000000 0.038844
#
#
# Mechanical properties :
#
#
# Convention : Reuss Voigt Hill
#
# Bulk Modulus (GPa) = 51.42214 60.66106 56.04160
# Shear Modulus (GPa) = 35.96318 13.84916 24.90617
#
# Velocity S-wave (km/s) = 4.60565 2.85808 3.83280
# Velocity P-wave (km/s) = 7.65591 6.83162 7.25548
#
# Compressibility (1/GPa) = 0.01944688
#
# Stress axis : x y z
#
# Youngs Moduli (GPa) = 41.66643 93.80095 68.47222
#
# Poissons Ratio (x) = 0.29520 0.50140
# Poissons Ratio (y) = 0.13113 0.30399
# Poissons Ratio (z) = 0.30511 0.41644
#
# Static dielectric constant tensor:
#      x y z
#    x 1.547410 0.000000 0.000000 
#    y 0.000000 1.621100 0.000000 
#    z 0.000000 0.000000 1.572790 
# 
# From -- ./inp_files/32305.got.cif
#   From: 2010.05.17/outbox.cif.g08.bks.cpg/sg65_17_cif.got.tgz:32305.got - 2010.06.03 17:01:31.
