data_PCOD9491880
_publ_section_title
;
Structure prediction by ZEFSAII (Michael W. Deem and Ramdas Pophale) SiO2 
 PCOD9491880
Probable space group: C M M M
;
_chemical_formula_sum "Si O2"
_cell_formula_units_Z 82
_cell_length_a 20.368331
_cell_length_b 16.454416
_cell_length_c 13.608475
_cell_angle_alpha 90.000000
_cell_angle_beta 90.000000
_cell_angle_gamma 90.000000
_cell_volume 4560.866672
_symmetry_space_group_name_H-M "C M M M"
_symmetry_group_IT_number 65
_symmetry_cell_setting 'orthorhombic'
loop_
_space_group_symop_operation_xyz
x,y,z
-x,-y,z
x,-y,-z
-x,y,-z
-x,-y,-z
x,y,-z
-x,y,z
x,-y,z
1/2+x,1/2+y,z
1/2-x,1/2-y,z
1/2+x,1/2-y,-z
1/2-x,1/2+y,-z
1/2-x,1/2-y,-z
1/2+x,1/2+y,-z
1/2-x,1/2+y,z
1/2+x,1/2-y,z
loop_
_atom_site_type_symbol
_atom_site_label
_atom_site_fract_x
_atom_site_fract_y
_atom_site_fract_z
Si Si1 0.000000 0.809283 0.382835
Si Si2 0.000000 0.500000 0.500000
Si Si3 0.879171 0.593927 0.178889
Si Si4 0.577490 0.206940 0.000000
Si Si5 0.304076 0.322152 0.000000
Si Si6 0.769825 0.097485 0.207878
Si Si7 0.635167 0.401772 0.614778
Si Si8 0.000000 0.375857 0.319185
O O1 0.934291 0.860108 0.360357
O O2 0.000000 0.796660 0.500000
O O3 0.000000 0.721097 0.334127
O O4 0.000000 0.428705 0.416065
O O5 0.875023 0.500000 0.144374
O O6 0.901902 0.652936 0.092894
O O7 0.807192 0.618487 0.216906
O O8 0.934722 0.600344 0.260431
O O9 0.623055 0.285717 0.000000
O O10 0.500000 0.222933 0.000000
O O11 0.250000 0.250000 0.000000
O O12 0.293105 0.369904 0.101943
O O13 0.812056 0.124486 0.302646
O O14 0.774617 0.000000 0.205813
O O15 0.652022 0.381984 0.500000
O O16 0.628769 0.500000 0.619017
#
# Coordination Sequence:
#
# PCOD9491880 Si02
#       8
#     8   2  16   8   8  16  16   8
#     4  10  21  36  61  86 117 158 203 249 296 349
#     4  12  24  48  56  82 134 176 204 246 320 366
#     4  11  22  39  60  87 113 156 199 250 301 355
#     4  12  25  38  61  90 117 150 202 259 302 353
#     4  12  23  39  61  89 121 162 194 250 312 360
#     4  10  22  40  62  87 122 160 200 242 307 378
#     4   9  19  38  62  92 120 154 199 253 306 364
#     4  12  24  40  59  86 121 162 206 247 298 365
#
# _framework density 17.979039
#
# number of rings (size 3 to 8) (size 9 to 14) (size 15 to 20)
#    0.000    1.366    4.390    0.878    2.732    3.122 
#    1.756    0.000    0.000    3.512    0.000    0.000 
#    0.000    0.000    0.000    0.000    0.000    0.000 
#
# Total GULP energy -228568.042011 kJ/mol
# GULP energy per Si atom -5574.830293 kJ/mol
# Density = 1.793812 g / cm^3
# Si number density = 17.979039 Si / 1000 Ang^3
#
#
#
# Elastic Constant Matrix: (Units=GPa)
#
#
# Indices 1 2 3 4 5 6 
#
# 1 181.6972 43.8479 88.1796 0.0000 0.0000 0.0000
# 2 43.8479 37.7305 33.7166 0.0000 0.0000 0.0000
# 3 88.1796 33.7166 144.4670 0.0000 0.0000 0.0000
# 4 0.0000 0.0000 0.0000 30.9713 0.0000 0.0000
# 5 0.0000 0.0000 0.0000 0.0000 24.7835 0.0000
# 6 0.0000 0.0000 0.0000 0.0000 0.0000 65.9771
#
#
#
# Elastic Compliance Matrix: (Units=1/GPa)
#
#
# Indices 1 2 3 4 5 6 
#
# 1 0.009112 -0.007100 -0.003905 0.000000 0.000000 0.000000
# 2 -0.007100 0.039020 -0.004773 0.000000 0.000000 0.000000
# 3 -0.003905 -0.004773 0.010419 0.000000 0.000000 0.000000
# 4 0.000000 0.000000 0.000000 0.032288 0.000000 0.000000
# 5 0.000000 0.000000 0.000000 0.000000 0.040349 0.000000
# 6 0.000000 0.000000 0.000000 0.000000 0.000000 0.015157
#
#
# Mechanical properties :
#
#
# Convention : Reuss Voigt Hill
#
# Bulk Modulus (GPa) = 37.04268 77.26477 57.15373
# Shear Modulus (GPa) = 26.75221 37.55641 32.15431
#
# Velocity S-wave (km/s) = 3.86160 4.57541 4.23357
# Velocity P-wave (km/s) = 6.36637 8.42500 7.46697
#
# Compressibility (1/GPa) = 0.02699589
#
# Stress axis : x y z
#
# Youngs Moduli (GPa) = 109.74396 25.62771 95.97524
#
# Poissons Ratio (x) = 0.18196 0.37476
# Poissons Ratio (y) = 0.77919 0.45809
# Poissons Ratio (z) = 0.42853 0.12232
#
# Static dielectric constant tensor:
#      x y z
#    x 1.607030 0.000000 0.000000 
#    y 0.000000 1.618940 0.000000 
#    z 0.000000 0.000000 1.666130 
# 
# From -- ./inp_files/28669.got.cif
#   From: 2010.05.17/outbox.cif.g08.bks.cpg/sg65_15_cif.got.tgz:28669.got - 2010.06.03 17:01:31.
