data_PCOD9491298
_publ_section_title
;
Structure prediction by ZEFSAII (Michael W. Deem and Ramdas Pophale) SiO2 
 PCOD9491298
Probable space group: C M M M
;
_chemical_formula_sum "Si O2"
_cell_formula_units_Z 88
_cell_length_a 11.197025
_cell_length_b 15.866298
_cell_length_c 26.247429
_cell_angle_alpha 90.000000
_cell_angle_beta 90.000000
_cell_angle_gamma 90.000000
_cell_volume 4662.995801
_symmetry_space_group_name_H-M "C M M M"
_symmetry_group_IT_number 65
_symmetry_cell_setting 'orthorhombic'
loop_
_space_group_symop_operation_xyz
x,y,z
-x,-y,z
x,-y,-z
-x,y,-z
-x,-y,-z
x,y,-z
-x,y,z
x,-y,z
1/2+x,1/2+y,z
1/2-x,1/2-y,z
1/2+x,1/2-y,-z
1/2-x,1/2+y,-z
1/2-x,1/2-y,-z
1/2+x,1/2+y,-z
1/2-x,1/2+y,z
1/2+x,1/2-y,z
loop_
_atom_site_type_symbol
_atom_site_label
_atom_site_fract_x
_atom_site_fract_y
_atom_site_fract_z
Si Si1 0.239126 0.153190 0.611989
Si Si2 0.363062 0.898319 0.709637
Si Si3 0.865609 0.190378 0.000000
Si Si4 0.634731 0.102699 0.828420
Si Si5 0.500000 0.600097 0.558177
Si Si6 0.866903 0.101763 0.891327
Si Si7 0.359619 0.000000 0.556322
O O1 0.250000 0.250000 0.596957
O O2 0.269117 0.143167 0.671622
O O3 0.111870 0.126072 0.591622
O O4 0.324511 0.084876 0.585333
O O5 0.500000 0.876866 0.694544
O O6 0.348927 0.875394 0.768907
O O7 0.351720 0.000000 0.705872
O O8 0.750000 0.250000 0.000000
O O9 0.859259 0.134730 0.051047
O O10 0.000000 0.230839 0.000000
O O11 0.500000 0.130328 0.844589
O O12 0.749644 0.131905 0.860522
O O13 0.633386 0.000000 0.830949
O O14 0.500000 0.500000 0.553736
O O15 0.500000 0.634764 0.500000
O O16 0.000000 0.126737 0.871349
O O17 0.863819 0.000000 0.890987
O O18 0.500000 0.000000 0.551632
O O19 0.301978 0.000000 0.500000
#
# Coordination Sequence:
#
# PCOD9491298 Si02
#       7
#    16  16   8  16   8  16   8
#     4  12  25  40  63  91 119 155 198 242 292 355
#     4   9  17  35  62  84 111 148 190 236 284 339
#     4  10  21  35  51  73 107 150 194 230 284 340
#     4   8  15  29  53  84 110 142 184 234 287 337
#     4  11  24  44  62  81 121 163 189 235 305 360
#     4   9  17  32  54  80 109 144 186 237 284 338
#     4  11  24  43  67  91 115 150 199 246 287 348
#
# _framework density 18.871988000000002
#
# number of rings (size 3 to 8) (size 9 to 14) (size 15 to 20)
#    0.000    2.182    1.818    2.455    2.545    3.273 
#    1.636    0.909    0.000    4.909    0.000    0.000 
#    0.000    0.000    0.000    0.000    0.000    0.000 
#
# Total GULP energy -245243.017944 kJ/mol
# GULP energy per Si atom -5573.704953 kJ/mol
# Density = 1.882903 g / cm^3
# Si number density = 18.871988 Si / 1000 Ang^3
#
#
#
# Elastic Constant Matrix: (Units=GPa)
#
#
# Indices 1 2 3 4 5 6 
#
# 1 180.7080 33.9551 85.7532 0.0000 0.0000 0.0000
# 2 33.9551 61.4772 19.5037 0.0000 0.0000 0.0000
# 3 85.7532 19.5037 101.9471 0.0000 0.0000 0.0000
# 4 0.0000 0.0000 0.0000 -7.4956 0.0000 0.0000
# 5 0.0000 0.0000 0.0000 0.0000 43.3465 0.0000
# 6 0.0000 0.0000 0.0000 0.0000 0.0000 1.6207
#
#
#
# Elastic Compliance Matrix: (Units=1/GPa)
#
#
# Indices 1 2 3 4 5 6 
#
# 1 0.009686 -0.002944 -0.007584 0.000000 0.000000 0.000000
# 2 -0.002944 0.018212 -0.001008 0.000000 0.000000 0.000000
# 3 -0.007584 -0.001008 0.016381 0.000000 0.000000 0.000000
# 4 0.000000 0.000000 0.000000 -0.133411 0.000000 0.000000
# 5 0.000000 0.000000 0.000000 0.000000 0.023070 0.000000
# 6 0.000000 0.000000 0.000000 0.000000 0.000000 0.617021
#
#
# Mechanical properties :
#
#
# Convention : Reuss Voigt Hill
#
# Bulk Modulus (GPa) = 47.15369 69.17292 58.16330
# Shear Modulus (GPa) = 8.60437 21.15567 14.88002
#
# Velocity S-wave (km/s) = 2.13758 3.35178 2.81102
# Velocity P-wave (km/s) = 5.57966 7.19114 6.43604
#
# Compressibility (1/GPa) = 0.02120725
#
# Stress axis : x y z
#
# Youngs Moduli (GPa) = 103.24297 54.90938 61.04515
#
# Poissons Ratio (x) = 0.16163 0.46298
# Poissons Ratio (y) = 0.30391 0.06154
# Poissons Ratio (z) = 0.78301 0.05535
#
# Static dielectric constant tensor:
#      x y z
#    x 1.641880 0.000000 0.000000 
#    y 0.000000 1.611790 0.000000 
#    z 0.000000 0.000000 1.658370 
# 
# From -- ./inp_files/74307.got.cif
#   From: 2010.05.17/outbox.cif.g08.bks.cpg/sg65_38_cif.got.tgz:74307.got - 2010.06.03 17:01:31.
