data_PCOD9491827
_publ_section_title
;
Structure prediction by ZEFSAII (Michael W. Deem and Ramdas Pophale) SiO2 
 PCOD9491827
Probable space group: C M M M
;
_chemical_formula_sum "Si O2"
_cell_formula_units_Z 72
_cell_length_a 8.582856
_cell_length_b 32.810512
_cell_length_c 13.565948
_cell_angle_alpha 90.000000
_cell_angle_beta 90.000000
_cell_angle_gamma 90.000000
_cell_volume 3820.278125
_symmetry_space_group_name_H-M "C M M M"
_symmetry_group_IT_number 65
_symmetry_cell_setting 'orthorhombic'
loop_
_space_group_symop_operation_xyz
x,y,z
-x,-y,z
x,-y,-z
-x,y,-z
-x,-y,-z
x,y,-z
-x,y,z
x,-y,z
1/2+x,1/2+y,z
1/2-x,1/2-y,z
1/2+x,1/2-y,-z
1/2-x,1/2+y,-z
1/2-x,1/2-y,-z
1/2+x,1/2+y,-z
1/2-x,1/2+y,z
1/2+x,1/2-y,z
loop_
_atom_site_type_symbol
_atom_site_label
_atom_site_fract_x
_atom_site_fract_y
_atom_site_fract_z
Si Si1 0.813675 0.000000 0.111234
Si Si2 0.312855 0.295945 0.109220
Si Si3 0.314986 0.932976 0.257259
Si Si4 0.312690 0.840764 0.302076
Si Si5 0.686740 0.703336 0.500000
Si Si6 0.323846 0.500000 0.614963
O O1 0.757545 0.040736 0.167908
O O2 0.000000 0.000000 0.109346
O O3 0.753458 0.000000 0.000000
O O4 0.500000 0.296112 0.118916
O O5 0.250000 0.250000 0.108788
O O6 0.237802 0.317236 0.203366
O O7 0.274451 0.313713 0.000000
O O8 0.500000 0.931913 0.242735
O O9 0.260909 0.887324 0.280952
O O10 0.268390 0.960714 0.349377
O O11 0.500000 0.840072 0.312091
O O12 0.243366 0.820237 0.400981
O O13 0.500000 0.704773 0.500000
O O14 0.750000 0.750000 0.500000
O O15 0.500000 0.500000 0.657843
O O16 0.336396 0.500000 0.500000
#
# Coordination Sequence:
#
# PCOD9491827 Si02
#       6
#     8  16  16  16   8   8
#     4  10  21  38  61  87 120 160 199 245 298 355
#     4  10  21  38  61  88 118 155 198 245 300 360
#     4  10  22  38  58  85 115 152 194 239 288 344
#     4  11  24  41  61  89 124 158 202 253 303 360
#     4  12  26  44  66  89 120 163 206 252 309 368
#     4  10  21  36  57  83 112 146 185 231 284 337
#
# _framework density 18.846795
#
# number of rings (size 3 to 8) (size 9 to 14) (size 15 to 20)
#    0.000    1.556    0.000    5.667    1.556    7.556 
#    0.000    4.444    0.000    0.000    0.000    0.000 
#    0.000    0.000    0.000    0.000    0.000    0.000 
#
# Total GULP energy -200894.455827 kJ/mol
# GULP energy per Si atom -5580.401551 kJ/mol
# Density = 1.880390 g / cm^3
# Si number density = 18.846795 Si / 1000 Ang^3
#
#
#
# Elastic Constant Matrix: (Units=GPa)
#
#
# Indices 1 2 3 4 5 6 
#
# 1 71.1562 42.1503 40.6573 0.0000 0.0000 0.0000
# 2 42.1503 159.5707 92.4784 0.0000 0.0000 0.0000
# 3 40.6573 92.4784 181.6001 0.0000 0.0000 0.0000
# 4 0.0000 0.0000 0.0000 -24.2283 0.0000 0.0000
# 5 0.0000 0.0000 0.0000 0.0000 94.8109 0.0000
# 6 0.0000 0.0000 0.0000 0.0000 0.0000 14.6455
#
#
#
# Elastic Compliance Matrix: (Units=1/GPa)
#
#
# Indices 1 2 3 4 5 6 
#
# 1 0.017252 -0.003289 -0.002187 0.000000 0.000000 0.000000
# 2 -0.003289 0.009518 -0.004110 0.000000 0.000000 0.000000
# 3 -0.002187 -0.004110 0.008090 0.000000 0.000000 0.000000
# 4 0.000000 0.000000 0.000000 -0.041274 0.000000 0.000000
# 5 0.000000 0.000000 0.000000 0.000000 0.010547 0.000000
# 6 0.000000 0.000000 0.000000 0.000000 0.000000 0.068280
#
#
# Mechanical properties :
#
#
# Convention : Reuss Voigt Hill
#
# Bulk Modulus (GPa) = 63.75536 84.76654 74.26095
# Shear Modulus (GPa) = 51.64463 32.84835 42.24649
#
# Velocity S-wave (km/s) = 5.24040 4.17935 4.73966
# Velocity P-wave (km/s) = 8.39747 8.26823 8.33310
#
# Compressibility (1/GPa) = 0.01568496
#
# Stress axis : x y z
#
# Youngs Moduli (GPa) = 57.96456 105.06502 123.61649
#
# Poissons Ratio (x) = 0.34560 0.27039
# Poissons Ratio (y) = 0.19067 0.50812
# Poissons Ratio (z) = 0.12679 0.43187
#
# Static dielectric constant tensor:
#      x y z
#    x 1.650250 0.000000 0.000000 
#    y 0.000000 1.720130 0.000000 
#    z 0.000000 0.000000 1.651780 
# 
# From -- ./inp_files/36652.got.cif
#   From: 2010.05.17/outbox.cif.g08.bks.cpg/sg65_19_cif.got.tgz:36652.got - 2010.06.03 17:01:31.
