data_PCOD9491511
_publ_section_title
;
Structure prediction by ZEFSAII (Michael W. Deem and Ramdas Pophale) SiO2 
 PCOD9491511
Probable space group: C M M M
;
_chemical_formula_sum "Si O2"
_cell_formula_units_Z 88
_cell_length_a 7.682406
_cell_length_b 18.731991
_cell_length_c 29.682067
_cell_angle_alpha 90.000000
_cell_angle_beta 90.000000
_cell_angle_gamma 90.000000
_cell_volume 4271.450094
_symmetry_space_group_name_H-M "C M M M"
_symmetry_group_IT_number 65
_symmetry_cell_setting 'orthorhombic'
loop_
_space_group_symop_operation_xyz
x,y,z
-x,-y,z
x,-y,-z
-x,y,-z
-x,-y,-z
x,y,-z
-x,y,z
x,-y,z
1/2+x,1/2+y,z
1/2-x,1/2-y,z
1/2+x,1/2-y,-z
1/2-x,1/2+y,-z
1/2-x,1/2-y,-z
1/2+x,1/2+y,-z
1/2-x,1/2+y,z
1/2+x,1/2-y,z
loop_
_atom_site_type_symbol
_atom_site_label
_atom_site_fract_x
_atom_site_fract_y
_atom_site_fract_z
Si Si1 0.208863 0.834428 0.500000
Si Si2 0.793341 0.333384 0.774468
Si Si3 0.786577 0.417695 0.862324
Si Si4 0.792185 0.919432 0.684628
Si Si5 0.209247 0.667027 0.949666
Si Si6 0.209987 0.165915 0.401885
O O1 0.250000 0.750000 0.500000
O O2 0.274123 0.860038 0.548800
O O3 0.000000 0.843876 0.500000
O O4 0.750000 0.250000 0.773581
O O5 0.724992 0.372241 0.819389
O O6 0.735925 0.373470 0.729375
O O7 0.000000 0.339626 0.776052
O O8 0.734088 0.500000 0.858678
O O9 0.726982 0.381850 0.908937
O O10 0.000000 0.416237 0.862534
O O11 0.722608 0.878756 0.640476
O O12 0.000000 0.924527 0.678673
O O13 0.723157 0.000000 0.689356
O O14 0.250000 0.750000 0.940716
O O15 0.000000 0.660010 0.950869
O O16 0.275362 0.649524 0.000000
O O17 0.250000 0.250000 0.396649
O O18 0.000000 0.160233 0.402488
#
# Coordination Sequence:
#
# PCOD9491511 Si02
#       6
#     8  16  16  16  16  16
#     4   8  14  26  45  69  95 123 159 200 241 286
#     4  11  22  36  55  76  99 130 168 208 250 297
#     4   9  18  32  50  74 102 129 161 203 247 292
#     4  10  21  36  52  73 103 134 165 205 251 297
#     4   9  17  30  50  74  99 129 164 202 243 287
#     4   9  17  30  49  72  97 127 163 203 245 289
#
# _framework density 20.601903
#
# number of rings (size 3 to 8) (size 9 to 14) (size 15 to 20)
#    0.000    2.545    0.000    2.182    0.000    3.636 
#    0.000    3.182    0.000    5.455    0.000    2.545 
#    0.000    8.727    0.000    0.000    0.000    0.000 
#
# Total GULP energy -245540.766048 kJ/mol
# GULP energy per Si atom -5580.471956 kJ/mol
# Density = 2.055501 g / cm^3
# Si number density = 20.601903 Si / 1000 Ang^3
#
#
#
# Elastic Constant Matrix: (Units=GPa)
#
#
# Indices 1 2 3 4 5 6 
#
# 1 37.7314 0.1867 6.8313 0.0000 0.0000 0.0000
# 2 0.1867 160.5711 136.5859 0.0000 0.0000 0.0000
# 3 6.8313 136.5859 234.0448 0.0000 0.0000 0.0000
# 4 0.0000 0.0000 0.0000 -11.0364 0.0000 0.0000
# 5 0.0000 0.0000 0.0000 0.0000 14.3666 0.0000
# 6 0.0000 0.0000 0.0000 0.0000 0.0000 11.1445
#
#
#
# Elastic Compliance Matrix: (Units=1/GPa)
#
#
# Indices 1 2 3 4 5 6 
#
# 1 0.026771 0.001258 -0.001516 0.000000 0.000000 0.000000
# 2 0.001258 0.012426 -0.007288 0.000000 0.000000 0.000000
# 3 -0.001516 -0.007288 0.008570 0.000000 0.000000 0.000000
# 4 0.000000 0.000000 0.000000 -0.090609 0.000000 0.000000
# 5 0.000000 0.000000 0.000000 0.000000 0.069606 0.000000
# 6 0.000000 0.000000 0.000000 0.000000 0.000000 0.089730
#
#
# Mechanical properties :
#
#
# Convention : Reuss Voigt Hill
#
# Bulk Modulus (GPa) = 30.60365 79.95056 55.27710
# Shear Modulus (GPa) = 35.09300 22.14450 28.61875
#
# Velocity S-wave (km/s) = 4.13169 3.28209 3.73115
# Velocity P-wave (km/s) = 6.13581 7.29756 6.74176
#
# Compressibility (1/GPa) = 0.03267584
#
# Stress axis : x y z
#
# Youngs Moduli (GPa) = 37.35339 80.47646 116.68146
#
# Poissons Ratio (x) = -0.10125 0.17684
# Poissons Ratio (y) = -0.04699 0.85042
# Poissons Ratio (z) = 0.05661 0.58654
#
# Static dielectric constant tensor:
#      x y z
#    x 1.780610 0.000000 0.000000 
#    y 0.000000 1.677240 0.000000 
#    z 0.000000 0.000000 1.758380 
# 
# From -- ./inp_files/76605.got.cif
#   From: 2010.05.17/outbox.cif.g08.bks.cpg/sg65_39_cif.got.tgz:76605.got - 2010.06.03 17:01:31.
