data_PCOD9491985
_publ_section_title
;
Structure prediction by ZEFSAII (Michael W. Deem and Ramdas Pophale) SiO2 
 PCOD9491985
Probable space group: C M M M
;
_chemical_formula_sum "Si O2"
_cell_formula_units_Z 80
_cell_length_a 8.268056
_cell_length_b 21.617855
_cell_length_c 24.329886
_cell_angle_alpha 90.000000
_cell_angle_beta 90.000000
_cell_angle_gamma 90.000000
_cell_volume 4348.666301
_symmetry_space_group_name_H-M "C M M M"
_symmetry_group_IT_number 65
_symmetry_cell_setting 'orthorhombic'
loop_
_space_group_symop_operation_xyz
x,y,z
-x,-y,z
x,-y,-z
-x,y,-z
-x,-y,-z
x,y,-z
-x,y,z
x,-y,z
1/2+x,1/2+y,z
1/2-x,1/2-y,z
1/2+x,1/2-y,-z
1/2-x,1/2+y,-z
1/2-x,1/2-y,-z
1/2+x,1/2+y,-z
1/2-x,1/2+y,z
1/2+x,1/2-y,z
loop_
_atom_site_type_symbol
_atom_site_label
_atom_site_fract_x
_atom_site_fract_y
_atom_site_fract_z
Si Si1 0.500000 0.075419 0.935803
Si Si2 0.808527 0.865504 0.562322
Si Si3 0.181742 0.074118 0.870866
Si Si4 0.318236 0.000000 0.566407
Si Si5 0.303377 0.929622 0.747015
Si Si6 0.808842 0.684084 0.326994
O O1 0.334598 0.097385 0.906346
O O2 0.500000 0.000000 0.931258
O O3 0.500000 0.091043 0.000000
O O4 0.745080 0.855699 0.500000
O O5 0.736639 0.822855 0.609204
O O6 0.000000 0.857508 0.560913
O O7 0.768640 0.936118 0.579587
O O8 0.226901 0.081623 0.806814
O O9 0.000000 0.098324 0.882476
O O10 0.175348 0.000000 0.880412
O O11 0.500000 0.000000 0.589741
O O12 0.328447 0.000000 0.500000
O O13 0.500000 0.927419 0.752043
O O14 0.247153 0.875910 0.705959
O O15 0.262461 0.000000 0.729228
O O16 0.750000 0.750000 0.305359
O O17 0.000000 0.682674 0.322627
#
# Coordination Sequence:
#
# PCOD9491985 Si02
#       6
#     8  16  16   8  16  16
#     4   9  16  26  42  68 110 154 185 225 274 322
#     4  10  21  37  56  78 106 138 175 222 277 335
#     4   9  16  27  46  72 103 143 188 229 272 325
#     4   9  17  31  53  79 105 133 169 213 259 320
#     4   9  18  35  57  78 103 140 185 231 278 330
#     4  11  24  39  57  80 110 143 177 229 282 336
#
# _framework density 18.396446000000001
#
# number of rings (size 3 to 8) (size 9 to 14) (size 15 to 20)
#    0.000    2.400    1.000    1.500    1.400    4.800 
#    0.000    2.000    0.000    0.000    0.000    0.000 
#    0.000    0.800    0.400    0.000    0.000    0.000 
#
# Total GULP energy -223030.423877 kJ/mol
# GULP energy per Si atom -5575.760597 kJ/mol
# Density = 1.835457 g / cm^3
# Si number density = 18.396446 Si / 1000 Ang^3
#
#
#
# Elastic Constant Matrix: (Units=GPa)
#
#
# Indices 1 2 3 4 5 6 
#
# 1 81.2106 31.6993 48.6441 0.0000 0.0000 0.0000
# 2 31.6993 81.1784 48.9219 0.0000 0.0000 0.0000
# 3 48.6441 48.9219 83.9375 0.0000 0.0000 0.0000
# 4 0.0000 0.0000 0.0000 2.1962 0.0000 0.0000
# 5 0.0000 0.0000 0.0000 0.0000 9.8733 0.0000
# 6 0.0000 0.0000 0.0000 0.0000 0.0000 21.2059
#
#
#
# Elastic Compliance Matrix: (Units=1/GPa)
#
#
# Indices 1 2 3 4 5 6 
#
# 1 0.018937 -0.001204 -0.010273 0.000000 0.000000 0.000000
# 2 -0.001204 0.019065 -0.010414 0.000000 0.000000 0.000000
# 3 -0.010273 -0.010414 0.023937 0.000000 0.000000 0.000000
# 4 0.000000 0.000000 0.000000 0.455337 0.000000 0.000000
# 5 0.000000 0.000000 0.000000 0.000000 0.101284 0.000000
# 6 0.000000 0.000000 0.000000 0.000000 0.000000 0.047157
#
#
# Mechanical properties :
#
#
# Convention : Reuss Voigt Hill
#
# Bulk Modulus (GPa) = 55.07516 56.09523 55.58519
# Shear Modulus (GPa) = 6.98764 14.45914 10.72339
#
# Velocity S-wave (km/s) = 1.95105 2.80657 2.41696
# Velocity P-wave (km/s) = 5.92270 6.40789 6.17007
#
# Compressibility (1/GPa) = 0.01815701
#
# Stress axis : x y z
#
# Youngs Moduli (GPa) = 52.80723 52.45351 41.77705
#
# Poissons Ratio (x) = 0.06314 0.42917
# Poissons Ratio (y) = 0.06357 0.43506
# Poissons Ratio (z) = 0.54248 0.54625
#
# Static dielectric constant tensor:
#      x y z
#    x 1.652800 0.000000 0.000000 
#    y 0.000000 1.624350 0.000000 
#    z 0.000000 0.000000 1.635300 
# 
# From -- ./inp_files/67401.got.cif
#   From: 2010.05.17/outbox.cif.g08.bks.cpg/sg65_34_cif.got.tgz:67401.got - 2010.06.03 17:01:31.
