data_PCOD9491226
_publ_section_title
;
Structure prediction by ZEFSAII (Michael W. Deem and Ramdas Pophale) SiO2 
 PCOD9491226
Probable space group: C M M M
;
_chemical_formula_sum "Si O2"
_cell_formula_units_Z 64
_cell_length_a 8.865933
_cell_length_b 16.080511
_cell_length_c 22.895618
_cell_angle_alpha 90.000000
_cell_angle_beta 90.000000
_cell_angle_gamma 90.000000
_cell_volume 3264.199253
_symmetry_space_group_name_H-M "C M M M"
_symmetry_group_IT_number 65
_symmetry_cell_setting 'orthorhombic'
loop_
_space_group_symop_operation_xyz
x,y,z
-x,-y,z
x,-y,-z
-x,y,-z
-x,-y,-z
x,y,-z
-x,y,z
x,-y,z
1/2+x,1/2+y,z
1/2-x,1/2-y,z
1/2+x,1/2-y,-z
1/2-x,1/2+y,-z
1/2-x,1/2-y,-z
1/2+x,1/2+y,-z
1/2-x,1/2+y,z
1/2+x,1/2-y,z
loop_
_atom_site_type_symbol
_atom_site_label
_atom_site_fract_x
_atom_site_fract_y
_atom_site_fract_z
Si Si1 0.319394 0.902847 0.755230
Si Si2 0.818247 0.662250 0.370052
Si Si3 0.177509 0.000000 0.430112
Si Si4 0.328076 0.400361 0.125732
Si Si5 0.683468 0.341065 0.000000
O O1 0.500000 0.902402 0.757605
O O2 0.272695 0.852989 0.697759
O O3 0.258249 0.870192 0.816920
O O4 0.272137 0.000000 0.747745
O O5 0.750000 0.750000 0.390225
O O6 0.755597 0.582747 0.404764
O O7 0.000000 0.663828 0.373690
O O8 0.190078 0.000000 0.500000
O O9 0.000000 0.000000 0.414362
O O10 0.500000 0.369189 0.128643
O O11 0.330585 0.500000 0.129591
O O12 0.266077 0.380310 0.061486
O O13 0.750000 0.250000 0.000000
O O14 0.500000 0.344615 0.000000
#
# Coordination Sequence:
#
# PCOD9491226 Si02
#       5
#    16  16   8  16   8
#     4   9  18  35  57  83 116 151 191 243 300 356
#     4  11  23  41  65  95 130 169 210 256 309 365
#     4  11  25  45  69  97 129 166 209 256 305 363
#     4   9  18  33  54  77 101 139 189 238 288 346
#     4  10  21  35  49  69 103 140 182 234 290 350
#
# _framework density 19.606646000000001
#
# number of rings (size 3 to 8) (size 9 to 14) (size 15 to 20)
#    0.000    2.125    1.250    1.500    0.000    7.000 
#    0.000    5.000    0.000    3.750    0.000    0.000 
#    0.000    0.000    0.000    0.000    0.000    0.000 
#
# Total GULP energy -178534.837435 kJ/mol
# GULP energy per Si atom -5579.213670 kJ/mol
# Density = 1.956202 g / cm^3
# Si number density = 19.606646 Si / 1000 Ang^3
#
#
#
# Elastic Constant Matrix: (Units=GPa)
#
#
# Indices 1 2 3 4 5 6 
#
# 1 45.6138 42.9480 44.5447 0.0000 0.0000 0.0000
# 2 42.9480 107.0628 50.8158 0.0000 0.0000 0.0000
# 3 44.5447 50.8158 108.6369 0.0000 0.0000 0.0000
# 4 0.0000 0.0000 0.0000 -5.7783 0.0000 0.0000
# 5 0.0000 0.0000 0.0000 0.0000 30.4999 0.0000
# 6 0.0000 0.0000 0.0000 0.0000 0.0000 26.0371
#
#
#
# Elastic Compliance Matrix: (Units=1/GPa)
#
#
# Indices 1 2 3 4 5 6 
#
# 1 0.046557 -0.012359 -0.013309 0.000000 0.000000 0.000000
# 2 -0.012359 0.015287 -0.002083 0.000000 0.000000 0.000000
# 3 -0.013309 -0.002083 0.015636 0.000000 0.000000 0.000000
# 4 0.000000 0.000000 0.000000 -0.173060 0.000000 0.000000
# 5 0.000000 0.000000 0.000000 0.000000 0.032787 0.000000
# 6 0.000000 0.000000 0.000000 0.000000 0.000000 0.038407
#
#
# Mechanical properties :
#
#
# Convention : Reuss Voigt Hill
#
# Bulk Modulus (GPa) = 45.49948 59.77004 52.63476
# Shear Modulus (GPa) = 130.06671 18.35207 74.20939
#
# Velocity S-wave (km/s) = 8.15365 3.06275 6.15884
# Velocity P-wave (km/s) = 10.57825 6.56186 8.80220
#
# Compressibility (1/GPa) = 0.02197827
#
# Stress axis : x y z
#
# Youngs Moduli (GPa) = 21.47903 65.41583 63.95420
#
# Poissons Ratio (x) = 0.80851 0.85115
# Poissons Ratio (y) = 0.26547 0.13320
# Poissons Ratio (z) = 0.28586 0.13624
#
# Static dielectric constant tensor:
#      x y z
#    x 1.681230 0.000000 0.000000 
#    y 0.000000 1.673270 0.000000 
#    z 0.000000 0.000000 1.715860 
# 
# From -- ./inp_files/66758.got.cif
#   From: 2010.05.17/outbox.cif.g08.bks.cpg/sg65_34_cif.got.tgz:66758.got - 2010.06.03 17:01:31.
