data_PCOD9491278
_publ_section_title
;
Structure prediction by ZEFSAII (Michael W. Deem and Ramdas Pophale) SiO2 
 PCOD9491278
Probable space group: C M M M
;
_chemical_formula_sum "Si O2"
_cell_formula_units_Z 80
_cell_length_a 17.552457
_cell_length_b 9.515235
_cell_length_c 26.551603
_cell_angle_alpha 90.000000
_cell_angle_beta 90.000000
_cell_angle_gamma 90.000000
_cell_volume 4434.535973
_symmetry_space_group_name_H-M "C M M M"
_symmetry_group_IT_number 65
_symmetry_cell_setting 'orthorhombic'
loop_
_space_group_symop_operation_xyz
x,y,z
-x,-y,z
x,-y,-z
-x,y,-z
-x,-y,-z
x,y,-z
-x,y,z
x,-y,z
1/2+x,1/2+y,z
1/2-x,1/2-y,z
1/2+x,1/2-y,-z
1/2-x,1/2+y,-z
1/2-x,1/2-y,-z
1/2+x,1/2+y,-z
1/2-x,1/2+y,z
1/2+x,1/2-y,z
loop_
_atom_site_type_symbol
_atom_site_label
_atom_site_fract_x
_atom_site_fract_y
_atom_site_fract_z
Si Si1 0.669999 0.168911 0.000000
Si Si2 0.907276 0.839129 0.202903
Si Si3 0.591484 0.336252 0.604694
Si Si4 0.671216 0.331055 0.500000
Si Si5 0.406819 0.838794 0.298266
Si Si6 0.908099 0.836697 0.088115
O O1 0.750000 0.250000 0.000000
O O2 0.625885 0.227606 0.951133
O O3 0.676858 0.000000 0.000000
O O4 0.880987 0.737455 0.247176
O O5 0.884116 0.805019 0.145698
O O6 0.000000 0.835832 0.202838
O O7 0.885175 0.000000 0.213798
O O8 0.500000 0.325138 0.601329
O O9 0.609671 0.500000 0.614294
O O10 0.626177 0.294994 0.551046
O O11 0.617856 0.243319 0.651687
O O12 0.681789 0.500000 0.500000
O O13 0.750000 0.250000 0.500000
O O14 0.500000 0.835302 0.298003
O O15 0.382955 0.000000 0.299548
O O16 0.000000 0.831520 0.085815
O O17 0.886471 0.000000 0.076682
#
# Coordination Sequence:
#
# PCOD9491278 Si02
#       6
#     8  16  16   8  16  16
#     4  12  25  38  53  73 101 137 175 214 257 304
#     4   8  14  26  46  72 101 133 164 194 236 291
#     4   9  17  31  51  72  95 126 165 203 238 285
#     4  10  21  35  51  71  95 126 162 202 248 292
#     4   9  16  25  41  70 104 131 157 196 244 287
#     4   9  18  34  56  80 106 135 168 208 253 301
#
# _framework density 18.040217999999999
#
# number of rings (size 3 to 8) (size 9 to 14) (size 15 to 20)
#    0.000    2.800    0.000    3.300    0.000    6.800 
#    0.000    2.000    0.000    4.200    0.000    5.600 
#    0.000    0.000    0.000    0.000    0.000    0.000 
#
# Total GULP energy -223004.396744 kJ/mol
# GULP energy per Si atom -5575.109919 kJ/mol
# Density = 1.799916 g / cm^3
# Si number density = 18.040218 Si / 1000 Ang^3
#
#
#
# Elastic Constant Matrix: (Units=GPa)
#
#
# Indices 1 2 3 4 5 6 
#
# 1 13.3518 32.1646 31.1913 0.0000 0.0000 0.0000
# 2 32.1646 135.6792 125.4525 0.0000 0.0000 0.0000
# 3 31.1913 125.4525 180.3715 0.0000 0.0000 0.0000
# 4 0.0000 0.0000 0.0000 12.9982 0.0000 0.0000
# 5 0.0000 0.0000 0.0000 0.0000 -10.5295 0.0000
# 6 0.0000 0.0000 0.0000 0.0000 0.0000 19.1770
#
#
#
# Elastic Compliance Matrix: (Units=1/GPa)
#
#
# Indices 1 2 3 4 5 6 
#
# 1 0.175622 -0.037973 -0.003959 0.000000 0.000000 0.000000
# 2 -0.037973 0.028861 -0.013507 0.000000 0.000000 0.000000
# 3 -0.003959 -0.013507 0.015623 0.000000 0.000000 0.000000
# 4 0.000000 0.000000 0.000000 0.076934 0.000000 0.000000
# 5 0.000000 0.000000 0.000000 0.000000 -0.094971 0.000000
# 6 0.000000 0.000000 0.000000 0.000000 0.000000 0.052146
#
#
# Mechanical properties :
#
#
# Convention : Reuss Voigt Hill
#
# Bulk Modulus (GPa) = 9.15511 78.55769 43.85640
# Shear Modulus (GPa) = 12.45320 13.70207 13.07764
#
# Velocity S-wave (km/s) = 2.63021 2.75895 2.69535
# Velocity P-wave (km/s) = 3.78284 7.33413 5.83521
#
# Compressibility (1/GPa) = 0.10922856
#
# Stress axis : x y z
#
# Youngs Moduli (GPa) = 5.69404 34.64830 64.00717
#
# Poissons Ratio (x) = 1.31571 0.25339
# Poissons Ratio (y) = 0.21622 0.86456
# Poissons Ratio (z) = 0.02254 0.46800
#
# Static dielectric constant tensor:
#      x y z
#    x 1.606050 0.000000 0.000000 
#    y 0.000000 1.600700 0.000000 
#    z 0.000000 0.000000 1.618700 
# 
# From -- ./inp_files/75131.got.cif
#   From: 2010.05.17/outbox.cif.g08.bks.cpg/sg65_38_cif.got.tgz:75131.got - 2010.06.03 17:01:31.
