data_PCOD9491184
_publ_section_title
;
Structure prediction by ZEFSAII (Michael W. Deem and Ramdas Pophale) SiO2 
 PCOD9491184
Probable space group: C M M M
;
_chemical_formula_sum "Si O2"
_cell_formula_units_Z 112
_cell_length_a 21.198289
_cell_length_b 23.504260
_cell_length_c 13.061690
_cell_angle_alpha 90.000000
_cell_angle_beta 90.000000
_cell_angle_gamma 90.000000
_cell_volume 6507.988299
_symmetry_space_group_name_H-M "C M M M"
_symmetry_group_IT_number 65
_symmetry_cell_setting 'orthorhombic'
loop_
_space_group_symop_operation_xyz
x,y,z
-x,-y,z
x,-y,-z
-x,y,-z
-x,-y,-z
x,y,-z
-x,y,z
x,-y,z
1/2+x,1/2+y,z
1/2-x,1/2-y,z
1/2+x,1/2-y,-z
1/2-x,1/2+y,-z
1/2-x,1/2-y,-z
1/2+x,1/2+y,-z
1/2-x,1/2+y,z
1/2+x,1/2-y,z
loop_
_atom_site_type_symbol
_atom_site_label
_atom_site_fract_x
_atom_site_fract_y
_atom_site_fract_z
Si Si1 0.575062 0.435670 0.113169
Si Si2 0.075249 0.563942 0.386483
Si Si3 0.258865 0.934275 0.121558
Si Si4 0.651379 0.354667 0.221490
Si Si5 0.424443 0.750752 0.876685
Si Si6 0.251372 0.318103 0.617207
Si Si7 0.858719 0.641208 0.228370
O O1 0.500000 0.437826 0.110827
O O2 0.599922 0.500000 0.117894
O O3 0.595561 0.400051 0.210863
O O4 0.594167 0.411804 0.000000
O O5 0.097950 0.581135 0.500000
O O6 0.099432 0.500000 0.366000
O O7 0.094001 0.607164 0.300036
O O8 0.000000 0.560923 0.390760
O O9 0.205194 0.890414 0.160477
O O10 0.323613 0.904099 0.155752
O O11 0.253610 0.000000 0.160407
O O12 0.255203 0.936808 0.000000
O O13 0.620536 0.299196 0.168385
O O14 0.683985 0.338517 0.328115
O O15 0.500000 0.744389 0.850830
O O16 0.394578 0.808845 0.831749
O O17 0.420470 0.750183 0.000000
O O18 0.245297 0.339063 0.500000
O O19 0.250000 0.250000 0.614400
O O20 0.194941 0.335869 0.693267
#
# Coordination Sequence:
#
# PCOD9491184 Si02
#       7
#    16  16  16  16  16  16  16
#     4   9  17  30  52  82 113 146 183 222 265 314
#     4   9  18  33  54  79 103 129 169 221 268 307
#     4  10  21  34  52  79 108 139 177 219 262 312
#     4  11  20  34  56  78 104 143 178 220 269 317
#     4  11  23  36  52  79 112 145 179 213 254 315
#     4  10  21  38  55  74 100 133 174 222 268 313
#     4  11  20  35  55  77 105 142 172 212 260 324
#
# _framework density 17.209619
#
# number of rings (size 3 to 8) (size 9 to 14) (size 15 to 20)
#    0.000    1.857    1.429    4.714    0.000    2.286 
#    0.000    2.143    0.000   11.143    0.000    7.000 
#    0.000    0.000    0.000    0.000    0.000    0.000 
#
# Total GULP energy -311798.299444 kJ/mol
# GULP energy per Si atom -5567.826776 kJ/mol
# Density = 1.717045 g / cm^3
# Si number density = 17.209619 Si / 1000 Ang^3
#
#
#
# Elastic Constant Matrix: (Units=GPa)
#
#
# Indices 1 2 3 4 5 6 
#
# 1 70.9401 37.9426 30.8969 0.0000 0.0000 0.0000
# 2 37.9426 98.3551 36.3624 0.0000 0.0000 0.0000
# 3 30.8969 36.3624 75.6143 0.0000 0.0000 0.0000
# 4 0.0000 0.0000 0.0000 27.7640 0.0000 0.0000
# 5 0.0000 0.0000 0.0000 0.0000 -12.5180 0.0000
# 6 0.0000 0.0000 0.0000 0.0000 0.0000 34.2960
#
#
#
# Elastic Compliance Matrix: (Units=1/GPa)
#
#
# Indices 1 2 3 4 5 6 
#
# 1 0.019333 -0.005519 -0.005246 0.000000 0.000000 0.000000
# 2 -0.005519 0.013941 -0.004449 0.000000 0.000000 0.000000
# 3 -0.005246 -0.004449 0.017508 0.000000 0.000000 0.000000
# 4 0.000000 0.000000 0.000000 0.036018 0.000000 0.000000
# 5 0.000000 0.000000 0.000000 0.000000 -0.079885 0.000000
# 6 0.000000 0.000000 0.000000 0.000000 0.000000 0.029158
#
#
# Mechanical properties :
#
#
# Convention : Reuss Voigt Hill
#
# Bulk Modulus (GPa) = 49.12849 50.59037 49.85943
# Shear Modulus (GPa) = 68.22700 19.22223 43.72462
#
# Velocity S-wave (km/s) = 6.30323 3.34570 5.04601
# Velocity P-wave (km/s) = 9.03235 6.66223 7.93627
#
# Compressibility (1/GPa) = 0.02035479
#
# Stress axis : x y z
#
# Youngs Moduli (GPa) = 51.72561 71.73046 57.11662
#
# Poissons Ratio (x) = 0.39586 0.29962
# Poissons Ratio (y) = 0.28546 0.25412
# Poissons Ratio (z) = 0.27134 0.31914
#
# Static dielectric constant tensor:
#      x y z
#    x 1.640630 0.000000 0.000000 
#    y 0.000000 1.605370 0.000000 
#    z 0.000000 0.000000 1.576220 
# 
# From -- ./inp_files/29350.got.cif
#   From: 2010.05.17/outbox.cif.g08.bks.cpg/sg65_15_cif.got.tgz:29350.got - 2010.06.03 17:01:31.
