data_PCOD9491960
_publ_section_title
;
Structure prediction by ZEFSAII (Michael W. Deem and Ramdas Pophale) SiO2 
 PCOD9491960
Probable space group: C M M M
;
_chemical_formula_sum "Si O2"
_cell_formula_units_Z 64
_cell_length_a 9.582428
_cell_length_b 26.322046
_cell_length_c 13.874145
_cell_angle_alpha 90.000000
_cell_angle_beta 90.000000
_cell_angle_gamma 90.000000
_cell_volume 3499.463254
_symmetry_space_group_name_H-M "C M M M"
_symmetry_group_IT_number 65
_symmetry_cell_setting 'orthorhombic'
loop_
_space_group_symop_operation_xyz
x,y,z
-x,-y,z
x,-y,-z
-x,y,-z
-x,-y,-z
x,y,-z
-x,y,z
x,-y,z
1/2+x,1/2+y,z
1/2-x,1/2-y,z
1/2+x,1/2-y,-z
1/2-x,1/2+y,-z
1/2-x,1/2-y,-z
1/2+x,1/2+y,-z
1/2-x,1/2+y,z
1/2+x,1/2-y,z
loop_
_atom_site_type_symbol
_atom_site_label
_atom_site_fract_x
_atom_site_fract_y
_atom_site_fract_z
Si Si1 0.500000 0.560713 0.884751
Si Si2 0.500000 0.716648 0.117040
Si Si3 0.338170 0.500000 0.615679
Si Si4 0.500000 0.834061 0.886305
Si Si5 0.283758 0.361910 0.199806
Si Si6 0.168024 0.397508 0.386070
O O1 0.500000 0.500000 0.874740
O O2 0.370388 0.588823 0.833829
O O3 0.500000 0.572395 0.000000
O O4 0.500000 0.775280 0.147074
O O5 0.631461 0.686336 0.159890
O O6 0.500000 0.713134 0.000000
O O7 0.500000 0.500000 0.652701
O O8 0.351629 0.500000 0.500000
O O9 0.244204 0.549115 0.637740
O O10 0.364391 0.862307 0.850578
O O11 0.500000 0.831706 0.000000
O O12 0.248585 0.360132 0.313286
O O13 0.187712 0.387075 0.500000
O O14 0.000000 0.398990 0.368984
#
# Coordination Sequence:
#
# PCOD9491960 Si02
#       6
#     8   8   8   8  16  16
#     4  10  23  41  57  81 125 164 188 226 290 358
#     4  10  22  39  61  87 118 145 183 248 314 349
#     4   9  19  33  55  83 108 145 200 247 280 325
#     4  11  21  38  63  89 112 142 193 254 298 343
#     4  11  21  36  60  88 112 154 195 237 284 355
#     4  10  21  37  55  80 119 159 194 240 290 336
#
# _framework density 18.288519000000001
#
# number of rings (size 3 to 8) (size 9 to 14) (size 15 to 20)
#    0.000    1.750    1.250    4.125    5.250    3.500 
#    0.000    0.625    0.000    6.750    0.000    0.000 
#    0.000    0.000    0.000    0.000    0.000    0.000 
#
# Total GULP energy -178442.766912 kJ/mol
# GULP energy per Si atom -5576.336466 kJ/mol
# Density = 1.824689 g / cm^3
# Si number density = 18.288519 Si / 1000 Ang^3
#
#
#
# Elastic Constant Matrix: (Units=GPa)
#
#
# Indices 1 2 3 4 5 6 
#
# 1 156.3761 47.5183 51.9296 0.0000 0.0000 0.0000
# 2 47.5183 69.6981 31.6999 0.0000 0.0000 0.0000
# 3 51.9296 31.6999 115.4364 0.0000 0.0000 0.0000
# 4 0.0000 0.0000 0.0000 -0.1545 0.0000 0.0000
# 5 0.0000 0.0000 0.0000 0.0000 36.5259 0.0000
# 6 0.0000 0.0000 0.0000 0.0000 0.0000 -13.1966
#
#
#
# Elastic Compliance Matrix: (Units=1/GPa)
#
#
# Indices 1 2 3 4 5 6 
#
# 1 0.008705 -0.004746 -0.002612 0.000000 0.000000 0.000000
# 2 -0.004746 0.018983 -0.003078 0.000000 0.000000 0.000000
# 3 -0.002612 -0.003078 0.010683 0.000000 0.000000 0.000000
# 4 0.000000 0.000000 0.000000 -6.472483 0.000000 0.000000
# 5 0.000000 0.000000 0.000000 0.000000 0.027378 0.000000
# 6 0.000000 0.000000 0.000000 0.000000 0.000000 -0.075777
#
#
# Mechanical properties :
#
#
# Convention : Reuss Voigt Hill
#
# Bulk Modulus (GPa) = 57.14958 67.08957 62.11958
# Shear Modulus (GPa) = -0.77450 18.65915 8.94233
#
# Velocity S-wave (km/s) = -0.65147 3.19763 2.21364
# Velocity P-wave (km/s) = 5.54534 7.09906 6.36975
#
# Compressibility (1/GPa) = 0.01749794
#
# Stress axis : x y z
#
# Youngs Moduli (GPa) = 114.88050 52.67747 93.60502
#
# Poissons Ratio (x) = 0.25003 0.24454
# Poissons Ratio (y) = 0.54528 0.28810
# Poissons Ratio (z) = 0.30012 0.16213
#
# Static dielectric constant tensor:
#      x y z
#    x 1.624750 0.000000 0.000000 
#    y 0.000000 1.627140 0.000000 
#    z 0.000000 0.000000 1.660420 
# 
# From -- ./inp_files/21119.got.cif
#   From: 2010.05.17/outbox.cif.g08.bks.cpg/sg65_11_cif.got.tgz:21119.got - 2010.06.03 17:01:31.
