data_PCOD9491928
_publ_section_title
;
Structure prediction by ZEFSAII (Michael W. Deem and Ramdas Pophale) SiO2 
 PCOD9491928
Probable space group: C M M M
;
_chemical_formula_sum "Si O2"
_cell_formula_units_Z 112
_cell_length_a 27.280545
_cell_length_b 15.149429
_cell_length_c 15.783391
_cell_angle_alpha 90.000000
_cell_angle_beta 90.000000
_cell_angle_gamma 90.000000
_cell_volume 6523.033692
_symmetry_space_group_name_H-M "C M M M"
_symmetry_group_IT_number 65
_symmetry_cell_setting 'orthorhombic'
loop_
_space_group_symop_operation_xyz
x,y,z
-x,-y,z
x,-y,-z
-x,y,-z
-x,-y,-z
x,y,-z
-x,y,z
x,-y,z
1/2+x,1/2+y,z
1/2-x,1/2-y,z
1/2+x,1/2-y,-z
1/2-x,1/2+y,-z
1/2-x,1/2-y,-z
1/2+x,1/2+y,-z
1/2-x,1/2+y,z
1/2+x,1/2-y,z
loop_
_atom_site_type_symbol
_atom_site_label
_atom_site_fract_x
_atom_site_fract_y
_atom_site_fract_z
Si Si1 0.940461 0.000000 0.596233
Si Si2 0.194841 0.901756 0.738857
Si Si3 0.943398 0.607267 0.000000
Si Si4 0.142839 0.278723 0.307610
Si Si5 0.279442 0.100906 0.598867
Si Si6 0.244392 0.355845 0.094340
Si Si7 0.556344 0.306940 0.397653
Si Si8 0.633230 0.895750 0.143018
O O1 0.928095 0.094841 0.633534
O O2 0.920785 0.000000 0.500000
O O3 0.000000 0.000000 0.590740
O O4 0.161886 0.814963 0.728700
O O5 0.232439 0.896470 0.659849
O O6 0.225719 0.894389 0.826338
O O7 0.171721 0.000000 0.736218
O O8 0.910630 0.633403 0.919065
O O9 0.944481 0.500000 0.000000
O O10 0.000000 0.637637 0.000000
O O11 0.183321 0.326268 0.365963
O O12 0.094191 0.261701 0.361046
O O13 0.132509 0.342441 0.229461
O O14 0.267632 0.115870 0.500000
O O15 0.299472 0.000000 0.606211
O O16 0.250000 0.250000 0.099889
O O17 0.187113 0.379828 0.103412
O O18 0.261203 0.383537 0.000000
O O19 0.557941 0.308664 0.500000
O O20 0.500000 0.290907 0.373114
O O21 0.628207 0.000000 0.157789
#
# Coordination Sequence:
#
# PCOD9491928 Si02
#       8
#     8  16   8  16  16  16  16  16
#     4   7  12  28  52  74  96 125 167 221 273 318
#     4  11  23  37  52  79 116 148 184 228 270 324
#     4   9  20  38  59  84 111 137 176 229 278 326
#     4  12  22  34  54  81 112 142 183 229 269 326
#     4  10  21  37  55  75 108 154 192 223 270 327
#     4  11  20  35  59  83 110 145 184 226 272 326
#     4   9  19  35  55  78 104 137 181 231 278 321
#     4  11  21  35  57  82 108 146 184 220 272 330
#
# _framework density 17.169924999999999
#
# number of rings (size 3 to 8) (size 9 to 14) (size 15 to 20)
#    0.000    1.714    3.571    2.571    1.000    3.143 
#    0.000    0.000    0.000    1.286    0.000    5.000 
#    0.000    0.571    0.000    0.000    0.000    0.000 
#
# Total GULP energy -312315.024828 kJ/mol
# GULP energy per Si atom -5577.054015 kJ/mol
# Density = 1.713085 g / cm^3
# Si number density = 17.169925 Si / 1000 Ang^3
#
#
#
# Elastic Constant Matrix: (Units=GPa)
#
#
# Indices 1 2 3 4 5 6 
#
# 1 64.3107 30.6506 30.9769 0.0000 0.0000 0.0000
# 2 30.6506 91.5213 35.1400 0.0000 0.0000 0.0000
# 3 30.9769 35.1400 104.0041 0.0000 0.0000 0.0000
# 4 0.0000 0.0000 0.0000 7.9167 0.0000 0.0000
# 5 0.0000 0.0000 0.0000 0.0000 22.9410 0.0000
# 6 0.0000 0.0000 0.0000 0.0000 0.0000 24.3066
#
#
#
# Elastic Compliance Matrix: (Units=1/GPa)
#
#
# Indices 1 2 3 4 5 6 
#
# 1 0.020012 -0.005071 -0.004247 0.000000 0.000000 0.000000
# 2 -0.005071 0.013840 -0.003166 0.000000 0.000000 0.000000
# 3 -0.004247 -0.003166 0.011950 0.000000 0.000000 0.000000
# 4 0.000000 0.000000 0.000000 0.126315 0.000000 0.000000
# 5 0.000000 0.000000 0.000000 0.000000 0.043590 0.000000
# 6 0.000000 0.000000 0.000000 0.000000 0.000000 0.041141
#
#
# Mechanical properties :
#
#
# Convention : Reuss Voigt Hill
#
# Bulk Modulus (GPa) = 47.99914 50.37458 49.18686
# Shear Modulus (GPa) = 17.31532 21.90412 19.60972
#
# Velocity S-wave (km/s) = 3.17908 3.57561 3.38316
# Velocity P-wave (km/s) = 6.44139 6.81536 6.63101
#
# Compressibility (1/GPa) = 0.02083371
#
# Stress axis : x y z
#
# Youngs Moduli (GPa) = 49.96939 72.25242 83.68506
#
# Poissons Ratio (x) = 0.36643 0.35541
# Poissons Ratio (y) = 0.25342 0.26493
# Poissons Ratio (z) = 0.21222 0.22873
#
# Static dielectric constant tensor:
#      x y z
#    x 1.566220 0.000000 0.000000 
#    y 0.000000 1.607510 0.000000 
#    z 0.000000 0.000000 1.583610 
# 
# From -- ./inp_files/47088.got.cif
#   From: 2010.05.17/outbox.cif.g08.bks.cpg/sg65_24_cif.got.tgz:47088.got - 2010.06.03 17:01:31.
