data_PCOD9491373
_publ_section_title
;
Structure prediction by ZEFSAII (Michael W. Deem and Ramdas Pophale) SiO2 
 PCOD9491373
Probable space group: C M M M
;
_chemical_formula_sum "Si O2"
_cell_formula_units_Z 88
_cell_length_a 14.845614
_cell_length_b 15.166045
_cell_length_c 20.816171
_cell_angle_alpha 90.000000
_cell_angle_beta 90.000000
_cell_angle_gamma 90.000000
_cell_volume 4686.745288
_symmetry_space_group_name_H-M "C M M M"
_symmetry_group_IT_number 65
_symmetry_cell_setting 'orthorhombic'
loop_
_space_group_symop_operation_xyz
x,y,z
-x,-y,z
x,-y,-z
-x,y,-z
-x,-y,-z
x,y,-z
-x,y,z
x,-y,z
1/2+x,1/2+y,z
1/2-x,1/2-y,z
1/2+x,1/2-y,-z
1/2-x,1/2+y,-z
1/2-x,1/2-y,-z
1/2+x,1/2+y,-z
1/2-x,1/2+y,z
1/2+x,1/2-y,z
loop_
_atom_site_type_symbol
_atom_site_label
_atom_site_fract_x
_atom_site_fract_y
_atom_site_fract_z
Si Si1 0.251122 0.893129 0.324733
Si Si2 0.103048 0.607174 0.429193
Si Si3 0.603696 0.717387 0.108180
Si Si4 0.307221 0.402263 0.000000
Si Si5 0.103622 0.892779 0.571522
Si Si6 0.900732 0.364633 0.000000
Si Si7 0.250000 0.750000 0.215591
O O1 0.334972 0.868252 0.370238
O O2 0.165449 0.867795 0.368903
O O3 0.255315 0.836123 0.260691
O O4 0.250579 0.000000 0.314274
O O5 0.135095 0.635959 0.500000
O O6 0.103757 0.500000 0.430447
O O7 0.000000 0.635669 0.421537
O O8 0.500000 0.690454 0.121386
O O9 0.656200 0.647947 0.062891
O O10 0.599814 0.803280 0.063015
O O11 0.662873 0.738182 0.170316
O O12 0.198507 0.406279 0.000000
O O13 0.344651 0.500000 0.000000
O O14 0.134120 0.864074 0.500000
O O15 0.000000 0.865664 0.579525
O O16 0.105787 0.000000 0.570233
O O17 0.000000 0.408531 0.000000
#
# Coordination Sequence:
#
# PCOD9491373 Si02
#       7
#    16  16  16   8  16   8   8
#     4  10  21  35  53  76 107 146 190 236 286 350
#     4   8  14  28  52  77 100 132 179 238 299 348
#     4  10  21  40  62  83 115 156 198 236 281 340
#     4  11  20  36  67 100 127 146 184 245 293 335
#     4   8  14  28  52  78 103 136 182 240 304 358
#     4   9  17  37  67  91 115 150 186 229 281 326
#     4  12  24  39  55  80 116 160 200 226 286 346
#
# _framework density 18.776357000000001
#
# number of rings (size 3 to 8) (size 9 to 14) (size 15 to 20)
#    0.000    2.545    1.818    3.000    0.000    5.273 
#    0.000    1.818    0.000    2.182    0.000    0.000 
#    0.000    0.000    0.000    0.000    0.000    0.000 
#
# Total GULP energy -245267.527114 kJ/mol
# GULP energy per Si atom -5574.261980 kJ/mol
# Density = 1.873362 g / cm^3
# Si number density = 18.776357 Si / 1000 Ang^3
#
#
#
# Elastic Constant Matrix: (Units=GPa)
#
#
# Indices 1 2 3 4 5 6 
#
# 1 146.3693 35.9372 83.6712 0.0000 0.0000 0.0000
# 2 35.9372 77.4491 52.4330 0.0000 0.0000 0.0000
# 3 83.6712 52.4330 163.8781 0.0000 0.0000 0.0000
# 4 0.0000 0.0000 0.0000 -8.1737 0.0000 0.0000
# 5 0.0000 0.0000 0.0000 0.0000 313.7910 0.0000
# 6 0.0000 0.0000 0.0000 0.0000 0.0000 -31.3354
#
#
#
# Elastic Compliance Matrix: (Units=1/GPa)
#
#
# Indices 1 2 3 4 5 6 
#
# 1 0.009779 -0.001477 -0.004520 0.000000 0.000000 0.000000
# 2 -0.001477 0.016705 -0.004590 0.000000 0.000000 0.000000
# 3 -0.004520 -0.004590 0.009879 0.000000 0.000000 0.000000
# 4 0.000000 0.000000 0.000000 -0.122343 0.000000 0.000000
# 5 0.000000 0.000000 0.000000 0.000000 0.003187 0.000000
# 6 0.000000 0.000000 0.000000 0.000000 0.000000 -0.031913
#
#
# Mechanical properties :
#
#
# Convention : Reuss Voigt Hill
#
# Bulk Modulus (GPa) = 65.84782 81.30880 73.57831
# Shear Modulus (GPa) = -56.51691 69.23337 6.35823
#
# Velocity S-wave (km/s) = -5.49230 6.07887 1.84219
# Velocity P-wave (km/s) = 2.25274 9.62643 6.61790
#
# Compressibility (1/GPa) = 0.01518653
#
# Stress axis : x y z
#
# Youngs Moduli (GPa) = 102.26440 59.86239 101.22911
#
# Poissons Ratio (x) = 0.08844 0.45755
# Poissons Ratio (y) = 0.15108 0.46469
# Poissons Ratio (z) = 0.46223 0.27480
#
# Static dielectric constant tensor:
#      x y z
#    x 1.671540 0.000000 0.000000 
#    y 0.000000 1.677570 0.000000 
#    z 0.000000 0.000000 1.564490 
# 
# From -- ./inp_files/62512.got.cif
#   From: 2010.05.17/outbox.cif.g08.bks.cpg/sg65_32_cif.got.tgz:62512.got - 2010.06.03 17:01:31.
