data_PCOD9491222
_publ_section_title
;
Structure prediction by ZEFSAII (Michael W. Deem and Ramdas Pophale) SiO2 
 PCOD9491222
Probable space group: C M M M
;
_chemical_formula_sum "Si O2"
_cell_formula_units_Z 72
_cell_length_a 15.000205
_cell_length_b 23.553101
_cell_length_c 10.243872
_cell_angle_alpha 90.000000
_cell_angle_beta 90.000000
_cell_angle_gamma 90.000000
_cell_volume 3619.173739
_symmetry_space_group_name_H-M "C M M M"
_symmetry_group_IT_number 65
_symmetry_cell_setting 'orthorhombic'
loop_
_space_group_symop_operation_xyz
x,y,z
-x,-y,z
x,-y,-z
-x,y,-z
-x,-y,-z
x,y,-z
-x,y,z
x,-y,z
1/2+x,1/2+y,z
1/2-x,1/2-y,z
1/2+x,1/2-y,-z
1/2-x,1/2+y,-z
1/2-x,1/2-y,-z
1/2+x,1/2+y,-z
1/2-x,1/2+y,z
1/2+x,1/2-y,z
loop_
_atom_site_type_symbol
_atom_site_label
_atom_site_fract_x
_atom_site_fract_y
_atom_site_fract_z
Si Si1 0.896862 0.500000 0.341713
Si Si2 0.608719 0.875225 0.348095
Si Si3 0.102099 0.847486 0.145135
Si Si4 0.609152 0.435679 0.351898
Si Si5 0.349058 0.775450 0.850705
O O1 0.898467 0.500000 0.500000
O O2 0.858469 0.561644 0.306386
O O3 0.000000 0.500000 0.296681
O O4 0.634175 0.864942 0.500000
O O5 0.500000 0.876645 0.345780
O O6 0.638997 0.826139 0.250204
O O7 0.143484 0.888406 0.252605
O O8 0.098358 0.781830 0.185364
O O9 0.000000 0.866865 0.132492
O O10 0.143697 0.850525 0.000000
O O11 0.639986 0.425807 0.500000
O O12 0.500000 0.433522 0.356113
O O13 0.632963 0.500000 0.313518
O O14 0.250000 0.750000 0.850475
O O15 0.372724 0.792079 0.000000
#
# Coordination Sequence:
#
# PCOD9491222 Si02
#       5
#     8  16  16  16  16
#     4   7  12  26  49  77 105 127 152 197 256 309
#     4   9  17  31  54  81 104 129 165 208 254 305
#     4   9  17  29  46  67  89 117 157 200 239 282
#     4   8  14  25  42  65  91 115 141 182 234 278
#     4  10  21  35  49  67  99 138 171 204 246 293
#
# _framework density 19.894044000000001
#
# number of rings (size 3 to 8) (size 9 to 14) (size 15 to 20)
#    0.000    3.222    0.000    2.667    0.000    3.111 
#    0.000    5.000    2.444    2.000    0.000    0.000 
#    0.000    0.000    0.000    0.000    0.000    0.000 
#
# Total GULP energy -200510.984924 kJ/mol
# GULP energy per Si atom -5569.749581 kJ/mol
# Density = 1.984876 g / cm^3
# Si number density = 19.894044 Si / 1000 Ang^3
#
#
#
# Elastic Constant Matrix: (Units=GPa)
#
#
# Indices 1 2 3 4 5 6 
#
# 1 28.5737 9.7533 7.7405 0.0000 0.0000 0.0000
# 2 9.7533 202.8029 138.9950 0.0000 0.0000 0.0000
# 3 7.7405 138.9950 119.4542 0.0000 0.0000 0.0000
# 4 0.0000 0.0000 0.0000 18.6319 0.0000 0.0000
# 5 0.0000 0.0000 0.0000 0.0000 8.2883 0.0000
# 6 0.0000 0.0000 0.0000 0.0000 0.0000 7.1107
#
#
#
# Elastic Compliance Matrix: (Units=1/GPa)
#
#
# Indices 1 2 3 4 5 6 
#
# 1 0.035640 -0.000648 -0.001556 0.000000 0.000000 0.000000
# 2 -0.000648 0.024360 -0.028303 0.000000 0.000000 0.000000
# 3 -0.001556 -0.028303 0.041405 0.000000 0.000000 0.000000
# 4 0.000000 0.000000 0.000000 0.053671 0.000000 0.000000
# 5 0.000000 0.000000 0.000000 0.000000 0.120652 0.000000
# 6 0.000000 0.000000 0.000000 0.000000 0.000000 0.140632
#
#
# Mechanical properties :
#
#
# Convention : Reuss Voigt Hill
#
# Bulk Modulus (GPa) = 24.75734 73.75650 49.25692
# Shear Modulus (GPa) = 10.18664 19.76231 14.97447
#
# Velocity S-wave (km/s) = 2.26530 3.15521 2.74654
# Velocity P-wave (km/s) = 4.39474 7.10133 5.90519
#
# Compressibility (1/GPa) = 0.04039206
#
# Stress axis : x y z
#
# Youngs Moduli (GPa) = 28.05855 41.05049 24.15142
#
# Poissons Ratio (x) = 0.02659 0.03757
# Poissons Ratio (y) = 0.01818 0.68356
# Poissons Ratio (z) = 0.04365 1.16186
#
# Static dielectric constant tensor:
#      x y z
#    x 2.881450 0.000000 0.000000 
#    y 0.000000 1.704040 0.000000 
#    z 0.000000 0.000000 1.698010 
# 
# From -- ./inp_files/11472.got.cif
#   From: 2010.05.17/outbox.cif.g08.bks.cpg/sg65_6_cif.got.tgz:11472.got - 2010.06.03 17:01:31.
