data_PCOD9491684
_publ_section_title
;
Structure prediction by ZEFSAII (Michael W. Deem and Ramdas Pophale) SiO2 
 PCOD9491684
Probable space group: C M M M
;
_chemical_formula_sum "Si O2"
_cell_formula_units_Z 88
_cell_length_a 18.448216
_cell_length_b 27.870317
_cell_length_c 7.939114
_cell_angle_alpha 90.000000
_cell_angle_beta 90.000000
_cell_angle_gamma 90.000000
_cell_volume 4081.956023
_symmetry_space_group_name_H-M "C M M M"
_symmetry_group_IT_number 65
_symmetry_cell_setting 'orthorhombic'
loop_
_space_group_symop_operation_xyz
x,y,z
-x,-y,z
x,-y,-z
-x,y,-z
-x,-y,-z
x,y,-z
-x,y,z
x,-y,z
1/2+x,1/2+y,z
1/2-x,1/2-y,z
1/2+x,1/2-y,-z
1/2-x,1/2+y,-z
1/2-x,1/2-y,-z
1/2+x,1/2+y,-z
1/2-x,1/2+y,z
1/2+x,1/2-y,z
loop_
_atom_site_type_symbol
_atom_site_label
_atom_site_fract_x
_atom_site_fract_y
_atom_site_fract_z
Si Si1 0.261420 0.449149 0.699488
Si Si2 0.671554 0.229169 0.294036
Si Si3 0.500000 0.943638 0.799046
Si Si4 0.359892 0.121175 0.703818
Si Si5 0.919007 0.074911 0.806511
Si Si6 0.084843 0.180257 0.690363
O O1 0.248357 0.449706 0.500000
O O2 0.236140 0.500000 0.772373
O O3 0.212910 0.405843 0.765638
O O4 0.347439 0.445689 0.723149
O O5 0.670850 0.227282 0.500000
O O6 0.750000 0.250000 0.244735
O O7 0.646507 0.176440 0.235796
O O8 0.618484 0.271563 0.240199
O O9 0.570778 0.911924 0.748504
O O10 0.500000 0.000000 0.735425
O O11 0.500000 0.946759 0.000000
O O12 0.359603 0.123831 0.500000
O O13 0.906752 0.132058 0.795029
O O14 0.000000 0.065028 0.734380
O O15 0.919993 0.059568 0.000000
O O16 0.114846 0.170880 0.500000
O O17 0.000000 0.188261 0.674803
#
# Coordination Sequence:
#
# PCOD9491684 Si02
#       6
#    16  16   8  16  16  16
#     4  10  21  37  58  84 111 142 186 239 295 349
#     4   9  17  30  53  85 115 142 178 228 282 337
#     4  11  25  43  61  85 121 163 205 251 306 363
#     4  10  21  38  64  91 116 148 194 247 297 351
#     4  10  21  36  54  79 112 151 193 233 278 338
#     4   9  17  30  51  76 105 141 180 220 266 321
#
# _framework density 21.55829
#
# number of rings (size 3 to 8) (size 9 to 14) (size 15 to 20)
#    0.000    2.273    0.000    2.455    1.273    6.909 
#    0.000    2.727    0.000    2.182    0.000    0.000 
#    0.000    0.000    0.000    0.000    0.000    0.000 
#
# Total GULP energy -245298.927567 kJ/mol
# GULP energy per Si atom -5574.975627 kJ/mol
# Density = 2.150922 g / cm^3
# Si number density = 21.558290 Si / 1000 Ang^3
#
#
#
# Elastic Constant Matrix: (Units=GPa)
#
#
# Indices 1 2 3 4 5 6 
#
# 1 84.4561 63.5144 -0.3423 0.0000 0.0000 0.0000
# 2 63.5144 157.4141 5.1876 0.0000 0.0000 0.0000
# 3 -0.3423 5.1876 20.5756 0.0000 0.0000 0.0000
# 4 0.0000 0.0000 0.0000 -32.2676 0.0000 0.0000
# 5 0.0000 0.0000 0.0000 0.0000 481.8471 0.0000
# 6 0.0000 0.0000 0.0000 0.0000 0.0000 11.7177
#
#
#
# Elastic Compliance Matrix: (Units=1/GPa)
#
#
# Indices 1 2 3 4 5 6 
#
# 1 0.017083 -0.006960 0.002039 0.000000 0.000000 0.000000
# 2 -0.006960 0.009241 -0.002446 0.000000 0.000000 0.000000
# 3 0.002039 -0.002446 0.049252 0.000000 0.000000 0.000000
# 4 0.000000 0.000000 0.000000 -0.030991 0.000000 0.000000
# 5 0.000000 0.000000 0.000000 0.000000 0.002075 0.000000
# 6 0.000000 0.000000 0.000000 0.000000 0.000000 0.085341
#
#
# Mechanical properties :
#
#
# Convention : Reuss Voigt Hill
#
# Bulk Modulus (GPa) = 16.43582 44.35170 30.39376
# Shear Modulus (GPa) = 29.93732 105.19853 67.56793
#
# Velocity S-wave (km/s) = 3.73053 6.99308 5.60446
# Velocity P-wave (km/s) = 5.11823 9.26401 7.48392
#
# Compressibility (1/GPa) = 0.06084271
#
# Stress axis : x y z
#
# Youngs Moduli (GPa) = 58.53826 108.20770 20.30382
#
# Poissons Ratio (x) = 0.75311 -0.04140
# Poissons Ratio (y) = 0.40742 0.04966
# Poissons Ratio (z) = -0.11936 0.26465
#
# Static dielectric constant tensor:
#      x y z
#    x 1.811000 0.000000 0.000000 
#    y 0.000000 2.012990 0.000000 
#    z 0.000000 0.000000 1.832070 
# 
# From -- ./inp_files/10083.got.cif
#   From: 2010.05.17/outbox.cif.g08.bks.cpg/sg65_6_cif.got.tgz:10083.got - 2010.06.03 17:01:31.
