data_PCOD9491841
_publ_section_title
;
Structure prediction by ZEFSAII (Michael W. Deem and Ramdas Pophale) SiO2 
 PCOD9491841
Probable space group: C M M M
;
_chemical_formula_sum "Si O2"
_cell_formula_units_Z 88
_cell_length_a 23.155938
_cell_length_b 24.776090
_cell_length_c 8.919698
_cell_angle_alpha 90.000000
_cell_angle_beta 90.000000
_cell_angle_gamma 90.000000
_cell_volume 5117.352085
_symmetry_space_group_name_H-M "C M M M"
_symmetry_group_IT_number 65
_symmetry_cell_setting 'orthorhombic'
loop_
_space_group_symop_operation_xyz
x,y,z
-x,-y,z
x,-y,-z
-x,y,-z
-x,-y,-z
x,y,-z
-x,y,z
x,-y,z
1/2+x,1/2+y,z
1/2-x,1/2-y,z
1/2+x,1/2-y,-z
1/2-x,1/2+y,-z
1/2-x,1/2-y,-z
1/2+x,1/2+y,-z
1/2-x,1/2+y,z
1/2+x,1/2-y,z
loop_
_atom_site_type_symbol
_atom_site_label
_atom_site_fract_x
_atom_site_fract_y
_atom_site_fract_z
Si Si1 0.718843 0.563749 0.178644
Si Si2 0.500000 0.435822 0.179061
Si Si3 0.843274 0.436951 0.321097
Si Si4 0.110560 0.876772 0.680180
Si Si5 0.432295 0.145739 0.178784
Si Si6 0.931731 0.759592 0.322004
O O1 0.707488 0.500000 0.206875
O O2 0.781746 0.576097 0.245807
O O3 0.669193 0.598555 0.255706
O O4 0.718714 0.572029 0.000000
O O5 0.500000 0.500000 0.206405
O O6 0.443379 0.409037 0.250583
O O7 0.500000 0.427094 0.000000
O O8 0.838723 0.430985 0.500000
O O9 0.855915 0.500000 0.287940
O O10 0.892499 0.398423 0.257036
O O11 0.108770 0.881390 0.500000
O O12 0.102478 0.813626 0.718884
O O13 0.500000 0.138256 0.218590
O O14 0.415682 0.205753 0.233350
O O15 0.426810 0.141831 0.000000
O O16 0.924674 0.749752 0.500000
O O17 0.000000 0.770349 0.295712
#
# Coordination Sequence:
#
# PCOD9491841 Si02
#       6
#    16   8  16  16  16  16
#     4  10  21  37  56  79 110 147 184 226 278 332
#     4  11  23  35  49  75 111 147 186 235 284 327
#     4  10  21  38  60  84 110 144 183 222 269 325
#     4  11  21  35  55  80 108 144 189 233 278 327
#     4  10  21  36  57  86 115 144 178 219 272 328
#     4   9  18  35  55  77 108 145 184 226 274 325
#
# _framework density 17.196394000000002
#
# number of rings (size 3 to 8) (size 9 to 14) (size 15 to 20)
#    0.000    1.909    0.909    3.000    0.000    8.000 
#    0.000    2.727    0.000    5.455    0.000    0.000 
#    0.000    0.000    0.000    0.000    0.000    0.000 
#
# Total GULP energy -245740.929911 kJ/mol
# GULP energy per Si atom -5585.021134 kJ/mol
# Density = 1.715725 g / cm^3
# Si number density = 17.196394 Si / 1000 Ang^3
#
#
#
# Elastic Constant Matrix: (Units=GPa)
#
#
# Indices 1 2 3 4 5 6 
#
# 1 120.0859 102.2835 67.3334 0.0000 0.0000 0.0000
# 2 102.2835 129.1267 75.8438 0.0000 0.0000 0.0000
# 3 67.3334 75.8438 74.6382 0.0000 0.0000 0.0000
# 4 0.0000 0.0000 0.0000 27.1767 0.0000 0.0000
# 5 0.0000 0.0000 0.0000 0.0000 34.8721 0.0000
# 6 0.0000 0.0000 0.0000 0.0000 0.0000 8.6299
#
#
#
# Elastic Compliance Matrix: (Units=1/GPa)
#
#
# Indices 1 2 3 4 5 6 
#
# 1 0.026799 -0.017432 -0.006462 0.000000 0.000000 0.000000
# 2 -0.017432 0.030548 -0.015316 0.000000 0.000000 0.000000
# 3 -0.006462 -0.015316 0.034791 0.000000 0.000000 0.000000
# 4 0.000000 0.000000 0.000000 0.036796 0.000000 0.000000
# 5 0.000000 0.000000 0.000000 0.000000 0.028676 0.000000
# 6 0.000000 0.000000 0.000000 0.000000 0.000000 0.115877
#
#
# Mechanical properties :
#
#
# Convention : Reuss Voigt Hill
#
# Bulk Modulus (GPa) = 72.89833 90.53023 81.71428
# Shear Modulus (GPa) = 14.02602 19.36173 16.69388
#
# Velocity S-wave (km/s) = 2.85903 3.35911 3.11911
# Velocity P-wave (km/s) = 7.30633 8.23432 7.78417
#
# Compressibility (1/GPa) = 0.01371774
#
# Stress axis : x y z
#
# Youngs Moduli (GPa) = 37.31551 32.73486 28.74287
#
# Poissons Ratio (x) = 0.57063 0.18574
# Poissons Ratio (y) = 0.65048 0.44023
# Poissons Ratio (z) = 0.24114 0.50137
#
# Static dielectric constant tensor:
#      x y z
#    x 1.549510 0.000000 0.000000 
#    y 0.000000 1.566230 0.000000 
#    z 0.000000 0.000000 1.570190 
# 
# From -- ./inp_files/11826.got.cif
#   From: 2010.05.17/outbox.cif.g08.bks.cpg/sg65_6_cif.got.tgz:11826.got - 2010.06.03 17:01:31.
