data_PCOD9491219
_publ_section_title
;
Structure prediction by ZEFSAII (Michael W. Deem and Ramdas Pophale) SiO2 
 PCOD9491219
Probable space group: C M M M
;
_chemical_formula_sum "Si O2"
_cell_formula_units_Z 88
_cell_length_a 23.794879
_cell_length_b 20.993571
_cell_length_c 7.393860
_cell_angle_alpha 90.000000
_cell_angle_beta 90.000000
_cell_angle_gamma 90.000000
_cell_volume 3693.524992
_symmetry_space_group_name_H-M "C M M M"
_symmetry_group_IT_number 65
_symmetry_cell_setting 'orthorhombic'
loop_
_space_group_symop_operation_xyz
x,y,z
-x,-y,z
x,-y,-z
-x,y,-z
-x,-y,-z
x,y,-z
-x,y,z
x,-y,z
1/2+x,1/2+y,z
1/2-x,1/2-y,z
1/2+x,1/2-y,-z
1/2-x,1/2+y,-z
1/2-x,1/2-y,-z
1/2+x,1/2+y,-z
1/2-x,1/2+y,z
1/2+x,1/2-y,z
loop_
_atom_site_type_symbol
_atom_site_label
_atom_site_fract_x
_atom_site_fract_y
_atom_site_fract_z
Si Si1 0.280639 0.881228 0.219403
Si Si2 0.401813 0.930213 0.780764
Si Si3 0.658329 0.395660 0.779641
Si Si4 0.323703 0.746807 0.204554
Si Si5 0.566584 0.500000 0.779179
Si Si6 0.441007 0.202845 0.293267
O O1 0.337305 0.916291 0.276541
O O2 0.222403 0.915669 0.268579
O O3 0.286011 0.806064 0.278556
O O4 0.282142 0.879064 0.000000
O O5 0.438962 0.873226 0.709561
O O6 0.419278 0.000000 0.723534
O O7 0.403399 0.927811 0.000000
O O8 0.662000 0.322318 0.714273
O O9 0.605647 0.439199 0.721856
O O10 0.654704 0.396034 0.000000
O O11 0.385140 0.777680 0.194520
O O12 0.305205 0.733372 0.000000
O O13 0.500000 0.500000 0.722948
O O14 0.565232 0.500000 0.000000
O O15 0.436493 0.224691 0.500000
O O16 0.500000 0.226178 0.216967
#
# Coordination Sequence:
#
# PCOD9491219 Si02
#       6
#    16  16  16  16   8  16
#     4   8  14  25  44  70  98 122 155 199 245 296
#     4   9  18  31  49  74 101 128 162 204 244 288
#     4   9  16  26  45  69  98 133 160 194 249 300
#     4   9  17  30  49  74  98 123 160 209 254 294
#     4   9  18  28  36  60 103 139 166 195 236 298
#     4  10  21  35  49  67  94 130 170 206 244 294
#
# _framework density 23.825478
#
# number of rings (size 3 to 8) (size 9 to 14) (size 15 to 20)
#    0.000    3.000    0.000    2.182    1.273    5.091 
#    0.000    3.636    0.000    8.727    0.000    0.636 
#    0.000    2.182    0.000    0.000    0.000    0.000 
#
# Total GULP energy -245212.029266 kJ/mol
# GULP energy per Si atom -5573.000665 kJ/mol
# Density = 2.377125 g / cm^3
# Si number density = 23.825478 Si / 1000 Ang^3
#
#
#
# Elastic Constant Matrix: (Units=GPa)
#
#
# Indices 1 2 3 4 5 6 
#
# 1 189.6004 44.9877 8.7515 0.0000 0.0000 0.0000
# 2 44.9877 88.3918 1.2631 0.0000 0.0000 0.0000
# 3 8.7515 1.2631 79.4180 0.0000 0.0000 0.0000
# 4 0.0000 0.0000 0.0000 -94.9540 0.0000 0.0000
# 5 0.0000 0.0000 0.0000 0.0000 0.8397 0.0000
# 6 0.0000 0.0000 0.0000 0.0000 0.0000 5.3178
#
#
#
# Elastic Compliance Matrix: (Units=1/GPa)
#
#
# Indices 1 2 3 4 5 6 
#
# 1 0.006029 -0.003060 -0.000616 0.000000 0.000000 0.000000
# 2 -0.003060 0.012869 0.000132 0.000000 0.000000 0.000000
# 3 -0.000616 0.000132 0.012657 0.000000 0.000000 0.000000
# 4 0.000000 0.000000 0.000000 -0.010531 0.000000 0.000000
# 5 0.000000 0.000000 0.000000 0.000000 1.190860 0.000000
# 6 0.000000 0.000000 0.000000 0.000000 0.000000 0.188048
#
#
# Mechanical properties :
#
#
# Convention : Reuss Voigt Hill
#
# Bulk Modulus (GPa) = 40.86791 51.93498 46.40145
# Shear Modulus (GPa) = 3.53314 2.40122 2.96718
#
# Velocity S-wave (km/s) = 1.21907 1.00500 1.11718
# Velocity P-wave (km/s) = 4.37856 4.81582 4.60239
#
# Compressibility (1/GPa) = 0.02446907
#
# Stress axis : x y z
#
# Youngs Moduli (GPa) = 165.87545 77.70893 79.00558
#
# Poissons Ratio (x) = 0.23775 0.04864
# Poissons Ratio (y) = 0.50750 -0.01047
# Poissons Ratio (z) = 0.10212 -0.01029
#
# Static dielectric constant tensor:
#      x y z
#    x 1.908430 0.000000 0.000000 
#    y 0.000000 1.942160 0.000000 
#    z 0.000000 0.000000 1.987220 
# 
# From -- ./inp_files/14007.got.cif
#   From: 2010.05.17/outbox.cif.g08.bks.cpg/sg65_8_cif.got.tgz:14007.got - 2010.06.03 17:01:31.
