data_PCOD9491679
_publ_section_title
;
Structure prediction by ZEFSAII (Michael W. Deem and Ramdas Pophale) SiO2 
 PCOD9491679
Probable space group: C M M M
;
_chemical_formula_sum "Si O2"
_cell_formula_units_Z 104
_cell_length_a 29.737613
_cell_length_b 19.707154
_cell_length_c 9.466374
_cell_angle_alpha 90.000000
_cell_angle_beta 90.000000
_cell_angle_gamma 90.000000
_cell_volume 5547.709024
_symmetry_space_group_name_H-M "C M M M"
_symmetry_group_IT_number 65
_symmetry_cell_setting 'orthorhombic'
loop_
_space_group_symop_operation_xyz
x,y,z
-x,-y,z
x,-y,-z
-x,y,-z
-x,-y,-z
x,y,-z
-x,y,z
x,-y,z
1/2+x,1/2+y,z
1/2-x,1/2-y,z
1/2+x,1/2-y,-z
1/2-x,1/2+y,-z
1/2-x,1/2-y,-z
1/2+x,1/2+y,-z
1/2-x,1/2+y,z
1/2+x,1/2-y,z
loop_
_atom_site_type_symbol
_atom_site_label
_atom_site_fract_x
_atom_site_fract_y
_atom_site_fract_z
Si Si1 0.052461 0.581433 0.832688
Si Si2 0.878689 0.801509 0.662200
Si Si3 0.283303 0.919148 0.837756
Si Si4 0.634995 0.144806 0.665218
Si Si5 0.554525 0.500000 0.658471
Si Si6 0.553496 0.631988 0.837544
Si Si7 0.691366 0.421838 0.668187
O O1 0.058152 0.500000 0.812824
O O2 0.088524 0.620881 0.738147
O O3 0.000000 0.597592 0.801036
O O4 0.059941 0.595146 0.000000
O O5 0.893753 0.812873 0.500000
O O6 0.859470 0.726154 0.670849
O O7 0.920211 0.806633 0.768206
O O8 0.844004 0.861915 0.697391
O O9 0.323955 0.887379 0.750615
O O10 0.236148 0.908331 0.757955
O O11 0.290451 0.000000 0.841166
O O12 0.281908 0.894670 0.000000
O O13 0.635287 0.124615 0.500000
O O14 0.500000 0.500000 0.648910
O O15 0.573320 0.500000 0.500000
O O16 0.566352 0.566595 0.745082
O O17 0.500000 0.640594 0.829153
O O18 0.565639 0.621392 0.000000
O O19 0.701191 0.419203 0.500000
O O20 0.676089 0.500000 0.698491
#
# Coordination Sequence:
#
# PCOD9491679 Si02
#       7
#    16  16  16  16   8  16  16
#     4   9  19  37  60  85 114 149 190 236 284 335
#     4  10  23  39  55  81 114 151 192 233 284 341
#     4  10  21  38  61  87 113 143 182 228 280 340
#     4  11  23  37  55  83 119 153 188 232 279 334
#     4   9  17  31  53  77 101 135 179 227 279 331
#     4  10  21  36  54  79 110 144 187 237 284 331
#     4   9  19  38  62  84 107 140 185 234 282 335
#
# _framework density 18.746476999999999
#
# number of rings (size 3 to 8) (size 9 to 14) (size 15 to 20)
#    0.000    2.231    0.000    2.538    1.077    8.308 
#    0.000    6.923    0.000    0.000    0.000    0.000 
#    0.000    0.000    0.000    0.000    0.000    0.000 
#
# Total GULP energy -290251.836693 kJ/mol
# GULP energy per Si atom -5581.766090 kJ/mol
# Density = 1.870381 g / cm^3
# Si number density = 18.746477 Si / 1000 Ang^3
#
#
#
# Elastic Constant Matrix: (Units=GPa)
#
#
# Indices 1 2 3 4 5 6 
#
# 1 84.1582 50.3696 74.0206 0.0000 0.0000 0.0000
# 2 50.3696 54.0709 51.1094 0.0000 0.0000 0.0000
# 3 74.0206 51.1094 121.0225 0.0000 0.0000 0.0000
# 4 0.0000 0.0000 0.0000 -2.0400 0.0000 0.0000
# 5 0.0000 0.0000 0.0000 0.0000 29.4421 0.0000
# 6 0.0000 0.0000 0.0000 0.0000 0.0000 11.3278
#
#
#
# Elastic Compliance Matrix: (Units=1/GPa)
#
#
# Indices 1 2 3 4 5 6 
#
# 1 0.036174 -0.021278 -0.013139 0.000000 0.000000 0.000000
# 2 -0.021278 0.043298 -0.005271 0.000000 0.000000 0.000000
# 3 -0.013139 -0.005271 0.018525 0.000000 0.000000 0.000000
# 4 0.000000 0.000000 0.000000 -0.490205 0.000000 0.000000
# 5 0.000000 0.000000 0.000000 0.000000 0.033965 0.000000
# 6 0.000000 0.000000 0.000000 0.000000 0.000000 0.088278
#
#
# Mechanical properties :
#
#
# Convention : Reuss Voigt Hill
#
# Bulk Modulus (GPa) = 53.70344 67.80565 60.75454
# Shear Modulus (GPa) = -27.11765 13.32947 -6.89409
#
# Velocity S-wave (km/s) = -3.80748 2.66942 -1.91977
# Velocity P-wave (km/s) = 3.06272 6.76383 5.25022
#
# Compressibility (1/GPa) = 0.01862078
#
# Stress axis : x y z
#
# Youngs Moduli (GPa) = 27.64442 23.09555 53.98141
#
# Poissons Ratio (x) = 0.49144 0.70924
# Poissons Ratio (y) = 0.58823 0.28454
# Poissons Ratio (z) = 0.36321 0.12174
#
# Static dielectric constant tensor:
#      x y z
#    x 1.636270 0.000000 0.000000 
#    y 0.000000 1.659790 0.000000 
#    z 0.000000 0.000000 1.634210 
# 
# From -- ./inp_files/16500.got.cif
#   From: 2010.05.17/outbox.cif.g08.bks.cpg/sg65_9_cif.got.tgz:16500.got - 2010.06.03 17:01:31.
