data_PCOD9491365
_publ_section_title
;
Structure prediction by ZEFSAII (Michael W. Deem and Ramdas Pophale) SiO2 
 PCOD9491365
Probable space group: C M M M
;
_chemical_formula_sum "Si O2"
_cell_formula_units_Z 72
_cell_length_a 15.478711
_cell_length_b 29.453822
_cell_length_c 8.964581
_cell_angle_alpha 90.000000
_cell_angle_beta 90.000000
_cell_angle_gamma 90.000000
_cell_volume 4087.017010
_symmetry_space_group_name_H-M "C M M M"
_symmetry_group_IT_number 65
_symmetry_cell_setting 'orthorhombic'
loop_
_space_group_symop_operation_xyz
x,y,z
-x,-y,z
x,-y,-z
-x,y,-z
-x,-y,-z
x,y,-z
-x,y,z
x,-y,z
1/2+x,1/2+y,z
1/2-x,1/2-y,z
1/2+x,1/2-y,-z
1/2-x,1/2+y,-z
1/2-x,1/2-y,-z
1/2+x,1/2+y,-z
1/2-x,1/2+y,z
1/2+x,1/2-y,z
loop_
_atom_site_type_symbol
_atom_site_label
_atom_site_fract_x
_atom_site_fract_y
_atom_site_fract_z
Si Si1 0.600223 0.304643 0.677974
Si Si2 0.600331 0.207498 0.823599
Si Si3 0.180805 0.053004 0.677922
Si Si4 0.248757 0.363199 0.822023
Si Si5 0.500000 0.445002 0.830551
O O1 0.610001 0.308933 0.500000
O O2 0.500000 0.315066 0.716316
O O3 0.616990 0.252914 0.729680
O O4 0.668077 0.336354 0.760734
O O5 0.500000 0.194742 0.802768
O O6 0.665411 0.167223 0.784368
O O7 0.612775 0.218198 0.000000
O O8 0.178431 0.057204 0.500000
O O9 0.249196 0.087372 0.747928
O O10 0.087233 0.066800 0.743956
O O11 0.195709 0.000000 0.715520
O O12 0.253990 0.367542 0.000000
O O13 0.500000 0.500000 0.837808
O O14 0.500000 0.427385 0.000000
#
# Coordination Sequence:
#
# PCOD9491365 Si02
#       5
#    16  16  16  16   8
#     4  10  21  35  52  77 110 144 175 211 258 314
#     4   9  19  37  57  77 104 137 175 220 269 317
#     4  10  21  36  53  74 104 140 175 215 262 310
#     4  11  22  34  54  80 105 138 178 220 264 313
#     4   9  17  31  51  73  99 133 171 209 251 303
#
# _framework density 17.616758999999998
#
# number of rings (size 3 to 8) (size 9 to 14) (size 15 to 20)
#    0.000    2.111    0.000    3.000    1.556    8.444 
#    0.000    0.000    0.000    0.667    0.000    4.667 
#    0.000    0.000    0.000    0.000    0.000    0.000 
#
# Total GULP energy -201062.555774 kJ/mol
# GULP energy per Si atom -5585.070994 kJ/mol
# Density = 1.757666 g / cm^3
# Si number density = 17.616759 Si / 1000 Ang^3
#
#
#
# Elastic Constant Matrix: (Units=GPa)
#
#
# Indices 1 2 3 4 5 6 
#
# 1 53.6290 56.3825 34.5979 0.0000 0.0000 0.0000
# 2 56.3825 99.5378 44.1734 0.0000 0.0000 0.0000
# 3 34.5979 44.1734 55.5100 0.0000 0.0000 0.0000
# 4 0.0000 0.0000 0.0000 30.4227 0.0000 0.0000
# 5 0.0000 0.0000 0.0000 0.0000 19.1820 0.0000
# 6 0.0000 0.0000 0.0000 0.0000 0.0000 26.5541
#
#
#
# Elastic Compliance Matrix: (Units=1/GPa)
#
#
# Indices 1 2 3 4 5 6 
#
# 1 0.052253 -0.023414 -0.013936 0.000000 0.000000 0.000000
# 2 -0.023414 0.026023 -0.006115 0.000000 0.000000 0.000000
# 3 -0.013936 -0.006115 0.031567 0.000000 0.000000 0.000000
# 4 0.000000 0.000000 0.000000 0.032870 0.000000 0.000000
# 5 0.000000 0.000000 0.000000 0.000000 0.052132 0.000000
# 6 0.000000 0.000000 0.000000 0.000000 0.000000 0.037659
#
#
# Mechanical properties :
#
#
# Convention : Reuss Voigt Hill
#
# Bulk Modulus (GPa) = 43.64286 53.22049 48.43167
# Shear Modulus (GPa) = 15.28716 20.13330 17.71023
#
# Velocity S-wave (km/s) = 2.94898 3.38427 3.17410
# Velocity P-wave (km/s) = 6.03511 6.74884 6.40193
#
# Compressibility (1/GPa) = 0.02291326
#
# Stress axis : x y z
#
# Youngs Moduli (GPa) = 19.13752 38.42769 31.67890
#
# Poissons Ratio (x) = 0.89975 0.44147
# Poissons Ratio (y) = 0.44809 0.19372
# Poissons Ratio (z) = 0.26670 0.23498
#
# Static dielectric constant tensor:
#      x y z
#    x 1.585780 0.000000 0.000000 
#    y 0.000000 1.613260 0.000000 
#    z 0.000000 0.000000 1.590050 
# 
# From -- ./inp_files/7200.got.cif
#   From: 2010.05.17/outbox.cif.g08.bks.cpg/sg65_4_cif.got.tgz:7200.got - 2010.06.03 17:01:31.
