data_PCOD9491240
_publ_section_title
;
Structure prediction by ZEFSAII (Michael W. Deem and Ramdas Pophale) SiO2 
 PCOD9491240
Probable space group: C M M M
;
_chemical_formula_sum "Si O2"
_cell_formula_units_Z 88
_cell_length_a 14.976041
_cell_length_b 14.639345
_cell_length_c 19.921785
_cell_angle_alpha 90.000000
_cell_angle_beta 90.000000
_cell_angle_gamma 90.000000
_cell_volume 4367.640807
_symmetry_space_group_name_H-M "C M M M"
_symmetry_group_IT_number 65
_symmetry_cell_setting 'orthorhombic'
loop_
_space_group_symop_operation_xyz
x,y,z
-x,-y,z
x,-y,-z
-x,y,-z
-x,-y,-z
x,y,-z
-x,y,z
x,-y,z
1/2+x,1/2+y,z
1/2-x,1/2-y,z
1/2+x,1/2-y,-z
1/2-x,1/2+y,-z
1/2-x,1/2-y,-z
1/2+x,1/2+y,-z
1/2-x,1/2+y,z
1/2+x,1/2-y,z
loop_
_atom_site_type_symbol
_atom_site_label
_atom_site_fract_x
_atom_site_fract_y
_atom_site_fract_z
Si Si1 0.394780 0.399564 0.671764
Si Si2 0.107187 0.397001 0.303890
Si Si3 0.644796 0.765660 0.424613
Si Si4 0.609605 0.798522 0.076162
Si Si5 0.609340 0.271922 0.787208
Si Si6 0.899498 0.500000 0.918755
O O1 0.500000 0.409465 0.683594
O O2 0.357465 0.500000 0.656720
O O3 0.388116 0.325537 0.612798
O O4 0.357347 0.353000 0.739370
O O5 0.141895 0.500000 0.296451
O O6 0.126644 0.351310 0.376118
O O7 0.137035 0.322419 0.249137
O O8 0.000000 0.401231 0.297663
O O9 0.609300 0.776677 0.500000
O O10 0.750000 0.750000 0.428565
O O11 0.500000 0.802573 0.075070
O O12 0.636562 0.730324 0.135245
O O13 0.640500 0.901094 0.096261
O O14 0.637497 0.777055 0.000000
O O15 0.500000 0.273742 0.786238
O O16 0.000000 0.500000 0.889032
O O17 0.907249 0.500000 0.000000
#
# Coordination Sequence:
#
# PCOD9491240 Si02
#       6
#    16  16  16  16  16   8
#     4   9  18  33  51  69  90 120 159 198 232 266
#     4   9  18  31  47  68  94 125 155 181 218 272
#     4  10  21  35  50  70  95 119 146 185 231 278
#     4   8  12  17  28  50  82 118 152 184 220 264
#     4   8  14  24  39  59  85 119 156 190 222 264
#     4   7  10  14  20  38  70 106 141 173 207 251
#
# _framework density 20.148177
#
# number of rings (size 3 to 8) (size 9 to 14) (size 15 to 20)
#    0.000    3.364    0.000    2.727    1.273    2.909 
#    0.000    3.636    0.000    0.545    0.000    3.818 
#    0.000   11.636    0.000   13.091    0.000   14.545 
#
# Total GULP energy -245063.834182 kJ/mol
# GULP energy per Si atom -5569.632595 kJ/mol
# Density = 2.010232 g / cm^3
# Si number density = 20.148177 Si / 1000 Ang^3
#
#
#
# Elastic Constant Matrix: (Units=GPa)
#
#
# Indices 1 2 3 4 5 6 
#
# 1 36.3648 -4.8474 -12.1980 0.0000 0.0000 0.0000
# 2 -4.8474 83.9803 20.9856 0.0000 0.0000 0.0000
# 3 -12.1980 20.9856 118.3193 0.0000 0.0000 0.0000
# 4 0.0000 0.0000 0.0000 13.9579 0.0000 0.0000
# 5 0.0000 0.0000 0.0000 0.0000 41.9559 0.0000
# 6 0.0000 0.0000 0.0000 0.0000 0.0000 -4.5316
#
#
#
# Elastic Compliance Matrix: (Units=1/GPa)
#
#
# Indices 1 2 3 4 5 6 
#
# 1 0.028557 0.000955 0.002775 0.000000 0.000000 0.000000
# 2 0.000955 0.012492 -0.002117 0.000000 0.000000 0.000000
# 3 0.002775 -0.002117 0.009113 0.000000 0.000000 0.000000
# 4 0.000000 0.000000 0.000000 0.071644 0.000000 0.000000
# 5 0.000000 0.000000 0.000000 0.000000 0.023835 0.000000
# 6 0.000000 0.000000 0.000000 0.000000 0.000000 -0.220674
#
#
# Mechanical properties :
#
#
# Convention : Reuss Voigt Hill
#
# Bulk Modulus (GPa) = 18.73108 27.39386 23.06247
# Shear Modulus (GPa) = -82.69559 25.92473 -28.38543
#
# Velocity S-wave (km/s) = -6.41349 3.59096 -3.75752
# Velocity P-wave (km/s) = 6.74736 5.55149 2.71182
#
# Compressibility (1/GPa) = 0.05338720
#
# Stress axis : x y z
#
# Youngs Moduli (GPa) = 35.01752 80.05301 109.73021
#
# Poissons Ratio (x) = -0.07645 -0.30447
# Poissons Ratio (y) = -0.03344 0.23231
# Poissons Ratio (z) = -0.09716 0.16948
#
# Static dielectric constant tensor:
#      x y z
#    x 1.827320 0.000000 0.000000 
#    y 0.000000 1.718690 0.000000 
#    z 0.000000 0.000000 1.729000 
# 
# From -- ./inp_files/63737.got.cif
#   From: 2010.05.17/outbox.cif.g08.bks.cpg/sg65_32_cif.got.tgz:63737.got - 2010.06.03 17:01:31.
