data_PCOD9491911
_publ_section_title
;
Structure prediction by ZEFSAII (Michael W. Deem and Ramdas Pophale) SiO2 
 PCOD9491911
Probable space group: C M M M
;
_chemical_formula_sum "Si O2"
_cell_formula_units_Z 72
_cell_length_a 8.946465
_cell_length_b 28.465948
_cell_length_c 17.099184
_cell_angle_alpha 90.000000
_cell_angle_beta 90.000000
_cell_angle_gamma 90.000000
_cell_volume 4354.642477
_symmetry_space_group_name_H-M "C M M M"
_symmetry_group_IT_number 65
_symmetry_cell_setting 'orthorhombic'
loop_
_space_group_symop_operation_xyz
x,y,z
-x,-y,z
x,-y,-z
-x,y,-z
-x,-y,-z
x,y,-z
-x,y,z
x,-y,z
1/2+x,1/2+y,z
1/2-x,1/2-y,z
1/2+x,1/2-y,-z
1/2-x,1/2+y,-z
1/2-x,1/2-y,-z
1/2+x,1/2+y,-z
1/2-x,1/2+y,z
1/2+x,1/2-y,z
loop_
_atom_site_type_symbol
_atom_site_label
_atom_site_fract_x
_atom_site_fract_y
_atom_site_fract_z
Si Si1 0.178598 0.301579 0.088832
Si Si2 0.835411 0.554074 0.906749
Si Si3 0.180650 0.945182 0.664329
Si Si4 0.673498 0.378377 0.805421
Si Si5 0.829900 0.556710 0.500000
O O1 0.250000 0.250000 0.094347
O O2 0.240182 0.334141 0.158285
O O3 0.000000 0.298545 0.093518
O O4 0.214831 0.319867 0.000000
O O5 0.828540 0.500000 0.882203
O O6 0.700249 0.582464 0.871538
O O7 0.000000 0.573249 0.882270
O O8 0.832463 0.555465 0.000000
O O9 0.228401 0.906404 0.728271
O O10 0.244357 0.931300 0.579713
O O11 0.000000 0.945247 0.662809
O O12 0.226057 0.000000 0.681435
O O13 0.500000 0.366526 0.795127
O O14 0.835851 0.500000 0.500000
O O15 0.000000 0.574488 0.500000
#
# Coordination Sequence:
#
# PCOD9491911 Si02
#       5
#    16  16  16  16   8
#     4  10  21  37  55  73  95 125 162 205 252 297
#     4   9  18  31  44  60  88 127 165 198 235 279
#     4   9  18  32  48  68  99 136 167 196 235 284
#     4  11  21  31  47  72  98 125 160 200 242 289
#     4   9  17  29  47  71  96 125 164 205 241 279
#
# _framework density 16.534078000000001
#
# number of rings (size 3 to 8) (size 9 to 14) (size 15 to 20)
#    0.000    2.333    0.000    3.667    0.000    8.889 
#    0.000    3.333    0.000    0.000    0.000    0.778 
#    0.000    0.000    0.000    0.000    0.000    0.000 
#
# Total GULP energy -200534.251735 kJ/mol
# GULP energy per Si atom -5570.395882 kJ/mol
# Density = 1.649645 g / cm^3
# Si number density = 16.534078 Si / 1000 Ang^3
#
#
#
# Elastic Constant Matrix: (Units=GPa)
#
#
# Indices 1 2 3 4 5 6 
#
# 1 36.8764 30.0036 37.5435 0.0000 0.0000 0.0000
# 2 30.0036 72.9883 55.8232 0.0000 0.0000 0.0000
# 3 37.5435 55.8232 108.7214 0.0000 0.0000 0.0000
# 4 0.0000 0.0000 0.0000 31.4802 0.0000 0.0000
# 5 0.0000 0.0000 0.0000 0.0000 20.2617 0.0000
# 6 0.0000 0.0000 0.0000 0.0000 0.0000 25.5874
#
#
#
# Elastic Compliance Matrix: (Units=1/GPa)
#
#
# Indices 1 2 3 4 5 6 
#
# 1 0.046913 -0.011353 -0.010371 0.000000 0.000000 0.000000
# 2 -0.011353 0.025308 -0.009074 0.000000 0.000000 0.000000
# 3 -0.010371 -0.009074 0.017438 0.000000 0.000000 0.000000
# 4 0.000000 0.000000 0.000000 0.031766 0.000000 0.000000
# 5 0.000000 0.000000 0.000000 0.000000 0.049354 0.000000
# 6 0.000000 0.000000 0.000000 0.000000 0.000000 0.039082
#
#
# Mechanical properties :
#
#
# Convention : Reuss Voigt Hill
#
# Bulk Modulus (GPa) = 35.63341 51.70298 43.66819
# Shear Modulus (GPa) = 17.80562 21.81357 19.80959
#
# Velocity S-wave (km/s) = 3.28518 3.63617 3.46512
# Velocity P-wave (km/s) = 5.99901 6.99767 6.51750
#
# Compressibility (1/GPa) = 0.02806355
#
# Stress axis : x y z
#
# Youngs Moduli (GPa) = 21.31606 39.51372 57.34600
#
# Poissons Ratio (x) = 0.44860 0.59472
# Poissons Ratio (y) = 0.24200 0.52035
# Poissons Ratio (z) = 0.22106 0.35854
#
# Static dielectric constant tensor:
#      x y z
#    x 1.587610 0.000000 0.000000 
#    y 0.000000 1.563500 0.000000 
#    z 0.000000 0.000000 1.562610 
# 
# From -- ./inp_files/36543.got.cif
#   From: 2010.05.17/outbox.cif.g08.bks.cpg/sg65_19_cif.got.tgz:36543.got - 2010.06.03 17:01:31.
