data_PCOD9491844
_publ_section_title
;
Structure prediction by ZEFSAII (Michael W. Deem and Ramdas Pophale) SiO2 
 PCOD9491844
Probable space group: C M M M
;
_chemical_formula_sum "Si O2"
_cell_formula_units_Z 104
_cell_length_a 8.749928
_cell_length_b 22.255024
_cell_length_c 27.113264
_cell_angle_alpha 90.000000
_cell_angle_beta 90.000000
_cell_angle_gamma 90.000000
_cell_volume 5279.762039
_symmetry_space_group_name_H-M "C M M M"
_symmetry_group_IT_number 65
_symmetry_cell_setting 'orthorhombic'
loop_
_space_group_symop_operation_xyz
x,y,z
-x,-y,z
x,-y,-z
-x,y,-z
-x,-y,-z
x,y,-z
-x,y,z
x,-y,z
1/2+x,1/2+y,z
1/2-x,1/2-y,z
1/2+x,1/2-y,-z
1/2-x,1/2+y,-z
1/2-x,1/2-y,-z
1/2+x,1/2+y,-z
1/2-x,1/2+y,z
1/2+x,1/2-y,z
loop_
_atom_site_type_symbol
_atom_site_label
_atom_site_fract_x
_atom_site_fract_y
_atom_site_fract_z
Si Si1 0.176528 0.500000 0.246793
Si Si2 0.685546 0.566695 0.057955
Si Si3 0.323362 0.689115 0.313471
Si Si4 0.181563 0.378788 0.597280
Si Si5 0.816815 0.817744 0.500000
Si Si6 0.182814 0.000000 0.643600
Si Si7 0.175793 0.883808 0.214003
Si Si8 0.316423 0.315220 0.882414
O O1 0.268107 0.500000 0.298790
O O2 0.219947 0.558065 0.215161
O O3 0.000000 0.500000 0.260303
O O4 0.500000 0.566512 0.061659
O O5 0.736622 0.500000 0.075736
O O6 0.737661 0.626742 0.086069
O O7 0.723674 0.571063 0.000000
O O8 0.500000 0.696776 0.328610
O O9 0.250000 0.750000 0.294343
O O10 0.223893 0.667278 0.359225
O O11 0.319481 0.642320 0.268960
O O12 0.257493 0.353560 0.547794
O O13 0.251457 0.441596 0.616028
O O14 0.000000 0.383956 0.591142
O O15 0.750000 0.750000 0.500000
O O16 0.000000 0.814580 0.500000
O O17 0.000000 0.000000 0.641476
O O18 0.219512 0.833911 0.174005
O O19 0.000000 0.901606 0.202841
O O20 0.500000 0.311223 0.887456
O O21 0.250000 0.250000 0.895180
#
# Coordination Sequence:
#
# PCOD9491844 Si02
#       8
#     8  16  16  16   8   8  16  16
#     4  12  24  38  61  91 121 159 202 251 304 360
#     4   8  15  30  54  84 116 154 208 264 310 366
#     4  11  22  37  58  84 116 158 201 247 301 360
#     4  12  25  43  66  94 124 158 201 249 299 357
#     4  12  26  47  70  95 126 162 202 248 300 356
#     4  12  24  43  67  94 126 159 198 244 297 357
#     4  10  22  38  58  83 118 160 202 248 302 364
#     4  10  21  36  57  86 120 162 205 256 315 370
#
# _framework density 19.697856999999999
#
# number of rings (size 3 to 8) (size 9 to 14) (size 15 to 20)
#    0.000    1.385    1.538    5.308    1.077    1.846 
#    0.000    1.538    0.000    0.000    0.000    1.077 
#    0.000    0.000    0.000    0.000    0.000    0.000 
#
# Total GULP energy -290490.193077 kJ/mol
# GULP energy per Si atom -5586.349867 kJ/mol
# Density = 1.965302 g / cm^3
# Si number density = 19.697857 Si / 1000 Ang^3
#
#
#
# Elastic Constant Matrix: (Units=GPa)
#
#
# Indices 1 2 3 4 5 6 
#
# 1 105.0824 44.3784 18.0176 0.0000 0.0000 0.0000
# 2 44.3784 139.3197 35.8163 0.0000 0.0000 0.0000
# 3 18.0176 35.8163 73.0213 0.0000 0.0000 0.0000
# 4 0.0000 0.0000 0.0000 -257.4617 0.0000 0.0000
# 5 0.0000 0.0000 0.0000 0.0000 5.9827 0.0000
# 6 0.0000 0.0000 0.0000 0.0000 0.0000 36.1207
#
#
#
# Elastic Compliance Matrix: (Units=1/GPa)
#
#
# Indices 1 2 3 4 5 6 
#
# 1 0.011079 -0.003234 -0.001147 0.000000 0.000000 0.000000
# 2 -0.003234 0.009157 -0.003694 0.000000 0.000000 0.000000
# 3 -0.001147 -0.003694 0.015789 0.000000 0.000000 0.000000
# 4 0.000000 0.000000 0.000000 -0.003884 0.000000 0.000000
# 5 0.000000 0.000000 0.000000 0.000000 0.167150 0.000000
# 6 0.000000 0.000000 0.000000 0.000000 0.000000 0.027685
#
#
# Mechanical properties :
#
#
# Convention : Reuss Voigt Hill
#
# Bulk Modulus (GPa) = 50.31297 57.09422 53.70359
# Shear Modulus (GPa) = 20.01989 -28.45760 -4.21886
#
# Velocity S-wave (km/s) = 3.19148 -3.80505 -1.46507
# Velocity P-wave (km/s) = 6.25928 3.12144 4.94580
#
# Compressibility (1/GPa) = 0.01987559
#
# Stress axis : x y z
#
# Youngs Moduli (GPa) = 90.26179 109.20050 63.33343
#
# Poissons Ratio (x) = 0.35316 0.07267
# Poissons Ratio (y) = 0.29191 0.23393
# Poissons Ratio (z) = 0.10356 0.40335
#
# Static dielectric constant tensor:
#      x y z
#    x 1.674590 0.000000 0.000000 
#    y 0.000000 1.721420 0.000000 
#    z 0.000000 0.000000 1.678380 
# 
# From -- ./inp_files/73401.got.cif
#   From: 2010.05.17/outbox.cif.g08.bks.cpg/sg65_37_cif.got.tgz:73401.got - 2010.06.03 17:01:31.
