data_PCOD9491446
_publ_section_title
;
Structure prediction by ZEFSAII (Michael W. Deem and Ramdas Pophale) SiO2 
 PCOD9491446
Probable space group: C M M M
;
_chemical_formula_sum "Si O2"
_cell_formula_units_Z 88
_cell_length_a 28.277181
_cell_length_b 16.951518
_cell_length_c 10.056304
_cell_angle_alpha 90.000000
_cell_angle_beta 90.000000
_cell_angle_gamma 90.000000
_cell_volume 4820.400251
_symmetry_space_group_name_H-M "C M M M"
_symmetry_group_IT_number 65
_symmetry_cell_setting 'orthorhombic'
loop_
_space_group_symop_operation_xyz
x,y,z
-x,-y,z
x,-y,-z
-x,y,-z
-x,-y,-z
x,y,-z
-x,y,z
x,-y,z
1/2+x,1/2+y,z
1/2-x,1/2-y,z
1/2+x,1/2-y,-z
1/2-x,1/2+y,-z
1/2-x,1/2-y,-z
1/2+x,1/2+y,-z
1/2-x,1/2+y,z
1/2+x,1/2-y,z
loop_
_atom_site_type_symbol
_atom_site_label
_atom_site_fract_x
_atom_site_fract_y
_atom_site_fract_z
Si Si1 0.943846 0.593939 0.000000
Si Si2 0.179713 0.089585 0.150303
Si Si3 0.076125 0.148969 0.850271
Si Si4 0.500000 0.592898 0.353615
Si Si5 0.942924 0.595272 0.500000
Si Si6 0.194227 0.765791 0.653321
Si Si7 0.105411 0.322958 0.245532
O O1 0.912773 0.621886 0.874124
O O2 0.946995 0.500000 0.000000
O O3 0.000000 0.622620 0.000000
O O4 0.123140 0.096813 0.143298
O O5 0.191414 0.155129 0.258753
O O6 0.193890 0.000000 0.182733
O O7 0.197381 0.108705 0.000000
O O8 0.043890 0.116061 0.735504
O O9 0.087981 0.237317 0.803870
O O10 0.055971 0.150565 0.000000
O O11 0.500000 0.500000 0.368169
O O12 0.500000 0.630335 0.500000
O O13 0.933036 0.500000 0.500000
O O14 0.920083 0.639422 0.373524
O O15 0.000000 0.603823 0.500000
O O16 0.177723 0.776816 0.500000
O O17 0.250000 0.750000 0.650009
O O18 0.160487 0.697616 0.718051
#
# Coordination Sequence:
#
# PCOD9491446 Si02
#       7
#     8  16  16   8   8  16  16
#     4  11  24  42  65  92 130 172 213 266 324 384
#     4   9  19  37  60  87 115 146 192 244 298 360
#     4  10  21  35  57  82 111 153 192 239 292 352
#     4  11  25  37  49  79 118 153 192 237 288 343
#     4  11  24  40  61  90 126 166 209 266 328 380
#     4  10  22  41  64  90 123 164 207 258 315 377
#     4  11  22  40  63  92 119 161 212 256 311 382
#
# _framework density 18.255745999999998
#
# number of rings (size 3 to 8) (size 9 to 14) (size 15 to 20)
#    0.000    1.727    1.818    1.909    5.091    4.364 
#    0.000    1.818    0.000    0.000    0.000    0.000 
#    0.000    0.000    0.000    0.000    0.000    0.000 
#
# Total GULP energy -244976.106192 kJ/mol
# GULP energy per Si atom -5567.638777 kJ/mol
# Density = 1.821420 g / cm^3
# Si number density = 18.255746 Si / 1000 Ang^3
#
#
#
# Elastic Constant Matrix: (Units=GPa)
#
#
# Indices 1 2 3 4 5 6 
#
# 1 83.1677 32.0100 55.8377 0.0000 0.0000 0.0000
# 2 32.0100 82.6460 43.2976 0.0000 0.0000 0.0000
# 3 55.8377 43.2976 169.9534 0.0000 0.0000 0.0000
# 4 0.0000 0.0000 0.0000 15.0890 0.0000 0.0000
# 5 0.0000 0.0000 0.0000 0.0000 25.1465 0.0000
# 6 0.0000 0.0000 0.0000 0.0000 0.0000 0.7741
#
#
#
# Elastic Compliance Matrix: (Units=1/GPa)
#
#
# Indices 1 2 3 4 5 6 
#
# 1 0.016555 -0.004111 -0.004392 0.000000 0.000000 0.000000
# 2 -0.004111 0.014984 -0.002467 0.000000 0.000000 0.000000
# 3 -0.004392 -0.002467 0.007955 0.000000 0.000000 0.000000
# 4 0.000000 0.000000 0.000000 0.066274 0.000000 0.000000
# 5 0.000000 0.000000 0.000000 0.000000 0.039767 0.000000
# 6 0.000000 0.000000 0.000000 0.000000 0.000000 1.291793
#
#
# Mechanical properties :
#
#
# Convention : Reuss Voigt Hill
#
# Bulk Modulus (GPa) = 56.96276 66.45086 61.70681
# Shear Modulus (GPa) = 3.41269 21.84337 12.62803
#
# Velocity S-wave (km/s) = 1.36874 3.46283 2.63293
# Velocity P-wave (km/s) = 5.81105 7.24343 6.56641
#
# Compressibility (1/GPa) = 0.01755533
#
# Stress axis : x y z
#
# Youngs Moduli (GPa) = 60.40587 66.73599 125.70299
#
# Poissons Ratio (x) = 0.27436 0.55204
# Poissons Ratio (y) = 0.24834 0.31008
# Poissons Ratio (z) = 0.26528 0.16462
#
# Static dielectric constant tensor:
#      x y z
#    x 1.648720 0.000000 0.000000 
#    y 0.000000 1.649230 0.000000 
#    z 0.000000 0.000000 1.687210 
# 
# From -- ./inp_files/18364.got.cif
#   From: 2010.05.17/outbox.cif.g08.bks.cpg/sg65_10_cif.got.tgz:18364.got - 2010.06.03 17:01:31.
