data_PCOD9491674
_publ_section_title
;
Structure prediction by ZEFSAII (Michael W. Deem and Ramdas Pophale) SiO2 
 PCOD9491674
Probable space group: C M M M
;
_chemical_formula_sum "Si O2"
_cell_formula_units_Z 88
_cell_length_a 7.991628
_cell_length_b 27.898993
_cell_length_c 19.326338
_cell_angle_alpha 90.000000
_cell_angle_beta 90.000000
_cell_angle_gamma 90.000000
_cell_volume 4308.968889
_symmetry_space_group_name_H-M "C M M M"
_symmetry_group_IT_number 65
_symmetry_cell_setting 'orthorhombic'
loop_
_space_group_symop_operation_xyz
x,y,z
-x,-y,z
x,-y,-z
-x,y,-z
-x,-y,-z
x,y,-z
-x,y,z
x,-y,z
1/2+x,1/2+y,z
1/2-x,1/2-y,z
1/2+x,1/2-y,-z
1/2-x,1/2+y,-z
1/2-x,1/2-y,-z
1/2+x,1/2+y,-z
1/2-x,1/2+y,z
1/2+x,1/2-y,z
loop_
_atom_site_type_symbol
_atom_site_label
_atom_site_fract_x
_atom_site_fract_y
_atom_site_fract_z
Si Si1 0.307273 0.500000 0.084276
Si Si2 0.298663 0.604756 0.921424
Si Si3 0.301842 0.400102 0.421912
Si Si4 0.701629 0.147697 0.212668
Si Si5 0.698071 0.051994 0.714794
Si Si6 0.799920 0.696991 0.651316
O O1 0.500000 0.500000 0.108713
O O2 0.230957 0.448083 0.102102
O O3 0.311606 0.500000 0.000000
O O4 0.500000 0.600251 0.923661
O O5 0.254972 0.645708 0.866676
O O6 0.240897 0.613786 0.000000
O O7 0.238692 0.405835 0.500000
O O8 0.500000 0.408937 0.421331
O O9 0.220906 0.435188 0.365763
O O10 0.270904 0.345881 0.395316
O O11 0.500000 0.147617 0.213770
O O12 0.768263 0.097419 0.244298
O O13 0.756173 0.187027 0.268947
O O14 0.500000 0.050677 0.728906
O O15 0.770442 0.000000 0.731913
O O16 0.750000 0.750000 0.629281
O O17 0.000000 0.692528 0.649022
#
# Coordination Sequence:
#
# PCOD9491674 Si02
#       6
#     8  16  16  16  16  16
#     4   7  12  24  39  59  91 127 162 199 238 281
#     4   9  17  29  46  69  99 135 173 212 253 299
#     4  10  21  36  54  79 109 137 170 212 254 302
#     4   9  19  33  50  74 102 132 167 211 259 306
#     4   9  19  35  52  72 103 143 182 217 256 303
#     4  10  21  38  59  80 103 132 167 209 259 313
#
# _framework density 20.422518
#
# number of rings (size 3 to 8) (size 9 to 14) (size 15 to 20)
#    0.000    2.818    0.000    3.273    1.273    6.545 
#    0.000    1.818    0.000    2.182    0.000    0.000 
#    0.000    0.000    0.000    0.000    0.000    0.000 
#
# Total GULP energy -245303.208006 kJ/mol
# GULP energy per Si atom -5575.072909 kJ/mol
# Density = 2.037604 g / cm^3
# Si number density = 20.422518 Si / 1000 Ang^3
#
#
#
# Elastic Constant Matrix: (Units=GPa)
#
#
# Indices 1 2 3 4 5 6 
#
# 1 19.3166 -6.3617 -7.3176 0.0000 0.0000 0.0000
# 2 -6.3617 30.6625 -24.1753 0.0000 0.0000 0.0000
# 3 -7.3176 -24.1753 64.6176 0.0000 0.0000 0.0000
# 4 0.0000 0.0000 0.0000 16.9419 0.0000 0.0000
# 5 0.0000 0.0000 0.0000 0.0000 25.7127 0.0000
# 6 0.0000 0.0000 0.0000 0.0000 0.0000 16.9031
#
#
#
# Elastic Compliance Matrix: (Units=1/GPa)
#
#
# Indices 1 2 3 4 5 6 
#
# 1 0.068223 0.028717 0.018470 0.000000 0.000000 0.000000
# 2 0.028717 0.058346 0.025081 0.000000 0.000000 0.000000
# 3 0.018470 0.025081 0.026951 0.000000 0.000000 0.000000
# 4 0.000000 0.000000 0.000000 0.059025 0.000000 0.000000
# 5 0.000000 0.000000 0.000000 0.000000 0.038891 0.000000
# 6 0.000000 0.000000 0.000000 0.000000 0.000000 0.059161
#
#
# Mechanical properties :
#
#
# Convention : Reuss Voigt Hill
#
# Bulk Modulus (GPa) = 3.35510 4.32083 3.83796
# Shear Modulus (GPa) = 18.83850 22.07495 20.45673
#
# Velocity S-wave (km/s) = 3.04046 3.29129 3.16836
# Velocity P-wave (km/s) = 3.73795 4.06986 3.90743
#
# Compressibility (1/GPa) = 0.29805377
#
# Stress axis : x y z
#
# Youngs Moduli (GPa) = 14.65779 17.13924 37.10477
#
# Poissons Ratio (x) = -0.49218 -0.68531
# Poissons Ratio (y) = -0.42092 -0.93062
# Poissons Ratio (z) = -0.27072 -0.42987
#
# Static dielectric constant tensor:
#      x y z
#    x 1.736070 0.000000 0.000000 
#    y 0.000000 1.738140 0.000000 
#    z 0.000000 0.000000 1.766020 
# 
# From -- ./inp_files/50436.got.cif
#   From: 2010.05.17/outbox.cif.g08.bks.cpg/sg65_26_cif.got.tgz:50436.got - 2010.06.03 17:01:31.
