data_PCOD9491086
_publ_section_title
;
Structure prediction by ZEFSAII (Michael W. Deem and Ramdas Pophale) SiO2 
 PCOD9491086
Probable space group: C M M M
;
_chemical_formula_sum "Si O2"
_cell_formula_units_Z 112
_cell_length_a 13.829362
_cell_length_b 24.328577
_cell_length_c 18.006037
_cell_angle_alpha 90.000000
_cell_angle_beta 90.000000
_cell_angle_gamma 90.000000
_cell_volume 6058.107710
_symmetry_space_group_name_H-M "C M M M"
_symmetry_group_IT_number 65
_symmetry_cell_setting 'orthorhombic'
loop_
_space_group_symop_operation_xyz
x,y,z
-x,-y,z
x,-y,-z
-x,y,-z
-x,-y,-z
x,y,-z
-x,y,z
x,-y,z
1/2+x,1/2+y,z
1/2-x,1/2-y,z
1/2+x,1/2-y,-z
1/2-x,1/2+y,-z
1/2-x,1/2-y,-z
1/2+x,1/2+y,-z
1/2-x,1/2+y,z
1/2+x,1/2-y,z
loop_
_atom_site_type_symbol
_atom_site_label
_atom_site_fract_x
_atom_site_fract_y
_atom_site_fract_z
Si Si1 0.886406 0.724295 0.415619
Si Si2 0.892423 0.718764 0.089074
Si Si3 0.307334 0.327283 0.151406
Si Si4 0.112237 0.437103 0.209093
Si Si5 0.273128 0.562050 0.087671
Si Si6 0.609888 0.643168 0.413649
Si Si7 0.767332 0.647966 0.694049
O O1 0.853357 0.710392 0.500000
O O2 0.879645 0.790223 0.407970
O O3 0.827590 0.691843 0.353668
O O4 0.000000 0.710426 0.410296
O O5 0.800789 0.685653 0.120056
O O6 0.875962 0.780285 0.119734
O O7 0.000000 0.699132 0.110391
O O8 0.886063 0.719223 0.000000
O O9 0.333448 0.388102 0.123289
O O10 0.295530 0.325024 0.239821
O O11 0.119906 0.500000 0.236961
O O12 0.171842 0.435851 0.132152
O O13 0.162424 0.394834 0.265132
O O14 0.000000 0.424342 0.198329
O O15 0.312122 0.500000 0.098241
O O16 0.260760 0.571296 0.000000
O O17 0.622261 0.628996 0.500000
O O18 0.500000 0.629507 0.391715
O O19 0.692049 0.619204 0.361417
#
# Coordination Sequence:
#
# PCOD9491086 Si02
#       7
#    16  16  16  16  16  16  16
#     4   9  18  31  48  72 101 131 162 196 236 289
#     4  10  21  36  51  66  95 140 175 204 247 298
#     4  10  21  33  48  76 104 128 168 214 251 300
#     4   9  19  34  49  71 103 132 162 202 248 298
#     4   9  17  31  53  75  97 131 172 215 260 300
#     4   9  19  34  51  73 101 131 163 202 245 290
#     4  11  20  30  50  75  98 132 163 198 248 298
#
# _framework density 18.48762
#
# number of rings (size 3 to 8) (size 9 to 14) (size 15 to 20)
#    0.000    2.429    0.000    3.857    4.000    4.857 
#    0.000    1.429    0.000    2.571    0.000   12.000 
#    0.000    0.000    0.000    0.000    0.000    0.286 
#
# Total GULP energy -312411.952662 kJ/mol
# GULP energy per Si atom -5578.784869 kJ/mol
# Density = 1.844554 g / cm^3
# Si number density = 18.487620 Si / 1000 Ang^3
#
#
#
# Elastic Constant Matrix: (Units=GPa)
#
#
# Indices 1 2 3 4 5 6 
#
# 1 28.8115 -7.3834 5.4178 0.0000 0.0000 0.0000
# 2 -7.3834 52.3183 13.8577 0.0000 0.0000 0.0000
# 3 5.4178 13.8577 77.3630 0.0000 0.0000 0.0000
# 4 0.0000 0.0000 0.0000 20.5809 0.0000 0.0000
# 5 0.0000 0.0000 0.0000 0.0000 21.0936 0.0000
# 6 0.0000 0.0000 0.0000 0.0000 0.0000 13.3039
#
#
#
# Elastic Compliance Matrix: (Units=1/GPa)
#
#
# Indices 1 2 3 4 5 6 
#
# 1 0.036994 0.006201 -0.003701 0.000000 0.000000 0.000000
# 2 0.006201 0.021105 -0.004215 0.000000 0.000000 0.000000
# 3 -0.003701 -0.004215 0.013940 0.000000 0.000000 0.000000
# 4 0.000000 0.000000 0.000000 0.048589 0.000000 0.000000
# 5 0.000000 0.000000 0.000000 0.000000 0.047408 0.000000
# 6 0.000000 0.000000 0.000000 0.000000 0.000000 0.075166
#
#
# Mechanical properties :
#
#
# Convention : Reuss Voigt Hill
#
# Bulk Modulus (GPa) = 14.57538 20.25299 17.41419
# Shear Modulus (GPa) = 18.55281 20.76908 19.66094
#
# Velocity S-wave (km/s) = 3.17128 3.35536 3.26462
# Velocity P-wave (km/s) = 4.61632 5.09803 4.86314
#
# Compressibility (1/GPa) = 0.06860885
#
# Stress axis : x y z
#
# Youngs Moduli (GPa) = 27.03175 47.38154 71.73468
#
# Poissons Ratio (x) = -0.29382 0.26552
# Poissons Ratio (y) = -0.16763 0.30234
# Poissons Ratio (z) = 0.10006 0.19970
#
# Static dielectric constant tensor:
#      x y z
#    x 1.648200 0.000000 0.000000 
#    y 0.000000 1.661170 0.000000 
#    z 0.000000 0.000000 1.633110 
# 
# From -- ./inp_files/41161.got.cif
#   From: 2010.05.17/outbox.cif.g08.bks.cpg/sg65_21_cif.got.tgz:41161.got - 2010.06.03 17:01:31.
