data_PCOD9491221
_publ_section_title
;
Structure prediction by ZEFSAII (Michael W. Deem and Ramdas Pophale) SiO2 
 PCOD9491221
Probable space group: C M M M
;
_chemical_formula_sum "Si O2"
_cell_formula_units_Z 88
_cell_length_a 8.320908
_cell_length_b 32.462470
_cell_length_c 17.517755
_cell_angle_alpha 90.000000
_cell_angle_beta 90.000000
_cell_angle_gamma 90.000000
_cell_volume 4731.847392
_symmetry_space_group_name_H-M "C M M M"
_symmetry_group_IT_number 65
_symmetry_cell_setting 'orthorhombic'
loop_
_space_group_symop_operation_xyz
x,y,z
-x,-y,z
x,-y,-z
-x,y,-z
-x,-y,-z
x,y,-z
-x,y,z
x,-y,z
1/2+x,1/2+y,z
1/2-x,1/2-y,z
1/2+x,1/2-y,-z
1/2-x,1/2+y,-z
1/2-x,1/2-y,-z
1/2+x,1/2+y,-z
1/2-x,1/2+y,z
1/2+x,1/2-y,z
loop_
_atom_site_type_symbol
_atom_site_label
_atom_site_fract_x
_atom_site_fract_y
_atom_site_fract_z
Si Si1 0.195663 0.297095 0.169212
Si Si2 0.183069 0.500000 0.908369
Si Si3 0.806249 0.702920 0.000000
Si Si4 0.312794 0.588671 0.089772
Si Si5 0.310206 0.546879 0.333641
Si Si6 0.819296 0.450427 0.500000
Si Si7 0.682262 0.122892 0.236081
O O1 0.250000 0.250000 0.181716
O O2 0.251926 0.330618 0.231859
O O3 0.000000 0.297596 0.168908
O O4 0.252408 0.310938 0.083625
O O5 0.282810 0.459327 0.890949
O O6 0.000000 0.500000 0.876665
O O7 0.166477 0.500000 0.000000
O O8 0.750000 0.750000 0.000000
O O9 0.000000 0.699309 0.000000
O O10 0.500000 0.598978 0.103685
O O11 0.193260 0.610839 0.146992
O O12 0.277989 0.595294 0.000000
O O13 0.500000 0.543408 0.327378
O O14 0.243132 0.500000 0.317935
O O15 0.265705 0.559253 0.420381
O O16 0.258374 0.584566 0.280166
O O17 0.827554 0.500000 0.500000
O O18 0.000000 0.433643 0.500000
O O19 0.500000 0.125524 0.263018
#
# Coordination Sequence:
#
# PCOD9491221 Si02
#       7
#    16   8   8  16  16   8  16
#     4   9  19  34  53  74  99 133 175 227 281 332
#     4   9  17  31  49  65  83 118 167 214 259 307
#     4   8  14  28  48  70  93 122 165 219 277 328
#     4  10  21  35  49  67  95 134 179 225 271 320
#     4  10  21  37  57  82 114 149 182 218 263 315
#     4   9  17  33  59  87 114 143 176 215 261 315
#     4  11  23  35  52  78 107 140 181 225 274 324
#
# _framework density 18.597386
#
# number of rings (size 3 to 8) (size 9 to 14) (size 15 to 20)
#    0.000    2.364    0.000    2.182    2.545    5.818 
#    0.000    0.000    0.000    0.000    0.000    0.636 
#    0.000    0.000    0.000    0.000    0.000    0.000 
#
# Total GULP energy -245026.821866 kJ/mol
# GULP energy per Si atom -5568.791406 kJ/mol
# Density = 1.855506 g / cm^3
# Si number density = 18.597386 Si / 1000 Ang^3
#
#
#
# Elastic Constant Matrix: (Units=GPa)
#
#
# Indices 1 2 3 4 5 6 
#
# 1 39.6054 13.2381 17.5131 0.0000 0.0000 0.0000
# 2 13.2381 119.9695 59.5922 0.0000 0.0000 0.0000
# 3 17.5131 59.5922 74.6980 0.0000 0.0000 0.0000
# 4 0.0000 0.0000 0.0000 18.8719 0.0000 0.0000
# 5 0.0000 0.0000 0.0000 0.0000 24.7167 0.0000
# 6 0.0000 0.0000 0.0000 0.0000 0.0000 19.5229
#
#
#
# Elastic Compliance Matrix: (Units=1/GPa)
#
#
# Indices 1 2 3 4 5 6 
#
# 1 0.028175 0.000285 -0.006833 0.000000 0.000000 0.000000
# 2 0.000285 0.013810 -0.011084 0.000000 0.000000 0.000000
# 3 -0.006833 -0.011084 0.023832 0.000000 0.000000 0.000000
# 4 0.000000 0.000000 0.000000 0.052989 0.000000 0.000000
# 5 0.000000 0.000000 0.000000 0.000000 0.040458 0.000000
# 6 0.000000 0.000000 0.000000 0.000000 0.000000 0.051222
#
#
# Mechanical properties :
#
#
# Convention : Reuss Voigt Hill
#
# Bulk Modulus (GPa) = 32.73011 46.10664 39.41837
# Shear Modulus (GPa) = 19.53629 22.21761 20.87695
#
# Velocity S-wave (km/s) = 3.24464 3.46014 3.35412
# Velocity P-wave (km/s) = 5.62800 6.38821 6.02012
#
# Compressibility (1/GPa) = 0.03055290
#
# Stress axis : x y z
#
# Youngs Moduli (GPa) = 35.49198 72.41317 41.96081
#
# Poissons Ratio (x) = -0.02066 0.28673
# Poissons Ratio (y) = -0.01013 0.46509
# Poissons Ratio (z) = 0.24253 0.80262
#
# Static dielectric constant tensor:
#      x y z
#    x 1.669470 0.000000 0.000000 
#    y 0.000000 1.708500 0.000000 
#    z 0.000000 0.000000 1.651940 
# 
# From -- ./inp_files/50501.got.cif
#   From: 2010.05.17/outbox.cif.g08.bks.cpg/sg65_26_cif.got.tgz:50501.got - 2010.06.03 17:01:31.
