data_PCOD9491881
_publ_section_title
;
Structure prediction by ZEFSAII (Michael W. Deem and Ramdas Pophale) SiO2 
 PCOD9491881
Probable space group: C M M M
;
_chemical_formula_sum "Si O2"
_cell_formula_units_Z 116
_cell_length_a 18.055441
_cell_length_b 21.386446
_cell_length_c 16.954778
_cell_angle_alpha 90.000000
_cell_angle_beta 90.000000
_cell_angle_gamma 90.000000
_cell_volume 6546.947037
_symmetry_space_group_name_H-M "C M M M"
_symmetry_group_IT_number 65
_symmetry_cell_setting 'orthorhombic'
loop_
_space_group_symop_operation_xyz
x,y,z
-x,-y,z
x,-y,-z
-x,y,-z
-x,-y,-z
x,y,-z
-x,y,z
x,-y,z
1/2+x,1/2+y,z
1/2-x,1/2-y,z
1/2+x,1/2-y,-z
1/2-x,1/2+y,-z
1/2-x,1/2-y,-z
1/2+x,1/2+y,-z
1/2-x,1/2+y,z
1/2+x,1/2-y,z
loop_
_atom_site_type_symbol
_atom_site_label
_atom_site_fract_x
_atom_site_fract_y
_atom_site_fract_z
Si Si1 0.912695 0.314498 0.330114
Si Si2 0.662519 0.929363 0.592786
Si Si3 0.687355 0.500000 0.000000
Si Si4 0.588689 0.320057 0.592241
Si Si5 0.688870 0.197829 0.821092
Si Si6 0.584182 0.288794 0.906377
Si Si7 0.321542 0.430279 0.324716
Si Si8 0.811688 0.898775 0.857201
O O1 0.892655 0.374288 0.383094
O O2 0.894652 0.248838 0.373248
O O3 0.861916 0.318945 0.252832
O O4 0.000000 0.313994 0.311430
O O5 0.679415 0.924955 0.500000
O O6 0.738654 0.922165 0.641344
O O7 0.633894 0.000000 0.608221
O O8 0.686803 0.553994 0.929743
O O9 0.609776 0.322947 0.500000
O O10 0.500000 0.328497 0.597722
O O11 0.629454 0.374333 0.640563
O O12 0.750000 0.250000 0.796965
O O13 0.635418 0.230488 0.884096
O O14 0.735162 0.140414 0.855555
O O15 0.500000 0.280252 0.878584
O O16 0.621946 0.349109 0.867885
O O17 0.583865 0.297552 0.000000
O O18 0.347323 0.500000 0.348979
O O19 0.319468 0.427166 0.230007
#
# Coordination Sequence:
#
# PCOD9491881 Si02
#       8
#    16  16   4  16  16  16  16  16
#     4  11  22  38  61  90 122 158 199 246 302 357
#     4  10  22  39  60  87 117 154 202 247 295 349
#     4  12  24  40  63  92 115 162 196 256 294 356
#     4  10  22  38  58  89 126 164 208 254 302 357
#     4  10  21  36  61  89 117 153 195 245 293 360
#     4  10  21  37  58  87 120 150 186 241 301 357
#     4  11  22  39  60  85 119 161 204 256 298 360
#     4  11  22  39  62  87 119 151 201 241 303 359
#
# _framework density 17.718183
#
# number of rings (size 3 to 8) (size 9 to 14) (size 15 to 20)
#    0.000    1.517    2.759    2.897    0.966    4.690 
#    0.000    3.448    0.000    0.000    0.000    1.931 
#    0.000    0.000    0.000    0.000    0.000    0.000 
#
# Total GULP energy -323246.224744 kJ/mol
# GULP energy per Si atom -5573.210771 kJ/mol
# Density = 1.767786 g / cm^3
# Si number density = 17.718183 Si / 1000 Ang^3
#
#
#
# Elastic Constant Matrix: (Units=GPa)
#
#
# Indices 1 2 3 4 5 6 
#
# 1 75.9452 40.3166 27.7790 0.0000 0.0000 0.0000
# 2 40.3166 110.2771 17.0356 0.0000 0.0000 0.0000
# 3 27.7790 17.0356 61.2968 0.0000 0.0000 0.0000
# 4 0.0000 0.0000 0.0000 32.4321 0.0000 0.0000
# 5 0.0000 0.0000 0.0000 0.0000 27.1234 0.0000
# 6 0.0000 0.0000 0.0000 0.0000 0.0000 6.9985
#
#
#
# Elastic Compliance Matrix: (Units=1/GPa)
#
#
# Indices 1 2 3 4 5 6 
#
# 1 0.018766 -0.005796 -0.006894 0.000000 0.000000 0.000000
# 2 -0.005796 0.011265 -0.000504 0.000000 0.000000 0.000000
# 3 -0.006894 -0.000504 0.019578 0.000000 0.000000 0.000000
# 4 0.000000 0.000000 0.000000 0.030834 0.000000 0.000000
# 5 0.000000 0.000000 0.000000 0.000000 0.036869 0.000000
# 6 0.000000 0.000000 0.000000 0.000000 0.000000 0.142887
#
#
# Mechanical properties :
#
#
# Convention : Reuss Voigt Hill
#
# Bulk Modulus (GPa) = 43.06304 46.42019 44.74162
# Shear Modulus (GPa) = 16.98798 24.13666 20.56232
#
# Velocity S-wave (km/s) = 3.09979 3.69488 3.41034
# Velocity P-wave (km/s) = 6.09662 6.66775 6.38857
#
# Compressibility (1/GPa) = 0.02322177
#
# Stress axis : x y z
#
# Youngs Moduli (GPa) = 53.28890 88.77200 51.07693
#
# Poissons Ratio (x) = 0.51449 0.35211
# Poissons Ratio (y) = 0.30885 0.02575
# Poissons Ratio (z) = 0.36735 0.04476
#
# Static dielectric constant tensor:
#      x y z
#    x 1.586760 0.000000 0.000000 
#    y 0.000000 1.609680 0.000000 
#    z 0.000000 0.000000 1.596240 
# 
# From -- ./inp_files/54676.got.cif
#   From: 2010.05.17/outbox.cif.g08.bks.cpg/sg65_28_cif.got.tgz:54676.got - 2010.06.03 17:01:31.
