data_PCOD9491300
_publ_section_title
;
Structure prediction by ZEFSAII (Michael W. Deem and Ramdas Pophale) SiO2 
 PCOD9491300
Probable space group: C M M M
;
_chemical_formula_sum "Si O2"
_cell_formula_units_Z 80
_cell_length_a 7.561041
_cell_length_b 19.042268
_cell_length_c 27.636566
_cell_angle_alpha 90.000000
_cell_angle_beta 90.000000
_cell_angle_gamma 90.000000
_cell_volume 3979.095336
_symmetry_space_group_name_H-M "C M M M"
_symmetry_group_IT_number 65
_symmetry_cell_setting 'orthorhombic'
loop_
_space_group_symop_operation_xyz
x,y,z
-x,-y,z
x,-y,-z
-x,y,-z
-x,-y,-z
x,y,-z
-x,y,z
x,-y,z
1/2+x,1/2+y,z
1/2-x,1/2-y,z
1/2+x,1/2-y,-z
1/2-x,1/2+y,-z
1/2-x,1/2-y,-z
1/2+x,1/2+y,-z
1/2-x,1/2+y,z
1/2+x,1/2-y,z
loop_
_atom_site_type_symbol
_atom_site_label
_atom_site_fract_x
_atom_site_fract_y
_atom_site_fract_z
Si Si1 0.287764 0.333616 0.395880
Si Si2 0.287344 0.332753 0.290706
Si Si3 0.787615 0.080123 0.800602
Si Si4 0.788112 0.580354 0.908387
Si Si5 0.212602 0.166192 0.500000
Si Si6 0.787510 0.667777 0.000000
O O1 0.500000 0.342984 0.396150
O O2 0.250000 0.250000 0.395816
O O3 0.221113 0.358710 0.343488
O O4 0.220495 0.361115 0.447911
O O5 0.500000 0.340485 0.291590
O O6 0.250000 0.250000 0.286299
O O7 0.219351 0.374205 0.244090
O O8 0.748685 0.107671 0.854391
O O9 0.000000 0.077623 0.796482
O O10 0.720585 0.000000 0.798206
O O11 0.720028 0.500000 0.911830
O O12 0.000000 0.576627 0.913112
O O13 0.720566 0.628768 0.951740
O O14 0.250000 0.250000 0.500000
O O15 0.000000 0.157534 0.500000
O O16 0.750000 0.750000 0.000000
O O17 0.000000 0.660395 0.000000
#
# Coordination Sequence:
#
# PCOD9491300 Si02
#       6
#    16  16  16  16   8   8
#     4   8  13  21  33  51  75 103 134 168 208 251
#     4   9  17  28  42  61  86 114 142 175 217 261
#     4   9  18  32  48  66  88 115 148 182 214 252
#     4   9  18  34  54  71  88 115 150 183 213 248
#     4   8  12  18  30  48  71  99 131 167 205 246
#     4  10  21  35  51  73  99 122 144 174 214 258
#
# _framework density 20.105070999999999
#
# number of rings (size 3 to 8) (size 9 to 14) (size 15 to 20)
#    0.000    3.200    0.000    0.300    0.000    3.600 
#    0.000    4.000    0.000    3.000    0.000    0.700 
#    0.000    5.600    0.000    0.000    0.000  200.100 
#
# Total GULP energy -222739.476859 kJ/mol
# GULP energy per Si atom -5568.486921 kJ/mol
# Density = 2.005931 g / cm^3
# Si number density = 20.105071 Si / 1000 Ang^3
#
#
#
# Elastic Constant Matrix: (Units=GPa)
#
#
# Indices 1 2 3 4 5 6 
#
# 1 50.8439 0.4686 7.4776 0.0000 0.0000 0.0000
# 2 0.4686 46.3694 86.5839 0.0000 0.0000 0.0000
# 3 7.4776 86.5839 280.7927 0.0000 0.0000 0.0000
# 4 0.0000 0.0000 0.0000 -65.6454 0.0000 0.0000
# 5 0.0000 0.0000 0.0000 0.0000 5.9362 0.0000
# 6 0.0000 0.0000 0.0000 0.0000 0.0000 12.2589
#
#
#
# Elastic Compliance Matrix: (Units=1/GPa)
#
#
# Indices 1 2 3 4 5 6 
#
# 1 0.019813 0.001850 -0.001098 0.000000 0.000000 0.000000
# 2 0.001850 0.051010 -0.015778 0.000000 0.000000 0.000000
# 3 -0.001098 -0.015778 0.008456 0.000000 0.000000 0.000000
# 4 0.000000 0.000000 0.000000 -0.015233 0.000000 0.000000
# 5 0.000000 0.000000 0.000000 0.000000 0.168458 0.000000
# 6 0.000000 0.000000 0.000000 0.000000 0.000000 0.081573
#
#
# Mechanical properties :
#
#
# Convention : Reuss Voigt Hill
#
# Bulk Modulus (GPa) = 20.31456 63.00732 41.66094
# Shear Modulus (GPa) = 13.86821 9.40834 11.63828
#
# Velocity S-wave (km/s) = 2.62923 2.16558 2.40859
# Velocity P-wave (km/s) = 4.39810 6.13678 5.33869
#
# Compressibility (1/GPa) = 0.04922578
#
# Stress axis : x y z
#
# Youngs Moduli (GPa) = 50.47316 19.60417 118.26034
#
# Poissons Ratio (x) = -0.03628 0.12987
# Poissons Ratio (y) = -0.09340 1.86595
# Poissons Ratio (z) = 0.05543 0.30932
#
# Static dielectric constant tensor:
#      x y z
#    x 1.738840 0.000000 0.000000 
#    y 0.000000 1.673960 0.000000 
#    z 0.000000 0.000000 1.782190 
# 
# From -- ./inp_files/67773.got.cif
#   From: 2010.05.17/outbox.cif.g08.bks.cpg/sg65_34_cif.got.tgz:67773.got - 2010.06.03 17:01:31.
