data_PCOD9491236
_publ_section_title
;
Structure prediction by ZEFSAII (Michael W. Deem and Ramdas Pophale) SiO2 
 PCOD9491236
Probable space group: C M M M
;
_chemical_formula_sum "Si O2"
_cell_formula_units_Z 96
_cell_length_a 7.628515
_cell_length_b 27.319258
_cell_length_c 25.190571
_cell_angle_alpha 90.000000
_cell_angle_beta 90.000000
_cell_angle_gamma 90.000000
_cell_volume 5249.850256
_symmetry_space_group_name_H-M "C M M M"
_symmetry_group_IT_number 65
_symmetry_cell_setting 'orthorhombic'
loop_
_space_group_symop_operation_xyz
x,y,z
-x,-y,z
x,-y,-z
-x,y,-z
-x,-y,-z
x,y,-z
-x,y,z
x,-y,z
1/2+x,1/2+y,z
1/2-x,1/2-y,z
1/2+x,1/2-y,-z
1/2-x,1/2+y,-z
1/2-x,1/2-y,-z
1/2+x,1/2+y,-z
1/2-x,1/2+y,z
1/2+x,1/2-y,z
loop_
_atom_site_type_symbol
_atom_site_label
_atom_site_fract_x
_atom_site_fract_y
_atom_site_fract_z
Si Si1 0.787379 0.406572 0.558387
Si Si2 0.210746 0.308156 0.057128
Si Si3 0.796331 0.342843 0.283874
Si Si4 0.294344 0.553610 0.328409
Si Si5 0.210072 0.695502 0.605469
Si Si6 0.789053 0.692227 0.827900
O O1 0.728732 0.422255 0.500000
O O2 0.726193 0.437713 0.608510
O O3 0.730994 0.350344 0.569998
O O4 0.000000 0.407942 0.559025
O O5 0.250000 0.250000 0.057244
O O6 0.277328 0.326198 0.114491
O O7 0.000000 0.313990 0.056882
O O8 0.277099 0.327392 0.000000
O O9 0.788638 0.399764 0.299678
O O10 0.719525 0.313819 0.334586
O O11 0.719521 0.332116 0.226027
O O12 0.000000 0.327887 0.280860
O O13 0.500000 0.554781 0.315904
O O14 0.223435 0.500000 0.314524
O O15 0.250000 0.750000 0.586732
O O16 0.000000 0.691211 0.607880
O O17 0.750000 0.750000 0.824275
O O18 0.000000 0.685952 0.829245
#
# Coordination Sequence:
#
# PCOD9491236 Si02
#       6
#    16  16  16  16  16  16
#     4   9  19  35  51  67  88 113 141 169 198 242
#     4   8  13  21  33  51  79 115 150 180 209 240
#     4   9  18  31  45  62  85 112 143 176 208 250
#     4  10  21  35  50  68  87 105 129 168 217 261
#     4   9  17  28  42  61  85 112 140 169 200 234
#     4   9  16  25  39  61  88 118 151 182 210 243
#
# _framework density 18.286235999999999
#
# number of rings (size 3 to 8) (size 9 to 14) (size 15 to 20)
#    0.000    3.000    0.000    2.000    0.000    5.667 
#    0.000    1.667    0.000    0.000    0.000    0.000 
#    0.000    0.667    0.000    8.333    0.000    1.333 
#
# Total GULP energy -267322.254334 kJ/mol
# GULP energy per Si atom -5569.213632 kJ/mol
# Density = 1.824462 g / cm^3
# Si number density = 18.286236 Si / 1000 Ang^3
#
#
#
# Elastic Constant Matrix: (Units=GPa)
#
#
# Indices 1 2 3 4 5 6 
#
# 1 35.4321 -13.6602 -2.3021 0.0000 0.0000 0.0000
# 2 -13.6602 39.4761 -5.0081 0.0000 0.0000 0.0000
# 3 -2.3021 -5.0081 110.6892 0.0000 0.0000 0.0000
# 4 0.0000 0.0000 0.0000 8.0059 0.0000 0.0000
# 5 0.0000 0.0000 0.0000 0.0000 -0.6760 0.0000
# 6 0.0000 0.0000 0.0000 0.0000 0.0000 15.8149
#
#
#
# Elastic Compliance Matrix: (Units=1/GPa)
#
#
# Indices 1 2 3 4 5 6 
#
# 1 0.032725 0.011476 0.001200 0.000000 0.000000 0.000000
# 2 0.011476 0.029503 0.001574 0.000000 0.000000 0.000000
# 3 0.001200 0.001574 0.009130 0.000000 0.000000 0.000000
# 4 0.000000 0.000000 0.000000 0.124908 0.000000 0.000000
# 5 0.000000 0.000000 0.000000 0.000000 -1.479249 0.000000
# 6 0.000000 0.000000 0.000000 0.000000 0.000000 0.063232
#
#
# Mechanical properties :
#
#
# Convention : Reuss Voigt Hill
#
# Bulk Modulus (GPa) = 10.01418 15.96184 12.98801
# Shear Modulus (GPa) = -4.11535 18.40014 7.14240
#
# Velocity S-wave (km/s) = -1.50180 3.17555 1.97848
# Velocity P-wave (km/s) = 1.57513 4.71098 3.51243
#
# Compressibility (1/GPa) = 0.09985838
#
# Stress axis : x y z
#
# Youngs Moduli (GPa) = 30.55724 33.89519 109.52361
#
# Poissons Ratio (x) = -0.38900 -0.13141
# Poissons Ratio (y) = -0.35069 -0.17234
# Poissons Ratio (z) = -0.03666 -0.05334
#
# Static dielectric constant tensor:
#      x y z
#    x 1.674590 0.000000 0.000000 
#    y 0.000000 1.602100 0.000000 
#    z 0.000000 0.000000 1.698840 
# 
# From -- ./inp_files/67850.got.cif
#   From: 2010.05.17/outbox.cif.g08.bks.cpg/sg65_34_cif.got.tgz:67850.got - 2010.06.03 17:01:31.
