data_PCOD9491177
_publ_section_title
;
Structure prediction by ZEFSAII (Michael W. Deem and Ramdas Pophale) SiO2 
 PCOD9491177
Probable space group: C M M M
;
_chemical_formula_sum "Si O2"
_cell_formula_units_Z 80
_cell_length_a 14.710254
_cell_length_b 9.845762
_cell_length_c 25.259223
_cell_angle_alpha 90.000000
_cell_angle_beta 90.000000
_cell_angle_gamma 90.000000
_cell_volume 3658.385712
_symmetry_space_group_name_H-M "C M M M"
_symmetry_group_IT_number 65
_symmetry_cell_setting 'orthorhombic'
loop_
_space_group_symop_operation_xyz
x,y,z
-x,-y,z
x,-y,-z
-x,y,-z
-x,-y,-z
x,y,-z
-x,y,z
x,-y,z
1/2+x,1/2+y,z
1/2-x,1/2-y,z
1/2+x,1/2-y,-z
1/2-x,1/2+y,-z
1/2-x,1/2-y,-z
1/2+x,1/2+y,-z
1/2-x,1/2+y,z
1/2+x,1/2-y,z
loop_
_atom_site_type_symbol
_atom_site_label
_atom_site_fract_x
_atom_site_fract_y
_atom_site_fract_z
Si Si1 0.611270 0.000000 0.938438
Si Si2 0.843179 0.836872 0.559201
Si Si3 0.610641 0.500000 0.940446
Si Si4 0.388357 0.657998 0.247892
Si Si5 0.105662 0.345185 0.656664
Si Si6 0.389383 0.748189 0.868464
O O1 0.640686 0.875828 0.902111
O O2 0.500000 0.000000 0.940549
O O3 0.640106 0.000000 0.000000
O O4 0.884466 0.827779 0.500000
O O5 0.750000 0.750000 0.556481
O O6 0.891353 0.753281 0.605586
O O7 0.832764 0.000000 0.570133
O O8 0.500000 0.500000 0.943066
O O9 0.637796 0.373707 0.905956
O O10 0.644369 0.500000 0.000000
O O11 0.500000 0.654849 0.248904
O O12 0.359514 0.500000 0.253262
O O13 0.355946 0.756673 0.294846
O O14 0.360172 0.720510 0.191445
O O15 0.143412 0.500000 0.649209
O O16 0.000000 0.363512 0.669216
O O17 0.500000 0.753312 0.865883
#
# Coordination Sequence:
#
# PCOD9491177 Si02
#       6
#     8  16   8  16  16  16
#     4   9  16  22  28  42  66  98 140 191 242 292
#     4  10  21  38  60  83 108 139 173 209 252 305
#     4   9  14  20  30  44  64  94 140 193 240 288
#     4   9  16  27  41  58  83 117 159 205 252 301
#     4  10  21  34  51  77 107 139 176 218 259 302
#     4   9  15  22  32  46  67 101 144 193 244 292
#
# _framework density 21.867570000000001
#
# number of rings (size 3 to 8) (size 9 to 14) (size 15 to 20)
#    0.000    2.600    1.000    1.800    1.400    5.200 
#    0.000    2.000    0.000    0.000    0.000    0.000 
#    0.000    0.000    0.000    0.000    0.000    6.000 
#
# Total GULP energy -222941.640254 kJ/mol
# GULP energy per Si atom -5573.541006 kJ/mol
# Density = 2.181780 g / cm^3
# Si number density = 21.867570 Si / 1000 Ang^3
#
#
#
# Elastic Constant Matrix: (Units=GPa)
#
#
# Indices 1 2 3 4 5 6 
#
# 1 57.6089 10.3943 11.9386 0.0000 0.0000 0.0000
# 2 10.3943 258.3858 134.8808 0.0000 0.0000 0.0000
# 3 11.9386 134.8808 217.6407 0.0000 0.0000 0.0000
# 4 0.0000 0.0000 0.0000 31.6151 0.0000 0.0000
# 5 0.0000 0.0000 0.0000 0.0000 96.9553 0.0000
# 6 0.0000 0.0000 0.0000 0.0000 0.0000 4.1092
#
#
#
# Elastic Compliance Matrix: (Units=1/GPa)
#
#
# Indices 1 2 3 4 5 6 
#
# 1 0.017574 -0.000301 -0.000777 0.000000 0.000000 0.000000
# 2 -0.000301 0.005726 -0.003532 0.000000 0.000000 0.000000
# 3 -0.000777 -0.003532 0.006826 0.000000 0.000000 0.000000
# 4 0.000000 0.000000 0.000000 0.031630 0.000000 0.000000
# 5 0.000000 0.000000 0.000000 0.000000 0.010314 0.000000
# 6 0.000000 0.000000 0.000000 0.000000 0.000000 0.243356
#
#
# Mechanical properties :
#
#
# Convention : Reuss Voigt Hill
#
# Bulk Modulus (GPa) = 47.83552 94.22922 71.03237
# Shear Modulus (GPa) = 15.07766 51.63070 33.35418
#
# Velocity S-wave (km/s) = 2.62868 4.86435 3.90972
# Velocity P-wave (km/s) = 5.57995 8.64486 7.27562
#
# Compressibility (1/GPa) = 0.02090497
#
# Stress axis : x y z
#
# Youngs Moduli (GPa) = 56.90265 174.63718 146.48957
#
# Poissons Ratio (x) = 0.05259 0.11388
# Poissons Ratio (y) = 0.01714 0.51743
# Poissons Ratio (z) = 0.04423 0.61686
#
# Static dielectric constant tensor:
#      x y z
#    x 1.917230 0.000000 0.000000 
#    y 0.000000 1.733930 0.000000 
#    z 0.000000 0.000000 1.744280 
# 
# From -- ./inp_files/70874.got.cif
#   From: 2010.05.17/outbox.cif.g08.bks.cpg/sg65_36_cif.got.tgz:70874.got - 2010.06.03 17:01:31.
