data_PCOD9491323
_publ_section_title
;
Structure prediction by ZEFSAII (Michael W. Deem and Ramdas Pophale) SiO2 
 PCOD9491323
Probable space group: C M M M
;
_chemical_formula_sum "Si O2"
_cell_formula_units_Z 112
_cell_length_a 27.375060
_cell_length_b 14.888824
_cell_length_c 14.610185
_cell_angle_alpha 90.000000
_cell_angle_beta 90.000000
_cell_angle_gamma 90.000000
_cell_volume 5954.855002
_symmetry_space_group_name_H-M "C M M M"
_symmetry_group_IT_number 65
_symmetry_cell_setting 'orthorhombic'
loop_
_space_group_symop_operation_xyz
x,y,z
-x,-y,z
x,-y,-z
-x,y,-z
-x,-y,-z
x,y,-z
-x,y,z
x,-y,z
1/2+x,1/2+y,z
1/2-x,1/2-y,z
1/2+x,1/2-y,-z
1/2-x,1/2+y,-z
1/2-x,1/2-y,-z
1/2+x,1/2+y,-z
1/2-x,1/2+y,z
1/2+x,1/2-y,z
loop_
_atom_site_type_symbol
_atom_site_label
_atom_site_fract_x
_atom_site_fract_y
_atom_site_fract_z
Si Si1 0.944239 0.600985 0.870970
Si Si2 0.639948 0.756360 0.895238
Si Si3 0.323546 0.396128 0.776829
Si Si4 0.947436 0.604058 0.651822
Si Si5 0.723682 0.101208 0.109409
Si Si6 0.738527 0.645336 0.395077
Si Si7 0.342557 0.894040 0.397692
O O1 0.928064 0.500000 0.898551
O O2 0.907463 0.679704 0.896662
O O3 0.946637 0.600323 0.761166
O O4 0.000000 0.614289 0.902044
O O5 0.639818 0.675480 0.822456
O O6 0.684326 0.822890 0.868077
O O7 0.648038 0.723989 0.000000
O O8 0.339614 0.500000 0.782340
O O9 0.274362 0.386635 0.838118
O O10 0.305715 0.375005 0.673483
O O11 0.948469 0.500000 0.618866
O O12 0.894862 0.646577 0.628728
O O13 0.000000 0.644416 0.622593
O O14 0.704994 0.000000 0.129210
O O15 0.732147 0.106614 0.000000
O O16 0.730789 0.611296 0.500000
O O17 0.750000 0.750000 0.400114
O O18 0.789834 0.612026 0.350508
O O19 0.332466 0.860217 0.500000
O O20 0.351432 0.000000 0.399394
#
# Coordination Sequence:
#
# PCOD9491323 Si02
#       7
#    16  16  16  16  16  16  16
#     4   9  19  35  55  82 114 145 177 214 265 337
#     4  11  22  35  54  79 107 140 183 231 276 326
#     4  11  23  36  53  75 103 147 190 229 277 320
#     4   8  15  27  44  69 101 137 174 210 251 308
#     4   9  18  32  50  76 108 140 178 223 274 332
#     4  10  21  35  51  76 107 139 181 230 278 332
#     4   9  17  28  44  68 100 138 176 212 255 314
#
# _framework density 18.808183
#
# number of rings (size 3 to 8) (size 9 to 14) (size 15 to 20)
#    0.000    2.429    0.000    3.429    4.000    4.286 
#    0.000    2.143    0.000    0.429    0.000    1.000 
#    0.000    0.000    0.000    1.286    0.000    0.143 
#
# Total GULP energy -311926.728617 kJ/mol
# GULP energy per Si atom -5570.120154 kJ/mol
# Density = 1.876537 g / cm^3
# Si number density = 18.808183 Si / 1000 Ang^3
#
#
#
# Elastic Constant Matrix: (Units=GPa)
#
#
# Indices 1 2 3 4 5 6 
#
# 1 70.5694 36.1855 24.7272 0.0000 0.0000 0.0000
# 2 36.1855 90.5201 32.4721 0.0000 0.0000 0.0000
# 3 24.7272 32.4721 70.1941 0.0000 0.0000 0.0000
# 4 0.0000 0.0000 0.0000 9.3705 0.0000 0.0000
# 5 0.0000 0.0000 0.0000 0.0000 -127.2912 0.0000
# 6 0.0000 0.0000 0.0000 0.0000 0.0000 22.0217
#
#
#
# Elastic Compliance Matrix: (Units=1/GPa)
#
#
# Indices 1 2 3 4 5 6 
#
# 1 0.018606 -0.006098 -0.003733 0.000000 0.000000 0.000000
# 2 -0.006098 0.015244 -0.004904 0.000000 0.000000 0.000000
# 3 -0.003733 -0.004904 0.017830 0.000000 0.000000 0.000000
# 4 0.000000 0.000000 0.000000 0.106717 0.000000 0.000000
# 5 0.000000 0.000000 0.000000 0.000000 -0.007856 0.000000
# 6 0.000000 0.000000 0.000000 0.000000 0.000000 0.045410
#
#
# Mechanical properties :
#
#
# Convention : Reuss Voigt Hill
#
# Bulk Modulus (GPa) = 45.02653 46.45034 45.73844
# Shear Modulus (GPa) = 21.47544 -9.98653 5.74445
#
# Velocity S-wave (km/s) = 3.38274 -2.30677 1.74953
# Velocity P-wave (km/s) = 6.26491 4.20185 5.33407
#
# Compressibility (1/GPa) = 0.02220913
#
# Stress axis : x y z
#
# Youngs Moduli (GPa) = 53.74746 65.59849 56.08615
#
# Poissons Ratio (x) = 0.40005 0.20937
# Poissons Ratio (y) = 0.32778 0.27503
# Poissons Ratio (z) = 0.20064 0.32168
#
# Static dielectric constant tensor:
#      x y z
#    x 1.715470 0.000000 0.000000 
#    y 0.000000 1.644630 0.000000 
#    z 0.000000 0.000000 1.727930 
# 
# From -- ./inp_files/47024.got.cif
#   From: 2010.05.17/outbox.cif.g08.bks.cpg/sg65_24_cif.got.tgz:47024.got - 2010.06.03 17:01:31.
