data_PCOD9491247
_publ_section_title
;
Structure prediction by ZEFSAII (Michael W. Deem and Ramdas Pophale) SiO2 
 PCOD9491247
Probable space group: C M M M
;
_chemical_formula_sum "Si O2"
_cell_formula_units_Z 88
_cell_length_a 7.694447
_cell_length_b 19.152120
_cell_length_c 29.842515
_cell_angle_alpha 90.000000
_cell_angle_beta 90.000000
_cell_angle_gamma 90.000000
_cell_volume 4397.741396
_symmetry_space_group_name_H-M "C M M M"
_symmetry_group_IT_number 65
_symmetry_cell_setting 'orthorhombic'
loop_
_space_group_symop_operation_xyz
x,y,z
-x,-y,z
x,-y,-z
-x,y,-z
-x,-y,-z
x,y,-z
-x,y,z
x,-y,z
1/2+x,1/2+y,z
1/2-x,1/2-y,z
1/2+x,1/2-y,-z
1/2-x,1/2+y,-z
1/2-x,1/2-y,-z
1/2+x,1/2+y,-z
1/2-x,1/2+y,z
1/2+x,1/2-y,z
loop_
_atom_site_type_symbol
_atom_site_label
_atom_site_fract_x
_atom_site_fract_y
_atom_site_fract_z
Si Si1 0.209674 0.167927 0.218789
Si Si2 0.793110 0.921537 0.135397
Si Si3 0.209351 0.832227 0.585901
Si Si4 0.706780 0.169727 0.050258
Si Si5 0.713119 0.419244 0.500000
Si Si6 0.708561 0.332493 0.316368
O O1 0.250000 0.250000 0.213562
O O2 0.277446 0.123823 0.176889
O O3 0.273444 0.142290 0.267840
O O4 0.000000 0.162719 0.219419
O O5 0.768711 0.881576 0.088772
O O6 0.000000 0.926435 0.142423
O O7 0.721946 0.000000 0.134008
O O8 0.250000 0.750000 0.580109
O O9 0.272150 0.877940 0.544304
O O10 0.274101 0.857040 0.635028
O O11 0.000000 0.837674 0.586626
O O12 0.500000 0.163743 0.048435
O O13 0.750000 0.250000 0.061511
O O14 0.776608 0.155634 0.000000
O O15 0.765976 0.500000 0.500000
O O16 0.500000 0.418108 0.500000
O O17 0.500000 0.341747 0.316465
O O18 0.750000 0.250000 0.316193
#
# Coordination Sequence:
#
# PCOD9491247 Si02
#       6
#    16  16  16  16   8  16
#     4   9  17  30  48  69  93 121 155 194 234 277
#     4  10  21  35  50  71 101 134 164 196 236 280
#     4   9  16  27  45  66  87 114 149 189 231 273
#     4  10  21  37  57  79 101 126 159 199 240 283
#     4   9  17  28  41  61  90 119 148 184 226 273
#     4   8  14  25  42  65  89 113 146 188 232 274
#
# _framework density 20.010269999999998
#
# number of rings (size 3 to 8) (size 9 to 14) (size 15 to 20)
#    0.000    2.818    0.000    1.364    0.000    4.000 
#    0.000    2.727    0.000    6.545    0.000    0.000 
#    0.000   14.545    0.000    0.000    0.000    0.000 
#
# Total GULP energy -245247.147441 kJ/mol
# GULP energy per Si atom -5573.798805 kJ/mol
# Density = 1.996473 g / cm^3
# Si number density = 20.010270 Si / 1000 Ang^3
#
#
#
# Elastic Constant Matrix: (Units=GPa)
#
#
# Indices 1 2 3 4 5 6 
#
# 1 36.0946 0.8637 6.7088 0.0000 0.0000 0.0000
# 2 0.8637 113.7214 122.1638 0.0000 0.0000 0.0000
# 3 6.7088 122.1638 217.9770 0.0000 0.0000 0.0000
# 4 0.0000 0.0000 0.0000 -5.8139 0.0000 0.0000
# 5 0.0000 0.0000 0.0000 0.0000 -10.2643 0.0000
# 6 0.0000 0.0000 0.0000 0.0000 0.0000 14.6221
#
#
#
# Elastic Compliance Matrix: (Units=1/GPa)
#
#
# Indices 1 2 3 4 5 6 
#
# 1 0.028009 0.001792 -0.001867 0.000000 0.000000 0.000000
# 2 0.001792 0.022211 -0.012503 0.000000 0.000000 0.000000
# 3 -0.001867 -0.012503 0.011653 0.000000 0.000000 0.000000
# 4 0.000000 0.000000 0.000000 -0.172002 0.000000 0.000000
# 5 0.000000 0.000000 0.000000 0.000000 -0.097425 0.000000
# 6 0.000000 0.000000 0.000000 0.000000 0.000000 0.068389
#
#
# Mechanical properties :
#
#
# Convention : Reuss Voigt Hill
#
# Bulk Modulus (GPa) = 27.23468 69.69616 48.46542
# Shear Modulus (GPa) = -49.13023 15.57924 -16.77550
#
# Velocity S-wave (km/s) = -4.96042 2.79330 -2.89856
# Velocity P-wave (km/s) = 4.37811 6.73121 3.61534
#
# Compressibility (1/GPa) = 0.03671789
#
# Stress axis : x y z
#
# Youngs Moduli (GPa) = 35.70274 45.02181 85.81808
#
# Poissons Ratio (x) = -0.08070 0.16019
# Poissons Ratio (y) = -0.06400 1.07302
# Poissons Ratio (z) = 0.06664 0.56293
#
# Static dielectric constant tensor:
#      x y z
#    x 1.741260 0.000000 0.000000 
#    y 0.000000 1.646140 0.000000 
#    z 0.000000 0.000000 1.762290 
# 
# From -- ./inp_files/76422.got.cif
#   From: 2010.05.17/outbox.cif.g08.bks.cpg/sg65_39_cif.got.tgz:76422.got - 2010.06.03 17:01:31.
