data_PCOD9491950
_publ_section_title
;
Structure prediction by ZEFSAII (Michael W. Deem and Ramdas Pophale) SiO2 
 PCOD9491950
Probable space group: C M M M
;
_chemical_formula_sum "Si O2"
_cell_formula_units_Z 72
_cell_length_a 8.632315
_cell_length_b 14.758782
_cell_length_c 28.618057
_cell_angle_alpha 90.000000
_cell_angle_beta 90.000000
_cell_angle_gamma 90.000000
_cell_volume 3646.010726
_symmetry_space_group_name_H-M "C M M M"
_symmetry_group_IT_number 65
_symmetry_cell_setting 'orthorhombic'
loop_
_space_group_symop_operation_xyz
x,y,z
-x,-y,z
x,-y,-z
-x,y,-z
-x,-y,-z
x,y,-z
-x,y,z
x,-y,z
1/2+x,1/2+y,z
1/2-x,1/2-y,z
1/2+x,1/2-y,-z
1/2-x,1/2+y,-z
1/2-x,1/2-y,-z
1/2+x,1/2+y,-z
1/2-x,1/2+y,z
1/2+x,1/2-y,z
loop_
_atom_site_type_symbol
_atom_site_label
_atom_site_fract_x
_atom_site_fract_y
_atom_site_fract_z
Si Si1 0.685789 0.000000 0.318448
Si Si2 0.685972 0.351809 0.750473
Si Si3 0.687058 0.148704 0.500000
Si Si4 0.685623 0.146880 0.050863
Si Si5 0.811433 0.500000 0.425504
Si Si6 0.814700 0.852738 0.146261
O O1 0.746025 0.086398 0.289983
O O2 0.740981 0.000000 0.372108
O O3 0.500000 0.000000 0.318504
O O4 0.500000 0.350360 0.747682
O O5 0.750000 0.250000 0.746959
O O6 0.727181 0.389363 0.802435
O O7 0.500000 0.152301 0.500000
O O8 0.750000 0.250000 0.500000
O O9 0.735711 0.088772 0.455020
O O10 0.500000 0.149218 0.053563
O O11 0.750000 0.250000 0.050161
O O12 0.749056 0.104963 0.098732
O O13 0.728651 0.107236 0.000000
O O14 0.000000 0.500000 0.425387
O O15 0.750000 0.750000 0.147202
O O16 0.000000 0.851042 0.142725
#
# Coordination Sequence:
#
# PCOD9491950 Si02
#       6
#     8  16   8  16   8  16
#     4  11  22  37  58  84 113 149 190 231 278 328
#     4  10  21  37  55  78 108 144 186 232 281 333
#     4   9  17  35  60  84 114 151 187 225 268 316
#     4   9  15  21  32  54  85 119 156 202 257 316
#     4   8  18  36  56  80 114 151 185 223 270 323
#     4   9  16  26  42  62  88 124 166 212 262 318
#
# _framework density 19.747610999999999
#
# number of rings (size 3 to 8) (size 9 to 14) (size 15 to 20)
#    0.000    2.667    0.000    4.333    0.000    4.889 
#    0.000    5.556    0.000    0.000    0.000    0.778 
#    0.000    6.222    0.000    0.000    0.000    0.444 
#
# Total GULP energy -200752.788527 kJ/mol
# GULP energy per Si atom -5576.466348 kJ/mol
# Density = 1.970266 g / cm^3
# Si number density = 19.747611 Si / 1000 Ang^3
#
#
#
# Elastic Constant Matrix: (Units=GPa)
#
#
# Indices 1 2 3 4 5 6 
#
# 1 52.9844 23.9309 57.9177 0.0000 0.0000 0.0000
# 2 23.9309 121.2609 84.5954 0.0000 0.0000 0.0000
# 3 57.9177 84.5954 247.9403 0.0000 0.0000 0.0000
# 4 0.0000 0.0000 0.0000 26.3289 0.0000 0.0000
# 5 0.0000 0.0000 0.0000 0.0000 26.1636 0.0000
# 6 0.0000 0.0000 0.0000 0.0000 0.0000 17.8414
#
#
#
# Elastic Compliance Matrix: (Units=1/GPa)
#
#
# Indices 1 2 3 4 5 6 
#
# 1 0.025467 -0.001149 -0.005557 0.000000 0.000000 0.000000
# 2 -0.001149 0.010875 -0.003442 0.000000 0.000000 0.000000
# 3 -0.005557 -0.003442 0.006506 0.000000 0.000000 0.000000
# 4 0.000000 0.000000 0.000000 0.037981 0.000000 0.000000
# 5 0.000000 0.000000 0.000000 0.000000 0.038221 0.000000
# 6 0.000000 0.000000 0.000000 0.000000 0.000000 0.056049
#
#
# Mechanical properties :
#
#
# Convention : Reuss Voigt Hill
#
# Bulk Modulus (GPa) = 44.34376 83.89705 64.12040
# Shear Modulus (GPa) = 24.64129 31.11623 27.87876
#
# Velocity S-wave (km/s) = 3.53627 3.97381 3.76141
# Velocity P-wave (km/s) = 6.25920 7.97695 7.16971
#
# Compressibility (1/GPa) = 0.02255109
#
# Stress axis : x y z
#
# Youngs Moduli (GPa) = 39.26697 91.95691 153.71345
#
# Poissons Ratio (x) = 0.10568 0.85415
# Poissons Ratio (y) = 0.04513 0.52906
# Poissons Ratio (z) = 0.21820 0.31651
#
# Static dielectric constant tensor:
#      x y z
#    x 1.662140 0.000000 0.000000 
#    y 0.000000 1.825520 0.000000 
#    z 0.000000 0.000000 1.736270 
# 
# From -- ./inp_files/72595.got.cif
#   From: 2010.05.17/outbox.cif.g08.bks.cpg/sg65_37_cif.got.tgz:72595.got - 2010.06.03 17:01:31.
