data_PCOD9491129
_publ_section_title
;
Structure prediction by ZEFSAII (Michael W. Deem and Ramdas Pophale) SiO2 
 PCOD9491129
Probable space group: C M M M
;
_chemical_formula_sum "Si O2"
_cell_formula_units_Z 72
_cell_length_a 21.563479
_cell_length_b 7.487284
_cell_length_c 20.941823
_cell_angle_alpha 90.000000
_cell_angle_beta 90.000000
_cell_angle_gamma 90.000000
_cell_volume 3381.096931
_symmetry_space_group_name_H-M "C M M M"
_symmetry_group_IT_number 65
_symmetry_cell_setting 'orthorhombic'
loop_
_space_group_symop_operation_xyz
x,y,z
-x,-y,z
x,-y,-z
-x,y,-z
-x,-y,-z
x,y,-z
-x,y,z
x,-y,z
1/2+x,1/2+y,z
1/2-x,1/2-y,z
1/2+x,1/2-y,-z
1/2-x,1/2+y,-z
1/2-x,1/2-y,-z
1/2+x,1/2+y,-z
1/2-x,1/2+y,z
1/2+x,1/2-y,z
loop_
_atom_site_type_symbol
_atom_site_label
_atom_site_fract_x
_atom_site_fract_y
_atom_site_fract_z
Si Si1 0.072690 0.714993 0.068537
Si Si2 0.136661 0.781001 0.427801
Si Si3 0.500000 0.299868 0.577117
Si Si4 0.317613 0.713721 0.296296
Si Si5 0.429241 0.290301 0.789436
O O1 0.075390 0.500000 0.068952
O O2 0.094917 0.776075 0.137578
O O3 0.000000 0.766947 0.067818
O O4 0.099631 0.775612 0.000000
O O5 0.151885 0.722698 0.500000
O O6 0.066836 0.719848 0.409061
O O7 0.179331 0.722218 0.369736
O O8 0.134710 0.000000 0.429960
O O9 0.500000 0.500000 0.605523
O O10 0.500000 0.314840 0.500000
O O11 0.324114 0.500000 0.298259
O O12 0.250000 0.750000 0.268204
O O13 0.376472 0.784809 0.256955
O O14 0.500000 0.215791 0.785070
O O15 0.434871 0.500000 0.774924
#
# Coordination Sequence:
#
# PCOD9491129 Si02
#       5
#    16  16   8  16  16
#     4   8  14  26  46  73 102 128 155 190 233 282
#     4   8  14  25  43  67  92 119 155 199 244 286
#     4   7  10  18  36  64  91 111 138 185 240 282
#     4  10  21  34  48  68  97 130 162 199 243 289
#     4   9  18  31  48  72  99 127 160 199 241 281
#
# _framework density 21.294865000000001
#
# number of rings (size 3 to 8) (size 9 to 14) (size 15 to 20)
#    0.000    3.444    0.000    2.000    1.556    1.778 
#    0.000    2.222    0.000    0.667    0.000    0.000 
#    0.000    2.667    0.000    0.000    0.000    0.000 
#
# Total GULP energy -200430.125961 kJ/mol
# GULP energy per Si atom -5567.503499 kJ/mol
# Density = 2.124640 g / cm^3
# Si number density = 21.294865 Si / 1000 Ang^3
#
#
#
# Elastic Constant Matrix: (Units=GPa)
#
#
# Indices 1 2 3 4 5 6 
#
# 1 101.3087 1.3384 71.6852 0.0000 0.0000 0.0000
# 2 1.3384 56.4457 3.6073 0.0000 0.0000 0.0000
# 3 71.6852 3.6073 141.6986 0.0000 0.0000 0.0000
# 4 0.0000 0.0000 0.0000 34.3717 0.0000 0.0000
# 5 0.0000 0.0000 0.0000 0.0000 4.2537 0.0000
# 6 0.0000 0.0000 0.0000 0.0000 0.0000 5.2859
#
#
#
# Elastic Compliance Matrix: (Units=1/GPa)
#
#
# Indices 1 2 3 4 5 6 
#
# 1 0.015375 0.000133 -0.007782 0.000000 0.000000 0.000000
# 2 0.000133 0.017746 -0.000519 0.000000 0.000000 0.000000
# 3 -0.007782 -0.000519 0.011007 0.000000 0.000000 0.000000
# 4 0.000000 0.000000 0.000000 0.029094 0.000000 0.000000
# 5 0.000000 0.000000 0.000000 0.000000 0.235089 0.000000
# 6 0.000000 0.000000 0.000000 0.000000 0.000000 0.189183
#
#
# Mechanical properties :
#
#
# Convention : Reuss Voigt Hill
#
# Bulk Modulus (GPa) = 35.98046 50.30164 43.14105
# Shear Modulus (GPa) = 9.55850 23.63708 16.59779
#
# Velocity S-wave (km/s) = 2.12094 3.33526 2.79485
# Velocity P-wave (km/s) = 4.78862 6.20522 5.54236
#
# Compressibility (1/GPa) = 0.02779286
#
# Stress axis : x y z
#
# Youngs Moduli (GPa) = 65.03895 56.35025 90.84927
#
# Poissons Ratio (x) = -0.00748 0.70697
# Poissons Ratio (y) = -0.00863 0.04714
# Poissons Ratio (z) = 0.50612 0.02924
#
# Static dielectric constant tensor:
#      x y z
#    x 1.768110 0.000000 0.000000 
#    y 0.000000 1.852340 0.000000 
#    z 0.000000 0.000000 1.814030 
# 
# From -- ./inp_files/64338.got.cif
#   From: 2010.05.17/outbox.cif.g08.bks.cpg/sg65_33_cif.got.tgz:64338.got - 2010.06.03 17:01:31.
