data_PCOD9491788
_publ_section_title
;
Structure prediction by ZEFSAII (Michael W. Deem and Ramdas Pophale) SiO2 
 PCOD9491788
Probable space group: C M M M
;
_chemical_formula_sum "Si O2"
_cell_formula_units_Z 90
_cell_length_a 7.545787
_cell_length_b 23.469893
_cell_length_c 23.857268
_cell_angle_alpha 90.000000
_cell_angle_beta 90.000000
_cell_angle_gamma 90.000000
_cell_volume 4225.093856
_symmetry_space_group_name_H-M "C M M M"
_symmetry_group_IT_number 65
_symmetry_cell_setting 'orthorhombic'
loop_
_space_group_symop_operation_xyz
x,y,z
-x,-y,z
x,-y,-z
-x,y,-z
-x,-y,-z
x,y,-z
-x,y,z
x,-y,z
1/2+x,1/2+y,z
1/2-x,1/2-y,z
1/2+x,1/2-y,-z
1/2-x,1/2+y,-z
1/2-x,1/2-y,-z
1/2+x,1/2+y,-z
1/2-x,1/2+y,z
1/2+x,1/2-y,z
loop_
_atom_site_type_symbol
_atom_site_label
_atom_site_fract_x
_atom_site_fract_y
_atom_site_fract_z
Si Si1 0.212615 0.316036 0.168962
Si Si2 0.211281 0.000000 0.748861
Si Si3 0.787693 0.000000 0.877854
Si Si4 0.781878 0.605399 0.500000
Si Si5 0.788411 0.683266 0.393781
Si Si6 0.000000 0.000000 0.500000
Si Si7 0.790336 0.381309 0.062740
Si Si8 0.210071 0.625471 0.281084
O O1 0.250000 0.250000 0.177115
O O2 0.284177 0.338868 0.109799
O O3 0.283123 0.351454 0.221998
O O4 0.000000 0.324279 0.167442
O O5 0.266578 0.057671 0.717953
O O6 0.279393 0.000000 0.813432
O O7 0.000000 0.000000 0.751723
O O8 0.729708 0.055918 0.911210
O O9 0.000000 0.000000 0.875728
O O10 0.735836 0.643886 0.445761
O O11 0.658269 0.549965 0.500000
O O12 0.000000 0.594830 0.500000
O O13 0.750000 0.750000 0.400958
O O14 0.716247 0.658079 0.335162
O O15 0.000000 0.678407 0.391189
O O16 0.000000 0.369869 0.058132
O O17 0.715211 0.377651 0.000000
O O18 0.000000 0.636999 0.279884
#
# Coordination Sequence:
#
# PCOD9491788 Si02
#       8
#    16   8   8   8  16   2  16  16
#     4  10  21  36  56  80 111 148 191 241 294 356
#     4  11  23  37  57  87 119 154 196 249 303 368
#     4  11  22  36  56  83 113 142 183 238 298 353
#     4  10  24  46  69 102 142 183 228 280 331 387
#     4  10  22  40  67  98 133 171 216 269 320 380
#     4  12  26  44  76 102 140 192 234 274 334 402
#     4  10  21  37  57  79 105 144 189 231 286 358
#     4  10  21  39  61  88 119 162 204 245 309 368
#
# _framework density 21.301302
#
# number of rings (size 3 to 8) (size 9 to 14) (size 15 to 20)
#    0.000    1.778    1.778    1.733    1.244    5.333 
#    1.600    2.667    0.000    0.000    0.000    0.000 
#    0.000    0.000    0.000    0.000    0.000    0.000 
#
# Total GULP energy -251110.553166 kJ/mol
# GULP energy per Si atom -5580.234515 kJ/mol
# Density = 2.125282 g / cm^3
# Si number density = 21.301302 Si / 1000 Ang^3
#
#
#
# Elastic Constant Matrix: (Units=GPa)
#
#
# Indices 1 2 3 4 5 6 
#
# 1 65.4577 3.7153 32.3452 0.0000 0.0000 0.0000
# 2 3.7153 168.6630 77.2895 0.0000 0.0000 0.0000
# 3 32.3452 77.2895 139.4662 0.0000 0.0000 0.0000
# 4 0.0000 0.0000 0.0000 12.3647 0.0000 0.0000
# 5 0.0000 0.0000 0.0000 0.0000 -1.6433 0.0000
# 6 0.0000 0.0000 0.0000 0.0000 0.0000-1672.6287
#
#
#
# Elastic Compliance Matrix: (Units=1/GPa)
#
#
# Indices 1 2 3 4 5 6 
#
# 1 0.017746 0.002004 -0.005226 0.000000 0.000000 0.000000
# 2 0.002004 0.008173 -0.004994 0.000000 0.000000 0.000000
# 3 -0.005226 -0.004994 0.011150 0.000000 0.000000 0.000000
# 4 0.000000 0.000000 0.000000 0.080875 0.000000 0.000000
# 5 0.000000 0.000000 0.000000 0.000000 -0.608516 0.000000
# 6 0.000000 0.000000 0.000000 0.000000 0.000000 -0.000598
#
#
# Mechanical properties :
#
#
# Convention : Reuss Voigt Hill
#
# Bulk Modulus (GPa) = 48.45858 66.69853 57.57855
# Shear Modulus (GPa) = -10.68702 -315.03234 -162.85968
#
# Velocity S-wave (km/s) = -2.24231 -12.17434 -8.75336
# Velocity P-wave (km/s) = 4.01180 12.89339 8.66444
#
# Compressibility (1/GPa) = 0.02063618
#
# Stress axis : x y z
#
# Youngs Moduli (GPa) = 56.35141 122.34665 89.68569
#
# Poissons Ratio (x) = -0.24518 0.46872
# Poissons Ratio (y) = -0.11293 0.44792
# Poissons Ratio (z) = 0.29450 0.61104
#
# Static dielectric constant tensor:
#      x y z
#    x 1.612440 0.000000 0.000000 
#    y 0.000000 1.716690 0.000000 
#    z 0.000000 0.000000 1.798100 
# 
# From -- ./inp_files/67728.got.cif
#   From: 2010.05.17/outbox.cif.g08.bks.cpg/sg65_34_cif.got.tgz:67728.got - 2010.06.03 17:01:31.
