data_PCOD9491628
_publ_section_title
;
Structure prediction by ZEFSAII (Michael W. Deem and Ramdas Pophale) SiO2 
 PCOD9491628
Probable space group: C M M M
;
_chemical_formula_sum "Si O2"
_cell_formula_units_Z 96
_cell_length_a 7.975191
_cell_length_b 19.262349
_cell_length_c 31.832492
_cell_angle_alpha 90.000000
_cell_angle_beta 90.000000
_cell_angle_gamma 90.000000
_cell_volume 4890.136464
_symmetry_space_group_name_H-M "C M M M"
_symmetry_group_IT_number 65
_symmetry_cell_setting 'orthorhombic'
loop_
_space_group_symop_operation_xyz
x,y,z
-x,-y,z
x,-y,-z
-x,y,-z
-x,-y,-z
x,y,-z
-x,y,z
x,-y,z
1/2+x,1/2+y,z
1/2-x,1/2-y,z
1/2+x,1/2-y,-z
1/2-x,1/2+y,-z
1/2-x,1/2-y,-z
1/2+x,1/2+y,-z
1/2-x,1/2+y,z
1/2+x,1/2-y,z
loop_
_atom_site_type_symbol
_atom_site_label
_atom_site_fract_x
_atom_site_fract_y
_atom_site_fract_z
Si Si1 0.201795 0.579851 0.782433
Si Si2 0.797613 0.830241 0.953430
Si Si3 0.299707 0.671834 0.547743
Si Si4 0.702646 0.830447 0.296480
Si Si5 0.202395 0.920478 0.124593
Si Si6 0.200959 0.578784 0.624885
O O1 0.263160 0.500000 0.777467
O O2 0.262661 0.629995 0.745481
O O3 0.247986 0.604740 0.829089
O O4 0.000000 0.577403 0.779802
O O5 0.750000 0.750000 0.948200
O O6 0.734674 0.875056 0.914301
O O7 0.000000 0.834991 0.953558
O O8 0.738773 0.852796 0.000000
O O9 0.236057 0.661032 0.500000
O O10 0.500000 0.668378 0.546834
O O11 0.250000 0.750000 0.560700
O O12 0.236720 0.615971 0.580876
O O13 0.500000 0.833568 0.296590
O O14 0.750000 0.750000 0.297629
O O15 0.764614 0.872785 0.337219
O O16 0.000000 0.921053 0.122916
O O17 0.261835 0.000000 0.120862
O O18 0.266620 0.500000 0.626717
O O19 0.000000 0.574935 0.629663
#
# Coordination Sequence:
#
# PCOD9491628 Si02
#       6
#    16  16  16  16  16  16
#     4   9  18  34  54  73  97 131 167 202 245 298
#     4   9  18  32  49  69  95 128 163 200 244 292
#     4  10  21  37  57  81 110 143 178 217 261 309
#     4  10  21  36  54  77 104 134 170 211 254 302
#     4   9  18  32  50  73  99 126 160 203 247 292
#     4  10  21  37  57  80 107 140 177 217 261 309
#
# _framework density 19.631353000000001
#
# number of rings (size 3 to 8) (size 9 to 14) (size 15 to 20)
#    0.000    2.500    0.000    1.500    0.000    8.000 
#    0.000    6.667    0.000    3.000    0.000    4.667 
#    0.000    0.000    0.000    0.000    0.000    0.000 
#
# Total GULP energy -267871.778027 kJ/mol
# GULP energy per Si atom -5580.662042 kJ/mol
# Density = 1.958667 g / cm^3
# Si number density = 19.631353 Si / 1000 Ang^3
#
#
#
# Elastic Constant Matrix: (Units=GPa)
#
#
# Indices 1 2 3 4 5 6 
#
# 1 15.0591 7.2041 7.9970 0.0000 0.0000 0.0000
# 2 7.2041 141.2938 118.6253 0.0000 0.0000 0.0000
# 3 7.9970 118.6253 170.8945 0.0000 0.0000 0.0000
# 4 0.0000 0.0000 0.0000 44.4720 0.0000 0.0000
# 5 0.0000 0.0000 0.0000 0.0000 25.7910 0.0000
# 6 0.0000 0.0000 0.0000 0.0000 0.0000 25.4369
#
#
#
# Elastic Compliance Matrix: (Units=1/GPa)
#
#
# Indices 1 2 3 4 5 6 
#
# 1 0.068313 -0.001916 -0.001867 0.000000 0.000000 0.000000
# 2 -0.001916 0.017017 -0.011723 0.000000 0.000000 0.000000
# 3 -0.001867 -0.011723 0.014076 0.000000 0.000000 0.000000
# 4 0.000000 0.000000 0.000000 0.022486 0.000000 0.000000
# 5 0.000000 0.000000 0.000000 0.000000 0.038773 0.000000
# 6 0.000000 0.000000 0.000000 0.000000 0.000000 0.039313
#
#
# Mechanical properties :
#
#
# Convention : Reuss Voigt Hill
#
# Bulk Modulus (GPa) = 14.62083 66.10005 40.36044
# Shear Modulus (GPa) = 19.70155 32.03471 25.86813
#
# Velocity S-wave (km/s) = 3.17136 4.04395 3.63394
# Velocity P-wave (km/s) = 4.56880 7.45309 6.18152
#
# Compressibility (1/GPa) = 0.06839555
#
# Stress axis : x y z
#
# Youngs Moduli (GPa) = 14.63853 58.76482 71.04250
#
# Poissons Ratio (x) = 0.11257 0.13264
# Poissons Ratio (y) = 0.02804 0.83280
# Poissons Ratio (z) = 0.02733 0.68888
#
# Static dielectric constant tensor:
#      x y z
#    x 1.710340 0.000000 0.000000 
#    y 0.000000 1.659500 0.000000 
#    z 0.000000 0.000000 1.692840 
# 
# From -- ./inp_files/73098.got.cif
#   From: 2010.05.17/outbox.cif.g08.bks.cpg/sg65_37_cif.got.tgz:73098.got - 2010.06.03 17:01:31.
