data_PCOD9491347
_publ_section_title
;
Structure prediction by ZEFSAII (Michael W. Deem and Ramdas Pophale) SiO2 
 PCOD9491347
Probable space group: C M M M
;
_chemical_formula_sum "Si O2"
_cell_formula_units_Z 72
_cell_length_a 15.716384
_cell_length_b 29.702044
_cell_length_c 8.518198
_cell_angle_alpha 90.000000
_cell_angle_beta 90.000000
_cell_angle_gamma 90.000000
_cell_volume 3976.369183
_symmetry_space_group_name_H-M "C M M M"
_symmetry_group_IT_number 65
_symmetry_cell_setting 'orthorhombic'
loop_
_space_group_symop_operation_xyz
x,y,z
-x,-y,z
x,-y,-z
-x,y,-z
-x,-y,-z
x,y,-z
-x,y,z
x,-y,z
1/2+x,1/2+y,z
1/2-x,1/2-y,z
1/2+x,1/2-y,-z
1/2-x,1/2+y,-z
1/2-x,1/2-y,-z
1/2+x,1/2+y,-z
1/2-x,1/2+y,z
1/2+x,1/2-y,z
loop_
_atom_site_type_symbol
_atom_site_label
_atom_site_fract_x
_atom_site_fract_y
_atom_site_fract_z
Si Si1 0.186382 0.948618 0.189693
Si Si2 0.097029 0.192519 0.186994
Si Si3 0.500000 0.445345 0.178396
Si Si4 0.402228 0.792907 0.688482
Si Si5 0.756971 0.361504 0.313393
O O1 0.252583 0.911290 0.242287
O O2 0.091640 0.934584 0.250149
O O3 0.203882 0.000000 0.239731
O O4 0.180837 0.948888 0.000000
O O5 0.111626 0.244809 0.230211
O O6 0.169781 0.163411 0.266937
O O7 0.000000 0.181073 0.236531
O O8 0.102352 0.186460 0.000000
O O9 0.500000 0.500000 0.167297
O O10 0.500000 0.426787 0.000000
O O11 0.392234 0.786402 0.500000
O O12 0.500000 0.806517 0.717651
O O13 0.334917 0.830212 0.741450
O O14 0.762759 0.365147 0.500000
#
# Coordination Sequence:
#
# PCOD9491347 Si02
#       5
#    16  16   8  16  16
#     4   9  18  33  52  73 100 135 172 209 250 297
#     4  10  21  35  52  76 106 138 170 205 247 300
#     4   7  12  26  47  67  89 123 163 197 233 283
#     4   9  19  37  56  73  99 135 172 211 257 304
#     4  11  22  33  51  78 105 134 169 211 256 302
#
# _framework density 18.106971000000001
#
# number of rings (size 3 to 8) (size 9 to 14) (size 15 to 20)
#    0.000    2.556    0.000    3.333    1.556    6.222 
#    0.000    0.000    0.000    2.667    0.000    4.667 
#    0.000    0.000    0.000    0.000    0.000    0.000 
#
# Total GULP energy -200834.834356 kJ/mol
# GULP energy per Si atom -5578.745399 kJ/mol
# Density = 1.806576 g / cm^3
# Si number density = 18.106971 Si / 1000 Ang^3
#
#
#
# Elastic Constant Matrix: (Units=GPa)
#
#
# Indices 1 2 3 4 5 6 
#
# 1 55.0098 50.7282 9.4966 0.0000 0.0000 0.0000
# 2 50.7282 87.6204 10.4475 0.0000 0.0000 0.0000
# 3 9.4966 10.4475 10.4550 0.0000 0.0000 0.0000
# 4 0.0000 0.0000 0.0000 28.4876 0.0000 0.0000
# 5 0.0000 0.0000 0.0000 0.0000 18.8467 0.0000
# 6 0.0000 0.0000 0.0000 0.0000 0.0000 28.7419
#
#
#
# Elastic Compliance Matrix: (Units=1/GPa)
#
#
# Indices 1 2 3 4 5 6 
#
# 1 0.041069 -0.021943 -0.015376 0.000000 0.000000 0.000000
# 2 -0.021943 0.024681 -0.004732 0.000000 0.000000 0.000000
# 3 -0.015376 -0.004732 0.114343 0.000000 0.000000 0.000000
# 4 0.000000 0.000000 0.000000 0.035103 0.000000 0.000000
# 5 0.000000 0.000000 0.000000 0.000000 0.053060 0.000000
# 6 0.000000 0.000000 0.000000 0.000000 0.000000 0.034792
#
#
# Mechanical properties :
#
#
# Convention : Reuss Voigt Hill
#
# Bulk Modulus (GPa) = 10.41775 32.71443 21.56609
# Shear Modulus (GPa) = 11.92899 20.70943 16.31921
#
# Velocity S-wave (km/s) = 2.56951 3.38557 3.00537
# Velocity P-wave (km/s) = 3.81695 5.77835 4.89686
#
# Compressibility (1/GPa) = 0.09598998
#
# Stress axis : x y z
#
# Youngs Moduli (GPa) = 24.34953 40.51648 8.74564
#
# Poissons Ratio (x) = 0.88907 0.13447
# Poissons Ratio (y) = 0.53431 0.04138
# Poissons Ratio (z) = 0.37440 0.19171
#
# Static dielectric constant tensor:
#      x y z
#    x 1.632390 0.000000 0.000000 
#    y 0.000000 1.626840 0.000000 
#    z 0.000000 0.000000 1.624550 
# 
# From -- ./inp_files/7642.got.cif
#   From: 2010.05.17/outbox.cif.g08.bks.cpg/sg65_4_cif.got.tgz:7642.got - 2010.06.03 17:01:31.
