data_PCOD9491998
_publ_section_title
;
Structure prediction by ZEFSAII (Michael W. Deem and Ramdas Pophale) SiO2 
 PCOD9491998
Probable space group: C M M M
;
_chemical_formula_sum "Si O2"
_cell_formula_units_Z 88
_cell_length_a 7.717729
_cell_length_b 19.192369
_cell_length_c 29.174756
_cell_angle_alpha 90.000000
_cell_angle_beta 90.000000
_cell_angle_gamma 90.000000
_cell_volume 4321.408703
_symmetry_space_group_name_H-M "C M M M"
_symmetry_group_IT_number 65
_symmetry_cell_setting 'orthorhombic'
loop_
_space_group_symop_operation_xyz
x,y,z
-x,-y,z
x,-y,-z
-x,y,-z
-x,-y,-z
x,y,-z
-x,y,z
x,-y,z
1/2+x,1/2+y,z
1/2-x,1/2-y,z
1/2+x,1/2-y,-z
1/2-x,1/2+y,-z
1/2-x,1/2-y,-z
1/2+x,1/2+y,-z
1/2-x,1/2+y,z
1/2+x,1/2-y,z
loop_
_atom_site_type_symbol
_atom_site_label
_atom_site_fract_x
_atom_site_fract_y
_atom_site_fract_z
Si Si1 0.293252 0.421215 0.411054
Si Si2 0.295686 0.168288 0.500000
Si Si3 0.291141 0.330395 0.326859
Si Si4 0.791633 0.169329 0.948683
Si Si5 0.712564 0.419872 0.137656
Si Si6 0.708248 0.330218 0.223630
O O1 0.500000 0.426943 0.405062
O O2 0.225269 0.500000 0.417331
O O3 0.267053 0.372442 0.455013
O O4 0.223889 0.382228 0.365839
O O5 0.500000 0.163688 0.500000
O O6 0.250000 0.250000 0.500000
O O7 0.500000 0.336112 0.325839
O O8 0.250000 0.250000 0.338128
O O9 0.226393 0.344811 0.275202
O O10 0.750000 0.250000 0.939214
O O11 0.728082 0.120670 0.907777
O O12 0.000000 0.162780 0.949852
O O13 0.726251 0.152601 0.000000
O O14 0.500000 0.418241 0.137675
O O15 0.765474 0.500000 0.137330
O O16 0.771815 0.380225 0.183445
O O17 0.500000 0.336835 0.225055
O O18 0.750000 0.250000 0.212783
#
# Coordination Sequence:
#
# PCOD9491998 Si02
#       6
#    16   8  16  16  16  16
#     4  10  21  37  56  79 108 138 167 203 249 298
#     4  12  25  40  59  81 105 135 173 212 249 292
#     4   9  18  32  51  75 100 129 165 203 243 288
#     4   9  17  29  46  67  90 119 156 196 237 283
#     4   9  17  28  44  68  95 122 155 197 242 286
#     4   9  17  30  49  71  95 125 162 202 241 284
#
# _framework density 20.363731000000001
#
# number of rings (size 3 to 8) (size 9 to 14) (size 15 to 20)
#    0.000    2.545    0.000    2.182    0.000    4.727 
#    0.000    5.455    0.000    2.182    0.000    7.636 
#    0.000    0.000    0.000    0.000    0.000    0.000 
#
# Total GULP energy -245607.010902 kJ/mol
# GULP energy per Si atom -5581.977520 kJ/mol
# Density = 2.031738 g / cm^3
# Si number density = 20.363731 Si / 1000 Ang^3
#
#
#
# Elastic Constant Matrix: (Units=GPa)
#
#
# Indices 1 2 3 4 5 6 
#
# 1 33.6946 0.9114 4.5865 0.0000 0.0000 0.0000
# 2 0.9114 186.4817 155.2508 0.0000 0.0000 0.0000
# 3 4.5865 155.2508 191.7956 0.0000 0.0000 0.0000
# 4 0.0000 0.0000 0.0000 -12.6851 0.0000 0.0000
# 5 0.0000 0.0000 0.0000 0.0000 -29.5072 0.0000
# 6 0.0000 0.0000 0.0000 0.0000 0.0000 22.2390
#
#
#
# Elastic Compliance Matrix: (Units=1/GPa)
#
#
# Indices 1 2 3 4 5 6 
#
# 1 0.029890 0.001377 -0.001829 0.000000 0.000000 0.000000
# 2 0.001377 0.016507 -0.013395 0.000000 0.000000 0.000000
# 3 -0.001829 -0.013395 0.016100 0.000000 0.000000 0.000000
# 4 0.000000 0.000000 0.000000 -0.078833 0.000000 0.000000
# 5 0.000000 0.000000 0.000000 0.000000 -0.033890 0.000000
# 6 0.000000 0.000000 0.000000 0.000000 0.000000 0.044966
#
#
# Mechanical properties :
#
#
# Convention : Reuss Voigt Hill
#
# Bulk Modulus (GPa) = 28.73316 81.49657 55.11486
# Shear Modulus (GPa) = 146.89859 12.75756 79.82807
#
# Velocity S-wave (km/s) = 8.50259 2.50568 6.26787
# Velocity P-wave (km/s) = 10.51345 6.96266 8.91659
#
# Compressibility (1/GPa) = 0.03480299
#
# Stress axis : x y z
#
# Youngs Moduli (GPa) = 33.45588 60.57887 62.11050
#
# Poissons Ratio (x) = -0.08341 0.11362
# Poissons Ratio (y) = -0.04606 0.83197
# Poissons Ratio (z) = 0.06120 0.81145
#
# Static dielectric constant tensor:
#      x y z
#    x 1.750420 0.000000 0.000000 
#    y 0.000000 1.668570 0.000000 
#    z 0.000000 0.000000 1.775250 
# 
# From -- ./inp_files/76604.got.cif
#   From: 2010.05.17/outbox.cif.g08.bks.cpg/sg65_39_cif.got.tgz:76604.got - 2010.06.03 17:01:31.
