data_PCOD9491608
_publ_section_title
;
Structure prediction by ZEFSAII (Michael W. Deem and Ramdas Pophale) SiO2 
 PCOD9491608
Probable space group: C M M M
;
_chemical_formula_sum "Si O2"
_cell_formula_units_Z 104
_cell_length_a 8.841753
_cell_length_b 20.177217
_cell_length_c 34.046271
_cell_angle_alpha 90.000000
_cell_angle_beta 90.000000
_cell_angle_gamma 90.000000
_cell_volume 6073.921782
_symmetry_space_group_name_H-M "C M M M"
_symmetry_group_IT_number 65
_symmetry_cell_setting 'orthorhombic'
loop_
_space_group_symop_operation_xyz
x,y,z
-x,-y,z
x,-y,-z
-x,y,-z
-x,-y,-z
x,y,-z
-x,y,z
x,-y,z
1/2+x,1/2+y,z
1/2-x,1/2-y,z
1/2+x,1/2-y,-z
1/2-x,1/2+y,-z
1/2-x,1/2-y,-z
1/2+x,1/2+y,-z
1/2-x,1/2+y,z
1/2+x,1/2-y,z
loop_
_atom_site_type_symbol
_atom_site_label
_atom_site_fract_x
_atom_site_fract_y
_atom_site_fract_z
Si Si1 0.319264 0.077469 0.259899
Si Si2 0.682979 0.323922 0.586204
Si Si3 0.818870 0.822243 0.197510
Si Si4 0.819424 0.178070 0.893261
Si Si5 0.817960 0.577197 0.955086
Si Si6 0.681962 0.676392 0.500000
Si Si7 0.182383 0.923112 0.344767
O O1 0.500000 0.084531 0.259530
O O2 0.246600 0.123922 0.227154
O O3 0.256038 0.094358 0.303067
O O4 0.281938 0.000000 0.252738
O O5 0.500000 0.318858 0.587420
O O6 0.750000 0.250000 0.590709
O O7 0.726056 0.351503 0.542725
O O8 0.730445 0.373339 0.620783
O O9 0.750000 0.750000 0.206255
O O10 0.779543 0.838207 0.152086
O O11 0.000000 0.819353 0.200773
O O12 0.750000 0.250000 0.902130
O O13 0.757052 0.124268 0.923337
O O14 0.000000 0.181863 0.895952
O O15 0.778551 0.500000 0.948688
O O16 0.000000 0.582559 0.952427
O O17 0.774908 0.594540 0.000000
O O18 0.500000 0.679716 0.500000
O O19 0.750000 0.750000 0.500000
O O20 0.000000 0.919276 0.341083
O O21 0.220601 0.000000 0.353710
#
# Coordination Sequence:
#
# PCOD9491608 Si02
#       7
#    16  16  16  16  16   8  16
#     4  10  21  36  54  76 101 132 170 208 249 300
#     4   9  17  29  47  70  94 123 159 198 241 289
#     4  10  21  37  56  78 105 135 168 209 255 302
#     4  10  21  36  55  79 106 137 172 210 254 303
#     4   9  19  36  56  78 106 140 176 214 256 300
#     4   8  14  26  43  65  93 121 153 194 238 286
#     4   9  18  33  50  68  95 130 164 200 245 294
#
# _framework density 17.12238
#
# number of rings (size 3 to 8) (size 9 to 14) (size 15 to 20)
#    0.000    2.615    0.000    1.846    0.000    5.538 
#    0.000    5.769    0.000    2.308    0.000    0.000 
#    0.000    8.615    0.000    0.000    0.000    0.000 
#
# Total GULP energy -289924.503894 kJ/mol
# GULP energy per Si atom -5575.471229 kJ/mol
# Density = 1.708341 g / cm^3
# Si number density = 17.122380 Si / 1000 Ang^3
#
#
#
# Elastic Constant Matrix: (Units=GPa)
#
#
# Indices 1 2 3 4 5 6 
#
# 1 32.3879 44.1405 57.4103 0.0000 0.0000 0.0000
# 2 44.1405 104.6163 120.9765 0.0000 0.0000 0.0000
# 3 57.4103 120.9765 173.8412 0.0000 0.0000 0.0000
# 4 0.0000 0.0000 0.0000 58.2093 0.0000 0.0000
# 5 0.0000 0.0000 0.0000 0.0000 24.0122 0.0000
# 6 0.0000 0.0000 0.0000 0.0000 0.0000 28.9076
#
#
#
# Elastic Compliance Matrix: (Units=1/GPa)
#
#
# Indices 1 2 3 4 5 6 
#
# 1 0.079557 -0.016312 -0.014922 0.000000 0.000000 0.000000
# 2 -0.016312 0.052296 -0.031006 0.000000 0.000000 0.000000
# 3 -0.014922 -0.031006 0.032257 0.000000 0.000000 0.000000
# 4 0.000000 0.000000 0.000000 0.017179 0.000000 0.000000
# 5 0.000000 0.000000 0.000000 0.000000 0.041645 0.000000
# 6 0.000000 0.000000 0.000000 0.000000 0.000000 0.034593
#
#
# Mechanical properties :
#
#
# Convention : Reuss Voigt Hill
#
# Bulk Modulus (GPa) = 25.23277 83.98888 54.61083
# Shear Modulus (GPa) = 12.65126 28.11370 20.38248
#
# Velocity S-wave (km/s) = 2.72117 4.05647 3.45396
# Velocity P-wave (km/s) = 4.96404 8.43199 6.91882
#
# Compressibility (1/GPa) = 0.03963100
#
# Stress axis : x y z
#
# Youngs Moduli (GPa) = 12.56956 19.12204 31.00077
#
# Poissons Ratio (x) = 0.31192 0.46259
# Poissons Ratio (y) = 0.20503 0.96120
# Poissons Ratio (z) = 0.18756 0.59289
#
# Static dielectric constant tensor:
#      x y z
#    x 1.572360 0.000000 0.000000 
#    y 0.000000 1.545980 0.000000 
#    z 0.000000 0.000000 1.584000 
# 
# From -- ./inp_files/75484.got.cif
#   From: 2010.05.17/outbox.cif.g08.bks.cpg/sg65_38_cif.got.tgz:75484.got - 2010.06.03 17:01:31.
