data_PCOD9491504
_publ_section_title
;
Structure prediction by ZEFSAII (Michael W. Deem and Ramdas Pophale) SiO2 
 PCOD9491504
Probable space group: C M M M
;
_chemical_formula_sum "Si O2"
_cell_formula_units_Z 72
_cell_length_a 18.501498
_cell_length_b 7.746205
_cell_length_c 24.568585
_cell_angle_alpha 90.000000
_cell_angle_beta 90.000000
_cell_angle_gamma 90.000000
_cell_volume 3521.081065
_symmetry_space_group_name_H-M "C M M M"
_symmetry_group_IT_number 65
_symmetry_cell_setting 'orthorhombic'
loop_
_space_group_symop_operation_xyz
x,y,z
-x,-y,z
x,-y,-z
-x,y,-z
-x,-y,-z
x,y,-z
-x,y,z
x,-y,z
1/2+x,1/2+y,z
1/2-x,1/2-y,z
1/2+x,1/2-y,-z
1/2-x,1/2+y,-z
1/2-x,1/2-y,-z
1/2+x,1/2+y,-z
1/2-x,1/2+y,z
1/2+x,1/2-y,z
loop_
_atom_site_type_symbol
_atom_site_label
_atom_site_fract_x
_atom_site_fract_y
_atom_site_fract_z
Si Si1 0.081484 0.206472 0.782845
Si Si2 0.165777 0.294830 0.892193
Si Si3 0.665066 0.291635 0.676995
Si Si4 0.916335 0.288348 0.000000
Si Si5 0.664416 0.707793 0.441532
O O1 0.128159 0.236882 0.836641
O O2 0.120888 0.274993 0.728713
O O3 0.000000 0.274527 0.789042
O O4 0.076757 0.000000 0.776234
O O5 0.159632 0.500000 0.893672
O O6 0.250000 0.250000 0.893329
O O7 0.124552 0.227499 0.945719
O O8 0.659500 0.500000 0.676371
O O9 0.750000 0.250000 0.682838
O O10 0.638281 0.228643 0.617484
O O11 0.914985 0.500000 0.000000
O O12 0.000000 0.236316 0.000000
O O13 0.635231 0.772307 0.500000
O O14 0.656451 0.500000 0.441746
O O15 0.750000 0.750000 0.441551
#
# Coordination Sequence:
#
# PCOD9491504 Si02
#       5
#    16  16  16   8  16
#     4  10  21  36  52  72 101 135 170 209 254 302
#     4  11  22  37  58  81 106 135 169 208 249 294
#     4   9  17  29  46  68  94 125 160 201 249 296
#     4   9  19  36  57  81 108 137 168 203 244 290
#     4   8  13  22  38  61  88 117 152 195 241 289
#
# _framework density 20.448266
#
# number of rings (size 3 to 8) (size 9 to 14) (size 15 to 20)
#    0.000    2.556    0.000    2.333    0.000    4.000 
#    0.000    1.667    0.000    4.667    0.000    4.667 
#    0.000    0.000    0.000   38.000    0.000   19.111 
#
# Total GULP energy -200769.065570 kJ/mol
# GULP energy per Si atom -5576.918488 kJ/mol
# Density = 2.040172 g / cm^3
# Si number density = 20.448266 Si / 1000 Ang^3
#
#
#
# Elastic Constant Matrix: (Units=GPa)
#
#
# Indices 1 2 3 4 5 6 
#
# 1 133.0416 0.2796 112.3520 0.0000 0.0000 0.0000
# 2 0.2796 33.3019 6.8308 0.0000 0.0000 0.0000
# 3 112.3520 6.8308 260.0526 0.0000 0.0000 0.0000
# 4 0.0000 0.0000 0.0000 9.7950 0.0000 0.0000
# 5 0.0000 0.0000 0.0000 0.0000 -8.9143 0.0000
# 6 0.0000 0.0000 0.0000 0.0000 0.0000 4.0841
#
#
#
# Elastic Compliance Matrix: (Units=1/GPa)
#
#
# Indices 1 2 3 4 5 6 
#
# 1 0.011864 0.000957 -0.005151 0.000000 0.000000 0.000000
# 2 0.000957 0.030268 -0.001208 0.000000 0.000000 0.000000
# 3 -0.005151 -0.001208 0.006103 0.000000 0.000000 0.000000
# 4 0.000000 0.000000 0.000000 0.102093 0.000000 0.000000
# 5 0.000000 0.000000 0.000000 0.000000 -0.112179 0.000000
# 6 0.000000 0.000000 0.000000 0.000000 0.000000 0.244849
#
#
# Mechanical properties :
#
#
# Convention : Reuss Voigt Hill
#
# Bulk Modulus (GPa) = 26.71654 73.92453 50.32054
# Shear Modulus (GPa) = 16.32497 21.45522 18.89009
#
# Velocity S-wave (km/s) = 2.82858 3.24272 3.04270
# Velocity P-wave (km/s) = 4.87459 7.08878 6.08327
#
# Compressibility (1/GPa) = 0.03742999
#
# Stress axis : x y z
#
# Youngs Moduli (GPa) = 84.28607 33.03805 163.86679
#
# Poissons Ratio (x) = -0.03161 0.84407
# Poissons Ratio (y) = -0.08066 0.19803
# Poissons Ratio (z) = 0.43415 0.03993
#
# Static dielectric constant tensor:
#      x y z
#    x 1.681780 0.000000 0.000000 
#    y 0.000000 1.752920 0.000000 
#    z 0.000000 0.000000 1.773960 
# 
# From -- ./inp_files/67043.got.cif
#   From: 2010.05.17/outbox.cif.g08.bks.cpg/sg65_34_cif.got.tgz:67043.got - 2010.06.03 17:01:31.
