data_PCOD9491999
_publ_section_title
;
Structure prediction by ZEFSAII (Michael W. Deem and Ramdas Pophale) SiO2 
 PCOD9491999
Probable space group: C M M M
;
_chemical_formula_sum "Si O2"
_cell_formula_units_Z 88
_cell_length_a 8.419839
_cell_length_b 21.745432
_cell_length_c 24.515538
_cell_angle_alpha 90.000000
_cell_angle_beta 90.000000
_cell_angle_gamma 90.000000
_cell_volume 4488.624292
_symmetry_space_group_name_H-M "C M M M"
_symmetry_group_IT_number 65
_symmetry_cell_setting 'orthorhombic'
loop_
_space_group_symop_operation_xyz
x,y,z
-x,-y,z
x,-y,-z
-x,y,-z
-x,-y,-z
x,y,-z
-x,y,z
x,-y,z
1/2+x,1/2+y,z
1/2-x,1/2-y,z
1/2+x,1/2-y,-z
1/2-x,1/2+y,-z
1/2-x,1/2-y,-z
1/2+x,1/2+y,-z
1/2-x,1/2+y,z
1/2+x,1/2-y,z
loop_
_atom_site_type_symbol
_atom_site_label
_atom_site_fract_x
_atom_site_fract_y
_atom_site_fract_z
Si Si1 0.306518 0.068552 0.635687
Si Si2 0.306369 0.068171 0.237154
Si Si3 0.308073 0.816907 0.563217
Si Si4 0.679314 0.000000 0.933980
Si Si5 0.811533 0.314887 0.169865
Si Si6 0.688871 0.632893 0.937560
O O1 0.500000 0.068897 0.633859
O O2 0.262577 0.075404 0.699260
O O3 0.251384 0.125641 0.599328
O O4 0.255939 0.000000 0.617368
O O5 0.500000 0.068326 0.234831
O O6 0.247874 0.125667 0.202212
O O7 0.254858 0.000000 0.218368
O O8 0.257805 0.824109 0.500000
O O9 0.500000 0.816716 0.564356
O O10 0.250000 0.750000 0.582500
O O11 0.765366 0.063309 0.920378
O O12 0.500000 0.000000 0.911557
O O13 0.670644 0.000000 0.000000
O O14 0.750000 0.250000 0.191278
O O15 0.764526 0.322992 0.106835
O O16 0.000000 0.315282 0.174200
O O17 0.500000 0.639397 0.936998
O O18 0.745095 0.642485 0.000000
#
# Coordination Sequence:
#
# PCOD9491999 Si02
#       6
#    16  16  16   8  16  16
#     4   8  14  27  48  73 100 129 167 217 264 303
#     4   8  16  32  53  76 100 130 170 215 262 311
#     4   9  17  28  44  70 103 138 174 210 252 302
#     4   9  17  31  53  81 109 137 171 207 246 299
#     4  11  23  37  55  78 106 136 172 216 263 320
#     4  10  21  37  56  79 108 139 172 213 261 311
#
# _framework density 19.605115999999999
#
# number of rings (size 3 to 8) (size 9 to 14) (size 15 to 20)
#    0.000    2.818    0.000    2.455    1.273    3.636 
#    0.000    1.818    0.000    1.636    0.000    7.636 
#    0.000    0.000    0.000    0.000    0.000    0.000 
#
# Total GULP energy -245423.269998 kJ/mol
# GULP energy per Si atom -5577.801591 kJ/mol
# Density = 1.956049 g / cm^3
# Si number density = 19.605116 Si / 1000 Ang^3
#
#
#
# Elastic Constant Matrix: (Units=GPa)
#
#
# Indices 1 2 3 4 5 6 
#
# 1 15.8729 17.2582 8.7645 0.0000 0.0000 0.0000
# 2 17.2582 195.1164 89.0736 0.0000 0.0000 0.0000
# 3 8.7645 89.0736 73.8210 0.0000 0.0000 0.0000
# 4 0.0000 0.0000 0.0000 32.4439 0.0000 0.0000
# 5 0.0000 0.0000 0.0000 0.0000 7.3954 0.0000
# 6 0.0000 0.0000 0.0000 0.0000 0.0000 29.3851
#
#
#
# Elastic Compliance Matrix: (Units=1/GPa)
#
#
# Indices 1 2 3 4 5 6 
#
# 1 0.069819 -0.005324 -0.001865 0.000000 0.000000 0.000000
# 2 -0.005324 0.011816 -0.013626 0.000000 0.000000 0.000000
# 3 -0.001865 -0.013626 0.030209 0.000000 0.000000 0.000000
# 4 0.000000 0.000000 0.000000 0.030822 0.000000 0.000000
# 5 0.000000 0.000000 0.000000 0.000000 0.135219 0.000000
# 6 0.000000 0.000000 0.000000 0.000000 0.000000 0.034031
#
#
# Mechanical properties :
#
#
# Convention : Reuss Voigt Hill
#
# Bulk Modulus (GPa) = 14.24214 57.22255 35.73235
# Shear Modulus (GPa) = 13.26430 25.15914 19.21172
#
# Velocity S-wave (km/s) = 2.60392 3.58620 3.13379
# Velocity P-wave (km/s) = 4.03991 6.81166 5.59998
#
# Compressibility (1/GPa) = 0.07021416
#
# Stress axis : x y z
#
# Youngs Moduli (GPa) = 14.32274 84.62756 33.10280
#
# Poissons Ratio (x) = 0.45056 0.06174
# Poissons Ratio (y) = 0.07626 0.45105
# Poissons Ratio (z) = 0.02672 1.15312
#
# Static dielectric constant tensor:
#      x y z
#    x 1.683740 0.000000 0.000000 
#    y 0.000000 1.697410 0.000000 
#    z 0.000000 0.000000 1.690820 
# 
# From -- ./inp_files/67468.got.cif
#   From: 2010.05.17/outbox.cif.g08.bks.cpg/sg65_34_cif.got.tgz:67468.got - 2010.06.03 17:01:31.
