data_PCOD9491727
_publ_section_title
;
Structure prediction by ZEFSAII (Michael W. Deem and Ramdas Pophale) SiO2 
 PCOD9491727
Probable space group: C M M M
;
_chemical_formula_sum "Si O2"
_cell_formula_units_Z 96
_cell_length_a 19.184653
_cell_length_b 7.948646
_cell_length_c 31.986160
_cell_angle_alpha 90.000000
_cell_angle_beta 90.000000
_cell_angle_gamma 90.000000
_cell_volume 4877.634001
_symmetry_space_group_name_H-M "C M M M"
_symmetry_group_IT_number 65
_symmetry_cell_setting 'orthorhombic'
loop_
_space_group_symop_operation_xyz
x,y,z
-x,-y,z
x,-y,-z
-x,y,-z
-x,-y,-z
x,y,-z
-x,y,z
x,-y,z
1/2+x,1/2+y,z
1/2-x,1/2-y,z
1/2+x,1/2-y,-z
1/2-x,1/2+y,-z
1/2-x,1/2-y,-z
1/2+x,1/2+y,-z
1/2-x,1/2+y,z
1/2+x,1/2-y,z
loop_
_atom_site_type_symbol
_atom_site_label
_atom_site_fract_x
_atom_site_fract_y
_atom_site_fract_z
Si Si1 0.169315 0.703019 0.546278
Si Si2 0.919810 0.202520 0.716831
Si Si3 0.420873 0.202489 0.875642
Si Si4 0.420177 0.203025 0.624338
Si Si5 0.669249 0.700802 0.204770
Si Si6 0.170579 0.296947 0.047336
O O1 0.146399 0.762329 0.500000
O O2 0.164259 0.500000 0.546133
O O3 0.250000 0.750000 0.551243
O O4 0.124955 0.766387 0.585457
O O5 0.894446 0.248116 0.670412
O O6 0.870127 0.266336 0.753700
O O7 0.000000 0.264307 0.721537
O O8 0.922114 0.000000 0.719427
O O9 0.500000 0.266259 0.871053
O O10 0.373436 0.242887 0.835855
O O11 0.382807 0.265523 0.917657
O O12 0.424390 0.000000 0.878819
O O13 0.500000 0.263051 0.620929
O O14 0.420889 0.000000 0.622539
O O15 0.666369 0.500000 0.206035
O O16 0.750000 0.750000 0.203036
O O17 0.166613 0.500000 0.046594
O O18 0.250000 0.250000 0.058312
O O19 0.156747 0.235981 0.000000
#
# Coordination Sequence:
#
# PCOD9491727 Si02
#       6
#    16  16  16  16  16  16
#     4   9  18  32  49  70  98 131 165 202 245 293
#     4   9  19  36  55  74  99 132 167 204 251 305
#     4  10  21  36  55  80 108 139 176 217 261 308
#     4   9  18  32  51  75 100 128 164 205 248 294
#     4  11  23  38  56  78 105 137 174 215 260 310
#     4   9  18  33  53  77 106 140 176 214 257 305
#
# _framework density 19.681673
#
# number of rings (size 3 to 8) (size 9 to 14) (size 15 to 20)
#    0.000    2.500    0.000    1.500    0.000    6.333 
#    0.000    8.333    0.000    0.000    0.000    8.167 
#    0.000    0.000    0.000    0.000    0.000    0.000 
#
# Total GULP energy -267861.989683 kJ/mol
# GULP energy per Si atom -5580.458118 kJ/mol
# Density = 1.963688 g / cm^3
# Si number density = 19.681673 Si / 1000 Ang^3
#
#
#
# Elastic Constant Matrix: (Units=GPa)
#
#
# Indices 1 2 3 4 5 6 
#
# 1 137.5347 6.8100 126.8890 0.0000 0.0000 0.0000
# 2 6.8100 17.9041 9.1796 0.0000 0.0000 0.0000
# 3 126.8890 9.1796 197.7362 0.0000 0.0000 0.0000
# 4 0.0000 0.0000 0.0000 13.8283 0.0000 0.0000
# 5 0.0000 0.0000 0.0000 0.0000 35.3036 0.0000
# 6 0.0000 0.0000 0.0000 0.0000 0.0000 18.7863
#
#
#
# Elastic Compliance Matrix: (Units=1/GPa)
#
#
# Indices 1 2 3 4 5 6 
#
# 1 0.017838 -0.000938 -0.011403 0.000000 0.000000 0.000000
# 2 -0.000938 0.057264 -0.002056 0.000000 0.000000 0.000000
# 3 -0.011403 -0.002056 0.012470 0.000000 0.000000 0.000000
# 4 0.000000 0.000000 0.000000 0.072315 0.000000 0.000000
# 5 0.000000 0.000000 0.000000 0.000000 0.028326 0.000000
# 6 0.000000 0.000000 0.000000 0.000000 0.000000 0.053230
#
#
# Mechanical properties :
#
#
# Convention : Reuss Voigt Hill
#
# Bulk Modulus (GPa) = 17.01350 70.99245 44.00297
# Shear Modulus (GPa) = 17.25139 27.60339 22.42739
#
# Velocity S-wave (km/s) = 2.96382 3.74905 3.37932
# Velocity P-wave (km/s) = 4.51391 7.40872 6.13451
#
# Compressibility (1/GPa) = 0.05877687
#
# Stress axis : x y z
#
# Youngs Moduli (GPa) = 56.06060 17.46289 80.19125
#
# Poissons Ratio (x) = 0.01639 0.91443
# Poissons Ratio (y) = 0.05260 0.16489
# Poissons Ratio (z) = 0.63927 0.03591
#
# Static dielectric constant tensor:
#      x y z
#    x 1.651620 0.000000 0.000000 
#    y 0.000000 1.709590 0.000000 
#    z 0.000000 0.000000 1.695620 
# 
# From -- ./inp_files/73114.got.cif
#   From: 2010.05.17/outbox.cif.g08.bks.cpg/sg65_37_cif.got.tgz:73114.got - 2010.06.03 17:01:31.
