data_PCOD9491793
_publ_section_title
;
Structure prediction by ZEFSAII (Michael W. Deem and Ramdas Pophale) SiO2 
 PCOD9491793
Probable space group: C M M M
;
_chemical_formula_sum "Si O2"
_cell_formula_units_Z 88
_cell_length_a 23.432010
_cell_length_b 21.674928
_cell_length_c 7.488855
_cell_angle_alpha 90.000000
_cell_angle_beta 90.000000
_cell_angle_gamma 90.000000
_cell_volume 3803.493070
_symmetry_space_group_name_H-M "C M M M"
_symmetry_group_IT_number 65
_symmetry_cell_setting 'orthorhombic'
loop_
_space_group_symop_operation_xyz
x,y,z
-x,-y,z
x,-y,-z
-x,y,-z
-x,-y,-z
x,y,-z
-x,y,z
x,-y,z
1/2+x,1/2+y,z
1/2-x,1/2-y,z
1/2+x,1/2-y,-z
1/2-x,1/2+y,-z
1/2-x,1/2-y,-z
1/2+x,1/2+y,-z
1/2-x,1/2+y,z
1/2+x,1/2-y,z
loop_
_atom_site_type_symbol
_atom_site_label
_atom_site_fract_x
_atom_site_fract_y
_atom_site_fract_z
Si Si1 0.565696 0.724749 0.296430
Si Si2 0.813632 0.933603 0.216380
Si Si3 0.265041 0.180589 0.709906
Si Si4 0.561931 0.413366 0.203910
Si Si5 0.612451 0.148025 0.718376
Si Si6 0.500000 0.071872 0.281970
O O1 0.584407 0.712818 0.500000
O O2 0.500000 0.745544 0.302013
O O3 0.567442 0.660520 0.199136
O O4 0.599694 0.781922 0.224282
O O5 0.784824 0.869709 0.272540
O O6 0.878846 0.934744 0.283752
O O7 0.786559 0.000000 0.268479
O O8 0.814957 0.931992 0.000000
O O9 0.276163 0.190986 0.500000
O O10 0.250000 0.250000 0.781587
O O11 0.321621 0.143434 0.776794
O O12 0.500000 0.427188 0.287217
O O13 0.559934 0.434811 0.000000
O O14 0.610258 0.144808 0.500000
O O15 0.559271 0.105180 0.777044
O O16 0.500000 0.074422 0.500000
O O17 0.500000 0.000000 0.230315
#
# Coordination Sequence:
#
# PCOD9491793 Si02
#       6
#    16  16  16  16  16   8
#     4   9  15  26  48  75 104 133 162 203 259 314
#     4  10  22  39  56  76 106 144 184 225 270 323
#     4  10  21  36  56  82 112 144 180 224 274 329
#     4   9  18  32  51  76 103 131 168 215 263 312
#     4   9  16  28  46  71 102 134 168 211 264 315
#     4   9  16  26  42  68 101 133 170 217 262 308
#
# _framework density 23.136626
#
# number of rings (size 3 to 8) (size 9 to 14) (size 15 to 20)
#    0.000    2.636    0.909    1.091    0.000    4.000 
#    0.000    4.545    0.000    0.000    0.000    3.818 
#    0.000    2.909    0.000    0.000    0.000    0.000 
#
# Total GULP energy -245191.001128 kJ/mol
# GULP energy per Si atom -5572.522753 kJ/mol
# Density = 2.308397 g / cm^3
# Si number density = 23.136626 Si / 1000 Ang^3
#
#
#
# Elastic Constant Matrix: (Units=GPa)
#
#
# Indices 1 2 3 4 5 6 
#
# 1 162.8257 82.2966 1.0406 0.0000 0.0000 0.0000
# 2 82.2966 142.6252 -0.9139 0.0000 0.0000 0.0000
# 3 1.0406 -0.9139 61.4167 0.0000 0.0000 0.0000
# 4 0.0000 0.0000 0.0000 -35.9283 0.0000 0.0000
# 5 0.0000 0.0000 0.0000 0.0000 4.9116 0.0000
# 6 0.0000 0.0000 0.0000 0.0000 0.0000 15.3946
#
#
#
# Elastic Compliance Matrix: (Units=1/GPa)
#
#
# Indices 1 2 3 4 5 6 
#
# 1 0.008673 -0.005006 -0.000221 0.000000 0.000000 0.000000
# 2 -0.005006 0.009901 0.000232 0.000000 0.000000 0.000000
# 3 -0.000221 0.000232 0.016289 0.000000 0.000000 0.000000
# 4 0.000000 0.000000 0.000000 -0.027833 0.000000 0.000000
# 5 0.000000 0.000000 0.000000 0.000000 0.203600 0.000000
# 6 0.000000 0.000000 0.000000 0.000000 0.000000 0.064958
#
#
# Mechanical properties :
#
#
# Convention : Reuss Voigt Hill
#
# Bulk Modulus (GPa) = 40.20346 59.07935 49.64141
# Shear Modulus (GPa) = 17.01435 15.83853 16.42644
#
# Velocity S-wave (km/s) = 2.71474 2.61926 2.66743
# Velocity P-wave (km/s) = 5.21926 5.89388 5.56680
#
# Compressibility (1/GPa) = 0.02487348
#
# Stress axis : x y z
#
# Youngs Moduli (GPa) = 115.29937 100.99642 61.38949
#
# Poissons Ratio (x) = 0.50558 0.01359
# Poissons Ratio (y) = 0.57718 -0.01425
# Poissons Ratio (z) = 0.02553 -0.02345
#
# Static dielectric constant tensor:
#      x y z
#    x 1.918010 0.000000 0.000000 
#    y 0.000000 1.837450 0.000000 
#    z 0.000000 0.000000 1.892250 
# 
# From -- ./inp_files/13983.got.cif
#   From: 2010.05.17/outbox.cif.g08.bks.cpg/sg65_7_cif.got.tgz:13983.got - 2010.06.03 17:01:31.
