data_PCOD9491507
_publ_section_title
;
Structure prediction by ZEFSAII (Michael W. Deem and Ramdas Pophale) SiO2 
 PCOD9491507
Probable space group: C M M M
;
_chemical_formula_sum "Si O2"
_cell_formula_units_Z 72
_cell_length_a 8.834974
_cell_length_b 29.461445
_cell_length_c 15.777240
_cell_angle_alpha 90.000000
_cell_angle_beta 90.000000
_cell_angle_gamma 90.000000
_cell_volume 4106.675164
_symmetry_space_group_name_H-M "C M M M"
_symmetry_group_IT_number 65
_symmetry_cell_setting 'orthorhombic'
loop_
_space_group_symop_operation_xyz
x,y,z
-x,-y,z
x,-y,-z
-x,y,-z
-x,-y,-z
x,y,-z
-x,y,z
x,-y,z
1/2+x,1/2+y,z
1/2-x,1/2-y,z
1/2+x,1/2-y,-z
1/2-x,1/2+y,-z
1/2-x,1/2-y,-z
1/2+x,1/2+y,-z
1/2-x,1/2+y,z
1/2+x,1/2-y,z
loop_
_atom_site_type_symbol
_atom_site_label
_atom_site_fract_x
_atom_site_fract_y
_atom_site_fract_z
Si Si1 0.181716 0.800416 0.402720
Si Si2 0.682245 0.799210 0.903470
Si Si3 0.318478 0.861149 0.746755
Si Si4 0.819319 0.052860 0.678582
Si Si5 0.328093 0.945014 0.500000
O O1 0.216618 0.814561 0.500000
O O2 0.250000 0.750000 0.391038
O O3 0.251164 0.833420 0.332693
O O4 0.000000 0.798798 0.393826
O O5 0.500000 0.795805 0.901799
O O6 0.750000 0.750000 0.882797
O O7 0.727356 0.835407 0.832750
O O8 0.728067 0.810836 0.000000
O O9 0.500000 0.861424 0.740690
O O10 0.255961 0.912073 0.742533
O O11 0.759614 0.066803 0.585395
O O12 0.000000 0.056581 0.680398
O O13 0.778484 0.000000 0.692609
O O14 0.500000 0.927357 0.500000
O O15 0.335748 0.000000 0.500000
#
# Coordination Sequence:
#
# PCOD9491507 Si02
#       5
#    16  16  16  16   8
#     4  10  21  36  52  72 104 143 179 216 259 311
#     4   9  19  36  57  82 110 138 171 215 268 321
#     4  11  22  34  54  80 106 139 178 222 267 320
#     4  10  21  36  53  74 104 141 180 224 271 317
#     4   9  17  31  51  73  98 131 174 221 265 309
#
# _framework density 17.532430999999999
#
# number of rings (size 3 to 8) (size 9 to 14) (size 15 to 20)
#    0.000    2.111    0.000    3.000    1.556    7.556 
#    0.000    0.000    0.000    0.667    0.000    4.667 
#    0.000    0.000    0.000    0.000    0.000    0.000 
#
# Total GULP energy -201028.979262 kJ/mol
# GULP energy per Si atom -5584.138313 kJ/mol
# Density = 1.749253 g / cm^3
# Si number density = 17.532431 Si / 1000 Ang^3
#
#
#
# Elastic Constant Matrix: (Units=GPa)
#
#
# Indices 1 2 3 4 5 6 
#
# 1 56.3306 46.0156 46.3469 0.0000 0.0000 0.0000
# 2 46.0156 118.1668 90.0622 0.0000 0.0000 0.0000
# 3 46.3469 90.0622 106.6892 0.0000 0.0000 0.0000
# 4 0.0000 0.0000 0.0000 20.0441 0.0000 0.0000
# 5 0.0000 0.0000 0.0000 0.0000 20.0842 0.0000
# 6 0.0000 0.0000 0.0000 0.0000 0.0000 30.2893
#
#
#
# Elastic Compliance Matrix: (Units=1/GPa)
#
#
# Indices 1 2 3 4 5 6 
#
# 1 0.028514 -0.004663 -0.008450 0.000000 0.000000 0.000000
# 2 -0.004663 0.024493 -0.018650 0.000000 0.000000 0.000000
# 3 -0.008450 -0.018650 0.028787 0.000000 0.000000 0.000000
# 4 0.000000 0.000000 0.000000 0.049890 0.000000 0.000000
# 5 0.000000 0.000000 0.000000 0.000000 0.049790 0.000000
# 6 0.000000 0.000000 0.000000 0.000000 0.000000 0.033015
#
#
# Mechanical properties :
#
#
# Convention : Reuss Voigt Hill
#
# Bulk Modulus (GPa) = 54.74248 71.78179 63.26214
# Shear Modulus (GPa) = 17.59902 20.66765 19.13333
#
# Velocity S-wave (km/s) = 3.17171 3.43713 3.30708
# Velocity P-wave (km/s) = 6.68613 7.53545 7.12346
#
# Compressibility (1/GPa) = 0.01826735
#
# Stress axis : x y z
#
# Youngs Moduli (GPa) = 35.06991 40.82821 34.73730
#
# Poissons Ratio (x) = 0.19039 0.29355
# Poissons Ratio (y) = 0.16354 0.64785
# Poissons Ratio (z) = 0.29636 0.76145
#
# Static dielectric constant tensor:
#      x y z
#    x 1.587700 0.000000 0.000000 
#    y 0.000000 1.604430 0.000000 
#    z 0.000000 0.000000 1.589820 
# 
# From -- ./inp_files/36607.got.cif
#   From: 2010.05.17/outbox.cif.g08.bks.cpg/sg65_19_cif.got.tgz:36607.got - 2010.06.03 17:01:31.
