data_PCOD9491988
_publ_section_title
;
Structure prediction by ZEFSAII (Michael W. Deem and Ramdas Pophale) SiO2 
 PCOD9491988
Probable space group: C M M M
;
_chemical_formula_sum "Si O2"
_cell_formula_units_Z 96
_cell_length_a 22.889181
_cell_length_b 24.459642
_cell_length_c 8.889901
_cell_angle_alpha 90.000000
_cell_angle_beta 90.000000
_cell_angle_gamma 90.000000
_cell_volume 4977.110401
_symmetry_space_group_name_H-M "C M M M"
_symmetry_group_IT_number 65
_symmetry_cell_setting 'orthorhombic'
loop_
_space_group_symop_operation_xyz
x,y,z
-x,-y,z
x,-y,-z
-x,y,-z
-x,-y,-z
x,y,-z
-x,y,z
x,-y,z
1/2+x,1/2+y,z
1/2-x,1/2-y,z
1/2+x,1/2-y,-z
1/2-x,1/2+y,-z
1/2-x,1/2-y,-z
1/2+x,1/2+y,-z
1/2-x,1/2+y,z
1/2+x,1/2-y,z
loop_
_atom_site_type_symbol
_atom_site_label
_atom_site_fract_x
_atom_site_fract_y
_atom_site_fract_z
Si Si1 0.069244 0.562073 0.180728
Si Si2 0.632280 0.833597 0.678221
Si Si3 0.064798 0.115995 0.321198
Si Si4 0.241787 0.165036 0.822659
Si Si5 0.314753 0.437459 0.322316
Si Si6 0.620137 0.721976 0.820810
O O1 0.086511 0.500000 0.226413
O O2 0.105163 0.610758 0.255860
O O3 0.000000 0.568138 0.213539
O O4 0.076078 0.565551 0.000000
O O5 0.627708 0.834179 0.500000
O O6 0.699413 0.827949 0.730059
O O7 0.603044 0.778906 0.745045
O O8 0.065686 0.127506 0.500000
O O9 0.116476 0.072959 0.294310
O O10 0.081437 0.171584 0.236173
O O11 0.000000 0.097050 0.280109
O O12 0.218955 0.104576 0.782722
O O13 0.187441 0.204690 0.783345
O O14 0.253979 0.171428 0.000000
O O15 0.303855 0.424815 0.500000
O O16 0.299058 0.500000 0.295784
O O17 0.616657 0.726913 0.000000
#
# Coordination Sequence:
#
# PCOD9491988 Si02
#       6
#    16  16  16  16  16  16
#     4   9  20  41  65  85 108 140 177 218 263 310
#     4  12  24  36  57  86 112 141 176 215 264 323
#     4   9  18  33  53  78 109 144 182 225 272 320
#     4  10  21  37  56  78 107 143 182 225 271 317
#     4   9  18  33  53  78 109 144 182 225 272 320
#     4  10  21  37  56  78 107 143 182 225 271 317
#
# _framework density 19.2883
#
# number of rings (size 3 to 8) (size 9 to 14) (size 15 to 20)
#    0.000    2.167    0.000    3.500    0.000    7.000 
#    0.000    2.500    0.000    0.000    0.000    4.667 
#    0.000    0.000    0.000    0.000    0.000    0.000 
#
# Total GULP energy -268004.303939 kJ/mol
# GULP energy per Si atom -5583.422999 kJ/mol
# Density = 1.924440 g / cm^3
# Si number density = 19.288300 Si / 1000 Ang^3
#
#
#
# Elastic Constant Matrix: (Units=GPa)
#
#
# Indices 1 2 3 4 5 6 
#
# 1 8.5513 -8.7457 4.5185 0.0000 0.0000 0.0000
# 2 -8.7457 95.7959 27.9154 0.0000 0.0000 0.0000
# 3 4.5185 27.9154 37.9011 0.0000 0.0000 0.0000
# 4 0.0000 0.0000 0.0000 -9.1149 0.0000 0.0000
# 5 0.0000 0.0000 0.0000 0.0000 19.8307 0.0000
# 6 0.0000 0.0000 0.0000 0.0000 0.0000 4.2472
#
#
#
# Elastic Compliance Matrix: (Units=1/GPa)
#
#
# Indices 1 2 3 4 5 6 
#
# 1 0.164608 0.026416 -0.039081 0.000000 0.000000 0.000000
# 2 0.026416 0.017531 -0.016061 0.000000 0.000000 0.000000
# 3 -0.039081 -0.016061 0.042873 0.000000 0.000000 0.000000
# 4 0.000000 0.000000 0.000000 -0.109711 0.000000 0.000000
# 5 0.000000 0.000000 0.000000 0.000000 0.050427 0.000000
# 6 0.000000 0.000000 0.000000 0.000000 0.000000 0.235448
#
#
# Mechanical properties :
#
#
# Convention : Reuss Voigt Hill
#
# Bulk Modulus (GPa) = 5.96798 21.06940 13.51869
# Shear Modulus (GPa) = 9.71852 10.89661 10.30756
#
# Velocity S-wave (km/s) = 2.24711 2.37941 2.31421
# Velocity P-wave (km/s) = 3.13584 4.30069 3.76360
#
# Compressibility (1/GPa) = 0.16756077
#
# Stress axis : x y z
#
# Youngs Moduli (GPa) = 6.07504 57.04218 23.32457
#
# Poissons Ratio (x) = -1.50684 0.91154
# Poissons Ratio (y) = -0.16048 0.37462
# Poissons Ratio (z) = 0.23742 0.91617
#
# Static dielectric constant tensor:
#      x y z
#    x 1.685230 0.000000 0.000000 
#    y 0.000000 1.661710 0.000000 
#    z 0.000000 0.000000 1.642560 
# 
# From -- ./inp_files/14303.got.cif
#   From: 2010.05.17/outbox.cif.g08.bks.cpg/sg65_8_cif.got.tgz:14303.got - 2010.06.03 17:01:31.
