data_PCOD9491004
_publ_section_title
;
Structure prediction by ZEFSAII (Michael W. Deem and Ramdas Pophale) SiO2 
 PCOD9491004
Probable space group: C M M M
;
_chemical_formula_sum "Si O2"
_cell_formula_units_Z 68
_cell_length_a 7.685873
_cell_length_b 21.212446
_cell_length_c 20.181300
_cell_angle_alpha 90.000000
_cell_angle_beta 90.000000
_cell_angle_gamma 90.000000
_cell_volume 3290.281776
_symmetry_space_group_name_H-M "C M M M"
_symmetry_group_IT_number 65
_symmetry_cell_setting 'orthorhombic'
loop_
_space_group_symop_operation_xyz
x,y,z
-x,-y,z
x,-y,-z
-x,y,-z
-x,-y,-z
x,y,-z
-x,y,z
x,-y,z
1/2+x,1/2+y,z
1/2-x,1/2-y,z
1/2+x,1/2-y,-z
1/2-x,1/2+y,-z
1/2-x,1/2-y,-z
1/2+x,1/2+y,-z
1/2-x,1/2+y,z
1/2+x,1/2-y,z
loop_
_atom_site_type_symbol
_atom_site_label
_atom_site_fract_x
_atom_site_fract_y
_atom_site_fract_z
Si Si1 0.208009 0.822781 0.075653
Si Si2 0.692873 0.102996 0.796970
Si Si3 0.712215 0.429662 0.576590
Si Si4 0.500000 0.500000 0.221100
Si Si5 0.792280 0.820874 0.675625
O O1 0.250000 0.750000 0.091664
O O2 0.286153 0.869909 0.129094
O O3 0.000000 0.830329 0.077511
O O4 0.267658 0.834177 0.000000
O O5 0.500000 0.076144 0.788729
O O6 0.846693 0.054767 0.780642
O O7 0.713293 0.161365 0.746355
O O8 0.764804 0.421574 0.500000
O O9 0.500000 0.429402 0.577569
O O10 0.765340 0.500000 0.598986
O O11 0.771339 0.373537 0.623505
O O12 0.750000 0.750000 0.655118
O O13 0.000000 0.826494 0.680296
#
# Coordination Sequence:
#
# PCOD9491004 Si02
#       5
#    16  16  16   4  16
#     4  10  20  38  65  96 131 170 216 271 326 382
#     4  12  25  43  67  95 130 168 217 267 323 386
#     4   8  16  32  57  87 120 166 218 267 324 386
#     4  12  26  48  65  96 129 176 212 262 328 386
#     4  11  22  37  61  91 130 169 216 274 327 384
#
# _framework density 20.666923000000001
#
# number of rings (size 3 to 8) (size 9 to 14) (size 15 to 20)
#    0.000    1.647    2.353    3.176    1.647    1.882 
#    0.000    1.176    0.000    3.529    0.000    6.588 
#    0.000    0.000    0.000    0.000    0.000    0.000 
#
# Total GULP energy -189505.100593 kJ/mol
# GULP energy per Si atom -5573.679429 kJ/mol
# Density = 2.061988 g / cm^3
# Si number density = 20.666923 Si / 1000 Ang^3
#
#
#
# Elastic Constant Matrix: (Units=GPa)
#
#
# Indices 1 2 3 4 5 6 
#
# 1 125.9533 28.0853 13.1749 0.0000 0.0000 0.0000
# 2 28.0853 136.0307 55.2065 0.0000 0.0000 0.0000
# 3 13.1749 55.2065 70.7416 0.0000 0.0000 0.0000
# 4 0.0000 0.0000 0.0000 -77.7482 0.0000 0.0000
# 5 0.0000 0.0000 0.0000 0.0000 -13.0583 0.0000
# 6 0.0000 0.0000 0.0000 0.0000 0.0000 38.6964
#
#
#
# Elastic Compliance Matrix: (Units=1/GPa)
#
#
# Indices 1 2 3 4 5 6 
#
# 1 0.008327 -0.001595 -0.000306 0.000000 0.000000 0.000000
# 2 -0.001595 0.011064 -0.008337 0.000000 0.000000 0.000000
# 3 -0.000306 -0.008337 0.020699 0.000000 0.000000 0.000000
# 4 0.000000 0.000000 0.000000 -0.012862 0.000000 0.000000
# 5 0.000000 0.000000 0.000000 0.000000 -0.076580 0.000000
# 6 0.000000 0.000000 0.000000 0.000000 0.000000 0.025842
#
#
# Mechanical properties :
#
#
# Convention : Reuss Voigt Hill
#
# Bulk Modulus (GPa) = 50.98470 58.40656 54.69563
# Shear Modulus (GPa) = 1425.92770 5.32856 715.62813
#
# Velocity S-wave (km/s) = 26.29552 1.60745 18.62845
# Velocity P-wave (km/s) = 30.76788 5.63626 22.11820
#
# Compressibility (1/GPa) = 0.01961373
#
# Stress axis : x y z
#
# Youngs Moduli (GPa) = 120.08940 90.38117 48.31042
#
# Poissons Ratio (x) = 0.14416 0.01479
# Poissons Ratio (y) = 0.19154 0.40279
# Poissons Ratio (z) = 0.03676 0.75355
#
# Static dielectric constant tensor:
#      x y z
#    x 1.760800 0.000000 0.000000 
#    y 0.000000 1.703110 0.000000 
#    z 0.000000 0.000000 1.745600 
# 
# From -- ./inp_files/49218.got.cif
#   From: 2010.05.17/outbox.cif.g08.bks.cpg/sg65_25_cif.got.tgz:49218.got - 2010.06.03 17:01:31.
