data_PCOD9491256
_publ_section_title
;
Structure prediction by ZEFSAII (Michael W. Deem and Ramdas Pophale) SiO2 
 PCOD9491256
Probable space group: C M M M
;
_chemical_formula_sum "Si O2"
_cell_formula_units_Z 88
_cell_length_a 8.778414
_cell_length_b 32.786166
_cell_length_c 17.019835
_cell_angle_alpha 90.000000
_cell_angle_beta 90.000000
_cell_angle_gamma 90.000000
_cell_volume 4898.487879
_symmetry_space_group_name_H-M "C M M M"
_symmetry_group_IT_number 65
_symmetry_cell_setting 'orthorhombic'
loop_
_space_group_symop_operation_xyz
x,y,z
-x,-y,z
x,-y,-z
-x,y,-z
-x,-y,-z
x,y,-z
-x,y,z
x,-y,z
1/2+x,1/2+y,z
1/2-x,1/2-y,z
1/2+x,1/2-y,-z
1/2-x,1/2+y,-z
1/2-x,1/2-y,-z
1/2+x,1/2+y,-z
1/2-x,1/2+y,z
1/2+x,1/2-y,z
loop_
_atom_site_type_symbol
_atom_site_label
_atom_site_fract_x
_atom_site_fract_y
_atom_site_fract_z
Si Si1 0.680372 0.618461 0.195658
Si Si2 0.818074 0.792097 0.757489
Si Si3 0.183139 0.454155 0.907307
Si Si4 0.676396 0.100730 0.640316
Si Si5 0.176423 0.307073 0.587928
Si Si6 0.685998 0.953904 0.500000
O O1 0.500000 0.619222 0.183167
O O2 0.734373 0.666167 0.198607
O O3 0.751521 0.585157 0.137301
O O4 0.722579 0.603601 0.282871
O O5 0.750000 0.750000 0.789914
O O6 0.767748 0.794259 0.665557
O O7 0.000000 0.790903 0.760662
O O8 0.233269 0.500000 0.880162
O O9 0.000000 0.453248 0.899479
O O10 0.219614 0.451441 0.000000
O O11 0.500000 0.091992 0.663002
O O12 0.674810 0.143953 0.595673
O O13 0.735552 0.068189 0.578748
O O14 0.232598 0.296338 0.500000
O O15 0.000000 0.293064 0.594863
O O16 0.500000 0.951188 0.500000
O O17 0.733028 0.000000 0.500000
#
# Coordination Sequence:
#
# PCOD9491256 Si02
#       6
#    16  16  16  16  16   8
#     4  10  21  35  53  80 110 141 174 213 265 320
#     4  10  21  35  50  72 102 137 179 222 265 315
#     4   9  19  37  61  88 114 139 171 210 252 306
#     4   9  16  29  47  67  94 132 177 220 259 307
#     4   9  16  28  47  67  90 126 172 221 271 318
#     4   9  16  26  43  67  92 123 170 223 264 299
#
# _framework density 17.964728000000001
#
# number of rings (size 3 to 8) (size 9 to 14) (size 15 to 20)
#    0.000    2.636    0.909    1.636    0.000    4.364 
#    0.000    3.182    0.000    1.091    0.000    0.000 
#    0.000    0.000    0.000    0.000    0.000    0.000 
#
# Total GULP energy -245103.172244 kJ/mol
# GULP energy per Si atom -5570.526642 kJ/mol
# Density = 1.792384 g / cm^3
# Si number density = 17.964728 Si / 1000 Ang^3
#
#
#
# Elastic Constant Matrix: (Units=GPa)
#
#
# Indices 1 2 3 4 5 6 
#
# 1 26.0391 37.2192 19.1728 0.0000 0.0000 0.0000
# 2 37.2192 170.4744 64.1099 0.0000 0.0000 0.0000
# 3 19.1728 64.1099 59.9806 0.0000 0.0000 0.0000
# 4 0.0000 0.0000 0.0000 49.0615 0.0000 0.0000
# 5 0.0000 0.0000 0.0000 0.0000 -212.6759 0.0000
# 6 0.0000 0.0000 0.0000 0.0000 0.0000 25.3848
#
#
#
# Elastic Compliance Matrix: (Units=1/GPa)
#
#
# Indices 1 2 3 4 5 6 
#
# 1 0.058254 -0.009557 -0.008405 0.000000 0.000000 0.000000
# 2 -0.009557 0.011377 -0.009105 0.000000 0.000000 0.000000
# 3 -0.008405 -0.009105 0.029090 0.000000 0.000000 0.000000
# 4 0.000000 0.000000 0.000000 0.020383 0.000000 0.000000
# 5 0.000000 0.000000 0.000000 0.000000 -0.004702 0.000000
# 6 0.000000 0.000000 0.000000 0.000000 0.000000 0.039394
#
#
# Mechanical properties :
#
#
# Convention : Reuss Voigt Hill
#
# Bulk Modulus (GPa) = 22.42881 55.27754 38.85318
# Shear Modulus (GPa) = 22.44246 -18.57975 1.93135
#
# Velocity S-wave (km/s) = 3.53831 -3.21944 1.03799
# Velocity P-wave (km/s) = 5.40415 4.12518 4.80739
#
# Compressibility (1/GPa) = 0.04458552
#
# Stress axis : x y z
#
# Youngs Moduli (GPa) = 17.16632 87.89931 34.37551
#
# Poissons Ratio (x) = 0.84009 0.28894
# Poissons Ratio (y) = 0.16406 0.31298
# Poissons Ratio (z) = 0.14429 0.80031
#
# Static dielectric constant tensor:
#      x y z
#    x 1.622650 0.000000 0.000000 
#    y 0.000000 1.658870 0.000000 
#    z 0.000000 0.000000 1.587710 
# 
# From -- ./inp_files/50298.got.cif
#   From: 2010.05.17/outbox.cif.g08.bks.cpg/sg65_26_cif.got.tgz:50298.got - 2010.06.03 17:01:31.
