data_PCOD9491933
_publ_section_title
;
Structure prediction by ZEFSAII (Michael W. Deem and Ramdas Pophale) SiO2 
 PCOD9491933
Probable space group: C M M M
;
_chemical_formula_sum "Si O2"
_cell_formula_units_Z 72
_cell_length_a 8.757066
_cell_length_b 14.736082
_cell_length_c 31.786160
_cell_angle_alpha 90.000000
_cell_angle_beta 90.000000
_cell_angle_gamma 90.000000
_cell_volume 4101.840016
_symmetry_space_group_name_H-M "C M M M"
_symmetry_group_IT_number 65
_symmetry_cell_setting 'orthorhombic'
loop_
_space_group_symop_operation_xyz
x,y,z
-x,-y,z
x,-y,-z
-x,y,-z
-x,-y,-z
x,y,-z
-x,y,z
x,-y,z
1/2+x,1/2+y,z
1/2-x,1/2-y,z
1/2+x,1/2-y,-z
1/2-x,1/2+y,-z
1/2-x,1/2-y,-z
1/2+x,1/2+y,-z
1/2-x,1/2+y,z
1/2+x,1/2-y,z
loop_
_atom_site_type_symbol
_atom_site_label
_atom_site_fract_x
_atom_site_fract_y
_atom_site_fract_z
Si Si1 0.684348 0.149297 0.771702
Si Si2 0.684131 0.500000 0.067554
Si Si3 0.185788 0.500000 0.295184
Si Si4 0.683333 0.000000 0.391777
Si Si5 0.317213 0.649482 0.547677
Si Si6 0.684012 0.000000 0.160567
Si Si7 0.684253 0.350751 0.000000
O O1 0.500000 0.154318 0.771348
O O2 0.750000 0.250000 0.771961
O O3 0.732459 0.089026 0.731275
O O4 0.729300 0.088621 0.812216
O O5 0.500000 0.500000 0.069265
O O6 0.749384 0.500000 0.114134
O O7 0.730234 0.411297 0.040482
O O8 0.236318 0.500000 0.343336
O O9 0.000000 0.500000 0.295035
O O10 0.745041 0.914056 0.417298
O O11 0.500000 0.000000 0.392158
O O12 0.281715 0.616920 0.500000
O O13 0.500000 0.651017 0.551856
O O14 0.250000 0.750000 0.551410
O O15 0.500000 0.000000 0.158449
O O16 0.750000 0.250000 0.000000
O O17 0.500000 0.345700 0.000000
#
# Coordination Sequence:
#
# PCOD9491933 Si02
#       7
#    16   8   8   8  16   8   8
#     4   9  18  35  55  74 100 133 167 205 250 300
#     4   9  19  35  52  72 103 135 167 210 252 292
#     4   8  18  36  53  72 102 136 167 202 248 302
#     4  11  21  34  55  80 106 137 171 210 258 308
#     4  10  21  37  55  76 104 137 173 213 256 304
#     4   9  19  34  52  75 103 133 166 205 252 303
#     4   9  19  35  52  72 100 137 173 207 250 296
#
# _framework density 17.553099
#
# number of rings (size 3 to 8) (size 9 to 14) (size 15 to 20)
#    0.000    2.667    0.000    3.333    0.000    6.222 
#    0.000   11.667    0.000    0.000    0.000    0.000 
#    0.000    0.000    0.000    0.000    0.000    0.000 
#
# Total GULP energy -200787.532185 kJ/mol
# GULP energy per Si atom -5577.431450 kJ/mol
# Density = 1.751315 g / cm^3
# Si number density = 17.553099 Si / 1000 Ang^3
#
#
#
# Elastic Constant Matrix: (Units=GPa)
#
#
# Indices 1 2 3 4 5 6 
#
# 1 28.9786 38.8480 47.6182 0.0000 0.0000 0.0000
# 2 38.8480 177.7603 111.4968 0.0000 0.0000 0.0000
# 3 47.6182 111.4968 201.9322 0.0000 0.0000 0.0000
# 4 0.0000 0.0000 0.0000 13.4765 0.0000 0.0000
# 5 0.0000 0.0000 0.0000 0.0000 27.2825 0.0000
# 6 0.0000 0.0000 0.0000 0.0000 0.0000 37.4108
#
#
#
# Elastic Compliance Matrix: (Units=1/GPa)
#
#
# Indices 1 2 3 4 5 6 
#
# 1 0.061002 -0.006592 -0.010746 0.000000 0.000000 0.000000
# 2 -0.006592 0.009318 -0.003591 0.000000 0.000000 0.000000
# 3 -0.010746 -0.003591 0.009469 0.000000 0.000000 0.000000
# 4 0.000000 0.000000 0.000000 0.074203 0.000000 0.000000
# 5 0.000000 0.000000 0.000000 0.000000 0.036654 0.000000
# 6 0.000000 0.000000 0.000000 0.000000 0.000000 0.026730
#
#
# Mechanical properties :
#
#
# Convention : Reuss Voigt Hill
#
# Bulk Modulus (GPa) = 26.36205 89.39968 57.88086
# Shear Modulus (GPa) = 18.39073 29.68116 24.03595
#
# Velocity S-wave (km/s) = 3.24036 4.11656 3.70446
# Velocity P-wave (km/s) = 5.38990 8.58116 7.16545
#
# Compressibility (1/GPa) = 0.03793332
#
# Stress axis : x y z
#
# Youngs Moduli (GPa) = 16.39295 107.31590 105.61116
#
# Poissons Ratio (x) = 0.70738 1.13484
# Poissons Ratio (y) = 0.10805 0.37922
# Poissons Ratio (z) = 0.17615 0.38534
#
# Static dielectric constant tensor:
#      x y z
#    x 1.592570 0.000000 0.000000 
#    y 0.000000 1.571770 0.000000 
#    z 0.000000 0.000000 1.589470 
# 
# From -- ./inp_files/76394.got.cif
#   From: 2010.05.17/outbox.cif.g08.bks.cpg/sg65_39_cif.got.tgz:76394.got - 2010.06.03 17:01:31.
