data_PCOD9491871
_publ_section_title
;
Structure prediction by ZEFSAII (Michael W. Deem and Ramdas Pophale) SiO2 
 PCOD9491871
Probable space group: C M M M
;
_chemical_formula_sum "Si O2"
_cell_formula_units_Z 92
_cell_length_a 9.456745
_cell_length_b 25.166203
_cell_length_c 22.492316
_cell_angle_alpha 90.000000
_cell_angle_beta 90.000000
_cell_angle_gamma 90.000000
_cell_volume 5352.954481
_symmetry_space_group_name_H-M "C M M M"
_symmetry_group_IT_number 65
_symmetry_cell_setting 'orthorhombic'
loop_
_space_group_symop_operation_xyz
x,y,z
-x,-y,z
x,-y,-z
-x,y,-z
-x,-y,-z
x,y,-z
-x,y,z
x,-y,z
1/2+x,1/2+y,z
1/2-x,1/2-y,z
1/2+x,1/2-y,-z
1/2-x,1/2+y,-z
1/2-x,1/2-y,-z
1/2+x,1/2+y,-z
1/2-x,1/2+y,z
1/2+x,1/2-y,z
loop_
_atom_site_type_symbol
_atom_site_label
_atom_site_fract_x
_atom_site_fract_y
_atom_site_fract_z
Si Si1 0.500000 0.563825 0.432429
Si Si2 0.831757 0.500000 0.121180
Si Si3 0.665315 0.696439 0.148230
Si Si4 0.500000 0.000000 0.647386
Si Si5 0.345778 0.500000 0.239202
Si Si6 0.331155 0.886628 0.069249
Si Si7 0.831112 0.194911 0.709326
Si Si8 0.760964 0.917552 0.337856
O O1 0.500000 0.500000 0.434355
O O2 0.500000 0.583950 0.500000
O O3 0.636368 0.579934 0.394544
O O4 0.766763 0.500000 0.186855
O O5 0.794611 0.447267 0.085156
O O6 0.000000 0.500000 0.128473
O O7 0.500000 0.701166 0.133133
O O8 0.750000 0.750000 0.134121
O O9 0.740292 0.650029 0.112121
O O10 0.675872 0.687936 0.219212
O O11 0.376892 0.952854 0.649306
O O12 0.500000 0.500000 0.211168
O O13 0.330114 0.449062 0.282007
O O14 0.500000 0.879273 0.079854
O O15 0.304284 0.875588 0.000000
O O16 0.750000 0.250000 0.694900
O O17 0.753604 0.144123 0.680363
O O18 0.000000 0.196053 0.693586
#
# Coordination Sequence:
#
# PCOD9491871 Si02
#       8
#     8   8  16   4   8  16  16  16
#     4  11  20  38  65  86 115 162 202 235 287 351
#     4  10  22  35  53  81 110 144 185 230 283 351
#     4  10  21  38  57  83 110 140 184 234 291 343
#     4  10  24  32  55  88 120 158 189 252 288 326
#     4  11  19  33  55  80 112 150 184 237 294 345
#     4  10  21  38  56  75 104 147 190 233 281 339
#     4  10  21  36  59  87 120 157 192 245 300 358
#     4  11  20  39  54  87 123 154 201 237 289 356
#
# _framework density 17.186769999999999
#
# number of rings (size 3 to 8) (size 9 to 14) (size 15 to 20)
#    0.000    1.652    3.478    1.826    3.652    4.522 
#    0.000    0.870    0.000    2.087    0.000    0.000 
#    0.000    0.000    0.000    0.000    0.000    0.000 
#
# Total GULP energy -256070.733586 kJ/mol
# GULP energy per Si atom -5566.755078 kJ/mol
# Density = 1.714765 g / cm^3
# Si number density = 17.186770 Si / 1000 Ang^3
#
#
#
# Elastic Constant Matrix: (Units=GPa)
#
#
# Indices 1 2 3 4 5 6 
#
# 1 109.1253 76.6102 35.9807 0.0000 0.0000 0.0000
# 2 76.6102 151.1889 38.6245 0.0000 0.0000 0.0000
# 3 35.9807 38.6245 43.1293 0.0000 0.0000 0.0000
# 4 0.0000 0.0000 0.0000 24.0487 0.0000 0.0000
# 5 0.0000 0.0000 0.0000 0.0000 -10.3970 0.0000
# 6 0.0000 0.0000 0.0000 0.0000 0.0000 2.1245
#
#
#
# Elastic Compliance Matrix: (Units=1/GPa)
#
#
# Indices 1 2 3 4 5 6 
#
# 1 0.016074 -0.006119 -0.007930 0.000000 0.000000 0.000000
# 2 -0.006119 0.010906 -0.004662 0.000000 0.000000 0.000000
# 3 -0.007930 -0.004662 0.033977 0.000000 0.000000 0.000000
# 4 0.000000 0.000000 0.000000 0.041582 0.000000 0.000000
# 5 0.000000 0.000000 0.000000 0.000000 -0.096182 0.000000
# 6 0.000000 0.000000 0.000000 0.000000 0.000000 0.470691
#
#
# Mechanical properties :
#
#
# Convention : Reuss Voigt Hill
#
# Bulk Modulus (GPa) = 42.49025 67.31935 54.90480
# Shear Modulus (GPa) = 9.57275 13.30380 11.43827
#
# Velocity S-wave (km/s) = 2.36261 2.78523 2.58258
# Velocity P-wave (km/s) = 5.67617 7.04256 6.39596
#
# Compressibility (1/GPa) = 0.02353481
#
# Stress axis : x y z
#
# Youngs Moduli (GPa) = 62.21056 91.69291 29.43206
#
# Poissons Ratio (x) = 0.56110 0.23340
# Poissons Ratio (y) = 0.38069 0.13721
# Poissons Ratio (z) = 0.49333 0.42745
#
# Static dielectric constant tensor:
#      x y z
#    x 1.585580 0.000000 0.000000 
#    y 0.000000 1.585220 0.000000 
#    z 0.000000 0.000000 1.558940 
# 
# From -- ./inp_files/67951.got.cif
#   From: 2010.05.17/outbox.cif.g08.bks.cpg/sg65_34_cif.got.tgz:67951.got - 2010.06.03 17:01:31.
