data_PCOD9491978
_publ_section_title
;
Structure prediction by ZEFSAII (Michael W. Deem and Ramdas Pophale) SiO2 
 PCOD9491978
Probable space group: C M M M
;
_chemical_formula_sum "Si O2"
_cell_formula_units_Z 88
_cell_length_a 26.438431
_cell_length_b 8.627004
_cell_length_c 21.328049
_cell_angle_alpha 90.000000
_cell_angle_beta 90.000000
_cell_angle_gamma 90.000000
_cell_volume 4864.596326
_symmetry_space_group_name_H-M "C M M M"
_symmetry_group_IT_number 65
_symmetry_cell_setting 'orthorhombic'
loop_
_space_group_symop_operation_xyz
x,y,z
-x,-y,z
x,-y,-z
-x,y,-z
-x,-y,-z
x,y,-z
-x,y,z
x,-y,z
1/2+x,1/2+y,z
1/2-x,1/2-y,z
1/2+x,1/2-y,-z
1/2-x,1/2+y,-z
1/2-x,1/2-y,-z
1/2+x,1/2+y,-z
1/2-x,1/2+y,z
1/2+x,1/2-y,z
loop_
_atom_site_type_symbol
_atom_site_label
_atom_site_fract_x
_atom_site_fract_y
_atom_site_fract_z
Si Si1 0.695477 0.313108 0.348471
Si Si2 0.500000 0.814342 0.643153
Si Si3 0.695432 0.313235 0.203370
Si Si4 0.901816 0.812320 0.427355
Si Si5 0.559524 0.814000 0.000000
Si Si6 0.405593 0.313485 0.132252
Si Si7 0.000000 0.686379 0.210774
O O1 0.697126 0.500000 0.349663
O O2 0.750000 0.250000 0.368600
O O3 0.687095 0.264549 0.275964
O O4 0.649293 0.261929 0.392017
O O5 0.450450 0.750922 0.608653
O O6 0.500000 0.767692 0.716256
O O7 0.500000 0.000000 0.640452
O O8 0.697289 0.500000 0.202539
O O9 0.750000 0.250000 0.183259
O O10 0.648336 0.263686 0.160908
O O11 0.902055 0.764326 0.500000
O O12 0.903510 0.000000 0.425553
O O13 0.584945 0.748751 0.937390
O O14 0.500000 0.769750 0.000000
O O15 0.562112 0.000000 0.000000
O O16 0.407441 0.500000 0.131966
O O17 0.450599 0.250923 0.175989
O O18 0.000000 0.500000 0.206250
#
# Coordination Sequence:
#
# PCOD9491978 Si02
#       7
#    16   8  16  16   8  16   8
#     4   9  18  34  55  80 110 141 179 226 277 328
#     4  11  24  38  54  79 110 143 182 230 279 330
#     4   9  19  35  56  82 110 143 182 227 275 325
#     4  10  21  37  56  77 106 146 187 227 276 335
#     4  11  23  39  58  83 119 154 185 223 274 326
#     4  11  22  37  60  87 113 146 189 229 269 321
#     4  11  23  37  55  83 114 143 179 226 283 335
#
# _framework density 18.089887000000001
#
# number of rings (size 3 to 8) (size 9 to 14) (size 15 to 20)
#    0.000    1.909    0.909    2.727    0.000    7.273 
#    0.000    4.091    0.000    0.000    0.000    0.000 
#    0.000    0.000    0.000    0.000    0.000    0.000 
#
# Total GULP energy -245782.168623 kJ/mol
# GULP energy per Si atom -5585.958378 kJ/mol
# Density = 1.804871 g / cm^3
# Si number density = 18.089887 Si / 1000 Ang^3
#
#
#
# Elastic Constant Matrix: (Units=GPa)
#
#
# Indices 1 2 3 4 5 6 
#
# 1 204.1050 39.2564 131.9862 0.0000 0.0000 0.0000
# 2 39.2564 24.6086 40.2028 0.0000 0.0000 0.0000
# 3 131.9862 40.2028 169.8766 0.0000 0.0000 0.0000
# 4 0.0000 0.0000 0.0000 26.5069 0.0000 0.0000
# 5 0.0000 0.0000 0.0000 0.0000 -97.7969 0.0000
# 6 0.0000 0.0000 0.0000 0.0000 0.0000 33.8926
#
#
#
# Elastic Compliance Matrix: (Units=1/GPa)
#
#
# Indices 1 2 3 4 5 6 
#
# 1 0.010278 -0.005461 -0.006693 0.000000 0.000000 0.000000
# 2 -0.005461 0.069153 -0.012122 0.000000 0.000000 0.000000
# 3 -0.006693 -0.012122 0.013956 0.000000 0.000000 0.000000
# 4 0.000000 0.000000 0.000000 0.037726 0.000000 0.000000
# 5 0.000000 0.000000 0.000000 0.000000 -0.010225 0.000000
# 6 0.000000 0.000000 0.000000 0.000000 0.000000 0.029505
#
#
# Mechanical properties :
#
#
# Convention : Reuss Voigt Hill
#
# Bulk Modulus (GPa) = 22.30512 91.27565 56.79039
# Shear Modulus (GPa) = 23.37655 4.99684 14.18669
#
# Velocity S-wave (km/s) = 3.59868 1.66380 2.80345
# Velocity P-wave (km/s) = 5.44282 7.36595 6.47617
#
# Compressibility (1/GPa) = 0.04483275
#
# Stress axis : x y z
#
# Youngs Moduli (GPa) = 97.29587 14.46077 71.65580
#
# Poissons Ratio (x) = 0.07898 0.47959
# Poissons Ratio (y) = 0.53138 0.86863
# Poissons Ratio (z) = 0.65120 0.17530
#
# Static dielectric constant tensor:
#      x y z
#    x 1.589260 0.000000 0.000000 
#    y 0.000000 1.615610 0.000000 
#    z 0.000000 0.000000 1.602620 
# 
# From -- ./inp_files/59886.got.cif
#   From: 2010.05.17/outbox.cif.g08.bks.cpg/sg65_30_cif.got.tgz:59886.got - 2010.06.03 17:01:31.
