data_PCOD9491068
_publ_section_title
;
Structure prediction by ZEFSAII (Michael W. Deem and Ramdas Pophale) SiO2 
 PCOD9491068
Probable space group: C M M M
;
_chemical_formula_sum "Si O2"
_cell_formula_units_Z 92
_cell_length_a 12.060656
_cell_length_b 27.863185
_cell_length_c 17.033686
_cell_angle_alpha 90.000000
_cell_angle_beta 90.000000
_cell_angle_gamma 90.000000
_cell_volume 5724.141042
_symmetry_space_group_name_H-M "C M M M"
_symmetry_group_IT_number 65
_symmetry_cell_setting 'orthorhombic'
loop_
_space_group_symop_operation_xyz
x,y,z
-x,-y,z
x,-y,-z
-x,y,-z
-x,-y,-z
x,y,-z
-x,y,z
x,-y,z
1/2+x,1/2+y,z
1/2-x,1/2-y,z
1/2+x,1/2-y,-z
1/2-x,1/2+y,-z
1/2-x,1/2-y,-z
1/2+x,1/2+y,-z
1/2-x,1/2+y,z
1/2+x,1/2-y,z
loop_
_atom_site_type_symbol
_atom_site_label
_atom_site_fract_x
_atom_site_fract_y
_atom_site_fract_z
Si Si1 0.812420 0.557568 0.586939
Si Si2 0.000000 0.642776 0.847536
Si Si3 0.000000 0.558672 0.284915
Si Si4 0.631195 0.444309 0.701448
Si Si5 0.000000 0.577610 0.000000
Si Si6 0.782249 0.305461 0.094447
Si Si7 0.247738 0.053208 0.000000
Si Si8 0.132456 0.889672 0.139093
O O1 0.836426 0.577457 0.500000
O O2 0.816412 0.500000 0.579073
O O3 0.896651 0.567601 0.657321
O O4 0.693315 0.570516 0.622269
O O5 0.000000 0.601057 0.780242
O O6 0.889810 0.675882 0.857012
O O7 0.000000 0.610713 0.924730
O O8 0.000000 0.500000 0.261632
O O9 0.500000 0.443191 0.690721
O O10 0.662716 0.500000 0.719713
O O11 0.658760 0.410805 0.775144
O O12 0.118897 0.551883 0.000000
O O13 0.750000 0.250000 0.104003
O O14 0.678608 0.336727 0.124548
O O15 0.800216 0.314068 0.000000
O O16 0.200552 0.079551 0.923956
O O17 0.202252 0.000000 0.000000
O O18 0.000000 0.893190 0.126550
#
# Coordination Sequence:
#
# PCOD9491068 Si02
#       8
#    16   8   8  16   4  16   8  16
#     4   9  17  30  48  73 106 143 180 212 250 310
#     4  12  20  41  57  77 110 140 185 223 272 326
#     4  10  21  32  53  80 111 149 176 213 265 314
#     4   9  18  31  48  72 105 143 175 213 259 305
#     4  12  23  40  50  76 106 142 184 232 255 314
#     4  11  23  38  56  76  99 136 180 231 278 320
#     4  12  24  36  51  73 105 145 187 227 263 310
#     4  11  21  36  53  76 103 138 183 225 267 322
#
# _framework density 16.072279999999999
#
# number of rings (size 3 to 8) (size 9 to 14) (size 15 to 20)
#    0.000    1.565    3.478    2.217    1.217    3.478 
#    0.000    1.739    0.000    0.000    0.000    0.000 
#    0.000   17.391    0.000    0.000    0.000    0.000 
#
# Total GULP energy -256208.005581 kJ/mol
# GULP energy per Si atom -5569.739252 kJ/mol
# Density = 1.603570 g / cm^3
# Si number density = 16.072280 Si / 1000 Ang^3
#
#
#
# Elastic Constant Matrix: (Units=GPa)
#
#
# Indices 1 2 3 4 5 6 
#
# 1 72.9420 34.6771 42.9982 0.0000 0.0000 0.0000
# 2 34.6771 91.8069 45.1920 0.0000 0.0000 0.0000
# 3 42.9982 45.1920 107.0677 0.0000 0.0000 0.0000
# 4 0.0000 0.0000 0.0000 13.2249 0.0000 0.0000
# 5 0.0000 0.0000 0.0000 0.0000 3.3442 0.0000
# 6 0.0000 0.0000 0.0000 0.0000 0.0000 8.9836
#
#
#
# Elastic Compliance Matrix: (Units=1/GPa)
#
#
# Indices 1 2 3 4 5 6 
#
# 1 0.019261 -0.004377 -0.005888 0.000000 0.000000 0.000000
# 2 -0.004377 0.014744 -0.004465 0.000000 0.000000 0.000000
# 3 -0.005888 -0.004465 0.013589 0.000000 0.000000 0.000000
# 4 0.000000 0.000000 0.000000 0.075615 0.000000 0.000000
# 5 0.000000 0.000000 0.000000 0.000000 0.299026 0.000000
# 6 0.000000 0.000000 0.000000 0.000000 0.000000 0.111314
#
#
# Mechanical properties :
#
#
# Convention : Reuss Voigt Hill
#
# Bulk Modulus (GPa) = 55.14563 57.50570 56.32567
# Shear Modulus (GPa) = 8.78652 15.04049 11.91351
#
# Velocity S-wave (km/s) = 2.34067 3.06241 2.72554
# Velocity P-wave (km/s) = 6.45682 6.95425 6.71014
#
# Compressibility (1/GPa) = 0.01813380
#
# Stress axis : x y z
#
# Youngs Moduli (GPa) = 51.91799 67.82515 73.58797
#
# Poissons Ratio (x) = 0.29687 0.43327
# Poissons Ratio (y) = 0.22725 0.32860
# Poissons Ratio (z) = 0.30568 0.30286
#
# Static dielectric constant tensor:
#      x y z
#    x 1.603200 0.000000 0.000000 
#    y 0.000000 1.524660 0.000000 
#    z 0.000000 0.000000 1.536140 
# 
# From -- ./inp_files/51923.got.cif
#   From: 2010.05.17/outbox.cif.g08.bks.cpg/sg65_26_cif.got.tgz:51923.got - 2010.06.03 17:01:31.
