data_PCOD9491072
_publ_section_title
;
Structure prediction by ZEFSAII (Michael W. Deem and Ramdas Pophale) SiO2 
 PCOD9491072
Probable space group: C M M M
;
_chemical_formula_sum "Si O2"
_cell_formula_units_Z 56
_cell_length_a 21.309023
_cell_length_b 10.352035
_cell_length_c 13.601259
_cell_angle_alpha 90.000000
_cell_angle_beta 90.000000
_cell_angle_gamma 90.000000
_cell_volume 3000.325551
_symmetry_space_group_name_H-M "C M M M"
_symmetry_group_IT_number 65
_symmetry_cell_setting 'orthorhombic'
loop_
_space_group_symop_operation_xyz
x,y,z
-x,-y,z
x,-y,-z
-x,y,-z
-x,-y,-z
x,y,-z
-x,y,z
x,-y,z
1/2+x,1/2+y,z
1/2-x,1/2-y,z
1/2+x,1/2-y,-z
1/2-x,1/2+y,-z
1/2-x,1/2-y,-z
1/2+x,1/2+y,-z
1/2-x,1/2+y,z
1/2+x,1/2-y,z
loop_
_atom_site_type_symbol
_atom_site_label
_atom_site_fract_x
_atom_site_fract_y
_atom_site_fract_z
Si Si1 0.902470 0.000000 0.390352
Si Si2 0.607124 0.744311 0.256090
Si Si3 0.750000 0.250000 0.266546
Si Si4 0.000000 0.844196 0.882803
Si Si5 0.752724 0.000000 0.607779
Si Si6 0.575235 0.000000 0.381664
O O1 0.914600 0.871368 0.328858
O O2 0.929348 0.000000 0.500000
O O3 0.827400 0.000000 0.400552
O O4 0.680296 0.727037 0.221169
O O5 0.560364 0.726074 0.164911
O O6 0.598424 0.874487 0.320250
O O7 0.736737 0.127126 0.333914
O O8 0.000000 0.000000 0.860266
O O9 0.000000 0.832441 0.000000
O O10 0.725000 0.000000 0.500000
O O11 0.500000 0.000000 0.376550
O O12 0.590171 0.000000 0.500000
#
# Coordination Sequence:
#
# PCOD9491072 Si02
#       6
#     8  16   8   8   8   8
#     4   9  18  32  56  85 118 159 202 240 278 333
#     4  11  21  40  59  90 121 157 199 245 291 351
#     4  10  21  32  57  84 118 152 192 242 294 336
#     4  11  24  45  70  87 107 149 203 259 312 353
#     4   9  17  30  48  79 119 161 198 226 269 336
#     4  11  23  37  57  88 132 172 195 227 285 352
#
# _framework density 18.664642000000001
#
# number of rings (size 3 to 8) (size 9 to 14) (size 15 to 20)
#    0.000    1.714    2.857    2.143    0.000    4.571 
#    0.000    2.857    0.000    0.000    0.000    0.000 
#    0.000    0.000    0.000    0.000    0.000    0.000 
#
# Total GULP energy -155933.287478 kJ/mol
# GULP energy per Si atom -5569.045981 kJ/mol
# Density = 1.862216 g / cm^3
# Si number density = 18.664642 Si / 1000 Ang^3
#
#
#
# Elastic Constant Matrix: (Units=GPa)
#
#
# Indices 1 2 3 4 5 6 
#
# 1 172.2721 21.0802 58.6016 0.0000 0.0000 0.0000
# 2 21.0802 144.8357 45.3379 0.0000 0.0000 0.0000
# 3 58.6016 45.3379 101.4479 0.0000 0.0000 0.0000
# 4 0.0000 0.0000 0.0000 79.6103 0.0000 0.0000
# 5 0.0000 0.0000 0.0000 0.0000 -603.0959 0.0000
# 6 0.0000 0.0000 0.0000 0.0000 0.0000 -791.9757
#
#
#
# Elastic Compliance Matrix: (Units=1/GPa)
#
#
# Indices 1 2 3 4 5 6 
#
# 1 0.007235 0.000297 -0.004312 0.000000 0.000000 0.000000
# 2 0.000297 0.008040 -0.003764 0.000000 0.000000 0.000000
# 3 -0.004312 -0.003764 0.014030 0.000000 0.000000 0.000000
# 4 0.000000 0.000000 0.000000 0.012561 0.000000 0.000000
# 5 0.000000 0.000000 0.000000 0.000000 -0.001658 0.000000
# 6 0.000000 0.000000 0.000000 0.000000 0.000000 -0.001263
#
#
# Mechanical properties :
#
#
# Convention : Reuss Voigt Hill
#
# Bulk Modulus (GPa) = 72.74889 74.28834 73.51862
# Shear Modulus (GPa) = 84.62080 -243.52321 -79.45121
#
# Velocity S-wave (km/s) = 6.74062 -11.43487 -6.53148
# Velocity P-wave (km/s) = 9.98212 11.59541 4.17199
#
# Compressibility (1/GPa) = 0.01374591
#
# Stress axis : x y z
#
# Youngs Moduli (GPa) = 138.21131 124.38519 71.27336
#
# Poissons Ratio (x) = -0.03691 0.30734
# Poissons Ratio (y) = -0.04101 0.26830
# Poissons Ratio (z) = 0.59598 0.46823
#
# Static dielectric constant tensor:
#      x y z
#    x 1.700180 0.000000 0.000000 
#    y 0.000000 1.667350 0.000000 
#    z 0.000000 0.000000 1.615650 
# 
# From -- ./inp_files/43619.got.cif
#   From: 2010.05.17/outbox.cif.g08.bks.cpg/sg65_22_cif.got.tgz:43619.got - 2010.06.03 17:01:31.
