data_PCOD9491294
_publ_section_title
;
Structure prediction by ZEFSAII (Michael W. Deem and Ramdas Pophale) SiO2 
 PCOD9491294
Probable space group: C M M M
;
_chemical_formula_sum "Si O2"
_cell_formula_units_Z 80
_cell_length_a 18.811295
_cell_length_b 9.341125
_cell_length_c 26.433672
_cell_angle_alpha 90.000000
_cell_angle_beta 90.000000
_cell_angle_gamma 90.000000
_cell_volume 4644.889370
_symmetry_space_group_name_H-M "C M M M"
_symmetry_group_IT_number 65
_symmetry_cell_setting 'orthorhombic'
loop_
_space_group_symop_operation_xyz
x,y,z
-x,-y,z
x,-y,-z
-x,y,-z
-x,-y,-z
x,y,-z
-x,y,z
x,-y,z
1/2+x,1/2+y,z
1/2-x,1/2-y,z
1/2+x,1/2-y,-z
1/2-x,1/2+y,-z
1/2-x,1/2-y,-z
1/2+x,1/2+y,-z
1/2-x,1/2+y,z
1/2+x,1/2-y,z
loop_
_atom_site_type_symbol
_atom_site_label
_atom_site_fract_x
_atom_site_fract_y
_atom_site_fract_z
Si Si1 0.825246 0.327646 0.299730
Si Si2 0.916138 0.329315 0.398984
Si Si3 0.083234 0.328623 0.201457
Si Si4 0.083277 0.828829 0.901552
Si Si5 0.674760 0.327417 0.000000
Si Si6 0.086506 0.835423 0.500000
O O1 0.816030 0.500000 0.299211
O O2 0.750000 0.250000 0.300651
O O3 0.871074 0.291693 0.349535
O O4 0.869342 0.287949 0.249469
O O5 0.910107 0.500000 0.407692
O O6 0.891710 0.245649 0.448933
O O7 0.000000 0.298946 0.390330
O O8 0.088355 0.500000 0.194792
O O9 0.104913 0.250537 0.149831
O O10 0.000000 0.294754 0.211121
O O11 0.000000 0.795877 0.911165
O O12 0.088844 0.000000 0.894432
O O13 0.130156 0.788840 0.949883
O O14 0.750000 0.250000 0.000000
O O15 0.683502 0.500000 0.000000
O O16 0.000000 0.832906 0.500000
O O17 0.109654 0.000000 0.500000
#
# Coordination Sequence:
#
# PCOD9491294 Si02
#       6
#    16  16  16  16   8   8
#     4  10  21  35  51  73 102 134 166 202 246 295
#     4   9  17  32  54  75  96 128 169 206 241 289
#     4   9  18  34  55  77 100 128 165 208 250 292
#     4   9  18  34  55  76  98 128 167 208 249 293
#     4  10  21  35  51  73 103 136 168 204 246 294
#     4   9  17  29  48  77 106 127 155 203 256 295
#
# _framework density 17.223230999999998
#
# number of rings (size 3 to 8) (size 9 to 14) (size 15 to 20)
#    0.000    2.700    0.000    1.200    0.000    8.000 
#    0.000    4.500    0.000    9.000    0.000    0.000 
#    0.000    0.000    0.000    0.000    0.000    0.000 
#
# Total GULP energy -223105.336668 kJ/mol
# GULP energy per Si atom -5577.633417 kJ/mol
# Density = 1.718403 g / cm^3
# Si number density = 17.223231 Si / 1000 Ang^3
#
#
#
# Elastic Constant Matrix: (Units=GPa)
#
#
# Indices 1 2 3 4 5 6 
#
# 1 93.5495 49.8757 109.2476 0.0000 0.0000 0.0000
# 2 49.8757 34.5300 76.6040 0.0000 0.0000 0.0000
# 3 109.2476 76.6040 217.0042 0.0000 0.0000 0.0000
# 4 0.0000 0.0000 0.0000 28.8665 0.0000 0.0000
# 5 0.0000 0.0000 0.0000 0.0000 -3.7193 0.0000
# 6 0.0000 0.0000 0.0000 0.0000 0.0000 29.7541
#
#
#
# Elastic Compliance Matrix: (Units=1/GPa)
#
#
# Indices 1 2 3 4 5 6 
#
# 1 0.046584 -0.070362 0.001386 0.000000 0.000000 0.000000
# 2 -0.070362 0.239820 -0.049235 0.000000 0.000000 0.000000
# 3 0.001386 -0.049235 0.021291 0.000000 0.000000 0.000000
# 4 0.000000 0.000000 0.000000 0.034642 0.000000 0.000000
# 5 0.000000 0.000000 0.000000 0.000000 -0.268865 0.000000
# 6 0.000000 0.000000 0.000000 0.000000 0.000000 0.033609
#
#
# Mechanical properties :
#
#
# Convention : Reuss Voigt Hill
#
# Bulk Modulus (GPa) = 14.03067 90.72646 52.37856
# Shear Modulus (GPa) = 13.61432 18.27069 15.94250
#
# Velocity S-wave (km/s) = 2.81457 3.26055 3.04573
# Velocity P-wave (km/s) = 4.32740 8.18328 6.54570
#
# Compressibility (1/GPa) = 0.07127244
#
# Stress axis : x y z
#
# Youngs Moduli (GPa) = 21.46665 4.16979 46.96878
#
# Poissons Ratio (x) = 0.29339 -0.06511
# Poissons Ratio (y) = 1.51044 2.31253
# Poissons Ratio (z) = -0.02976 0.20530
#
# Static dielectric constant tensor:
#      x y z
#    x 1.561670 0.000000 0.000000 
#    y 0.000000 1.574530 0.000000 
#    z 0.000000 0.000000 1.562230 
# 
# From -- ./inp_files/75068.got.cif
#   From: 2010.05.17/outbox.cif.g08.bks.cpg/sg65_38_cif.got.tgz:75068.got - 2010.06.03 17:01:31.
