data_PCOD9491514
_publ_section_title
;
Structure prediction by ZEFSAII (Michael W. Deem and Ramdas Pophale) SiO2 
 PCOD9491514
Probable space group: C M M M
;
_chemical_formula_sum "Si O2"
_cell_formula_units_Z 64
_cell_length_a 18.547434
_cell_length_b 7.833525
_cell_length_c 21.657307
_cell_angle_alpha 90.000000
_cell_angle_beta 90.000000
_cell_angle_gamma 90.000000
_cell_volume 3146.628856
_symmetry_space_group_name_H-M "C M M M"
_symmetry_group_IT_number 65
_symmetry_cell_setting 'orthorhombic'
loop_
_space_group_symop_operation_xyz
x,y,z
-x,-y,z
x,-y,-z
-x,y,-z
-x,-y,-z
x,y,-z
-x,y,z
x,-y,z
1/2+x,1/2+y,z
1/2-x,1/2-y,z
1/2+x,1/2-y,-z
1/2-x,1/2+y,-z
1/2-x,1/2-y,-z
1/2+x,1/2+y,-z
1/2-x,1/2+y,z
1/2+x,1/2-y,z
loop_
_atom_site_type_symbol
_atom_site_label
_atom_site_fract_x
_atom_site_fract_y
_atom_site_fract_z
Si Si1 0.833814 0.203218 0.877860
Si Si2 0.081496 0.704670 0.245564
Si Si3 0.334526 0.206279 0.365593
Si Si4 0.583457 0.290769 0.000000
Si Si5 0.165130 0.294699 0.500000
O O1 0.750000 0.250000 0.879173
O O2 0.871873 0.261329 0.815147
O O3 0.838975 0.000000 0.879333
O O4 0.875448 0.268867 0.938507
O O5 0.077284 0.500000 0.252149
O O6 0.120729 0.771383 0.307190
O O7 0.000000 0.771044 0.238942
O O8 0.250000 0.250000 0.358938
O O9 0.361546 0.267873 0.433139
O O10 0.339221 0.000000 0.366044
O O11 0.584544 0.500000 0.000000
O O12 0.500000 0.238719 0.000000
O O13 0.157222 0.500000 0.500000
O O14 0.250000 0.250000 0.500000
#
# Coordination Sequence:
#
# PCOD9491514 Si02
#       5
#    16  16  16   8   8
#     4  11  22  37  58  81 106 137 174 214 255 302
#     4  10  21  36  52  74 106 139 172 214 262 309
#     4   9  17  30  49  72  98 130 168 211 256 302
#     4   9  19  36  57  81 108 137 170 209 252 300
#     4   8  14  26  45  69  95 125 165 208 251 300
#
# _framework density 20.339227999999999
#
# number of rings (size 3 to 8) (size 9 to 14) (size 15 to 20)
#    0.000    2.375    0.000    2.625    0.000    4.500 
#    0.000    2.500    0.000    8.250    0.000    0.000 
#    0.000   12.000    0.000    0.000    0.000    0.000 
#
# Total GULP energy -178575.614803 kJ/mol
# GULP energy per Si atom -5580.487963 kJ/mol
# Density = 2.029294 g / cm^3
# Si number density = 20.339228 Si / 1000 Ang^3
#
#
#
# Elastic Constant Matrix: (Units=GPa)
#
#
# Indices 1 2 3 4 5 6 
#
# 1 159.5320 1.8749 123.1551 0.0000 0.0000 0.0000
# 2 1.8749 26.4894 7.6443 0.0000 0.0000 0.0000
# 3 123.1551 7.6443 250.4854 0.0000 0.0000 0.0000
# 4 0.0000 0.0000 0.0000 12.1199 0.0000 0.0000
# 5 0.0000 0.0000 0.0000 0.0000 -7.6722 0.0000
# 6 0.0000 0.0000 0.0000 0.0000 0.0000 7.0390
#
#
#
# Elastic Compliance Matrix: (Units=1/GPa)
#
#
# Indices 1 2 3 4 5 6 
#
# 1 0.010117 0.000726 -0.004996 0.000000 0.000000 0.000000
# 2 0.000726 0.038138 -0.001521 0.000000 0.000000 0.000000
# 3 -0.004996 -0.001521 0.006495 0.000000 0.000000 0.000000
# 4 0.000000 0.000000 0.000000 0.082509 0.000000 0.000000
# 5 0.000000 0.000000 0.000000 0.000000 -0.130341 0.000000
# 6 0.000000 0.000000 0.000000 0.000000 0.000000 0.142066
#
#
# Mechanical properties :
#
#
# Convention : Reuss Voigt Hill
#
# Bulk Modulus (GPa) = 23.16537 77.98393 50.57465
# Shear Modulus (GPa) = 28.57868 22.55284 25.56576
#
# Velocity S-wave (km/s) = 3.75253 3.33353 3.54922
# Velocity P-wave (km/s) = 5.49451 7.29667 6.45875
#
# Compressibility (1/GPa) = 0.04316788
#
# Stress axis : x y z
#
# Youngs Moduli (GPa) = 98.84570 26.22032 153.96144
#
# Poissons Ratio (x) = -0.01903 0.76923
# Poissons Ratio (y) = -0.07174 0.23413
# Poissons Ratio (z) = 0.49386 0.03987
#
# Static dielectric constant tensor:
#      x y z
#    x 1.666750 0.000000 0.000000 
#    y 0.000000 1.743680 0.000000 
#    z 0.000000 0.000000 1.747290 
# 
# From -- ./inp_files/49099.got.cif
#   From: 2010.05.17/outbox.cif.g08.bks.cpg/sg65_25_cif.got.tgz:49099.got - 2010.06.03 17:01:31.
