data_PCOD9491462
_publ_section_title
;
Structure prediction by ZEFSAII (Michael W. Deem and Ramdas Pophale) SiO2 
 PCOD9491462
Probable space group: C M M M
;
_chemical_formula_sum "Si O2"
_cell_formula_units_Z 72
_cell_length_a 17.804660
_cell_length_b 22.146460
_cell_length_c 10.092576
_cell_angle_alpha 90.000000
_cell_angle_beta 90.000000
_cell_angle_gamma 90.000000
_cell_volume 3979.605565
_symmetry_space_group_name_H-M "C M M M"
_symmetry_group_IT_number 65
_symmetry_cell_setting 'orthorhombic'
loop_
_space_group_symop_operation_xyz
x,y,z
-x,-y,z
x,-y,-z
-x,y,-z
-x,-y,-z
x,y,-z
-x,y,z
x,-y,z
1/2+x,1/2+y,z
1/2-x,1/2-y,z
1/2+x,1/2-y,-z
1/2-x,1/2+y,-z
1/2-x,1/2-y,-z
1/2+x,1/2+y,-z
1/2-x,1/2+y,z
1/2+x,1/2-y,z
loop_
_atom_site_type_symbol
_atom_site_label
_atom_site_fract_x
_atom_site_fract_y
_atom_site_fract_z
Si Si1 0.086843 0.071739 0.500000
Si Si2 0.587755 0.566572 0.000000
Si Si3 0.586797 0.000000 0.839942
Si Si4 0.345456 0.367969 0.753875
Si Si5 0.659577 0.762405 0.654614
Si Si6 0.828940 0.625611 0.839124
O O1 0.132919 0.094487 0.625310
O O2 0.000000 0.094240 0.500000
O O3 0.083327 0.000000 0.500000
O O4 0.609463 0.604109 0.126798
O O5 0.624909 0.500000 0.000000
O O6 0.500000 0.558621 0.000000
O O7 0.630636 0.937995 0.805150
O O8 0.500000 0.000000 0.792348
O O9 0.584206 0.000000 0.000000
O O10 0.368354 0.299484 0.720129
O O11 0.258591 0.375004 0.796830
O O12 0.636797 0.770123 0.500000
O O13 0.750000 0.750000 0.652150
O O14 0.640634 0.818913 0.749302
O O15 0.834667 0.635249 0.000000
#
# Coordination Sequence:
#
# PCOD9491462 Si02
#       6
#     8   8   8  16  16  16
#     4  11  24  40  57  82 122 165 204 241 289 345
#     4  11  24  38  55  84 126 159 190 247 305 343
#     4   9  20  40  61  87 122 151 187 241 303 365
#     4  11  21  37  61  87 119 155 206 247 286 354
#     4   9  19  36  57  87 118 151 193 248 293 340
#     4  10  21  35  63  92 116 151 195 246 302 352
#
# _framework density 18.092244000000001
#
# number of rings (size 3 to 8) (size 9 to 14) (size 15 to 20)
#    0.000    1.889    2.222    1.333    6.222    3.111 
#    0.000    2.778    0.000    0.667    0.000    0.000 
#    0.000    0.000    0.000    0.000    0.000    0.000 
#
# Total GULP energy -200630.166691 kJ/mol
# GULP energy per Si atom -5573.060186 kJ/mol
# Density = 1.805107 g / cm^3
# Si number density = 18.092244 Si / 1000 Ang^3
#
#
#
# Elastic Constant Matrix: (Units=GPa)
#
#
# Indices 1 2 3 4 5 6 
#
# 1 49.9738 51.3512 35.5018 0.0000 0.0000 0.0000
# 2 51.3512 185.3471 95.9417 0.0000 0.0000 0.0000
# 3 35.5018 95.9417 169.9402 0.0000 0.0000 0.0000
# 4 0.0000 0.0000 0.0000 48.7965 0.0000 0.0000
# 5 0.0000 0.0000 0.0000 0.0000 -101.8214 0.0000
# 6 0.0000 0.0000 0.0000 0.0000 0.0000 -28.5369
#
#
#
# Elastic Compliance Matrix: (Units=1/GPa)
#
#
# Indices 1 2 3 4 5 6 
#
# 1 0.028502 -0.006802 -0.002114 0.000000 0.000000 0.000000
# 2 -0.006802 0.009246 -0.003799 0.000000 0.000000 0.000000
# 3 -0.002114 -0.003799 0.008471 0.000000 0.000000 0.000000
# 4 0.000000 0.000000 0.000000 0.020493 0.000000 0.000000
# 5 0.000000 0.000000 0.000000 0.000000 -0.009821 0.000000
# 6 0.000000 0.000000 0.000000 0.000000 0.000000 -0.035042
#
#
# Mechanical properties :
#
#
# Convention : Reuss Voigt Hill
#
# Bulk Modulus (GPa) = 48.10339 85.65006 66.87673
# Shear Modulus (GPa) = 92.23441 -1.48126 45.37658
#
# Velocity S-wave (km/s) = 7.14778 -0.90582 5.01349
# Velocity P-wave (km/s) = 9.73481 6.80805 8.39988
#
# Compressibility (1/GPa) = 0.02078855
#
# Stress axis : x y z
#
# Youngs Moduli (GPa) = 35.08510 108.14954 118.05147
#
# Poissons Ratio (x) = 0.73567 0.24956
# Poissons Ratio (y) = 0.23866 0.44849
# Poissons Ratio (z) = 0.07417 0.41087
#
# Static dielectric constant tensor:
#      x y z
#    x 1.626000 0.000000 0.000000 
#    y 0.000000 1.653750 0.000000 
#    z 0.000000 0.000000 1.655020 
# 
# From -- ./inp_files/11304.got.cif
#   From: 2010.05.17/outbox.cif.g08.bks.cpg/sg65_6_cif.got.tgz:11304.got - 2010.06.03 17:01:31.
