data_PCOD9491117
_publ_section_title
;
Structure prediction by ZEFSAII (Michael W. Deem and Ramdas Pophale) SiO2 
 PCOD9491117
Probable space group: C M M M
;
_chemical_formula_sum "Si O2"
_cell_formula_units_Z 72
_cell_length_a 14.247083
_cell_length_b 15.202750
_cell_length_c 16.621309
_cell_angle_alpha 90.000000
_cell_angle_beta 90.000000
_cell_angle_gamma 90.000000
_cell_volume 3600.089781
_symmetry_space_group_name_H-M "C M M M"
_symmetry_group_IT_number 65
_symmetry_cell_setting 'orthorhombic'
loop_
_space_group_symop_operation_xyz
x,y,z
-x,-y,z
x,-y,-z
-x,y,-z
-x,-y,-z
x,y,-z
-x,y,z
x,-y,z
1/2+x,1/2+y,z
1/2-x,1/2-y,z
1/2+x,1/2-y,-z
1/2-x,1/2+y,-z
1/2-x,1/2-y,-z
1/2+x,1/2+y,-z
1/2-x,1/2+y,z
1/2+x,1/2-y,z
loop_
_atom_site_type_symbol
_atom_site_label
_atom_site_fract_x
_atom_site_fract_y
_atom_site_fract_z
Si Si1 0.602341 0.397485 0.819677
Si Si2 0.609430 0.392520 0.500000
Si Si3 0.289341 0.392001 0.663613
Si Si4 0.894060 0.606608 0.752114
Si Si5 0.720259 0.851315 0.911275
O O1 0.500000 0.359957 0.840018
O O2 0.590669 0.500000 0.801499
O O3 0.647204 0.358980 0.738316
O O4 0.680768 0.394660 0.887917
O O5 0.608430 0.500000 0.500000
O O6 0.500000 0.365040 0.500000
O O7 0.665340 0.364268 0.420210
O O8 0.289681 0.500000 0.663768
O O9 0.183201 0.364992 0.686015
O O10 0.895970 0.500000 0.749932
O O11 0.852731 0.631396 0.839735
O O12 0.000000 0.638933 0.740130
O O13 0.750000 0.750000 0.911947
O O14 0.686890 0.877638 0.000000
#
# Coordination Sequence:
#
# PCOD9491117 Si02
#       5
#    16   8  16  16  16
#     4   9  17  30  48  68  92 122 152 184 227 279
#     4   9  14  20  37  67 100 129 153 182 227 279
#     4   8  14  25  41  65  96 124 152 188 228 271
#     4   9  18  33  51  68  90 125 165 199 231 272
#     4  10  21  34  47  67  94 120 150 194 242 283
#
# _framework density 19.999502
#
# number of rings (size 3 to 8) (size 9 to 14) (size 15 to 20)
#    0.000    3.000    0.000    2.667    0.000    6.222 
#    0.000    5.000    0.000    3.333    0.000   12.444 
#    0.000   14.222    0.000    0.000    0.000    0.000 
#
# Total GULP energy -200578.774438 kJ/mol
# GULP energy per Si atom -5571.632623 kJ/mol
# Density = 1.995398 g / cm^3
# Si number density = 19.999502 Si / 1000 Ang^3
#
#
#
# Elastic Constant Matrix: (Units=GPa)
#
#
# Indices 1 2 3 4 5 6 
#
# 1 177.4037 11.0463 70.3455 0.0000 0.0000 0.0000
# 2 11.0463 16.4415 1.7502 0.0000 0.0000 0.0000
# 3 70.3455 1.7502 120.4347 0.0000 0.0000 0.0000
# 4 0.0000 0.0000 0.0000 -18.8480 0.0000 0.0000
# 5 0.0000 0.0000 0.0000 0.0000 16.2911 0.0000
# 6 0.0000 0.0000 0.0000 0.0000 0.0000 -1.1672
#
#
#
# Elastic Compliance Matrix: (Units=1/GPa)
#
#
# Indices 1 2 3 4 5 6 
#
# 1 0.007681 -0.004690 -0.004418 0.000000 0.000000 0.000000
# 2 -0.004690 0.063780 0.001813 0.000000 0.000000 0.000000
# 3 -0.004418 0.001813 0.010858 0.000000 0.000000 0.000000
# 4 0.000000 0.000000 0.000000 -0.053056 0.000000 0.000000
# 5 0.000000 0.000000 0.000000 0.000000 0.061383 0.000000
# 6 0.000000 0.000000 0.000000 0.000000 0.000000 -0.856749
#
#
# Mechanical properties :
#
#
# Convention : Reuss Voigt Hill
#
# Bulk Modulus (GPa) = 14.76518 53.39598 34.08058
# Shear Modulus (GPa) = -6.85930 14.66438 3.90254
#
# Velocity S-wave (km/s) = -1.85396 2.71077 1.39841
# Velocity P-wave (km/s) = 1.67806 6.04602 4.43679
#
# Compressibility (1/GPa) = 0.06772691
#
# Stress axis : x y z
#
# Youngs Moduli (GPa) = 130.19420 15.67893 92.10166
#
# Poissons Ratio (x) = 0.07354 0.40692
# Poissons Ratio (y) = 0.61063 -0.16695
# Poissons Ratio (z) = 0.57522 -0.02842
#
# Static dielectric constant tensor:
#      x y z
#    x 1.701490 0.000000 0.000000 
#    y 0.000000 1.651120 0.000000 
#    z 0.000000 0.000000 1.689760 
# 
# From -- ./inp_files/39740.got.cif
#   From: 2010.05.17/outbox.cif.g08.bks.cpg/sg65_20_cif.got.tgz:39740.got - 2010.06.03 17:01:31.
