data_PCOD9491655
_publ_section_title
;
Structure prediction by ZEFSAII (Michael W. Deem and Ramdas Pophale) SiO2 
 PCOD9491655
Probable space group: C M M M
;
_chemical_formula_sum "Si O2"
_cell_formula_units_Z 68
_cell_length_a 26.062536
_cell_length_b 16.878824
_cell_length_c 7.829036
_cell_angle_alpha 90.000000
_cell_angle_beta 90.000000
_cell_angle_gamma 90.000000
_cell_volume 3444.031754
_symmetry_space_group_name_H-M "C M M M"
_symmetry_group_IT_number 65
_symmetry_cell_setting 'orthorhombic'
loop_
_space_group_symop_operation_xyz
x,y,z
-x,-y,z
x,-y,-z
-x,y,-z
-x,-y,-z
x,y,-z
-x,y,z
x,-y,z
1/2+x,1/2+y,z
1/2-x,1/2-y,z
1/2+x,1/2-y,-z
1/2-x,1/2+y,-z
1/2-x,1/2-y,-z
1/2+x,1/2+y,-z
1/2-x,1/2+y,z
1/2+x,1/2-y,z
loop_
_atom_site_type_symbol
_atom_site_label
_atom_site_fract_x
_atom_site_fract_y
_atom_site_fract_z
Si Si1 0.854130 0.212265 0.806569
Si Si2 0.059153 0.089869 0.706618
Si Si3 0.770494 0.087428 0.295818
Si Si4 0.616870 0.000000 0.000000
Si Si5 0.149820 0.386391 0.304078
O O1 0.901826 0.154102 0.775632
O O2 0.803887 0.159141 0.773610
O O3 0.857401 0.291926 0.698858
O O4 0.853039 0.239623 0.000000
O O5 0.061749 0.091649 0.500000
O O6 0.000000 0.104614 0.755609
O O7 0.072627 0.000000 0.759914
O O8 0.778021 0.087657 0.500000
O O9 0.710083 0.097454 0.264441
O O10 0.786333 0.000000 0.231138
O O11 0.619779 0.931436 0.154103
O O12 0.139848 0.412694 0.500000
#
# Coordination Sequence:
#
# PCOD9491655 Si02
#       5
#    16  16  16   4  16
#     4  12  24  34  53  86 117 151 195 243 287 340
#     4   9  19  38  61  83 113 154 195 235 286 348
#     4  10  21  36  54  77 113 159 199 235 284 339
#     4  12  22  40  62  86 111 148 203 244 290 352
#     4  11  23  40  59  81 116 157 195 243 291 340
#
# _framework density 19.744301
#
# number of rings (size 3 to 8) (size 9 to 14) (size 15 to 20)
#    0.000    1.412    2.353    4.588    1.647    7.059 
#    0.000    1.176    0.000    0.000    0.000    1.647 
#    0.000    3.765    0.000    0.000    0.000    0.000 
#
# Total GULP energy -189399.996444 kJ/mol
# GULP energy per Si atom -5570.588131 kJ/mol
# Density = 1.969936 g / cm^3
# Si number density = 19.744301 Si / 1000 Ang^3
#
#
#
# Elastic Constant Matrix: (Units=GPa)
#
#
# Indices 1 2 3 4 5 6 
#
# 1 17.5618 9.8389 4.2666 0.0000 0.0000 0.0000
# 2 9.8389 126.5591 16.9449 0.0000 0.0000 0.0000
# 3 4.2666 16.9449 77.0460 0.0000 0.0000 0.0000
# 4 0.0000 0.0000 0.0000 33.8040 0.0000 0.0000
# 5 0.0000 0.0000 0.0000 0.0000 38.3144 0.0000
# 6 0.0000 0.0000 0.0000 0.0000 0.0000 81.5801
#
#
#
# Elastic Compliance Matrix: (Units=1/GPa)
#
#
# Indices 1 2 3 4 5 6 
#
# 1 0.059950 -0.004344 -0.002364 0.000000 0.000000 0.000000
# 2 -0.004344 0.008456 -0.001619 0.000000 0.000000 0.000000
# 3 -0.002364 -0.001619 0.013466 0.000000 0.000000 0.000000
# 4 0.000000 0.000000 0.000000 0.029582 0.000000 0.000000
# 5 0.000000 0.000000 0.000000 0.000000 0.026100 0.000000
# 6 0.000000 0.000000 0.000000 0.000000 0.000000 0.012258
#
#
# Mechanical properties :
#
#
# Convention : Reuss Voigt Hill
#
# Bulk Modulus (GPa) = 15.33344 31.47418 23.40381
# Shear Modulus (GPa) = 26.56654 43.41414 34.99034
#
# Velocity S-wave (km/s) = 3.67213 4.69424 4.21429
# Velocity P-wave (km/s) = 5.07565 6.73474 5.96318
#
# Compressibility (1/GPa) = 0.06521693
#
# Stress axis : x y z
#
# Youngs Moduli (GPa) = 16.68055 118.25998 74.25943
#
# Poissons Ratio (x) = 0.51373 0.17558
# Poissons Ratio (y) = 0.07246 0.12024
# Poissons Ratio (z) = 0.03944 0.19148
#
# Static dielectric constant tensor:
#      x y z
#    x 1.670590 0.000000 0.000000 
#    y 0.000000 1.709250 0.000000 
#    z 0.000000 0.000000 1.718520 
# 
# From -- ./inp_files/9207.got.cif
#   From: 2010.05.17/outbox.cif.g08.bks.cpg/sg65_5_cif.got.tgz:9207.got - 2010.06.03 17:01:31.
