data_PCOD9491281
_publ_section_title
;
Structure prediction by ZEFSAII (Michael W. Deem and Ramdas Pophale) SiO2 
 PCOD9491281
Probable space group: C M M M
;
_chemical_formula_sum "Si O2"
_cell_formula_units_Z 88
_cell_length_a 7.706902
_cell_length_b 18.408989
_cell_length_c 31.857014
_cell_angle_alpha 90.000000
_cell_angle_beta 90.000000
_cell_angle_gamma 90.000000
_cell_volume 4519.754452
_symmetry_space_group_name_H-M "C M M M"
_symmetry_group_IT_number 65
_symmetry_cell_setting 'orthorhombic'
loop_
_space_group_symop_operation_xyz
x,y,z
-x,-y,z
x,-y,-z
-x,y,-z
-x,-y,-z
x,y,-z
-x,y,z
x,-y,z
1/2+x,1/2+y,z
1/2-x,1/2-y,z
1/2+x,1/2-y,-z
1/2-x,1/2+y,-z
1/2-x,1/2-y,-z
1/2+x,1/2+y,-z
1/2-x,1/2+y,z
1/2+x,1/2-y,z
loop_
_atom_site_type_symbol
_atom_site_label
_atom_site_fract_x
_atom_site_fract_y
_atom_site_fract_z
Si Si1 0.708751 0.836149 0.954899
Si Si2 0.795887 0.912708 0.612393
Si Si3 0.205788 0.165330 0.302686
Si Si4 0.290681 0.164583 0.863596
Si Si5 0.793169 0.581544 0.781836
Si Si6 0.000000 0.588278 0.547821
O O1 0.500000 0.844493 0.955087
O O2 0.750000 0.750000 0.954866
O O3 0.772963 0.862510 0.909422
O O4 0.773922 0.865249 0.000000
O O5 0.732160 0.874467 0.655062
O O6 0.671011 0.890883 0.574166
O O7 0.000000 0.895552 0.605154
O O8 0.783701 0.000000 0.617737
O O9 0.250000 0.250000 0.303145
O O10 0.267504 0.127671 0.260132
O O11 0.000000 0.157359 0.303039
O O12 0.500000 0.158533 0.864165
O O13 0.250000 0.250000 0.859374
O O14 0.222945 0.121396 0.823337
O O15 0.723273 0.500000 0.776975
O O16 0.000000 0.576238 0.787772
O O17 0.000000 0.500000 0.546334
O O18 0.000000 0.614823 0.500000
#
# Coordination Sequence:
#
# PCOD9491281 Si02
#       6
#    16  16  16  16  16   8
#     4   8  13  22  38  60  86 116 152 197 248 298
#     4   9  19  35  55  82 114 147 184 229 274 319
#     4  11  23  37  55  80 105 137 174 217 263 315
#     4   9  17  29  45  67  94 124 161 206 253 307
#     4  10  21  35  51  71  99 135 171 210 259 313
#     4   9  18  32  56  88 116 148 187 227 272 320
#
# _framework density 19.470084
#
# number of rings (size 3 to 8) (size 9 to 14) (size 15 to 20)
#    0.000    2.636    0.000    1.636    2.545    3.636 
#    0.000    1.818    0.000    1.091    0.000    3.818 
#    0.000    0.000    0.000   31.091    0.000   15.636 
#
# Total GULP energy -245259.667611 kJ/mol
# GULP energy per Si atom -5574.083355 kJ/mol
# Density = 1.942577 g / cm^3
# Si number density = 19.470084 Si / 1000 Ang^3
#
#
#
# Elastic Constant Matrix: (Units=GPa)
#
#
# Indices 1 2 3 4 5 6 
#
# 1 51.9955 16.5377 45.6543 0.0000 0.0000 0.0000
# 2 16.5377 62.5553 71.3021 0.0000 0.0000 0.0000
# 3 45.6543 71.3021 236.1275 0.0000 0.0000 0.0000
# 4 0.0000 0.0000 0.0000 26.2643 0.0000 0.0000
# 5 0.0000 0.0000 0.0000 0.0000 28.4521 0.0000
# 6 0.0000 0.0000 0.0000 0.0000 0.0000 10.0169
#
#
#
# Elastic Compliance Matrix: (Units=1/GPa)
#
#
# Indices 1 2 3 4 5 6 
#
# 1 0.023265 -0.001560 -0.004027 0.000000 0.000000 0.000000
# 2 -0.001560 0.024480 -0.007090 0.000000 0.000000 0.000000
# 3 -0.004027 -0.007090 0.007155 0.000000 0.000000 0.000000
# 4 0.000000 0.000000 0.000000 0.038075 0.000000 0.000000
# 5 0.000000 0.000000 0.000000 0.000000 0.035147 0.000000
# 6 0.000000 0.000000 0.000000 0.000000 0.000000 0.099832
#
#
# Mechanical properties :
#
#
# Convention : Reuss Voigt Hill
#
# Bulk Modulus (GPa) = 33.84807 68.62962 51.23884
# Shear Modulus (GPa) = 19.00013 27.42560 23.21287
#
# Velocity S-wave (km/s) = 3.12727 3.75721 3.45662
# Velocity P-wave (km/s) = 5.51925 7.35849 6.50421
#
# Compressibility (1/GPa) = 0.02954379
#
# Stress axis : x y z
#
# Youngs Moduli (GPa) = 42.98386 40.84924 139.76930
#
# Poissons Ratio (x) = 0.06374 0.56284
# Poissons Ratio (y) = 0.06708 0.99103
# Poissons Ratio (z) = 0.17309 0.28964
#
# Static dielectric constant tensor:
#      x y z
#    x 1.719460 0.000000 0.000000 
#    y 0.000000 1.660430 0.000000 
#    z 0.000000 0.000000 1.717140 
# 
# From -- ./inp_files/76466.got.cif
#   From: 2010.05.17/outbox.cif.g08.bks.cpg/sg65_39_cif.got.tgz:76466.got - 2010.06.03 17:01:31.
