data_PCOD9491299
_publ_section_title
;
Structure prediction by ZEFSAII (Michael W. Deem and Ramdas Pophale) SiO2 
 PCOD9491299
Probable space group: C M M M
;
_chemical_formula_sum "Si O2"
_cell_formula_units_Z 88
_cell_length_a 18.876376
_cell_length_b 7.536665
_cell_length_c 30.591413
_cell_angle_alpha 90.000000
_cell_angle_beta 90.000000
_cell_angle_gamma 90.000000
_cell_volume 4352.084994
_symmetry_space_group_name_H-M "C M M M"
_symmetry_group_IT_number 65
_symmetry_cell_setting 'orthorhombic'
loop_
_space_group_symop_operation_xyz
x,y,z
-x,-y,z
x,-y,-z
-x,y,-z
-x,-y,-z
x,y,-z
-x,y,z
x,-y,z
1/2+x,1/2+y,z
1/2-x,1/2-y,z
1/2+x,1/2-y,-z
1/2-x,1/2+y,-z
1/2-x,1/2-y,-z
1/2+x,1/2+y,-z
1/2-x,1/2+y,z
1/2+x,1/2-y,z
loop_
_atom_site_type_symbol
_atom_site_label
_atom_site_fract_x
_atom_site_fract_y
_atom_site_fract_z
Si Si1 0.665408 0.286842 0.047070
Si Si2 0.165569 0.787156 0.858859
Si Si3 0.418965 0.212511 0.583563
Si Si4 0.832914 0.286957 0.500000
Si Si5 0.666473 0.286781 0.763921
Si Si6 0.080801 0.787060 0.319400
O O1 0.656406 0.500000 0.047030
O O2 0.750000 0.250000 0.047103
O O3 0.637944 0.219589 0.094128
O O4 0.637987 0.219724 0.000000
O O5 0.250000 0.750000 0.858767
O O6 0.140163 0.720157 0.811552
O O7 0.155949 0.000000 0.859116
O O8 0.500000 0.280970 0.581056
O O9 0.371510 0.280502 0.543796
O O10 0.390436 0.248937 0.632166
O O11 0.422746 0.000000 0.579343
O O12 0.840915 0.500000 0.500000
O O13 0.750000 0.250000 0.500000
O O14 0.658277 0.500000 0.764728
O O15 0.750000 0.250000 0.760197
O O16 0.625645 0.218368 0.721466
O O17 0.000000 0.719508 0.317865
O O18 0.078159 0.000000 0.315588
#
# Coordination Sequence:
#
# PCOD9491299 Si02
#       6
#    16  16  16   8  16  16
#     4   8  12  17  26  41  62  89 121 156 193 234
#     4   8  13  21  32  47  69  97 128 160 197 242
#     4   9  18  34  54  71  88 115 149 179 208 245
#     4  10  21  35  51  73  99 122 144 174 210 248
#     4   9  17  28  42  60  83 111 140 171 209 253
#     4   9  18  32  48  66  88 113 143 179 214 247
#
# _framework density 20.220192999999998
#
# number of rings (size 3 to 8) (size 9 to 14) (size 15 to 20)
#    0.000    3.273    0.000    0.273    0.000    3.273 
#    0.000    3.636    0.000    2.727    0.000    0.000 
#    0.000    0.727    0.000   10.182    0.000    3.455 
#
# Total GULP energy -244936.707097 kJ/mol
# GULP energy per Si atom -5566.743343 kJ/mol
# Density = 2.017417 g / cm^3
# Si number density = 20.220193 Si / 1000 Ang^3
#
#
#
# Elastic Constant Matrix: (Units=GPa)
#
#
# Indices 1 2 3 4 5 6 
#
# 1 36.4224 -0.0444 76.4613 0.0000 0.0000 0.0000
# 2 -0.0444 54.7142 8.0248 0.0000 0.0000 0.0000
# 3 76.4613 8.0248 289.1870 0.0000 0.0000 0.0000
# 4 0.0000 0.0000 0.0000 4.5960 0.0000 0.0000
# 5 0.0000 0.0000 0.0000 0.0000 -32.7201 0.0000
# 6 0.0000 0.0000 0.0000 0.0000 0.0000 10.5211
#
#
#
# Elastic Compliance Matrix: (Units=1/GPa)
#
#
# Indices 1 2 3 4 5 6 
#
# 1 0.062035 0.002466 -0.016471 0.000000 0.000000 0.000000
# 2 0.002466 0.018450 -0.001164 0.000000 0.000000 0.000000
# 3 -0.016471 -0.001164 0.007845 0.000000 0.000000 0.000000
# 4 0.000000 0.000000 0.000000 0.217581 0.000000 0.000000
# 5 0.000000 0.000000 0.000000 0.000000 -0.030562 0.000000
# 6 0.000000 0.000000 0.000000 0.000000 0.000000 0.095047
#
#
# Mechanical properties :
#
#
# Convention : Reuss Voigt Hill
#
# Bulk Modulus (GPa) = 17.24352 61.02300 39.13326
# Shear Modulus (GPa) = 11.90296 16.20485 14.05391
#
# Velocity S-wave (km/s) = 2.42888 2.83401 2.63923
# Velocity P-wave (km/s) = 4.05121 6.39950 5.35564
#
# Compressibility (1/GPa) = 0.05799280
#
# Stress axis : x y z
#
# Youngs Moduli (GPa) = 16.11986 54.20192 127.46793
#
# Poissons Ratio (x) = -0.13366 2.09947
# Poissons Ratio (y) = -0.03975 0.14837
# Poissons Ratio (z) = 0.26550 0.06309
#
# Static dielectric constant tensor:
#      x y z
#    x 1.674670 0.000000 0.000000 
#    y 0.000000 1.747090 0.000000 
#    z 0.000000 0.000000 1.801780 
# 
# From -- ./inp_files/75333.got.cif
#   From: 2010.05.17/outbox.cif.g08.bks.cpg/sg65_38_cif.got.tgz:75333.got - 2010.06.03 17:01:31.
