data_PCOD9491124
_publ_section_title
;
Structure prediction by ZEFSAII (Michael W. Deem and Ramdas Pophale) SiO2 
 PCOD9491124
Probable space group: C M M M
;
_chemical_formula_sum "Si O2"
_cell_formula_units_Z 72
_cell_length_a 25.836197
_cell_length_b 8.957399
_cell_length_c 17.108464
_cell_angle_alpha 90.000000
_cell_angle_beta 90.000000
_cell_angle_gamma 90.000000
_cell_volume 3959.328423
_symmetry_space_group_name_H-M "C M M M"
_symmetry_group_IT_number 65
_symmetry_cell_setting 'orthorhombic'
loop_
_space_group_symop_operation_xyz
x,y,z
-x,-y,z
x,-y,-z
-x,y,-z
-x,-y,-z
x,y,-z
-x,y,z
x,-y,z
1/2+x,1/2+y,z
1/2-x,1/2-y,z
1/2+x,1/2-y,-z
1/2-x,1/2+y,-z
1/2-x,1/2-y,-z
1/2+x,1/2+y,-z
1/2-x,1/2+y,z
1/2+x,1/2-y,z
loop_
_atom_site_type_symbol
_atom_site_label
_atom_site_fract_x
_atom_site_fract_y
_atom_site_fract_z
Si Si1 0.585595 0.824638 0.304053
Si Si2 0.941696 0.324561 0.122363
Si Si3 0.302729 0.178881 0.752345
Si Si4 0.664190 0.322588 0.913658
Si Si5 0.500000 0.678228 0.410109
O O1 0.562476 0.810699 0.216474
O O2 0.645511 0.777374 0.295108
O O3 0.550338 0.736810 0.364279
O O4 0.584136 0.000000 0.324090
O O5 0.931953 0.500000 0.103874
O O6 0.896286 0.223695 0.088736
O O7 0.000000 0.287374 0.097808
O O8 0.250000 0.250000 0.721531
O O9 0.310779 0.236241 0.841162
O O10 0.299930 0.000000 0.753192
O O11 0.669830 0.500000 0.902180
O O12 0.684435 0.283167 0.000000
O O13 0.500000 0.500000 0.408764
O O14 0.500000 0.729448 0.500000
#
# Coordination Sequence:
#
# PCOD9491124 Si02
#       5
#    16  16  16  16   8
#     4   9  18  35  56  79 108 141 178 216 257 314
#     4   9  17  31  50  71  98 134 178 223 268 321
#     4  10  21  37  58  81 104 136 181 227 271 320
#     4  10  21  34  47  69 102 138 179 226 274 322
#     4  11  23  35  53  87 122 147 172 207 255 306
#
# _framework density 18.184902999999998
#
# number of rings (size 3 to 8) (size 9 to 14) (size 15 to 20)
#    0.000    2.333    1.111    3.000    0.000    8.444 
#    0.000    2.222    0.000    0.667    0.000    0.000 
#    0.000    0.000    0.000    0.000    0.000    0.000 
#
# Total GULP energy -200936.901049 kJ/mol
# GULP energy per Si atom -5581.580585 kJ/mol
# Density = 1.814351 g / cm^3
# Si number density = 18.184903 Si / 1000 Ang^3
#
#
#
# Elastic Constant Matrix: (Units=GPa)
#
#
# Indices 1 2 3 4 5 6 
#
# 1 139.4792 39.9732 42.2135 0.0000 0.0000 0.0000
# 2 39.9732 44.7559 37.4059 0.0000 0.0000 0.0000
# 3 42.2135 37.4059 88.8119 0.0000 0.0000 0.0000
# 4 0.0000 0.0000 0.0000 111.7054 0.0000 0.0000
# 5 0.0000 0.0000 0.0000 0.0000 17.4121 0.0000
# 6 0.0000 0.0000 0.0000 0.0000 0.0000 33.4850
#
#
#
# Elastic Compliance Matrix: (Units=1/GPa)
#
#
# Indices 1 2 3 4 5 6 
#
# 1 0.009763 -0.007471 -0.001494 0.000000 0.000000 0.000000
# 2 -0.007471 0.040199 -0.013380 0.000000 0.000000 0.000000
# 3 -0.001494 -0.013380 0.017605 0.000000 0.000000 0.000000
# 4 0.000000 0.000000 0.000000 0.008952 0.000000 0.000000
# 5 0.000000 0.000000 0.000000 0.000000 0.057431 0.000000
# 6 0.000000 0.000000 0.000000 0.000000 0.000000 0.029864
#
#
# Mechanical properties :
#
#
# Convention : Reuss Voigt Hill
#
# Bulk Modulus (GPa) = 43.71151 56.91468 50.31310
# Shear Modulus (GPa) = 23.13437 42.75080 32.94258
#
# Velocity S-wave (km/s) = 3.57063 4.85386 4.26083
# Velocity P-wave (km/s) = 6.41004 7.92332 7.20651
#
# Compressibility (1/GPa) = 0.02287727
#
# Stress axis : x y z
#
# Youngs Moduli (GPa) = 102.43048 24.87649 56.80199
#
# Poissons Ratio (x) = 0.18585 0.08484
# Poissons Ratio (y) = 0.76527 0.76000
# Poissons Ratio (z) = 0.15300 0.33284
#
# Static dielectric constant tensor:
#      x y z
#    x 1.651320 0.000000 0.000000 
#    y 0.000000 1.602770 0.000000 
#    z 0.000000 0.000000 1.614720 
# 
# From -- ./inp_files/36574.got.cif
#   From: 2010.05.17/outbox.cif.g08.bks.cpg/sg65_19_cif.got.tgz:36574.got - 2010.06.03 17:01:31.
