data_PCOD9491588
_publ_section_title
;
Structure prediction by ZEFSAII (Michael W. Deem and Ramdas Pophale) SiO2 
 PCOD9491588
Probable space group: C M M M
;
_chemical_formula_sum "Si O2"
_cell_formula_units_Z 96
_cell_length_a 8.759862
_cell_length_b 19.304626
_cell_length_c 31.829775
_cell_angle_alpha 90.000000
_cell_angle_beta 90.000000
_cell_angle_gamma 90.000000
_cell_volume 5382.601466
_symmetry_space_group_name_H-M "C M M M"
_symmetry_group_IT_number 65
_symmetry_cell_setting 'orthorhombic'
loop_
_space_group_symop_operation_xyz
x,y,z
-x,-y,z
x,-y,-z
-x,y,-z
-x,-y,-z
x,y,-z
-x,y,z
x,-y,z
1/2+x,1/2+y,z
1/2-x,1/2-y,z
1/2+x,1/2-y,-z
1/2-x,1/2+y,-z
1/2-x,1/2-y,-z
1/2+x,1/2+y,-z
1/2-x,1/2+y,z
1/2+x,1/2-y,z
loop_
_atom_site_type_symbol
_atom_site_label
_atom_site_fract_x
_atom_site_fract_y
_atom_site_fract_z
Si Si1 0.816962 0.672167 0.207676
Si Si2 0.683888 0.172664 0.699445
Si Si3 0.817362 0.174786 0.548848
Si Si4 0.181306 0.172618 0.878134
Si Si5 0.184649 0.419907 0.620608
Si Si6 0.682892 0.081777 0.048110
O O1 0.750000 0.750000 0.208681
O O2 0.777470 0.643833 0.253964
O O3 0.746379 0.640839 0.165459
O O4 0.000000 0.674084 0.203557
O O5 0.500000 0.178326 0.698001
O O6 0.750000 0.250000 0.694669
O O7 0.733927 0.123113 0.661772
O O8 0.776996 0.161540 0.500000
O O9 0.750000 0.250000 0.560348
O O10 0.750829 0.117565 0.579761
O O11 0.000000 0.177226 0.552220
O O12 0.250000 0.250000 0.882513
O O13 0.232214 0.127166 0.917565
O O14 0.000000 0.177840 0.875281
O O15 0.230828 0.500000 0.623031
O O16 0.000000 0.417343 0.618851
O O17 0.500000 0.091222 0.052551
O O18 0.714474 0.000000 0.053654
O O19 0.723718 0.100294 0.000000
#
# Coordination Sequence:
#
# PCOD9491588 Si02
#       6
#    16  16  16  16  16  16
#     4   9  16  29  49  73 101 132 169 212 258 305
#     4   9  18  32  52  76 100 131 172 215 257 303
#     4  10  21  37  57  80 105 134 172 216 259 307
#     4  11  21  33  52  78 108 138 171 213 258 305
#     4  10  21  36  53  76 108 142 175 212 256 306
#     4   9  19  37  58  77 100 133 172 212 256 309
#
# _framework density 17.835242000000001
#
# number of rings (size 3 to 8) (size 9 to 14) (size 15 to 20)
#    0.000    2.333    0.000    4.500    0.000    5.333 
#    0.000    3.333    0.000    3.000    0.000    0.000 
#    0.000    0.000    0.000    0.000    0.000    0.000 
#
# Total GULP energy -267746.540952 kJ/mol
# GULP energy per Si atom -5578.052937 kJ/mol
# Density = 1.779465 g / cm^3
# Si number density = 17.835242 Si / 1000 Ang^3
#
#
#
# Elastic Constant Matrix: (Units=GPa)
#
#
# Indices 1 2 3 4 5 6 
#
# 1 57.0183 39.6005 55.8803 0.0000 0.0000 0.0000
# 2 39.6005 89.9715 89.5431 0.0000 0.0000 0.0000
# 3 55.8803 89.5431 153.1591 0.0000 0.0000 0.0000
# 4 0.0000 0.0000 0.0000 -18.8747 0.0000 0.0000
# 5 0.0000 0.0000 0.0000 0.0000 26.0676 0.0000
# 6 0.0000 0.0000 0.0000 0.0000 0.0000 24.0589
#
#
#
# Elastic Compliance Matrix: (Units=1/GPa)
#
#
# Indices 1 2 3 4 5 6 
#
# 1 0.028286 -0.005211 -0.007274 0.000000 0.000000 0.000000
# 2 -0.005211 0.027541 -0.014200 0.000000 0.000000 0.000000
# 3 -0.007274 -0.014200 0.017485 0.000000 0.000000 0.000000
# 4 0.000000 0.000000 0.000000 -0.052981 0.000000 0.000000
# 5 0.000000 0.000000 0.000000 0.000000 0.038362 0.000000
# 6 0.000000 0.000000 0.000000 0.000000 0.000000 0.041565
#
#
# Mechanical properties :
#
#
# Convention : Reuss Voigt Hill
#
# Bulk Modulus (GPa) = 50.14525 74.46630 62.30578
# Shear Modulus (GPa) = 31.19652 13.92535 22.56093
#
# Velocity S-wave (km/s) = 4.18682 2.79727 3.56049
# Velocity P-wave (km/s) = 7.17980 7.23021 7.20505
#
# Compressibility (1/GPa) = 0.01994207
#
# Stress axis : x y z
#
# Youngs Moduli (GPa) = 35.35348 36.30965 57.19171
#
# Poissons Ratio (x) = 0.18920 0.41599
# Poissons Ratio (y) = 0.18422 0.81214
# Poissons Ratio (z) = 0.25715 0.51561
#
# Static dielectric constant tensor:
#      x y z
#    x 1.598380 0.000000 0.000000 
#    y 0.000000 1.581840 0.000000 
#    z 0.000000 0.000000 1.639490 
# 
# From -- ./inp_files/73147.got.cif
#   From: 2010.05.17/outbox.cif.g08.bks.cpg/sg65_37_cif.got.tgz:73147.got - 2010.06.03 17:01:31.
