data_PCOD9491480
_publ_section_title
;
Structure prediction by ZEFSAII (Michael W. Deem and Ramdas Pophale) SiO2 
 PCOD9491480
Probable space group: C M M M
;
_chemical_formula_sum "Si O2"
_cell_formula_units_Z 96
_cell_length_a 32.818619
_cell_length_b 9.408569
_cell_length_c 15.005834
_cell_angle_alpha 90.000000
_cell_angle_beta 90.000000
_cell_angle_gamma 90.000000
_cell_volume 4633.445021
_symmetry_space_group_name_H-M "C M M M"
_symmetry_group_IT_number 65
_symmetry_cell_setting 'orthorhombic'
loop_
_space_group_symop_operation_xyz
x,y,z
-x,-y,z
x,-y,-z
-x,y,-z
-x,-y,-z
x,y,-z
-x,y,z
x,-y,z
1/2+x,1/2+y,z
1/2-x,1/2-y,z
1/2+x,1/2-y,-z
1/2-x,1/2+y,-z
1/2-x,1/2-y,-z
1/2+x,1/2+y,-z
1/2-x,1/2+y,z
1/2+x,1/2-y,z
loop_
_atom_site_type_symbol
_atom_site_label
_atom_site_fract_x
_atom_site_fract_y
_atom_site_fract_z
Si Si1 0.212737 0.659350 0.894227
Si Si2 0.455794 0.169962 0.655643
Si Si3 0.045073 0.169817 0.154934
Si Si4 0.288378 0.340481 0.606870
Si Si5 0.368350 0.839114 0.356577
Si Si6 0.376716 0.163651 0.857637
O O1 0.211867 0.500000 0.855025
O O2 0.250000 0.750000 0.857150
O O3 0.167555 0.722058 0.884110
O O4 0.219548 0.646141 0.000000
O O5 0.500000 0.191116 0.610992
O O6 0.456477 0.264116 0.745254
O O7 0.413193 0.201506 0.607047
O O8 0.453542 0.000000 0.678149
O O9 0.084292 0.246052 0.112870
O O10 0.000000 0.198596 0.115350
O O11 0.050623 0.000000 0.157733
O O12 0.283789 0.349728 0.500000
O O13 0.288320 0.500000 0.643751
O O14 0.250000 0.250000 0.640711
O O15 0.331141 0.263139 0.623329
O O16 0.374918 0.839942 0.249878
O O17 0.358292 0.000000 0.385420
O O18 0.380053 0.000000 0.889127
#
# Coordination Sequence:
#
# PCOD9491480 Si02
#       6
#    16  16  16  16  16  16
#     4   9  18  33  51  69  91 121 156 191 228 274
#     4   8  14  26  44  66  94 126 155 183 220 267
#     4   9  16  25  40  65  94 122 154 190 227 269
#     4  10  21  36  52  68  88 118 155 191 229 276
#     4   9  17  29  47  72  98 121 149 188 230 269
#     4   9  18  31  47  70  97 123 153 189 229 271
#
# _framework density 20.718924000000001
#
# number of rings (size 3 to 8) (size 9 to 14) (size 15 to 20)
#    0.000    3.000    0.000    2.000    0.000    6.000 
#    0.000    1.667    0.000    1.000    0.000    7.000 
#    0.000    0.000    0.000    0.000    0.000    0.000 
#
# Total GULP energy -267435.726798 kJ/mol
# GULP energy per Si atom -5571.577642 kJ/mol
# Density = 2.067177 g / cm^3
# Si number density = 20.718924 Si / 1000 Ang^3
#
#
#
# Elastic Constant Matrix: (Units=GPa)
#
#
# Indices 1 2 3 4 5 6 
#
# 1 251.8350 114.1136 2.6174 0.0000 0.0000 0.0000
# 2 114.1136 101.8397 3.2834 0.0000 0.0000 0.0000
# 3 2.6174 3.2834 37.3825 0.0000 0.0000 0.0000
# 4 0.0000 0.0000 0.0000 1.9778 0.0000 0.0000
# 5 0.0000 0.0000 0.0000 0.0000 33.7224 0.0000
# 6 0.0000 0.0000 0.0000 0.0000 0.0000 38.1126
#
#
#
# Elastic Compliance Matrix: (Units=1/GPa)
#
#
# Indices 1 2 3 4 5 6 
#
# 1 0.008069 -0.009048 0.000230 0.000000 0.000000 0.000000
# 2 -0.009048 0.019994 -0.001123 0.000000 0.000000 0.000000
# 3 0.000230 -0.001123 0.026833 0.000000 0.000000 0.000000
# 4 0.000000 0.000000 0.000000 0.505613 0.000000 0.000000
# 5 0.000000 0.000000 0.000000 0.000000 0.029654 0.000000
# 6 0.000000 0.000000 0.000000 0.000000 0.000000 0.026238
#
#
# Mechanical properties :
#
#
# Convention : Reuss Voigt Hill
#
# Bulk Modulus (GPa) = 28.56035 70.12066 49.34051
# Shear Modulus (GPa) = 7.71659 32.83208 20.27434
#
# Velocity S-wave (km/s) = 1.93197 3.98508 3.13156
# Velocity P-wave (km/s) = 4.33489 7.42238 6.07795
#
# Compressibility (1/GPa) = 0.03501358
#
# Stress axis : x y z
#
# Youngs Moduli (GPa) = 123.93805 50.01382 37.26755
#
# Poissons Ratio (x) = 0.45254 -0.00856
# Poissons Ratio (y) = 1.12144 0.04184
# Poissons Ratio (z) = -0.02848 0.05615
#
# Static dielectric constant tensor:
#      x y z
#    x 1.793650 0.000000 0.000000 
#    y 0.000000 1.723220 0.000000 
#    z 0.000000 0.000000 1.772380 
# 
# From -- ./inp_files/68042.got.cif
#   From: 2010.05.17/outbox.cif.g08.bks.cpg/sg65_35_cif.got.tgz:68042.got - 2010.06.03 17:01:31.
