data_PCOD9491797
_publ_section_title
;
Structure prediction by ZEFSAII (Michael W. Deem and Ramdas Pophale) SiO2 
 PCOD9491797
Probable space group: C M M M
;
_chemical_formula_sum "Si O2"
_cell_formula_units_Z 80
_cell_length_a 19.274204
_cell_length_b 9.018737
_cell_length_c 25.953420
_cell_angle_alpha 90.000000
_cell_angle_beta 90.000000
_cell_angle_gamma 90.000000
_cell_volume 4511.456442
_symmetry_space_group_name_H-M "C M M M"
_symmetry_group_IT_number 65
_symmetry_cell_setting 'orthorhombic'
loop_
_space_group_symop_operation_xyz
x,y,z
-x,-y,z
x,-y,-z
-x,y,-z
-x,-y,-z
x,y,-z
-x,y,z
x,-y,z
1/2+x,1/2+y,z
1/2-x,1/2-y,z
1/2+x,1/2-y,-z
1/2-x,1/2+y,-z
1/2-x,1/2-y,-z
1/2+x,1/2+y,-z
1/2-x,1/2+y,z
1/2+x,1/2-y,z
loop_
_atom_site_type_symbol
_atom_site_label
_atom_site_fract_x
_atom_site_fract_y
_atom_site_fract_z
Si Si1 0.919370 0.822465 0.439636
Si Si2 0.325628 0.177761 0.646804
Si Si3 0.080829 0.677741 0.254766
Si Si4 0.917275 0.825203 0.146263
Si Si5 0.174623 0.323099 0.940936
O O1 0.906880 0.789960 0.500000
O O2 0.867970 0.736986 0.402297
O O3 0.000000 0.785401 0.428323
O O4 0.911518 0.000000 0.432795
O O5 0.250000 0.250000 0.648729
O O6 0.370193 0.217855 0.697622
O O7 0.319909 0.000000 0.644648
O O8 0.084525 0.500000 0.247319
O O9 0.101477 0.757796 0.201924
O O10 0.000000 0.714897 0.265993
O O11 0.877200 0.743668 0.100733
O O12 0.000000 0.804618 0.140177
O O13 0.902149 0.000000 0.145164
O O14 0.179865 0.500000 0.935057
O O15 0.250000 0.250000 0.933865
O O16 0.152380 0.291566 0.000000
#
# Coordination Sequence:
#
# PCOD9491797 Si02
#       5
#    16  16  16  16  16
#     4   9  19  37  60  84 110 142 180 222 270 324
#     4  11  23  37  55  81 112 146 183 224 271 320
#     4   9  19  37  58  78 104 140 182 227 273 322
#     4  10  21  36  56  83 112 143 180 222 269 320
#     4  10  21  37  57  80 108 144 183 223 270 323
#
# _framework density 17.732633
#
# number of rings (size 3 to 8) (size 9 to 14) (size 15 to 20)
#    0.000    2.200    0.000    3.000    0.000    7.200 
#    0.000    7.000    0.000    0.000    0.000    0.000 
#    0.000    0.000    0.000    0.000    0.000    0.000 
#
# Total GULP energy -223368.546593 kJ/mol
# GULP energy per Si atom -5584.213665 kJ/mol
# Density = 1.769227 g / cm^3
# Si number density = 17.732633 Si / 1000 Ang^3
#
#
#
# Elastic Constant Matrix: (Units=GPa)
#
#
# Indices 1 2 3 4 5 6 
#
# 1 108.1270 70.9887 107.8905 0.0000 0.0000 0.0000
# 2 70.9887 71.1583 83.9221 0.0000 0.0000 0.0000
# 3 107.8905 83.9221 153.8568 0.0000 0.0000 0.0000
# 4 0.0000 0.0000 0.0000 29.5810 0.0000 0.0000
# 5 0.0000 0.0000 0.0000 0.0000 -132.3283 0.0000
# 6 0.0000 0.0000 0.0000 0.0000 0.0000 25.4447
#
#
#
# Elastic Compliance Matrix: (Units=1/GPa)
#
#
# Indices 1 2 3 4 5 6 
#
# 1 0.037503 -0.017936 -0.016516 0.000000 0.000000 0.000000
# 2 -0.017936 0.047975 -0.013591 0.000000 0.000000 0.000000
# 3 -0.016516 -0.013591 0.025494 0.000000 0.000000 0.000000
# 4 0.000000 0.000000 0.000000 0.033805 0.000000 0.000000
# 5 0.000000 0.000000 0.000000 0.000000 -0.007557 0.000000
# 6 0.000000 0.000000 0.000000 0.000000 0.000000 0.039301
#
#
# Mechanical properties :
#
#
# Convention : Reuss Voigt Hill
#
# Bulk Modulus (GPa) = 67.16929 95.41606 81.29267
# Shear Modulus (GPa) = 18.01352 -10.77112 3.62120
#
# Velocity S-wave (km/s) = 3.19068 -2.46726 1.43058
# Velocity P-wave (km/s) = 7.17879 6.76820 6.97652
#
# Compressibility (1/GPa) = 0.01488776
#
# Stress axis : x y z
#
# Youngs Moduli (GPa) = 26.66428 20.84413 39.22482
#
# Poissons Ratio (x) = 0.37386 0.64782
# Poissons Ratio (y) = 0.47825 0.53310
# Poissons Ratio (z) = 0.44037 0.28329
#
# Static dielectric constant tensor:
#      x y z
#    x 1.579560 0.000000 0.000000 
#    y 0.000000 1.587600 0.000000 
#    z 0.000000 0.000000 1.580710 
# 
# From -- ./inp_files/72808.got.cif
#   From: 2010.05.17/outbox.cif.g08.bks.cpg/sg65_37_cif.got.tgz:72808.got - 2010.06.03 17:01:31.
