data_PCOD9491802
_publ_section_title
;
Structure prediction by ZEFSAII (Michael W. Deem and Ramdas Pophale) SiO2 
 PCOD9491802
Probable space group: C M M M
;
_chemical_formula_sum "Si O2"
_cell_formula_units_Z 72
_cell_length_a 18.670126
_cell_length_b 9.720359
_cell_length_c 20.682738
_cell_angle_alpha 90.000000
_cell_angle_beta 90.000000
_cell_angle_gamma 90.000000
_cell_volume 3753.510062
_symmetry_space_group_name_H-M "C M M M"
_symmetry_group_IT_number 65
_symmetry_cell_setting 'orthorhombic'
loop_
_space_group_symop_operation_xyz
x,y,z
-x,-y,z
x,-y,-z
-x,y,-z
-x,-y,-z
x,y,-z
-x,y,z
x,-y,z
1/2+x,1/2+y,z
1/2-x,1/2-y,z
1/2+x,1/2-y,-z
1/2-x,1/2+y,-z
1/2-x,1/2-y,-z
1/2+x,1/2+y,-z
1/2-x,1/2+y,z
1/2+x,1/2-y,z
loop_
_atom_site_type_symbol
_atom_site_label
_atom_site_fract_x
_atom_site_fract_y
_atom_site_fract_z
Si Si1 0.920838 0.000000 0.422790
Si Si2 0.412946 0.157106 0.926236
Si Si3 0.913552 0.160115 0.193991
Si Si4 0.334780 0.224674 0.572427
Si Si5 0.321300 0.155323 0.712878
O O1 0.874974 0.134361 0.410066
O O2 0.929317 0.000000 0.500000
O O3 0.000000 0.000000 0.392544
O O4 0.500000 0.157548 0.926520
O O5 0.390741 0.270638 0.874178
O O6 0.391384 0.000000 0.908922
O O7 0.389800 0.185045 0.000000
O O8 0.880246 0.258683 0.248138
O O9 0.000000 0.163679 0.197426
O O10 0.891541 0.000000 0.199992
O O11 0.358580 0.178045 0.500000
O O12 0.250000 0.250000 0.566744
O O13 0.343623 0.141061 0.637750
O O14 0.250000 0.250000 0.715560
O O15 0.309943 0.000000 0.738291
#
# Coordination Sequence:
#
# PCOD9491802 Si02
#       5
#     8  16  16  16  16
#     4   9  18  34  56  84 115 147 184 234 297 354
#     4   8  14  27  50  80 113 147 184 229 279 330
#     4  10  21  36  56  83 115 151 191 234 279 336
#     4   9  20  35  57  84 110 143 189 241 292 353
#     4  11  24  39  58  81 111 149 189 237 291 346
#
# _framework density 19.182044999999999
#
# number of rings (size 3 to 8) (size 9 to 14) (size 15 to 20)
#    0.000    2.556    0.000    2.000    7.778    3.111 
#    0.000    2.222    0.000    0.667    0.000    4.667 
#    0.000    0.000    0.000    0.000    0.000    0.000 
#
# Total GULP energy -200438.290900 kJ/mol
# GULP energy per Si atom -5567.730303 kJ/mol
# Density = 1.913839 g / cm^3
# Si number density = 19.182045 Si / 1000 Ang^3
#
#
#
# Elastic Constant Matrix: (Units=GPa)
#
#
# Indices 1 2 3 4 5 6 
#
# 1 55.4782 48.4837 14.4028 0.0000 0.0000 0.0000
# 2 48.4837 175.6423 65.6391 0.0000 0.0000 0.0000
# 3 14.4028 65.6391 114.9023 0.0000 0.0000 0.0000
# 4 0.0000 0.0000 0.0000 31.0846 0.0000 0.0000
# 5 0.0000 0.0000 0.0000 0.0000 11.3677 0.0000
# 6 0.0000 0.0000 0.0000 0.0000 0.0000 22.8601
#
#
#
# Elastic Compliance Matrix: (Units=1/GPa)
#
#
# Indices 1 2 3 4 5 6 
#
# 1 0.023842 -0.006948 0.000980 0.000000 0.000000 0.000000
# 2 -0.006948 0.009263 -0.004421 0.000000 0.000000 0.000000
# 3 0.000980 -0.004421 0.011106 0.000000 0.000000 0.000000
# 4 0.000000 0.000000 0.000000 0.032170 0.000000 0.000000
# 5 0.000000 0.000000 0.000000 0.000000 0.087968 0.000000
# 6 0.000000 0.000000 0.000000 0.000000 0.000000 0.043744
#
#
# Mechanical properties :
#
#
# Convention : Reuss Voigt Hill
#
# Bulk Modulus (GPa) = 42.67153 67.00823 54.83988
# Shear Modulus (GPa) = 21.12535 27.56230 24.34383
#
# Velocity S-wave (km/s) = 3.32220 3.79473 3.56630
# Velocity P-wave (km/s) = 6.08357 7.36265 6.75346
#
# Compressibility (1/GPa) = 0.02343483
#
# Stress axis : x y z
#
# Youngs Moduli (GPa) = 41.94214 107.95234 90.04434
#
# Poissons Ratio (x) = 0.75002 -0.08828
# Poissons Ratio (y) = 0.29140 0.39808
# Poissons Ratio (z) = -0.04112 0.47725
#
# Static dielectric constant tensor:
#      x y z
#    x 1.669160 0.000000 0.000000 
#    y 0.000000 1.629600 0.000000 
#    z 0.000000 0.000000 1.707790 
# 
# From -- ./inp_files/64286.got.cif
#   From: 2010.05.17/outbox.cif.g08.bks.cpg/sg65_33_cif.got.tgz:64286.got - 2010.06.03 17:01:31.
