data_PCOD9491325
_publ_section_title
;
Structure prediction by ZEFSAII (Michael W. Deem and Ramdas Pophale) SiO2 
 PCOD9491325
Probable space group: C M M M
;
_chemical_formula_sum "Si O2"
_cell_formula_units_Z 72
_cell_length_a 16.261426
_cell_length_b 27.972085
_cell_length_c 9.256672
_cell_angle_alpha 90.000000
_cell_angle_beta 90.000000
_cell_angle_gamma 90.000000
_cell_volume 4210.545276
_symmetry_space_group_name_H-M "C M M M"
_symmetry_group_IT_number 65
_symmetry_cell_setting 'orthorhombic'
loop_
_space_group_symop_operation_xyz
x,y,z
-x,-y,z
x,-y,-z
-x,y,-z
-x,-y,-z
x,y,-z
-x,y,z
x,-y,z
1/2+x,1/2+y,z
1/2-x,1/2-y,z
1/2+x,1/2-y,-z
1/2-x,1/2+y,-z
1/2-x,1/2-y,-z
1/2+x,1/2+y,-z
1/2-x,1/2+y,z
1/2+x,1/2-y,z
loop_
_atom_site_type_symbol
_atom_site_label
_atom_site_fract_x
_atom_site_fract_y
_atom_site_fract_z
Si Si1 0.000000 0.056737 0.326504
Si Si2 0.345929 0.394850 0.170764
Si Si3 0.093253 0.641051 0.671831
Si Si4 0.740279 0.194359 0.826775
Si Si5 0.169423 0.444220 0.169559
O O1 0.919973 0.082950 0.261192
O O2 0.000000 0.060091 0.500000
O O3 0.000000 0.000000 0.287905
O O4 0.316436 0.340979 0.210660
O O5 0.263337 0.426468 0.190205
O O6 0.367127 0.395504 0.000000
O O7 0.104149 0.642099 0.500000
O O8 0.160128 0.674216 0.748373
O O9 0.111879 0.588299 0.732446
O O10 0.000000 0.655089 0.706400
O O11 0.750000 0.250000 0.792253
O O12 0.729821 0.189546 0.000000
O O13 0.162581 0.500000 0.200810
O O14 0.150031 0.436192 0.000000
#
# Coordination Sequence:
#
# PCOD9491325 Si02
#       5
#     8  16  16  16  16
#     4  11  23  35  49  75 111 147 181 217 260 315
#     4   9  18  34  55  77 103 134 173 219 267 316
#     4  10  21  35  51  76 110 142 172 208 255 314
#     4   9  19  38  61  81 101 131 175 224 270 316
#     4   9  18  33  54  78 103 136 179 222 262 305
#
# _framework density 17.099924000000001
#
# number of rings (size 3 to 8) (size 9 to 14) (size 15 to 20)
#    0.000    2.556    0.000    3.000    0.000    8.444 
#    2.000    2.222    0.000    0.000    0.000    0.000 
#    0.000    0.000    0.000    0.000    0.000    0.000 
#
# Total GULP energy -200770.635481 kJ/mol
# GULP energy per Si atom -5576.962097 kJ/mol
# Density = 1.706100 g / cm^3
# Si number density = 17.099924 Si / 1000 Ang^3
#
#
#
# Elastic Constant Matrix: (Units=GPa)
#
#
# Indices 1 2 3 4 5 6 
#
# 1 101.5387 64.8518 57.7316 0.0000 0.0000 0.0000
# 2 64.8518 147.7261 54.0631 0.0000 0.0000 0.0000
# 3 57.7316 54.0631 44.4894 0.0000 0.0000 0.0000
# 4 0.0000 0.0000 0.0000 13.8883 0.0000 0.0000
# 5 0.0000 0.0000 0.0000 0.0000 34.7821 0.0000
# 6 0.0000 0.0000 0.0000 0.0000 0.0000 11.6517
#
#
#
# Elastic Compliance Matrix: (Units=1/GPa)
#
#
# Indices 1 2 3 4 5 6 
#
# 1 0.038051 0.002460 -0.052366 0.000000 0.000000 0.000000
# 2 0.002460 0.012350 -0.018199 0.000000 0.000000 0.000000
# 3 -0.052366 -0.018199 0.112546 0.000000 0.000000 0.000000
# 4 0.000000 0.000000 0.000000 0.072003 0.000000 0.000000
# 5 0.000000 0.000000 0.000000 0.000000 0.028750 0.000000
# 6 0.000000 0.000000 0.000000 0.000000 0.000000 0.085825
#
#
# Mechanical properties :
#
#
# Convention : Reuss Voigt Hill
#
# Bulk Modulus (GPa) = 37.40372 71.89413 54.64892
# Shear Modulus (GPa) = 10.10822 19.87161 14.98992
#
# Velocity S-wave (km/s) = 2.43395 3.41264 2.96397
# Velocity P-wave (km/s) = 5.46076 7.59361 6.61373
#
# Compressibility (1/GPa) = 0.02673531
#
# Stress axis : x y z
#
# Youngs Moduli (GPa) = 26.28061 80.97290 8.88529
#
# Poissons Ratio (x) = -0.19919 0.46529
# Poissons Ratio (y) = -0.06465 0.16171
# Poissons Ratio (z) = 1.37621 1.47367
#
# Static dielectric constant tensor:
#      x y z
#    x 1.557550 0.000000 0.000000 
#    y 0.000000 1.583740 0.000000 
#    z 0.000000 0.000000 1.565000 
# 
# From -- ./inp_files/7220.got.cif
#   From: 2010.05.17/outbox.cif.g08.bks.cpg/sg65_4_cif.got.tgz:7220.got - 2010.06.03 17:01:31.
