data_PCOD9491894
_publ_section_title
;
Structure prediction by ZEFSAII (Michael W. Deem and Ramdas Pophale) SiO2 
 PCOD9491894
Probable space group: C M M M
;
_chemical_formula_sum "Si O2"
_cell_formula_units_Z 100
_cell_length_a 28.954794
_cell_length_b 7.570886
_cell_length_c 23.403523
_cell_angle_alpha 90.000000
_cell_angle_beta 90.000000
_cell_angle_gamma 90.000000
_cell_volume 5130.366891
_symmetry_space_group_name_H-M "C M M M"
_symmetry_group_IT_number 65
_symmetry_cell_setting 'orthorhombic'
loop_
_space_group_symop_operation_xyz
x,y,z
-x,-y,z
x,-y,-z
-x,y,-z
-x,-y,-z
x,y,-z
-x,y,z
x,-y,z
1/2+x,1/2+y,z
1/2-x,1/2-y,z
1/2+x,1/2-y,-z
1/2-x,1/2+y,-z
1/2-x,1/2-y,-z
1/2+x,1/2+y,-z
1/2-x,1/2+y,z
1/2+x,1/2-y,z
loop_
_atom_site_type_symbol
_atom_site_label
_atom_site_fract_x
_atom_site_fract_y
_atom_site_fract_z
Si Si1 0.302228 0.699697 0.595674
Si Si2 0.850897 0.707303 0.061945
Si Si3 0.551781 0.713583 0.890919
Si Si4 0.804072 0.712006 0.176821
Si Si5 0.852585 0.294413 0.291752
Si Si6 0.448116 0.713406 0.758608
Si Si7 0.319075 0.000000 0.500000
O O1 0.300973 0.500000 0.572107
O O2 0.250000 0.750000 0.613524
O O3 0.334583 0.704754 0.651155
O O4 0.317309 0.844295 0.549714
O O5 0.838865 0.500000 0.060270
O O6 0.905787 0.721652 0.071822
O O7 0.826447 0.783284 0.118279
O O8 0.838565 0.784269 0.000000
O O9 0.500000 0.769968 0.907807
O O10 0.552351 0.500000 0.892237
O O11 0.559509 0.768487 0.824742
O O12 0.811240 0.500000 0.176839
O O13 0.750000 0.750000 0.178379
O O14 0.828739 0.779294 0.234179
O O15 0.839635 0.500000 0.297101
O O16 0.907167 0.280181 0.280850
O O17 0.500000 0.768718 0.742349
O O18 0.446982 0.500000 0.758025
#
# Coordination Sequence:
#
# PCOD9491894 Si02
#       7
#    16  16  16  16  16  16   4
#     4  12  24  39  63  92 128 173 209 249 296 348
#     4  10  21  37  53  73 102 141 188 238 294 357
#     4   9  18  33  53  78 107 141 182 231 291 356
#     4  10  22  37  55  76 106 145 185 243 299 345
#     4  11  21  37  57  88 122 152 201 246 293 356
#     4   9  18  33  55  83 115 150 189 239 300 356
#     4  12  24  44  62  94 133 172 209 252 284 358
#
# _framework density 19.491783000000002
#
# number of rings (size 3 to 8) (size 9 to 14) (size 15 to 20)
#    0.000    1.760    3.200    2.400    0.000    4.800 
#    0.000    3.200    0.000    0.000    0.000    1.120 
#    0.000    2.560    0.000    0.000    0.000    0.000 
#
# Total GULP energy -278750.223750 kJ/mol
# GULP energy per Si atom -5575.004475 kJ/mol
# Density = 1.944742 g / cm^3
# Si number density = 19.491783 Si / 1000 Ang^3
#
#
#
# Elastic Constant Matrix: (Units=GPa)
#
#
# Indices 1 2 3 4 5 6 
#
# 1 83.7073 4.6193 67.4285 0.0000 0.0000 0.0000
# 2 4.6193 90.3669 19.4381 0.0000 0.0000 0.0000
# 3 67.4285 19.4381 120.2457 0.0000 0.0000 0.0000
# 4 0.0000 0.0000 0.0000 -0.8351 0.0000 0.0000
# 5 0.0000 0.0000 0.0000 0.0000 46.2192 0.0000
# 6 0.0000 0.0000 0.0000 0.0000 0.0000 24.5302
#
#
#
# Elastic Compliance Matrix: (Units=1/GPa)
#
#
# Indices 1 2 3 4 5 6 
#
# 1 0.022005 0.001585 -0.012596 0.000000 0.000000 0.000000
# 2 0.001585 0.011579 -0.002760 0.000000 0.000000 0.000000
# 3 -0.012596 -0.002760 0.015826 0.000000 0.000000 0.000000
# 4 0.000000 0.000000 0.000000 -1.197461 0.000000 0.000000
# 5 0.000000 0.000000 0.000000 0.000000 0.021636 0.000000
# 6 0.000000 0.000000 0.000000 0.000000 0.000000 0.040766
#
#
# Mechanical properties :
#
#
# Convention : Reuss Voigt Hill
#
# Bulk Modulus (GPa) = 45.73176 53.03240 49.38208
# Shear Modulus (GPa) = -4.75820 27.50513 11.37347
#
# Velocity S-wave (km/s) = -1.56411 3.76056 2.41820
# Velocity P-wave (km/s) = 4.50012 6.79134 5.76079
#
# Compressibility (1/GPa) = 0.02186664
#
# Stress axis : x y z
#
# Youngs Moduli (GPa) = 45.44408 86.36520 63.18880
#
# Poissons Ratio (x) = -0.13685 0.79590
# Poissons Ratio (y) = -0.07201 0.17442
# Poissons Ratio (z) = 0.57240 0.23839
#
# Static dielectric constant tensor:
#      x y z
#    x 1.664390 0.000000 0.000000 
#    y 0.000000 1.739780 0.000000 
#    z 0.000000 0.000000 1.671920 
# 
# From -- ./inp_files/66429.got.cif
#   From: 2010.05.17/outbox.cif.g08.bks.cpg/sg65_34_cif.got.tgz:66429.got - 2010.06.03 17:01:31.
