data_PCOD9491379
_publ_section_title
;
Structure prediction by ZEFSAII (Michael W. Deem and Ramdas Pophale) SiO2 
 PCOD9491379
Probable space group: C M M M
;
_chemical_formula_sum "Si O2"
_cell_formula_units_Z 66
_cell_length_a 20.464667
_cell_length_b 7.508972
_cell_length_c 20.747057
_cell_angle_alpha 90.000000
_cell_angle_beta 90.000000
_cell_angle_gamma 90.000000
_cell_volume 3188.171442
_symmetry_space_group_name_H-M "C M M M"
_symmetry_group_IT_number 65
_symmetry_cell_setting 'orthorhombic'
loop_
_space_group_symop_operation_xyz
x,y,z
-x,-y,z
x,-y,-z
-x,y,-z
-x,-y,-z
x,y,-z
-x,y,z
x,-y,z
1/2+x,1/2+y,z
1/2-x,1/2-y,z
1/2+x,1/2-y,-z
1/2-x,1/2+y,-z
1/2-x,1/2-y,-z
1/2+x,1/2+y,-z
1/2-x,1/2+y,z
1/2+x,1/2-y,z
loop_
_atom_site_type_symbol
_atom_site_label
_atom_site_fract_x
_atom_site_fract_y
_atom_site_fract_z
Si Si1 0.925869 0.212434 0.891069
Si Si2 0.000000 0.000000 0.500000
Si Si3 0.824244 0.711738 0.637720
Si Si4 0.426437 0.785537 0.742075
Si Si5 0.379993 0.781715 0.500000
Si Si6 0.827388 0.213862 0.000000
O O1 0.910317 0.243712 0.816133
O O2 0.000000 0.281861 0.903709
O O3 0.929458 0.000000 0.900677
O O4 0.868982 0.279660 0.938151
O O5 0.056449 0.841298 0.500000
O O6 0.832275 0.500000 0.638517
O O7 0.750000 0.750000 0.655063
O O8 0.875163 0.784724 0.690128
O O9 0.840650 0.765797 0.564898
O O10 0.500000 0.719722 0.729010
O O11 0.428063 0.000000 0.737357
O O12 0.392306 0.000000 0.500000
O O13 0.750000 0.250000 0.000000
O O14 0.831437 0.000000 0.000000
#
# Coordination Sequence:
#
# PCOD9491379 Si02
#       6
#    16   2  16  16   8   8
#     4   9  18  35  56  79 104 141 184 232 281 334
#     4  12  26  40  68 102 116 160 208 254 308 370
#     4  10  22  39  61  84 118 161 197 241 298 355
#     4   9  19  36  57  82 112 148 188 235 293 346
#     4  10  24  44  63  92 129 160 200 257 311 356
#     4  10  21  35  53  77 109 142 180 226 280 338
#
# _framework density 20.701519999999999
#
# number of rings (size 3 to 8) (size 9 to 14) (size 15 to 20)
#    0.000    2.424    0.000    0.909    3.394    4.364 
#    0.000    4.848    0.000    3.636    0.000    0.000 
#    0.000    0.000    0.000    0.000    0.000    0.000 
#
# Total GULP energy -183871.292623 kJ/mol
# GULP energy per Si atom -5571.857352 kJ/mol
# Density = 2.065440 g / cm^3
# Si number density = 20.701520 Si / 1000 Ang^3
#
#
#
# Elastic Constant Matrix: (Units=GPa)
#
#
# Indices 1 2 3 4 5 6 
#
# 1 190.4953 8.7881 146.8163 0.0000 0.0000 0.0000
# 2 8.7881 62.2044 5.9707 0.0000 0.0000 0.0000
# 3 146.8163 5.9707 175.1265 0.0000 0.0000 0.0000
# 4 0.0000 0.0000 0.0000 21.7633 0.0000 0.0000
# 5 0.0000 0.0000 0.0000 0.0000 39.7915 0.0000
# 6 0.0000 0.0000 0.0000 0.0000 0.0000 29.4195
#
#
#
# Elastic Compliance Matrix: (Units=1/GPa)
#
#
# Indices 1 2 3 4 5 6 
#
# 1 0.014885 -0.000908 -0.012448 0.000000 0.000000 0.000000
# 2 -0.000908 0.016184 0.000210 0.000000 0.000000 0.000000
# 3 -0.012448 0.000210 0.016139 0.000000 0.000000 0.000000
# 4 0.000000 0.000000 0.000000 0.045949 0.000000 0.000000
# 5 0.000000 0.000000 0.000000 0.000000 0.025131 0.000000
# 6 0.000000 0.000000 0.000000 0.000000 0.000000 0.033991
#
#
# Mechanical properties :
#
#
# Convention : Reuss Voigt Hill
#
# Bulk Modulus (GPa) = 47.81252 83.44181 65.62717
# Shear Modulus (GPa) = 26.94794 35.94494 31.44644
#
# Velocity S-wave (km/s) = 3.61187 4.17147 3.90171
# Velocity P-wave (km/s) = 6.36714 7.97472 7.21584
#
# Compressibility (1/GPa) = 0.02091502
#
# Stress axis : x y z
#
# Youngs Moduli (GPa) = 67.18194 61.78857 61.96358
#
# Poissons Ratio (x) = 0.05611 0.77131
# Poissons Ratio (y) = 0.06101 -0.01298
# Poissons Ratio (z) = 0.83626 -0.01295
#
# Static dielectric constant tensor:
#      x y z
#    x 1.811430 0.000000 0.000000 
#    y 0.000000 1.790920 0.000000 
#    z 0.000000 0.000000 1.732240 
# 
# From -- ./inp_files/55421.got.cif
#   From: 2010.05.17/outbox.cif.g08.bks.cpg/sg65_28_cif.got.tgz:55421.got - 2010.06.03 17:01:31.
