data_PCOD9491751
_publ_section_title
;
Structure prediction by ZEFSAII (Michael W. Deem and Ramdas Pophale) SiO2 
 PCOD9491751
Probable space group: C M M M
;
_chemical_formula_sum "Si O2"
_cell_formula_units_Z 72
_cell_length_a 18.535777
_cell_length_b 8.596474
_cell_length_c 23.774276
_cell_angle_alpha 90.000000
_cell_angle_beta 90.000000
_cell_angle_gamma 90.000000
_cell_volume 3788.248414
_symmetry_space_group_name_H-M "C M M M"
_symmetry_group_IT_number 65
_symmetry_cell_setting 'orthorhombic'
loop_
_space_group_symop_operation_xyz
x,y,z
-x,-y,z
x,-y,-z
-x,y,-z
-x,-y,-z
x,y,-z
-x,y,z
x,-y,z
1/2+x,1/2+y,z
1/2-x,1/2-y,z
1/2+x,1/2-y,-z
1/2-x,1/2+y,-z
1/2-x,1/2-y,-z
1/2+x,1/2+y,-z
1/2-x,1/2+y,z
1/2+x,1/2-y,z
loop_
_atom_site_type_symbol
_atom_site_label
_atom_site_fract_x
_atom_site_fract_y
_atom_site_fract_z
Si Si1 0.668829 0.185234 0.500000
Si Si2 0.417040 0.188327 0.172806
Si Si3 0.416141 0.688123 0.607734
Si Si4 0.830915 0.813425 0.279627
Si Si5 0.330527 0.812129 0.063302
O O1 0.750000 0.250000 0.500000
O O2 0.626445 0.243921 0.554909
O O3 0.671596 0.000000 0.500000
O O4 0.500000 0.238459 0.178373
O O5 0.369397 0.251925 0.223666
O O6 0.383361 0.238201 0.113076
O O7 0.415289 0.000000 0.174512
O O8 0.500000 0.735766 0.607422
O O9 0.413957 0.500000 0.604115
O O10 0.377069 0.734421 0.665644
O O11 0.750000 0.750000 0.283716
O O12 0.828795 0.000000 0.277952
O O13 0.250000 0.750000 0.073789
O O14 0.328208 0.000000 0.063895
O O15 0.352135 0.763278 0.000000
#
# Coordination Sequence:
#
# PCOD9491751 Si02
#       5
#     8  16  16  16  16
#     4  12  25  40  61  89 119 153 193 234 277 326
#     4  10  21  36  55  81 112 146 185 231 282 333
#     4  10  22  41  63  87 117 151 186 228 280 334
#     4  11  23  39  60  85 113 148 189 231 278 332
#     4   9  18  33  53  77 106 142 184 228 275 330
#
# _framework density 19.006146000000001
#
# number of rings (size 3 to 8) (size 9 to 14) (size 15 to 20)
#    0.000    1.778    0.000    4.000    0.000    9.778 
#    0.000    2.222    0.000    0.000    0.000    4.667 
#    0.000    0.000    0.000    0.000    0.000    0.000 
#
# Total GULP energy -201198.646547 kJ/mol
# GULP energy per Si atom -5588.851293 kJ/mol
# Density = 1.896289 g / cm^3
# Si number density = 19.006146 Si / 1000 Ang^3
#
#
#
# Elastic Constant Matrix: (Units=GPa)
#
#
# Indices 1 2 3 4 5 6 
#
# 1 198.7200 40.3526 122.0211 0.0000 0.0000 0.0000
# 2 40.3526 20.7386 39.2273 0.0000 0.0000 0.0000
# 3 122.0211 39.2273 176.6020 0.0000 0.0000 0.0000
# 4 0.0000 0.0000 0.0000 30.0990 0.0000 0.0000
# 5 0.0000 0.0000 0.0000 0.0000 156.4119 0.0000
# 6 0.0000 0.0000 0.0000 0.0000 0.0000 23.4447
#
#
#
# Elastic Compliance Matrix: (Units=1/GPa)
#
#
# Indices 1 2 3 4 5 6 
#
# 1 0.010019 -0.011038 -0.004470 0.000000 0.000000 0.000000
# 2 -0.011038 0.095319 -0.013546 0.000000 0.000000 0.000000
# 3 -0.004470 -0.013546 0.011760 0.000000 0.000000 0.000000
# 4 0.000000 0.000000 0.000000 0.033224 0.000000 0.000000
# 5 0.000000 0.000000 0.000000 0.000000 0.006393 0.000000
# 6 0.000000 0.000000 0.000000 0.000000 0.000000 0.042654
#
#
# Mechanical properties :
#
#
# Convention : Reuss Voigt Hill
#
# Bulk Modulus (GPa) = 16.95233 88.80698 52.87966
# Shear Modulus (GPa) = 18.04140 54.95509 36.49825
#
# Velocity S-wave (km/s) = 3.08432 5.38304 4.38692
# Velocity P-wave (km/s) = 4.65003 9.24462 7.31730
#
# Compressibility (1/GPa) = 0.05898893
#
# Stress axis : x y z
#
# Youngs Moduli (GPa) = 99.81393 10.49109 85.03314
#
# Poissons Ratio (x) = 0.11580 0.38014
# Poissons Ratio (y) = 1.10175 1.15185
# Poissons Ratio (z) = 0.44621 0.14211
#
# Static dielectric constant tensor:
#      x y z
#    x 1.624210 0.000000 0.000000 
#    y 0.000000 1.648040 0.000000 
#    z 0.000000 0.000000 1.641490 
# 
# From -- ./inp_files/67097.got.cif
#   From: 2010.05.17/outbox.cif.g08.bks.cpg/sg65_34_cif.got.tgz:67097.got - 2010.06.03 17:01:31.
