data_PCOD9491730
_publ_section_title
;
Structure prediction by ZEFSAII (Michael W. Deem and Ramdas Pophale) SiO2 
 PCOD9491730
Probable space group: C M M M
;
_chemical_formula_sum "Si O2"
_cell_formula_units_Z 96
_cell_length_a 18.974810
_cell_length_b 8.931116
_cell_length_c 31.489236
_cell_angle_alpha 90.000000
_cell_angle_beta 90.000000
_cell_angle_gamma 90.000000
_cell_volume 5336.362085
_symmetry_space_group_name_H-M "C M M M"
_symmetry_group_IT_number 65
_symmetry_cell_setting 'orthorhombic'
loop_
_space_group_symop_operation_xyz
x,y,z
-x,-y,z
x,-y,-z
-x,y,-z
-x,-y,-z
x,y,-z
-x,y,z
x,-y,z
1/2+x,1/2+y,z
1/2-x,1/2-y,z
1/2+x,1/2-y,-z
1/2-x,1/2+y,-z
1/2-x,1/2-y,-z
1/2+x,1/2+y,-z
1/2-x,1/2+y,z
1/2+x,1/2-y,z
loop_
_atom_site_type_symbol
_atom_site_label
_atom_site_fract_x
_atom_site_fract_y
_atom_site_fract_z
Si Si1 0.417917 0.320304 0.212399
Si Si2 0.172380 0.179968 0.704712
Si Si3 0.174118 0.319860 0.548421
Si Si4 0.084130 0.323826 0.877216
Si Si5 0.582122 0.819188 0.628719
Si Si6 0.827232 0.178834 0.048077
O O1 0.500000 0.279647 0.220982
O O2 0.415328 0.500000 0.207115
O O3 0.368676 0.279625 0.251870
O O4 0.395512 0.243763 0.168483
O O5 0.250000 0.250000 0.704061
O O6 0.126927 0.242316 0.665629
O O7 0.176894 0.000000 0.702191
O O8 0.156126 0.275003 0.500000
O O9 0.180728 0.500000 0.549086
O O10 0.250000 0.250000 0.559126
O O11 0.116531 0.278112 0.583420
O O12 0.099760 0.500000 0.878197
O O13 0.122779 0.242978 0.915740
O O14 0.000000 0.303229 0.881227
O O15 0.500000 0.777683 0.630978
O O16 0.587020 0.000000 0.633130
O O17 0.750000 0.250000 0.052978
O O18 0.822270 0.000000 0.051670
O O19 0.852007 0.214973 0.000000
#
# Coordination Sequence:
#
# PCOD9491730 Si02
#       6
#    16  16  16  16  16  16
#     4   9  19  37  58  78 104 140 180 221 267 319
#     4  11  23  38  57  81 109 142 180 222 269 320
#     4   9  18  33  53  77 106 141 180 221 266 317
#     4  10  21  36  56  83 113 145 180 220 267 318
#     4  10  21  36  55  80 109 142 180 223 271 321
#     4  10  21  37  57  80 108 144 184 226 272 321
#
# _framework density 17.989785000000001
#
# number of rings (size 3 to 8) (size 9 to 14) (size 15 to 20)
#    0.000    2.167    0.000    2.500    0.000    7.667 
#    0.000    6.667    0.000    0.000    0.000    3.500 
#    0.000    0.000    0.000    0.000    0.000    0.000 
#
# Total GULP energy -268013.262730 kJ/mol
# GULP energy per Si atom -5583.609640 kJ/mol
# Density = 1.794884 g / cm^3
# Si number density = 17.989785 Si / 1000 Ang^3
#
#
#
# Elastic Constant Matrix: (Units=GPa)
#
#
# Indices 1 2 3 4 5 6 
#
# 1 123.3054 56.8515 110.5380 0.0000 0.0000 0.0000
# 2 56.8515 45.2826 68.8365 0.0000 0.0000 0.0000
# 3 110.5380 68.8365 169.1014 0.0000 0.0000 0.0000
# 4 0.0000 0.0000 0.0000 26.9016 0.0000 0.0000
# 5 0.0000 0.0000 0.0000 0.0000 41.0750 0.0000
# 6 0.0000 0.0000 0.0000 0.0000 0.0000 26.6000
#
#
#
# Elastic Compliance Matrix: (Units=1/GPa)
#
#
# Indices 1 2 3 4 5 6 
#
# 1 0.023306 -0.016006 -0.008719 0.000000 0.000000 0.000000
# 2 -0.016006 0.068926 -0.017595 0.000000 0.000000 0.000000
# 3 -0.008719 -0.017595 0.018776 0.000000 0.000000 0.000000
# 4 0.000000 0.000000 0.000000 0.037173 0.000000 0.000000
# 5 0.000000 0.000000 0.000000 0.000000 0.024346 0.000000
# 6 0.000000 0.000000 0.000000 0.000000 0.000000 0.037594
#
#
# Mechanical properties :
#
#
# Convention : Reuss Voigt Hill
#
# Bulk Modulus (GPa) = 37.92572 90.01572 63.97072
# Shear Modulus (GPa) = 16.47180 25.67953 21.07567
#
# Velocity S-wave (km/s) = 3.02920 3.78226 3.42648
# Velocity P-wave (km/s) = 5.77601 8.31984 7.16178
#
# Compressibility (1/GPa) = 0.02636733
#
# Stress axis : x y z
#
# Youngs Moduli (GPa) = 42.90760 14.50830 53.26081
#
# Poissons Ratio (x) = 0.23222 0.46438
# Poissons Ratio (y) = 0.68678 0.93713
# Poissons Ratio (z) = 0.37411 0.25528
#
# Static dielectric constant tensor:
#      x y z
#    x 1.585980 0.000000 0.000000 
#    y 0.000000 1.602330 0.000000 
#    z 0.000000 0.000000 1.603000 
# 
# From -- ./inp_files/75336.got.cif
#   From: 2010.05.17/outbox.cif.g08.bks.cpg/sg65_38_cif.got.tgz:75336.got - 2010.06.03 17:01:31.
