data_PCOD9491926
_publ_section_title
;
Structure prediction by ZEFSAII (Michael W. Deem and Ramdas Pophale) SiO2 
 PCOD9491926
Probable space group: C M M M
;
_chemical_formula_sum "Si O2"
_cell_formula_units_Z 104
_cell_length_a 29.343202
_cell_length_b 8.704678
_cell_length_c 23.357100
_cell_angle_alpha 90.000000
_cell_angle_beta 90.000000
_cell_angle_gamma 90.000000
_cell_volume 5965.943471
_symmetry_space_group_name_H-M "C M M M"
_symmetry_group_IT_number 65
_symmetry_cell_setting 'orthorhombic'
loop_
_space_group_symop_operation_xyz
x,y,z
-x,-y,z
x,-y,-z
-x,y,-z
-x,-y,-z
x,y,-z
-x,y,z
x,-y,z
1/2+x,1/2+y,z
1/2-x,1/2-y,z
1/2+x,1/2-y,-z
1/2-x,1/2+y,-z
1/2-x,1/2-y,-z
1/2+x,1/2+y,-z
1/2-x,1/2+y,z
1/2+x,1/2-y,z
loop_
_atom_site_type_symbol
_atom_site_label
_atom_site_fract_x
_atom_site_fract_y
_atom_site_fract_z
Si Si1 0.355377 0.316696 0.107033
Si Si2 0.699179 0.817295 0.000000
Si Si3 0.700046 0.316180 0.566383
Si Si4 0.300602 0.315588 0.222621
Si Si5 0.551670 0.185193 0.144357
Si Si6 0.449556 0.186622 0.721746
Si Si7 0.355216 0.815212 0.669606
O O1 0.353592 0.500000 0.100648
O O2 0.331159 0.275813 0.167284
O O3 0.407469 0.260861 0.109824
O O4 0.327835 0.239949 0.055721
O O5 0.750000 0.750000 0.000000
O O6 0.701799 0.000000 0.000000
O O7 0.690617 0.276058 0.500000
O O8 0.701358 0.500000 0.571403
O O9 0.750000 0.250000 0.580802
O O10 0.663725 0.248110 0.610148
O O11 0.298836 0.500000 0.227728
O O12 0.250000 0.250000 0.215157
O O13 0.323349 0.245382 0.279177
O O14 0.500000 0.226646 0.126874
O O15 0.556848 0.229187 0.211512
O O16 0.555515 0.000000 0.141088
O O17 0.500000 0.239083 0.703479
O O18 0.406648 0.237063 0.684507
O O19 0.449918 0.000000 0.720651
O O20 0.353935 0.000000 0.669210
#
# Coordination Sequence:
#
# PCOD9491926 Si02
#       7
#    16   8  16  16  16  16  16
#     4  11  23  39  59  84 114 147 185 230 277 329
#     4  12  26  44  65  84 109 146 190 233 277 335
#     4  10  21  37  55  75 105 144 185 227 271 324
#     4  11  23  36  52  77 110 144 178 221 271 325
#     4   9  17  33  58  85 114 148 185 225 274 332
#     4   8  15  29  51  80 111 143 179 219 266 320
#     4  11  20  32  55  82 110 141 178 225 272 322
#
# _framework density 17.432279000000001
#
# number of rings (size 3 to 8) (size 9 to 14) (size 15 to 20)
#    0.000    1.846    1.538    4.385    0.000    4.308 
#    0.000    0.385    0.000    4.615    0.000    3.231 
#    0.000    0.000    0.000    0.000    0.000    0.000 
#
# Total GULP energy -290391.509783 kJ/mol
# GULP energy per Si atom -5584.452111 kJ/mol
# Density = 1.739260 g / cm^3
# Si number density = 17.432279 Si / 1000 Ang^3
#
#
#
# Elastic Constant Matrix: (Units=GPa)
#
#
# Indices 1 2 3 4 5 6 
#
# 1 170.1066 48.0288 71.0912 0.0000 0.0000 0.0000
# 2 48.0288 51.1229 39.8820 0.0000 0.0000 0.0000
# 3 71.0912 39.8820 85.1563 0.0000 0.0000 0.0000
# 4 0.0000 0.0000 0.0000 -0.0206 0.0000 0.0000
# 5 0.0000 0.0000 0.0000 0.0000 29.8314 0.0000
# 6 0.0000 0.0000 0.0000 0.0000 0.0000 24.1997
#
#
#
# Elastic Compliance Matrix: (Units=1/GPa)
#
#
# Indices 1 2 3 4 5 6 
#
# 1 0.009609 -0.004364 -0.005978 0.000000 0.000000 0.000000
# 2 -0.004364 0.032803 -0.011720 0.000000 0.000000 0.000000
# 3 -0.005978 -0.011720 0.022223 0.000000 0.000000 0.000000
# 4 0.000000 0.000000 0.000000-48.537364 0.000000 0.000000
# 5 0.000000 0.000000 0.000000 0.000000 0.033522 0.000000
# 6 0.000000 0.000000 0.000000 0.000000 0.000000 0.041323
#
#
# Mechanical properties :
#
#
# Convention : Reuss Voigt Hill
#
# Bulk Modulus (GPa) = 48.75387 69.37666 59.06526
# Shear Modulus (GPa) = -0.10342 20.62768 10.26213
#
# Velocity S-wave (km/s) = -0.24383 3.44365 2.42892
# Velocity P-wave (km/s) = 5.28668 7.46296 6.46703
#
# Compressibility (1/GPa) = 0.02051119
#
# Stress axis : x y z
#
# Youngs Moduli (GPa) = 104.06622 30.48456 44.99835
#
# Poissons Ratio (x) = 0.13303 0.26902
# Poissons Ratio (y) = 0.45413 0.52738
# Poissons Ratio (z) = 0.62215 0.35728
#
# Static dielectric constant tensor:
#      x y z
#    x 1.589870 0.000000 0.000000 
#    y 0.000000 1.585590 0.000000 
#    z 0.000000 0.000000 1.570790 
# 
# From -- ./inp_files/60793.got.cif
#   From: 2010.05.17/outbox.cif.g08.bks.cpg/sg65_31_cif.got.tgz:60793.got - 2010.06.03 17:01:31.
