data_PCOD9491640
_publ_section_title
;
Structure prediction by ZEFSAII (Michael W. Deem and Ramdas Pophale) SiO2 
 PCOD9491640
Probable space group: C M M M
;
_chemical_formula_sum "Si O2"
_cell_formula_units_Z 80
_cell_length_a 19.670281
_cell_length_b 8.691720
_cell_length_c 26.153145
_cell_angle_alpha 90.000000
_cell_angle_beta 90.000000
_cell_angle_gamma 90.000000
_cell_volume 4471.365926
_symmetry_space_group_name_H-M "C M M M"
_symmetry_group_IT_number 65
_symmetry_cell_setting 'orthorhombic'
loop_
_space_group_symop_operation_xyz
x,y,z
-x,-y,z
x,-y,-z
-x,y,-z
-x,-y,-z
x,y,-z
-x,y,z
x,-y,z
1/2+x,1/2+y,z
1/2-x,1/2-y,z
1/2+x,1/2-y,-z
1/2-x,1/2+y,-z
1/2-x,1/2-y,-z
1/2+x,1/2+y,-z
1/2-x,1/2+y,z
1/2+x,1/2-y,z
loop_
_atom_site_type_symbol
_atom_site_label
_atom_site_fract_x
_atom_site_fract_y
_atom_site_fract_z
Si Si1 0.674069 0.315287 0.150053
Si Si2 0.578468 0.814775 0.355528
Si Si3 0.422584 0.312744 0.058390
Si Si4 0.579159 0.185737 0.238385
Si Si5 0.825459 0.183894 0.442548
O O1 0.677165 0.500000 0.149460
O O2 0.750000 0.250000 0.151219
O O3 0.632452 0.261730 0.099693
O O4 0.630100 0.260964 0.198510
O O5 0.500000 0.770931 0.364424
O O6 0.595628 0.770553 0.297063
O O7 0.626163 0.744179 0.398236
O O8 0.582655 0.000000 0.358010
O O9 0.500000 0.264802 0.071571
O O10 0.422523 0.500000 0.058674
O O11 0.408227 0.264318 0.000000
O O12 0.500000 0.227833 0.228417
O O13 0.583519 0.000000 0.234767
O O14 0.848514 0.229793 0.500000
O O15 0.750000 0.250000 0.435492
O O16 0.822499 0.000000 0.440724
#
# Coordination Sequence:
#
# PCOD9491640 Si02
#       5
#    16  16  16  16  16
#     4  11  22  34  51  77 107 140 177 214 257 308
#     4   9  19  36  57  80 105 135 171 211 259 312
#     4   8  15  30  52  76 101 131 170 215 260 307
#     4   9  19  37  58  78 103 135 171 214 262 310
#     4  10  21  36  54  77 106 140 176 214 257 305
#
# _framework density 17.891625000000001
#
# number of rings (size 3 to 8) (size 9 to 14) (size 15 to 20)
#    0.000    2.600    0.000    3.600    0.000    5.200 
#    0.000    4.000    0.000    1.800    0.000    7.000 
#    0.000    0.000    0.000    0.000    0.000    0.000 
#
# Total GULP energy -223154.929006 kJ/mol
# GULP energy per Si atom -5578.873225 kJ/mol
# Density = 1.785090 g / cm^3
# Si number density = 17.891625 Si / 1000 Ang^3
#
#
#
# Elastic Constant Matrix: (Units=GPa)
#
#
# Indices 1 2 3 4 5 6 
#
# 1 148.1051 43.8216 136.5266 0.0000 0.0000 0.0000
# 2 43.8216 27.5626 46.3732 0.0000 0.0000 0.0000
# 3 136.5266 46.3732 175.1453 0.0000 0.0000 0.0000
# 4 0.0000 0.0000 0.0000 19.2996 0.0000 0.0000
# 5 0.0000 0.0000 0.0000 0.0000 416.2667 0.0000
# 6 0.0000 0.0000 0.0000 0.0000 0.0000 19.1136
#
#
#
# Elastic Compliance Matrix: (Units=1/GPa)
#
#
# Indices 1 2 3 4 5 6 
#
# 1 0.026434 -0.013271 -0.017092 0.000000 0.000000 0.000000
# 2 -0.013271 0.072089 -0.008742 0.000000 0.000000 0.000000
# 3 -0.017092 -0.008742 0.021347 0.000000 0.000000 0.000000
# 4 0.000000 0.000000 0.000000 0.051814 0.000000 0.000000
# 5 0.000000 0.000000 0.000000 0.000000 0.002402 0.000000
# 6 0.000000 0.000000 0.000000 0.000000 0.000000 0.052319
#
#
# Mechanical properties :
#
#
# Convention : Reuss Voigt Hill
#
# Bulk Modulus (GPa) = 24.00357 89.36178 56.68267
# Shear Modulus (GPa) = 15.69841 99.20876 57.45359
#
# Velocity S-wave (km/s) = 2.96534 7.45454 5.67289
# Velocity P-wave (km/s) = 5.01692 11.14218 8.64054
#
# Compressibility (1/GPa) = 0.04166048
#
# Stress axis : x y z
#
# Youngs Moduli (GPa) = 37.82948 13.87173 46.84418
#
# Poissons Ratio (x) = 0.18410 0.80066
# Poissons Ratio (y) = 0.50205 0.40951
# Poissons Ratio (z) = 0.64658 0.12127
#
# Static dielectric constant tensor:
#      x y z
#    x 1.580530 0.000000 0.000000 
#    y 0.000000 1.603660 0.000000 
#    z 0.000000 0.000000 1.610770 
# 
# From -- ./inp_files/72762.got.cif
#   From: 2010.05.17/outbox.cif.g08.bks.cpg/sg65_37_cif.got.tgz:72762.got - 2010.06.03 17:01:31.
