data_PCOD9491141
_publ_section_title
;
Structure prediction by ZEFSAII (Michael W. Deem and Ramdas Pophale) SiO2 
 PCOD9491141
Probable space group: C M M M
;
_chemical_formula_sum "Si O2"
_cell_formula_units_Z 112
_cell_length_a 14.477917
_cell_length_b 14.363182
_cell_length_c 27.100746
_cell_angle_alpha 90.000000
_cell_angle_beta 90.000000
_cell_angle_gamma 90.000000
_cell_volume 5635.571861
_symmetry_space_group_name_H-M "C M M M"
_symmetry_group_IT_number 65
_symmetry_cell_setting 'orthorhombic'
loop_
_space_group_symop_operation_xyz
x,y,z
-x,-y,z
x,-y,-z
-x,y,-z
-x,-y,-z
x,y,-z
-x,y,z
x,-y,z
1/2+x,1/2+y,z
1/2-x,1/2-y,z
1/2+x,1/2-y,-z
1/2-x,1/2+y,-z
1/2-x,1/2-y,-z
1/2+x,1/2+y,-z
1/2-x,1/2+y,z
1/2+x,1/2-y,z
loop_
_atom_site_type_symbol
_atom_site_label
_atom_site_fract_x
_atom_site_fract_y
_atom_site_fract_z
Si Si1 0.627848 0.395660 0.354130
Si Si2 0.887842 0.000000 0.939490
Si Si3 0.605998 0.741033 0.555111
Si Si4 0.360676 0.232788 0.711958
Si Si5 0.760423 0.640587 0.103382
Si Si6 0.842127 0.603849 0.624612
Si Si7 0.394983 0.891293 0.193880
Si Si8 0.398313 0.000000 0.942559
O O1 0.593206 0.500000 0.352627
O O2 0.606977 0.341513 0.404943
O O3 0.602142 0.331720 0.307520
O O4 0.738305 0.402811 0.355848
O O5 0.833927 0.913146 0.912959
O O6 0.000000 0.000000 0.932425
O O7 0.871908 0.000000 0.000000
O O8 0.635441 0.713818 0.500000
O O9 0.500000 0.772876 0.552716
O O10 0.659965 0.828840 0.577379
O O11 0.250000 0.250000 0.713801
O O12 0.389514 0.161751 0.668242
O O13 0.388385 0.183593 0.762353
O O14 0.750000 0.750000 0.095274
O O15 0.807361 0.624767 0.157461
O O16 0.839109 0.589888 0.071507
O O17 0.878033 0.500000 0.615650
O O18 0.500000 0.880236 0.172664
O O19 0.388727 0.000000 0.210505
O O20 0.500000 0.000000 0.919545
O O21 0.408005 0.000000 0.000000
#
# Coordination Sequence:
#
# PCOD9491141 Si02
#       8
#    16   8  16  16  16  16  16   8
#     4   9  19  36  57  78 104 144 191 241 291 352
#     4  10  23  43  66  97 137 178 225 277 326 385
#     4  10  21  34  48  72 107 142 178 227 294 369
#     4   9  18  34  54  82 111 142 189 243 304 364
#     4  11  22  39  63  93 129 176 216 267 328 379
#     4   9  18  34  55  76 101 136 182 235 292 352
#     4  11  22  37  60  88 121 161 208 257 310 378
#     4  10  21  39  64  95 131 170 217 267 312 372
#
# _framework density 19.873759
#
# number of rings (size 3 to 8) (size 9 to 14) (size 15 to 20)
#    0.000    2.143    1.429    3.429    0.000    7.429 
#    0.000    4.286    0.000    0.000    0.000    0.000 
#    0.000    0.000    0.000    0.000    0.000    0.000 
#
# Total GULP energy -311776.923957 kJ/mol
# GULP energy per Si atom -5567.445071 kJ/mol
# Density = 1.982853 g / cm^3
# Si number density = 19.873759 Si / 1000 Ang^3
#
#
#
# Elastic Constant Matrix: (Units=GPa)
#
#
# Indices 1 2 3 4 5 6 
#
# 1 122.9384 54.1692 27.7687 0.0000 0.0000 0.0000
# 2 54.1692 196.7778 68.0277 0.0000 0.0000 0.0000
# 3 27.7687 68.0277 130.2083 0.0000 0.0000 0.0000
# 4 0.0000 0.0000 0.0000 19.6852 0.0000 0.0000
# 5 0.0000 0.0000 0.0000 0.0000 32.7056 0.0000
# 6 0.0000 0.0000 0.0000 0.0000 0.0000 -6.5878
#
#
#
# Elastic Compliance Matrix: (Units=1/GPa)
#
#
# Indices 1 2 3 4 5 6 
#
# 1 0.009323 -0.002293 -0.000790 0.000000 0.000000 0.000000
# 2 -0.002293 0.006766 -0.003046 0.000000 0.000000 0.000000
# 3 -0.000790 -0.003046 0.009440 0.000000 0.000000 0.000000
# 4 0.000000 0.000000 0.000000 0.050800 0.000000 0.000000
# 5 0.000000 0.000000 0.000000 0.000000 0.030576 0.000000
# 6 0.000000 0.000000 0.000000 0.000000 0.000000 -0.151796
#
#
# Mechanical properties :
#
#
# Convention : Reuss Voigt Hill
#
# Bulk Modulus (GPa) = 75.35570 83.31729 79.33650
# Shear Modulus (GPa) = -177.24780 29.15785 -74.04498
#
# Velocity S-wave (km/s) = -9.45412 3.83450 -6.11053
# Velocity P-wave (km/s) = 9.00969 7.84976 3.12695
#
# Compressibility (1/GPa) = 0.01327040
#
# Stress axis : x y z
#
# Youngs Moduli (GPa) = 107.26036 147.79375 105.93375
#
# Poissons Ratio (x) = 0.33894 0.08370
# Poissons Ratio (y) = 0.24598 0.32267
# Poissons Ratio (z) = 0.08475 0.45017
#
# Static dielectric constant tensor:
#      x y z
#    x 1.767120 0.000000 0.000000 
#    y 0.000000 1.687250 0.000000 
#    z 0.000000 0.000000 1.722520 
# 
# From -- ./inp_files/74917.got.cif
#   From: 2010.05.17/outbox.cif.g08.bks.cpg/sg65_38_cif.got.tgz:74917.got - 2010.06.03 17:01:31.
