data_PCOD9491765
_publ_section_title
;
Structure prediction by ZEFSAII (Michael W. Deem and Ramdas Pophale) SiO2 
 PCOD9491765
Probable space group: C M M M
;
_chemical_formula_sum "Si O2"
_cell_formula_units_Z 64
_cell_length_a 14.708973
_cell_length_b 7.452679
_cell_length_c 22.768702
_cell_angle_alpha 90.000000
_cell_angle_beta 90.000000
_cell_angle_gamma 90.000000
_cell_volume 2495.933669
_symmetry_space_group_name_H-M "C M M M"
_symmetry_group_IT_number 65
_symmetry_cell_setting 'orthorhombic'
loop_
_space_group_symop_operation_xyz
x,y,z
-x,-y,z
x,-y,-z
-x,y,-z
-x,-y,-z
x,y,-z
-x,y,z
x,-y,z
1/2+x,1/2+y,z
1/2-x,1/2-y,z
1/2+x,1/2-y,-z
1/2-x,1/2+y,-z
1/2-x,1/2-y,-z
1/2+x,1/2+y,-z
1/2-x,1/2+y,z
1/2+x,1/2-y,z
loop_
_atom_site_type_symbol
_atom_site_label
_atom_site_fract_x
_atom_site_fract_y
_atom_site_fract_z
Si Si1 0.142201 0.214044 0.936591
Si Si2 0.250000 0.250000 0.279781
Si Si3 0.606479 0.209850 0.630090
Si Si4 0.605358 0.285694 0.500000
Si Si5 0.399478 0.718438 0.806517
O O1 0.250000 0.250000 0.934443
O O2 0.103906 0.276204 0.874529
O O3 0.126533 0.000000 0.937426
O O4 0.109600 0.284405 0.000000
O O5 0.325892 0.313689 0.326948
O O6 0.323427 0.186276 0.231494
O O7 0.500000 0.267622 0.632057
O O8 0.640349 0.222435 0.562808
O O9 0.610826 0.000000 0.647288
O O10 0.608696 0.500000 0.500000
O O11 0.500000 0.225378 0.500000
O O12 0.500000 0.751306 0.782742
O O13 0.383034 0.500000 0.804110
#
# Coordination Sequence:
#
# PCOD9491765 Si02
#       5
#    16   8  16   8  16
#     4   9  17  32  56  84 113 147 190 241 296 350
#     4  12  22  37  57  82 116 158 198 238 286 342
#     4  10  22  40  62  88 119 154 192 236 288 344
#     4   9  19  38  65  94 120 148 188 238 289 341
#     4  10  21  36  55  82 115 153 197 244 292 344
#
# _framework density 25.641708000000001
#
# number of rings (size 3 to 8) (size 9 to 14) (size 15 to 20)
#    0.000    2.125    1.250    1.875    0.000    4.500 
#    0.000    5.000    0.000    2.250    0.000    3.500 
#    0.000    0.000    0.000    0.000    0.000    0.000 
#
# Total GULP energy -178402.407924 kJ/mol
# GULP energy per Si atom -5575.075248 kJ/mol
# Density = 2.558335 g / cm^3
# Si number density = 25.641708 Si / 1000 Ang^3
#
#
#
# Elastic Constant Matrix: (Units=GPa)
#
#
# Indices 1 2 3 4 5 6 
#
# 1 184.8966 25.3642 79.6262 0.0000 0.0000 0.0000
# 2 25.3642 111.6197 27.3408 0.0000 0.0000 0.0000
# 3 79.6262 27.3408 235.2513 0.0000 0.0000 0.0000
# 4 0.0000 0.0000 0.0000 -154.5516 0.0000 0.0000
# 5 0.0000 0.0000 0.0000 0.0000 47.6146 0.0000
# 6 0.0000 0.0000 0.0000 0.0000 0.0000 -18.1528
#
#
#
# Elastic Compliance Matrix: (Units=1/GPa)
#
#
# Indices 1 2 3 4 5 6 
#
# 1 0.006429 -0.000955 -0.002065 0.000000 0.000000 0.000000
# 2 -0.000955 0.009363 -0.000765 0.000000 0.000000 0.000000
# 3 -0.002065 -0.000765 0.005039 0.000000 0.000000 0.000000
# 4 0.000000 0.000000 0.000000 -0.006470 0.000000 0.000000
# 5 0.000000 0.000000 0.000000 0.000000 0.021002 0.000000
# 6 0.000000 0.000000 0.000000 0.000000 0.000000 -0.055088
#
#
# Mechanical properties :
#
#
# Convention : Reuss Voigt Hill
#
# Bulk Modulus (GPa) = 75.41014 88.49220 81.95117
# Shear Modulus (GPa) = -646.37257 1.61114 -322.38071
#
# Velocity S-wave (km/s) = -15.89421 0.79353 -11.22489
# Velocity P-wave (km/s) = 17.53173 5.95194 11.66053
#
# Compressibility (1/GPa) = 0.01326082
#
# Stress axis : x y z
#
# Youngs Moduli (GPa) = 155.55199 106.79895 198.46758
#
# Poissons Ratio (x) = 0.10200 0.40983
# Poissons Ratio (y) = 0.14856 0.15182
# Poissons Ratio (z) = 0.32121 0.08170
#
# Static dielectric constant tensor:
#      x y z
#    x 1.955560 0.000000 0.000000 
#    y 0.000000 2.065420 0.000000 
#    z 0.000000 0.000000 1.993820 
# 
# From -- ./inp_files/69526.got.cif
#   From: 2010.05.17/outbox.cif.g08.bks.cpg/sg65_35_cif.got.tgz:69526.got - 2010.06.03 17:01:31.
