data_PCOD9491685
_publ_section_title
;
Structure prediction by ZEFSAII (Michael W. Deem and Ramdas Pophale) SiO2 
 PCOD9491685
Probable space group: C M M M
;
_chemical_formula_sum "Si O2"
_cell_formula_units_Z 100
_cell_length_a 9.577714
_cell_length_b 27.832103
_cell_length_c 22.073323
_cell_angle_alpha 90.000000
_cell_angle_beta 90.000000
_cell_angle_gamma 90.000000
_cell_volume 5884.039856
_symmetry_space_group_name_H-M "C M M M"
_symmetry_group_IT_number 65
_symmetry_cell_setting 'orthorhombic'
loop_
_space_group_symop_operation_xyz
x,y,z
-x,-y,z
x,-y,-z
-x,y,-z
-x,-y,-z
x,y,-z
-x,y,z
x,-y,z
1/2+x,1/2+y,z
1/2-x,1/2-y,z
1/2+x,1/2-y,-z
1/2-x,1/2+y,-z
1/2-x,1/2-y,-z
1/2+x,1/2+y,-z
1/2-x,1/2+y,z
1/2+x,1/2-y,z
loop_
_atom_site_type_symbol
_atom_site_label
_atom_site_fract_x
_atom_site_fract_y
_atom_site_fract_z
Si Si1 0.337685 0.500000 0.427096
Si Si2 0.336723 0.557134 0.159397
Si Si3 0.000000 0.758019 0.500000
Si Si4 0.663960 0.113783 0.255327
Si Si5 0.732624 0.172754 0.500000
Si Si6 0.335813 0.798283 0.169713
Si Si7 0.165574 0.404224 0.396444
Si Si8 0.834007 0.377324 0.929051
O O1 0.500000 0.500000 0.406537
O O2 0.338114 0.500000 0.500000
O O3 0.255272 0.452367 0.406486
O O4 0.500000 0.570752 0.159574
O O5 0.326397 0.500000 0.155760
O O6 0.260474 0.576404 0.219661
O O7 0.256620 0.581965 0.103583
O O8 0.878757 0.800020 0.500000
O O9 0.881079 0.714889 0.500000
O O10 0.500000 0.103329 0.242299
O O11 0.694040 0.165474 0.225236
O O12 0.683404 0.112219 0.326945
O O13 0.712325 0.137623 0.557791
O O14 0.500000 0.787389 0.170555
O O15 0.250000 0.750000 0.173028
O O16 0.305782 0.828829 0.108911
O O17 0.000000 0.413855 0.406595
O O18 0.000000 0.387541 0.921871
O O19 0.803872 0.372783 0.000000
#
# Coordination Sequence:
#
# PCOD9491685 Si02
#       8
#     8  16   4  16   8  16  16  16
#     4  11  25  39  59  89 121 157 192 237 306 359
#     4  10  21  36  54  79 113 147 182 231 284 333
#     4  10  24  42  64  88 120 160 200 242 300 360
#     4   9  21  39  57  80 110 151 192 231 276 334
#     4  11  22  43  64  90 121 157 199 250 300 355
#     4   9  18  35  54  78 110 142 183 228 274 327
#     4  11  22  40  63  88 120 155 197 247 296 360
#     4   9  19  36  57  80 109 146 188 230 274 333
#
# _framework density 16.995125999999999
#
# number of rings (size 3 to 8) (size 9 to 14) (size 15 to 20)
#    0.000    2.160    1.600    1.680    2.240    5.760 
#    2.880    1.600    0.000    0.000    0.000    0.000 
#    0.000    0.000    0.000    0.000    0.000    0.000 
#
# Total GULP energy -278399.251408 kJ/mol
# GULP energy per Si atom -5567.985028 kJ/mol
# Density = 1.695644 g / cm^3
# Si number density = 16.995126 Si / 1000 Ang^3
#
#
#
# Elastic Constant Matrix: (Units=GPa)
#
#
# Indices 1 2 3 4 5 6 
#
# 1 130.0574 97.9478 68.1107 0.0000 0.0000 0.0000
# 2 97.9478 140.8138 73.1487 0.0000 0.0000 0.0000
# 3 68.1107 73.1487 130.5203 0.0000 0.0000 0.0000
# 4 0.0000 0.0000 0.0000 2.2456 0.0000 0.0000
# 5 0.0000 0.0000 0.0000 0.0000 14.0761 0.0000
# 6 0.0000 0.0000 0.0000 0.0000 0.0000 39.1669
#
#
#
# Elastic Compliance Matrix: (Units=1/GPa)
#
#
# Indices 1 2 3 4 5 6 
#
# 1 0.017031 -0.010199 -0.003171 0.000000 0.000000 0.000000
# 2 -0.010199 0.016126 -0.003715 0.000000 0.000000 0.000000
# 3 -0.003171 -0.003715 0.011399 0.000000 0.000000 0.000000
# 4 0.000000 0.000000 0.000000 0.445306 0.000000 0.000000
# 5 0.000000 0.000000 0.000000 0.000000 0.071042 0.000000
# 6 0.000000 0.000000 0.000000 0.000000 0.000000 0.025532
#
#
# Mechanical properties :
#
#
# Convention : Reuss Voigt Hill
#
# Bulk Modulus (GPa) = 96.30177 97.75622 97.02899
# Shear Modulus (GPa) = 8.01195 21.91002 14.96098
#
# Velocity S-wave (km/s) = 2.17359 3.59443 2.97022
# Velocity P-wave (km/s) = 7.94271 8.65284 8.30537
#
# Compressibility (1/GPa) = 0.01038402
#
# Stress axis : x y z
#
# Youngs Moduli (GPa) = 58.71790 62.01299 87.72792
#
# Poissons Ratio (x) = 0.63245 0.27823
# Poissons Ratio (y) = 0.59885 0.32594
# Poissons Ratio (z) = 0.18622 0.23040
#
# Static dielectric constant tensor:
#      x y z
#    x 1.572640 0.000000 0.000000 
#    y 0.000000 1.541800 0.000000 
#    z 0.000000 0.000000 1.569490 
# 
# From -- ./inp_files/60483.got.cif
#   From: 2010.05.17/outbox.cif.g08.bks.cpg/sg65_31_cif.got.tgz:60483.got - 2010.06.03 17:01:31.
