data_PCOD9491364
_publ_section_title
;
Structure prediction by ZEFSAII (Michael W. Deem and Ramdas Pophale) SiO2 
 PCOD9491364
Probable space group: C M M M
;
_chemical_formula_sum "Si O2"
_cell_formula_units_Z 104
_cell_length_a 21.476862
_cell_length_b 28.278780
_cell_length_c 9.095154
_cell_angle_alpha 90.000000
_cell_angle_beta 90.000000
_cell_angle_gamma 90.000000
_cell_volume 5523.845879
_symmetry_space_group_name_H-M "C M M M"
_symmetry_group_IT_number 65
_symmetry_cell_setting 'orthorhombic'
loop_
_space_group_symop_operation_xyz
x,y,z
-x,-y,z
x,-y,-z
-x,y,-z
-x,-y,-z
x,y,-z
-x,y,z
x,-y,z
1/2+x,1/2+y,z
1/2-x,1/2-y,z
1/2+x,1/2-y,-z
1/2-x,1/2+y,-z
1/2-x,1/2-y,-z
1/2+x,1/2+y,-z
1/2-x,1/2+y,z
1/2+x,1/2-y,z
loop_
_atom_site_type_symbol
_atom_site_label
_atom_site_fract_x
_atom_site_fract_y
_atom_site_fract_z
Si Si1 0.173499 0.946072 0.824719
Si Si2 0.741738 0.132324 0.324342
Si Si3 0.571672 0.610187 0.671053
Si Si4 0.500000 0.056185 0.176306
Si Si5 0.094902 0.374009 0.675676
Si Si6 0.931230 0.724583 0.174561
Si Si7 0.157566 0.796434 0.328876
O O1 0.222707 0.910286 0.753944
O O2 0.106571 0.928087 0.769454
O O3 0.184732 0.000000 0.779154
O O4 0.176886 0.943075 0.000000
O O5 0.752124 0.128569 0.500000
O O6 0.668838 0.128031 0.296101
O O7 0.775823 0.181675 0.281637
O O8 0.574620 0.595466 0.500000
O O9 0.500000 0.617288 0.711623
O O10 0.610601 0.658784 0.681030
O O11 0.559497 0.082554 0.247482
O O12 0.500000 0.000000 0.205823
O O13 0.500000 0.063134 0.000000
O O14 0.084745 0.375711 0.500000
O O15 0.069720 0.325466 0.743671
O O16 0.874654 0.755886 0.234867
O O17 0.000000 0.746729 0.202959
O O18 0.925428 0.717763 0.000000
O O19 0.161572 0.781270 0.500000
#
# Coordination Sequence:
#
# PCOD9491364 Si02
#       7
#    16  16  16   8  16  16  16
#     4  10  21  35  52  77 109 146 187 233 290 352
#     4   9  21  40  60  84 113 148 193 245 292 343
#     4   9  18  33  53  77 107 147 195 243 288 337
#     4  11  25  45  67  93 127 159 189 237 302 365
#     4  11  23  41  66  91 116 150 194 240 288 343
#     4  11  23  37  56  85 123 159 194 237 288 344
#     4   9  18  35  57  81 113 152 195 238 285 339
#
# _framework density 18.827463999999999
#
# number of rings (size 3 to 8) (size 9 to 14) (size 15 to 20)
#    0.000    2.077    0.769    3.000    0.000    8.923 
#    0.000    7.692    0.000    0.000    0.000    0.000 
#    0.000    0.000    0.000    0.000    0.000    0.000 
#
# Total GULP energy -290282.567445 kJ/mol
# GULP energy per Si atom -5582.357066 kJ/mol
# Density = 1.878461 g / cm^3
# Si number density = 18.827464 Si / 1000 Ang^3
#
#
#
# Elastic Constant Matrix: (Units=GPa)
#
#
# Indices 1 2 3 4 5 6 
#
# 1 134.3678 48.8774 56.6616 0.0000 0.0000 0.0000
# 2 48.8774 99.9306 53.9158 0.0000 0.0000 0.0000
# 3 56.6616 53.9158 61.3380 0.0000 0.0000 0.0000
# 4 0.0000 0.0000 0.0000 34.2237 0.0000 0.0000
# 5 0.0000 0.0000 0.0000 0.0000 8.8021 0.0000
# 6 0.0000 0.0000 0.0000 0.0000 0.0000 -8.9566
#
#
#
# Elastic Compliance Matrix: (Units=1/GPa)
#
#
# Indices 1 2 3 4 5 6 
#
# 1 0.012194 0.000215 -0.011453 0.000000 0.000000 0.000000
# 2 0.000215 0.019037 -0.016933 0.000000 0.000000 0.000000
# 3 -0.011453 -0.016933 0.041767 0.000000 0.000000 0.000000
# 4 0.000000 0.000000 0.000000 0.029220 0.000000 0.000000
# 5 0.000000 0.000000 0.000000 0.000000 0.113610 0.000000
# 6 0.000000 0.000000 0.000000 0.000000 0.000000 -0.111649
#
#
# Mechanical properties :
#
#
# Convention : Reuss Voigt Hill
#
# Bulk Modulus (GPa) = 60.03587 68.28289 64.15938
# Shear Modulus (GPa) = 30.10750 15.89259 23.00004
#
# Velocity S-wave (km/s) = 4.00325 2.90852 3.49896
# Velocity P-wave (km/s) = 7.30237 6.90114 7.10459
#
# Compressibility (1/GPa) = 0.01665671
#
# Stress axis : x y z
#
# Youngs Moduli (GPa) = 82.00964 52.52829 23.94232
#
# Poissons Ratio (x) = -0.01131 0.27422
# Poissons Ratio (y) = -0.01766 0.40541
# Poissons Ratio (z) = 0.93928 0.88945
#
# Static dielectric constant tensor:
#      x y z
#    x 1.683120 0.000000 0.000000 
#    y 0.000000 1.633580 0.000000 
#    z 0.000000 0.000000 1.625660 
# 
# From -- ./inp_files/12404.got.cif
#   From: 2010.05.17/outbox.cif.g08.bks.cpg/sg65_7_cif.got.tgz:12404.got - 2010.06.03 17:01:31.
