data_PCOD9491140
_publ_section_title
;
Structure prediction by ZEFSAII (Michael W. Deem and Ramdas Pophale) SiO2 
 PCOD9491140
Probable space group: C M M M
;
_chemical_formula_sum "Si O2"
_cell_formula_units_Z 72
_cell_length_a 13.777284
_cell_length_b 17.493104
_cell_length_c 16.643018
_cell_angle_alpha 90.000000
_cell_angle_beta 90.000000
_cell_angle_gamma 90.000000
_cell_volume 4011.091526
_symmetry_space_group_name_H-M "C M M M"
_symmetry_group_IT_number 65
_symmetry_cell_setting 'orthorhombic'
loop_
_space_group_symop_operation_xyz
x,y,z
-x,-y,z
x,-y,-z
-x,y,-z
-x,-y,-z
x,y,-z
-x,y,z
x,-y,z
1/2+x,1/2+y,z
1/2-x,1/2-y,z
1/2+x,1/2-y,-z
1/2-x,1/2+y,-z
1/2-x,1/2-y,-z
1/2+x,1/2+y,-z
1/2-x,1/2+y,z
1/2+x,1/2-y,z
loop_
_atom_site_type_symbol
_atom_site_label
_atom_site_fract_x
_atom_site_fract_y
_atom_site_fract_z
Si Si1 0.251940 0.914995 0.908222
Si Si2 0.775074 0.839212 0.652600
Si Si3 0.612380 0.868129 0.771378
Si Si4 0.614667 0.591754 0.500000
Si Si5 0.111682 0.188369 0.811809
O O1 0.339467 0.912996 0.844701
O O2 0.177852 0.849692 0.879588
O O3 0.206693 0.000000 0.903360
O O4 0.283272 0.902598 0.000000
O O5 0.750000 0.750000 0.635694
O O6 0.677133 0.875461 0.690794
O O7 0.826441 0.877354 0.577054
O O8 0.849811 0.843333 0.727017
O O9 0.500000 0.885635 0.758074
O O10 0.621524 0.779532 0.800598
O O11 0.615628 0.500000 0.500000
O O12 0.500000 0.615945 0.500000
O O13 0.000000 0.170172 0.825572
#
# Coordination Sequence:
#
# PCOD9491140 Si02
#       5
#    16  16  16   8  16
#     4  10  21  34  48  72 107 142 174 210 255 310
#     4   9  18  35  56  78 104 135 171 210 254 305
#     4   9  19  36  57  78  99 130 175 221 260 300
#     4  11  23  36  53  81 113 139 166 205 254 308
#     4   9  18  34  56  78 100 130 171 217 262 306
#
# _framework density 17.950226000000001
#
# number of rings (size 3 to 8) (size 9 to 14) (size 15 to 20)
#    0.000    2.556    0.000    3.000    0.000    8.000 
#    0.000    5.000    0.000    0.667    0.000    0.000 
#    0.000    0.000    0.000    0.000    0.000    0.000 
#
# Total GULP energy -200631.021040 kJ/mol
# GULP energy per Si atom -5573.083918 kJ/mol
# Density = 1.790937 g / cm^3
# Si number density = 17.950226 Si / 1000 Ang^3
#
#
#
# Elastic Constant Matrix: (Units=GPa)
#
#
# Indices 1 2 3 4 5 6 
#
# 1 139.1700 35.4011 59.3799 0.0000 0.0000 0.0000
# 2 35.4011 30.0299 37.9174 0.0000 0.0000 0.0000
# 3 59.3799 37.9174 123.2399 0.0000 0.0000 0.0000
# 4 0.0000 0.0000 0.0000 50.1310 0.0000 0.0000
# 5 0.0000 0.0000 0.0000 0.0000 5.6334 0.0000
# 6 0.0000 0.0000 0.0000 0.0000 0.0000 16.7766
#
#
#
# Elastic Compliance Matrix: (Units=1/GPa)
#
#
# Indices 1 2 3 4 5 6 
#
# 1 0.010573 -0.009864 -0.002060 0.000000 0.000000 0.000000
# 2 -0.009864 0.063657 -0.014833 0.000000 0.000000 0.000000
# 3 -0.002060 -0.014833 0.013670 0.000000 0.000000 0.000000
# 4 0.000000 0.000000 0.000000 0.019948 0.000000 0.000000
# 5 0.000000 0.000000 0.000000 0.000000 0.177512 0.000000
# 6 0.000000 0.000000 0.000000 0.000000 0.000000 0.059607
#
#
# Mechanical properties :
#
#
# Convention : Reuss Voigt Hill
#
# Bulk Modulus (GPa) = 29.08000 61.98185 45.53093
# Shear Modulus (GPa) = 12.19685 25.15765 18.67725
#
# Velocity S-wave (km/s) = 2.60951 3.74775 3.22918
# Velocity P-wave (km/s) = 5.03140 7.30290 6.27086
#
# Compressibility (1/GPa) = 0.03438789
#
# Stress axis : x y z
#
# Youngs Moduli (GPa) = 94.57729 15.70925 73.15160
#
# Poissons Ratio (x) = 0.15495 0.15067
# Poissons Ratio (y) = 0.93290 1.08504
# Poissons Ratio (z) = 0.19480 0.23301
#
# Static dielectric constant tensor:
#      x y z
#    x 1.618250 0.000000 0.000000 
#    y 0.000000 1.641770 0.000000 
#    z 0.000000 0.000000 1.587180 
# 
# From -- ./inp_files/39798.got.cif
#   From: 2010.05.17/outbox.cif.g08.bks.cpg/sg65_20_cif.got.tgz:39798.got - 2010.06.03 17:01:31.
