data_PCOD9491875
_publ_section_title
;
Structure prediction by ZEFSAII (Michael W. Deem and Ramdas Pophale) SiO2 
 PCOD9491875
Probable space group: C M M M
;
_chemical_formula_sum "Si O2"
_cell_formula_units_Z 64
_cell_length_a 16.170881
_cell_length_b 24.452976
_cell_length_c 7.730971
_cell_angle_alpha 90.000000
_cell_angle_beta 90.000000
_cell_angle_gamma 90.000000
_cell_volume 3057.028214
_symmetry_space_group_name_H-M "C M M M"
_symmetry_group_IT_number 65
_symmetry_cell_setting 'orthorhombic'
loop_
_space_group_symop_operation_xyz
x,y,z
-x,-y,z
x,-y,-z
-x,y,-z
-x,-y,-z
x,y,-z
-x,y,z
x,-y,z
1/2+x,1/2+y,z
1/2-x,1/2-y,z
1/2+x,1/2-y,-z
1/2-x,1/2+y,-z
1/2-x,1/2-y,-z
1/2+x,1/2+y,-z
1/2-x,1/2+y,z
1/2+x,1/2-y,z
loop_
_atom_site_type_symbol
_atom_site_label
_atom_site_fract_x
_atom_site_fract_y
_atom_site_fract_z
Si Si1 0.000000 0.212781 0.787285
Si Si2 0.634680 0.500000 0.788776
Si Si3 0.906181 0.385225 0.704757
Si Si4 0.500000 0.587197 0.210741
Si Si5 0.823579 0.500000 0.793000
Si Si6 0.835618 0.727157 0.796067
O O1 0.082196 0.243687 0.725637
O O2 0.000000 0.149659 0.733225
O O3 0.000000 0.214168 0.000000
O O4 0.580844 0.447228 0.735641
O O5 0.728838 0.500000 0.727776
O O6 0.636190 0.500000 0.000000
O O7 0.909609 0.376736 0.500000
O O8 0.870899 0.445351 0.737755
O O9 0.848182 0.337626 0.778073
O O10 0.000000 0.380087 0.774841
O O11 0.500000 0.587230 0.000000
O O12 0.820593 0.500000 0.000000
O O13 0.750000 0.750000 0.721509
O O14 0.834573 0.740267 0.000000
#
# Coordination Sequence:
#
# PCOD9491875 Si02
#       6
#     8   8  16   8   8  16
#     4   9  17  30  52  82 117 150 181 230 289 336
#     4   8  16  29  48  81 117 144 175 224 280 333
#     4  11  24  42  60  80 113 155 194 234 287 353
#     4   8  14  27  48  77 116 150 176 215 276 341
#     4  11  23  36  60  90 113 140 188 247 297 343
#     4  10  21  36  59  90 119 150 192 242 291 340
#
# _framework density 20.935365000000001
#
# number of rings (size 3 to 8) (size 9 to 14) (size 15 to 20)
#    0.000    2.250    1.250    2.250    3.500    3.500 
#    0.000    0.000    0.000    0.000    0.000    7.000 
#    0.000    0.000    0.000    0.000    0.000    0.000 
#
# Total GULP energy -178733.357459 kJ/mol
# GULP energy per Si atom -5585.417421 kJ/mol
# Density = 2.088772 g / cm^3
# Si number density = 20.935365 Si / 1000 Ang^3
#
#
#
# Elastic Constant Matrix: (Units=GPa)
#
#
# Indices 1 2 3 4 5 6 
#
# 1 174.5956 78.6515 7.1684 0.0000 0.0000 0.0000
# 2 78.6515 150.8893 -18.6861 0.0000 0.0000 0.0000
# 3 7.1684 -18.6861 31.8344 0.0000 0.0000 0.0000
# 4 0.0000 0.0000 0.0000 -59.3851 0.0000 0.0000
# 5 0.0000 0.0000 0.0000 0.0000 -3.7076 0.0000
# 6 0.0000 0.0000 0.0000 0.0000 0.0000 20.1317
#
#
#
# Elastic Compliance Matrix: (Units=1/GPa)
#
#
# Indices 1 2 3 4 5 6 
#
# 1 0.008070 -0.004779 -0.004622 0.000000 0.000000 0.000000
# 2 -0.004779 0.009977 0.006932 0.000000 0.000000 0.000000
# 3 -0.004622 0.006932 0.036523 0.000000 0.000000 0.000000
# 4 0.000000 0.000000 0.000000 -0.016839 0.000000 0.000000
# 5 0.000000 0.000000 0.000000 0.000000 -0.269720 0.000000
# 6 0.000000 0.000000 0.000000 0.000000 0.000000 0.049673
#
#
# Mechanical properties :
#
#
# Convention : Reuss Voigt Hill
#
# Bulk Modulus (GPa) = 20.14847 54.62078 37.38463
# Shear Modulus (GPa) = -31.08787 10.75351 -10.16718
#
# Velocity S-wave (km/s) = -3.85768 2.26885 -2.20613
# Velocity P-wave (km/s) = 3.19331 5.74547 3.37736
#
# Compressibility (1/GPa) = 0.04963156
#
# Stress axis : x y z
#
# Youngs Moduli (GPa) = 123.91346 100.23095 27.38035
#
# Poissons Ratio (x) = 0.47901 0.12656
# Poissons Ratio (y) = 0.59219 -0.18981
# Poissons Ratio (z) = 0.57278 -0.69484
#
# Static dielectric constant tensor:
#      x y z
#    x 1.754220 0.000000 0.000000 
#    y 0.000000 1.738570 0.000000 
#    z 0.000000 0.000000 1.771760 
# 
# From -- ./inp_files/6818.got.cif
#   From: 2010.05.17/outbox.cif.g08.bks.cpg/sg65_4_cif.got.tgz:6818.got - 2010.06.03 17:01:31.
