data_PCOD9491969
_publ_section_title
;
Structure prediction by ZEFSAII (Michael W. Deem and Ramdas Pophale) SiO2 
 PCOD9491969
Probable space group: C M M M
;
_chemical_formula_sum "Si O2"
_cell_formula_units_Z 88
_cell_length_a 19.452259
_cell_length_b 8.157232
_cell_length_c 29.504930
_cell_angle_alpha 90.000000
_cell_angle_beta 90.000000
_cell_angle_gamma 90.000000
_cell_volume 4681.741668
_symmetry_space_group_name_H-M "C M M M"
_symmetry_group_IT_number 65
_symmetry_cell_setting 'orthorhombic'
loop_
_space_group_symop_operation_xyz
x,y,z
-x,-y,z
x,-y,-z
-x,y,-z
-x,-y,-z
x,y,-z
-x,y,z
x,-y,z
1/2+x,1/2+y,z
1/2-x,1/2-y,z
1/2+x,1/2-y,-z
1/2-x,1/2+y,-z
1/2-x,1/2-y,-z
1/2+x,1/2+y,-z
1/2-x,1/2+y,z
1/2+x,1/2-y,z
loop_
_atom_site_type_symbol
_atom_site_label
_atom_site_fract_x
_atom_site_fract_y
_atom_site_fract_z
Si Si1 0.078936 0.801983 0.182272
Si Si2 0.829824 0.197642 0.000000
Si Si3 0.329409 0.698459 0.098749
Si Si4 0.171408 0.804789 0.633995
Si Si5 0.578701 0.804277 0.717557
Si Si6 0.078883 0.799927 0.448550
O O1 0.126254 0.741961 0.141215
O O2 0.101882 0.748495 0.232252
O O3 0.000000 0.746264 0.176531
O O4 0.079111 0.000000 0.181257
O O5 0.750000 0.250000 0.000000
O O6 0.856736 0.254193 0.049098
O O7 0.833929 0.000000 0.000000
O O8 0.331536 0.500000 0.098954
O O9 0.250000 0.750000 0.103011
O O10 0.250000 0.750000 0.635902
O O11 0.128811 0.755909 0.678426
O O12 0.131170 0.739856 0.589594
O O13 0.170849 0.000000 0.631063
O O14 0.500000 0.741925 0.710988
O O15 0.576698 0.000000 0.716075
O O16 0.095589 0.748373 0.500000
O O17 0.000000 0.751214 0.438412
O O18 0.079766 0.000000 0.448326
#
# Coordination Sequence:
#
# PCOD9491969 Si02
#       6
#    16   8  16  16  16  16
#     4   9  18  33  51  71  97 129 164 201 245 298
#     4   8  14  26  43  65  93 123 157 194 236 286
#     4   9  17  29  47  70  95 125 160 199 241 288
#     4  11  22  35  53  78 108 140 172 209 254 300
#     4  10  21  37  56  76  99 130 169 212 256 304
#     4   8  15  30  53  79 104 133 172 212 248 293
#
# _framework density 18.796423999999998
#
# number of rings (size 3 to 8) (size 9 to 14) (size 15 to 20)
#    0.000    2.727    0.000    2.182    0.000    3.636 
#    0.000    2.273    0.000    4.364    0.000    6.364 
#    0.000   10.182    0.000    0.000    0.000    0.000 
#
# Total GULP energy -245310.011229 kJ/mol
# GULP energy per Si atom -5575.227528 kJ/mol
# Density = 1.875364 g / cm^3
# Si number density = 18.796424 Si / 1000 Ang^3
#
#
#
# Elastic Constant Matrix: (Units=GPa)
#
#
# Indices 1 2 3 4 5 6 
#
# 1 102.7854 11.9371 122.9296 0.0000 0.0000 0.0000
# 2 11.9371 16.4658 18.8053 0.0000 0.0000 0.0000
# 3 122.9296 18.8053 216.8813 0.0000 0.0000 0.0000
# 4 0.0000 0.0000 0.0000 7.5213 0.0000 0.0000
# 5 0.0000 0.0000 0.0000 0.0000 26.9275 0.0000
# 6 0.0000 0.0000 0.0000 0.0000 0.0000 14.3285
#
#
#
# Elastic Compliance Matrix: (Units=1/GPa)
#
#
# Indices 1 2 3 4 5 6 
#
# 1 0.030305 -0.002611 -0.016951 0.000000 0.000000 0.000000
# 2 -0.002611 0.067632 -0.004384 0.000000 0.000000 0.000000
# 3 -0.016951 -0.004384 0.014599 0.000000 0.000000 0.000000
# 4 0.000000 0.000000 0.000000 0.132955 0.000000 0.000000
# 5 0.000000 0.000000 0.000000 0.000000 0.037137 0.000000
# 6 0.000000 0.000000 0.000000 0.000000 0.000000 0.069791
#
#
# Mechanical properties :
#
#
# Convention : Reuss Voigt Hill
#
# Bulk Modulus (GPa) = 15.46934 71.49741 43.48338
# Shear Modulus (GPa) = 11.85230 21.91947 16.88589
#
# Velocity S-wave (km/s) = 2.51382 3.41860 3.00051
# Velocity P-wave (km/s) = 4.08333 7.32822 5.93196
#
# Compressibility (1/GPa) = 0.06464398
#
# Stress axis : x y z
#
# Youngs Moduli (GPa) = 32.99799 14.78585 68.49935
#
# Poissons Ratio (x) = 0.03861 1.16110
# Poissons Ratio (y) = 0.08616 0.30032
# Poissons Ratio (z) = 0.55934 0.06483
#
# Static dielectric constant tensor:
#      x y z
#    x 1.596680 0.000000 0.000000 
#    y 0.000000 1.659480 0.000000 
#    z 0.000000 0.000000 1.670740 
# 
# From -- ./inp_files/73119.got.cif
#   From: 2010.05.17/outbox.cif.g08.bks.cpg/sg65_37_cif.got.tgz:73119.got - 2010.06.03 17:01:31.
