data_PCOD9491398
_publ_section_title
;
Structure prediction by ZEFSAII (Michael W. Deem and Ramdas Pophale) SiO2 
 PCOD9491398
Probable space group: C M M M
;
_chemical_formula_sum "Si O2"
_cell_formula_units_Z 104
_cell_length_a 32.192109
_cell_length_b 19.774978
_cell_length_c 8.358800
_cell_angle_alpha 90.000000
_cell_angle_beta 90.000000
_cell_angle_gamma 90.000000
_cell_volume 5321.197429
_symmetry_space_group_name_H-M "C M M M"
_symmetry_group_IT_number 65
_symmetry_cell_setting 'orthorhombic'
loop_
_space_group_symop_operation_xyz
x,y,z
-x,-y,z
x,-y,-z
-x,y,-z
-x,-y,-z
x,y,-z
-x,y,z
x,-y,z
1/2+x,1/2+y,z
1/2-x,1/2-y,z
1/2+x,1/2-y,-z
1/2-x,1/2+y,-z
1/2-x,1/2-y,-z
1/2+x,1/2+y,-z
1/2-x,1/2+y,z
1/2+x,1/2-y,z
loop_
_atom_site_type_symbol
_atom_site_label
_atom_site_fract_x
_atom_site_fract_y
_atom_site_fract_z
Si Si1 0.743699 0.575441 0.695293
Si Si2 0.399464 0.304968 0.185638
Si Si3 0.173888 0.647051 0.693157
Si Si4 0.000000 0.576727 0.690679
Si Si5 0.581302 0.845367 0.190405
Si Si6 0.189450 0.798462 0.312935
Si Si7 0.549648 0.424646 0.312070
O O1 0.740554 0.575109 0.500000
O O2 0.731573 0.500000 0.750022
O O3 0.791472 0.592187 0.735663
O O4 0.716635 0.639602 0.753686
O O5 0.420336 0.234189 0.235304
O O6 0.358637 0.317087 0.290318
O O7 0.430055 0.366724 0.208998
O O8 0.386831 0.298136 0.000000
O O9 0.171401 0.650828 0.500000
O O10 0.127552 0.632950 0.754808
O O11 0.190485 0.721165 0.751033
O O12 0.957860 0.614632 0.741654
O O13 0.000000 0.500000 0.755125
O O14 0.000000 0.573886 0.500000
O O15 0.579271 0.850652 0.000000
O O16 0.200804 0.793160 0.500000
O O17 0.559602 0.414254 0.500000
O O18 0.500000 0.422762 0.297918
O O19 0.563856 0.500000 0.266908
#
# Coordination Sequence:
#
# PCOD9491398 Si02
#       7
#    16  16  16   8  16  16  16
#     4   9  17  29  49  78 106 134 175 228 277 317
#     4  10  21  35  53  79 110 143 181 223 270 322
#     4   9  17  32  54  78 105 139 181 225 268 318
#     4  11  25  43  63  87 112 141 180 225 273 324
#     4  10  22  39  58  83 114 146 181 221 272 332
#     4   9  17  31  51  74 102 138 179 220 268 321
#     4   9  19  35  53  75 103 137 179 224 270 321
#
# _framework density 19.544473
#
# number of rings (size 3 to 8) (size 9 to 14) (size 15 to 20)
#    0.000    2.538    0.000    2.077    1.077    6.154 
#    0.000    4.615    0.000    4.615    0.000    0.000 
#    0.000    0.000    0.000    0.000    0.000    0.000 
#
# Total GULP energy -289929.221388 kJ/mol
# GULP energy per Si atom -5575.561950 kJ/mol
# Density = 1.949999 g / cm^3
# Si number density = 19.544473 Si / 1000 Ang^3
#
#
#
# Elastic Constant Matrix: (Units=GPa)
#
#
# Indices 1 2 3 4 5 6 
#
# 1 95.9397 80.3758 19.3920 0.0000 0.0000 0.0000
# 2 80.3758 92.1026 18.7626 0.0000 0.0000 0.0000
# 3 19.3920 18.7626 14.2327 0.0000 0.0000 0.0000
# 4 0.0000 0.0000 0.0000 15.0621 0.0000 0.0000
# 5 0.0000 0.0000 0.0000 0.0000 -32.4857 0.0000
# 6 0.0000 0.0000 0.0000 0.0000 0.0000 20.2901
#
#
#
# Elastic Compliance Matrix: (Units=1/GPa)
#
#
# Indices 1 2 3 4 5 6 
#
# 1 0.040124 -0.032646 -0.011633 0.000000 0.000000 0.000000
# 2 -0.032646 0.041405 -0.010103 0.000000 0.000000 0.000000
# 3 -0.011633 -0.010103 0.099429 0.000000 0.000000 0.000000
# 4 0.000000 0.000000 0.000000 0.066392 0.000000 0.000000
# 5 0.000000 0.000000 0.000000 0.000000 -0.030783 0.000000
# 6 0.000000 0.000000 0.000000 0.000000 0.000000 0.049285
#
#
# Mechanical properties :
#
#
# Convention : Reuss Voigt Hill
#
# Bulk Modulus (GPa) = 13.85151 48.81510 31.33330
# Shear Modulus (GPa) = 12.54134 6.15628 9.34881
#
# Velocity S-wave (km/s) = 2.53589 1.77672 2.18946
# Velocity P-wave (km/s) = 3.95941 5.40737 4.73901
#
# Compressibility (1/GPa) = 0.07219431
#
# Stress axis : x y z
#
# Youngs Moduli (GPa) = 24.92247 24.15182 10.05739
#
# Poissons Ratio (x) = 0.78845 0.11700
# Poissons Ratio (y) = 0.81361 0.10161
# Poissons Ratio (z) = 0.28993 0.24400
#
# Static dielectric constant tensor:
#      x y z
#    x 1.665040 0.000000 0.000000 
#    y 0.000000 1.704240 0.000000 
#    z 0.000000 0.000000 1.691690 
# 
# From -- ./inp_files/18703.got.cif
#   From: 2010.05.17/outbox.cif.g08.bks.cpg/sg65_10_cif.got.tgz:18703.got - 2010.06.03 17:01:31.
