data_PCOD9491133
_publ_section_title
;
Structure prediction by ZEFSAII (Michael W. Deem and Ramdas Pophale) SiO2 
 PCOD9491133
Probable space group: C M M M
;
_chemical_formula_sum "Si O2"
_cell_formula_units_Z 96
_cell_length_a 24.607160
_cell_length_b 13.264996
_cell_length_c 13.502097
_cell_angle_alpha 90.000000
_cell_angle_beta 90.000000
_cell_angle_gamma 90.000000
_cell_volume 4407.271856
_symmetry_space_group_name_H-M "C M M M"
_symmetry_group_IT_number 65
_symmetry_cell_setting 'orthorhombic'
loop_
_space_group_symop_operation_xyz
x,y,z
-x,-y,z
x,-y,-z
-x,y,-z
-x,-y,-z
x,y,-z
-x,y,z
x,-y,z
1/2+x,1/2+y,z
1/2-x,1/2-y,z
1/2+x,1/2-y,-z
1/2-x,1/2+y,-z
1/2-x,1/2-y,-z
1/2+x,1/2+y,-z
1/2-x,1/2+y,z
1/2+x,1/2-y,z
loop_
_atom_site_type_symbol
_atom_site_label
_atom_site_fract_x
_atom_site_fract_y
_atom_site_fract_z
Si Si1 0.291995 0.622499 0.892725
Si Si2 0.174622 0.377723 0.180421
Si Si3 0.558508 0.879107 0.809098
Si Si4 0.161095 0.121585 0.681669
Si Si5 0.061458 0.744917 0.387443
Si Si6 0.219074 0.378111 0.607882
O O1 0.291762 0.500000 0.891828
O O2 0.228805 0.651970 0.877271
O O3 0.326803 0.649818 0.796403
O O4 0.312094 0.655274 0.000000
O O5 0.174320 0.500000 0.178327
O O6 0.115400 0.345509 0.143297
O O7 0.185353 0.348431 0.295260
O O8 0.500000 0.842451 0.848644
O O9 0.562524 0.842221 0.695331
O O10 0.557549 0.000000 0.812675
O O11 0.108245 0.175409 0.638917
O O12 0.217529 0.147197 0.625496
O O13 0.155094 0.000000 0.675737
O O14 0.068764 0.708105 0.500000
O O15 0.000000 0.788935 0.381327
O O16 0.200359 0.343394 0.500000
O O17 0.217009 0.500000 0.607407
#
# Coordination Sequence:
#
# PCOD9491133 Si02
#       6
#    16  16  16  16  16  16
#     4   8  14  27  50  78 104 130 161 199 245 296
#     4   8  14  25  44  70  95 121 156 198 243 288
#     4   9  18  33  51  68  91 128 169 207 248 290
#     4   9  17  30  49  72 100 133 163 194 239 294
#     4  10  21  34  48  70  99 131 169 209 244 283
#     4   8  13  22  38  61  90 123 155 187 227 278
#
# _framework density 21.782181999999999
#
# number of rings (size 3 to 8) (size 9 to 14) (size 15 to 20)
#    0.000    3.333    0.000    2.500    0.000    2.333 
#    0.000    7.500    0.000    8.000    0.000    8.167 
#    0.000    0.000    0.000    0.000    0.000    0.333 
#
# Total GULP energy -268023.324936 kJ/mol
# GULP energy per Si atom -5583.819269 kJ/mol
# Density = 2.173260 g / cm^3
# Si number density = 21.782182 Si / 1000 Ang^3
#
#
#
# Elastic Constant Matrix: (Units=GPa)
#
#
# Indices 1 2 3 4 5 6 
#
# 1 118.6142 22.9405 -2.4757 0.0000 0.0000 0.0000
# 2 22.9405 57.9571 1.2898 0.0000 0.0000 0.0000
# 3 -2.4757 1.2898 61.3771 0.0000 0.0000 0.0000
# 4 0.0000 0.0000 0.0000 22.0527 0.0000 0.0000
# 5 0.0000 0.0000 0.0000 0.0000 9.2512 0.0000
# 6 0.0000 0.0000 0.0000 0.0000 0.0000 27.5645
#
#
#
# Elastic Compliance Matrix: (Units=1/GPa)
#
#
# Indices 1 2 3 4 5 6 
#
# 1 0.009142 -0.003628 0.000445 0.000000 0.000000 0.000000
# 2 -0.003628 0.018702 -0.000539 0.000000 0.000000 0.000000
# 3 0.000445 -0.000539 0.016322 0.000000 0.000000 0.000000
# 4 0.000000 0.000000 0.000000 0.045346 0.000000 0.000000
# 5 0.000000 0.000000 0.000000 0.000000 0.108094 0.000000
# 6 0.000000 0.000000 0.000000 0.000000 0.000000 0.036278
#
#
# Mechanical properties :
#
#
# Convention : Reuss Voigt Hill
#
# Bulk Modulus (GPa) = 27.23271 31.27307 29.25289
# Shear Modulus (GPa) = 19.71841 26.18662 22.95251
#
# Velocity S-wave (km/s) = 3.01201 3.47104 3.24964
# Velocity P-wave (km/s) = 4.96243 5.51838 5.24777
#
# Compressibility (1/GPa) = 0.03672054
#
# Stress axis : x y z
#
# Youngs Moduli (GPa) = 109.38857 53.46932 61.26698
#
# Poissons Ratio (x) = 0.19401 -0.02726
# Poissons Ratio (y) = 0.39690 0.03305
# Poissons Ratio (z) = -0.04868 0.02884
#
# Static dielectric constant tensor:
#      x y z
#    x 1.809470 0.000000 0.000000 
#    y 0.000000 1.864590 0.000000 
#    z 0.000000 0.000000 1.771980 
# 
# From -- ./inp_files/44105.got.cif
#   From: 2010.05.17/outbox.cif.g08.bks.cpg/sg65_23_cif.got.tgz:44105.got - 2010.06.03 17:01:31.
