data_PCOD9491677
_publ_section_title
;
Structure prediction by ZEFSAII (Michael W. Deem and Ramdas Pophale) SiO2 
 PCOD9491677
Probable space group: C M M M
;
_chemical_formula_sum "Si O2"
_cell_formula_units_Z 72
_cell_length_a 24.461327
_cell_length_b 18.227651
_cell_length_c 7.688082
_cell_angle_alpha 90.000000
_cell_angle_beta 90.000000
_cell_angle_gamma 90.000000
_cell_volume 3427.904584
_symmetry_space_group_name_H-M "C M M M"
_symmetry_group_IT_number 65
_symmetry_cell_setting 'orthorhombic'
loop_
_space_group_symop_operation_xyz
x,y,z
-x,-y,z
x,-y,-z
-x,y,-z
-x,-y,-z
x,y,-z
-x,y,z
x,-y,z
1/2+x,1/2+y,z
1/2-x,1/2-y,z
1/2+x,1/2-y,-z
1/2-x,1/2+y,-z
1/2-x,1/2-y,-z
1/2+x,1/2+y,-z
1/2-x,1/2+y,z
1/2+x,1/2-y,z
loop_
_atom_site_type_symbol
_atom_site_label
_atom_site_fract_x
_atom_site_fract_y
_atom_site_fract_z
Si Si1 0.937083 0.000000 0.787935
Si Si2 0.867802 0.583106 0.705484
Si Si3 0.061337 0.280234 0.794495
Si Si4 0.631161 0.643847 0.786834
Si Si5 0.245128 0.084672 0.209771
O O1 0.904431 0.072857 0.735593
O O2 0.000000 0.000000 0.729650
O O3 0.937780 0.000000 0.000000
O O4 0.875996 0.579275 0.500000
O O5 0.872467 0.500000 0.777295
O O6 0.910935 0.640823 0.775884
O O7 0.805636 0.609026 0.738182
O O8 0.101386 0.217200 0.723967
O O9 0.000000 0.277709 0.721010
O O10 0.056826 0.265162 0.000000
O O11 0.693633 0.632019 0.729342
O O12 0.632373 0.644985 0.000000
O O13 0.238195 0.000000 0.268980
O O14 0.243793 0.083830 0.000000
#
# Coordination Sequence:
#
# PCOD9491677 Si02
#       5
#     8  16  16  16  16
#     4   9  14  22  42  74 111 147 178 207 244 295
#     4  10  22  39  57  76 100 134 177 224 273 320
#     4  10  21  36  54  79 110 140 173 215 262 313
#     4   9  16  28  48  78 112 143 173 209 254 302
#     4   9  16  30  54  81 109 139 174 214 256 306
#
# _framework density 21.004086000000001
#
# number of rings (size 3 to 8) (size 9 to 14) (size 15 to 20)
#    0.000    2.556    1.111    1.333    0.000    5.778 
#    0.000    7.778    0.000    0.000    0.000    0.000 
#    0.000    3.556    0.000    0.000    0.000    0.000 
#
# Total GULP energy -200963.799228 kJ/mol
# GULP energy per Si atom -5582.327756 kJ/mol
# Density = 2.095628 g / cm^3
# Si number density = 21.004086 Si / 1000 Ang^3
#
#
#
# Elastic Constant Matrix: (Units=GPa)
#
#
# Indices 1 2 3 4 5 6 
#
# 1 91.0599 49.1482 -3.1590 0.0000 0.0000 0.0000
# 2 49.1482 88.9664 -3.7651 0.0000 0.0000 0.0000
# 3 -3.1590 -3.7651 32.3677 0.0000 0.0000 0.0000
# 4 0.0000 0.0000 0.0000 -6.0301 0.0000 0.0000
# 5 0.0000 0.0000 0.0000 0.0000 -114.2675 0.0000
# 6 0.0000 0.0000 0.0000 0.0000 0.0000 -13.0250
#
#
#
# Elastic Compliance Matrix: (Units=1/GPa)
#
#
# Indices 1 2 3 4 5 6 
#
# 1 0.015656 -0.008627 0.000525 0.000000 0.000000 0.000000
# 2 -0.008627 0.016049 0.001025 0.000000 0.000000 0.000000
# 3 0.000525 0.001025 0.031065 0.000000 0.000000 0.000000
# 4 0.000000 0.000000 0.000000 -0.165835 0.000000 0.000000
# 5 0.000000 0.000000 0.000000 0.000000 -0.008751 0.000000
# 6 0.000000 0.000000 0.000000 0.000000 0.000000 -0.076776
#
#
# Mechanical properties :
#
#
# Convention : Reuss Voigt Hill
#
# Bulk Modulus (GPa) = 20.56929 32.98247 26.77588
# Shear Modulus (GPa) = -31.59937 -15.31985 -23.45961
#
# Velocity S-wave (km/s) = -3.88292 -2.70362 -3.34564
# Velocity P-wave (km/s) = 3.20757 2.44762 1.46588
#
# Compressibility (1/GPa) = 0.04861617
#
# Stress axis : x y z
#
# Youngs Moduli (GPa) = 63.87259 62.30791 32.19015
#
# Poissons Ratio (x) = 0.53752 -0.01688
# Poissons Ratio (y) = 0.55102 -0.03299
# Poissons Ratio (z) = -0.03350 -0.06386
#
# Static dielectric constant tensor:
#      x y z
#    x 1.736380 0.000000 0.000000 
#    y 0.000000 1.743510 0.000000 
#    z 0.000000 0.000000 1.796470 
# 
# From -- ./inp_files/9284.got.cif
#   From: 2010.05.17/outbox.cif.g08.bks.cpg/sg65_5_cif.got.tgz:9284.got - 2010.06.03 17:01:31.
