data_PCOD9491250
_publ_section_title
;
Structure prediction by ZEFSAII (Michael W. Deem and Ramdas Pophale) SiO2 
 PCOD9491250
Probable space group: C M M M
;
_chemical_formula_sum "Si O2"
_cell_formula_units_Z 80
_cell_length_a 30.048594
_cell_length_b 13.871291
_cell_length_c 9.197590
_cell_angle_alpha 90.000000
_cell_angle_beta 90.000000
_cell_angle_gamma 90.000000
_cell_volume 3833.673163
_symmetry_space_group_name_H-M "C M M M"
_symmetry_group_IT_number 65
_symmetry_cell_setting 'orthorhombic'
loop_
_space_group_symop_operation_xyz
x,y,z
-x,-y,z
x,-y,-z
-x,y,-z
-x,-y,-z
x,y,-z
-x,y,z
x,-y,z
1/2+x,1/2+y,z
1/2-x,1/2-y,z
1/2+x,1/2-y,-z
1/2-x,1/2+y,-z
1/2-x,1/2-y,-z
1/2+x,1/2+y,-z
1/2-x,1/2+y,z
1/2+x,1/2-y,z
loop_
_atom_site_type_symbol
_atom_site_label
_atom_site_fract_x
_atom_site_fract_y
_atom_site_fract_z
Si Si1 0.446784 0.392724 0.836272
Si Si2 0.224276 0.615897 0.665651
Si Si3 0.050866 0.300262 0.671650
Si Si4 0.185126 0.111545 0.827543
Si Si5 0.861609 0.694629 0.828137
O O1 0.500000 0.401984 0.849685
O O2 0.428980 0.500000 0.806006
O O3 0.443121 0.312255 0.713451
O O4 0.431257 0.362680 0.000000
O O5 0.221199 0.651252 0.500000
O O6 0.224711 0.500000 0.662497
O O7 0.270930 0.643210 0.740396
O O8 0.181622 0.647278 0.756872
O O9 0.054874 0.316032 0.500000
O O10 0.092799 0.343779 0.757038
O O11 0.000000 0.327597 0.715655
O O12 0.146870 0.190256 0.801625
O O13 0.174781 0.000000 0.790320
O O14 0.195078 0.114283 0.000000
O O15 0.862138 0.678276 0.000000
#
# Coordination Sequence:
#
# PCOD9491250 Si02
#       5
#    16  16  16  16  16
#     4   8  14  26  44  64  88 123 168 215 261 311
#     4  10  21  37  58  84 113 144 178 221 276 333
#     4  10  21  35  50  71 102 140 182 230 281 328
#     4   9  19  36  56  81 115 150 183 220 264 319
#     4  11  22  35  56  83 110 146 188 228 273 325
#
# _framework density 20.867715
#
# number of rings (size 3 to 8) (size 9 to 14) (size 15 to 20)
#    0.000    2.400    0.000    3.000    0.000    7.600 
#    0.000    4.000    0.000    0.600    0.000    4.200 
#    0.000    0.000    0.000    0.000    0.000    0.000 
#
# Total GULP energy -223128.026114 kJ/mol
# GULP energy per Si atom -5578.200653 kJ/mol
# Density = 2.082022 g / cm^3
# Si number density = 20.867715 Si / 1000 Ang^3
#
#
#
# Elastic Constant Matrix: (Units=GPa)
#
#
# Indices 1 2 3 4 5 6 
#
# 1 188.4922 8.1950 81.0105 0.0000 0.0000 0.0000
# 2 8.1950 9.5825 7.1358 0.0000 0.0000 0.0000
# 3 81.0105 7.1358 77.5010 0.0000 0.0000 0.0000
# 4 0.0000 0.0000 0.0000 22.6332 0.0000 0.0000
# 5 0.0000 0.0000 0.0000 0.0000 37.9408 0.0000
# 6 0.0000 0.0000 0.0000 0.0000 0.0000 11.4122
#
#
#
# Elastic Compliance Matrix: (Units=1/GPa)
#
#
# Indices 1 2 3 4 5 6 
#
# 1 0.009638 -0.000795 -0.010002 0.000000 0.000000 0.000000
# 2 -0.000795 0.112104 -0.009491 0.000000 0.000000 0.000000
# 3 -0.010002 -0.009491 0.024231 0.000000 0.000000 0.000000
# 4 0.000000 0.000000 0.000000 0.044183 0.000000 0.000000
# 5 0.000000 0.000000 0.000000 0.000000 0.026357 0.000000
# 6 0.000000 0.000000 0.000000 0.000000 0.000000 0.087625
#
#
# Mechanical properties :
#
#
# Convention : Reuss Voigt Hill
#
# Bulk Modulus (GPa) = 9.48776 52.02869 30.75822
# Shear Modulus (GPa) = 13.16322 26.34621 19.75472
#
# Velocity S-wave (km/s) = 2.51429 3.55707 3.08013
# Velocity P-wave (km/s) = 3.60352 6.46971 5.23653
#
# Compressibility (1/GPa) = 0.10539892
#
# Stress axis : x y z
#
# Youngs Moduli (GPa) = 103.75265 8.92030 41.26880
#
# Poissons Ratio (x) = 0.00709 0.41275
# Poissons Ratio (y) = 0.08247 0.39168
# Poissons Ratio (z) = 1.03769 0.08466
#
# Static dielectric constant tensor:
#      x y z
#    x 1.789950 0.000000 0.000000 
#    y 0.000000 1.807550 0.000000 
#    z 0.000000 0.000000 1.707580 
# 
# From -- ./inp_files/16047.got.cif
#   From: 2010.05.17/outbox.cif.g08.bks.cpg/sg65_9_cif.got.tgz:16047.got - 2010.06.03 17:01:31.
