data_PCOD9491449
_publ_section_title
;
Structure prediction by ZEFSAII (Michael W. Deem and Ramdas Pophale) SiO2 
 PCOD9491449
Probable space group: C M M M
;
_chemical_formula_sum "Si O2"
_cell_formula_units_Z 56
_cell_length_a 19.426720
_cell_length_b 7.722553
_cell_length_c 20.108641
_cell_angle_alpha 90.000000
_cell_angle_beta 90.000000
_cell_angle_gamma 90.000000
_cell_volume 3016.776240
_symmetry_space_group_name_H-M "C M M M"
_symmetry_group_IT_number 65
_symmetry_cell_setting 'orthorhombic'
loop_
_space_group_symop_operation_xyz
x,y,z
-x,-y,z
x,-y,-z
-x,y,-z
-x,-y,-z
x,y,-z
-x,y,z
x,-y,z
1/2+x,1/2+y,z
1/2-x,1/2-y,z
1/2+x,1/2-y,-z
1/2-x,1/2+y,-z
1/2-x,1/2-y,-z
1/2+x,1/2+y,-z
1/2-x,1/2+y,z
1/2+x,1/2-y,z
loop_
_atom_site_type_symbol
_atom_site_label
_atom_site_fract_x
_atom_site_fract_y
_atom_site_fract_z
Si Si1 0.328214 0.203578 0.697004
Si Si2 0.921826 0.207531 0.572666
Si Si3 0.080901 0.000000 0.920262
Si Si4 0.330880 0.790680 0.848173
O O1 0.250000 0.250000 0.680363
O O2 0.376969 0.253173 0.636685
O O3 0.343882 0.268920 0.771412
O O4 0.332149 0.000000 0.703876
O O5 0.895649 0.269179 0.500000
O O6 0.000000 0.272586 0.580586
O O7 0.925001 0.000000 0.569095
O O8 0.120353 0.829542 0.892826
O O9 0.000000 0.000000 0.900568
O O10 0.084271 0.000000 0.000000
O O11 0.250000 0.750000 0.861557
O O12 0.341428 0.000000 0.855097
#
# Coordination Sequence:
#
# PCOD9491449 Si02
#       4
#    16  16   8  16
#     4  10  21  35  57  84 112 147 190 241 295 344
#     4   9  19  35  53  76 109 150 194 238 288 348
#     4  11  26  44  64  96 132 166 204 249 310 372
#     4  10  21  41  66  94 125 162 211 258 303 368
#
# _framework density 18.562861999999999
#
# number of rings (size 3 to 8) (size 9 to 14) (size 15 to 20)
#    0.000    2.143    1.429    1.714    4.000    4.571 
#    0.000    5.714    0.000    0.000    0.000    0.000 
#    0.000    0.000    0.000    0.000    0.000    0.000 
#
# Total GULP energy -156081.470505 kJ/mol
# GULP energy per Si atom -5574.338232 kJ/mol
# Density = 1.852061 g / cm^3
# Si number density = 18.562862 Si / 1000 Ang^3
#
#
#
# Elastic Constant Matrix: (Units=GPa)
#
#
# Indices 1 2 3 4 5 6 
#
# 1 110.7351 45.2838 95.8285 0.0000 0.0000 0.0000
# 2 45.2838 87.1990 42.9060 0.0000 0.0000 0.0000
# 3 95.8285 42.9060 122.1100 0.0000 0.0000 0.0000
# 4 0.0000 0.0000 0.0000 27.8234 0.0000 0.0000
# 5 0.0000 0.0000 0.0000 0.0000 38.3705 0.0000
# 6 0.0000 0.0000 0.0000 0.0000 0.0000 17.2483
#
#
#
# Elastic Compliance Matrix: (Units=1/GPa)
#
#
# Indices 1 2 3 4 5 6 
#
# 1 0.029707 -0.004783 -0.021633 0.000000 0.000000 0.000000
# 2 -0.004783 0.014635 -0.001389 0.000000 0.000000 0.000000
# 3 -0.021633 -0.001389 0.025654 0.000000 0.000000 0.000000
# 4 0.000000 0.000000 0.000000 0.035941 0.000000 0.000000
# 5 0.000000 0.000000 0.000000 0.000000 0.026062 0.000000
# 6 0.000000 0.000000 0.000000 0.000000 0.000000 0.057977
#
#
# Mechanical properties :
#
#
# Convention : Reuss Voigt Hill
#
# Bulk Modulus (GPa) = 69.50552 76.45342 72.97947
# Shear Modulus (GPa) = 19.96960 25.75684 22.86322
#
# Velocity S-wave (km/s) = 3.28347 3.72902 3.51332
# Velocity P-wave (km/s) = 7.20413 7.73411 7.47382
#
# Compressibility (1/GPa) = 0.01438735
#
# Stress axis : x y z
#
# Youngs Moduli (GPa) = 33.66196 68.32788 38.98023
#
# Poissons Ratio (x) = 0.32682 0.84325
# Poissons Ratio (y) = 0.16101 0.05414
# Poissons Ratio (z) = 0.72820 0.09489
#
# Static dielectric constant tensor:
#      x y z
#    x 1.611900 0.000000 0.000000 
#    y 0.000000 1.659700 0.000000 
#    z 0.000000 0.000000 1.716430 
# 
# From -- ./inp_files/48742.got.cif
#   From: 2010.05.17/outbox.cif.g08.bks.cpg/sg65_25_cif.got.tgz:48742.got - 2010.06.03 17:01:31.
