data_PCOD9491878
_publ_section_title
;
Structure prediction by ZEFSAII (Michael W. Deem and Ramdas Pophale) SiO2 
 PCOD9491878
Probable space group: C M M M
;
_chemical_formula_sum "Si O2"
_cell_formula_units_Z 72
_cell_length_a 14.871995
_cell_length_b 26.227279
_cell_length_c 9.860601
_cell_angle_alpha 90.000000
_cell_angle_beta 90.000000
_cell_angle_gamma 90.000000
_cell_volume 3846.146768
_symmetry_space_group_name_H-M "C M M M"
_symmetry_group_IT_number 65
_symmetry_cell_setting 'orthorhombic'
loop_
_space_group_symop_operation_xyz
x,y,z
-x,-y,z
x,-y,-z
-x,y,-z
-x,-y,-z
x,y,-z
-x,y,z
x,-y,z
1/2+x,1/2+y,z
1/2-x,1/2-y,z
1/2+x,1/2-y,-z
1/2-x,1/2+y,-z
1/2-x,1/2-y,-z
1/2+x,1/2+y,-z
1/2-x,1/2+y,z
1/2+x,1/2-y,z
loop_
_atom_site_type_symbol
_atom_site_label
_atom_site_fract_x
_atom_site_fract_y
_atom_site_fract_z
Si Si1 0.607714 0.945256 0.347266
Si Si2 0.000000 0.269907 0.840754
Si Si3 0.648105 0.614954 0.841707
Si Si4 0.500000 0.330889 0.663866
Si Si5 0.848570 0.353751 0.152947
Si Si6 0.105024 0.000000 0.162672
O O1 0.643147 0.939388 0.500000
O O2 0.500000 0.947537 0.356096
O O3 0.628528 0.897806 0.256388
O O4 0.639174 0.000000 0.292176
O O5 0.000000 0.224849 0.732763
O O6 0.910420 0.304530 0.821119
O O7 0.000000 0.252695 0.000000
O O8 0.583957 0.639841 0.730937
O O9 0.740631 0.647107 0.841029
O O10 0.652921 0.554240 0.805238
O O11 0.615095 0.617314 0.000000
O O12 0.500000 0.330149 0.500000
O O13 0.872614 0.370033 0.000000
O O14 0.000000 0.000000 0.212395
O O15 0.100066 0.000000 0.000000
#
# Coordination Sequence:
#
# PCOD9491878 Si02
#       6
#    16   8  16   8  16   8
#     4   9  18  32  50  75 115 165 203 234 285 349
#     4  10  22  42  62  86 120 157 199 251 310 359
#     4  10  21  39  63  92 124 157 194 244 303 364
#     4  12  26  43  63  87 112 154 206 256 306 357
#     4  10  21  36  60  91 120 153 199 252 302 351
#     4   9  16  32  62  91 117 156 195 230 292 361
#
# _framework density 18.720034999999999
#
# number of rings (size 3 to 8) (size 9 to 14) (size 15 to 20)
#    0.000    2.111    2.222    1.667    1.556    3.111 
#    0.000    6.667    0.000    0.000    0.000    0.000 
#    0.000    0.000    0.000    0.000    0.000    0.000 
#
# Total GULP energy -200452.818278 kJ/mol
# GULP energy per Si atom -5568.133841 kJ/mol
# Density = 1.867743 g / cm^3
# Si number density = 18.720035 Si / 1000 Ang^3
#
#
#
# Elastic Constant Matrix: (Units=GPa)
#
#
# Indices 1 2 3 4 5 6 
#
# 1 82.0100 40.9384 36.9820 0.0000 0.0000 0.0000
# 2 40.9384 111.0866 80.1661 0.0000 0.0000 0.0000
# 3 36.9820 80.1661 116.3030 0.0000 0.0000 0.0000
# 4 0.0000 0.0000 0.0000 27.7337 0.0000 0.0000
# 5 0.0000 0.0000 0.0000 0.0000 17.1064 0.0000
# 6 0.0000 0.0000 0.0000 0.0000 0.0000 2.9854
#
#
#
# Elastic Compliance Matrix: (Units=1/GPa)
#
#
# Indices 1 2 3 4 5 6 
#
# 1 0.015157 -0.004194 -0.001929 0.000000 0.000000 0.000000
# 2 -0.004194 0.019072 -0.011813 0.000000 0.000000 0.000000
# 3 -0.001929 -0.011813 0.017354 0.000000 0.000000 0.000000
# 4 0.000000 0.000000 0.000000 0.036057 0.000000 0.000000
# 5 0.000000 0.000000 0.000000 0.000000 0.058458 0.000000
# 6 0.000000 0.000000 0.000000 0.000000 0.000000 0.334968
#
#
# Mechanical properties :
#
#
# Convention : Reuss Voigt Hill
#
# Bulk Modulus (GPa) = 63.64413 69.50808 66.57610
# Shear Modulus (GPa) = 9.57535 19.65263 14.61399
#
# Velocity S-wave (km/s) = 2.26410 3.24360 2.79706
# Velocity P-wave (km/s) = 6.39582 7.15813 6.78769
#
# Compressibility (1/GPa) = 0.01571237
#
# Stress axis : x y z
#
# Youngs Moduli (GPa) = 65.97644 52.43249 57.62397
#
# Poissons Ratio (x) = 0.21989 0.11115
# Poissons Ratio (y) = 0.27669 0.68069
# Poissons Ratio (z) = 0.12726 0.61937
#
# Static dielectric constant tensor:
#      x y z
#    x 1.740060 0.000000 0.000000 
#    y 0.000000 1.652120 0.000000 
#    z 0.000000 0.000000 1.627480 
# 
# From -- ./inp_files/7445.got.cif
#   From: 2010.05.17/outbox.cif.g08.bks.cpg/sg65_4_cif.got.tgz:7445.got - 2010.06.03 17:01:31.
