data_PCOD9491098
_publ_section_title
;
Structure prediction by ZEFSAII (Michael W. Deem and Ramdas Pophale) SiO2 
 PCOD9491098
Probable space group: C M M M
;
_chemical_formula_sum "Si O2"
_cell_formula_units_Z 88
_cell_length_a 11.569149
_cell_length_b 16.721217
_cell_length_c 22.651688
_cell_angle_alpha 90.000000
_cell_angle_beta 90.000000
_cell_angle_gamma 90.000000
_cell_volume 4381.974728
_symmetry_space_group_name_H-M "C M M M"
_symmetry_group_IT_number 65
_symmetry_cell_setting 'orthorhombic'
loop_
_space_group_symop_operation_xyz
x,y,z
-x,-y,z
x,-y,-z
-x,y,-z
-x,-y,-z
x,y,-z
-x,y,z
x,-y,z
1/2+x,1/2+y,z
1/2-x,1/2-y,z
1/2+x,1/2-y,-z
1/2-x,1/2+y,-z
1/2-x,1/2-y,-z
1/2+x,1/2+y,-z
1/2-x,1/2+y,z
1/2+x,1/2-y,z
loop_
_atom_site_type_symbol
_atom_site_label
_atom_site_fract_x
_atom_site_fract_y
_atom_site_fract_z
Si Si1 0.744628 0.344824 0.124985
Si Si2 0.637839 0.000000 0.067856
Si Si3 0.871020 0.903554 0.429715
Si Si4 0.500000 0.590455 0.874060
Si Si5 0.370829 0.095344 0.626828
Si Si6 0.000000 0.910147 0.269343
Si Si7 0.748589 0.656664 0.733645
O O1 0.750000 0.250000 0.111224
O O2 0.819894 0.416331 0.096895
O O3 0.614987 0.366766 0.107382
O O4 0.761196 0.353688 0.195984
O O5 0.500000 0.000000 0.069857
O O6 0.677519 0.000000 0.000000
O O7 0.867921 0.889879 0.500000
O O8 0.747621 0.873178 0.404063
O O9 0.000000 0.875114 0.408940
O O10 0.870635 0.000000 0.420504
O O11 0.500000 0.500000 0.894879
O O12 0.500000 0.589779 0.802383
O O13 0.500000 0.126060 0.610352
O O14 0.345628 0.112550 0.695715
O O15 0.373245 0.000000 0.616480
O O16 0.877998 0.872975 0.285613
O O17 0.000000 0.000000 0.291074
O O18 0.750000 0.750000 0.721048
#
# Coordination Sequence:
#
# PCOD9491098 Si02
#       7
#    16   8  16   8  16   8  16
#     4  10  22  40  65  91 122 164 206 255 308 368
#     4  11  26  45  65  93 127 164 206 253 310 374
#     4   8  15  30  52  77 107 148 200 250 298 356
#     4   9  16  34  60  89 118 143 204 254 293 358
#     4  10  21  33  50  81 119 151 192 246 301 367
#     4   9  18  32  56  80 109 151 194 246 284 347
#     4  10  22  36  56  84 118 156 197 242 302 363
#
# _framework density 20.082269
#
# number of rings (size 3 to 8) (size 9 to 14) (size 15 to 20)
#    0.000    2.455    0.909    1.091    6.364    1.455 
#    0.000    2.727    0.000    0.545    0.000    0.000 
#    0.000    0.000    0.000    0.000    0.000    0.000 
#
# Total GULP energy -245085.585143 kJ/mol
# GULP energy per Si atom -5570.126935 kJ/mol
# Density = 2.003656 g / cm^3
# Si number density = 20.082269 Si / 1000 Ang^3
#
#
#
# Elastic Constant Matrix: (Units=GPa)
#
#
# Indices 1 2 3 4 5 6 
#
# 1 172.7866 67.1239 44.9839 0.0000 0.0000 0.0000
# 2 67.1239 88.3218 35.1727 0.0000 0.0000 0.0000
# 3 44.9839 35.1727 55.6599 0.0000 0.0000 0.0000
# 4 0.0000 0.0000 0.0000 15.5854 0.0000 0.0000
# 5 0.0000 0.0000 0.0000 0.0000 15.7402 0.0000
# 6 0.0000 0.0000 0.0000 0.0000 0.0000 24.4174
#
#
#
# Elastic Compliance Matrix: (Units=1/GPa)
#
#
# Indices 1 2 3 4 5 6 
#
# 1 0.008789 -0.005146 -0.003852 0.000000 0.000000 0.000000
# 2 -0.005146 0.018143 -0.007306 0.000000 0.000000 0.000000
# 3 -0.003852 -0.007306 0.025696 0.000000 0.000000 0.000000
# 4 0.000000 0.000000 0.000000 0.064162 0.000000 0.000000
# 5 0.000000 0.000000 0.000000 0.000000 0.063532 0.000000
# 6 0.000000 0.000000 0.000000 0.000000 0.000000 0.040954
#
#
# Mechanical properties :
#
#
# Convention : Reuss Voigt Hill
#
# Bulk Modulus (GPa) = 49.94763 67.92549 58.93656
# Shear Modulus (GPa) = 19.18970 22.44779 20.81874
#
# Velocity S-wave (km/s) = 3.09456 3.34697 3.22323
# Velocity P-wave (km/s) = 6.13953 6.98808 6.57751
#
# Compressibility (1/GPa) = 0.02002097
#
# Stress axis : x y z
#
# Youngs Moduli (GPa) = 113.77423 55.11904 38.91698
#
# Poissons Ratio (x) = 0.28364 0.14989
# Poissons Ratio (y) = 0.58548 0.28432
# Poissons Ratio (z) = 0.43821 0.40268
#
# Static dielectric constant tensor:
#      x y z
#    x 1.715470 0.000000 0.000000 
#    y 0.000000 -4.207530 0.000000 
#    z 0.000000 0.000000 1.737650 
# 
# From -- ./inp_files/68941.got.cif
#   From: 2010.05.17/outbox.cif.g08.bks.cpg/sg65_35_cif.got.tgz:68941.got - 2010.06.03 17:01:31.
