data_PCOD9491019
_publ_section_title
;
Structure prediction by ZEFSAII (Michael W. Deem and Ramdas Pophale) SiO2 
 PCOD9491019
Probable space group: C M M M
;
_chemical_formula_sum "Si O2"
_cell_formula_units_Z 66
_cell_length_a 12.023220
_cell_length_b 18.808293
_cell_length_c 15.442977
_cell_angle_alpha 90.000000
_cell_angle_beta 90.000000
_cell_angle_gamma 90.000000
_cell_volume 3492.216824
_symmetry_space_group_name_H-M "C M M M"
_symmetry_group_IT_number 65
_symmetry_cell_setting 'orthorhombic'
loop_
_space_group_symop_operation_xyz
x,y,z
-x,-y,z
x,-y,-z
-x,y,-z
-x,-y,-z
x,y,-z
-x,y,z
x,-y,z
1/2+x,1/2+y,z
1/2-x,1/2-y,z
1/2+x,1/2-y,-z
1/2-x,1/2+y,-z
1/2-x,1/2-y,-z
1/2+x,1/2+y,-z
1/2-x,1/2+y,z
1/2+x,1/2-y,z
loop_
_atom_site_type_symbol
_atom_site_label
_atom_site_fract_x
_atom_site_fract_y
_atom_site_fract_z
Si Si1 0.632697 0.582841 0.000000
Si Si2 0.000000 0.388820 0.346543
Si Si3 0.257851 0.832302 0.348090
Si Si4 0.633559 0.584429 0.500000
Si Si5 0.235553 0.664873 0.145257
Si Si6 0.500000 0.000000 0.500000
Si Si7 0.500000 0.083288 0.852524
O O1 0.682632 0.622112 0.916770
O O2 0.665887 0.500000 0.000000
O O3 0.500000 0.587034 0.000000
O O4 0.887875 0.346124 0.354593
O O5 0.000000 0.440930 0.425031
O O6 0.000000 0.422610 0.251439
O O7 0.250000 0.750000 0.369607
O O8 0.188217 0.879849 0.414960
O O9 0.231845 0.845421 0.246442
O O10 0.658891 0.500000 0.500000
O O11 0.500000 0.593693 0.500000
O O12 0.250000 0.750000 0.128574
O O13 0.111855 0.630324 0.127998
O O14 0.500000 0.000000 0.885893
#
# Coordination Sequence:
#
# PCOD9491019 Si02
#       7
#     8   8  16   8  16   2   8
#     4  11  25  43  65  97 131 167 215 257 311 393
#     4  10  22  34  61  94 116 158 207 255 320 368
#     4  10  23  42  65  89 123 165 210 263 313 376
#     4  11  26  41  58  88 126 171 217 257 309 381
#     4  10  23  42  67  96 129 169 210 266 328 384
#     4  12  20  32  56  88 126 154 190 264 320 362
#     4  10  20  39  64  96 130 159 214 269 316 384
#
# _framework density 18.899170999999999
#
# number of rings (size 3 to 8) (size 9 to 14) (size 15 to 20)
#    0.000    1.697    0.606    2.182    6.788    3.394 
#    0.000    3.636    0.000    0.000    0.000    0.000 
#    0.000    0.000    0.000    0.000    0.000    0.000 
#
# Total GULP energy -183779.852956 kJ/mol
# GULP energy per Si atom -5569.086453 kJ/mol
# Density = 1.885616 g / cm^3
# Si number density = 18.899171 Si / 1000 Ang^3
#
#
#
# Elastic Constant Matrix: (Units=GPa)
#
#
# Indices 1 2 3 4 5 6 
#
# 1 108.0496 91.6100 58.7372 0.0000 0.0000 0.0000
# 2 91.6100 191.8045 88.6864 0.0000 0.0000 0.0000
# 3 58.7372 88.6864 111.9308 0.0000 0.0000 0.0000
# 4 0.0000 0.0000 0.0000 20.3291 0.0000 0.0000
# 5 0.0000 0.0000 0.0000 0.0000 23.7367 0.0000
# 6 0.0000 0.0000 0.0000 0.0000 0.0000 3.9302
#
#
#
# Elastic Compliance Matrix: (Units=1/GPa)
#
#
# Indices 1 2 3 4 5 6 
#
# 1 0.016526 -0.006128 -0.003816 0.000000 0.000000 0.000000
# 2 -0.006128 0.010501 -0.005104 0.000000 0.000000 0.000000
# 3 -0.003816 -0.005104 0.014981 0.000000 0.000000 0.000000
# 4 0.000000 0.000000 0.000000 0.049190 0.000000 0.000000
# 5 0.000000 0.000000 0.000000 0.000000 0.042129 0.000000
# 6 0.000000 0.000000 0.000000 0.000000 0.000000 0.254438
#
#
# Mechanical properties :
#
#
# Convention : Reuss Voigt Hill
#
# Bulk Modulus (GPa) = 83.96588 98.87245 91.41917
# Shear Modulus (GPa) = 11.85306 21.11596 16.48451
#
# Velocity S-wave (km/s) = 2.50706 3.34622 2.95657
# Velocity P-wave (km/s) = 7.27360 8.20725 7.75449
#
# Compressibility (1/GPa) = 0.01190960
#
# Stress axis : x y z
#
# Youngs Moduli (GPa) = 60.51230 95.23143 66.75160
#
# Poissons Ratio (x) = 0.58362 0.25474
# Poissons Ratio (y) = 0.37084 0.34071
# Poissons Ratio (z) = 0.23093 0.48607
#
# Static dielectric constant tensor:
#      x y z
#    x 1.638620 0.000000 0.000000 
#    y 0.000000 1.634580 0.000000 
#    z 0.000000 0.000000 1.651850 
# 
# From -- ./inp_files/37862.got.cif
#   From: 2010.05.17/outbox.cif.g08.bks.cpg/sg65_19_cif.got.tgz:37862.got - 2010.06.03 17:01:31.
