data_PCOD9491876
_publ_section_title
;
Structure prediction by ZEFSAII (Michael W. Deem and Ramdas Pophale) SiO2 
 PCOD9491876
Probable space group: C M M M
;
_chemical_formula_sum "Si O2"
_cell_formula_units_Z 100
_cell_length_a 19.763551
_cell_length_b 27.974566
_cell_length_c 7.937465
_cell_angle_alpha 90.000000
_cell_angle_beta 90.000000
_cell_angle_gamma 90.000000
_cell_volume 4388.439946
_symmetry_space_group_name_H-M "C M M M"
_symmetry_group_IT_number 65
_symmetry_cell_setting 'orthorhombic'
loop_
_space_group_symop_operation_xyz
x,y,z
-x,-y,z
x,-y,-z
-x,y,-z
-x,-y,-z
x,y,-z
-x,y,z
x,-y,z
1/2+x,1/2+y,z
1/2-x,1/2-y,z
1/2+x,1/2-y,-z
1/2-x,1/2+y,-z
1/2-x,1/2-y,-z
1/2+x,1/2+y,-z
1/2-x,1/2+y,z
1/2+x,1/2-y,z
loop_
_atom_site_type_symbol
_atom_site_label
_atom_site_fract_x
_atom_site_fract_y
_atom_site_fract_z
Si Si1 0.217593 0.404554 0.189572
Si Si2 0.075071 0.443887 0.296870
Si Si3 0.076762 0.726427 0.807245
Si Si4 0.646191 0.430298 0.690987
Si Si5 0.885114 0.000000 0.000000
Si Si6 0.076929 0.169050 0.695213
Si Si7 0.782215 0.299766 0.307249
O O1 0.139907 0.415519 0.232432
O O2 0.272173 0.432484 0.301346
O O3 0.231673 0.348200 0.208627
O O4 0.230733 0.420459 0.000000
O O5 0.075753 0.441548 0.500000
O O6 0.081847 0.500000 0.249757
O O7 0.000000 0.427474 0.240015
O O8 0.087153 0.783687 0.802952
O O9 0.136832 0.705420 0.698444
O O10 0.000000 0.717193 0.748584
O O11 0.083320 0.709521 0.000000
O O12 0.623553 0.442994 0.500000
O O13 0.617136 0.459422 0.847670
O O14 0.625316 0.375310 0.719870
O O15 0.082944 0.184781 0.500000
O O16 0.000000 0.152114 0.721512
O O17 0.758343 0.305717 0.500000
O O18 0.750000 0.250000 0.242575
#
# Coordination Sequence:
#
# PCOD9491876 Si02
#       7
#    16  16  16  16   4  16  16
#     4  12  25  40  62  92 126 166 210 257 316 384
#     4   9  20  40  65  92 122 161 210 261 315 372
#     4  10  21  36  59  91 124 160 204 256 309 366
#     4  11  24  43  65  93 129 164 209 264 312 378
#     4  12  26  44  65  96 123 162 212 256 330 378
#     4   9  19  38  64  91 123 167 211 253 307 370
#     4  11  24  41  61  87 120 161 208 258 315 376
#
# _framework density 22.787140999999998
#
# number of rings (size 3 to 8) (size 9 to 14) (size 15 to 20)
#    0.000    1.600    0.800    4.080    2.240    7.360 
#    0.000    1.600    0.000    1.920    0.000    0.000 
#    0.000    0.000    0.000    0.000    0.000    0.000 
#
# Total GULP energy -278912.944018 kJ/mol
# GULP energy per Si atom -5578.258880 kJ/mol
# Density = 2.273528 g / cm^3
# Si number density = 22.787141 Si / 1000 Ang^3
#
#
#
# Elastic Constant Matrix: (Units=GPa)
#
#
# Indices 1 2 3 4 5 6 
#
# 1 72.6094 9.2193 11.1851 0.0000 0.0000 0.0000
# 2 9.2193 27.9324 12.3009 0.0000 0.0000 0.0000
# 3 11.1851 12.3009 90.1385 0.0000 0.0000 0.0000
# 4 0.0000 0.0000 0.0000 65.6919 0.0000 0.0000
# 5 0.0000 0.0000 0.0000 0.0000 8.6271 0.0000
# 6 0.0000 0.0000 0.0000 0.0000 0.0000 871.2950
#
#
#
# Elastic Compliance Matrix: (Units=1/GPa)
#
#
# Indices 1 2 3 4 5 6 
#
# 1 0.014500 -0.004249 -0.001219 0.000000 0.000000 0.000000
# 2 -0.004249 0.039335 -0.004841 0.000000 0.000000 0.000000
# 3 -0.001219 -0.004841 0.011906 0.000000 0.000000 0.000000
# 4 0.000000 0.000000 0.000000 0.015223 0.000000 0.000000
# 5 0.000000 0.000000 0.000000 0.000000 0.115914 0.000000
# 6 0.000000 0.000000 0.000000 0.000000 0.000000 0.001148
#
#
# Mechanical properties :
#
#
# Convention : Reuss Voigt Hill
#
# Bulk Modulus (GPa) = 22.16178 28.45455 25.30816
# Shear Modulus (GPa) = 21.39651 199.65447 110.52549
#
# Velocity S-wave (km/s) = 3.06759 9.37056 6.97200
# Velocity P-wave (km/s) = 4.72160 11.38379 8.71448
#
# Compressibility (1/GPa) = 0.04512274
#
# Stress axis : x y z
#
# Youngs Moduli (GPa) = 68.96729 25.42277 83.99162
#
# Poissons Ratio (x) = 0.10801 0.10242
# Poissons Ratio (y) = 0.29302 0.40658
# Poissons Ratio (z) = 0.08410 0.12306
#
# Static dielectric constant tensor:
#      x y z
#    x 1.876400 0.000000 0.000000 
#    y 0.000000 1.827190 0.000000 
#    z 0.000000 0.000000 1.790680 
# 
# From -- ./inp_files/12436.got.cif
#   From: 2010.05.17/outbox.cif.g08.bks.cpg/sg65_7_cif.got.tgz:12436.got - 2010.06.03 17:01:31.
