data_PCOD9491868
_publ_section_title
;
Structure prediction by ZEFSAII (Michael W. Deem and Ramdas Pophale) SiO2 
 PCOD9491868
Probable space group: C M M M
;
_chemical_formula_sum "Si O2"
_cell_formula_units_Z 88
_cell_length_a 24.871573
_cell_length_b 21.186470
_cell_length_c 7.592138
_cell_angle_alpha 90.000000
_cell_angle_beta 90.000000
_cell_angle_gamma 90.000000
_cell_volume 4000.607539
_symmetry_space_group_name_H-M "C M M M"
_symmetry_group_IT_number 65
_symmetry_cell_setting 'orthorhombic'
loop_
_space_group_symop_operation_xyz
x,y,z
-x,-y,z
x,-y,-z
-x,y,-z
-x,-y,-z
x,y,-z
-x,y,z
x,-y,z
1/2+x,1/2+y,z
1/2-x,1/2-y,z
1/2+x,1/2-y,-z
1/2-x,1/2+y,-z
1/2-x,1/2-y,-z
1/2+x,1/2+y,-z
1/2-x,1/2+y,z
1/2+x,1/2-y,z
loop_
_atom_site_type_symbol
_atom_site_label
_atom_site_fract_x
_atom_site_fract_y
_atom_site_fract_z
Si Si1 0.063250 0.500000 0.716575
Si Si2 0.221669 0.071357 0.205376
Si Si3 0.500000 0.803425 0.797390
Si Si4 0.108821 0.368469 0.296005
Si Si5 0.500000 0.658379 0.285592
Si Si6 0.285739 0.806659 0.298278
Si Si7 0.402395 0.571195 0.712910
O O1 0.062528 0.500000 0.500000
O O2 0.094293 0.562646 0.777669
O O3 0.000000 0.500000 0.768689
O O4 0.251769 0.128734 0.297030
O O5 0.157710 0.081921 0.219907
O O6 0.232611 0.000000 0.273250
O O7 0.236909 0.072726 0.000000
O O8 0.446493 0.830387 0.710389
O O9 0.500000 0.728610 0.783796
O O10 0.500000 0.823966 0.000000
O O11 0.124344 0.379394 0.500000
O O12 0.157157 0.327194 0.216382
O O13 0.500000 0.660318 0.500000
O O14 0.553144 0.620740 0.229070
O O15 0.297134 0.785781 0.500000
O O16 0.250000 0.750000 0.218314
O O17 0.399854 0.573449 0.500000
O O18 0.418638 0.500000 0.762896
#
# Coordination Sequence:
#
# PCOD9491868 Si02
#       7
#     8  16   8  16   8  16  16
#     4   9  16  32  62  92 114 144 190 241 300 359
#     4  10  22  39  58  84 122 163 197 235 292 358
#     4  12  26  40  56  85 123 159 194 229 284 359
#     4  10  21  40  64  87 117 153 194 245 298 352
#     4  10  21  36  59  85 114 151 193 245 298 344
#     4  10  23  40  62  91 119 153 205 257 298 349
#     4   9  18  35  60  87 113 145 193 248 296 343
#
# _framework density 21.996659999999999
#
# number of rings (size 3 to 8) (size 9 to 14) (size 15 to 20)
#    0.000    2.091    0.909    1.636    3.818    4.000 
#    0.000    0.909    0.000    2.727    0.000    0.000 
#    0.000    0.000    0.000    0.000    0.000    0.000 
#
# Total GULP energy -245762.641961 kJ/mol
# GULP energy per Si atom -5585.514590 kJ/mol
# Density = 2.194660 g / cm^3
# Si number density = 21.996660 Si / 1000 Ang^3
#
#
#
# Elastic Constant Matrix: (Units=GPa)
#
#
# Indices 1 2 3 4 5 6 
#
# 1 132.6604 93.6727 -4.5712 0.0000 0.0000 0.0000
# 2 93.6727 138.3342 -3.6904 0.0000 0.0000 0.0000
# 3 -4.5712 -3.6904 53.1500 0.0000 0.0000 0.0000
# 4 0.0000 0.0000 0.0000 -96.0043 0.0000 0.0000
# 5 0.0000 0.0000 0.0000 0.0000 43.5093 0.0000
# 6 0.0000 0.0000 0.0000 0.0000 0.0000 39.5854
#
#
#
# Elastic Compliance Matrix: (Units=1/GPa)
#
#
# Indices 1 2 3 4 5 6 
#
# 1 0.014461 -0.009777 0.000565 0.000000 0.000000 0.000000
# 2 -0.009777 0.013853 0.000121 0.000000 0.000000 0.000000
# 3 0.000565 0.000121 0.018872 0.000000 0.000000 0.000000
# 4 0.000000 0.000000 0.000000 -0.010416 0.000000 0.000000
# 5 0.000000 0.000000 0.000000 0.000000 0.022984 0.000000
# 6 0.000000 0.000000 0.000000 0.000000 0.000000 0.025262
#
#
# Mechanical properties :
#
#
# Convention : Reuss Voigt Hill
#
# Bulk Modulus (GPa) = 34.47955 54.99629 44.73792
# Shear Modulus (GPa) = 44.30027 13.33366 28.81697
#
# Velocity S-wave (km/s) = 4.49258 2.46472 3.62340
# Velocity P-wave (km/s) = 6.52840 5.75814 6.15533
#
# Compressibility (1/GPa) = 0.02900270
#
# Stress axis : x y z
#
# Youngs Moduli (GPa) = 69.14923 72.18708 52.98956
#
# Poissons Ratio (x) = 0.70581 -0.02993
# Poissons Ratio (y) = 0.67611 -0.00641
# Poissons Ratio (z) = -0.03906 -0.00873
#
# Static dielectric constant tensor:
#      x y z
#    x 1.783230 0.000000 0.000000 
#    y 0.000000 1.780710 0.000000 
#    z 0.000000 0.000000 1.845090 
# 
# From -- ./inp_files/14039.got.cif
#   From: 2010.05.17/outbox.cif.g08.bks.cpg/sg65_8_cif.got.tgz:14039.got - 2010.06.03 17:01:31.
