data_PCOD9491095
_publ_section_title
;
Structure prediction by ZEFSAII (Michael W. Deem and Ramdas Pophale) SiO2 
 PCOD9491095
Probable space group: C M M M
;
_chemical_formula_sum "Si O2"
_cell_formula_units_Z 80
_cell_length_a 7.591843
_cell_length_b 15.052289
_cell_length_c 31.437575
_cell_angle_alpha 90.000000
_cell_angle_beta 90.000000
_cell_angle_gamma 90.000000
_cell_volume 3592.516776
_symmetry_space_group_name_H-M "C M M M"
_symmetry_group_IT_number 65
_symmetry_cell_setting 'orthorhombic'
loop_
_space_group_symop_operation_xyz
x,y,z
-x,-y,z
x,-y,-z
-x,y,-z
-x,-y,-z
x,y,-z
-x,y,z
x,-y,z
1/2+x,1/2+y,z
1/2-x,1/2-y,z
1/2+x,1/2-y,-z
1/2-x,1/2+y,-z
1/2-x,1/2-y,-z
1/2+x,1/2+y,-z
1/2-x,1/2+y,z
1/2+x,1/2-y,z
loop_
_atom_site_type_symbol
_atom_site_label
_atom_site_fract_x
_atom_site_fract_y
_atom_site_fract_z
Si Si1 0.198026 0.895154 0.685110
Si Si2 0.710829 0.354676 0.408596
Si Si3 0.302051 0.395242 0.093500
Si Si4 0.500000 0.890637 0.253109
Si Si5 0.790452 0.853412 0.000000
Si Si6 0.000000 0.609370 0.155236
Si Si7 0.287907 0.643842 0.500000
O O1 0.273747 0.886948 0.637235
O O2 0.329870 0.859695 0.720467
O O3 0.000000 0.856288 0.686229
O O4 0.182069 0.000000 0.693092
O O5 0.500000 0.370559 0.408424
O O6 0.750000 0.250000 0.409089
O O7 0.777818 0.390382 0.454207
O O8 0.500000 0.356187 0.094504
O O9 0.318174 0.500000 0.101631
O O10 0.226408 0.387177 0.045632
O O11 0.170152 0.359668 0.128823
O O12 0.500000 0.862978 0.204173
O O13 0.500000 0.000000 0.253619
O O14 0.750000 0.750000 0.000000
O O15 0.000000 0.873370 0.000000
O O16 0.000000 0.500000 0.154715
O O17 0.500000 0.632466 0.500000
O O18 0.250000 0.750000 0.500000
#
# Coordination Sequence:
#
# PCOD9491095 Si02
#       7
#    16  16  16   8   8   8   8
#     4   9  18  32  49  71  98 127 160 199 244 293
#     4   9  17  28  46  70  92 124 157 197 241 290
#     4   9  18  33  52  76 105 132 165 209 246 282
#     4   9  18  32  51  75  99 125 161 204 250 296
#     4  10  21  33  50  78 104 140 173 199 238 294
#     4   9  18  31  52  79  99 126 165 206 255 292
#     4   8  14  26  41  63  94 118 154 192 235 286
#
# _framework density 22.268511
#
# number of rings (size 3 to 8) (size 9 to 14) (size 15 to 20)
#    0.000    3.000    0.000    0.300    2.800    2.000 
#    0.000    6.000    0.000    4.200    0.000    2.100 
#    0.000    0.000    0.000    0.000    0.000    0.000 
#
# Total GULP energy -223007.932541 kJ/mol
# GULP energy per Si atom -5575.198314 kJ/mol
# Density = 2.221783 g / cm^3
# Si number density = 22.268511 Si / 1000 Ang^3
#
#
#
# Elastic Constant Matrix: (Units=GPa)
#
#
# Indices 1 2 3 4 5 6 
#
# 1 96.8950 2.9154 100.8416 0.0000 0.0000 0.0000
# 2 2.9154 29.1581 -1.5573 0.0000 0.0000 0.0000
# 3 100.8416 -1.5573 254.0950 0.0000 0.0000 0.0000
# 4 0.0000 0.0000 0.0000 30.2104 0.0000 0.0000
# 5 0.0000 0.0000 0.0000 0.0000 79.5181 0.0000
# 6 0.0000 0.0000 0.0000 0.0000 0.0000 7.1052
#
#
#
# Elastic Compliance Matrix: (Units=1/GPa)
#
#
# Indices 1 2 3 4 5 6 
#
# 1 0.017716 -0.002148 -0.007044 0.000000 0.000000 0.000000
# 2 -0.002148 0.034567 0.001064 0.000000 0.000000 0.000000
# 3 -0.007044 0.001064 0.006738 0.000000 0.000000 0.000000
# 4 0.000000 0.000000 0.000000 0.033101 0.000000 0.000000
# 5 0.000000 0.000000 0.000000 0.000000 0.012576 0.000000
# 6 0.000000 0.000000 0.000000 0.000000 0.000000 0.140742
#
#
# Mechanical properties :
#
#
# Convention : Reuss Voigt Hill
#
# Bulk Modulus (GPa) = 23.38301 64.94970 44.16635
# Shear Modulus (GPa) = 18.11924 41.89664 30.00794
#
# Velocity S-wave (km/s) = 2.85559 4.34225 3.67488
# Velocity P-wave (km/s) = 4.62556 7.37361 6.15491
#
# Compressibility (1/GPa) = 0.04276610
#
# Stress axis : x y z
#
# Youngs Moduli (GPa) = 56.44611 28.92900 148.42092
#
# Poissons Ratio (x) = 0.06213 1.04548
# Poissons Ratio (y) = 0.12122 -0.15794
# Poissons Ratio (z) = 0.39761 -0.03078
#
# Static dielectric constant tensor:
#      x y z
#    x 1.897290 0.000000 0.000000 
#    y 0.000000 1.820830 0.000000 
#    z 0.000000 0.000000 1.819160 
# 
# From -- ./inp_files/73046.got.cif
#   From: 2010.05.17/outbox.cif.g08.bks.cpg/sg65_37_cif.got.tgz:73046.got - 2010.06.03 17:01:31.
