data_PCOD9491389
_publ_section_title
;
Structure prediction by ZEFSAII (Michael W. Deem and Ramdas Pophale) SiO2 
 PCOD9491389
Probable space group: C M M M
;
_chemical_formula_sum "Si O2"
_cell_formula_units_Z 88
_cell_length_a 15.173340
_cell_length_b 16.361065
_cell_length_c 17.098165
_cell_angle_alpha 90.000000
_cell_angle_beta 90.000000
_cell_angle_gamma 90.000000
_cell_volume 4244.653692
_symmetry_space_group_name_H-M "C M M M"
_symmetry_group_IT_number 65
_symmetry_cell_setting 'orthorhombic'
loop_
_space_group_symop_operation_xyz
x,y,z
-x,-y,z
x,-y,-z
-x,y,-z
-x,-y,-z
x,y,-z
-x,y,z
x,-y,z
1/2+x,1/2+y,z
1/2-x,1/2-y,z
1/2+x,1/2-y,-z
1/2-x,1/2+y,-z
1/2-x,1/2-y,-z
1/2+x,1/2+y,-z
1/2-x,1/2+y,z
1/2+x,1/2-y,z
loop_
_atom_site_type_symbol
_atom_site_label
_atom_site_fract_x
_atom_site_fract_y
_atom_site_fract_z
Si Si1 0.605572 0.350295 0.000000
Si Si2 0.854468 0.251375 0.745389
Si Si3 0.101123 0.000000 0.595356
Si Si4 0.854972 0.089354 0.171323
Si Si5 0.606670 0.322241 0.589024
Si Si6 0.353253 0.909544 0.168329
Si Si7 0.893935 0.660853 0.000000
O O1 0.634968 0.394504 0.078936
O O2 0.636381 0.255614 0.000000
O O3 0.500000 0.349236 0.000000
O O4 0.750000 0.250000 0.762857
O O5 0.892515 0.168993 0.784951
O O6 0.867010 0.243426 0.652978
O O7 0.891390 0.334298 0.781994
O O8 0.141204 0.912189 0.616086
O O9 0.098142 0.000000 0.500000
O O10 0.000000 0.000000 0.623140
O O11 0.750611 0.086212 0.187561
O O12 0.892205 0.000000 0.192255
O O13 0.635534 0.306383 0.500000
O O14 0.500000 0.327701 0.587515
O O15 0.362427 0.884172 0.077880
O O16 0.390803 0.000000 0.181282
O O17 0.000000 0.660712 0.000000
#
# Coordination Sequence:
#
# PCOD9491389 Si02
#       7
#     8  16   8  16  16  16   8
#     4  11  22  35  52  77 111 142 173 212 255 309
#     4  10  21  35  53  79 107 136 172 220 259 303
#     4   7  12  26  48  76 106 133 162 196 239 301
#     4  10  21  36  55  77 104 142 177 205 255 319
#     4   9  18  33  54  79 108 140 171 206 256 317
#     4  10  21  38  57  75 100 137 180 222 264 306
#     4  11  22  35  54  79 103 134 179 226 265 301
#
# _framework density 20.731963
#
# number of rings (size 3 to 8) (size 9 to 14) (size 15 to 20)
#    0.000    2.273    1.818    2.182    1.273    5.455 
#    0.000    0.000    0.000    0.545    0.000    1.273 
#    0.000    0.000    0.000    0.000    0.000    0.000 
#
# Total GULP energy -245615.085578 kJ/mol
# GULP energy per Si atom -5582.161036 kJ/mol
# Density = 2.068478 g / cm^3
# Si number density = 20.731963 Si / 1000 Ang^3
#
#
#
# Elastic Constant Matrix: (Units=GPa)
#
#
# Indices 1 2 3 4 5 6 
#
# 1 39.1962 11.8737 -12.6420 0.0000 0.0000 0.0000
# 2 11.8737 199.2593 79.3641 0.0000 0.0000 0.0000
# 3 -12.6420 79.3641 107.1062 0.0000 0.0000 0.0000
# 4 0.0000 0.0000 0.0000 22.5451 0.0000 0.0000
# 5 0.0000 0.0000 0.0000 0.0000 25.9642 0.0000
# 6 0.0000 0.0000 0.0000 0.0000 0.0000 1.3748
#
#
#
# Elastic Compliance Matrix: (Units=1/GPa)
#
#
# Indices 1 2 3 4 5 6 
#
# 1 0.028993 -0.004385 0.006671 0.000000 0.000000 0.000000
# 2 -0.004385 0.007783 -0.006285 0.000000 0.000000 0.000000
# 3 0.006671 -0.006285 0.014781 0.000000 0.000000 0.000000
# 4 0.000000 0.000000 0.000000 0.044356 0.000000 0.000000
# 5 0.000000 0.000000 0.000000 0.000000 0.038515 0.000000
# 6 0.000000 0.000000 0.000000 0.000000 0.000000 0.727379
#
#
# Mechanical properties :
#
#
# Convention : Reuss Voigt Hill
#
# Bulk Modulus (GPa) = 22.95696 55.86146 39.40921
# Shear Modulus (GPa) = 5.65405 27.77455 16.71430
#
# Velocity S-wave (km/s) = 1.65322 3.66416 2.84246
# Velocity P-wave (km/s) = 3.83946 6.70108 5.46104
#
# Compressibility (1/GPa) = 0.04355978
#
# Stress axis : x y z
#
# Youngs Moduli (GPa) = 34.49160 128.48521 67.65567
#
# Poissons Ratio (x) = 0.56337 -0.45133
# Poissons Ratio (y) = 0.15123 0.42519
# Poissons Ratio (z) = -0.23009 0.80748
#
# Static dielectric constant tensor:
#      x y z
#    x 1.740440 0.000000 0.000000 
#    y 0.000000 1.804240 0.000000 
#    z 0.000000 0.000000 1.725150 
# 
# From -- ./inp_files/42556.got.cif
#   From: 2010.05.17/outbox.cif.g08.bks.cpg/sg65_22_cif.got.tgz:42556.got - 2010.06.03 17:01:31.
