data_PCOD9491921
_publ_section_title
;
Structure prediction by ZEFSAII (Michael W. Deem and Ramdas Pophale) SiO2 
 PCOD9491921
Probable space group: C M M M
;
_chemical_formula_sum "Si O2"
_cell_formula_units_Z 88
_cell_length_a 21.784490
_cell_length_b 24.815624
_cell_length_c 7.550314
_cell_angle_alpha 90.000000
_cell_angle_beta 90.000000
_cell_angle_gamma 90.000000
_cell_volume 4081.667379
_symmetry_space_group_name_H-M "C M M M"
_symmetry_group_IT_number 65
_symmetry_cell_setting 'orthorhombic'
loop_
_space_group_symop_operation_xyz
x,y,z
-x,-y,z
x,-y,-z
-x,y,-z
-x,-y,-z
x,y,-z
-x,y,z
x,-y,z
1/2+x,1/2+y,z
1/2-x,1/2-y,z
1/2+x,1/2-y,-z
1/2-x,1/2+y,-z
1/2-x,1/2-y,-z
1/2+x,1/2+y,-z
1/2-x,1/2+y,z
1/2+x,1/2-y,z
loop_
_atom_site_type_symbol
_atom_site_label
_atom_site_fract_x
_atom_site_fract_y
_atom_site_fract_z
Si Si1 0.313348 0.778829 0.217165
Si Si2 0.000000 0.564014 0.783838
Si Si3 0.295301 0.000000 0.783149
Si Si4 0.867530 0.606451 0.784251
Si Si5 0.842673 0.000000 0.790148
Si Si6 0.567536 0.403831 0.291843
Si Si7 0.567547 0.282253 0.203460
O O1 0.250000 0.750000 0.275083
O O2 0.330656 0.839911 0.270932
O O3 0.372262 0.744823 0.280232
O O4 0.310963 0.778298 0.000000
O O5 0.938197 0.595803 0.728607
O O6 0.000000 0.500000 0.730471
O O7 0.000000 0.562777 0.000000
O O8 0.330472 0.053600 0.728620
O O9 0.225793 0.000000 0.717848
O O10 0.295471 0.000000 0.000000
O O11 0.868938 0.608249 0.000000
O O12 0.880927 0.052529 0.740142
O O13 0.837442 0.000000 0.000000
O O14 0.565815 0.392520 0.500000
O O15 0.500000 0.424966 0.238257
O O16 0.576853 0.346432 0.202076
O O17 0.500000 0.271748 0.283416
O O18 0.564467 0.263160 0.000000
#
# Coordination Sequence:
#
# PCOD9491921 Si02
#       7
#    16   8   8  16   8  16  16
#     4   9  18  28  43  66  97 135 171 209 256 308
#     4   9  14  22  38  60  90 130 170 207 250 305
#     4   9  18  29  42  68 102 134 165 202 252 313
#     4   9  16  26  40  62  95 134 173 207 249 307
#     4  11  22  32  52  80 105 132 167 210 256 306
#     4  10  21  37  55  74  99 134 173 211 256 309
#     4   9  18  32  50  75 104 132 169 215 257 300
#
# _framework density 21.559816999999999
#
# number of rings (size 3 to 8) (size 9 to 14) (size 15 to 20)
#    0.000    2.636    0.909    1.091    3.818    2.182 
#    0.000    0.000    0.000    0.545    0.000    0.000 
#    0.000    0.000    0.000    4.000    0.000    4.909 
#
# Total GULP energy -245485.677956 kJ/mol
# GULP energy per Si atom -5579.219954 kJ/mol
# Density = 2.151075 g / cm^3
# Si number density = 21.559817 Si / 1000 Ang^3
#
#
#
# Elastic Constant Matrix: (Units=GPa)
#
#
# Indices 1 2 3 4 5 6 
#
# 1 239.2030 136.7092 6.8564 0.0000 0.0000 0.0000
# 2 136.7092 148.0067 0.2848 0.0000 0.0000 0.0000
# 3 6.8564 0.2848 52.8760 0.0000 0.0000 0.0000
# 4 0.0000 0.0000 0.0000 99.4684 0.0000 0.0000
# 5 0.0000 0.0000 0.0000 0.0000 61.0233 0.0000
# 6 0.0000 0.0000 0.0000 0.0000 0.0000 40.8947
#
#
#
# Elastic Compliance Matrix: (Units=1/GPa)
#
#
# Indices 1 2 3 4 5 6 
#
# 1 0.008920 -0.008237 -0.001112 0.000000 0.000000 0.000000
# 2 -0.008237 0.014363 0.000991 0.000000 0.000000 0.000000
# 3 -0.001112 0.000991 0.019051 0.000000 0.000000 0.000000
# 4 0.000000 0.000000 0.000000 0.010053 0.000000 0.000000
# 5 0.000000 0.000000 0.000000 0.000000 0.016387 0.000000
# 6 0.000000 0.000000 0.000000 0.000000 0.000000 0.024453
#
#
# Mechanical properties :
#
#
# Convention : Reuss Voigt Hill
#
# Bulk Modulus (GPa) = 39.03697 80.86518 59.95108
# Shear Modulus (GPa) = 42.19988 60.02630 51.11309
#
# Velocity S-wave (km/s) = 4.42898 5.28225 4.87432
# Velocity P-wave (km/s) = 6.65584 8.64822 7.71660
#
# Compressibility (1/GPa) = 0.02561674
#
# Stress axis : x y z
#
# Youngs Moduli (GPa) = 112.10687 69.62413 52.49052
#
# Poissons Ratio (x) = 0.57350 0.05838
# Poissons Ratio (y) = 0.92343 -0.05200
# Poissons Ratio (z) = 0.12470 -0.06898
#
# Static dielectric constant tensor:
#      x y z
#    x 1.785170 0.000000 0.000000 
#    y 0.000000 1.714140 0.000000 
#    z 0.000000 0.000000 1.801830 
# 
# From -- ./inp_files/11911.got.cif
#   From: 2010.05.17/outbox.cif.g08.bks.cpg/sg65_6_cif.got.tgz:11911.got - 2010.06.03 17:01:31.
