data_PCOD9491155
_publ_section_title
;
Structure prediction by ZEFSAII (Michael W. Deem and Ramdas Pophale) SiO2 
 PCOD9491155
Probable space group: C M M M
;
_chemical_formula_sum "Si O2"
_cell_formula_units_Z 104
_cell_length_a 29.644833
_cell_length_b 7.548553
_cell_length_c 22.665397
_cell_angle_alpha 90.000000
_cell_angle_beta 90.000000
_cell_angle_gamma 90.000000
_cell_volume 5071.962656
_symmetry_space_group_name_H-M "C M M M"
_symmetry_group_IT_number 65
_symmetry_cell_setting 'orthorhombic'
loop_
_space_group_symop_operation_xyz
x,y,z
-x,-y,z
x,-y,-z
-x,y,-z
-x,-y,-z
x,y,-z
-x,y,z
x,-y,z
1/2+x,1/2+y,z
1/2-x,1/2-y,z
1/2+x,1/2-y,-z
1/2-x,1/2+y,-z
1/2-x,1/2-y,-z
1/2+x,1/2+y,-z
1/2-x,1/2+y,z
1/2+x,1/2-y,z
loop_
_atom_site_type_symbol
_atom_site_label
_atom_site_fract_x
_atom_site_fract_y
_atom_site_fract_z
Si Si1 0.446919 0.000000 0.570501
Si Si2 0.105511 0.213897 0.355741
Si Si3 0.449446 0.795598 0.896486
Si Si4 0.551177 0.712512 0.761385
Si Si5 0.302037 0.287508 0.175811
Si Si6 0.145894 0.795167 0.936479
Si Si7 0.198426 0.788121 0.690914
O O1 0.422378 0.171953 0.597803
O O2 0.500000 0.000000 0.586321
O O3 0.443261 0.000000 0.500000
O O4 0.084790 0.256983 0.291124
O O5 0.158108 0.267567 0.351961
O O6 0.101278 0.000000 0.364651
O O7 0.500000 0.722131 0.905563
O O8 0.440049 0.787460 0.826162
O O9 0.407913 0.706826 0.928730
O O10 0.449907 0.000000 0.914844
O O11 0.500000 0.762759 0.744461
O O12 0.552890 0.500000 0.768289
O O13 0.309457 0.500000 0.179184
O O14 0.250000 0.250000 0.161598
O O15 0.332449 0.215934 0.122683
O O16 0.309443 0.218027 0.242304
O O17 0.160766 0.000000 0.937943
O O18 0.157896 0.714763 0.000000
O O19 0.250000 0.750000 0.673826
O O20 0.194378 0.000000 0.694415
#
# Coordination Sequence:
#
# PCOD9491155 Si02
#       7
#     8  16  16  16  16  16  16
#     4  11  26  44  64  94 130 170 213 255 296 344
#     4  10  21  38  62  92 124 166 206 251 301 356
#     4  10  21  34  49  73 103 134 171 228 292 346
#     4   9  17  31  53  80 110 141 178 227 288 352
#     4   9  18  34  53  78 111 138 174 226 285 348
#     4  10  21  36  52  68  93 138 189 232 275 338
#     4   9  18  32  55  88 120 153 191 242 307 366
#
# _framework density 20.504883
#
# number of rings (size 3 to 8) (size 9 to 14) (size 15 to 20)
#    0.000    2.385    0.000    1.846    2.154    6.154 
#    0.000    2.308    0.000    0.462    0.000    0.000 
#    0.000    0.000    0.000    0.000    0.000    0.000 
#
# Total GULP energy -290217.821580 kJ/mol
# GULP energy per Si atom -5581.111953 kJ/mol
# Density = 2.045821 g / cm^3
# Si number density = 20.504883 Si / 1000 Ang^3
#
#
#
# Elastic Constant Matrix: (Units=GPa)
#
#
# Indices 1 2 3 4 5 6 
#
# 1 130.1931 23.9555 68.5656 0.0000 0.0000 0.0000
# 2 23.9555 62.1331 19.6179 0.0000 0.0000 0.0000
# 3 68.5656 19.6179 57.0313 0.0000 0.0000 0.0000
# 4 0.0000 0.0000 0.0000 11.4811 0.0000 0.0000
# 5 0.0000 0.0000 0.0000 0.0000 15.3069 0.0000
# 6 0.0000 0.0000 0.0000 0.0000 0.0000 22.5348
#
#
#
# Elastic Compliance Matrix: (Units=1/GPa)
#
#
# Indices 1 2 3 4 5 6 
#
# 1 0.020939 -0.000140 -0.025126 0.000000 0.000000 0.000000
# 2 -0.000140 0.018056 -0.006043 0.000000 0.000000 0.000000
# 3 -0.025126 -0.006043 0.049820 0.000000 0.000000 0.000000
# 4 0.000000 0.000000 0.000000 0.087100 0.000000 0.000000
# 5 0.000000 0.000000 0.000000 0.000000 0.065330 0.000000
# 6 0.000000 0.000000 0.000000 0.000000 0.000000 0.044376
#
#
# Mechanical properties :
#
#
# Convention : Reuss Voigt Hill
#
# Bulk Modulus (GPa) = 38.17013 52.62618 45.39815
# Shear Modulus (GPa) = 14.00673 19.01245 16.50959
#
# Velocity S-wave (km/s) = 2.61644 3.04833 2.84060
# Velocity P-wave (km/s) = 5.27098 6.17338 5.73994
#
# Compressibility (1/GPa) = 0.02619849
#
# Stress axis : x y z
#
# Youngs Moduli (GPa) = 47.75789 55.38191 20.07221
#
# Poissons Ratio (x) = 0.00775 0.50433
# Poissons Ratio (y) = 0.00668 0.12130
# Poissons Ratio (z) = 1.19995 0.33467
#
# Static dielectric constant tensor:
#      x y z
#    x 1.745380 0.000000 0.000000 
#    y 0.000000 1.835820 0.000000 
#    z 0.000000 0.000000 1.713130 
# 
# From -- ./inp_files/71793.got.cif
#   From: 2010.05.17/outbox.cif.g08.bks.cpg/sg65_36_cif.got.tgz:71793.got - 2010.06.03 17:01:31.
