data_PCOD9491749
_publ_section_title
;
Structure prediction by ZEFSAII (Michael W. Deem and Ramdas Pophale) SiO2 
 PCOD9491749
Probable space group: C M M M
;
_chemical_formula_sum "Si O2"
_cell_formula_units_Z 104
_cell_length_a 14.937597
_cell_length_b 24.484703
_cell_length_c 15.418169
_cell_angle_alpha 90.000000
_cell_angle_beta 90.000000
_cell_angle_gamma 90.000000
_cell_volume 5639.081619
_symmetry_space_group_name_H-M "C M M M"
_symmetry_group_IT_number 65
_symmetry_cell_setting 'orthorhombic'
loop_
_space_group_symop_operation_xyz
x,y,z
-x,-y,z
x,-y,-z
-x,y,-z
-x,-y,-z
x,y,-z
-x,y,z
x,-y,z
1/2+x,1/2+y,z
1/2-x,1/2-y,z
1/2+x,1/2-y,-z
1/2-x,1/2+y,-z
1/2-x,1/2-y,-z
1/2+x,1/2+y,-z
1/2-x,1/2+y,z
1/2+x,1/2-y,z
loop_
_atom_site_type_symbol
_atom_site_label
_atom_site_fract_x
_atom_site_fract_y
_atom_site_fract_z
Si Si1 0.601965 0.321198 0.752782
Si Si2 0.720070 0.063598 0.905618
Si Si3 0.750000 0.750000 0.651155
Si Si4 0.101544 0.637479 0.789375
Si Si5 0.642438 0.753932 0.099790
Si Si6 0.102404 0.669981 0.406358
Si Si7 0.397788 0.561207 0.187821
O O1 0.500000 0.308658 0.721331
O O2 0.683823 0.289449 0.706822
O O3 0.606753 0.300073 0.852232
O O4 0.615392 0.386392 0.750551
O O5 0.670779 0.096865 0.832201
O O6 0.825470 0.066255 0.887797
O O7 0.694299 0.000000 0.903198
O O8 0.697646 0.086843 0.000000
O O9 0.820339 0.714829 0.597302
O O10 0.115346 0.696133 0.836496
O O11 0.113402 0.640015 0.685765
O O12 0.000000 0.620190 0.807455
O O13 0.750000 0.750000 0.098376
O O14 0.612333 0.760864 0.000000
O O15 0.109430 0.640614 0.500000
O O16 0.000000 0.692054 0.402718
O O17 0.500000 0.564268 0.157255
O O18 0.384829 0.500000 0.226409
#
# Coordination Sequence:
#
# PCOD9491749 Si02
#       7
#    16  16   8  16  16  16  16
#     4  11  21  33  52  79 112 150 189 227 276 339
#     4  10  21  36  55  81 111 146 192 238 277 326
#     4  12  19  34  55  82 112 146 175 232 287 342
#     4  11  22  37  55  77 110 149 182 222 277 335
#     4  11  21  33  50  75 108 145 182 222 270 329
#     4  10  21  36  56  81 108 141 180 222 277 342
#     4   9  19  35  53  75 107 149 195 240 280 320
#
# _framework density 18.442720000000001
#
# number of rings (size 3 to 8) (size 9 to 14) (size 15 to 20)
#    0.000    1.538    2.308    3.462    0.000    4.615 
#    0.000    3.846    0.000    0.462    0.000    2.154 
#    0.000    1.846    0.000   38.462    0.000    0.308 
#
# Total GULP energy -289797.697126 kJ/mol
# GULP energy per Si atom -5573.032637 kJ/mol
# Density = 1.840074 g / cm^3
# Si number density = 18.442720 Si / 1000 Ang^3
#
#
#
# Elastic Constant Matrix: (Units=GPa)
#
#
# Indices 1 2 3 4 5 6 
#
# 1 116.2148 35.5834 45.1130 0.0000 0.0000 0.0000
# 2 35.5834 80.7683 40.0198 0.0000 0.0000 0.0000
# 3 45.1130 40.0198 124.0160 0.0000 0.0000 0.0000
# 4 0.0000 0.0000 0.0000 5.8129 0.0000 0.0000
# 5 0.0000 0.0000 0.0000 0.0000 11.0036 0.0000
# 6 0.0000 0.0000 0.0000 0.0000 0.0000 22.7790
#
#
#
# Elastic Compliance Matrix: (Units=1/GPa)
#
#
# Indices 1 2 3 4 5 6 
#
# 1 0.010719 -0.003322 -0.002828 0.000000 0.000000 0.000000
# 2 -0.003322 0.015767 -0.003880 0.000000 0.000000 0.000000
# 3 -0.002828 -0.003880 0.010344 0.000000 0.000000 0.000000
# 4 0.000000 0.000000 0.000000 0.172031 0.000000 0.000000
# 5 0.000000 0.000000 0.000000 0.000000 0.090879 0.000000
# 6 0.000000 0.000000 0.000000 0.000000 0.000000 0.043900
#
#
# Mechanical properties :
#
#
# Convention : Reuss Voigt Hill
#
# Bulk Modulus (GPa) = 59.62056 62.49239 61.05648
# Shear Modulus (GPa) = 13.53956 21.27131 17.40543
#
# Velocity S-wave (km/s) = 2.71244 3.39982 3.07539
# Velocity P-wave (km/s) = 6.49672 7.02637 6.76673
#
# Compressibility (1/GPa) = 0.01677274
#
# Stress axis : x y z
#
# Youngs Moduli (GPa) = 93.28913 63.42453 96.67450
#
# Poissons Ratio (x) = 0.21067 0.27335
# Poissons Ratio (y) = 0.30986 0.37506
# Poissons Ratio (z) = 0.26378 0.24606
#
# Static dielectric constant tensor:
#      x y z
#    x 1.655660 0.000000 0.000000 
#    y 0.000000 1.663930 0.000000 
#    z 0.000000 0.000000 1.658100 
# 
# From -- ./inp_files/40837.got.cif
#   From: 2010.05.17/outbox.cif.g08.bks.cpg/sg65_21_cif.got.tgz:40837.got - 2010.06.03 17:01:31.
