data_PCOD9491565
_publ_section_title
;
Structure prediction by ZEFSAII (Michael W. Deem and Ramdas Pophale) SiO2 
 PCOD9491565
Probable space group: C M M M
;
_chemical_formula_sum "Si O2"
_cell_formula_units_Z 72
_cell_length_a 32.000550
_cell_length_b 8.995994
_cell_length_c 14.374809
_cell_angle_alpha 90.000000
_cell_angle_beta 90.000000
_cell_angle_gamma 90.000000
_cell_volume 4138.173380
_symmetry_space_group_name_H-M "C M M M"
_symmetry_group_IT_number 65
_symmetry_cell_setting 'orthorhombic'
loop_
_space_group_symop_operation_xyz
x,y,z
-x,-y,z
x,-y,-z
-x,y,-z
-x,-y,-z
x,y,-z
-x,y,z
x,-y,z
1/2+x,1/2+y,z
1/2-x,1/2-y,z
1/2+x,1/2-y,-z
1/2-x,1/2+y,-z
1/2-x,1/2-y,-z
1/2+x,1/2+y,-z
1/2-x,1/2+y,z
1/2+x,1/2-y,z
loop_
_atom_site_type_symbol
_atom_site_label
_atom_site_fract_x
_atom_site_fract_y
_atom_site_fract_z
Si Si1 0.206321 0.678712 0.608187
Si Si2 0.123768 0.678072 0.720562
Si Si3 0.047281 0.176585 0.388315
Si Si4 0.000000 0.669592 0.887067
Si Si5 0.587062 0.677188 0.109011
O O1 0.199447 0.721172 0.500000
O O2 0.209863 0.500000 0.611822
O O3 0.250000 0.750000 0.638831
O O4 0.166357 0.722869 0.668673
O O5 0.122178 0.500000 0.726128
O O6 0.084015 0.736477 0.662375
O O7 0.120113 0.748900 0.822470
O O8 0.050704 0.195103 0.500000
O O9 0.000000 0.222767 0.361283
O O10 0.051182 0.000000 0.368613
O O11 0.958023 0.756572 0.862205
O O12 0.000000 0.500000 0.852234
O O13 0.000000 0.663493 0.000000
O O14 0.586440 0.500000 0.119376
O O15 0.593794 0.711950 0.000000
#
# Coordination Sequence:
#
# PCOD9491565 Si02
#       5
#    16  16  16   8  16
#     4   9  19  36  57  82 110 138 171 214 265 321
#     4  11  22  34  53  80 109 140 176 221 271 322
#     4   9  19  35  52  72 103 143 183 219 256 307
#     4   9  17  31  51  73  98 131 174 223 271 313
#     4  10  21  36  53  74 103 141 183 226 269 315
#
# _framework density 17.398980999999999
#
# number of rings (size 3 to 8) (size 9 to 14) (size 15 to 20)
#    0.000    2.333    0.000    3.000    1.556    6.222 
#    0.000    3.333    0.000    0.667    0.000    0.000 
#    0.000    0.000    0.000    0.000    0.000    0.000 
#
# Total GULP energy -201001.658986 kJ/mol
# GULP energy per Si atom -5583.379416 kJ/mol
# Density = 1.735938 g / cm^3
# Si number density = 17.398981 Si / 1000 Ang^3
#
#
#
# Elastic Constant Matrix: (Units=GPa)
#
#
# Indices 1 2 3 4 5 6 
#
# 1 149.3655 58.6143 83.1094 0.0000 0.0000 0.0000
# 2 58.6143 58.9134 45.4885 0.0000 0.0000 0.0000
# 3 83.1094 45.4885 90.3774 0.0000 0.0000 0.0000
# 4 0.0000 0.0000 0.0000 27.9239 0.0000 0.0000
# 5 0.0000 0.0000 0.0000 0.0000 26.9938 0.0000
# 6 0.0000 0.0000 0.0000 0.0000 0.0000 30.8284
#
#
#
# Elastic Compliance Matrix: (Units=1/GPa)
#
#
# Indices 1 2 3 4 5 6 
#
# 1 0.015357 -0.007156 -0.010520 0.000000 0.000000 0.000000
# 2 -0.007156 0.031098 -0.009072 0.000000 0.000000 0.000000
# 3 -0.010520 -0.009072 0.025305 0.000000 0.000000 0.000000
# 4 0.000000 0.000000 0.000000 0.035812 0.000000 0.000000
# 5 0.000000 0.000000 0.000000 0.000000 0.037046 0.000000
# 6 0.000000 0.000000 0.000000 0.000000 0.000000 0.032438
#
#
# Mechanical properties :
#
#
# Convention : Reuss Voigt Hill
#
# Bulk Modulus (GPa) = 54.75213 74.78675 64.76944
# Shear Modulus (GPa) = 21.12935 24.57882 22.85408
#
# Velocity S-wave (km/s) = 3.48861 3.76261 3.62820
# Velocity P-wave (km/s) = 6.91116 7.87103 7.40666
#
# Compressibility (1/GPa) = 0.01826413
#
# Stress axis : x y z
#
# Youngs Moduli (GPa) = 65.11853 32.15620 39.51841
#
# Poissons Ratio (x) = 0.23011 0.41573
# Poissons Ratio (y) = 0.46598 0.35850
# Poissons Ratio (z) = 0.68504 0.29171
#
# Static dielectric constant tensor:
#      x y z
#    x 1.563360 0.000000 0.000000 
#    y 0.000000 1.580770 0.000000 
#    z 0.000000 0.000000 1.619370 
# 
# From -- ./inp_files/36514.got.cif
#   From: 2010.05.17/outbox.cif.g08.bks.cpg/sg65_19_cif.got.tgz:36514.got - 2010.06.03 17:01:31.
