data_PCOD9491428
_publ_section_title
;
Structure prediction by ZEFSAII (Michael W. Deem and Ramdas Pophale) SiO2 
 PCOD9491428
Probable space group: C M M M
;
_chemical_formula_sum "Si O2"
_cell_formula_units_Z 96
_cell_length_a 14.495247
_cell_length_b 14.757955
_cell_length_c 21.589820
_cell_angle_alpha 90.000000
_cell_angle_beta 90.000000
_cell_angle_gamma 90.000000
_cell_volume 4618.498676
_symmetry_space_group_name_H-M "C M M M"
_symmetry_group_IT_number 65
_symmetry_cell_setting 'orthorhombic'
loop_
_space_group_symop_operation_xyz
x,y,z
-x,-y,z
x,-y,-z
-x,y,-z
-x,-y,-z
x,y,-z
-x,y,z
x,-y,z
1/2+x,1/2+y,z
1/2-x,1/2-y,z
1/2+x,1/2-y,-z
1/2-x,1/2+y,-z
1/2-x,1/2-y,-z
1/2+x,1/2+y,-z
1/2-x,1/2+y,z
1/2+x,1/2-y,z
loop_
_atom_site_type_symbol
_atom_site_label
_atom_site_fract_x
_atom_site_fract_y
_atom_site_fract_z
Si Si1 0.891363 0.000000 0.126168
Si Si2 0.389747 0.699443 0.308022
Si Si3 0.290945 0.000000 0.795114
Si Si4 0.797459 0.500000 0.571827
Si Si5 0.816618 0.000000 0.315685
Si Si6 0.112046 0.688400 0.813568
Si Si7 0.111405 0.306025 0.570589
Si Si8 0.889282 0.194774 0.931497
O O1 0.875385 0.909986 0.086156
O O2 0.813958 0.000000 0.179186
O O3 0.000000 0.000000 0.146958
O O4 0.500000 0.705651 0.308479
O O5 0.364529 0.594607 0.300256
O O6 0.358968 0.758339 0.248805
O O7 0.357135 0.740353 0.373788
O O8 0.343499 0.089808 0.815188
O O9 0.280057 0.000000 0.721119
O O10 0.774393 0.500000 0.500000
O O11 0.706174 0.500000 0.612297
O O12 0.853871 0.592210 0.583937
O O13 0.141782 0.743873 0.874352
O O14 0.000000 0.682180 0.812994
O O15 0.139966 0.280732 0.500000
O O16 0.000000 0.306670 0.570913
O O17 0.000000 0.207023 0.933823
O O18 0.852939 0.215630 0.000000
#
# Coordination Sequence:
#
# PCOD9491428 Si02
#       8
#     8  16   8   8   8  16  16  16
#     4  10  21  37  59  88 121 154 192 236 281 336
#     4  10  22  40  61  83 110 148 192 238 288 342
#     4  12  25  39  60  88 118 153 193 238 292 348
#     4  10  21  35  54  83 116 149 185 231 285 337
#     4  12  25  37  54  82 116 150 189 231 282 345
#     4  10  22  41  63  87 115 149 192 243 296 347
#     4   9  18  35  59  84 110 144 188 235 282 334
#     4   9  18  36  62  88 117 155 195 238 288 339
#
# _framework density 20.785975000000001
#
# number of rings (size 3 to 8) (size 9 to 14) (size 15 to 20)
#    0.000    2.000    0.000    3.000    0.000    9.333 
#    0.000    7.917    0.000    4.500    0.000    0.000 
#    0.000    0.000    0.000    0.000    0.000    0.000 
#
# Total GULP energy -268220.490178 kJ/mol
# GULP energy per Si atom -5587.926879 kJ/mol
# Density = 2.073867 g / cm^3
# Si number density = 20.785975 Si / 1000 Ang^3
#
#
#
# Elastic Constant Matrix: (Units=GPa)
#
#
# Indices 1 2 3 4 5 6 
#
# 1 76.6165 34.0626 32.0883 0.0000 0.0000 0.0000
# 2 34.0626 179.0998 109.4253 0.0000 0.0000 0.0000
# 3 32.0883 109.4253 160.4960 0.0000 0.0000 0.0000
# 4 0.0000 0.0000 0.0000 18.6636 0.0000 0.0000
# 5 0.0000 0.0000 0.0000 0.0000 4.7390 0.0000
# 6 0.0000 0.0000 0.0000 0.0000 0.0000 -200.1573
#
#
#
# Elastic Compliance Matrix: (Units=1/GPa)
#
#
# Indices 1 2 3 4 5 6 
#
# 1 0.014539 -0.001695 -0.001751 0.000000 0.000000 0.000000
# 2 -0.001695 0.009768 -0.006321 0.000000 0.000000 0.000000
# 3 -0.001751 -0.006321 0.010890 0.000000 0.000000 0.000000
# 4 0.000000 0.000000 0.000000 0.053580 0.000000 0.000000
# 5 0.000000 0.000000 0.000000 0.000000 0.211016 0.000000
# 6 0.000000 0.000000 0.000000 0.000000 0.000000 -0.004996
#
#
# Mechanical properties :
#
#
# Convention : Reuss Voigt Hill
#
# Bulk Modulus (GPa) = 63.84451 85.26274 74.55363
# Shear Modulus (GPa) = 15.64694 -19.30853 -1.83080
#
# Velocity S-wave (km/s) = 2.74663 -3.05113 -0.93952
# Velocity P-wave (km/s) = 6.39066 5.35686 5.89646
#
# Compressibility (1/GPa) = 0.01566305
#
# Stress axis : x y z
#
# Youngs Moduli (GPa) = 68.78009 102.37934 91.82698
#
# Poissons Ratio (x) = 0.17357 0.16078
# Poissons Ratio (y) = 0.11661 0.58039
# Poissons Ratio (z) = 0.12043 0.64709
#
# Static dielectric constant tensor:
#      x y z
#    x 1.739360 0.000000 0.000000 
#    y 0.000000 1.707190 0.000000 
#    z 0.000000 0.000000 1.780180 
# 
# From -- ./inp_files/62708.got.cif
#   From: 2010.05.17/outbox.cif.g08.bks.cpg/sg65_32_cif.got.tgz:62708.got - 2010.06.03 17:01:31.
