data_PCOD9491443
_publ_section_title
;
Structure prediction by ZEFSAII (Michael W. Deem and Ramdas Pophale) SiO2 
 PCOD9491443
Probable space group: C M M M
;
_chemical_formula_sum "Si O2"
_cell_formula_units_Z 88
_cell_length_a 11.599008
_cell_length_b 24.722348
_cell_length_c 15.025230
_cell_angle_alpha 90.000000
_cell_angle_beta 90.000000
_cell_angle_gamma 90.000000
_cell_volume 4308.555505
_symmetry_space_group_name_H-M "C M M M"
_symmetry_group_IT_number 65
_symmetry_cell_setting 'orthorhombic'
loop_
_space_group_symop_operation_xyz
x,y,z
-x,-y,z
x,-y,-z
-x,y,-z
-x,-y,-z
x,y,-z
-x,y,z
x,-y,z
1/2+x,1/2+y,z
1/2-x,1/2-y,z
1/2+x,1/2-y,-z
1/2-x,1/2+y,-z
1/2-x,1/2-y,-z
1/2+x,1/2+y,-z
1/2-x,1/2+y,z
1/2+x,1/2-y,z
loop_
_atom_site_type_symbol
_atom_site_label
_atom_site_fract_x
_atom_site_fract_y
_atom_site_fract_z
Si Si1 0.285999 0.607270 0.661350
Si Si2 0.637018 0.064823 0.500000
Si Si3 0.125765 0.611129 0.168959
Si Si4 0.371345 0.277713 0.392654
Si Si5 0.624118 0.500000 0.734358
Si Si6 0.872503 0.270095 0.896367
Si Si7 0.205579 0.500000 0.901112
O O1 0.193319 0.593085 0.585475
O O2 0.220781 0.615924 0.754613
O O3 0.357428 0.659816 0.634814
O O4 0.359059 0.553092 0.675421
O O5 0.500000 0.071398 0.500000
O O6 0.661264 0.000000 0.500000
O O7 0.131282 0.665048 0.110599
O O8 0.138551 0.556283 0.112691
O O9 0.000000 0.609336 0.213247
O O10 0.371319 0.273505 0.500000
O O11 0.500000 0.257570 0.363239
O O12 0.250000 0.250000 0.362352
O O13 0.500000 0.500000 0.776560
O O14 0.711583 0.500000 0.816015
O O15 0.750000 0.250000 0.857039
O O16 0.000000 0.253311 0.859333
O O17 0.873177 0.253325 0.000000
O O18 0.257389 0.500000 0.000000
#
# Coordination Sequence:
#
# PCOD9491443 Si02
#       7
#    16   8  16  16   8  16   8
#     4  11  21  39  58  86 117 155 198 243 302 355
#     4  11  22  36  57  86 121 158 198 246 301 360
#     4  10  21  35  56  86 119 152 190 237 290 352
#     4  10  22  40  61  85 115 153 204 253 303 363
#     4  10  22  39  60  85 115 149 193 245 300 354
#     4   9  18  35  58  84 113 146 189 238 287 343
#     4  10  21  37  59  85 117 153 192 235 292 358
#
# _framework density 20.424479000000002
#
# number of rings (size 3 to 8) (size 9 to 14) (size 15 to 20)
#    0.000    1.909    1.818    1.909    0.000    3.818 
#    0.000    6.818    0.000    4.364    0.000    0.000 
#    0.000    0.000    0.000    0.000    0.000    0.182 
#
# Total GULP energy -245262.817637 kJ/mol
# GULP energy per Si atom -5574.154946 kJ/mol
# Density = 2.037799 g / cm^3
# Si number density = 20.424479 Si / 1000 Ang^3
#
#
#
# Elastic Constant Matrix: (Units=GPa)
#
#
# Indices 1 2 3 4 5 6 
#
# 1 149.2684 52.0518 5.8298 0.0000 0.0000 0.0000
# 2 52.0518 85.4414 -2.2455 0.0000 0.0000 0.0000
# 3 5.8298 -2.2455 58.0099 0.0000 0.0000 0.0000
# 4 0.0000 0.0000 0.0000 29.3617 0.0000 0.0000
# 5 0.0000 0.0000 0.0000 0.0000 -22.2413 0.0000
# 6 0.0000 0.0000 0.0000 0.0000 0.0000 19.1965
#
#
#
# Elastic Compliance Matrix: (Units=1/GPa)
#
#
# Indices 1 2 3 4 5 6 
#
# 1 0.008572 -0.005250 -0.001065 0.000000 0.000000 0.000000
# 2 -0.005250 0.014931 0.001106 0.000000 0.000000 0.000000
# 3 -0.001065 0.001106 0.017388 0.000000 0.000000 0.000000
# 4 0.000000 0.000000 0.000000 0.034058 0.000000 0.000000
# 5 0.000000 0.000000 0.000000 0.000000 -0.044961 0.000000
# 6 0.000000 0.000000 0.000000 0.000000 0.000000 0.052093
#
#
# Mechanical properties :
#
#
# Convention : Reuss Voigt Hill
#
# Bulk Modulus (GPa) = 32.81575 44.88801 38.85188
# Shear Modulus (GPa) = 48.70619 21.06894 34.88756
#
# Velocity S-wave (km/s) = 4.88863 3.21526 4.13743
# Velocity P-wave (km/s) = 6.92580 5.98408 6.47209
#
# Compressibility (1/GPa) = 0.03047317
#
# Stress axis : x y z
#
# Youngs Moduli (GPa) = 116.66385 66.97344 57.51021
#
# Poissons Ratio (x) = 0.35160 0.06123
# Poissons Ratio (y) = 0.61248 -0.06358
# Poissons Ratio (z) = 0.12420 -0.07404
#
# Static dielectric constant tensor:
#      x y z
#    x 1.775540 0.000000 0.000000 
#    y 0.000000 1.721690 0.000000 
#    z 0.000000 0.000000 1.694360 
# 
# From -- ./inp_files/38445.got.cif
#   From: 2010.05.17/outbox.cif.g08.bks.cpg/sg65_20_cif.got.tgz:38445.got - 2010.06.03 17:01:31.
