data_PCOD9491748
_publ_section_title
;
Structure prediction by ZEFSAII (Michael W. Deem and Ramdas Pophale) SiO2 
 PCOD9491748
Probable space group: C M M M
;
_chemical_formula_sum "Si O2"
_cell_formula_units_Z 116
_cell_length_a 16.935495
_cell_length_b 24.647770
_cell_length_c 14.348362
_cell_angle_alpha 90.000000
_cell_angle_beta 90.000000
_cell_angle_gamma 90.000000
_cell_volume 5989.324626
_symmetry_space_group_name_H-M "C M M M"
_symmetry_group_IT_number 65
_symmetry_cell_setting 'orthorhombic'
loop_
_space_group_symop_operation_xyz
x,y,z
-x,-y,z
x,-y,-z
-x,y,-z
-x,-y,-z
x,y,-z
-x,y,z
x,-y,z
1/2+x,1/2+y,z
1/2-x,1/2-y,z
1/2+x,1/2-y,-z
1/2-x,1/2+y,-z
1/2-x,1/2-y,-z
1/2+x,1/2+y,-z
1/2-x,1/2+y,z
1/2+x,1/2-y,z
loop_
_atom_site_type_symbol
_atom_site_label
_atom_site_fract_x
_atom_site_fract_y
_atom_site_fract_z
Si Si1 0.160846 0.765078 0.388449
Si Si2 0.322551 0.439324 0.223622
Si Si3 0.639013 0.942479 0.732150
Si Si4 0.909030 0.671177 0.272605
Si Si5 0.500000 0.000000 0.820309
Si Si6 0.590130 0.347344 0.111770
Si Si7 0.405465 0.384182 0.389577
Si Si8 0.159288 0.731608 0.107356
O O1 0.157957 0.761141 0.500000
O O2 0.250000 0.750000 0.357840
O O3 0.105951 0.720228 0.342709
O O4 0.132595 0.825643 0.364577
O O5 0.345205 0.500000 0.191907
O O6 0.227842 0.437909 0.231454
O O7 0.353931 0.391564 0.158140
O O8 0.362208 0.427322 0.323982
O O9 0.617551 0.886164 0.684405
O O10 0.570915 0.953591 0.809296
O O11 0.633865 0.000000 0.676519
O O12 0.859057 0.684394 0.179835
O O13 0.000000 0.669151 0.247168
O O14 0.500000 0.359044 0.138693
O O15 0.610829 0.285349 0.136640
O O16 0.597458 0.350367 0.000000
O O17 0.392659 0.393525 0.500000
O O18 0.500000 0.383154 0.373897
O O19 0.250000 0.750000 0.110541
O O20 0.139927 0.717724 0.000000
#
# Coordination Sequence:
#
# PCOD9491748 Si02
#       8
#    16  16  16  16   4  16  16  16
#     4  10  21  36  55  81 111 144 185 229 273 325
#     4  11  22  36  59  84 103 141 196 233 264 330
#     4   9  19  37  57  84 112 143 179 223 285 334
#     4  12  20  31  57  83 106 141 180 219 267 328
#     4   8  16  40  60  80 116 144 172 222 290 336
#     4  10  21  37  54  78 117 153 180 225 284 326
#     4  10  21  37  54  78 117 153 180 225 284 326
#     4  10  21  36  55  81 111 144 185 229 273 325
#
# _framework density 19.367792000000001
#
# number of rings (size 3 to 8) (size 9 to 14) (size 15 to 20)
#    0.414    1.379    0.690    4.138    0.000    3.310 
#    0.000    1.379    0.000    2.483    0.000    5.793 
#    0.000    0.000    0.000    0.000    0.000    0.000 
#
# Total GULP energy -322964.754345 kJ/mol
# GULP energy per Si atom -5568.357834 kJ/mol
# Density = 1.932371 g / cm^3
# Si number density = 19.367792 Si / 1000 Ang^3
#
#
#
# Elastic Constant Matrix: (Units=GPa)
#
#
# Indices 1 2 3 4 5 6 
#
# 1 107.9874 16.6555 11.0579 0.0000 0.0000 0.0000
# 2 16.6555 74.7059 8.4596 0.0000 0.0000 0.0000
# 3 11.0579 8.4596 29.4441 0.0000 0.0000 0.0000
# 4 0.0000 0.0000 0.0000 5.0149 0.0000 0.0000
# 5 0.0000 0.0000 0.0000 0.0000 -3.1024 0.0000
# 6 0.0000 0.0000 0.0000 0.0000 0.0000 38.6625
#
#
#
# Elastic Compliance Matrix: (Units=1/GPa)
#
#
# Indices 1 2 3 4 5 6 
#
# 1 0.009870 -0.001841 -0.003178 0.000000 0.000000 0.000000
# 2 -0.001841 0.014179 -0.003383 0.000000 0.000000 0.000000
# 3 -0.003178 -0.003383 0.036128 0.000000 0.000000 0.000000
# 4 0.000000 0.000000 0.000000 0.199404 0.000000 0.000000
# 5 0.000000 0.000000 0.000000 0.000000 -0.322330 0.000000
# 6 0.000000 0.000000 0.000000 0.000000 0.000000 0.025865
#
#
# Mechanical properties :
#
#
# Convention : Reuss Voigt Hill
#
# Bulk Modulus (GPa) = 23.05480 31.60927 27.33203
# Shear Modulus (GPa) = -889.07382 19.84595 -434.61394
#
# Velocity S-wave (km/s) = -21.44864 3.20455 -14.99625
# Velocity P-wave (km/s) = 24.52474 5.48162 16.90288
#
# Compressibility (1/GPa) = 0.04337491
#
# Stress axis : x y z
#
# Youngs Moduli (GPa) = 101.32098 70.52572 27.67938
#
# Poissons Ratio (x) = 0.12981 0.08796
# Poissons Ratio (y) = 0.18649 0.09363
# Poissons Ratio (z) = 0.32197 0.23856
#
# Static dielectric constant tensor:
#      x y z
#    x 1.730210 0.000000 0.000000 
#    y 0.000000 1.705720 0.000000 
#    z 0.000000 0.000000 1.683320 
# 
# From -- ./inp_files/43159.got.cif
#   From: 2010.05.17/outbox.cif.g08.bks.cpg/sg65_22_cif.got.tgz:43159.got - 2010.06.03 17:01:31.
