data_PCOD9491907
_publ_section_title
;
Structure prediction by ZEFSAII (Michael W. Deem and Ramdas Pophale) SiO2 
 PCOD9491907
Probable space group: C M M M
;
_chemical_formula_sum "Si O2"
_cell_formula_units_Z 88
_cell_length_a 9.104819
_cell_length_b 28.359700
_cell_length_c 22.417546
_cell_angle_alpha 90.000000
_cell_angle_beta 90.000000
_cell_angle_gamma 90.000000
_cell_volume 5788.433104
_symmetry_space_group_name_H-M "C M M M"
_symmetry_group_IT_number 65
_symmetry_cell_setting 'orthorhombic'
loop_
_space_group_symop_operation_xyz
x,y,z
-x,-y,z
x,-y,-z
-x,y,-z
-x,-y,-z
x,y,-z
-x,y,z
x,-y,z
1/2+x,1/2+y,z
1/2-x,1/2-y,z
1/2+x,1/2-y,-z
1/2-x,1/2+y,-z
1/2-x,1/2-y,-z
1/2+x,1/2+y,-z
1/2-x,1/2+y,z
1/2+x,1/2-y,z
loop_
_atom_site_type_symbol
_atom_site_label
_atom_site_fract_x
_atom_site_fract_y
_atom_site_fract_z
Si Si1 0.667843 0.057109 0.379795
Si Si2 0.677319 0.445095 0.255179
Si Si3 0.675471 0.198791 0.068052
Si Si4 0.171562 0.121738 0.146553
Si Si5 0.661114 0.054241 0.928867
Si Si6 0.330320 0.557548 0.500000
O O1 0.500000 0.073841 0.377317
O O2 0.754740 0.067511 0.319189
O O3 0.748874 0.073349 0.439834
O O4 0.663969 0.000000 0.383271
O O5 0.500000 0.444882 0.258289
O O6 0.720274 0.500000 0.240711
O O7 0.721238 0.405812 0.206464
O O8 0.500000 0.202600 0.073333
O O9 0.750000 0.250000 0.071442
O O10 0.740132 0.165974 0.120142
O O11 0.706038 0.180151 0.000000
O O12 0.203713 0.082252 0.096945
O O13 0.000000 0.133277 0.151881
O O14 0.500000 0.073839 0.909757
O O15 0.667069 0.000000 0.909929
O O16 0.662675 0.055451 0.000000
O O17 0.328053 0.500000 0.500000
O O18 0.500000 0.571905 0.500000
#
# Coordination Sequence:
#
# PCOD9491907 Si02
#       6
#    16  16  16  16  16   8
#     4   9  16  25  38  57  80 108 147 191 225 253
#     4   9  18  31  43  58  86 122 155 184 216 257
#     4  10  21  37  55  72  89 109 137 177 225 275
#     4  11  21  31  46  67  89 114 144 178 218 266
#     4   9  18  31  44  59  82 112 145 180 216 254
#     4   9  15  23  37  55  77 109 146 183 224 263
#
# _framework density 15.202733
#
# number of rings (size 3 to 8) (size 9 to 14) (size 15 to 20)
#    0.000    2.455    0.000    3.545    0.000    9.455 
#    0.000    2.727    0.000    0.000    0.000    0.000 
#    0.000    0.000    0.000    0.818    0.000   11.000 
#
# Total GULP energy -245045.730200 kJ/mol
# GULP energy per Si atom -5569.221141 kJ/mol
# Density = 1.516813 g / cm^3
# Si number density = 15.202733 Si / 1000 Ang^3
#
#
#
# Elastic Constant Matrix: (Units=GPa)
#
#
# Indices 1 2 3 4 5 6 
#
# 1 54.3618 28.2857 49.2384 0.0000 0.0000 0.0000
# 2 28.2857 50.9302 43.5895 0.0000 0.0000 0.0000
# 3 49.2384 43.5895 113.8997 0.0000 0.0000 0.0000
# 4 0.0000 0.0000 0.0000 26.4996 0.0000 0.0000
# 5 0.0000 0.0000 0.0000 0.0000 21.1600 0.0000
# 6 0.0000 0.0000 0.0000 0.0000 0.0000 19.7585
#
#
#
# Elastic Compliance Matrix: (Units=1/GPa)
#
#
# Indices 1 2 3 4 5 6 
#
# 1 0.032816 -0.009047 -0.010724 0.000000 0.000000 0.000000
# 2 -0.009047 0.031693 -0.008218 0.000000 0.000000 0.000000
# 3 -0.010724 -0.008218 0.016560 0.000000 0.000000 0.000000
# 4 0.000000 0.000000 0.000000 0.037736 0.000000 0.000000
# 5 0.000000 0.000000 0.000000 0.000000 0.047259 0.000000
# 6 0.000000 0.000000 0.000000 0.000000 0.000000 0.050611
#
#
# Mechanical properties :
#
#
# Convention : Reuss Voigt Hill
#
# Bulk Modulus (GPa) = 39.85411 51.26875 45.56143
# Shear Modulus (GPa) = 17.79256 20.02219 18.90737
#
# Velocity S-wave (km/s) = 3.42475 3.63300 3.53041
# Velocity P-wave (km/s) = 6.47384 7.16902 6.83028
#
# Compressibility (1/GPa) = 0.02509151
#
# Stress axis : x y z
#
# Youngs Moduli (GPa) = 30.47312 31.55311 60.38482
#
# Poissons Ratio (x) = 0.28546 0.64756
# Poissons Ratio (y) = 0.27569 0.49623
# Poissons Ratio (z) = 0.32679 0.25930
#
# Static dielectric constant tensor:
#      x y z
#    x 1.530120 0.000000 0.000000 
#    y 0.000000 1.501320 0.000000 
#    z 0.000000 0.000000 1.508910 
# 
# From -- ./inp_files/60143.got.cif
#   From: 2010.05.17/outbox.cif.g08.bks.cpg/sg65_31_cif.got.tgz:60143.got - 2010.06.03 17:01:31.
