data_PCOD9491472
_publ_section_title
;
Structure prediction by ZEFSAII (Michael W. Deem and Ramdas Pophale) SiO2 
 PCOD9491472
Probable space group: C M M M
;
_chemical_formula_sum "Si O2"
_cell_formula_units_Z 104
_cell_length_a 29.124273
_cell_length_b 8.798876
_cell_length_c 27.213251
_cell_angle_alpha 90.000000
_cell_angle_beta 90.000000
_cell_angle_gamma 90.000000
_cell_volume 6973.691287
_symmetry_space_group_name_H-M "C M M M"
_symmetry_group_IT_number 65
_symmetry_cell_setting 'orthorhombic'
loop_
_space_group_symop_operation_xyz
x,y,z
-x,-y,z
x,-y,-z
-x,y,-z
-x,-y,-z
x,y,-z
-x,y,z
x,-y,z
1/2+x,1/2+y,z
1/2-x,1/2-y,z
1/2+x,1/2-y,-z
1/2-x,1/2+y,-z
1/2-x,1/2-y,-z
1/2+x,1/2+y,-z
1/2-x,1/2+y,z
1/2+x,1/2-y,z
loop_
_atom_site_type_symbol
_atom_site_label
_atom_site_fract_x
_atom_site_fract_y
_atom_site_fract_z
Si Si1 0.301542 0.818018 0.847543
Si Si2 0.944322 0.327192 0.500000
Si Si3 0.301206 0.317501 0.555805
Si Si4 0.640163 0.182283 0.355174
Si Si5 0.801078 0.317140 0.261072
Si Si6 0.946526 0.818589 0.603931
Si Si7 0.801649 0.818163 0.946178
O O1 0.250000 0.750000 0.846210
O O2 0.320224 0.778550 0.793358
O O3 0.323824 0.749665 0.896813
O O4 0.299407 0.000000 0.852242
O O5 0.926694 0.500000 0.500000
O O6 0.932292 0.240401 0.450208
O O7 0.000000 0.333894 0.500000
O O8 0.316954 0.281011 0.500000
O O9 0.299706 0.500000 0.560533
O O10 0.250000 0.250000 0.561143
O O11 0.332755 0.248166 0.597965
O O12 0.666569 0.230910 0.305758
O O13 0.588505 0.243672 0.358306
O O14 0.640182 0.000000 0.357669
O O15 0.796869 0.500000 0.262747
O O16 0.750000 0.250000 0.266699
O O17 0.000000 0.777427 0.611755
O O18 0.942710 0.000000 0.605020
O O19 0.750000 0.750000 0.947467
O O20 0.798655 0.000000 0.941714
O O21 0.822352 0.782084 0.000000
#
# Coordination Sequence:
#
# PCOD9491472 Si02
#       7
#    16   8  16  16  16  16  16
#     4   9  15  24  37  52  73 101 135 172 211 247
#     4   9  17  31  51  71  88 107 130 157 195 245
#     4  10  21  36  51  67  89 114 141 175 215 256
#     4  11  22  34  50  69  89 113 144 177 214 260
#     4   9  19  32  45  63  85 111 143 182 218 250
#     4  10  21  36  52  70  92 114 137 169 210 256
#     4   9  15  21  30  47  71  98 131 170 209 246
#
# _framework density 14.913192
#
# number of rings (size 3 to 8) (size 9 to 14) (size 15 to 20)
#    0.000    2.385    0.000    3.923    1.077    6.769 
#    0.000    0.000    0.000    0.000    0.000    0.000 
#    0.000    0.000    0.000    0.000    0.000    0.769 
#
# Total GULP energy -289797.733156 kJ/mol
# GULP energy per Si atom -5573.033330 kJ/mol
# Density = 1.487925 g / cm^3
# Si number density = 14.913192 Si / 1000 Ang^3
#
#
#
# Elastic Constant Matrix: (Units=GPa)
#
#
# Indices 1 2 3 4 5 6 
#
# 1 49.3229 22.5354 54.2710 0.0000 0.0000 0.0000
# 2 22.5354 52.7001 47.4531 0.0000 0.0000 0.0000
# 3 54.2710 47.4531 146.0964 0.0000 0.0000 0.0000
# 4 0.0000 0.0000 0.0000 32.5503 0.0000 0.0000
# 5 0.0000 0.0000 0.0000 0.0000 4.1630 0.0000
# 6 0.0000 0.0000 0.0000 0.0000 0.0000 17.3339
#
#
#
# Elastic Compliance Matrix: (Units=1/GPa)
#
#
# Indices 1 2 3 4 5 6 
#
# 1 0.035067 -0.004616 -0.011527 0.000000 0.000000 0.000000
# 2 -0.004616 0.027426 -0.007194 0.000000 0.000000 0.000000
# 3 -0.011527 -0.007194 0.013463 0.000000 0.000000 0.000000
# 4 0.000000 0.000000 0.000000 0.030722 0.000000 0.000000
# 5 0.000000 0.000000 0.000000 0.000000 0.240211 0.000000
# 6 0.000000 0.000000 0.000000 0.000000 0.000000 0.057690
#
#
# Mechanical properties :
#
#
# Convention : Reuss Voigt Hill
#
# Bulk Modulus (GPa) = 34.14868 55.18205 44.66536
# Shear Modulus (GPa) = 10.84564 19.06678 14.95621
#
# Velocity S-wave (km/s) = 2.69969 3.57952 3.17027
# Velocity P-wave (km/s) = 5.71540 7.35978 6.58909
#
# Compressibility (1/GPa) = 0.02928371
#
# Stress axis : x y z
#
# Youngs Moduli (GPa) = 28.51666 36.46111 74.27513
#
# Poissons Ratio (x) = 0.16829 0.85619
# Poissons Ratio (y) = 0.13162 0.53431
# Poissons Ratio (z) = 0.32872 0.26229
#
# Static dielectric constant tensor:
#      x y z
#    x 1.475670 0.000000 0.000000 
#    y 0.000000 1.499810 0.000000 
#    z 0.000000 0.000000 1.546500 
# 
# From -- ./inp_files/76240.got.cif
#   From: 2010.05.17/outbox.cif.g08.bks.cpg/sg65_39_cif.got.tgz:76240.got - 2010.06.03 17:01:31.
