data_PCOD9491107
_publ_section_title
;
Structure prediction by ZEFSAII (Michael W. Deem and Ramdas Pophale) SiO2 
 PCOD9491107
Probable space group: C M M M
;
_chemical_formula_sum "Si O2"
_cell_formula_units_Z 88
_cell_length_a 20.864466
_cell_length_b 20.207000
_cell_length_c 14.332339
_cell_angle_alpha 90.000000
_cell_angle_beta 90.000000
_cell_angle_gamma 90.000000
_cell_volume 6042.632571
_symmetry_space_group_name_H-M "C M M M"
_symmetry_group_IT_number 65
_symmetry_cell_setting 'orthorhombic'
loop_
_space_group_symop_operation_xyz
x,y,z
-x,-y,z
x,-y,-z
-x,y,-z
-x,-y,-z
x,y,-z
-x,y,z
x,-y,z
1/2+x,1/2+y,z
1/2-x,1/2-y,z
1/2+x,1/2-y,-z
1/2-x,1/2+y,-z
1/2-x,1/2-y,-z
1/2+x,1/2+y,-z
1/2-x,1/2+y,z
1/2+x,1/2-y,z
loop_
_atom_site_type_symbol
_atom_site_label
_atom_site_fract_x
_atom_site_fract_y
_atom_site_fract_z
Si Si1 0.744315 0.829223 0.608784
Si Si2 0.361386 0.424680 0.613307
Si Si3 0.422696 0.077170 0.892941
Si Si4 0.423254 0.000000 0.605587
Si Si5 0.886110 0.364506 0.704629
Si Si6 0.000000 0.717676 0.388242
Si Si7 0.500000 0.624238 0.388562
O O1 0.730720 0.847270 0.500000
O O2 0.750000 0.750000 0.611399
O O3 0.807948 0.869851 0.637767
O O4 0.684810 0.846970 0.673182
O O5 0.363660 0.423974 0.500000
O O6 0.344738 0.500000 0.641638
O O7 0.432947 0.405782 0.647125
O O8 0.500000 0.079978 0.884296
O O9 0.394205 0.124940 0.814917
O O10 0.404673 0.000000 0.876365
O O11 0.406145 0.093416 0.000000
O O12 0.402300 0.934967 0.658880
O O13 0.500000 0.000000 0.602389
O O14 0.398182 0.000000 0.500000
O O15 0.937567 0.313848 0.660417
O O16 0.000000 0.702515 0.500000
O O17 0.000000 0.796665 0.377023
O O18 0.500000 0.611306 0.500000
#
# Coordination Sequence:
#
# PCOD9491107 Si02
#       7
#    16  16  16   8  16   8   8
#     4  10  21  34  45  63  97 135 165 193 233 288
#     4   9  17  29  45  63  82 113 159 204 237 267
#     4   9  17  31  48  67  92 122 159 203 246 284
#     4  11  20  28  39  65 101 128 155 193 226 270
#     4  12  20  30  46  66  93 127 161 194 233 277
#     4  11  20  28  41  64  92 127 159 185 222 280
#     4   9  17  30  46  61  83 113 154 200 237 269
#
# _framework density 14.563188999999999
#
# number of rings (size 3 to 8) (size 9 to 14) (size 15 to 20)
#    0.000    1.909    2.727    3.545    1.273    4.000 
#    0.000    0.000    0.000    0.545    0.000    0.000 
#    0.000    0.000    0.000    0.000    0.000   17.091 
#
# Total GULP energy -245276.045954 kJ/mol
# GULP energy per Si atom -5574.455590 kJ/mol
# Density = 1.453004 g / cm^3
# Si number density = 14.563189 Si / 1000 Ang^3
#
#
#
# Elastic Constant Matrix: (Units=GPa)
#
#
# Indices 1 2 3 4 5 6 
#
# 1 103.1333 44.0927 32.7759 0.0000 0.0000 0.0000
# 2 44.0927 67.8544 23.6524 0.0000 0.0000 0.0000
# 3 32.7759 23.6524 77.5948 0.0000 0.0000 0.0000
# 4 0.0000 0.0000 0.0000 9.4078 0.0000 0.0000
# 5 0.0000 0.0000 0.0000 0.0000 17.2219 0.0000
# 6 0.0000 0.0000 0.0000 0.0000 0.0000 -2.2629
#
#
#
# Elastic Compliance Matrix: (Units=1/GPa)
#
#
# Indices 1 2 3 4 5 6 
#
# 1 0.014263 -0.008020 -0.003580 0.000000 0.000000 0.000000
# 2 -0.008020 0.021000 -0.003013 0.000000 0.000000 0.000000
# 3 -0.003580 -0.003013 0.015318 0.000000 0.000000 0.000000
# 4 0.000000 0.000000 0.000000 0.106295 0.000000 0.000000
# 5 0.000000 0.000000 0.000000 0.000000 0.058066 0.000000
# 6 0.000000 0.000000 0.000000 0.000000 0.000000 -0.441915
#
#
# Mechanical properties :
#
#
# Convention : Reuss Voigt Hill
#
# Bulk Modulus (GPa) = 46.83070 49.95828 48.39449
# Shear Modulus (GPa) = -26.22896 14.74412 -5.74242
#
# Velocity S-wave (km/s) = -4.24848 3.18531 -1.98788
# Velocity P-wave (km/s) = 2.85668 6.92151 5.29471
#
# Compressibility (1/GPa) = 0.02135351
#
# Stress axis : x y z
#
# Youngs Moduli (GPa) = 70.11247 47.62011 65.28229
#
# Poissons Ratio (x) = 0.38193 0.23370
# Poissons Ratio (y) = 0.56233 0.19672
# Poissons Ratio (z) = 0.25099 0.14349
#
# Static dielectric constant tensor:
#      x y z
#    x 1.481750 0.000000 0.000000 
#    y 0.000000 1.486430 0.000000 
#    z 0.000000 0.000000 1.468140 
# 
# From -- ./inp_files/42550.got.cif
#   From: 2010.05.17/outbox.cif.g08.bks.cpg/sg65_22_cif.got.tgz:42550.got - 2010.06.03 17:01:31.
