data_PCOD9491134
_publ_section_title
;
Structure prediction by ZEFSAII (Michael W. Deem and Ramdas Pophale) SiO2 
 PCOD9491134
Probable space group: C M M M
;
_chemical_formula_sum "Si O2"
_cell_formula_units_Z 100
_cell_length_a 19.051411
_cell_length_b 15.316094
_cell_length_c 17.768412
_cell_angle_alpha 90.000000
_cell_angle_beta 90.000000
_cell_angle_gamma 90.000000
_cell_volume 5184.701827
_symmetry_space_group_name_H-M "C M M M"
_symmetry_group_IT_number 65
_symmetry_cell_setting 'orthorhombic'
loop_
_space_group_symop_operation_xyz
x,y,z
-x,-y,z
x,-y,-z
-x,y,-z
-x,-y,-z
x,y,-z
-x,y,z
x,-y,z
1/2+x,1/2+y,z
1/2-x,1/2-y,z
1/2+x,1/2-y,-z
1/2-x,1/2+y,-z
1/2-x,1/2-y,-z
1/2+x,1/2+y,-z
1/2-x,1/2+y,z
1/2+x,1/2-y,z
loop_
_atom_site_type_symbol
_atom_site_label
_atom_site_fract_x
_atom_site_fract_y
_atom_site_fract_z
Si Si1 0.422206 0.168476 0.129111
Si Si2 0.250000 0.750000 0.000000
Si Si3 0.918137 0.745376 0.297011
Si Si4 0.833504 0.097788 0.234658
Si Si5 0.082642 0.134572 0.916843
Si Si6 0.085343 0.402451 0.587303
Si Si7 0.773929 0.401380 0.881342
O O1 0.500000 0.135093 0.111447
O O2 0.419659 0.196410 0.216522
O O3 0.410679 0.259783 0.085234
O O4 0.357664 0.106486 0.113381
O O5 0.254531 0.673673 0.934868
O O6 0.868290 0.828872 0.286296
O O7 0.893034 0.676643 0.359332
O O8 0.000000 0.771114 0.311943
O O9 0.877209 0.100199 0.155758
O O10 0.755396 0.116059 0.202992
O O11 0.836938 0.000000 0.266110
O O12 0.000000 0.115630 0.907252
O O13 0.103333 0.103852 0.000000
O O14 0.105248 0.390173 0.500000
O O15 0.108405 0.500000 0.611466
O O16 0.000000 0.403116 0.590078
O O17 0.752936 0.500000 0.901069
#
# Coordination Sequence:
#
# PCOD9491134 Si02
#       7
#    16   4  16  16  16  16  16
#     4   9  19  35  54  76 104 133 167 215 266 323
#     4  12  22  40  58  68 100 134 164 226 272 308
#     4   9  17  30  50  78 108 144 180 211 261 318
#     4  10  21  34  48  71 102 135 182 231 263 303
#     4   9  18  31  48  72  96 129 173 215 270 321
#     4   8  14  26  47  78 114 146 177 219 268 316
#     4  11  25  38  54  79  99 132 181 218 267 329
#
# _framework density 19.287512
#
# number of rings (size 3 to 8) (size 9 to 14) (size 15 to 20)
#    0.000    2.560    0.000    4.080    4.480    2.560 
#    0.000    2.400    0.000    1.440    0.000    4.480 
#    0.000    1.280    0.000    0.000    0.000    0.000 
#
# Total GULP energy -278501.430325 kJ/mol
# GULP energy per Si atom -5570.028606 kJ/mol
# Density = 1.924361 g / cm^3
# Si number density = 19.287512 Si / 1000 Ang^3
#
#
#
# Elastic Constant Matrix: (Units=GPa)
#
#
# Indices 1 2 3 4 5 6 
#
# 1 78.3502 35.4965 7.3917 0.0000 0.0000 0.0000
# 2 35.4965 154.5174 60.7310 0.0000 0.0000 0.0000
# 3 7.3917 60.7310 66.0263 0.0000 0.0000 0.0000
# 4 0.0000 0.0000 0.0000 14.4773 0.0000 0.0000
# 5 0.0000 0.0000 0.0000 0.0000 3.5916 0.0000
# 6 0.0000 0.0000 0.0000 0.0000 0.0000 22.0879
#
#
#
# Elastic Compliance Matrix: (Units=1/GPa)
#
#
# Indices 1 2 3 4 5 6 
#
# 1 0.014456 -0.004205 0.002249 0.000000 0.000000 0.000000
# 2 -0.004205 0.011359 -0.009978 0.000000 0.000000 0.000000
# 3 0.002249 -0.009978 0.024071 0.000000 0.000000 0.000000
# 4 0.000000 0.000000 0.000000 0.069074 0.000000 0.000000
# 5 0.000000 0.000000 0.000000 0.000000 0.278424 0.000000
# 6 0.000000 0.000000 0.000000 0.000000 0.000000 0.045274
#
#
# Mechanical properties :
#
#
# Convention : Reuss Voigt Hill
#
# Bulk Modulus (GPa) = 38.43183 56.23691 47.33437
# Shear Modulus (GPa) = 10.52195 21.04968 15.78582
#
# Velocity S-wave (km/s) = 2.33820 3.30716 2.86396
# Velocity P-wave (km/s) = 5.22097 6.61843 5.96079
#
# Compressibility (1/GPa) = 0.02602010
#
# Stress axis : x y z
#
# Youngs Moduli (GPa) = 69.17504 88.03360 41.54373
#
# Poissons Ratio (x) = 0.37018 -0.09345
# Poissons Ratio (y) = 0.29088 0.41450
# Poissons Ratio (z) = -0.15560 0.87836
#
# Static dielectric constant tensor:
#      x y z
#    x 1.769600 0.000000 0.000000 
#    y 0.000000 1.675650 0.000000 
#    z 0.000000 0.000000 1.646200 
# 
# From -- ./inp_files/55902.got.cif
#   From: 2010.05.17/outbox.cif.g08.bks.cpg/sg65_28_cif.got.tgz:55902.got - 2010.06.03 17:01:31.
