data_PCOD9491114
_publ_section_title
;
Structure prediction by ZEFSAII (Michael W. Deem and Ramdas Pophale) SiO2 
 PCOD9491114
Probable space group: C M M M
;
_chemical_formula_sum "Si O2"
_cell_formula_units_Z 104
_cell_length_a 32.604912
_cell_length_b 20.969707
_cell_length_c 9.038558
_cell_angle_alpha 90.000000
_cell_angle_beta 90.000000
_cell_angle_gamma 90.000000
_cell_volume 6179.801763
_symmetry_space_group_name_H-M "C M M M"
_symmetry_group_IT_number 65
_symmetry_cell_setting 'orthorhombic'
loop_
_space_group_symop_operation_xyz
x,y,z
-x,-y,z
x,-y,-z
-x,y,-z
-x,-y,-z
x,y,-z
-x,y,z
x,-y,z
1/2+x,1/2+y,z
1/2-x,1/2-y,z
1/2+x,1/2-y,-z
1/2-x,1/2+y,-z
1/2-x,1/2-y,-z
1/2+x,1/2+y,-z
1/2-x,1/2+y,z
1/2+x,1/2-y,z
loop_
_atom_site_type_symbol
_atom_site_label
_atom_site_fract_x
_atom_site_fract_y
_atom_site_fract_z
Si Si1 0.571823 0.129684 0.170731
Si Si2 0.181093 0.070864 0.320304
Si Si3 0.049186 0.500000 0.668853
Si Si4 0.634134 0.303384 0.679184
Si Si5 0.044905 0.757759 0.321909
Si Si6 0.222956 0.572933 0.321786
Si Si7 0.334762 0.176906 0.828657
O O1 0.563612 0.063090 0.248487
O O2 0.549563 0.187307 0.254791
O O3 0.620097 0.145383 0.176144
O O4 0.558724 0.127815 0.000000
O O5 0.179335 0.070184 0.500000
O O6 0.153338 0.129676 0.270783
O O7 0.228975 0.080360 0.282738
O O8 0.168538 0.000000 0.269259
O O9 0.064275 0.500000 0.500000
O O10 0.000000 0.500000 0.667131
O O11 0.636197 0.300043 0.500000
O O12 0.586251 0.295136 0.723088
O O13 0.659642 0.244156 0.745104
O O14 0.045900 0.753321 0.500000
O O15 0.000000 0.784141 0.279401
O O16 0.219394 0.577835 0.500000
O O17 0.210678 0.500000 0.280912
O O18 0.196323 0.627685 0.246705
O O19 0.323749 0.187519 0.000000
#
# Coordination Sequence:
#
# PCOD9491114 Si02
#       7
#    16  16   8  16  16  16  16
#     4  10  21  34  47  65  90 123 160 198 240 285
#     4   8  15  30  52  76  98 122 159 201 236 279
#     4  11  23  35  47  65  89 119 157 201 247 289
#     4   9  17  31  52  73  95 127 162 196 238 286
#     4   9  17  30  48  70  95 122 156 196 236 282
#     4   9  18  32  50  71  94 125 166 205 238 280
#     4  10  21  34  47  68  99 128 158 200 244 285
#
# _framework density 16.82902
#
# number of rings (size 3 to 8) (size 9 to 14) (size 15 to 20)
#    0.000    2.692    0.000    2.538    1.077    5.538 
#    0.000    3.846    0.000    1.846    0.000    3.231 
#    0.000    0.000    0.000    7.692    0.000    8.000 
#
# Total GULP energy -289852.949714 kJ/mol
# GULP energy per Si atom -5574.095187 kJ/mol
# Density = 1.679072 g / cm^3
# Si number density = 16.829020 Si / 1000 Ang^3
#
#
#
# Elastic Constant Matrix: (Units=GPa)
#
#
# Indices 1 2 3 4 5 6 
#
# 1 86.6823 82.4974 27.8351 0.0000 0.0000 0.0000
# 2 82.4974 141.5009 35.5471 0.0000 0.0000 0.0000
# 3 27.8351 35.5471 24.5076 0.0000 0.0000 0.0000
# 4 0.0000 0.0000 0.0000 -13.4241 0.0000 0.0000
# 5 0.0000 0.0000 0.0000 0.0000 12.1995 0.0000
# 6 0.0000 0.0000 0.0000 0.0000 0.0000 11.4298
#
#
#
# Elastic Compliance Matrix: (Units=1/GPa)
#
#
# Indices 1 2 3 4 5 6 
#
# 1 0.028297 -0.013253 -0.012916 0.000000 0.000000 0.000000
# 2 -0.013253 0.017325 -0.010077 0.000000 0.000000 0.000000
# 3 -0.012916 -0.010077 0.070090 0.000000 0.000000 0.000000
# 4 0.000000 0.000000 0.000000 -0.074493 0.000000 0.000000
# 5 0.000000 0.000000 0.000000 0.000000 0.081970 0.000000
# 6 0.000000 0.000000 0.000000 0.000000 0.000000 0.087491
#
#
# Mechanical properties :
#
#
# Convention : Reuss Voigt Hill
#
# Bulk Modulus (GPa) = 23.13760 60.49444 41.81602
# Shear Modulus (GPa) = 16.80216 9.16179 12.98197
#
# Velocity S-wave (km/s) = 3.16318 2.33578 2.78043
# Velocity P-wave (km/s) = 5.20763 6.58020 5.93374
#
# Compressibility (1/GPa) = 0.04321969
#
# Stress axis : x y z
#
# Youngs Moduli (GPa) = 35.33921 57.71893 14.26729
#
# Poissons Ratio (x) = 0.76495 0.18428
# Poissons Ratio (y) = 0.46835 0.14377
# Poissons Ratio (z) = 0.45646 0.58165
#
# Static dielectric constant tensor:
#      x y z
#    x 1.579980 0.000000 0.000000 
#    y 0.000000 1.545160 0.000000 
#    z 0.000000 0.000000 1.561510 
# 
# From -- ./inp_files/18672.got.cif
#   From: 2010.05.17/outbox.cif.g08.bks.cpg/sg65_10_cif.got.tgz:18672.got - 2010.06.03 17:01:31.
