data_PCOD9491885
_publ_section_title
;
Structure prediction by ZEFSAII (Michael W. Deem and Ramdas Pophale) SiO2 
 PCOD9491885
Probable space group: C M M M
;
_chemical_formula_sum "Si O2"
_cell_formula_units_Z 64
_cell_length_a 8.054207
_cell_length_b 30.319071
_cell_length_c 12.433866
_cell_angle_alpha 90.000000
_cell_angle_beta 90.000000
_cell_angle_gamma 90.000000
_cell_volume 3036.301260
_symmetry_space_group_name_H-M "C M M M"
_symmetry_group_IT_number 65
_symmetry_cell_setting 'orthorhombic'
loop_
_space_group_symop_operation_xyz
x,y,z
-x,-y,z
x,-y,-z
-x,y,-z
-x,-y,-z
x,y,-z
-x,y,z
x,-y,z
1/2+x,1/2+y,z
1/2-x,1/2-y,z
1/2+x,1/2-y,-z
1/2-x,1/2+y,-z
1/2-x,1/2-y,-z
1/2+x,1/2+y,-z
1/2-x,1/2+y,z
1/2+x,1/2-y,z
loop_
_atom_site_type_symbol
_atom_site_label
_atom_site_fract_x
_atom_site_fract_y
_atom_site_fract_z
Si Si1 0.688866 0.644005 0.000000
Si Si2 0.699547 0.631766 0.623912
Si Si3 0.803396 0.451094 0.234722
Si Si4 0.238802 0.550740 0.000000
Si Si5 0.805200 0.300507 0.799067
O O1 0.714577 0.673656 0.104828
O O2 0.500000 0.626164 0.000000
O O3 0.813831 0.602516 0.000000
O O4 0.753765 0.631570 0.500000
O O5 0.500000 0.632981 0.627071
O O6 0.758543 0.587906 0.685629
O O7 0.766958 0.673445 0.689683
O O8 0.780821 0.500000 0.282204
O O9 0.699249 0.448993 0.123860
O O10 0.000000 0.447095 0.203801
O O11 0.167901 0.500000 0.000000
O O12 0.750000 0.250000 0.793780
O O13 0.000000 0.302379 0.821947
#
# Coordination Sequence:
#
# PCOD9491885 Si02
#       5
#     8  16  16   8  16
#     4  12  24  41  67 100 139 173 211 259 315 383
#     4  11  25  44  65  92 128 170 217 269 324 383
#     4  10  21  38  63  95 132 172 215 264 319 383
#     4  10  21  36  63 101 138 172 207 254 312 379
#     4  12  26  45  70  97 129 167 212 265 324 385
#
# _framework density 21.078278000000001
#
# number of rings (size 3 to 8) (size 9 to 14) (size 15 to 20)
#    0.000    1.000    2.500    4.125    0.000    6.250 
#    0.000    5.000    0.000    0.000    0.000    0.000 
#    0.000    0.000    0.000    0.000    0.000    0.000 
#
# Total GULP energy -178434.494596 kJ/mol
# GULP energy per Si atom -5576.077956 kJ/mol
# Density = 2.103030 g / cm^3
# Si number density = 21.078278 Si / 1000 Ang^3
#
#
#
# Elastic Constant Matrix: (Units=GPa)
#
#
# Indices 1 2 3 4 5 6 
#
# 1 89.6867 19.2761 14.6129 0.0000 0.0000 0.0000
# 2 19.2761 203.7194 72.5358 0.0000 0.0000 0.0000
# 3 14.6129 72.5358 141.1306 0.0000 0.0000 0.0000
# 4 0.0000 0.0000 0.0000 -2.0262 0.0000 0.0000
# 5 0.0000 0.0000 0.0000 0.0000 21.0718 0.0000
# 6 0.0000 0.0000 0.0000 0.0000 0.0000 17.5516
#
#
#
# Elastic Compliance Matrix: (Units=1/GPa)
#
#
# Indices 1 2 3 4 5 6 
#
# 1 0.011449 -0.000809 -0.000770 0.000000 0.000000 0.000000
# 2 -0.000809 0.006065 -0.003034 0.000000 0.000000 0.000000
# 3 -0.000770 -0.003034 0.008724 0.000000 0.000000 0.000000
# 4 0.000000 0.000000 0.000000 -0.493525 0.000000 0.000000
# 5 0.000000 0.000000 0.000000 0.000000 0.047457 0.000000
# 6 0.000000 0.000000 0.000000 0.000000 0.000000 0.056975
#
#
# Mechanical properties :
#
#
# Convention : Reuss Voigt Hill
#
# Bulk Modulus (GPa) = 58.77427 71.93182 65.35304
# Shear Modulus (GPa) = -14.36958 29.19354 7.41198
#
# Velocity S-wave (km/s) = -2.61382 3.72560 1.87724
# Velocity P-wave (km/s) = 4.33993 7.25996 5.98088
#
# Compressibility (1/GPa) = 0.01701425
#
# Stress axis : x y z
#
# Youngs Moduli (GPa) = 87.34190 164.86880 114.62014
#
# Poissons Ratio (x) = 0.13344 0.08820
# Poissons Ratio (y) = 0.07069 0.34771
# Poissons Ratio (z) = 0.06721 0.50015
#
# Static dielectric constant tensor:
#      x y z
#    x 1.895210 0.000000 0.000000 
#    y 0.000000 1.726880 0.000000 
#    z 0.000000 0.000000 1.719260 
# 
# From -- ./inp_files/20953.got.cif
#   From: 2010.05.17/outbox.cif.g08.bks.cpg/sg65_11_cif.got.tgz:20953.got - 2010.06.03 17:01:31.
