data_PCOD9491932
_publ_section_title
;
Structure prediction by ZEFSAII (Michael W. Deem and Ramdas Pophale) SiO2 
 PCOD9491932
Probable space group: C M M M
;
_chemical_formula_sum "Si O2"
_cell_formula_units_Z 88
_cell_length_a 8.199544
_cell_length_b 18.418090
_cell_length_c 30.264999
_cell_angle_alpha 90.000000
_cell_angle_beta 90.000000
_cell_angle_gamma 90.000000
_cell_volume 4570.618313
_symmetry_space_group_name_H-M "C M M M"
_symmetry_group_IT_number 65
_symmetry_cell_setting 'orthorhombic'
loop_
_space_group_symop_operation_xyz
x,y,z
-x,-y,z
x,-y,-z
-x,y,-z
-x,-y,-z
x,y,-z
-x,y,z
x,-y,z
1/2+x,1/2+y,z
1/2-x,1/2-y,z
1/2+x,1/2-y,-z
1/2-x,1/2+y,-z
1/2-x,1/2-y,-z
1/2+x,1/2+y,-z
1/2-x,1/2+y,z
1/2+x,1/2-y,z
loop_
_atom_site_type_symbol
_atom_site_label
_atom_site_fract_x
_atom_site_fract_y
_atom_site_fract_z
Si Si1 0.302603 0.665297 0.452429
Si Si2 0.304803 0.582807 0.000000
Si Si3 0.697036 0.665568 0.642605
Si Si4 0.803263 0.917433 0.825764
Si Si5 0.306725 0.167034 0.912699
Si Si6 0.802520 0.166118 0.738926
O O1 0.246451 0.634475 0.500000
O O2 0.500000 0.662557 0.452451
O O3 0.250000 0.750000 0.452407
O O4 0.246338 0.634396 0.404873
O O5 0.250084 0.624426 0.043837
O O6 0.242639 0.500000 0.000000
O O7 0.500000 0.580661 0.000000
O O8 0.500000 0.662265 0.642441
O O9 0.750000 0.750000 0.642611
O O10 0.752302 0.637263 0.690550
O O11 0.758665 0.871385 0.868680
O O12 0.743246 0.879524 0.780777
O O13 0.000000 0.919679 0.823277
O O14 0.743386 0.000000 0.829715
O O15 0.500000 0.165670 0.911133
O O16 0.250000 0.250000 0.914747
O O17 0.750000 0.250000 0.743236
O O18 0.000000 0.164555 0.739198
#
# Coordination Sequence:
#
# PCOD9491932 Si02
#       6
#    16   8  16  16  16  16
#     4   8  12  17  26  42  67 100 136 175 222 277
#     4  11  24  43  66  91 121 153 182 215 256 297
#     4   8  13  21  33  51  76 106 143 185 230 283
#     4  10  21  37  55  76 104 136 171 213 261 309
#     4  12  25  41  62  87 115 145 180 218 256 301
#     4   9  17  29  46  67  91 122 159 200 246 297
#
# _framework density 19.253411
#
# number of rings (size 3 to 8) (size 9 to 14) (size 15 to 20)
#    0.000    2.455    0.000    3.273    0.000    5.455 
#    0.000    0.000    0.000    0.000    0.000    0.000 
#    0.000    0.727    0.000   10.182    0.000    3.455 
#
# Total GULP energy -245174.521760 kJ/mol
# GULP energy per Si atom -5572.148222 kJ/mol
# Density = 1.920959 g / cm^3
# Si number density = 19.253411 Si / 1000 Ang^3
#
#
#
# Elastic Constant Matrix: (Units=GPa)
#
#
# Indices 1 2 3 4 5 6 
#
# 1 19.7341 8.9297 13.3034 0.0000 0.0000 0.0000
# 2 8.9297 97.3950 86.3955 0.0000 0.0000 0.0000
# 3 13.3034 86.3955 250.2522 0.0000 0.0000 0.0000
# 4 0.0000 0.0000 0.0000 -8.8017 0.0000 0.0000
# 5 0.0000 0.0000 0.0000 0.0000 14.0023 0.0000
# 6 0.0000 0.0000 0.0000 0.0000 0.0000 14.8353
#
#
#
# Elastic Compliance Matrix: (Units=1/GPa)
#
#
# Indices 1 2 3 4 5 6 
#
# 1 0.053338 -0.003424 -0.001654 0.000000 0.000000 0.000000
# 2 -0.003424 0.015020 -0.005003 0.000000 0.000000 0.000000
# 3 -0.001654 -0.005003 0.005811 0.000000 0.000000 0.000000
# 4 0.000000 0.000000 0.000000 -0.113614 0.000000 0.000000
# 5 0.000000 0.000000 0.000000 0.000000 0.071417 0.000000
# 6 0.000000 0.000000 0.000000 0.000000 0.000000 0.067407
#
#
# Mechanical properties :
#
#
# Convention : Reuss Voigt Hill
#
# Bulk Modulus (GPa) = 18.51588 64.95984 41.73786
# Shear Modulus (GPa) = 36.35284 21.25736 28.80510
#
# Velocity S-wave (km/s) = 4.34997 3.32638 3.87215
# Velocity P-wave (km/s) = 5.90487 6.96891 6.45884
#
# Compressibility (1/GPa) = 0.05400768
#
# Stress axis : x y z
#
# Youngs Moduli (GPa) = 18.74853 66.57980 172.08252
#
# Poissons Ratio (x) = 0.22794 0.28454
# Poissons Ratio (y) = 0.06419 0.86098
# Poissons Ratio (z) = 0.03100 0.33312
#
# Static dielectric constant tensor:
#      x y z
#    x 1.441930 0.000000 0.000000 
#    y 0.000000 1.616270 0.000000 
#    z 0.000000 0.000000 1.701000 
# 
# From -- ./inp_files/76657.got.cif
#   From: 2010.05.17/outbox.cif.g08.bks.cpg/sg65_39_cif.got.tgz:76657.got - 2010.06.03 17:01:31.
