data_PCOD9491402
_publ_section_title
;
Structure prediction by ZEFSAII (Michael W. Deem and Ramdas Pophale) SiO2 
 PCOD9491402
Probable space group: C M M M
;
_chemical_formula_sum "Si O2"
_cell_formula_units_Z 64
_cell_length_a 8.728441
_cell_length_b 18.640194
_cell_length_c 20.994155
_cell_angle_alpha 90.000000
_cell_angle_beta 90.000000
_cell_angle_gamma 90.000000
_cell_volume 3415.745524
_symmetry_space_group_name_H-M "C M M M"
_symmetry_group_IT_number 65
_symmetry_cell_setting 'orthorhombic'
loop_
_space_group_symop_operation_xyz
x,y,z
-x,-y,z
x,-y,-z
-x,y,-z
-x,-y,-z
x,y,-z
-x,y,z
x,-y,z
1/2+x,1/2+y,z
1/2-x,1/2-y,z
1/2+x,1/2-y,-z
1/2-x,1/2+y,-z
1/2-x,1/2-y,-z
1/2+x,1/2+y,-z
1/2-x,1/2+y,z
1/2+x,1/2-y,z
loop_
_atom_site_type_symbol
_atom_site_label
_atom_site_fract_x
_atom_site_fract_y
_atom_site_fract_z
Si Si1 0.183321 0.915557 0.374448
Si Si2 0.684047 0.084294 0.000000
Si Si3 0.317406 0.670020 0.119884
Si Si4 0.685247 0.329458 0.500000
Si Si5 0.682378 0.915240 0.237673
O O1 0.233120 0.871002 0.435987
O O2 0.266582 0.895198 0.309046
O O3 0.000000 0.906518 0.365914
O O4 0.211418 0.000000 0.386033
O O5 0.750083 0.123274 0.062073
O O6 0.500000 0.090225 0.000000
O O7 0.723986 0.000000 0.000000
O O8 0.500000 0.673019 0.115087
O O9 0.250000 0.750000 0.116865
O O10 0.267222 0.631962 0.185315
O O11 0.500000 0.328202 0.500000
O O12 0.750000 0.250000 0.500000
O O13 0.500000 0.906913 0.230456
O O14 0.719453 0.000000 0.228949
#
# Coordination Sequence:
#
# PCOD9491402 Si02
#       5
#    16   8  16   8  16
#     4   9  18  35  58  81 107 145 193 238 280 333
#     4  11  24  43  66  91 121 155 192 237 286 337
#     4  12  25  41  62  88 120 156 195 238 286 341
#     4  10  21  35  53  79 111 146 184 232 288 344
#     4  10  21  38  60  87 118 151 190 237 288 342
#
# _framework density 18.736758999999999
#
# number of rings (size 3 to 8) (size 9 to 14) (size 15 to 20)
#    0.000    1.625    0.000    4.875    0.000    9.000 
#    0.000    2.500    0.000    3.750    0.000    0.000 
#    0.000    0.000    0.000    0.000    0.000    0.000 
#
# Total GULP energy -178908.926665 kJ/mol
# GULP energy per Si atom -5590.903958 kJ/mol
# Density = 1.869411 g / cm^3
# Si number density = 18.736759 Si / 1000 Ang^3
#
#
#
# Elastic Constant Matrix: (Units=GPa)
#
#
# Indices 1 2 3 4 5 6 
#
# 1 86.7669 72.6587 68.4763 0.0000 0.0000 0.0000
# 2 72.6587 134.2377 108.8004 0.0000 0.0000 0.0000
# 3 68.4763 108.8004 166.1464 0.0000 0.0000 0.0000
# 4 0.0000 0.0000 0.0000 -491.4245 0.0000 0.0000
# 5 0.0000 0.0000 0.0000 0.0000 11.5345 0.0000
# 6 0.0000 0.0000 0.0000 0.0000 0.0000 32.4865
#
#
#
# Elastic Compliance Matrix: (Units=1/GPa)
#
#
# Indices 1 2 3 4 5 6 
#
# 1 0.021617 -0.009546 -0.002658 0.000000 0.000000 0.000000
# 2 -0.009546 0.020091 -0.009222 0.000000 0.000000 0.000000
# 3 -0.002658 -0.009222 0.013153 0.000000 0.000000 0.000000
# 4 0.000000 0.000000 0.000000 -0.002035 0.000000 0.000000
# 5 0.000000 0.000000 0.000000 0.000000 0.086697 0.000000
# 6 0.000000 0.000000 0.000000 0.000000 0.000000 0.030782
#
#
# Mechanical properties :
#
#
# Convention : Reuss Voigt Hill
#
# Bulk Modulus (GPa) = 83.27359 98.55797 90.91578
# Shear Modulus (GPa) = 23.02439 -80.33301 -28.65431
#
# Velocity S-wave (km/s) = 3.50928 -6.55497 -3.91488
# Velocity P-wave (km/s) = 7.80772 2.13883 5.30970
#
# Compressibility (1/GPa) = 0.01200861
#
# Stress axis : x y z
#
# Youngs Moduli (GPa) = 46.26032 49.77291 76.02600
#
# Poissons Ratio (x) = 0.47514 0.20207
# Poissons Ratio (y) = 0.44161 0.70113
# Poissons Ratio (z) = 0.12296 0.45902
#
# Static dielectric constant tensor:
#      x y z
#    x 1.631350 0.000000 0.000000 
#    y 0.000000 1.618400 0.000000 
#    z 0.000000 0.000000 1.621770 
# 
# From -- ./inp_files/58896.got.cif
#   From: 2010.05.17/outbox.cif.g08.bks.cpg/sg65_30_cif.got.tgz:58896.got - 2010.06.03 17:01:31.
