data_PCOD9491175
_publ_section_title
;
Structure prediction by ZEFSAII (Michael W. Deem and Ramdas Pophale) SiO2 
 PCOD9491175
Probable space group: C M M M
;
_chemical_formula_sum "Si O2"
_cell_formula_units_Z 80
_cell_length_a 18.808004
_cell_length_b 7.647469
_cell_length_c 28.766662
_cell_angle_alpha 90.000000
_cell_angle_beta 90.000000
_cell_angle_gamma 90.000000
_cell_volume 4137.613348
_symmetry_space_group_name_H-M "C M M M"
_symmetry_group_IT_number 65
_symmetry_cell_setting 'orthorhombic'
loop_
_space_group_symop_operation_xyz
x,y,z
-x,-y,z
x,-y,-z
-x,y,-z
-x,-y,-z
x,y,-z
-x,y,z
x,-y,z
1/2+x,1/2+y,z
1/2-x,1/2-y,z
1/2+x,1/2-y,-z
1/2-x,1/2+y,-z
1/2-x,1/2-y,-z
1/2+x,1/2+y,-z
1/2-x,1/2+y,z
1/2+x,1/2-y,z
loop_
_atom_site_type_symbol
_atom_site_label
_atom_site_fract_x
_atom_site_fract_y
_atom_site_fract_z
Si Si1 0.833086 0.290357 0.281691
Si Si2 0.914875 0.293495 0.374349
Si Si3 0.081423 0.289962 0.192651
Si Si4 0.081297 0.790007 0.910841
Si Si5 0.667151 0.289690 0.000000
Si Si6 0.086258 0.000000 0.447178
O O1 0.840804 0.500000 0.281167
O O2 0.750000 0.250000 0.283033
O O3 0.873828 0.232490 0.328174
O O4 0.870483 0.222650 0.234761
O O5 0.900672 0.500000 0.382479
O O6 0.893964 0.171515 0.417541
O O7 0.000000 0.275897 0.366856
O O8 0.078418 0.500000 0.196459
O O9 0.108519 0.250084 0.140877
O O10 0.000000 0.223971 0.196162
O O11 0.000000 0.723696 0.914179
O O12 0.078284 0.000000 0.914613
O O13 0.128651 0.723577 0.953318
O O14 0.750000 0.250000 0.000000
O O15 0.659580 0.500000 0.000000
O O16 0.112966 0.000000 0.500000
O O17 0.000000 0.000000 0.449308
#
# Coordination Sequence:
#
# PCOD9491175 Si02
#       6
#    16  16  16  16   8   8
#     4  10  21  34  51  76 104 141 175 212 261 314
#     4   9  18  34  55  79 108 144 182 222 270 320
#     4   9  18  34  54  75 102 133 168 212 261 312
#     4   9  18  34  54  74  95 126 168 212 256 305
#     4  10  21  35  51  71  99 132 166 208 258 306
#     4   9  18  32  54  86 114 138 177 228 276 318
#
# _framework density 19.334819
#
# number of rings (size 3 to 8) (size 9 to 14) (size 15 to 20)
#    0.000    2.700    0.000    0.900    1.400    6.400 
#    0.000    6.000    0.000    3.600    0.000    0.000 
#    0.000    0.000    0.000    0.000    0.000    0.000 
#
# Total GULP energy -223146.384025 kJ/mol
# GULP energy per Si atom -5578.659601 kJ/mol
# Density = 1.929081 g / cm^3
# Si number density = 19.334819 Si / 1000 Ang^3
#
#
#
# Elastic Constant Matrix: (Units=GPa)
#
#
# Indices 1 2 3 4 5 6 
#
# 1 73.3498 20.9233 94.4121 0.0000 0.0000 0.0000
# 2 20.9233 54.3288 46.6853 0.0000 0.0000 0.0000
# 3 94.4121 46.6853 234.1133 0.0000 0.0000 0.0000
# 4 0.0000 0.0000 0.0000 26.9389 0.0000 0.0000
# 5 0.0000 0.0000 0.0000 0.0000 -5.1923 0.0000
# 6 0.0000 0.0000 0.0000 0.0000 0.0000 20.4502
#
#
#
# Elastic Compliance Matrix: (Units=1/GPa)
#
#
# Indices 1 2 3 4 5 6 
#
# 1 0.028427 -0.001324 -0.011200 0.000000 0.000000 0.000000
# 2 -0.001324 0.022274 -0.003908 0.000000 0.000000 0.000000
# 3 -0.011200 -0.003908 0.009567 0.000000 0.000000 0.000000
# 4 0.000000 0.000000 0.000000 0.037121 0.000000 0.000000
# 5 0.000000 0.000000 0.000000 0.000000 -0.192594 0.000000
# 6 0.000000 0.000000 0.000000 0.000000 0.000000 0.048899
#
#
# Mechanical properties :
#
#
# Convention : Reuss Voigt Hill
#
# Bulk Modulus (GPa) = 36.48907 76.20369 56.34638
# Shear Modulus (GPa) = -1160.95589 21.75744 -569.59922
#
# Velocity S-wave (km/s) = -24.53063 3.35819 -17.18247
# Velocity P-wave (km/s) = 27.98969 7.38477 19.09041
#
# Compressibility (1/GPa) = 0.02740547
#
# Stress axis : x y z
#
# Youngs Moduli (GPa) = 35.17811 44.89456 104.52201
#
# Poissons Ratio (x) = 0.05943 1.17063
# Poissons Ratio (y) = 0.04657 0.40847
# Poissons Ratio (z) = 0.39399 0.17545
#
# Static dielectric constant tensor:
#      x y z
#    x 1.647850 0.000000 0.000000 
#    y 0.000000 1.712430 0.000000 
#    z 0.000000 0.000000 1.670980 
# 
# From -- ./inp_files/75090.got.cif
#   From: 2010.05.17/outbox.cif.g08.bks.cpg/sg65_38_cif.got.tgz:75090.got - 2010.06.03 17:01:31.
