data_PCOD9491846
_publ_section_title
;
Structure prediction by ZEFSAII (Michael W. Deem and Ramdas Pophale) SiO2 
 PCOD9491846
Probable space group: C M M M
;
_chemical_formula_sum "Si O2"
_cell_formula_units_Z 96
_cell_length_a 14.664412
_cell_length_b 22.383004
_cell_length_c 14.972765
_cell_angle_alpha 90.000000
_cell_angle_beta 90.000000
_cell_angle_gamma 90.000000
_cell_volume 4914.564445
_symmetry_space_group_name_H-M "C M M M"
_symmetry_group_IT_number 65
_symmetry_cell_setting 'orthorhombic'
loop_
_space_group_symop_operation_xyz
x,y,z
-x,-y,z
x,-y,-z
-x,y,-z
-x,-y,-z
x,y,-z
-x,y,z
x,-y,z
1/2+x,1/2+y,z
1/2-x,1/2-y,z
1/2+x,1/2-y,-z
1/2-x,1/2+y,-z
1/2-x,1/2-y,-z
1/2+x,1/2+y,-z
1/2-x,1/2+y,z
1/2+x,1/2-y,z
loop_
_atom_site_type_symbol
_atom_site_label
_atom_site_fract_x
_atom_site_fract_y
_atom_site_fract_z
Si Si1 0.253977 0.932325 0.145240
Si Si2 0.898633 0.221960 0.237163
Si Si3 0.606652 0.571714 0.500000
Si Si4 0.786939 0.116007 0.325317
Si Si5 0.892005 0.674666 0.105159
Si Si6 0.840794 0.292128 0.400739
Si Si7 0.396264 0.427971 0.000000
O O1 0.231761 0.932756 0.250373
O O2 0.332310 0.883216 0.129621
O O3 0.278991 0.000000 0.116812
O O4 0.165629 0.913312 0.086365
O O5 0.835376 0.167688 0.266478
O O6 0.863539 0.266689 0.160911
O O7 0.901936 0.262569 0.326014
O O8 0.000000 0.200847 0.213095
O O9 0.615652 0.500000 0.500000
O O10 0.500000 0.587504 0.500000
O O11 0.652545 0.597058 0.590075
O O12 0.695625 0.144430 0.366622
O O13 0.000000 0.665049 0.124563
O O14 0.882245 0.685679 0.000000
O O15 0.879325 0.294521 0.500000
O O16 0.750000 0.250000 0.404807
O O17 0.404356 0.500000 0.000000
O O18 0.500000 0.403637 0.000000
#
# Coordination Sequence:
#
# PCOD9491846 Si02
#       7
#    16  16   8  16  16  16   8
#     4  11  22  38  62  88 117 159 204 248 306 362
#     4  10  21  36  57  87 120 152 194 245 301 362
#     4  11  24  40  59  88 123 159 205 256 299 349
#     4  11  21  38  58  84 116 158 198 243 296 359
#     4  10  21  39  62  90 123 155 196 253 309 367
#     4   9  17  31  53  80 109 144 187 236 287 346
#     4   9  20  38  57  80 111 147 198 252 292 347
#
# _framework density 19.533774999999999
#
# number of rings (size 3 to 8) (size 9 to 14) (size 15 to 20)
#    0.000    1.833    3.333    1.000    1.167    2.000 
#    1.500    3.333    0.000    0.000    0.000    0.000 
#    0.000    5.333    0.000    0.000    0.000    0.000 
#
# Total GULP energy -267794.021984 kJ/mol
# GULP energy per Si atom -5579.042125 kJ/mol
# Density = 1.948932 g / cm^3
# Si number density = 19.533775 Si / 1000 Ang^3
#
#
#
# Elastic Constant Matrix: (Units=GPa)
#
#
# Indices 1 2 3 4 5 6 
#
# 1 69.0996 29.6366 28.7412 0.0000 0.0000 0.0000
# 2 29.6366 80.3999 39.8257 0.0000 0.0000 0.0000
# 3 28.7412 39.8257 130.0911 0.0000 0.0000 0.0000
# 4 0.0000 0.0000 0.0000 26.1498 0.0000 0.0000
# 5 0.0000 0.0000 0.0000 0.0000 20.7903 0.0000
# 6 0.0000 0.0000 0.0000 0.0000 0.0000 17.0313
#
#
#
# Elastic Compliance Matrix: (Units=1/GPa)
#
#
# Indices 1 2 3 4 5 6 
#
# 1 0.017736 -0.005418 -0.002260 0.000000 0.000000 0.000000
# 2 -0.005418 0.016316 -0.003798 0.000000 0.000000 0.000000
# 3 -0.002260 -0.003798 0.009349 0.000000 0.000000 0.000000
# 4 0.000000 0.000000 0.000000 0.038241 0.000000 0.000000
# 5 0.000000 0.000000 0.000000 0.000000 0.048099 0.000000
# 6 0.000000 0.000000 0.000000 0.000000 0.000000 0.058715
#
#
# Mechanical properties :
#
#
# Convention : Reuss Voigt Hill
#
# Bulk Modulus (GPa) = 48.90202 52.88861 50.89532
# Shear Modulus (GPa) = 22.91214 24.88676 23.89945
#
# Velocity S-wave (km/s) = 3.42855 3.57324 3.50164
# Velocity P-wave (km/s) = 6.38453 6.64517 6.51615
#
# Compressibility (1/GPa) = 0.02044905
#
# Stress axis : x y z
#
# Youngs Moduli (GPa) = 56.38365 61.28802 106.96516
#
# Poissons Ratio (x) = 0.33208 0.24170
# Poissons Ratio (y) = 0.30551 0.40625
# Poissons Ratio (z) = 0.12740 0.23277
#
# Static dielectric constant tensor:
#      x y z
#    x 1.688880 0.000000 0.000000 
#    y 0.000000 1.689570 0.000000 
#    z 0.000000 0.000000 1.699660 
# 
# From -- ./inp_files/40420.got.cif
#   From: 2010.05.17/outbox.cif.g08.bks.cpg/sg65_21_cif.got.tgz:40420.got - 2010.06.03 17:01:31.
