data_PCOD9491445
_publ_section_title
;
Structure prediction by ZEFSAII (Michael W. Deem and Ramdas Pophale) SiO2 
 PCOD9491445
Probable space group: C M M M
;
_chemical_formula_sum "Si O2"
_cell_formula_units_Z 72
_cell_length_a 24.958493
_cell_length_b 17.503844
_cell_length_c 8.073379
_cell_angle_alpha 90.000000
_cell_angle_beta 90.000000
_cell_angle_gamma 90.000000
_cell_volume 3527.013596
_symmetry_space_group_name_H-M "C M M M"
_symmetry_group_IT_number 65
_symmetry_cell_setting 'orthorhombic'
loop_
_space_group_symop_operation_xyz
x,y,z
-x,-y,z
x,-y,-z
-x,y,-z
-x,-y,-z
x,y,-z
-x,y,z
x,-y,z
1/2+x,1/2+y,z
1/2-x,1/2-y,z
1/2+x,1/2-y,-z
1/2-x,1/2+y,-z
1/2-x,1/2-y,-z
1/2+x,1/2+y,-z
1/2-x,1/2+y,z
1/2+x,1/2-y,z
loop_
_atom_site_type_symbol
_atom_site_label
_atom_site_fract_x
_atom_site_fract_y
_atom_site_fract_z
Si Si1 0.438804 0.413834 0.202318
Si Si2 0.561690 0.000000 0.698376
Si Si3 0.349759 0.702134 0.802158
Si Si4 0.235020 0.082916 0.304082
Si Si5 0.852547 0.623893 0.801036
O O1 0.500000 0.397537 0.250399
O O2 0.425186 0.500000 0.255525
O O3 0.397062 0.351768 0.264165
O O4 0.437346 0.413649 0.000000
O O5 0.595912 0.073768 0.754418
O O6 0.500000 0.000000 0.758996
O O7 0.560503 0.000000 0.500000
O O8 0.295252 0.655861 0.769629
O O9 0.353589 0.788475 0.739463
O O10 0.356052 0.707296 0.000000
O O11 0.225919 0.084266 0.500000
O O12 0.298069 0.088342 0.269503
O O13 0.215579 0.000000 0.238017
O O14 0.848078 0.623461 0.000000
#
# Coordination Sequence:
#
# PCOD9491445 Si02
#       5
#    16   8  16  16  16
#     4   8  14  27  49  77 110 147 184 226 280 339
#     4  11  25  45  67  89 117 159 206 249 302 367
#     4  10  21  35  56  88 119 150 194 247 301 357
#     4  11  23  38  58  84 118 160 200 240 296 362
#     4  11  23  39  61  88 117 151 195 250 306 357
#
# _framework density 20.413869999999999
#
# number of rings (size 3 to 8) (size 9 to 14) (size 15 to 20)
#    0.000    1.889    1.111    3.667    0.000    8.444 
#    0.000    2.222    0.000    0.667    0.000    3.111 
#    0.000    0.000    0.000    0.000    0.000    0.000 
#
# Total GULP energy -201057.611164 kJ/mol
# GULP energy per Si atom -5584.933643 kJ/mol
# Density = 2.036741 g / cm^3
# Si number density = 20.413870 Si / 1000 Ang^3
#
#
#
# Elastic Constant Matrix: (Units=GPa)
#
#
# Indices 1 2 3 4 5 6 
#
# 1 109.3231 71.4834 -16.9587 0.0000 0.0000 0.0000
# 2 71.4834 170.0178 5.3018 0.0000 0.0000 0.0000
# 3 -16.9587 5.3018 13.2588 0.0000 0.0000 0.0000
# 4 0.0000 0.0000 0.0000 -3.7602 0.0000 0.0000
# 5 0.0000 0.0000 0.0000 0.0000 6.2032 0.0000
# 6 0.0000 0.0000 0.0000 0.0000 0.0000 -2.3271
#
#
#
# Elastic Compliance Matrix: (Units=1/GPa)
#
#
# Indices 1 2 3 4 5 6 
#
# 1 0.019551 -0.009113 0.028651 0.000000 0.000000 0.000000
# 2 -0.009113 0.010204 -0.015737 0.000000 0.000000 0.000000
# 3 0.028651 -0.015737 0.118360 0.000000 0.000000 0.000000
# 4 0.000000 0.000000 0.000000 -0.265945 0.000000 0.000000
# 5 0.000000 0.000000 0.000000 0.000000 0.161207 0.000000
# 6 0.000000 0.000000 0.000000 0.000000 0.000000 -0.429726
#
#
# Mechanical properties :
#
#
# Convention : Reuss Voigt Hill
#
# Bulk Modulus (GPa) = 6.42197 45.80583 26.11390
# Shear Modulus (GPa) = -14.61799 15.54141 0.46171
#
# Velocity S-wave (km/s) = -2.67887 2.76219 0.47609
# Velocity P-wave (km/s) = 2.53293 5.71491 3.62246
#
# Compressibility (1/GPa) = 0.15571541
#
# Stress axis : x y z
#
# Youngs Moduli (GPa) = 51.14926 97.99910 8.44879
#
# Poissons Ratio (x) = 0.89311 -0.24206
# Poissons Ratio (y) = 0.46614 0.13296
# Poissons Ratio (z) = -1.46545 1.54220
#
# Static dielectric constant tensor:
#      x y z
#    x 1.709740 0.000000 0.000000 
#    y 0.000000 1.720740 0.000000 
#    z 0.000000 0.000000 1.722230 
# 
# From -- ./inp_files/7269.got.cif
#   From: 2010.05.17/outbox.cif.g08.bks.cpg/sg65_4_cif.got.tgz:7269.got - 2010.06.03 17:01:31.
