data_PCOD9491566
_publ_section_title
;
Structure prediction by ZEFSAII (Michael W. Deem and Ramdas Pophale) SiO2 
 PCOD9491566
Probable space group: C M M M
;
_chemical_formula_sum "Si O2"
_cell_formula_units_Z 88
_cell_length_a 9.108709
_cell_length_b 28.315843
_cell_length_c 18.589336
_cell_angle_alpha 90.000000
_cell_angle_beta 90.000000
_cell_angle_gamma 90.000000
_cell_volume 4794.575929
_symmetry_space_group_name_H-M "C M M M"
_symmetry_group_IT_number 65
_symmetry_cell_setting 'orthorhombic'
loop_
_space_group_symop_operation_xyz
x,y,z
-x,-y,z
x,-y,-z
-x,y,-z
-x,-y,-z
x,y,-z
-x,y,z
x,-y,z
1/2+x,1/2+y,z
1/2-x,1/2-y,z
1/2+x,1/2-y,-z
1/2-x,1/2+y,-z
1/2-x,1/2-y,-z
1/2+x,1/2+y,-z
1/2-x,1/2+y,z
1/2+x,1/2-y,z
loop_
_atom_site_type_symbol
_atom_site_label
_atom_site_fract_x
_atom_site_fract_y
_atom_site_fract_z
Si Si1 0.676807 0.698095 0.000000
Si Si2 0.323395 0.301453 0.157552
Si Si3 0.832339 0.057496 0.919453
Si Si4 0.175158 0.862795 0.297437
Si Si5 0.826079 0.300083 0.415060
Si Si6 0.829456 0.556338 0.774381
O O1 0.750000 0.750000 0.000000
O O2 0.716225 0.677406 0.078498
O O3 0.500000 0.702210 0.000000
O O4 0.500000 0.296044 0.159133
O O5 0.250000 0.250000 0.163444
O O6 0.282543 0.332949 0.225846
O O7 0.727157 0.069628 0.854160
O O8 0.000000 0.073837 0.905036
O O9 0.836735 0.000000 0.921298
O O10 0.790891 0.073006 0.000000
O O11 0.252557 0.839226 0.365362
O O12 0.232366 0.915162 0.281985
O O13 0.000000 0.861353 0.304937
O O14 0.804140 0.309410 0.500000
O O15 0.750000 0.250000 0.398365
O O16 0.000000 0.296903 0.401445
O O17 0.812833 0.500000 0.766911
O O18 0.000000 0.568450 0.766240
#
# Coordination Sequence:
#
# PCOD9491566 Si02
#       6
#     8  16  16  16  16  16
#     4   8  14  28  46  64  93 132 173 213 254 301
#     4   9  18  31  49  73 101 136 175 216 262 313
#     4   8  14  27  48  71  95 128 173 226 283 337
#     4  11  22  35  54  82 111 143 184 227 276 330
#     4  10  21  38  61  89 120 151 180 215 266 327
#     4  10  21  36  53  74 104 143 186 234 286 335
#
# _framework density 18.354073
#
# number of rings (size 3 to 8) (size 9 to 14) (size 15 to 20)
#    0.000    2.545    0.000    2.727    0.000    5.455 
#    1.636    1.818    0.000    0.545    0.000    3.818 
#    0.000    0.000    0.000    0.000    0.000    0.000 
#
# Total GULP energy -245571.924635 kJ/mol
# GULP energy per Si atom -5581.180105 kJ/mol
# Density = 1.831230 g / cm^3
# Si number density = 18.354073 Si / 1000 Ang^3
#
#
#
# Elastic Constant Matrix: (Units=GPa)
#
#
# Indices 1 2 3 4 5 6 
#
# 1 67.8172 37.1531 53.8422 0.0000 0.0000 0.0000
# 2 37.1531 46.7917 31.9046 0.0000 0.0000 0.0000
# 3 53.8422 31.9046 67.0069 0.0000 0.0000 0.0000
# 4 0.0000 0.0000 0.0000 29.6067 0.0000 0.0000
# 5 0.0000 0.0000 0.0000 0.0000 31.8974 0.0000
# 6 0.0000 0.0000 0.0000 0.0000 0.0000 24.6561
#
#
#
# Elastic Compliance Matrix: (Units=1/GPa)
#
#
# Indices 1 2 3 4 5 6 
#
# 1 0.049125 -0.017904 -0.030949 0.000000 0.000000 0.000000
# 2 -0.017904 0.038170 -0.003788 0.000000 0.000000 0.000000
# 3 -0.030949 -0.003788 0.041596 0.000000 0.000000 0.000000
# 4 0.000000 0.000000 0.000000 0.033776 0.000000 0.000000
# 5 0.000000 0.000000 0.000000 0.000000 0.031351 0.000000
# 6 0.000000 0.000000 0.000000 0.000000 0.000000 0.040558
#
#
# Mechanical properties :
#
#
# Convention : Reuss Voigt Hill
#
# Bulk Modulus (GPa) = 42.35550 47.49059 44.92305
# Shear Modulus (GPa) = 14.37908 21.14644 17.76276
#
# Velocity S-wave (km/s) = 2.80201 3.39800 3.11430
# Velocity P-wave (km/s) = 5.79615 6.42853 6.12052
#
# Compressibility (1/GPa) = 0.02360968
#
# Stress axis : x y z
#
# Youngs Moduli (GPa) = 20.35605 26.19875 24.04069
#
# Poissons Ratio (x) = 0.46905 0.74404
# Poissons Ratio (y) = 0.36445 0.09107
# Poissons Ratio (z) = 0.63000 0.09924
#
# Static dielectric constant tensor:
#      x y z
#    x 1.610070 0.000000 0.000000 
#    y 0.000000 1.664260 0.000000 
#    z 0.000000 0.000000 1.634320 
# 
# From -- ./inp_files/50416.got.cif
#   From: 2010.05.17/outbox.cif.g08.bks.cpg/sg65_26_cif.got.tgz:50416.got - 2010.06.03 17:01:31.
