data_PCOD9491526
_publ_section_title
;
Structure prediction by ZEFSAII (Michael W. Deem and Ramdas Pophale) SiO2 
 PCOD9491526
Probable space group: C M M M
;
_chemical_formula_sum "Si O2"
_cell_formula_units_Z 104
_cell_length_a 15.810598
_cell_length_b 14.819645
_cell_length_c 23.775281
_cell_angle_alpha 90.000000
_cell_angle_beta 90.000000
_cell_angle_gamma 90.000000
_cell_volume 5570.725455
_symmetry_space_group_name_H-M "C M M M"
_symmetry_group_IT_number 65
_symmetry_cell_setting 'orthorhombic'
loop_
_space_group_symop_operation_xyz
x,y,z
-x,-y,z
x,-y,-z
-x,y,-z
-x,-y,-z
x,y,-z
-x,y,z
x,-y,z
1/2+x,1/2+y,z
1/2-x,1/2-y,z
1/2+x,1/2-y,-z
1/2-x,1/2+y,-z
1/2-x,1/2-y,-z
1/2+x,1/2+y,-z
1/2-x,1/2+y,z
1/2+x,1/2-y,z
loop_
_atom_site_type_symbol
_atom_site_label
_atom_site_fract_x
_atom_site_fract_y
_atom_site_fract_z
Si Si1 0.396349 0.395828 0.876811
Si Si2 0.102902 0.205585 0.437676
Si Si3 0.335771 0.900073 0.718825
Si Si4 0.903098 0.229311 0.775207
Si Si5 0.902788 0.890353 0.000000
Si Si6 0.855758 0.896678 0.325257
Si Si7 0.901346 0.599052 0.596032
O O1 0.500000 0.396085 0.877872
O O2 0.371205 0.500000 0.866173
O O3 0.369688 0.330125 0.826954
O O4 0.366162 0.366278 0.939021
O O5 0.125239 0.173180 0.500000
O O6 0.135848 0.145235 0.386901
O O7 0.133897 0.309150 0.430088
O O8 0.000000 0.206759 0.433286
O O9 0.351939 0.818947 0.760896
O O10 0.241580 0.895403 0.694102
O O11 0.394380 0.890284 0.663510
O O12 0.349485 0.000000 0.743001
O O13 0.901793 0.166254 0.719948
O O14 0.000000 0.254841 0.787252
O O15 0.000000 0.858012 0.000000
O O16 0.905548 0.000000 0.000000
O O17 0.886051 0.000000 0.323914
O O18 0.863704 0.500000 0.582097
O O19 0.000000 0.595668 0.579936
#
# Coordination Sequence:
#
# PCOD9491526 Si02
#       7
#    16  16  16  16   8  16  16
#     4   8  14  24  41  71 107 140 172 206 249 300
#     4  10  21  36  55  79 102 128 164 205 256 313
#     4  10  21  36  53  72  97 130 168 210 254 299
#     4  11  20  31  52  79 104 131 167 210 254 300
#     4   7  10  20  38  62 102 145 171 201 247 294
#     4  11  23  37  52  72 101 135 167 202 249 305
#     4   9  17  32  54  76  97 124 161 205 251 297
#
# _framework density 18.669021999999998
#
# number of rings (size 3 to 8) (size 9 to 14) (size 15 to 20)
#    0.000    2.385    1.538    2.769    0.000    3.385 
#    0.000    3.846    0.000    2.769    0.000    2.692 
#    0.000    5.538    0.000    0.000    0.000    0.000 
#
# Total GULP energy -290028.573243 kJ/mol
# GULP energy per Si atom -5577.472562 kJ/mol
# Density = 1.862653 g / cm^3
# Si number density = 18.669022 Si / 1000 Ang^3
#
#
#
# Elastic Constant Matrix: (Units=GPa)
#
#
# Indices 1 2 3 4 5 6 
#
# 1 22.7397 18.5034 9.9259 0.0000 0.0000 0.0000
# 2 18.5034 131.4565 78.9970 0.0000 0.0000 0.0000
# 3 9.9259 78.9970 139.0024 0.0000 0.0000 0.0000
# 4 0.0000 0.0000 0.0000 25.3569 0.0000 0.0000
# 5 0.0000 0.0000 0.0000 0.0000 2.7075 0.0000
# 6 0.0000 0.0000 0.0000 0.0000 0.0000 26.2861
#
#
#
# Elastic Compliance Matrix: (Units=1/GPa)
#
#
# Indices 1 2 3 4 5 6 
#
# 1 0.049703 -0.007385 0.000648 0.000000 0.000000 0.000000
# 2 -0.007385 0.012650 -0.006662 0.000000 0.000000 0.000000
# 3 0.000648 -0.006662 0.010934 0.000000 0.000000 0.000000
# 4 0.000000 0.000000 0.000000 0.039437 0.000000 0.000000
# 5 0.000000 0.000000 0.000000 0.000000 0.369348 0.000000
# 6 0.000000 0.000000 0.000000 0.000000 0.000000 0.038043
#
#
# Mechanical properties :
#
#
# Convention : Reuss Voigt Hill
#
# Bulk Modulus (GPa) = 21.51086 56.45013 38.98050
# Shear Modulus (GPa) = 8.89034 23.25492 16.07263
#
# Velocity S-wave (km/s) = 2.18459 3.53319 2.93734
# Velocity P-wave (km/s) = 4.23208 6.85183 5.69465
#
# Compressibility (1/GPa) = 0.04648814
#
# Stress axis : x y z
#
# Youngs Moduli (GPa) = 20.11967 79.05185 91.45939
#
# Poissons Ratio (x) = 0.58383 -0.05927
# Poissons Ratio (y) = 0.14859 0.60928
# Poissons Ratio (z) = -0.01304 0.52662
#
# Static dielectric constant tensor:
#      x y z
#    x 1.688210 0.000000 0.000000 
#    y 0.000000 1.658440 0.000000 
#    z 0.000000 0.000000 1.652820 
# 
# From -- ./inp_files/70552.got.cif
#   From: 2010.05.17/outbox.cif.g08.bks.cpg/sg65_36_cif.got.tgz:70552.got - 2010.06.03 17:01:31.
