data_PCOD9491539
_publ_section_title
;
Structure prediction by ZEFSAII (Michael W. Deem and Ramdas Pophale) SiO2 
 PCOD9491539
Probable space group: C M M M
;
_chemical_formula_sum "Si O2"
_cell_formula_units_Z 104
_cell_length_a 13.992058
_cell_length_b 15.350244
_cell_length_c 24.263230
_cell_angle_alpha 90.000000
_cell_angle_beta 90.000000
_cell_angle_gamma 90.000000
_cell_volume 5211.293040
_symmetry_space_group_name_H-M "C M M M"
_symmetry_group_IT_number 65
_symmetry_cell_setting 'orthorhombic'
loop_
_space_group_symop_operation_xyz
x,y,z
-x,-y,z
x,-y,-z
-x,y,-z
-x,-y,-z
x,y,-z
-x,y,z
x,-y,z
1/2+x,1/2+y,z
1/2-x,1/2-y,z
1/2+x,1/2-y,-z
1/2-x,1/2+y,-z
1/2-x,1/2-y,-z
1/2+x,1/2+y,-z
1/2-x,1/2+y,z
1/2+x,1/2-y,z
loop_
_atom_site_type_symbol
_atom_site_label
_atom_site_fract_x
_atom_site_fract_y
_atom_site_fract_z
Si Si1 0.883327 0.217496 0.223474
Si Si2 0.883062 0.100777 0.120472
Si Si3 0.390242 0.605878 0.000000
Si Si4 0.103694 0.601140 0.384810
Si Si5 0.615010 0.600152 0.672409
Si Si6 0.283721 0.650629 0.440001
Si Si7 0.883345 0.399871 0.263154
O O1 0.854265 0.164521 0.169337
O O2 0.854052 0.163702 0.278167
O O3 0.853435 0.318841 0.225207
O O4 0.000000 0.217572 0.224205
O O5 0.848004 0.129083 0.059575
O O6 0.000000 0.100415 0.118349
O O7 0.855045 0.000000 0.131046
O O8 0.393657 0.500000 0.000000
O O9 0.500000 0.637597 0.000000
O O10 0.090522 0.500000 0.373294
O O11 0.181761 0.605394 0.431530
O O12 0.140642 0.632687 0.325472
O O13 0.000000 0.641053 0.397986
O O14 0.500000 0.601578 0.671533
O O15 0.645694 0.500000 0.682869
O O16 0.652400 0.627637 0.612356
O O17 0.326261 0.631194 0.500000
O O18 0.250000 0.750000 0.437564
O O19 0.850785 0.500000 0.252438
O O20 0.000000 0.403391 0.262293
#
# Coordination Sequence:
#
# PCOD9491539 Si02
#       7
#    16  16   8  16  16  16  16
#     4   9  15  24  41  63  87 118 157 198 236 279
#     4   8  12  18  30  51  80 114 153 194 234 277
#     4   7  10  16  26  44  75 113 150 191 235 275
#     4   9  18  34  55  74  91 114 148 196 251 298
#     4  10  21  36  53  73  99 132 167 203 246 298
#     4  11  24  38  52  72  97 127 163 201 243 294
#     4   8  14  25  42  64  87 111 142 184 239 295
#
# _framework density 19.956659999999999
#
# number of rings (size 3 to 8) (size 9 to 14) (size 15 to 20)
#    0.000    3.000    0.000    3.692    0.000    5.538 
#    0.000    3.077    0.000    0.000    0.000    0.538 
#    0.000    4.308    0.000    6.231    0.000   34.077 
#
# Total GULP energy -289750.804484 kJ/mol
# GULP energy per Si atom -5572.130855 kJ/mol
# Density = 1.991124 g / cm^3
# Si number density = 19.956660 Si / 1000 Ang^3
#
#
#
# Elastic Constant Matrix: (Units=GPa)
#
#
# Indices 1 2 3 4 5 6 
#
# 1 40.2313 10.6188 24.2731 0.0000 0.0000 0.0000
# 2 10.6188 114.5078 78.1855 0.0000 0.0000 0.0000
# 3 24.2731 78.1855 153.7120 0.0000 0.0000 0.0000
# 4 0.0000 0.0000 0.0000 27.0941 0.0000 0.0000
# 5 0.0000 0.0000 0.0000 0.0000 14.2374 0.0000
# 6 0.0000 0.0000 0.0000 0.0000 0.0000 4.5396
#
#
#
# Elastic Compliance Matrix: (Units=1/GPa)
#
#
# Indices 1 2 3 4 5 6 
#
# 1 0.027504 0.000636 -0.004667 0.000000 0.000000 0.000000
# 2 0.000636 0.013395 -0.006914 0.000000 0.000000 0.000000
# 3 -0.004667 -0.006914 0.010759 0.000000 0.000000 0.000000
# 4 0.000000 0.000000 0.000000 0.036908 0.000000 0.000000
# 5 0.000000 0.000000 0.000000 0.000000 0.070238 0.000000
# 6 0.000000 0.000000 0.000000 0.000000 0.000000 0.220283
#
#
# Mechanical properties :
#
#
# Convention : Reuss Voigt Hill
#
# Bulk Modulus (GPa) = 33.59199 59.40065 46.49632
# Shear Modulus (GPa) = 12.16845 22.19913 17.18379
#
# Velocity S-wave (km/s) = 2.47198 3.33884 2.93756
# Velocity P-wave (km/s) = 5.00166 6.68530 5.90380
#
# Compressibility (1/GPa) = 0.02976900
#
# Stress axis : x y z
#
# Youngs Moduli (GPa) = 36.35835 74.65679 92.94387
#
# Poissons Ratio (x) = -0.04747 0.43373
# Poissons Ratio (y) = -0.02312 0.64257
# Poissons Ratio (z) = 0.16967 0.51615
#
# Static dielectric constant tensor:
#      x y z
#    x 1.740600 0.000000 0.000000 
#    y 0.000000 1.701250 0.000000 
#    z 0.000000 0.000000 1.717780 
# 
# From -- ./inp_files/70061.got.cif
#   From: 2010.05.17/outbox.cif.g08.bks.cpg/sg65_36_cif.got.tgz:70061.got - 2010.06.03 17:01:31.
