data_PCOD9491023
_publ_section_title
;
Structure prediction by ZEFSAII (Michael W. Deem and Ramdas Pophale) SiO2 
 PCOD9491023
Probable space group: C M M M
;
_chemical_formula_sum "Si O2"
_cell_formula_units_Z 104
_cell_length_a 27.347473
_cell_length_b 21.530006
_cell_length_c 10.102456
_cell_angle_alpha 90.000000
_cell_angle_beta 90.000000
_cell_angle_gamma 90.000000
_cell_volume 5948.237775
_symmetry_space_group_name_H-M "C M M M"
_symmetry_group_IT_number 65
_symmetry_cell_setting 'orthorhombic'
loop_
_space_group_symop_operation_xyz
x,y,z
-x,-y,z
x,-y,-z
-x,y,-z
-x,-y,-z
x,y,-z
-x,y,z
x,-y,z
1/2+x,1/2+y,z
1/2-x,1/2-y,z
1/2+x,1/2-y,-z
1/2-x,1/2+y,-z
1/2-x,1/2-y,-z
1/2+x,1/2+y,-z
1/2-x,1/2+y,z
1/2+x,1/2-y,z
loop_
_atom_site_type_symbol
_atom_site_label
_atom_site_fract_x
_atom_site_fract_y
_atom_site_fract_z
Si Si1 0.794740 0.573826 0.341871
Si Si2 0.443171 0.925720 0.000000
Si Si3 0.056680 0.246732 0.842033
Si Si4 0.442054 0.070332 0.500000
Si Si5 0.606480 0.134563 0.253031
Si Si6 0.595356 0.608297 0.154424
Si Si7 0.058594 0.000000 0.654084
Si Si8 0.294991 0.426243 0.849789
O O1 0.790170 0.583507 0.500000
O O2 0.805991 0.500000 0.321688
O O3 0.837883 0.615947 0.282713
O O4 0.745208 0.587146 0.261040
O O5 0.414589 0.900503 0.125802
O O6 0.500000 0.904569 0.000000
O O7 0.443444 0.000000 0.000000
O O8 0.093003 0.293640 0.768452
O O9 0.071529 0.175314 0.822153
O O10 0.000000 0.257207 0.803068
O O11 0.060222 0.258808 0.000000
O O12 0.500000 0.066652 0.500000
O O13 0.423637 0.106877 0.625856
O O14 0.421764 0.000000 0.500000
O O15 0.576230 0.559193 0.261145
O O16 0.654187 0.609794 0.166020
O O17 0.584712 0.589986 0.000000
O O18 0.075844 0.000000 0.500000
O O19 0.000000 0.000000 0.651394
O O20 0.306935 0.500000 0.840985
O O21 0.276185 0.415402 0.000000
#
# Coordination Sequence:
#
# PCOD9491023 Si02
#       8
#    16   8  16   8  16  16   8  16
#     4  10  21  37  57  83 114 153 198 243 297 358
#     4  11  22  34  54  82 111 147 193 249 310 352
#     4  10  21  38  60  86 117 158 203 241 291 360
#     4  11  22  36  56  80 109 149 197 249 302 354
#     4  12  22  37  56  80 119 153 197 244 293 350
#     4  10  20  39  65  90 118 155 202 248 297 357
#     4  11  23  37  57  93 133 159 191 245 302 355
#     4   9  18  34  59  90 116 142 188 249 302 353
#
# _framework density 17.484169000000001
#
# number of rings (size 3 to 8) (size 9 to 14) (size 15 to 20)
#    0.000    1.615    2.308    3.462    1.077    3.077 
#    1.385    0.769    0.000    3.692    0.000    0.000 
#    0.000    0.000    0.000    0.000    0.000    0.000 
#
# Total GULP energy -290258.866574 kJ/mol
# GULP energy per Si atom -5581.901280 kJ/mol
# Density = 1.744437 g / cm^3
# Si number density = 17.484169 Si / 1000 Ang^3
#
#
#
# Elastic Constant Matrix: (Units=GPa)
#
#
# Indices 1 2 3 4 5 6 
#
# 1 81.9046 29.3607 44.2750 0.0000 0.0000 0.0000
# 2 29.3607 90.6592 52.8807 0.0000 0.0000 0.0000
# 3 44.2750 52.8807 129.4081 0.0000 0.0000 0.0000
# 4 0.0000 0.0000 0.0000 25.8026 0.0000 0.0000
# 5 0.0000 0.0000 0.0000 0.0000 33.2012 0.0000
# 6 0.0000 0.0000 0.0000 0.0000 0.0000 39.0762
#
#
#
# Elastic Compliance Matrix: (Units=1/GPa)
#
#
# Indices 1 2 3 4 5 6 
#
# 1 0.015404 -0.002514 -0.004243 0.000000 0.000000 0.000000
# 2 -0.002514 0.014892 -0.005226 0.000000 0.000000 0.000000
# 3 -0.004243 -0.005226 0.011315 0.000000 0.000000 0.000000
# 4 0.000000 0.000000 0.000000 0.038756 0.000000 0.000000
# 5 0.000000 0.000000 0.000000 0.000000 0.030119 0.000000
# 6 0.000000 0.000000 0.000000 0.000000 0.000000 0.025591
#
#
# Mechanical properties :
#
#
# Convention : Reuss Voigt Hill
#
# Bulk Modulus (GPa) = 56.66903 61.66718 59.16811
# Shear Modulus (GPa) = 30.13426 31.31304 30.72365
#
# Velocity S-wave (km/s) = 4.15603 4.23654 4.19648
# Velocity P-wave (km/s) = 7.45064 7.69921 7.57595
#
# Compressibility (1/GPa) = 0.01764632
#
# Stress axis : x y z
#
# Youngs Moduli (GPa) = 64.91773 67.14823 88.38209
#
# Poissons Ratio (x) = 0.16880 0.37501
# Poissons Ratio (y) = 0.16319 0.46184
# Poissons Ratio (z) = 0.27545 0.35088
#
# Static dielectric constant tensor:
#      x y z
#    x 1.590910 0.000000 0.000000 
#    y 0.000000 1.591490 0.000000 
#    z 0.000000 0.000000 1.578450 
# 
# From -- ./inp_files/16544.got.cif
#   From: 2010.05.17/outbox.cif.g08.bks.cpg/sg65_9_cif.got.tgz:16544.got - 2010.06.03 17:01:31.
