data_PCOD9491557
_publ_section_title
;
Structure prediction by ZEFSAII (Michael W. Deem and Ramdas Pophale) SiO2 
 PCOD9491557
Probable space group: C M M M
;
_chemical_formula_sum "Si O2"
_cell_formula_units_Z 104
_cell_length_a 33.144023
_cell_length_b 20.490342
_cell_length_c 9.207215
_cell_angle_alpha 90.000000
_cell_angle_beta 90.000000
_cell_angle_gamma 90.000000
_cell_volume 6252.917712
_symmetry_space_group_name_H-M "C M M M"
_symmetry_group_IT_number 65
_symmetry_cell_setting 'orthorhombic'
loop_
_space_group_symop_operation_xyz
x,y,z
-x,-y,z
x,-y,-z
-x,y,-z
-x,-y,-z
x,y,-z
-x,y,z
x,-y,z
1/2+x,1/2+y,z
1/2-x,1/2-y,z
1/2+x,1/2-y,-z
1/2-x,1/2+y,-z
1/2-x,1/2-y,-z
1/2+x,1/2+y,-z
1/2-x,1/2+y,z
1/2+x,1/2-y,z
loop_
_atom_site_type_symbol
_atom_site_label
_atom_site_fract_x
_atom_site_fract_y
_atom_site_fract_z
Si Si1 0.066394 0.653278 0.172891
Si Si2 0.134188 0.824737 0.671632
Si Si3 0.807207 0.075695 0.827132
Si Si4 0.221941 0.575407 0.326609
Si Si5 0.851178 0.672299 0.673041
Si Si6 0.000000 0.576820 0.336606
Si Si7 0.955002 0.787270 0.672511
O O1 0.111552 0.647253 0.232666
O O2 0.049428 0.722084 0.233058
O O3 0.038671 0.599870 0.248055
O O4 0.064534 0.651017 0.000000
O O5 0.139353 0.837320 0.500000
O O6 0.159845 0.875863 0.761928
O O7 0.149895 0.750507 0.698875
O O8 0.086043 0.826983 0.704109
O O9 0.763558 0.088579 0.756098
O O10 0.817319 0.000000 0.794439
O O11 0.804602 0.083103 0.000000
O O12 0.229145 0.578557 0.500000
O O13 0.209310 0.500000 0.293752
O O14 0.188260 0.629675 0.292394
O O15 0.859478 0.664240 0.500000
O O16 0.000000 0.500000 0.348327
O O17 0.000000 0.605705 0.500000
O O18 0.952373 0.770696 0.500000
O O19 0.000000 0.815734 0.696631
#
# Coordination Sequence:
#
# PCOD9491557 Si02
#       7
#    16  16  16  16  16   8  16
#     4  11  21  32  49  74 102 131 166 212 263 308
#     4   9  18  32  52  79 105 134 173 214 255 302
#     4  10  21  36  53  74 103 137 170 210 263 319
#     4   9  18  34  56  77  98 133 179 217 252 305
#     4   9  19  35  53  76 106 137 172 214 259 307
#     4  11  23  37  51  65  89 133 182 221 260 307
#     4   9  17  32  55  77 102 135 168 204 250 305
#
# _framework density 16.632235999999999
#
# number of rings (size 3 to 8) (size 9 to 14) (size 15 to 20)
#    0.000    2.385    0.769    3.000    0.000    5.846 
#    0.000    4.615    0.000    0.462    0.000    3.231 
#    0.000    0.000    0.000    0.000    0.000    0.000 
#
# Total GULP energy -289860.964092 kJ/mol
# GULP energy per Si atom -5574.249309 kJ/mol
# Density = 1.659438 g / cm^3
# Si number density = 16.632236 Si / 1000 Ang^3
#
#
#
# Elastic Constant Matrix: (Units=GPa)
#
#
# Indices 1 2 3 4 5 6 
#
# 1 153.8482 86.0373 75.4280 0.0000 0.0000 0.0000
# 2 86.0373 75.4225 57.9051 0.0000 0.0000 0.0000
# 3 75.4280 57.9051 78.5029 0.0000 0.0000 0.0000
# 4 0.0000 0.0000 0.0000 11.2912 0.0000 0.0000
# 5 0.0000 0.0000 0.0000 0.0000 -18.2915 0.0000
# 6 0.0000 0.0000 0.0000 0.0000 0.0000 41.5633
#
#
#
# Elastic Compliance Matrix: (Units=1/GPa)
#
#
# Indices 1 2 3 4 5 6 
#
# 1 0.018825 -0.017495 -0.005183 0.000000 0.000000 0.000000
# 2 -0.017495 0.046831 -0.017733 0.000000 0.000000 0.000000
# 3 -0.005183 -0.017733 0.030798 0.000000 0.000000 0.000000
# 4 0.000000 0.000000 0.000000 0.088564 0.000000 0.000000
# 5 0.000000 0.000000 0.000000 0.000000 -0.054670 0.000000
# 6 0.000000 0.000000 0.000000 0.000000 0.000000 0.024060
#
#
# Mechanical properties :
#
#
# Convention : Reuss Voigt Hill
#
# Bulk Modulus (GPa) = 63.97264 82.94605 73.45935
# Shear Modulus (GPa) = 20.79521 12.80614 16.80067
#
# Velocity S-wave (km/s) = 3.53979 2.77782 3.18170
# Velocity P-wave (km/s) = 7.43326 7.76320 7.60002
#
# Compressibility (1/GPa) = 0.01563168
#
# Stress axis : x y z
#
# Youngs Moduli (GPa) = 53.12160 21.35360 32.46923
#
# Poissons Ratio (x) = 0.37358 0.16828
# Poissons Ratio (y) = 0.92937 0.57578
# Poissons Ratio (z) = 0.27531 0.37867
#
# Static dielectric constant tensor:
#      x y z
#    x 1.569200 0.000000 0.000000 
#    y 0.000000 1.547150 0.000000 
#    z 0.000000 0.000000 1.547620 
# 
# From -- ./inp_files/18620.got.cif
#   From: 2010.05.17/outbox.cif.g08.bks.cpg/sg65_10_cif.got.tgz:18620.got - 2010.06.03 17:01:31.
