data_PCOD9491166
_publ_section_title
;
Structure prediction by ZEFSAII (Michael W. Deem and Ramdas Pophale) SiO2 
 PCOD9491166
Probable space group: C M M M
;
_chemical_formula_sum "Si O2"
_cell_formula_units_Z 112
_cell_length_a 26.144834
_cell_length_b 14.315605
_cell_length_c 15.711028
_cell_angle_alpha 90.000000
_cell_angle_beta 90.000000
_cell_angle_gamma 90.000000
_cell_volume 5880.309677
_symmetry_space_group_name_H-M "C M M M"
_symmetry_group_IT_number 65
_symmetry_cell_setting 'orthorhombic'
loop_
_space_group_symop_operation_xyz
x,y,z
-x,-y,z
x,-y,-z
-x,y,-z
-x,-y,-z
x,y,-z
-x,y,z
x,-y,z
1/2+x,1/2+y,z
1/2-x,1/2-y,z
1/2+x,1/2-y,-z
1/2-x,1/2+y,-z
1/2-x,1/2-y,-z
1/2+x,1/2+y,-z
1/2-x,1/2+y,z
1/2+x,1/2-y,z
loop_
_atom_site_type_symbol
_atom_site_label
_atom_site_fract_x
_atom_site_fract_y
_atom_site_fract_z
Si Si1 0.240692 0.386206 0.903156
Si Si2 0.587054 0.715579 0.594660
Si Si3 0.442313 0.110034 0.691611
Si Si4 0.642517 0.386226 0.097507
Si Si5 0.304665 0.201423 0.594688
Si Si6 0.557821 0.387487 0.766292
Si Si7 0.838408 0.389588 0.235048
O O1 0.239604 0.500000 0.902761
O O2 0.298977 0.360969 0.879843
O O3 0.197903 0.350725 0.838374
O O4 0.230606 0.356580 0.000000
O O5 0.572267 0.684383 0.500000
O O6 0.566585 0.820654 0.612652
O O7 0.648665 0.724646 0.598968
O O8 0.567696 0.654210 0.672825
O O9 0.500000 0.122389 0.723345
O O10 0.397835 0.138768 0.757717
O O11 0.435583 0.000000 0.670540
O O12 0.640808 0.500000 0.096350
O O13 0.600712 0.355480 0.166269
O O14 0.632367 0.355625 0.000000
O O15 0.307761 0.157951 0.500000
O O16 0.250000 0.250000 0.602899
O O17 0.314317 0.133457 0.673247
O O18 0.500000 0.362552 0.793158
O O19 0.560770 0.500000 0.761400
O O20 0.839181 0.500000 0.222704
#
# Coordination Sequence:
#
# PCOD9491166 Si02
#       7
#    16  16  16  16  16  16  16
#     4   8  14  26  47  75 102 128 163 206 252 306
#     4  10  21  36  53  74 104 141 175 210 258 307
#     4   9  18  33  53  77 101 128 172 222 262 305
#     4   8  15  29  49  73 101 133 171 217 263 301
#     4   9  19  34  49  69  98 131 166 205 250 301
#     4  10  21  34  50  76 107 140 179 215 247 298
#     4   9  17  29  50  76  98 128 162 202 258 304
#
# _framework density 19.046614999999999
#
# number of rings (size 3 to 8) (size 9 to 14) (size 15 to 20)
#    0.000    3.000    0.000    1.286    2.000    2.286 
#    0.000    5.714    0.000    6.857    0.000    3.000 
#    0.000    0.000    0.000    0.000    0.000    0.143 
#
# Total GULP energy -312067.751541 kJ/mol
# GULP energy per Si atom -5572.638420 kJ/mol
# Density = 1.900326 g / cm^3
# Si number density = 19.046615 Si / 1000 Ang^3
#
#
#
# Elastic Constant Matrix: (Units=GPa)
#
#
# Indices 1 2 3 4 5 6 
#
# 1 164.3206 13.5115 91.2297 0.0000 0.0000 0.0000
# 2 13.5115 34.9128 11.7091 0.0000 0.0000 0.0000
# 3 91.2297 11.7091 116.4178 0.0000 0.0000 0.0000
# 4 0.0000 0.0000 0.0000 53.7162 0.0000 0.0000
# 5 0.0000 0.0000 0.0000 0.0000 14.7619 0.0000
# 6 0.0000 0.0000 0.0000 0.0000 0.0000 6.9917
#
#
#
# Elastic Compliance Matrix: (Units=1/GPa)
#
#
# Indices 1 2 3 4 5 6 
#
# 1 0.010838 -0.001393 -0.008353 0.000000 0.000000 0.000000
# 2 -0.001393 0.029822 -0.001908 0.000000 0.000000 0.000000
# 3 -0.008353 -0.001908 0.015327 0.000000 0.000000 0.000000
# 4 0.000000 0.000000 0.000000 0.018616 0.000000 0.000000
# 5 0.000000 0.000000 0.000000 0.000000 0.067742 0.000000
# 6 0.000000 0.000000 0.000000 0.000000 0.000000 0.143026
#
#
# Mechanical properties :
#
#
# Convention : Reuss Voigt Hill
#
# Bulk Modulus (GPa) = 30.60020 60.95020 45.77520
# Shear Modulus (GPa) = 15.64601 28.37404 22.01003
#
# Velocity S-wave (km/s) = 2.86922 3.86387 3.40308
# Velocity P-wave (km/s) = 5.20359 7.20944 6.28703
#
# Compressibility (1/GPa) = 0.03267953
#
# Stress axis : x y z
#
# Youngs Moduli (GPa) = 92.27208 33.53262 65.24394
#
# Poissons Ratio (x) = 0.04671 0.54496
# Poissons Ratio (y) = 0.12852 0.12448
# Poissons Ratio (z) = 0.77071 0.06398
#
# Static dielectric constant tensor:
#      x y z
#    x 1.685530 0.000000 0.000000 
#    y 0.000000 1.677520 0.000000 
#    z 0.000000 0.000000 1.651550 
# 
# From -- ./inp_files/47058.got.cif
#   From: 2010.05.17/outbox.cif.g08.bks.cpg/sg65_24_cif.got.tgz:47058.got - 2010.06.03 17:01:31.
