data_PCOD9491286
_publ_section_title
;
Structure prediction by ZEFSAII (Michael W. Deem and Ramdas Pophale) SiO2 
 PCOD9491286
Probable space group: C M M M
;
_chemical_formula_sum "Si O2"
_cell_formula_units_Z 88
_cell_length_a 19.220273
_cell_length_b 7.870770
_cell_length_c 29.724194
_cell_angle_alpha 90.000000
_cell_angle_beta 90.000000
_cell_angle_gamma 90.000000
_cell_volume 4496.626968
_symmetry_space_group_name_H-M "C M M M"
_symmetry_group_IT_number 65
_symmetry_cell_setting 'orthorhombic'
loop_
_space_group_symop_operation_xyz
x,y,z
-x,-y,z
x,-y,-z
-x,y,-z
-x,-y,-z
x,y,-z
-x,y,z
x,-y,z
1/2+x,1/2+y,z
1/2-x,1/2-y,z
1/2+x,1/2-y,-z
1/2-x,1/2+y,-z
1/2-x,1/2-y,-z
1/2+x,1/2+y,-z
1/2-x,1/2+y,z
1/2+x,1/2-y,z
loop_
_atom_site_type_symbol
_atom_site_label
_atom_site_fract_x
_atom_site_fract_y
_atom_site_fract_z
Si Si1 0.669263 0.704886 0.049823
Si Si2 0.420352 0.297603 0.500000
Si Si3 0.169142 0.294871 0.317883
Si Si4 0.420016 0.796472 0.597494
Si Si5 0.920409 0.795100 0.133574
Si Si6 0.920084 0.704324 0.766733
O O1 0.663558 0.500000 0.049506
O O2 0.750000 0.750000 0.055433
O O3 0.624844 0.769311 0.091875
O O4 0.647009 0.765763 0.000000
O O5 0.422728 0.500000 0.500000
O O6 0.500000 0.228742 0.500000
O O7 0.390385 0.241897 0.452138
O O8 0.164637 0.500000 0.317925
O O9 0.250000 0.250000 0.318295
O O10 0.127982 0.232299 0.362086
O O11 0.129298 0.232860 0.273145
O O12 0.500000 0.730605 0.600365
O O13 0.424057 0.000000 0.601687
O O14 0.894391 0.748223 0.183265
O O15 0.000000 0.733455 0.130164
O O16 0.921544 0.000000 0.131234
O O17 0.922846 0.500000 0.763519
O O18 0.000000 0.767478 0.762073
#
# Coordination Sequence:
#
# PCOD9491286 Si02
#       6
#    16   8  16  16  16  16
#     4   9  18  32  49  69  95 128 163 198 237 283
#     4   9  17  29  48  77 106 127 155 199 246 287
#     4  10  21  35  51  73 100 129 162 200 241 286
#     4   9  17  32  54  75  96 127 166 202 236 280
#     4   9  18  32  50  73  98 123 156 199 244 288
#     4   9  18  34  54  73  95 126 163 200 239 285
#
# _framework density 19.570226000000002
#
# number of rings (size 3 to 8) (size 9 to 14) (size 15 to 20)
#    0.000    2.818    0.000    0.818    0.000    6.545 
#    0.000    5.909    0.000    5.455    0.000    5.091 
#    0.000    0.000    0.000    0.000    0.000    0.000 
#
# Total GULP energy -245339.535015 kJ/mol
# GULP energy per Si atom -5575.898523 kJ/mol
# Density = 1.952568 g / cm^3
# Si number density = 19.570226 Si / 1000 Ang^3
#
#
#
# Elastic Constant Matrix: (Units=GPa)
#
#
# Indices 1 2 3 4 5 6 
#
# 1 87.9970 4.5555 111.4457 0.0000 0.0000 0.0000
# 2 4.5555 20.0937 9.3255 0.0000 0.0000 0.0000
# 3 111.4457 9.3255 245.4681 0.0000 0.0000 0.0000
# 4 0.0000 0.0000 0.0000 19.6503 0.0000 0.0000
# 5 0.0000 0.0000 0.0000 0.0000 -40.4766 0.0000
# 6 0.0000 0.0000 0.0000 0.0000 0.0000 20.8367
#
#
#
# Elastic Compliance Matrix: (Units=1/GPa)
#
#
# Indices 1 2 3 4 5 6 
#
# 1 0.026742 -0.000436 -0.012125 0.000000 0.000000 0.000000
# 2 -0.000436 0.050667 -0.001727 0.000000 0.000000 0.000000
# 3 -0.012125 -0.001727 0.009644 0.000000 0.000000 0.000000
# 4 0.000000 0.000000 0.000000 0.050890 0.000000 0.000000
# 5 0.000000 0.000000 0.000000 0.000000 -0.024706 0.000000
# 6 0.000000 0.000000 0.000000 0.000000 0.000000 0.047992
#
#
# Mechanical properties :
#
#
# Convention : Reuss Voigt Hill
#
# Bulk Modulus (GPa) = 17.10028 67.13469 42.11748
# Shear Modulus (GPa) = 23.88938 15.21757 19.55348
#
# Velocity S-wave (km/s) = 3.49764 2.79155 3.16435
# Velocity P-wave (km/s) = 5.00682 6.69099 5.90921
#
# Compressibility (1/GPa) = 0.05847857
#
# Stress axis : x y z
#
# Youngs Moduli (GPa) = 37.39395 19.73665 103.68845
#
# Poissons Ratio (x) = 0.00860 1.25720
# Poissons Ratio (y) = 0.01629 0.17907
# Poissons Ratio (z) = 0.45339 0.03409
#
# Static dielectric constant tensor:
#      x y z
#    x 1.659260 0.000000 0.000000 
#    y 0.000000 1.714250 0.000000 
#    z 0.000000 0.000000 1.703560 
# 
# From -- ./inp_files/77835.got.cif
#   From: 2010.05.17/outbox.cif.g08.bks.cpg/sg65_39_cif.got.tgz:77835.got - 2010.06.03 17:01:31.
