data_PCOD9491645
_publ_section_title
;
Structure prediction by ZEFSAII (Michael W. Deem and Ramdas Pophale) SiO2 
 PCOD9491645
Probable space group: C M M M
;
_chemical_formula_sum "Si O2"
_cell_formula_units_Z 88
_cell_length_a 10.030201
_cell_length_b 20.871444
_cell_length_c 22.067116
_cell_angle_alpha 90.000000
_cell_angle_beta 90.000000
_cell_angle_gamma 90.000000
_cell_volume 4619.635511
_symmetry_space_group_name_H-M "C M M M"
_symmetry_group_IT_number 65
_symmetry_cell_setting 'orthorhombic'
loop_
_space_group_symop_operation_xyz
x,y,z
-x,-y,z
x,-y,-z
-x,y,-z
-x,-y,-z
x,y,-z
-x,y,z
x,-y,z
1/2+x,1/2+y,z
1/2-x,1/2-y,z
1/2+x,1/2-y,-z
1/2-x,1/2+y,-z
1/2-x,1/2-y,-z
1/2+x,1/2+y,-z
1/2-x,1/2+y,z
1/2+x,1/2-y,z
loop_
_atom_site_type_symbol
_atom_site_label
_atom_site_fract_x
_atom_site_fract_y
_atom_site_fract_z
Si Si1 0.849687 0.887272 0.792113
Si Si2 0.660756 0.574961 0.000000
Si Si3 0.157002 0.189137 0.909309
Si Si4 0.344036 0.000000 0.775078
Si Si5 0.654249 0.393504 0.428268
Si Si6 0.842442 0.500000 0.628532
Si Si7 0.147024 0.197134 0.677262
O O1 0.832912 0.828633 0.838461
O O2 0.844524 0.861861 0.723548
O O3 0.000000 0.913460 0.803020
O O4 0.735075 0.938893 0.799911
O O5 0.694713 0.622564 0.056208
O O6 0.709696 0.500000 0.000000
O O7 0.500000 0.569668 0.000000
O O8 0.250000 0.250000 0.924294
O O9 0.000000 0.202334 0.923142
O O10 0.500000 0.000000 0.789952
O O11 0.331085 0.000000 0.701576
O O12 0.671712 0.386973 0.500000
O O13 0.500000 0.416022 0.417830
O O14 0.763634 0.440486 0.400347
O O15 0.667126 0.328303 0.390498
O O16 0.000000 0.500000 0.613864
O O17 0.250000 0.250000 0.695143
O O18 0.000000 0.224871 0.682636
#
# Coordination Sequence:
#
# PCOD9491645 Si02
#       7
#    16   8  16   8  16   8  16
#     4  10  21  37  59  85 112 150 194 232 281 346
#     4   9  19  36  59  91 126 161 204 248 287 338
#     4  10  21  37  62  91 121 161 202 244 292 344
#     4  11  23  36  56  86 117 148 182 235 298 346
#     4  10  21  37  56  77 104 142 183 222 272 337
#     4  11  22  36  55  82 109 137 175 225 284 337
#     4  10  21  36  54  77 106 140 182 230 277 330
#
# _framework density 19.049121
#
# number of rings (size 3 to 8) (size 9 to 14) (size 15 to 20)
#    0.000    1.909    1.818    1.636    1.273    4.727 
#    0.000    0.000    0.000    0.545    0.000    0.000 
#    0.000    0.000    0.000    0.000    0.000    0.000 
#
# Total GULP energy -245307.155571 kJ/mol
# GULP energy per Si atom -5575.162627 kJ/mol
# Density = 1.900576 g / cm^3
# Si number density = 19.049121 Si / 1000 Ang^3
#
#
#
# Elastic Constant Matrix: (Units=GPa)
#
#
# Indices 1 2 3 4 5 6 
#
# 1 120.6567 70.1155 21.6714 0.0000 0.0000 0.0000
# 2 70.1155 97.4922 18.6274 0.0000 0.0000 0.0000
# 3 21.6714 18.6274 66.0719 0.0000 0.0000 0.0000
# 4 0.0000 0.0000 0.0000 0.2720 0.0000 0.0000
# 5 0.0000 0.0000 0.0000 0.0000 14.9018 0.0000
# 6 0.0000 0.0000 0.0000 0.0000 0.0000 26.5762
#
#
#
# Elastic Compliance Matrix: (Units=1/GPa)
#
#
# Indices 1 2 3 4 5 6 
#
# 1 0.014464 -0.010037 -0.001915 0.000000 0.000000 0.000000
# 2 -0.010037 0.017806 -0.001728 0.000000 0.000000 0.000000
# 3 -0.001915 -0.001728 0.016250 0.000000 0.000000 0.000000
# 4 0.000000 0.000000 0.000000 3.676279 0.000000 0.000000
# 5 0.000000 0.000000 0.000000 0.000000 0.067106 0.000000
# 6 0.000000 0.000000 0.000000 0.000000 0.000000 0.037628
#
#
# Mechanical properties :
#
#
# Convention : Reuss Voigt Hill
#
# Bulk Modulus (GPa) = 47.25530 56.11659 51.68594
# Shear Modulus (GPa) = 1.29401 19.93710 10.61556
#
# Velocity S-wave (km/s) = 0.82509 3.23865 2.36322
# Velocity P-wave (km/s) = 5.07628 6.59606 5.88543
#
# Compressibility (1/GPa) = 0.02116165
#
# Stress axis : x y z
#
# Youngs Moduli (GPa) = 69.13494 56.16143 61.53791
#
# Poissons Ratio (x) = 0.56369 0.11782
# Poissons Ratio (y) = 0.69390 0.10633
# Poissons Ratio (z) = 0.13237 0.09704
#
# Static dielectric constant tensor:
#      x y z
#    x 1.643060 0.000000 0.000000 
#    y 0.000000 1.662230 0.000000 
#    z 0.000000 0.000000 1.695890 
# 
# From -- ./inp_files/59925.got.cif
#   From: 2010.05.17/outbox.cif.g08.bks.cpg/sg65_30_cif.got.tgz:59925.got - 2010.06.03 17:01:31.
