data_PCOD9491500
_publ_section_title
;
Structure prediction by ZEFSAII (Michael W. Deem and Ramdas Pophale) SiO2 
 PCOD9491500
Probable space group: C M M M
;
_chemical_formula_sum "Si O2"
_cell_formula_units_Z 104
_cell_length_a 20.689820
_cell_length_b 8.351090
_cell_length_c 33.884940
_cell_angle_alpha 90.000000
_cell_angle_beta 90.000000
_cell_angle_gamma 90.000000
_cell_volume 5854.726303
_symmetry_space_group_name_H-M "C M M M"
_symmetry_group_IT_number 65
_symmetry_cell_setting 'orthorhombic'
loop_
_space_group_symop_operation_xyz
x,y,z
-x,-y,z
x,-y,-z
-x,y,-z
-x,-y,-z
x,y,-z
-x,y,z
x,-y,z
1/2+x,1/2+y,z
1/2-x,1/2-y,z
1/2+x,1/2-y,-z
1/2-x,1/2+y,-z
1/2-x,1/2-y,-z
1/2+x,1/2+y,-z
1/2-x,1/2+y,z
1/2+x,1/2-y,z
loop_
_atom_site_type_symbol
_atom_site_label
_atom_site_fract_x
_atom_site_fract_y
_atom_site_fract_z
Si Si1 0.926233 0.193175 0.698595
Si Si2 0.921515 0.184307 0.000000
Si Si3 0.821627 0.691835 0.149174
Si Si4 0.074513 0.194048 0.086238
Si Si5 0.822083 0.193596 0.545072
Si Si6 0.178817 0.691115 0.760583
Si Si7 0.426129 0.304586 0.391194
O O1 0.875578 0.252339 0.730505
O O2 0.910276 0.244701 0.653703
O O3 0.000000 0.245025 0.707163
O O4 0.925747 0.000000 0.698832
O O5 0.904184 0.255159 0.957380
O O6 0.000000 0.179352 0.000000
O O7 0.898299 0.000000 0.000000
O O8 0.822064 0.500000 0.149017
O O9 0.750000 0.750000 0.137513
O O10 0.876537 0.752852 0.119833
O O11 0.832967 0.748512 0.194367
O O12 0.000000 0.244706 0.093499
O O13 0.073985 0.000000 0.084360
O O14 0.835968 0.245857 0.500000
O O15 0.750000 0.250000 0.555261
O O16 0.874925 0.251161 0.576457
O O17 0.822778 0.000000 0.545364
O O18 0.179420 0.500000 0.761281
O O19 0.250000 0.750000 0.748629
O O20 0.500000 0.255910 0.399869
O O21 0.425462 0.500000 0.391622
#
# Coordination Sequence:
#
# PCOD9491500 Si02
#       7
#    16   8  16  16  16  16  16
#     4   9  18  33  52  73  99 129 159 196 242 290
#     4   7  12  26  48  73 100 129 161 197 236 279
#     4  10  21  36  52  71  98 130 163 202 246 289
#     4   9  17  31  53  78 102 130 164 200 239 286
#     4   9  17  29  46  68  94 124 157 194 235 278
#     4  10  21  36  53  72  96 127 163 203 244 289
#     4   8  15  29  48  70  95 122 155 195 235 275
#
# _framework density 17.763425000000002
#
# number of rings (size 3 to 8) (size 9 to 14) (size 15 to 20)
#    0.000    3.000    0.000    2.769    0.000    4.000 
#    0.000    7.692    0.000    2.769    0.000    2.154 
#    0.000    0.000    0.000    0.000    0.000    0.000 
#
# Total GULP energy -289757.808982 kJ/mol
# GULP energy per Si atom -5572.265557 kJ/mol
# Density = 1.772300 g / cm^3
# Si number density = 17.763425 Si / 1000 Ang^3
#
#
#
# Elastic Constant Matrix: (Units=GPa)
#
#
# Indices 1 2 3 4 5 6 
#
# 1 146.3209 20.8326 129.3248 0.0000 0.0000 0.0000
# 2 20.8326 12.3128 20.6920 0.0000 0.0000 0.0000
# 3 129.3248 20.6920 146.3134 0.0000 0.0000 0.0000
# 4 0.0000 0.0000 0.0000 17.0728 0.0000 0.0000
# 5 0.0000 0.0000 0.0000 0.0000 89.4152 0.0000
# 6 0.0000 0.0000 0.0000 0.0000 0.0000 28.6252
#
#
#
# Elastic Compliance Matrix: (Units=1/GPa)
#
#
# Indices 1 2 3 4 5 6 
#
# 1 0.031925 -0.008650 -0.026995 0.000000 0.000000 0.000000
# 2 -0.008650 0.108880 -0.007752 0.000000 0.000000 0.000000
# 3 -0.026995 -0.007752 0.031792 0.000000 0.000000 0.000000
# 4 0.000000 0.000000 0.000000 0.058573 0.000000 0.000000
# 5 0.000000 0.000000 0.000000 0.000000 0.011184 0.000000
# 6 0.000000 0.000000 0.000000 0.000000 0.000000 0.034934
#
#
# Mechanical properties :
#
#
# Convention : Reuss Voigt Hill
#
# Bulk Modulus (GPa) = 11.65476 71.84954 41.75215
# Shear Modulus (GPa) = 12.73291 35.96248 24.34769
#
# Velocity S-wave (km/s) = 2.68023 4.50435 3.70626
# Velocity P-wave (km/s) = 4.01914 8.22120 6.47076
#
# Compressibility (1/GPa) = 0.08580184
#
# Stress axis : x y z
#
# Youngs Moduli (GPa) = 31.32312 9.18443 31.45476
#
# Poissons Ratio (x) = 0.07944 0.84912
# Poissons Ratio (y) = 0.27094 0.24385
# Poissons Ratio (z) = 0.84557 0.07120
#
# Static dielectric constant tensor:
#      x y z
#    x 1.572060 0.000000 0.000000 
#    y 0.000000 1.624390 0.000000 
#    z 0.000000 0.000000 1.623910 
# 
# From -- ./inp_files/78164.got.cif
#   From: 2010.05.17/outbox.cif.g08.bks.cpg/sg65_40_cif.got.tgz:78164.got - 2010.06.03 17:01:31.
