data_PCOD9491909
_publ_section_title
;
Structure prediction by ZEFSAII (Michael W. Deem and Ramdas Pophale) SiO2 
 PCOD9491909
Probable space group: C M M M
;
_chemical_formula_sum "Si O2"
_cell_formula_units_Z 68
_cell_length_a 26.809375
_cell_length_b 14.916501
_cell_length_c 7.553064
_cell_angle_alpha 90.000000
_cell_angle_beta 90.000000
_cell_angle_gamma 90.000000
_cell_volume 3020.485921
_symmetry_space_group_name_H-M "C M M M"
_symmetry_group_IT_number 65
_symmetry_cell_setting 'orthorhombic'
loop_
_space_group_symop_operation_xyz
x,y,z
-x,-y,z
x,-y,-z
-x,y,-z
-x,-y,-z
x,y,-z
-x,y,z
x,-y,z
1/2+x,1/2+y,z
1/2-x,1/2-y,z
1/2+x,1/2-y,-z
1/2-x,1/2+y,-z
1/2-x,1/2-y,-z
1/2+x,1/2+y,-z
1/2-x,1/2+y,z
1/2+x,1/2-y,z
loop_
_atom_site_type_symbol
_atom_site_label
_atom_site_fract_x
_atom_site_fract_y
_atom_site_fract_z
Si Si1 0.899281 0.895871 0.215551
Si Si2 0.500000 0.145940 0.500000
Si Si3 0.682826 0.889947 0.798949
Si Si4 0.500000 0.294143 0.213294
Si Si5 0.208575 0.106779 0.786064
Si Si6 0.387491 0.102700 0.500000
O O1 0.949403 0.845386 0.267480
O O2 0.845286 0.858620 0.275500
O O3 0.903106 0.000000 0.269113
O O4 0.898144 0.895030 0.000000
O O5 0.500000 0.203315 0.320842
O O6 0.446494 0.100252 0.500000
O O7 0.737085 0.860912 0.725840
O O8 0.637893 0.858790 0.675633
O O9 0.684007 0.000000 0.808696
O O10 0.676608 0.857483 0.000000
O O11 0.500000 0.284213 0.000000
O O12 0.206987 0.000000 0.748943
O O13 0.210458 0.116202 0.000000
O O14 0.369960 0.000000 0.500000
#
# Coordination Sequence:
#
# PCOD9491909 Si02
#       6
#    16   4  16   8  16   8
#     4   8  13  25  50  81 109 141 180 212 237 276
#     4  12  27  42  53  72 100 128 168 220 267 314
#     4   8  14  27  50  80 107 126 151 197 257 312
#     4  10  21  37  55  73 103 147 181 209 250 293
#     4   7  10  19  41  76 111 134 157 198 246 288
#     4  10  21  38  59  77  94 122 163 213 267 319
#
# _framework density 22.512934000000001
#
# number of rings (size 3 to 8) (size 9 to 14) (size 15 to 20)
#    0.000    3.529    0.000    3.353    0.000    2.353 
#    0.000    2.353    0.000    9.176    0.000    6.588 
#    0.000    0.000    0.000    0.000    0.000    0.000 
#
# Total GULP energy -189555.084320 kJ/mol
# GULP energy per Si atom -5575.149539 kJ/mol
# Density = 2.246169 g / cm^3
# Si number density = 22.512934 Si / 1000 Ang^3
#
#
#
# Elastic Constant Matrix: (Units=GPa)
#
#
# Indices 1 2 3 4 5 6 
#
# 1 205.6804 8.8266 62.7144 0.0000 0.0000 0.0000
# 2 8.8266 32.5415 14.9268 0.0000 0.0000 0.0000
# 3 62.7144 14.9268 78.6071 0.0000 0.0000 0.0000
# 4 0.0000 0.0000 0.0000 8.6497 0.0000 0.0000
# 5 0.0000 0.0000 0.0000 0.0000 27.3284 0.0000
# 6 0.0000 0.0000 0.0000 0.0000 0.0000 -159.3976
#
#
#
# Elastic Compliance Matrix: (Units=1/GPa)
#
#
# Indices 1 2 3 4 5 6 
#
# 1 0.006438 0.000668 -0.005263 0.000000 0.000000 0.000000
# 2 0.000668 0.033731 -0.006938 0.000000 0.000000 0.000000
# 3 -0.005263 -0.006938 0.018238 0.000000 0.000000 0.000000
# 4 0.000000 0.000000 0.000000 0.115611 0.000000 0.000000
# 5 0.000000 0.000000 0.000000 0.000000 0.036592 0.000000
# 6 0.000000 0.000000 0.000000 0.000000 0.000000 -0.006274
#
#
# Mechanical properties :
#
#
# Convention : Reuss Voigt Hill
#
# Bulk Modulus (GPa) = 28.29608 54.41828 41.35718
# Shear Modulus (GPa) = 20.90439 -9.32650 5.78895
#
# Velocity S-wave (km/s) = 3.05052 -2.03758 1.60529
# Velocity P-wave (km/s) = 5.00036 4.32306 4.67400
#
# Compressibility (1/GPa) = 0.03534058
#
# Stress axis : x y z
#
# Youngs Moduli (GPa) = 155.32571 29.64599 54.83003
#
# Poissons Ratio (x) = -0.01980 0.28859
# Poissons Ratio (y) = -0.10376 0.38042
# Poissons Ratio (z) = 0.81752 0.20569
#
# Static dielectric constant tensor:
#      x y z
#    x 1.844030 0.000000 0.000000 
#    y 0.000000 1.839000 0.000000 
#    z 0.000000 0.000000 1.809180 
# 
# From -- ./inp_files/13665.got.cif
#   From: 2010.05.17/outbox.cif.g08.bks.cpg/sg65_7_cif.got.tgz:13665.got - 2010.06.03 17:01:31.
