data_PCOD9491419
_publ_section_title
;
Structure prediction by ZEFSAII (Michael W. Deem and Ramdas Pophale) SiO2 
 PCOD9491419
Probable space group: C M M M
;
_chemical_formula_sum "Si O2"
_cell_formula_units_Z 88
_cell_length_a 18.591451
_cell_length_b 7.707395
_cell_length_c 31.298123
_cell_angle_alpha 90.000000
_cell_angle_beta 90.000000
_cell_angle_gamma 90.000000
_cell_volume 4484.759889
_symmetry_space_group_name_H-M "C M M M"
_symmetry_group_IT_number 65
_symmetry_cell_setting 'orthorhombic'
loop_
_space_group_symop_operation_xyz
x,y,z
-x,-y,z
x,-y,-z
-x,y,-z
-x,-y,-z
x,y,-z
-x,y,z
x,-y,z
1/2+x,1/2+y,z
1/2-x,1/2-y,z
1/2+x,1/2-y,-z
1/2-x,1/2+y,-z
1/2-x,1/2-y,-z
1/2+x,1/2+y,-z
1/2-x,1/2+y,z
1/2+x,1/2-y,z
loop_
_atom_site_type_symbol
_atom_site_label
_atom_site_fract_x
_atom_site_fract_y
_atom_site_fract_z
Si Si1 0.081295 0.792768 0.216247
Si Si2 0.166438 0.293783 0.130635
Si Si3 0.583535 0.788296 0.952313
Si Si4 0.665955 0.291746 0.299028
Si Si5 0.086282 0.795429 0.385389
Si Si6 0.412703 0.000000 0.548595
O O1 0.122705 0.764310 0.172113
O O2 0.126070 0.723373 0.256689
O O3 0.000000 0.723096 0.214673
O O4 0.076255 0.000000 0.221971
O O5 0.159830 0.500000 0.129023
O O6 0.250000 0.250000 0.134353
O O7 0.131980 0.224235 0.086648
O O8 0.500000 0.739589 0.945759
O O9 0.585520 0.000000 0.952436
O O10 0.605703 0.731738 0.000000
O O11 0.659297 0.500000 0.298545
O O12 0.750000 0.250000 0.298637
O O13 0.626922 0.235691 0.342560
O O14 0.107432 0.670978 0.424461
O O15 0.000000 0.780118 0.378798
O O16 0.101408 0.000000 0.393202
O O17 0.500000 0.000000 0.546801
O O18 0.385908 0.000000 0.500000
#
# Coordination Sequence:
#
# PCOD9491419 Si02
#       6
#    16  16  16  16  16   8
#     4  10  21  38  58  79 108 142 177 221 274 328
#     4  11  22  35  52  77 108 141 179 222 267 325
#     4   8  15  30  52  75  99 131 174 223 273 323
#     4  10  21  35  54  80 107 143 180 220 266 323
#     4   9  18  34  55  80 111 147 187 232 280 332
#     4   9  18  32  54  86 116 144 185 235 284 332
#
# _framework density 19.622008000000001
#
# number of rings (size 3 to 8) (size 9 to 14) (size 15 to 20)
#    0.000    2.455    0.000    2.727    1.273    6.182 
#    0.000    1.818    0.000    2.182    0.000    6.364 
#    0.000    0.000    0.000    0.000    0.000    0.000 
#
# Total GULP energy -245591.579166 kJ/mol
# GULP energy per Si atom -5581.626799 kJ/mol
# Density = 1.957735 g / cm^3
# Si number density = 19.622008 Si / 1000 Ang^3
#
#
#
# Elastic Constant Matrix: (Units=GPa)
#
#
# Indices 1 2 3 4 5 6 
#
# 1 120.4815 23.2822 107.2996 0.0000 0.0000 0.0000
# 2 23.2822 51.1300 42.7173 0.0000 0.0000 0.0000
# 3 107.2996 42.7173 220.2818 0.0000 0.0000 0.0000
# 4 0.0000 0.0000 0.0000 32.7080 0.0000 0.0000
# 5 0.0000 0.0000 0.0000 0.0000 -5.7305 0.0000
# 6 0.0000 0.0000 0.0000 0.0000 0.0000 10.9114
#
#
#
# Elastic Compliance Matrix: (Units=1/GPa)
#
#
# Indices 1 2 3 4 5 6 
#
# 1 0.014690 -0.000848 -0.006991 0.000000 0.000000 0.000000
# 2 -0.000848 0.023388 -0.004122 0.000000 0.000000 0.000000
# 3 -0.006991 -0.004122 0.008744 0.000000 0.000000 0.000000
# 4 0.000000 0.000000 0.000000 0.030574 0.000000 0.000000
# 5 0.000000 0.000000 0.000000 0.000000 -0.174504 0.000000
# 6 0.000000 0.000000 0.000000 0.000000 0.000000 0.091648
#
#
# Mechanical properties :
#
#
# Convention : Reuss Voigt Hill
#
# Bulk Modulus (GPa) = 43.66924 82.05463 62.86194
# Shear Modulus (GPa) = 191.59765 22.15072 106.87418
#
# Velocity S-wave (km/s) = 9.89223 3.36351 7.38815
# Velocity P-wave (km/s) = 12.36036 7.54935 10.24137
#
# Compressibility (1/GPa) = 0.02289942
#
# Stress axis : x y z
#
# Youngs Moduli (GPa) = 68.07278 42.75643 114.35898
#
# Poissons Ratio (x) = 0.03628 0.79949
# Poissons Ratio (y) = 0.05775 0.47141
# Poissons Ratio (z) = 0.47590 0.17625
#
# Static dielectric constant tensor:
#      x y z
#    x 1.658380 0.000000 0.000000 
#    y 0.000000 1.728480 0.000000 
#    z 0.000000 0.000000 1.682080 
# 
# From -- ./inp_files/77902.got.cif
#   From: 2010.05.17/outbox.cif.g08.bks.cpg/sg65_39_cif.got.tgz:77902.got - 2010.06.03 17:01:31.
