data_PCOD9491343
_publ_section_title
;
Structure prediction by ZEFSAII (Michael W. Deem and Ramdas Pophale) SiO2 
 PCOD9491343
Probable space group: C M M M
;
_chemical_formula_sum "Si O2"
_cell_formula_units_Z 104
_cell_length_a 28.126935
_cell_length_b 8.914661
_cell_length_c 23.827382
_cell_angle_alpha 90.000000
_cell_angle_beta 90.000000
_cell_angle_gamma 90.000000
_cell_volume 5974.527574
_symmetry_space_group_name_H-M "C M M M"
_symmetry_group_IT_number 65
_symmetry_cell_setting 'orthorhombic'
loop_
_space_group_symop_operation_xyz
x,y,z
-x,-y,z
x,-y,-z
-x,y,-z
-x,-y,-z
x,y,-z
-x,y,z
x,-y,z
1/2+x,1/2+y,z
1/2-x,1/2-y,z
1/2+x,1/2-y,-z
1/2-x,1/2+y,-z
1/2-x,1/2-y,-z
1/2+x,1/2+y,-z
1/2-x,1/2+y,z
1/2+x,1/2-y,z
loop_
_atom_site_type_symbol
_atom_site_label
_atom_site_fract_x
_atom_site_fract_y
_atom_site_fract_z
Si Si1 0.876608 0.179485 0.408616
Si Si2 0.443873 0.178668 0.500000
Si Si3 0.885897 0.175166 0.890257
Si Si4 0.944167 0.816681 0.000000
Si Si5 0.197562 0.319468 0.180348
Si Si6 0.699439 0.321663 0.500000
Si Si7 0.555908 0.671088 0.777198
Si Si8 0.635323 0.175913 0.712023
O O1 0.919789 0.251326 0.444201
O O2 0.830884 0.221027 0.445773
O O3 0.867079 0.237502 0.346389
O O4 0.882618 0.000000 0.408774
O O5 0.500000 0.207290 0.500000
O O6 0.435646 0.000000 0.500000
O O7 0.913494 0.229887 0.945569
O O8 0.839547 0.261428 0.867020
O O9 0.924311 0.180451 0.840152
O O10 0.872672 0.000000 0.898789
O O11 0.000000 0.768521 0.000000
O O12 0.945629 0.000000 0.000000
O O13 0.199905 0.500000 0.178300
O O14 0.250000 0.250000 0.174253
O O15 0.174340 0.276052 0.241056
O O16 0.703683 0.500000 0.500000
O O17 0.750000 0.250000 0.500000
O O18 0.500000 0.694115 0.775276
O O19 0.566287 0.500000 0.757214
O O20 0.585072 0.789455 0.741375
O O21 0.641836 0.000000 0.701679
#
# Coordination Sequence:
#
# PCOD9491343 Si02
#       8
#    16   8  16   8  16   8  16  16
#     4  10  21  37  55  77 105 135 170 210 252 305
#     4  10  21  37  57  79 104 138 178 218 262 309
#     4   9  17  31  52  78 108 139 174 216 259 307
#     4   9  16  28  52  85 114 141 176 217 260 309
#     4  10  21  37  56  77 103 137 177 220 267 317
#     4   9  20  36  54  76  99 126 158 194 241 294
#     4   9  17  30  49  73 102 137 172 206 249 301
#     4  10  21  35  52  76 103 132 168 212 260 307
#
# _framework density 17.407233000000002
#
# number of rings (size 3 to 8) (size 9 to 14) (size 15 to 20)
#    0.000    2.462    0.000    2.538    0.000    7.692 
#    0.000    3.846    0.000    1.846    0.000    0.000 
#    0.000    0.000    0.000    0.000    0.000    0.000 
#
# Total GULP energy -289846.658201 kJ/mol
# GULP energy per Si atom -5573.974196 kJ/mol
# Density = 1.736761 g / cm^3
# Si number density = 17.407233 Si / 1000 Ang^3
#
#
#
# Elastic Constant Matrix: (Units=GPa)
#
#
# Indices 1 2 3 4 5 6 
#
# 1 138.2555 50.1309 68.6517 0.0000 0.0000 0.0000
# 2 50.1309 46.9288 45.2890 0.0000 0.0000 0.0000
# 3 68.6517 45.2890 130.8812 0.0000 0.0000 0.0000
# 4 0.0000 0.0000 0.0000 12.5962 0.0000 0.0000
# 5 0.0000 0.0000 0.0000 0.0000 -2.2676 0.0000
# 6 0.0000 0.0000 0.0000 0.0000 0.0000 24.6612
#
#
#
# Elastic Compliance Matrix: (Units=1/GPa)
#
#
# Indices 1 2 3 4 5 6 
#
# 1 0.012502 -0.010549 -0.002907 0.000000 0.000000 0.000000
# 2 -0.010549 0.040894 -0.008617 0.000000 0.000000 0.000000
# 3 -0.002907 -0.008617 0.012147 0.000000 0.000000 0.000000
# 4 0.000000 0.000000 0.000000 0.079389 0.000000 0.000000
# 5 0.000000 0.000000 0.000000 0.000000 -0.440999 0.000000
# 6 0.000000 0.000000 0.000000 0.000000 0.000000 0.040550
#
#
# Mechanical properties :
#
#
# Convention : Reuss Voigt Hill
#
# Bulk Modulus (GPa) = 46.73815 71.57873 59.15844
# Shear Modulus (GPa) = -24.48121 17.13088 -3.67517
#
# Velocity S-wave (km/s) = -3.75424 3.14048 -1.45460
# Velocity P-wave (km/s) = 2.84880 7.37289 5.58906
#
# Compressibility (1/GPa) = 0.02139580
#
# Stress axis : x y z
#
# Youngs Moduli (GPa) = 79.98959 24.45358 82.32291
#
# Poissons Ratio (x) = 0.25796 0.23933
# Poissons Ratio (y) = 0.84381 0.70939
# Poissons Ratio (z) = 0.23255 0.21072
#
# Static dielectric constant tensor:
#      x y z
#    x 1.559020 0.000000 0.000000 
#    y 0.000000 1.600650 0.000000 
#    z 0.000000 0.000000 1.604880 
# 
# From -- ./inp_files/71932.got.cif
#   From: 2010.05.17/outbox.cif.g08.bks.cpg/sg65_36_cif.got.tgz:71932.got - 2010.06.03 17:01:31.
