data_PCOD9491048
_publ_section_title
;
Structure prediction by ZEFSAII (Michael W. Deem and Ramdas Pophale) SiO2 
 PCOD9491048
Probable space group: C M M M
;
_chemical_formula_sum "Si O2"
_cell_formula_units_Z 88
_cell_length_a 18.576169
_cell_length_b 7.754825
_cell_length_c 31.965487
_cell_angle_alpha 90.000000
_cell_angle_beta 90.000000
_cell_angle_gamma 90.000000
_cell_volume 4604.786304
_symmetry_space_group_name_H-M "C M M M"
_symmetry_group_IT_number 65
_symmetry_cell_setting 'orthorhombic'
loop_
_space_group_symop_operation_xyz
x,y,z
-x,-y,z
x,-y,-z
-x,y,-z
-x,-y,-z
x,y,-z
-x,y,z
x,-y,z
1/2+x,1/2+y,z
1/2-x,1/2-y,z
1/2+x,1/2-y,-z
1/2-x,1/2+y,-z
1/2-x,1/2-y,-z
1/2+x,1/2+y,-z
1/2-x,1/2+y,z
1/2+x,1/2-y,z
loop_
_atom_site_type_symbol
_atom_site_label
_atom_site_fract_x
_atom_site_fract_y
_atom_site_fract_z
Si Si1 0.666480 0.206546 0.195631
Si Si2 0.918183 0.293647 0.275790
Si Si3 0.335116 0.792590 0.898863
Si Si4 0.082025 0.203923 0.365462
Si Si5 0.585514 0.500000 0.049716
Si Si6 0.083706 0.293079 0.455014
O O1 0.750000 0.250000 0.200497
O O2 0.623129 0.275911 0.235382
O O3 0.643762 0.259096 0.148865
O O4 0.659766 0.000000 0.195836
O O5 0.921838 0.500000 0.271490
O O6 0.884437 0.260339 0.321475
O O7 0.000000 0.225269 0.276494
O O8 0.250000 0.750000 0.903010
O O9 0.378762 0.670338 0.930004
O O10 0.345286 0.000000 0.904370
O O11 0.116818 0.245704 0.410275
O O12 0.000000 0.280198 0.366192
O O13 0.076274 0.000000 0.363613
O O14 0.500000 0.500000 0.057449
O O15 0.597866 0.500000 0.000000
O O16 0.114300 0.233381 0.500000
O O17 0.082125 0.500000 0.456115
O O18 0.000000 0.231738 0.453978
#
# Coordination Sequence:
#
# PCOD9491048 Si02
#       6
#    16  16  16  16   8  16
#     4   9  19  33  55  80 106 138 176 223 271 318
#     4   9  17  30  46  66  94 130 169 204 247 309
#     4  10  20  40  66  92 121 159 207 252 297 356
#     4   9  16  24  34  53  83 115 150 196 247 298
#     4  11  26  44  62  94 133 163 201 253 307 357
#     4   8  13  21  33  48  68 103 150 193 238 294
#
# _framework density 19.110548999999999
#
# number of rings (size 3 to 8) (size 9 to 14) (size 15 to 20)
#    0.000    2.818    0.909    1.091    1.273    5.091 
#    0.000    4.545    0.000    0.000    0.000    0.000 
#    0.000    0.727    0.000    2.364    0.000    4.727 
#
# Total GULP energy -244957.527160 kJ/mol
# GULP energy per Si atom -5567.216526 kJ/mol
# Density = 1.906705 g / cm^3
# Si number density = 19.110549 Si / 1000 Ang^3
#
#
#
# Elastic Constant Matrix: (Units=GPa)
#
#
# Indices 1 2 3 4 5 6 
#
# 1 32.0679 18.7979 69.4547 0.0000 0.0000 0.0000
# 2 18.7979 70.1230 50.9144 0.0000 0.0000 0.0000
# 3 69.4547 50.9144 210.1507 0.0000 0.0000 0.0000
# 4 0.0000 0.0000 0.0000 -34.9885 0.0000 0.0000
# 5 0.0000 0.0000 0.0000 0.0000 -19.1300 0.0000
# 6 0.0000 0.0000 0.0000 0.0000 0.0000 13.3969
#
#
#
# Elastic Compliance Matrix: (Units=1/GPa)
#
#
# Indices 1 2 3 4 5 6 
#
# 1 0.110547 -0.003770 -0.035622 0.000000 0.000000 0.000000
# 2 -0.003770 0.017433 -0.002978 0.000000 0.000000 0.000000
# 3 -0.035622 -0.002978 0.017253 0.000000 0.000000 0.000000
# 4 0.000000 0.000000 0.000000 -0.028581 0.000000 0.000000
# 5 0.000000 0.000000 0.000000 0.000000 -0.052274 0.000000
# 6 0.000000 0.000000 0.000000 0.000000 0.000000 0.074644
#
#
# Mechanical properties :
#
#
# Convention : Reuss Voigt Hill
#
# Bulk Modulus (GPa) = 16.53075 65.63063 41.08069
# Shear Modulus (GPa) = 20.49791 3.40066 11.94928
#
# Velocity S-wave (km/s) = 3.27860 1.33541 2.50326
# Velocity P-wave (km/s) = 4.79595 6.06588 5.46791
#
# Compressibility (1/GPa) = 0.06049331
#
# Stress axis : x y z
#
# Youngs Moduli (GPa) = 9.04591 57.36153 57.96063
#
# Poissons Ratio (x) = 0.21626 2.06470
# Poissons Ratio (y) = 0.03410 0.17259
# Poissons Ratio (z) = 0.32224 0.17080
#
# Static dielectric constant tensor:
#      x y z
#    x 1.650770 0.000000 0.000000 
#    y 0.000000 1.671020 0.000000 
#    z 0.000000 0.000000 1.733840 
# 
# From -- ./inp_files/77890.got.cif
#   From: 2010.05.17/outbox.cif.g08.bks.cpg/sg65_39_cif.got.tgz:77890.got - 2010.06.03 17:01:31.
