data_PCOD9491636
_publ_section_title
;
Structure prediction by ZEFSAII (Michael W. Deem and Ramdas Pophale) SiO2 
 PCOD9491636
Probable space group: C M M M
;
_chemical_formula_sum "Si O2"
_cell_formula_units_Z 96
_cell_length_a 9.103530
_cell_length_b 18.421454
_cell_length_c 31.642218
_cell_angle_alpha 90.000000
_cell_angle_beta 90.000000
_cell_angle_gamma 90.000000
_cell_volume 5306.408158
_symmetry_space_group_name_H-M "C M M M"
_symmetry_group_IT_number 65
_symmetry_cell_setting 'orthorhombic'
loop_
_space_group_symop_operation_xyz
x,y,z
-x,-y,z
x,-y,-z
-x,y,-z
-x,-y,-z
x,y,-z
-x,y,z
x,-y,z
1/2+x,1/2+y,z
1/2-x,1/2-y,z
1/2+x,1/2-y,-z
1/2-x,1/2+y,-z
1/2-x,1/2-y,-z
1/2+x,1/2+y,-z
1/2-x,1/2+y,z
1/2+x,1/2-y,z
loop_
_atom_site_type_symbol
_atom_site_label
_atom_site_fract_x
_atom_site_fract_y
_atom_site_fract_z
Si Si1 0.327388 0.411945 0.453610
Si Si2 0.173040 0.585920 0.950330
Si Si3 0.674720 0.914058 0.801217
Si Si4 0.676651 0.915135 0.632148
Si Si5 0.825209 0.171671 0.123235
Si Si6 0.823376 0.328152 0.715507
O O1 0.274719 0.386644 0.500000
O O2 0.500000 0.394680 0.450014
O O3 0.315398 0.500000 0.453970
O O4 0.242333 0.387269 0.412045
O O5 0.197556 0.500000 0.942769
O O6 0.271897 0.633534 0.919846
O O7 0.000000 0.600150 0.941854
O O8 0.199356 0.599779 0.000000
O O9 0.500000 0.903052 0.809364
O O10 0.766542 0.877287 0.838296
O O11 0.710266 0.876718 0.756520
O O12 0.700760 0.000000 0.799291
O O13 0.500000 0.913050 0.629775
O O14 0.723900 0.868849 0.672632
O O15 0.719081 0.000000 0.637740
O O16 0.750000 0.250000 0.126665
O O17 0.000000 0.178447 0.124509
O O18 0.750000 0.250000 0.719164
O O19 0.000000 0.320170 0.713888
#
# Coordination Sequence:
#
# PCOD9491636 Si02
#       6
#    16  16  16  16  16  16
#     4   8  14  25  42  67  99 131 163 203 253 306
#     4   9  19  38  63  88 115 149 188 229 275 327
#     4  10  21  39  62  84 109 142 178 219 270 325
#     4   9  17  30  49  73 100 130 168 212 256 306
#     4  12  25  39  57  83 116 151 187 228 273 322
#     4  10  21  36  54  77 105 138 174 213 260 313
#
# _framework density 18.091334
#
# number of rings (size 3 to 8) (size 9 to 14) (size 15 to 20)
#    0.000    2.333    0.000    4.000    0.000    8.333 
#    0.000    2.500    0.000    3.500    0.000    0.000 
#    0.000    0.000    0.000    0.000    0.000    0.000 
#
# Total GULP energy -267904.609850 kJ/mol
# GULP energy per Si atom -5581.346039 kJ/mol
# Density = 1.805016 g / cm^3
# Si number density = 18.091334 Si / 1000 Ang^3
#
#
#
# Elastic Constant Matrix: (Units=GPa)
#
#
# Indices 1 2 3 4 5 6 
#
# 1 69.6837 65.5194 78.2813 0.0000 0.0000 0.0000
# 2 65.5194 102.5485 81.4811 0.0000 0.0000 0.0000
# 3 78.2813 81.4811 135.5656 0.0000 0.0000 0.0000
# 4 0.0000 0.0000 0.0000 -21.7364 0.0000 0.0000
# 5 0.0000 0.0000 0.0000 0.0000 -116.1183 0.0000
# 6 0.0000 0.0000 0.0000 0.0000 0.0000 26.1871
#
#
#
# Elastic Compliance Matrix: (Units=1/GPa)
#
#
# Indices 1 2 3 4 5 6 
#
# 1 0.055206 -0.019031 -0.020440 0.000000 0.000000 0.000000
# 2 -0.019031 0.025226 -0.004173 0.000000 0.000000 0.000000
# 3 -0.020440 -0.004173 0.021687 0.000000 0.000000 0.000000
# 4 0.000000 0.000000 0.000000 -0.046006 0.000000 0.000000
# 5 0.000000 0.000000 0.000000 0.000000 -0.008612 0.000000
# 6 0.000000 0.000000 0.000000 0.000000 0.000000 0.038187
#
#
# Mechanical properties :
#
#
# Convention : Reuss Voigt Hill
#
# Bulk Modulus (GPa) = 67.42031 84.26235 75.84133
# Shear Modulus (GPa) = 28.10267 -16.83245 5.63511
#
# Velocity S-wave (km/s) = 3.94557 -3.05358 1.76680
# Velocity P-wave (km/s) = 7.62261 5.85190 6.79518
#
# Compressibility (1/GPa) = 0.01483233
#
# Stress axis : x y z
#
# Youngs Moduli (GPa) = 18.11403 39.64144 46.11019
#
# Poissons Ratio (x) = 0.75442 0.94247
# Poissons Ratio (y) = 0.34473 0.19240
# Poissons Ratio (z) = 0.37024 0.16541
#
# Static dielectric constant tensor:
#      x y z
#    x 1.602910 0.000000 0.000000 
#    y 0.000000 1.597480 0.000000 
#    z 0.000000 0.000000 1.620940 
# 
# From -- ./inp_files/73134.got.cif
#   From: 2010.05.17/outbox.cif.g08.bks.cpg/sg65_37_cif.got.tgz:73134.got - 2010.06.03 17:01:31.
