data_PCOD9491109
_publ_section_title
;
Structure prediction by ZEFSAII (Michael W. Deem and Ramdas Pophale) SiO2 
 PCOD9491109
Probable space group: C M M M
;
_chemical_formula_sum "Si O2"
_cell_formula_units_Z 64
_cell_length_a 7.393625
_cell_length_b 36.801283
_cell_length_c 11.104192
_cell_angle_alpha 90.000000
_cell_angle_beta 90.000000
_cell_angle_gamma 90.000000
_cell_volume 3021.393857
_symmetry_space_group_name_H-M "C M M M"
_symmetry_group_IT_number 65
_symmetry_cell_setting 'orthorhombic'
loop_
_space_group_symop_operation_xyz
x,y,z
-x,-y,z
x,-y,-z
-x,y,-z
-x,-y,-z
x,y,-z
-x,y,z
x,-y,z
1/2+x,1/2+y,z
1/2-x,1/2-y,z
1/2+x,1/2-y,-z
1/2-x,1/2+y,-z
1/2-x,1/2-y,-z
1/2+x,1/2+y,-z
1/2-x,1/2+y,z
1/2+x,1/2-y,z
loop_
_atom_site_type_symbol
_atom_site_label
_atom_site_fract_x
_atom_site_fract_y
_atom_site_fract_z
Si Si1 0.284160 0.292626 0.000000
Si Si2 0.207894 0.826323 0.500000
Si Si3 0.221441 0.542128 0.000000
Si Si4 0.220878 0.412205 0.500000
Si Si5 0.213179 0.581702 0.239127
Si Si6 0.218903 0.167730 0.239593
O O1 0.250000 0.250000 0.000000
O O2 0.215111 0.311027 0.877539
O O3 0.500000 0.298575 0.000000
O O4 0.213844 0.870418 0.500000
O O5 0.286623 0.817119 0.631248
O O6 0.000000 0.813790 0.500000
O O7 0.286551 0.561924 0.878659
O O8 0.270591 0.500000 0.000000
O O9 0.000000 0.544218 0.000000
O O10 0.281736 0.428673 0.627354
O O11 0.000000 0.411053 0.500000
O O12 0.234923 0.625175 0.227767
O O13 0.000000 0.573663 0.241278
O O14 0.000000 0.169841 0.244069
#
# Coordination Sequence:
#
# PCOD9491109 Si02
#       6
#     8   8   8   8  16  16
#     4  10  21  34  46  63  89 118 145 175 211 251
#     4   8  14  26  45  66  86 109 137 170 211 257
#     4   9  17  28  41  60  88 119 148 177 211 253
#     4   8  14  24  39  63  89 106 132 178 219 249
#     4   9  16  27  45  66  86 111 143 178 215 254
#     4   9  17  30  48  68  88 111 141 177 215 254
#
# _framework density 21.182276000000002
#
# number of rings (size 3 to 8) (size 9 to 14) (size 15 to 20)
#    0.000    3.125    0.000    0.750    0.000    1.000 
#    0.000    1.250    0.000    5.250    0.000    0.000 
#    0.000   10.000    0.000    0.000    0.000    0.000 
#
# Total GULP energy -178352.474697 kJ/mol
# GULP energy per Si atom -5573.514834 kJ/mol
# Density = 2.113406 g / cm^3
# Si number density = 21.182276 Si / 1000 Ang^3
#
#
#
# Elastic Constant Matrix: (Units=GPa)
#
#
# Indices 1 2 3 4 5 6 
#
# 1 75.1327 -12.2217 7.5444 0.0000 0.0000 0.0000
# 2 -12.2217 59.7861 91.1711 0.0000 0.0000 0.0000
# 3 7.5444 91.1711 299.9260 0.0000 0.0000 0.0000
# 4 0.0000 0.0000 0.0000 -10.6485 0.0000 0.0000
# 5 0.0000 0.0000 0.0000 0.0000 -24.9498 0.0000
# 6 0.0000 0.0000 0.0000 0.0000 0.0000 47.1572
#
#
#
# Elastic Compliance Matrix: (Units=1/GPa)
#
#
# Indices 1 2 3 4 5 6 
#
# 1 0.014625 0.006619 -0.002380 0.000000 0.000000 0.000000
# 2 0.006619 0.034176 -0.010555 0.000000 0.000000 0.000000
# 3 -0.002380 -0.010555 0.006603 0.000000 0.000000 0.000000
# 4 0.000000 0.000000 0.000000 -0.093910 0.000000 0.000000
# 5 0.000000 0.000000 0.000000 0.000000 -0.040081 0.000000
# 6 0.000000 0.000000 0.000000 0.000000 0.000000 0.021206
#
#
# Mechanical properties :
#
#
# Convention : Reuss Voigt Hill
#
# Bulk Modulus (GPa) = 23.37996 67.53694 45.45845
# Shear Modulus (GPa) = -163.97782 25.53517 -69.22132
#
# Velocity S-wave (km/s) = -8.80800 3.47579 -5.72275
# Velocity P-wave (km/s) = 9.61143 6.93261 4.70736
#
# Compressibility (1/GPa) = 0.04277167
#
# Stress axis : x y z
#
# Youngs Moduli (GPa) = 68.37376 29.26070 151.45648
#
# Poissons Ratio (x) = -0.19368 0.36046
# Poissons Ratio (y) = -0.45258 1.59864
# Poissons Ratio (z) = 0.16273 0.30885
#
# Static dielectric constant tensor:
#      x y z
#    x 1.785120 0.000000 0.000000 
#    y 0.000000 1.674300 0.000000 
#    z 0.000000 0.000000 1.835980 
# 
# From -- ./inp_files/21063.got.cif
#   From: 2010.05.17/outbox.cif.g08.bks.cpg/sg65_11_cif.got.tgz:21063.got - 2010.06.03 17:01:31.
