data_PCOD9491288
_publ_section_title
;
Structure prediction by ZEFSAII (Michael W. Deem and Ramdas Pophale) SiO2 
 PCOD9491288
Probable space group: C M M M
;
_chemical_formula_sum "Si O2"
_cell_formula_units_Z 88
_cell_length_a 19.078478
_cell_length_b 8.579639
_cell_length_c 30.158339
_cell_angle_alpha 90.000000
_cell_angle_beta 90.000000
_cell_angle_gamma 90.000000
_cell_volume 4936.511567
_symmetry_space_group_name_H-M "C M M M"
_symmetry_group_IT_number 65
_symmetry_cell_setting 'orthorhombic'
loop_
_space_group_symop_operation_xyz
x,y,z
-x,-y,z
x,-y,-z
-x,y,-z
-x,-y,-z
x,y,-z
-x,y,z
x,-y,z
1/2+x,1/2+y,z
1/2-x,1/2-y,z
1/2+x,1/2-y,-z
1/2-x,1/2+y,-z
1/2-x,1/2-y,-z
1/2+x,1/2+y,-z
1/2-x,1/2+y,z
1/2+x,1/2-y,z
loop_
_atom_site_type_symbol
_atom_site_label
_atom_site_fract_x
_atom_site_fract_y
_atom_site_fract_z
Si Si1 0.329837 0.686470 0.361013
Si Si2 0.418796 0.688140 0.820091
Si Si3 0.171276 0.311211 0.000000
Si Si4 0.918741 0.688026 0.915233
Si Si5 0.670026 0.813531 0.548224
Si Si6 0.170936 0.188375 0.736181
O O1 0.327982 0.500000 0.363920
O O2 0.250000 0.750000 0.360234
O O3 0.363176 0.750545 0.406325
O O4 0.358918 0.732089 0.312573
O O5 0.500000 0.735710 0.815103
O O6 0.416437 0.500000 0.821168
O O7 0.393854 0.750805 0.867564
O O8 0.374261 0.742574 0.777968
O O9 0.250000 0.250000 0.000000
O O10 0.129087 0.260212 0.043883
O O11 0.172233 0.500000 0.000000
O O12 0.918306 0.500000 0.914397
O O13 0.000000 0.737891 0.921431
O O14 0.638979 0.769283 0.500000
O O15 0.750000 0.750000 0.547689
O O16 0.672678 0.000000 0.550664
O O17 0.250000 0.250000 0.739674
O O18 0.173064 0.000000 0.737146
#
# Coordination Sequence:
#
# PCOD9491288 Si02
#       6
#    16  16   8  16  16  16
#     4   9  15  23  35  51  74 104 138 173 210 256
#     4   9  18  33  51  70  93 120 151 188 227 266
#     4  10  21  35  51  73 101 128 152 186 228 266
#     4   9  18  34  54  72  91 120 157 190 222 263
#     4   9  15  21  30  46  70 101 136 172 211 255
#     4   9  18  30  44  64  89 118 149 181 222 269
#
# _framework density 17.826353000000001
#
# number of rings (size 3 to 8) (size 9 to 14) (size 15 to 20)
#    0.000    2.909    0.000    2.455    0.000    5.091 
#    0.000    3.636    0.000    2.727    0.000    0.000 
#    0.000    0.727    0.000    9.091    0.000    4.909 
#
# Total GULP energy -244976.962720 kJ/mol
# GULP energy per Si atom -5567.658244 kJ/mol
# Density = 1.778578 g / cm^3
# Si number density = 17.826353 Si / 1000 Ang^3
#
#
#
# Elastic Constant Matrix: (Units=GPa)
#
#
# Indices 1 2 3 4 5 6 
#
# 1 38.4546 10.7171 69.6793 0.0000 0.0000 0.0000
# 2 10.7171 20.8030 36.9388 0.0000 0.0000 0.0000
# 3 69.6793 36.9388 241.1212 0.0000 0.0000 0.0000
# 4 0.0000 0.0000 0.0000 28.7204 0.0000 0.0000
# 5 0.0000 0.0000 0.0000 0.0000 -12.7331 0.0000
# 6 0.0000 0.0000 0.0000 0.0000 0.0000 14.6961
#
#
#
# Elastic Compliance Matrix: (Units=1/GPa)
#
#
# Indices 1 2 3 4 5 6 
#
# 1 0.054590 -0.000153 -0.015752 0.000000 0.000000 0.000000
# 2 -0.000153 0.066033 -0.010072 0.000000 0.000000 0.000000
# 3 -0.015752 -0.010072 0.010242 0.000000 0.000000 0.000000
# 4 0.000000 0.000000 0.000000 0.034818 0.000000 0.000000
# 5 0.000000 0.000000 0.000000 0.000000 -0.078536 0.000000
# 6 0.000000 0.000000 0.000000 0.000000 0.000000 0.068045
#
#
# Mechanical properties :
#
#
# Convention : Reuss Voigt Hill
#
# Bulk Modulus (GPa) = 12.67250 59.44993 36.06121
# Shear Modulus (GPa) = 21.41786 18.33959 19.87872
#
# Velocity S-wave (km/s) = 3.46999 3.21096 3.34298
# Velocity P-wave (km/s) = 4.81443 6.86796 5.93075
#
# Compressibility (1/GPa) = 0.07891104
#
# Stress axis : x y z
#
# Youngs Moduli (GPa) = 18.31849 15.14397 97.63515
#
# Poissons Ratio (x) = 0.00232 1.53794
# Poissons Ratio (y) = 0.00281 0.98335
# Poissons Ratio (z) = 0.28855 0.15253
#
# Static dielectric constant tensor:
#      x y z
#    x 1.578010 0.000000 0.000000 
#    y 0.000000 1.607960 0.000000 
#    z 0.000000 0.000000 1.673960 
# 
# From -- ./inp_files/77968.got.cif
#   From: 2010.05.17/outbox.cif.g08.bks.cpg/sg65_39_cif.got.tgz:77968.got - 2010.06.03 17:01:31.
