data_PCOD9491906
_publ_section_title
;
Structure prediction by ZEFSAII (Michael W. Deem and Ramdas Pophale) SiO2 
 PCOD9491906
Probable space group: C M M M
;
_chemical_formula_sum "Si O2"
_cell_formula_units_Z 104
_cell_length_a 9.171820
_cell_length_b 28.296870
_cell_length_c 27.758545
_cell_angle_alpha 90.000000
_cell_angle_beta 90.000000
_cell_angle_gamma 90.000000
_cell_volume 7204.280616
_symmetry_space_group_name_H-M "C M M M"
_symmetry_group_IT_number 65
_symmetry_cell_setting 'orthorhombic'
loop_
_space_group_symop_operation_xyz
x,y,z
-x,-y,z
x,-y,-z
-x,y,-z
-x,-y,-z
x,y,-z
-x,y,z
x,-y,z
1/2+x,1/2+y,z
1/2-x,1/2-y,z
1/2+x,1/2-y,-z
1/2-x,1/2+y,-z
1/2-x,1/2-y,-z
1/2+x,1/2+y,-z
1/2-x,1/2+y,z
1/2+x,1/2-y,z
loop_
_atom_site_type_symbol
_atom_site_label
_atom_site_fract_x
_atom_site_fract_y
_atom_site_fract_z
Si Si1 0.831760 0.942430 0.500000
Si Si2 0.831617 0.442363 0.597344
Si Si3 0.674161 0.698933 0.055048
Si Si4 0.675878 0.944905 0.793904
Si Si5 0.166734 0.942760 0.306264
Si Si6 0.340351 0.445690 0.942555
Si Si7 0.829370 0.621766 0.882364
O O1 0.749784 0.927389 0.451404
O O2 0.000000 0.927570 0.500000
O O3 0.830652 0.000000 0.500000
O O4 0.830114 0.500000 0.597580
O O5 0.749265 0.426432 0.645626
O O6 0.000000 0.427729 0.597366
O O7 0.500000 0.703068 0.059859
O O8 0.750000 0.750000 0.057502
O O9 0.739990 0.666017 0.096844
O O10 0.702450 0.680139 0.000000
O O11 0.500000 0.944437 0.790153
O O12 0.747460 0.932410 0.742797
O O13 0.717493 0.905685 0.833628
O O14 0.716786 0.000000 0.805950
O O15 0.000000 0.925974 0.304693
O O16 0.162646 0.000000 0.309165
O O17 0.500000 0.425858 0.926996
O O18 0.334788 0.500000 0.927054
O O19 0.205110 0.417809 0.922173
O O20 0.339446 0.444668 0.000000
O O21 0.000000 0.633271 0.878986
#
# Coordination Sequence:
#
# PCOD9491906 Si02
#       7
#     8  16  16  16  16  16  16
#     4   9  15  21  29  43  63  85 115 159 204 243
#     4   9  15  22  32  45  63  89 120 156 202 250
#     4  10  21  37  55  72  89 108 131 161 199 244
#     4   9  18  31  43  57  81 111 140 169 201 238
#     4   9  16  25  37  52  69  93 128 167 204 240
#     4   9  18  31  44  59  82 111 139 165 195 233
#     4  11  21  31  46  67  88 109 134 165 201 241
#
# _framework density 14.435862
#
# number of rings (size 3 to 8) (size 9 to 14) (size 15 to 20)
#    0.000    2.538    0.000    3.462    0.000    9.846 
#    0.000    2.308    0.000    0.000    0.000    0.000 
#    0.000    0.000    0.000    0.000    0.000    0.000 
#
# Total GULP energy -289554.742271 kJ/mol
# GULP energy per Si atom -5568.360428 kJ/mol
# Density = 1.440300 g / cm^3
# Si number density = 14.435862 Si / 1000 Ang^3
#
#
#
# Elastic Constant Matrix: (Units=GPa)
#
#
# Indices 1 2 3 4 5 6 
#
# 1 73.2713 26.3459 60.4374 0.0000 0.0000 0.0000
# 2 26.3459 38.7488 36.4972 0.0000 0.0000 0.0000
# 3 60.4374 36.4972 120.1193 0.0000 0.0000 0.0000
# 4 0.0000 0.0000 0.0000 22.1930 0.0000 0.0000
# 5 0.0000 0.0000 0.0000 0.0000 22.2432 0.0000
# 6 0.0000 0.0000 0.0000 0.0000 0.0000 15.9749
#
#
#
# Elastic Compliance Matrix: (Units=1/GPa)
#
#
# Indices 1 2 3 4 5 6 
#
# 1 0.024656 -0.007116 -0.010243 0.000000 0.000000 0.000000
# 2 -0.007116 0.038208 -0.008029 0.000000 0.000000 0.000000
# 3 -0.010243 -0.008029 0.015918 0.000000 0.000000 0.000000
# 4 0.000000 0.000000 0.000000 0.045059 0.000000 0.000000
# 5 0.000000 0.000000 0.000000 0.000000 0.044958 0.000000
# 6 0.000000 0.000000 0.000000 0.000000 0.000000 0.062598
#
#
# Mechanical properties :
#
#
# Convention : Reuss Voigt Hill
#
# Bulk Modulus (GPa) = 35.70655 53.18892 44.44774
# Shear Modulus (GPa) = 17.15220 19.33946 18.24583
#
# Velocity S-wave (km/s) = 3.45072 3.66414 3.55903
# Velocity P-wave (km/s) = 6.37691 7.40447 6.90982
#
# Compressibility (1/GPa) = 0.02800606
#
# Stress axis : x y z
#
# Youngs Moduli (GPa) = 40.55882 26.17278 62.82031
#
# Poissons Ratio (x) = 0.18623 0.64349
# Poissons Ratio (y) = 0.28860 0.50438
# Poissons Ratio (z) = 0.41546 0.21014
#
# Static dielectric constant tensor:
#      x y z
#    x 1.499220 0.000000 0.000000 
#    y 0.000000 1.462810 0.000000 
#    z 0.000000 0.000000 1.480720 
# 
# From -- ./inp_files/74040.got.cif
#   From: 2010.05.17/outbox.cif.g08.bks.cpg/sg65_38_cif.got.tgz:74040.got - 2010.06.03 17:01:31.
