data_PCOD9491359
_publ_section_title
;
Structure prediction by ZEFSAII (Michael W. Deem and Ramdas Pophale) SiO2 
 PCOD9491359
Probable space group: C M M M
;
_chemical_formula_sum "Si O2"
_cell_formula_units_Z 88
_cell_length_a 8.587961
_cell_length_b 19.285772
_cell_length_c 28.592287
_cell_angle_alpha 90.000000
_cell_angle_beta 90.000000
_cell_angle_gamma 90.000000
_cell_volume 4735.610624
_symmetry_space_group_name_H-M "C M M M"
_symmetry_group_IT_number 65
_symmetry_cell_setting 'orthorhombic'
loop_
_space_group_symop_operation_xyz
x,y,z
-x,-y,z
x,-y,-z
-x,y,-z
-x,-y,-z
x,y,-z
-x,y,z
x,-y,z
1/2+x,1/2+y,z
1/2-x,1/2-y,z
1/2+x,1/2-y,-z
1/2-x,1/2+y,-z
1/2-x,1/2-y,-z
1/2+x,1/2+y,-z
1/2-x,1/2+y,z
1/2+x,1/2-y,z
loop_
_atom_site_type_symbol
_atom_site_label
_atom_site_fract_x
_atom_site_fract_y
_atom_site_fract_z
Si Si1 0.686585 0.173798 0.329154
Si Si2 0.188362 0.171624 0.500000
Si Si3 0.311640 0.579474 0.139474
Si Si4 0.186389 0.325874 0.221099
Si Si5 0.811941 0.827094 0.947104
Si Si6 0.688219 0.419910 0.589223
O O1 0.500000 0.175221 0.331615
O O2 0.750000 0.250000 0.342528
O O3 0.733121 0.161028 0.275102
O O4 0.751232 0.115855 0.363740
O O5 0.250000 0.250000 0.500000
O O6 0.238120 0.128083 0.454339
O O7 0.000000 0.174411 0.500000
O O8 0.500000 0.580711 0.140022
O O9 0.260281 0.500000 0.138262
O O10 0.251485 0.618244 0.185322
O O11 0.259338 0.620786 0.093207
O O12 0.250000 0.250000 0.208003
O O13 0.000000 0.324852 0.218997
O O14 0.750000 0.750000 0.937721
O O15 0.000000 0.825188 0.946362
O O16 0.763742 0.846784 0.000000
O O17 0.500000 0.419819 0.589768
O O18 0.738878 0.500000 0.584393
#
# Coordination Sequence:
#
# PCOD9491359 Si02
#       6
#    16   8  16  16  16  16
#     4  10  21  37  57  81 108 139 178 222 266 315
#     4  10  21  37  57  81 109 142 181 222 264 312
#     4  10  21  35  52  77 108 141 177 217 262 314
#     4  10  21  37  57  79 105 139 178 221 267 314
#     4   9  18  33  53  76 102 134 173 216 261 310
#     4  10  21  37  57  81 111 146 180 217 264 316
#
# _framework density 18.582608
#
# number of rings (size 3 to 8) (size 9 to 14) (size 15 to 20)
#    0.000    2.182    0.000    2.455    0.000    9.455 
#    0.000    5.455    0.000    1.636    0.000    3.818 
#    0.000    0.000    0.000    0.000    0.000    0.000 
#
# Total GULP energy -245704.262259 kJ/mol
# GULP energy per Si atom -5584.187779 kJ/mol
# Density = 1.854031 g / cm^3
# Si number density = 18.582608 Si / 1000 Ang^3
#
#
#
# Elastic Constant Matrix: (Units=GPa)
#
#
# Indices 1 2 3 4 5 6 
#
# 1 10.0553 29.0614 24.4736 0.0000 0.0000 0.0000
# 2 29.0614 184.0821 117.4976 0.0000 0.0000 0.0000
# 3 24.4736 117.4976 123.0678 0.0000 0.0000 0.0000
# 4 0.0000 0.0000 0.0000 -4.1669 0.0000 0.0000
# 5 0.0000 0.0000 0.0000 0.0000 -13.2909 0.0000
# 6 0.0000 0.0000 0.0000 0.0000 0.0000 30.7919
#
#
#
# Elastic Compliance Matrix: (Units=1/GPa)
#
#
# Indices 1 2 3 4 5 6 
#
# 1 0.211095 -0.016721 -0.026015 0.000000 0.000000 0.000000
# 2 -0.016721 0.015232 -0.011218 0.000000 0.000000 0.000000
# 3 -0.026015 -0.011218 0.024009 0.000000 0.000000 0.000000
# 4 0.000000 0.000000 0.000000 -0.239987 0.000000 0.000000
# 5 0.000000 0.000000 0.000000 0.000000 -0.075239 0.000000
# 6 0.000000 0.000000 0.000000 0.000000 0.000000 0.032476
#
#
# Mechanical properties :
#
#
# Convention : Reuss Voigt Hill
#
# Bulk Modulus (GPa) = 7.02103 73.25229 40.13666
# Shear Modulus (GPa) = 40.66047 12.41164 26.53605
#
# Velocity S-wave (km/s) = 4.68278 2.58721 3.78299
# Velocity P-wave (km/s) = 5.74668 6.95919 6.38180
#
# Compressibility (1/GPa) = 0.14242924
#
# Stress axis : x y z
#
# Youngs Moduli (GPa) = 4.73720 65.65030 41.65136
#
# Poissons Ratio (x) = 1.09775 1.08355
# Poissons Ratio (y) = 0.07921 0.46723
# Poissons Ratio (z) = 0.12324 0.73644
#
# Static dielectric constant tensor:
#      x y z
#    x 1.634550 0.000000 0.000000 
#    y 0.000000 1.604560 0.000000 
#    z 0.000000 0.000000 1.641070 
# 
# From -- ./inp_files/76695.got.cif
#   From: 2010.05.17/outbox.cif.g08.bks.cpg/sg65_39_cif.got.tgz:76695.got - 2010.06.03 17:01:31.
