data_PCOD9491234
_publ_section_title
;
Structure prediction by ZEFSAII (Michael W. Deem and Ramdas Pophale) SiO2 
 PCOD9491234
Probable space group: C M M M
;
_chemical_formula_sum "Si O2"
_cell_formula_units_Z 120
_cell_length_a 23.708554
_cell_length_b 21.376630
_cell_length_c 13.754848
_cell_angle_alpha 90.000000
_cell_angle_beta 90.000000
_cell_angle_gamma 90.000000
_cell_volume 6971.080577
_symmetry_space_group_name_H-M "C M M M"
_symmetry_group_IT_number 65
_symmetry_cell_setting 'orthorhombic'
loop_
_space_group_symop_operation_xyz
x,y,z
-x,-y,z
x,-y,-z
-x,y,-z
-x,-y,-z
x,y,-z
-x,y,z
x,-y,z
1/2+x,1/2+y,z
1/2-x,1/2-y,z
1/2+x,1/2-y,-z
1/2-x,1/2+y,-z
1/2-x,1/2-y,-z
1/2+x,1/2+y,-z
1/2-x,1/2+y,z
1/2+x,1/2-y,z
loop_
_atom_site_type_symbol
_atom_site_label
_atom_site_fract_x
_atom_site_fract_y
_atom_site_fract_z
Si Si1 0.664279 0.924815 0.792834
Si Si2 0.931776 0.000000 0.383395
Si Si3 0.669703 0.294437 0.387863
Si Si4 0.717478 0.424841 0.109733
Si Si5 0.066464 0.797363 0.107891
Si Si6 0.384153 0.612425 0.251303
Si Si7 0.066504 0.341497 0.882072
Si Si8 0.204116 0.653418 0.386945
O O1 0.718782 0.908130 0.859345
O O2 0.608463 0.891211 0.833618
O O3 0.680886 0.897419 0.687281
O O4 0.658301 0.000000 0.791391
O O5 0.907181 0.058588 0.322007
O O6 0.916436 0.000000 0.500000
O O7 0.000000 0.000000 0.378988
O O8 0.653570 0.301294 0.500000
O O9 0.627090 0.328155 0.318525
O O10 0.729494 0.330499 0.375662
O O11 0.676487 0.221187 0.367941
O O12 0.714909 0.500000 0.107364
O O13 0.672492 0.404782 0.191416
O O14 0.705281 0.401836 0.000000
O O15 0.075346 0.859604 0.169482
O O16 0.086304 0.729229 0.145617
O O17 0.000000 0.787653 0.099475
O O18 0.090789 0.806130 0.000000
O O19 0.000000 0.350549 0.856275
O O20 0.069939 0.345413 0.000000
O O21 0.194891 0.636581 0.500000
#
# Coordination Sequence:
#
# PCOD9491234 Si02
#       8
#    16   8  16  16  16  16  16  16
#     4  11  21  34  53  81 113 148 180 223 277 327
#     4  11  26  42  55  79 113 145 185 238 278 312
#     4   9  18  32  54  78 103 139 182 227 269 321
#     4  10  21  35  49  74 112 145 178 218 263 321
#     4   9  19  35  55  79 105 137 183 234 274 317
#     4  12  19  35  57  79 105 146 184 216 276 337
#     4   9  19  37  58  80 108 142 183 229 274 325
#     4   9  18  34  52  77 111 141 177 224 271 323
#
# _framework density 17.213974
#
# number of rings (size 3 to 8) (size 9 to 14) (size 15 to 20)
#    0.000    2.067    2.000    4.000    0.000    1.333 
#    0.000    0.667    0.000    5.200    0.000    4.667 
#    0.000    0.000    0.000    0.000    0.000    0.000 
#
# Total GULP energy -334144.209175 kJ/mol
# GULP energy per Si atom -5569.070153 kJ/mol
# Density = 1.717479 g / cm^3
# Si number density = 17.213974 Si / 1000 Ang^3
#
#
#
# Elastic Constant Matrix: (Units=GPa)
#
#
# Indices 1 2 3 4 5 6 
#
# 1 56.9972 27.2046 34.6677 0.0000 0.0000 0.0000
# 2 27.2046 64.1517 57.5447 0.0000 0.0000 0.0000
# 3 34.6677 57.5447 92.4841 0.0000 0.0000 0.0000
# 4 0.0000 0.0000 0.0000 29.8615 0.0000 0.0000
# 5 0.0000 0.0000 0.0000 0.0000 34.5177 0.0000
# 6 0.0000 0.0000 0.0000 0.0000 0.0000 24.8956
#
#
#
# Elastic Compliance Matrix: (Units=1/GPa)
#
#
# Indices 1 2 3 4 5 6 
#
# 1 0.023320 -0.004635 -0.005858 0.000000 0.000000 0.000000
# 2 -0.004635 0.036199 -0.020786 0.000000 0.000000 0.000000
# 3 -0.005858 -0.020786 0.025942 0.000000 0.000000 0.000000
# 4 0.000000 0.000000 0.000000 0.033488 0.000000 0.000000
# 5 0.000000 0.000000 0.000000 0.000000 0.028971 0.000000
# 6 0.000000 0.000000 0.000000 0.000000 0.000000 0.040168
#
#
# Mechanical properties :
#
#
# Convention : Reuss Voigt Hill
#
# Bulk Modulus (GPa) = 43.66157 50.27411 46.96784
# Shear Modulus (GPa) = 19.35902 24.13601 21.74752
#
# Velocity S-wave (km/s) = 3.35716 3.74855 3.55824
# Velocity P-wave (km/s) = 6.35975 6.92851 6.65022
#
# Compressibility (1/GPa) = 0.02290344
#
# Stress axis : x y z
#
# Youngs Moduli (GPa) = 42.88222 27.62527 38.54811
#
# Poissons Ratio (x) = 0.12804 0.22580
# Poissons Ratio (y) = 0.19875 0.80126
# Poissons Ratio (z) = 0.25118 0.57422
#
# Static dielectric constant tensor:
#      x y z
#    x 1.585450 0.000000 0.000000 
#    y 0.000000 1.584750 0.000000 
#    z 0.000000 0.000000 1.603540 
# 
# From -- ./inp_files/31133.got.cif
#   From: 2010.05.17/outbox.cif.g08.bks.cpg/sg65_16_cif.got.tgz:31133.got - 2010.06.03 17:01:31.
