data_PCOD9491611
_publ_section_title
;
Structure prediction by ZEFSAII (Michael W. Deem and Ramdas Pophale) SiO2 
 PCOD9491611
Probable space group: C M M M
;
_chemical_formula_sum "Si O2"
_cell_formula_units_Z 72
_cell_length_a 19.949168
_cell_length_b 8.640077
_cell_length_c 23.975265
_cell_angle_alpha 90.000000
_cell_angle_beta 90.000000
_cell_angle_gamma 90.000000
_cell_volume 4132.432960
_symmetry_space_group_name_H-M "C M M M"
_symmetry_group_IT_number 65
_symmetry_cell_setting 'orthorhombic'
loop_
_space_group_symop_operation_xyz
x,y,z
-x,-y,z
x,-y,-z
-x,y,-z
-x,-y,-z
x,y,-z
-x,y,z
x,-y,z
1/2+x,1/2+y,z
1/2-x,1/2-y,z
1/2+x,1/2-y,-z
1/2-x,1/2+y,-z
1/2-x,1/2-y,-z
1/2+x,1/2+y,-z
1/2-x,1/2+y,z
1/2+x,1/2-y,z
loop_
_atom_site_type_symbol
_atom_site_label
_atom_site_fract_x
_atom_site_fract_y
_atom_site_fract_z
Si Si1 0.824212 0.814650 0.436203
Si Si2 0.077643 0.186992 0.221916
Si Si3 0.577790 0.814797 0.657225
Si Si4 0.825691 0.812535 0.122169
Si Si5 0.674408 0.313519 0.000000
O O1 0.841916 0.769511 0.500000
O O2 0.750000 0.750000 0.424825
O O3 0.876184 0.750754 0.391510
O O4 0.822532 0.000000 0.433342
O O5 0.098479 0.252380 0.281984
O O6 0.126186 0.238835 0.172149
O O7 0.000000 0.232612 0.212032
O O8 0.079698 0.000000 0.224313
O O9 0.500000 0.768191 0.648901
O O10 0.581294 0.000000 0.657364
O O11 0.750000 0.750000 0.128279
O O12 0.853223 0.765839 0.060605
O O13 0.822724 0.000000 0.123495
O O14 0.750000 0.250000 0.000000
O O15 0.675444 0.500000 0.000000
#
# Coordination Sequence:
#
# PCOD9491611 Si02
#       5
#    16  16  16  16   8
#     4  10  21  37  57  80 106 135 166 203 248 296
#     4   9  18  33  50  68  95 130 165 202 246 294
#     4  10  21  36  54  76 102 134 171 209 249 294
#     4   9  17  29  47  70  94 123 159 199 243 291
#     4   8  14  26  43  65  93 121 153 194 240 290
#
# _framework density 17.423151000000001
#
# number of rings (size 3 to 8) (size 9 to 14) (size 15 to 20)
#    0.000    2.667    0.000    1.333    0.000    4.889 
#    0.000    5.000    0.000    3.333    0.000    0.000 
#    0.000   12.444    0.000    0.000    0.000    0.000 
#
# Total GULP energy -200648.828951 kJ/mol
# GULP energy per Si atom -5573.578582 kJ/mol
# Density = 1.738349 g / cm^3
# Si number density = 17.423151 Si / 1000 Ang^3
#
#
#
# Elastic Constant Matrix: (Units=GPa)
#
#
# Indices 1 2 3 4 5 6 
#
# 1 79.3230 23.4806 109.5803 0.0000 0.0000 0.0000
# 2 23.4806 18.2066 39.6124 0.0000 0.0000 0.0000
# 3 109.5803 39.6124 205.0280 0.0000 0.0000 0.0000
# 4 0.0000 0.0000 0.0000 19.4973 0.0000 0.0000
# 5 0.0000 0.0000 0.0000 0.0000 369.3753 0.0000
# 6 0.0000 0.0000 0.0000 0.0000 0.0000 24.3500
#
#
#
# Elastic Compliance Matrix: (Units=1/GPa)
#
#
# Indices 1 2 3 4 5 6 
#
# 1 0.049380 -0.010805 -0.024305 0.000000 0.000000 0.000000
# 2 -0.010805 0.097121 -0.012990 0.000000 0.000000 0.000000
# 3 -0.024305 -0.012990 0.020377 0.000000 0.000000 0.000000
# 4 0.000000 0.000000 0.000000 0.051289 0.000000 0.000000
# 5 0.000000 0.000000 0.000000 0.000000 0.002707 0.000000
# 6 0.000000 0.000000 0.000000 0.000000 0.000000 0.041068
#
#
# Mechanical properties :
#
#
# Convention : Reuss Voigt Hill
#
# Bulk Modulus (GPa) = 14.14808 71.98933 43.06871
# Shear Modulus (GPa) = 13.09925 91.30346 52.20136
#
# Velocity S-wave (km/s) = 2.74493 7.24688 5.47959
# Velocity P-wave (km/s) = 4.26428 10.55609 8.05031
#
# Compressibility (1/GPa) = 0.07068096
#
# Stress axis : x y z
#
# Youngs Moduli (GPa) = 20.25093 10.29640 49.07502
#
# Poissons Ratio (x) = 0.11125 1.19275
# Poissons Ratio (y) = 0.21881 0.63746
# Poissons Ratio (z) = 0.49219 0.13375
#
# Static dielectric constant tensor:
#      x y z
#    x 1.559770 0.000000 0.000000 
#    y 0.000000 1.586820 0.000000 
#    z 0.000000 0.000000 1.606450 
# 
# From -- ./inp_files/59283.got.cif
#   From: 2010.05.17/outbox.cif.g08.bks.cpg/sg65_30_cif.got.tgz:59283.got - 2010.06.03 17:01:31.
