data_PCOD9491775
_publ_section_title
;
Structure prediction by ZEFSAII (Michael W. Deem and Ramdas Pophale) SiO2 
 PCOD9491775
Probable space group: C M M M
;
_chemical_formula_sum "Si O2"
_cell_formula_units_Z 104
_cell_length_a 28.024536
_cell_length_b 8.335663
_cell_length_c 21.705224
_cell_angle_alpha 90.000000
_cell_angle_beta 90.000000
_cell_angle_gamma 90.000000
_cell_volume 5070.407348
_symmetry_space_group_name_H-M "C M M M"
_symmetry_group_IT_number 65
_symmetry_cell_setting 'orthorhombic'
loop_
_space_group_symop_operation_xyz
x,y,z
-x,-y,z
x,-y,-z
-x,y,-z
-x,-y,-z
x,y,-z
-x,y,z
x,-y,z
1/2+x,1/2+y,z
1/2-x,1/2-y,z
1/2+x,1/2-y,-z
1/2-x,1/2+y,-z
1/2-x,1/2-y,-z
1/2+x,1/2+y,-z
1/2-x,1/2+y,z
1/2+x,1/2-y,z
loop_
_atom_site_type_symbol
_atom_site_label
_atom_site_fract_x
_atom_site_fract_y
_atom_site_fract_z
Si Si1 0.696371 0.690705 0.500000
Si Si2 0.346385 0.692438 0.755671
Si Si3 0.697543 0.692635 0.116105
Si Si4 0.447001 0.195474 0.571269
Si Si5 0.351386 0.191280 0.625340
Si Si6 0.097099 0.308193 0.931319
Si Si7 0.553085 0.692268 0.805949
O O1 0.693060 0.500000 0.500000
O O2 0.750000 0.750000 0.500000
O O3 0.673289 0.756630 0.562396
O O4 0.347813 0.500000 0.757588
O O5 0.313675 0.744191 0.813036
O O6 0.329910 0.744471 0.688471
O O7 0.400650 0.753676 0.768276
O O8 0.695725 0.500000 0.112661
O O9 0.750000 0.750000 0.097268
O O10 0.652602 0.760991 0.078598
O O11 0.437127 0.242087 0.500000
O O12 0.500000 0.250321 0.587584
O O13 0.405854 0.251100 0.616571
O O14 0.447012 0.000000 0.571553
O O15 0.351246 0.000000 0.628292
O O16 0.092845 0.500000 0.926032
O O17 0.066574 0.229615 0.876800
O O18 0.082186 0.259132 0.000000
O O19 0.500000 0.755105 0.790687
O O20 0.551987 0.500000 0.798278
#
# Coordination Sequence:
#
# PCOD9491775 Si02
#       7
#     8  16  16  16  16  16  16
#     4  12  26  44  63  82 109 143 182 231 285 340
#     4   9  20  37  55  80 113 149 188 230 278 331
#     4  10  21  38  60  82 109 145 187 234 284 340
#     4   8  14  27  49  76 107 140 172 209 253 308
#     4  11  21  36  59  86 114 145 184 228 278 333
#     4  10  21  36  55  83 118 152 189 235 284 335
#     4   9  19  37  59  82 114 157 199 238 280 329
#
# _framework density 20.511172999999999
#
# number of rings (size 3 to 8) (size 9 to 14) (size 15 to 20)
#    0.000    2.308    0.769    3.462    0.000    6.462 
#    0.000    3.077    0.000    1.846    0.000    0.000 
#    0.000    0.000    0.000    0.000    0.000    0.000 
#
# Total GULP energy -290217.861460 kJ/mol
# GULP energy per Si atom -5581.112720 kJ/mol
# Density = 2.046449 g / cm^3
# Si number density = 20.511173 Si / 1000 Ang^3
#
#
#
# Elastic Constant Matrix: (Units=GPa)
#
#
# Indices 1 2 3 4 5 6 
#
# 1 45.8885 -8.1051 -19.3958 0.0000 0.0000 0.0000
# 2 -8.1051 7.3132 -9.1450 0.0000 0.0000 0.0000
# 3 -19.3958 -9.1450 68.4842 0.0000 0.0000 0.0000
# 4 0.0000 0.0000 0.0000 38.1962 0.0000 0.0000
# 5 0.0000 0.0000 0.0000 0.0000 6.2397 0.0000
# 6 0.0000 0.0000 0.0000 0.0000 0.0000 20.7868
#
#
#
# Elastic Compliance Matrix: (Units=1/GPa)
#
#
# Indices 1 2 3 4 5 6 
#
# 1 0.046255 0.081205 0.023944 0.000000 0.000000 0.000000
# 2 0.081205 0.306711 0.063955 0.000000 0.000000 0.000000
# 3 0.023944 0.063955 0.029923 0.000000 0.000000 0.000000
# 4 0.000000 0.000000 0.000000 0.026181 0.000000 0.000000
# 5 0.000000 0.000000 0.000000 0.000000 0.160264 0.000000
# 6 0.000000 0.000000 0.000000 0.000000 0.000000 0.048107
#
#
# Mechanical properties :
#
#
# Convention : Reuss Voigt Hill
#
# Bulk Modulus (GPa) = 1.38677 5.37712 3.38195
# Shear Modulus (GPa) = 9.62280 23.60000 16.61140
#
# Velocity S-wave (km/s) = 2.16834 3.39572 2.84891
# Velocity P-wave (km/s) = 2.63562 4.24285 3.53187
#
# Compressibility (1/GPa) = 0.72109775
#
# Stress axis : x y z
#
# Youngs Moduli (GPa) = 21.61911 3.26040 33.41871
#
# Poissons Ratio (x) = -0.26476 -0.80017
# Poissons Ratio (y) = -1.75559 -2.13729
# Poissons Ratio (z) = -0.51765 -0.20852
#
# Static dielectric constant tensor:
#      x y z
#    x 1.747170 0.000000 0.000000 
#    y 0.000000 1.706840 0.000000 
#    z 0.000000 0.000000 1.719860 
# 
# From -- ./inp_files/71869.got.cif
#   From: 2010.05.17/outbox.cif.g08.bks.cpg/sg65_36_cif.got.tgz:71869.got - 2010.06.03 17:01:31.
