data_PCOD9491810
_publ_section_title
;
Structure prediction by ZEFSAII (Michael W. Deem and Ramdas Pophale) SiO2 
 PCOD9491810
Probable space group: C M M M
;
_chemical_formula_sum "Si O2"
_cell_formula_units_Z 72
_cell_length_a 21.026818
_cell_length_b 9.145493
_cell_length_c 20.260725
_cell_angle_alpha 90.000000
_cell_angle_beta 90.000000
_cell_angle_gamma 90.000000
_cell_volume 3896.149915
_symmetry_space_group_name_H-M "C M M M"
_symmetry_group_IT_number 65
_symmetry_cell_setting 'orthorhombic'
loop_
_space_group_symop_operation_xyz
x,y,z
-x,-y,z
x,-y,-z
-x,y,-z
-x,-y,-z
x,y,-z
-x,y,z
x,-y,z
1/2+x,1/2+y,z
1/2-x,1/2-y,z
1/2+x,1/2-y,-z
1/2-x,1/2+y,-z
1/2-x,1/2-y,-z
1/2+x,1/2+y,-z
1/2-x,1/2+y,z
1/2+x,1/2-y,z
loop_
_atom_site_type_symbol
_atom_site_label
_atom_site_fract_x
_atom_site_fract_y
_atom_site_fract_z
Si Si1 0.925008 0.174119 0.707903
Si Si2 0.923049 0.667889 0.573794
Si Si3 0.000000 0.163289 0.920247
Si Si4 0.870544 0.674137 0.074924
Si Si5 0.185807 0.325828 0.211020
O O1 0.907363 0.225243 0.633603
O O2 0.876623 0.258460 0.755161
O O3 0.000000 0.211035 0.719343
O O4 0.918396 0.000000 0.715133
O O5 0.900859 0.709135 0.500000
O O6 0.902741 0.500000 0.587435
O O7 0.000000 0.665686 0.571299
O O8 0.936033 0.248565 0.904303
O O9 0.000000 0.000000 0.891974
O O10 0.000000 0.153423 0.000000
O O11 0.881434 0.500000 0.073302
O O12 0.820881 0.703714 0.132528
O O13 0.853500 0.720668 0.000000
O O14 0.187826 0.500000 0.221185
O O15 0.250000 0.250000 0.235972
#
# Coordination Sequence:
#
# PCOD9491810 Si02
#       5
#    16  16   8  16  16
#     4  10  21  36  56  84 116 150 188 231 274 324
#     4   8  14  27  50  81 115 148 183 225 271 320
#     4   9  17  29  49  79 109 135 166 213 270 321
#     4   9  19  36  56  78 105 139 180 225 277 337
#     4  11  24  40  58  79 108 147 187 231 284 338
#
# _framework density 18.479782
#
# number of rings (size 3 to 8) (size 9 to 14) (size 15 to 20)
#    0.000    2.556    0.000    2.333    1.556    5.333 
#    0.000    2.222    0.000    0.667    0.000    0.000 
#    0.000    0.000    0.000    0.000    0.000    0.000 
#
# Total GULP energy -200681.717295 kJ/mol
# GULP energy per Si atom -5574.492147 kJ/mol
# Density = 1.843772 g / cm^3
# Si number density = 18.479782 Si / 1000 Ang^3
#
#
#
# Elastic Constant Matrix: (Units=GPa)
#
#
# Indices 1 2 3 4 5 6 
#
# 1 88.9332 57.3594 47.1189 0.0000 0.0000 0.0000
# 2 57.3594 56.3238 53.3004 0.0000 0.0000 0.0000
# 3 47.1189 53.3004 93.3368 0.0000 0.0000 0.0000
# 4 0.0000 0.0000 0.0000 18.7019 0.0000 0.0000
# 5 0.0000 0.0000 0.0000 0.0000 3.1862 0.0000
# 6 0.0000 0.0000 0.0000 0.0000 0.0000 21.1224
#
#
#
# Elastic Compliance Matrix: (Units=1/GPa)
#
#
# Indices 1 2 3 4 5 6 
#
# 1 0.034102 -0.040117 0.005693 0.000000 0.000000 0.000000
# 2 -0.040117 0.085823 -0.028758 0.000000 0.000000 0.000000
# 3 0.005693 -0.028758 0.024262 0.000000 0.000000 0.000000
# 4 0.000000 0.000000 0.000000 0.053471 0.000000 0.000000
# 5 0.000000 0.000000 0.000000 0.000000 0.313851 0.000000
# 6 0.000000 0.000000 0.000000 0.000000 0.000000 0.047343
#
#
# Mechanical properties :
#
#
# Convention : Reuss Voigt Hill
#
# Bulk Modulus (GPa) = 56.10194 61.57237 58.83715
# Shear Modulus (GPa) = 7.23425 13.98976 10.61201
#
# Velocity S-wave (km/s) = 1.98070 2.75440 2.39895
# Velocity P-wave (km/s) = 5.97121 6.59597 6.29135
#
# Compressibility (1/GPa) = 0.01782470
#
# Stress axis : x y z
#
# Youngs Moduli (GPa) = 29.32351 11.65187 41.21685
#
# Poissons Ratio (x) = 0.46744 -0.23466
# Poissons Ratio (y) = 1.17637 1.18530
# Poissons Ratio (z) = -0.16695 0.33508
#
# Static dielectric constant tensor:
#      x y z
#    x 1.607810 0.000000 0.000000 
#    y 0.000000 1.620950 0.000000 
#    z 0.000000 0.000000 1.680320 
# 
# From -- ./inp_files/64330.got.cif
#   From: 2010.05.17/outbox.cif.g08.bks.cpg/sg65_33_cif.got.tgz:64330.got - 2010.06.03 17:01:31.
