data_PCOD9491965
_publ_section_title
;
Structure prediction by ZEFSAII (Michael W. Deem and Ramdas Pophale) SiO2 
 PCOD9491965
Probable space group: C M M M
;
_chemical_formula_sum "Si O2"
_cell_formula_units_Z 120
_cell_length_a 27.275973
_cell_length_b 8.981285
_cell_length_c 27.731465
_cell_angle_alpha 90.000000
_cell_angle_beta 90.000000
_cell_angle_gamma 90.000000
_cell_volume 6793.468139
_symmetry_space_group_name_H-M "C M M M"
_symmetry_group_IT_number 65
_symmetry_cell_setting 'orthorhombic'
loop_
_space_group_symop_operation_xyz
x,y,z
-x,-y,z
x,-y,-z
-x,y,-z
-x,-y,-z
x,y,-z
-x,y,z
x,-y,z
1/2+x,1/2+y,z
1/2-x,1/2-y,z
1/2+x,1/2-y,-z
1/2-x,1/2+y,-z
1/2-x,1/2-y,-z
1/2+x,1/2+y,-z
1/2-x,1/2+y,z
1/2+x,1/2-y,z
loop_
_atom_site_type_symbol
_atom_site_label
_atom_site_fract_x
_atom_site_fract_y
_atom_site_fract_z
Si Si1 0.105080 0.321427 0.398363
Si Si2 0.944727 0.318761 0.056173
Si Si3 0.378401 0.325941 0.704305
Si Si4 0.627723 0.827762 0.137171
Si Si5 0.802891 0.178043 0.788534
Si Si6 0.556773 0.835757 0.227779
Si Si7 0.700106 0.670062 0.442073
Si Si8 0.500000 0.181054 0.556362
O O1 0.106304 0.500000 0.400895
O O2 0.115660 0.265751 0.344363
O O3 0.150326 0.254849 0.428619
O O4 0.051034 0.272630 0.417695
O O5 0.944645 0.500000 0.059390
O O6 0.900012 0.267938 0.089839
O O7 0.000000 0.270906 0.071087
O O8 0.938288 0.279685 0.000000
O O9 0.373000 0.500000 0.693366
O O10 0.334915 0.279309 0.741120
O O11 0.426008 0.291625 0.736428
O O12 0.670637 0.736255 0.162885
O O13 0.585890 0.828548 0.178165
O O14 0.643284 0.000000 0.129255
O O15 0.750000 0.250000 0.784759
O O16 0.800535 0.000000 0.789615
O O17 0.500000 0.827112 0.217787
O O18 0.567514 0.000000 0.249789
O O19 0.703211 0.665795 0.500000
O O20 0.698298 0.500000 0.424019
O O21 0.750000 0.750000 0.424294
O O22 0.500000 0.227250 0.500000
O O23 0.500000 0.000000 0.557010
#
# Coordination Sequence:
#
# PCOD9491965 Si02
#       8
#    16  16  16  16  16  16  16   8
#     4  11  22  37  59  84 112 146 184 225 270 321
#     4   8  13  22  41  73 110 143 176 216 261 309
#     4  10  22  37  51  74 105 135 169 210 262 317
#     4   9  16  28  48  74 102 134 173 215 260 309
#     4  10  21  37  56  75  99 132 172 219 269 324
#     4   9  17  29  47  70  98 132 171 210 249 301
#     4  10  21  38  60  85 111 139 174 218 268 320
#     4   9  20  38  59  83 111 147 189 227 264 313
#
# _framework density 17.664026
#
# number of rings (size 3 to 8) (size 9 to 14) (size 15 to 20)
#    0.000    2.467    0.000    2.800    0.933    5.333 
#    0.000    2.333    0.000    4.400    0.000    0.933 
#    0.000    0.000    0.000    0.000    0.000    0.000 
#
# Total GULP energy -334335.902781 kJ/mol
# GULP energy per Si atom -5572.265046 kJ/mol
# Density = 1.762382 g / cm^3
# Si number density = 17.664026 Si / 1000 Ang^3
#
#
#
# Elastic Constant Matrix: (Units=GPa)
#
#
# Indices 1 2 3 4 5 6 
#
# 1 116.0046 44.1800 25.2511 0.0000 0.0000 0.0000
# 2 44.1800 52.4192 26.1093 0.0000 0.0000 0.0000
# 3 25.2511 26.1093 49.9123 0.0000 0.0000 0.0000
# 4 0.0000 0.0000 0.0000 15.1204 0.0000 0.0000
# 5 0.0000 0.0000 0.0000 0.0000 12.5645 0.0000
# 6 0.0000 0.0000 0.0000 0.0000 0.0000 22.0908
#
#
#
# Elastic Compliance Matrix: (Units=1/GPa)
#
#
# Indices 1 2 3 4 5 6 
#
# 1 0.012742 -0.010181 -0.001120 0.000000 0.000000 0.000000
# 2 -0.010181 0.033934 -0.012600 0.000000 0.000000 0.000000
# 3 -0.001120 -0.012600 0.027193 0.000000 0.000000 0.000000
# 4 0.000000 0.000000 0.000000 0.066136 0.000000 0.000000
# 5 0.000000 0.000000 0.000000 0.000000 0.079589 0.000000
# 6 0.000000 0.000000 0.000000 0.000000 0.000000 0.045268
#
#
# Mechanical properties :
#
#
# Convention : Reuss Voigt Hill
#
# Bulk Modulus (GPa) = 38.36501 45.49076 41.92789
# Shear Modulus (GPa) = 15.55924 18.14153 16.85039
#
# Velocity S-wave (km/s) = 2.97112 3.20821 3.09194
# Velocity P-wave (km/s) = 5.79107 6.28751 6.04439
#
# Compressibility (1/GPa) = 0.02606542
#
# Stress axis : x y z
#
# Youngs Moduli (GPa) = 78.48332 29.46936 36.77394
#
# Poissons Ratio (x) = 0.30002 0.04120
# Poissons Ratio (y) = 0.79902 0.46336
# Poissons Ratio (z) = 0.08794 0.37132
#
# Static dielectric constant tensor:
#      x y z
#    x 1.600100 0.000000 0.000000 
#    y 0.000000 1.617170 0.000000 
#    z 0.000000 0.000000 1.610240 
# 
# From -- ./inp_files/76130.got.cif
#   From: 2010.05.17/outbox.cif.g08.bks.cpg/sg65_39_cif.got.tgz:76130.got - 2010.06.03 17:01:31.
