data_PCOD9491968
_publ_section_title
;
Structure prediction by ZEFSAII (Michael W. Deem and Ramdas Pophale) SiO2 
 PCOD9491968
Probable space group: C M M M
;
_chemical_formula_sum "Si O2"
_cell_formula_units_Z 88
_cell_length_a 22.006989
_cell_length_b 22.936944
_cell_length_c 7.458037
_cell_angle_alpha 90.000000
_cell_angle_beta 90.000000
_cell_angle_gamma 90.000000
_cell_volume 3764.616265
_symmetry_space_group_name_H-M "C M M M"
_symmetry_group_IT_number 65
_symmetry_cell_setting 'orthorhombic'
loop_
_space_group_symop_operation_xyz
x,y,z
-x,-y,z
x,-y,-z
-x,y,-z
-x,-y,-z
x,y,-z
-x,y,z
x,-y,z
1/2+x,1/2+y,z
1/2-x,1/2-y,z
1/2+x,1/2-y,-z
1/2-x,1/2+y,-z
1/2-x,1/2-y,-z
1/2+x,1/2+y,-z
1/2-x,1/2+y,z
1/2+x,1/2-y,z
loop_
_atom_site_type_symbol
_atom_site_label
_atom_site_fract_x
_atom_site_fract_y
_atom_site_fract_z
Si Si1 0.903473 0.564170 0.781079
Si Si2 0.564443 0.809804 0.780498
Si Si3 0.141457 0.883727 0.300589
Si Si4 0.765527 0.431386 0.202889
Si Si5 0.819019 0.756511 0.793354
Si Si6 0.428413 0.500000 0.281557
O O1 0.923750 0.500000 0.720840
O O2 0.936772 0.622428 0.728600
O O3 0.833419 0.573746 0.727416
O O4 0.904098 0.562143 0.000000
O O5 0.500000 0.781994 0.725702
O O6 0.627343 0.782853 0.713038
O O7 0.566224 0.806957 0.000000
O O8 0.116495 0.873180 0.500000
O O9 0.210960 0.904721 0.309963
O O10 0.151111 0.821107 0.209773
O O11 0.104212 0.939305 0.221785
O O12 0.753765 0.500000 0.191474
O O13 0.763711 0.406732 0.000000
O O14 0.750000 0.750000 0.717508
O O15 0.812410 0.737843 0.000000
O O16 0.500000 0.500000 0.236422
O O17 0.422561 0.500000 0.500000
#
# Coordination Sequence:
#
# PCOD9491968 Si02
#       6
#    16  16  16  16  16   8
#     4   8  14  25  44  72 102 134 168 201 247 310
#     4   9  17  29  46  70 101 135 173 218 260 302
#     4  11  21  34  55  80 105 135 178 228 273 319
#     4   9  16  28  49  75 105 137 167 200 249 314
#     4  10  21  37  56  76 106 147 184 219 274 338
#     4   9  20  38  55  75 109 149 182 221 284 350
#
# _framework density 23.375556
#
# number of rings (size 3 to 8) (size 9 to 14) (size 15 to 20)
#    0.000    2.636    0.909    2.727    0.000    4.364 
#    0.000    1.818    0.000    3.818    0.000    0.000 
#    0.000    0.000    0.000   11.091    0.000   10.909 
#
# Total GULP energy -245264.550423 kJ/mol
# GULP energy per Si atom -5574.194328 kJ/mol
# Density = 2.332235 g / cm^3
# Si number density = 23.375556 Si / 1000 Ang^3
#
#
#
# Elastic Constant Matrix: (Units=GPa)
#
#
# Indices 1 2 3 4 5 6 
#
# 1 160.8780 85.8037 7.1094 0.0000 0.0000 0.0000
# 2 85.8037 133.7892 -1.0088 0.0000 0.0000 0.0000
# 3 7.1094 -1.0088 63.8598 0.0000 0.0000 0.0000
# 4 0.0000 0.0000 0.0000 49.0519 0.0000 0.0000
# 5 0.0000 0.0000 0.0000 0.0000 -12.2652 0.0000
# 6 0.0000 0.0000 0.0000 0.0000 0.0000 24.4589
#
#
#
# Elastic Compliance Matrix: (Units=1/GPa)
#
#
# Indices 1 2 3 4 5 6 
#
# 1 0.009532 -0.006122 -0.001158 0.000000 0.000000 0.000000
# 2 -0.006122 0.011407 0.000862 0.000000 0.000000 0.000000
# 3 -0.001158 0.000862 0.015802 0.000000 0.000000 0.000000
# 4 0.000000 0.000000 0.000000 0.020387 0.000000 0.000000
# 5 0.000000 0.000000 0.000000 0.000000 -0.081531 0.000000
# 6 0.000000 0.000000 0.000000 0.000000 0.000000 0.040885
#
#
# Mechanical properties :
#
#
# Convention : Reuss Voigt Hill
#
# Bulk Modulus (GPa) = 41.83254 60.25950 51.04602
# Shear Modulus (GPa) = 134.09697 30.02396 82.06046
#
# Velocity S-wave (km/s) = 7.58227 3.58776 5.93140
# Velocity P-wave (km/s) = 9.72570 6.55725 8.29418
#
# Compressibility (1/GPa) = 0.02390483
#
# Stress axis : x y z
#
# Youngs Moduli (GPa) = 104.90692 87.66347 63.28382
#
# Poissons Ratio (x) = 0.53668 0.07328
# Poissons Ratio (y) = 0.64225 -0.05454
# Poissons Ratio (z) = 0.12147 -0.07555
#
# Static dielectric constant tensor:
#      x y z
#    x 1.530640 0.000000 0.000000 
#    y 0.000000 1.901620 0.000000 
#    z 0.000000 0.000000 1.912750 
# 
# From -- ./inp_files/11758.got.cif
#   From: 2010.05.17/outbox.cif.g08.bks.cpg/sg65_6_cif.got.tgz:11758.got - 2010.06.03 17:01:31.
