data_PCOD9491308
_publ_section_title
;
Structure prediction by ZEFSAII (Michael W. Deem and Ramdas Pophale) SiO2 
 PCOD9491308
Probable space group: C M M M
;
_chemical_formula_sum "Si O2"
_cell_formula_units_Z 80
_cell_length_a 26.485472
_cell_length_b 15.621726
_cell_length_c 8.182367
_cell_angle_alpha 90.000000
_cell_angle_beta 90.000000
_cell_angle_gamma 90.000000
_cell_volume 3385.444417
_symmetry_space_group_name_H-M "C M M M"
_symmetry_group_IT_number 65
_symmetry_cell_setting 'orthorhombic'
loop_
_space_group_symop_operation_xyz
x,y,z
-x,-y,z
x,-y,-z
-x,y,-z
-x,-y,-z
x,y,-z
-x,y,z
x,-y,z
1/2+x,1/2+y,z
1/2-x,1/2-y,z
1/2+x,1/2-y,-z
1/2-x,1/2+y,-z
1/2-x,1/2-y,-z
1/2+x,1/2+y,-z
1/2-x,1/2+y,z
1/2+x,1/2-y,z
loop_
_atom_site_type_symbol
_atom_site_label
_atom_site_fract_x
_atom_site_fract_y
_atom_site_fract_z
Si Si1 0.500000 0.400942 0.305439
Si Si2 0.893882 0.901253 0.196872
Si Si3 0.500000 0.895901 0.187860
Si Si4 0.390586 0.901195 0.695792
Si Si5 0.286492 0.400521 0.812564
Si Si6 0.295495 0.808248 0.686348
O O1 0.500000 0.500000 0.239665
O O2 0.500000 0.403769 0.500000
O O3 0.447000 0.360647 0.249137
O O4 0.840001 0.860292 0.247967
O O5 0.896525 0.000000 0.260494
O O6 0.892377 0.903208 0.000000
O O7 0.552726 0.870675 0.268773
O O8 0.500000 0.000000 0.195078
O O9 0.500000 0.869186 0.000000
O O10 0.383396 0.903651 0.500000
O O11 0.348166 0.836695 0.763594
O O12 0.384970 0.000000 0.756157
O O13 0.299358 0.500000 0.823486
O O14 0.238665 0.393412 0.696254
O O15 0.275244 0.374766 0.000000
O O16 0.302868 0.779776 0.500000
O O17 0.250000 0.750000 0.761227
#
# Coordination Sequence:
#
# PCOD9491308 Si02
#       6
#     8  16   8  16  16  16
#     4   9  15  21  33  58  87 112 143 186 236 285
#     4   8  14  25  40  58  83 115 148 185 233 285
#     4   9  17  29  49  80 111 134 164 214 270 319
#     4   9  17  31  52  77 106 141 177 213 261 321
#     4   9  18  32  50  72  96 125 165 210 254 302
#     4  10  21  35  51  74 105 140 176 212 253 307
#
# _framework density 23.630576999999999
#
# number of rings (size 3 to 8) (size 9 to 14) (size 15 to 20)
#    0.000    3.000    0.000    2.400    0.000    5.600 
#    0.000    4.000    0.000    1.200    0.000    1.400 
#    0.000    0.000    0.000    0.000    0.000    2.000 
#
# Total GULP energy -222668.513036 kJ/mol
# GULP energy per Si atom -5566.712826 kJ/mol
# Density = 2.357679 g / cm^3
# Si number density = 23.630577 Si / 1000 Ang^3
#
#
#
# Elastic Constant Matrix: (Units=GPa)
#
#
# Indices 1 2 3 4 5 6 
#
# 1 177.5425 15.2714 10.5297 0.0000 0.0000 0.0000
# 2 15.2714 48.6698 5.4222 0.0000 0.0000 0.0000
# 3 10.5297 5.4222 34.6963 0.0000 0.0000 0.0000
# 4 0.0000 0.0000 0.0000 14.6242 0.0000 0.0000
# 5 0.0000 0.0000 0.0000 0.0000 22.7077 0.0000
# 6 0.0000 0.0000 0.0000 0.0000 0.0000 -1.6025
#
#
#
# Elastic Compliance Matrix: (Units=1/GPa)
#
#
# Indices 1 2 3 4 5 6 
#
# 1 0.005866 -0.001671 -0.001519 0.000000 0.000000 0.000000
# 2 -0.001671 0.021387 -0.002835 0.000000 0.000000 0.000000
# 3 -0.001519 -0.002835 0.029726 0.000000 0.000000 0.000000
# 4 0.000000 0.000000 0.000000 0.068380 0.000000 0.000000
# 5 0.000000 0.000000 0.000000 0.000000 0.044038 0.000000
# 6 0.000000 0.000000 0.000000 0.000000 0.000000 -0.624014
#
#
# Mechanical properties :
#
#
# Convention : Reuss Voigt Hill
#
# Bulk Modulus (GPa) = 22.25803 35.92838 29.09321
# Shear Modulus (GPa) = -11.69344 22.45821 5.38239
#
# Velocity S-wave (km/s) = -2.22692 3.08618 1.51085
# Velocity P-wave (km/s) = 1.68148 5.28550 3.92198
#
# Compressibility (1/GPa) = 0.04492760
#
# Stress axis : x y z
#
# Youngs Moduli (GPa) = 170.46448 46.75750 33.64109
#
# Poissons Ratio (x) = 0.07815 0.05110
# Poissons Ratio (y) = 0.28493 0.09537
# Poissons Ratio (z) = 0.25896 0.13256
#
# Static dielectric constant tensor:
#      x y z
#    x 2.065130 0.000000 0.000000 
#    y 0.000000 2.859370 0.000000 
#    z 0.000000 0.000000 1.825670 
# 
# From -- ./inp_files/13846.got.cif
#   From: 2010.05.17/outbox.cif.g08.bks.cpg/sg65_7_cif.got.tgz:13846.got - 2010.06.03 17:01:31.
