data_PCOD9491694
_publ_section_title
;
Structure prediction by ZEFSAII (Michael W. Deem and Ramdas Pophale) SiO2 
 PCOD9491694
Probable space group: C M M M
;
_chemical_formula_sum "Si O2"
_cell_formula_units_Z 104
_cell_length_a 9.225085
_cell_length_b 26.285992
_cell_length_c 21.992887
_cell_angle_alpha 90.000000
_cell_angle_beta 90.000000
_cell_angle_gamma 90.000000
_cell_volume 5333.066396
_symmetry_space_group_name_H-M "C M M M"
_symmetry_group_IT_number 65
_symmetry_cell_setting 'orthorhombic'
loop_
_space_group_symop_operation_xyz
x,y,z
-x,-y,z
x,-y,-z
-x,y,-z
-x,-y,-z
x,y,-z
-x,y,z
x,-y,z
1/2+x,1/2+y,z
1/2-x,1/2-y,z
1/2+x,1/2-y,-z
1/2-x,1/2+y,-z
1/2-x,1/2-y,-z
1/2+x,1/2+y,-z
1/2-x,1/2+y,z
1/2+x,1/2-y,z
loop_
_atom_site_type_symbol
_atom_site_label
_atom_site_fract_x
_atom_site_fract_y
_atom_site_fract_z
Si Si1 0.172227 0.841499 0.068463
Si Si2 0.173063 0.092046 0.635488
Si Si3 0.833668 0.408013 0.758887
Si Si4 0.826428 0.802744 0.571571
Si Si5 0.667852 0.202678 0.183804
Si Si6 0.172045 0.557509 0.105446
Si Si7 0.334182 0.000000 0.427618
O O1 0.254631 0.809947 0.119988
O O2 0.233265 0.898955 0.074606
O O3 0.000000 0.840867 0.079469
O O4 0.200100 0.823123 0.000000
O O5 0.225594 0.082582 0.704131
O O6 0.215336 0.148413 0.611756
O O7 0.250925 0.049681 0.595327
O O8 0.000000 0.087748 0.630490
O O9 0.824190 0.348602 0.777127
O O10 0.804118 0.437463 0.821782
O O11 0.000000 0.419289 0.740699
O O12 0.792409 0.812566 0.500000
O O13 0.750000 0.750000 0.589247
O O14 0.000000 0.796468 0.576229
O O15 0.500000 0.214851 0.173577
O O16 0.750000 0.250000 0.213021
O O17 0.202527 0.500000 0.085546
O O18 0.000000 0.568024 0.095539
O O19 0.500000 0.000000 0.404904
O O20 0.336527 0.000000 0.500000
#
# Coordination Sequence:
#
# PCOD9491694 Si02
#       7
#    16  16  16  16  16  16   8
#     4  10  21  36  54  80 113 146 185 234 284 338
#     4  11  23  38  59  88 119 153 193 238 291 347
#     4   9  20  37  56  81 112 147 186 229 276 330
#     4   9  19  36  57  81 111 146 184 229 279 333
#     4  10  21  38  60  83 111 150 190 233 286 338
#     4   9  19  36  57  79 106 145 186 228 282 336
#     4  11  25  43  63  87 117 157 200 243 294 351
#
# _framework density 19.500975
#
# number of rings (size 3 to 8) (size 9 to 14) (size 15 to 20)
#    0.000    2.231    0.000    3.000    1.077    8.308 
#    0.000    6.154    0.000    0.000    0.000    0.000 
#    0.000    0.000    0.000    0.000    0.000    0.000 
#
# Total GULP energy -290444.861710 kJ/mol
# GULP energy per Si atom -5585.478110 kJ/mol
# Density = 1.945659 g / cm^3
# Si number density = 19.500975 Si / 1000 Ang^3
#
#
#
# Elastic Constant Matrix: (Units=GPa)
#
#
# Indices 1 2 3 4 5 6 
#
# 1 74.6907 25.5220 29.6733 0.0000 0.0000 0.0000
# 2 25.5220 66.1227 -0.0109 0.0000 0.0000 0.0000
# 3 29.6733 -0.0109 45.5360 0.0000 0.0000 0.0000
# 4 0.0000 0.0000 0.0000 -96.1292 0.0000 0.0000
# 5 0.0000 0.0000 0.0000 0.0000 22.3348 0.0000
# 6 0.0000 0.0000 0.0000 0.0000 0.0000 30.2865
#
#
#
# Elastic Compliance Matrix: (Units=1/GPa)
#
#
# Indices 1 2 3 4 5 6 
#
# 1 0.021979 -0.008486 -0.014325 0.000000 0.000000 0.000000
# 2 -0.008486 0.018400 0.005534 0.000000 0.000000 0.000000
# 3 -0.014325 0.005534 0.031297 0.000000 0.000000 0.000000
# 4 0.000000 0.000000 0.000000 -0.010403 0.000000 0.000000
# 5 0.000000 0.000000 0.000000 0.000000 0.044773 0.000000
# 6 0.000000 0.000000 0.000000 0.000000 0.000000 0.033018
#
#
# Mechanical properties :
#
#
# Convention : Reuss Voigt Hill
#
# Bulk Modulus (GPa) = 26.93768 32.96870 29.95319
# Shear Modulus (GPa) = 26.88306 0.04275 13.46291
#
# Velocity S-wave (km/s) = 3.71691 0.14823 2.63034
# Velocity P-wave (km/s) = 5.68015 4.11973 4.96166
#
# Compressibility (1/GPa) = 0.03712272
#
# Stress axis : x y z
#
# Youngs Moduli (GPa) = 45.49772 54.34881 31.95239
#
# Poissons Ratio (x) = 0.46120 0.45771
# Poissons Ratio (y) = 0.38609 -0.17683
# Poissons Ratio (z) = 0.65174 -0.30077
#
# Static dielectric constant tensor:
#      x y z
#    x 1.651270 0.000000 0.000000 
#    y 0.000000 1.780750 0.000000 
#    z 0.000000 0.000000 1.674730 
# 
# From -- ./inp_files/60386.got.cif
#   From: 2010.05.17/outbox.cif.g08.bks.cpg/sg65_31_cif.got.tgz:60386.got - 2010.06.03 17:01:31.
