data_PCOD9491424
_publ_section_title
;
Structure prediction by ZEFSAII (Michael W. Deem and Ramdas Pophale) SiO2 
 PCOD9491424
Probable space group: C M M M
;
_chemical_formula_sum "Si O2"
_cell_formula_units_Z 96
_cell_length_a 31.113965
_cell_length_b 17.203705
_cell_length_c 9.264647
_cell_angle_alpha 90.000000
_cell_angle_beta 90.000000
_cell_angle_gamma 90.000000
_cell_volume 4959.138326
_symmetry_space_group_name_H-M "C M M M"
_symmetry_group_IT_number 65
_symmetry_cell_setting 'orthorhombic'
loop_
_space_group_symop_operation_xyz
x,y,z
-x,-y,z
x,-y,-z
-x,y,-z
-x,-y,-z
x,y,-z
-x,y,z
x,-y,z
1/2+x,1/2+y,z
1/2-x,1/2-y,z
1/2+x,1/2-y,-z
1/2-x,1/2+y,-z
1/2-x,1/2-y,-z
1/2+x,1/2+y,-z
1/2-x,1/2+y,z
1/2+x,1/2-y,z
loop_
_atom_site_type_symbol
_atom_site_label
_atom_site_fract_x
_atom_site_fract_y
_atom_site_fract_z
Si Si1 0.360630 0.412516 0.175125
Si Si2 0.223675 0.171887 0.173868
Si Si3 0.049208 0.320522 0.669145
Si Si4 0.122590 0.406240 0.164801
Si Si5 0.294975 0.908030 0.662202
Si Si6 0.951927 0.154557 0.173781
O O1 0.348646 0.500000 0.223442
O O2 0.325571 0.346858 0.217784
O O3 0.409764 0.393828 0.217075
O O4 0.360076 0.413378 0.000000
O O5 0.250000 0.250000 0.215817
O O6 0.252157 0.106058 0.248177
O O7 0.225485 0.167682 0.000000
O O8 0.059854 0.313543 0.500000
O O9 0.081447 0.377406 0.749379
O O10 0.051384 0.237078 0.746676
O O11 0.000000 0.348084 0.680900
O O12 0.123513 0.500000 0.161628
O O13 0.164849 0.376254 0.247060
O O14 0.122324 0.377890 0.000000
O O15 0.292650 0.875639 0.500000
O O16 0.301951 0.000000 0.650491
O O17 0.000000 0.122022 0.205232
O O18 0.949912 0.165619 0.000000
#
# Coordination Sequence:
#
# PCOD9491424 Si02
#       6
#    16  16  16  16  16  16
#     4   9  18  33  54  81 113 146 183 234 289 337
#     4  10  21  35  54  82 112 148 191 233 279 333
#     4  10  21  36  54  78 111 149 185 227 283 341
#     4  10  21  36  56  81 108 143 188 235 282 334
#     4  10  21  37  56  79 110 146 184 229 281 335
#     4   9  18  33  55  82 109 142 186 233 283 341
#
# _framework density 19.358201000000001
#
# number of rings (size 3 to 8) (size 9 to 14) (size 15 to 20)
#    0.000    2.333    0.000    2.000    2.333    4.667 
#    0.000    4.167    0.000    1.500    0.000    2.333 
#    0.000    0.000    0.000    0.000    0.000    0.000 
#
# Total GULP energy -267530.433979 kJ/mol
# GULP energy per Si atom -5573.550708 kJ/mol
# Density = 1.931414 g / cm^3
# Si number density = 19.358201 Si / 1000 Ang^3
#
#
#
# Elastic Constant Matrix: (Units=GPa)
#
#
# Indices 1 2 3 4 5 6 
#
# 1 135.1000 41.0199 29.5404 0.0000 0.0000 0.0000
# 2 41.0199 30.6151 15.8728 0.0000 0.0000 0.0000
# 3 29.5404 15.8728 20.5886 0.0000 0.0000 0.0000
# 4 0.0000 0.0000 0.0000 14.6470 0.0000 0.0000
# 5 0.0000 0.0000 0.0000 0.0000 -6.1116 0.0000
# 6 0.0000 0.0000 0.0000 0.0000 0.0000 23.9458
#
#
#
# Elastic Compliance Matrix: (Units=1/GPa)
#
#
# Indices 1 2 3 4 5 6 
#
# 1 0.013405 -0.013308 -0.008973 0.000000 0.000000 0.000000
# 2 -0.013308 0.067625 -0.033041 0.000000 0.000000 0.000000
# 3 -0.008973 -0.033041 0.086918 0.000000 0.000000 0.000000
# 4 0.000000 0.000000 0.000000 0.068274 0.000000 0.000000
# 5 0.000000 0.000000 0.000000 0.000000 -0.163623 0.000000
# 6 0.000000 0.000000 0.000000 0.000000 0.000000 0.041761
#
#
# Mechanical properties :
#
#
# Convention : Reuss Voigt Hill
#
# Bulk Modulus (GPa) = 17.45106 39.90779 28.67943
# Shear Modulus (GPa) = 20.48300 13.15428 16.81864
#
# Velocity S-wave (km/s) = 3.25638 2.60959 2.95076
# Velocity P-wave (km/s) = 4.81384 5.45345 5.14360
#
# Compressibility (1/GPa) = 0.05730312
#
# Stress axis : x y z
#
# Youngs Moduli (GPa) = 74.60115 14.78735 11.50510
#
# Poissons Ratio (x) = 0.19679 0.10323
# Poissons Ratio (y) = 0.99281 0.38014
# Poissons Ratio (z) = 0.66939 0.48859
#
# Static dielectric constant tensor:
#      x y z
#    x 1.688380 0.000000 0.000000 
#    y 0.000000 1.695310 0.000000 
#    z 0.000000 0.000000 1.648520 
# 
# From -- ./inp_files/16312.got.cif
#   From: 2010.05.17/outbox.cif.g08.bks.cpg/sg65_9_cif.got.tgz:16312.got - 2010.06.03 17:01:31.
