data_PCOD9491121
_publ_section_title
;
Structure prediction by ZEFSAII (Michael W. Deem and Ramdas Pophale) SiO2 
 PCOD9491121
Probable space group: C M M M
;
_chemical_formula_sum "Si O2"
_cell_formula_units_Z 104
_cell_length_a 14.116845
_cell_length_b 30.028712
_cell_length_c 14.597063
_cell_angle_alpha 90.000000
_cell_angle_beta 90.000000
_cell_angle_gamma 90.000000
_cell_volume 6187.850798
_symmetry_space_group_name_H-M "C M M M"
_symmetry_group_IT_number 65
_symmetry_cell_setting 'orthorhombic'
loop_
_space_group_symop_operation_xyz
x,y,z
-x,-y,z
x,-y,-z
-x,y,-z
-x,-y,-z
x,y,-z
-x,y,z
x,-y,z
1/2+x,1/2+y,z
1/2-x,1/2-y,z
1/2+x,1/2-y,-z
1/2-x,1/2+y,-z
1/2-x,1/2-y,-z
1/2+x,1/2+y,-z
1/2-x,1/2+y,z
1/2+x,1/2-y,z
loop_
_atom_site_type_symbol
_atom_site_label
_atom_site_fract_x
_atom_site_fract_y
_atom_site_fract_z
Si Si1 0.113297 0.296357 0.893040
Si Si2 0.738188 0.866938 0.219563
Si Si3 0.791367 0.448239 0.889104
Si Si4 0.613229 0.759900 0.402544
Si Si5 0.386242 0.290031 0.222269
Si Si6 0.612763 0.133985 0.605930
Si Si7 0.000000 0.446292 0.897758
O O1 0.165034 0.334516 0.834998
O O2 0.135608 0.246518 0.856459
O O3 0.000000 0.302045 0.881327
O O4 0.136825 0.300637 0.000000
O O5 0.766251 0.910681 0.162033
O O6 0.830581 0.835945 0.223308
O O7 0.686283 0.880580 0.315055
O O8 0.771595 0.500000 0.867958
O O9 0.898891 0.436366 0.856353
O O10 0.789110 0.444348 0.000000
O O11 0.648946 0.742820 0.500000
O O12 0.500000 0.754113 0.402468
O O13 0.647131 0.734089 0.315025
O O14 0.627036 0.812551 0.395217
O O15 0.500000 0.296244 0.221744
O O16 0.629046 0.118619 0.500000
O O17 0.500000 0.125718 0.626900
O O18 0.000000 0.500000 0.907042
O O19 0.000000 0.426321 0.000000
#
# Coordination Sequence:
#
# PCOD9491121 Si02
#       7
#    16  16  16  16  16  16   8
#     4  10  21  34  47  68 101 133 160 196 240 294
#     4  12  21  30  53  76  92 129 174 203 241 298
#     4   9  19  34  51  74 101 124 156 208 256 293
#     4   8  14  28  48  66  93 132 165 198 238 276
#     4  10  21  35  46  67 103 134 165 206 246 285
#     4   9  18  31  47  72 105 134 163 200 238 283
#     4   7  12  26  46  68  95 119 137 177 244 294
#
# _framework density 16.807127000000001
#
# number of rings (size 3 to 8) (size 9 to 14) (size 15 to 20)
#    0.000    2.538    1.538    3.231    2.154    2.462 
#    0.000    1.538    0.000    0.923    0.000    2.154 
#    0.000    0.000    0.000    5.231    0.000    0.000 
#
# Total GULP energy -289579.942112 kJ/mol
# GULP energy per Si atom -5568.845041 kJ/mol
# Density = 1.676887 g / cm^3
# Si number density = 16.807127 Si / 1000 Ang^3
#
#
#
# Elastic Constant Matrix: (Units=GPa)
#
#
# Indices 1 2 3 4 5 6 
#
# 1 54.8686 20.1906 27.0048 0.0000 0.0000 0.0000
# 2 20.1906 60.4105 28.8585 0.0000 0.0000 0.0000
# 3 27.0048 28.8585 79.7646 0.0000 0.0000 0.0000
# 4 0.0000 0.0000 0.0000 20.4549 0.0000 0.0000
# 5 0.0000 0.0000 0.0000 0.0000 -0.7453 0.0000
# 6 0.0000 0.0000 0.0000 0.0000 0.0000 16.2293
#
#
#
# Elastic Compliance Matrix: (Units=1/GPa)
#
#
# Indices 1 2 3 4 5 6 
#
# 1 0.022961 -0.004788 -0.006041 0.000000 0.000000 0.000000
# 2 -0.004788 0.021011 -0.005981 0.000000 0.000000 0.000000
# 3 -0.006041 -0.005981 0.016746 0.000000 0.000000 0.000000
# 4 0.000000 0.000000 0.000000 0.048888 0.000000 0.000000
# 5 0.000000 0.000000 0.000000 0.000000 -1.341731 0.000000
# 6 0.000000 0.000000 0.000000 0.000000 0.000000 0.061617
#
#
# Mechanical properties :
#
#
# Convention : Reuss Voigt Hill
#
# Bulk Modulus (GPa) = 36.90361 38.57239 37.73800
# Shear Modulus (GPa) = -4.43319 15.12042 5.34362
#
# Velocity S-wave (km/s) = -1.62586 3.00266 1.78501
# Velocity P-wave (km/s) = 4.29887 5.91787 5.17211
#
# Compressibility (1/GPa) = 0.02709762
#
# Stress axis : x y z
#
# Youngs Moduli (GPa) = 43.55298 47.59495 59.71620
#
# Poissons Ratio (x) = 0.22789 0.36075
# Poissons Ratio (y) = 0.20853 0.35713
# Poissons Ratio (z) = 0.26311 0.28464
#
# Static dielectric constant tensor:
#      x y z
#    x 1.615570 0.000000 0.000000 
#    y 0.000000 1.545310 0.000000 
#    z 0.000000 0.000000 1.620210 
# 
# From -- ./inp_files/40846.got.cif
#   From: 2010.05.17/outbox.cif.g08.bks.cpg/sg65_21_cif.got.tgz:40846.got - 2010.06.03 17:01:31.
