data_PCOD9491457
_publ_section_title
;
Structure prediction by ZEFSAII (Michael W. Deem and Ramdas Pophale) SiO2 
 PCOD9491457
Probable space group: C M M M
;
_chemical_formula_sum "Si O2"
_cell_formula_units_Z 88
_cell_length_a 21.540082
_cell_length_b 16.338038
_cell_length_c 13.297282
_cell_angle_alpha 90.000000
_cell_angle_beta 90.000000
_cell_angle_gamma 90.000000
_cell_volume 4679.615095
_symmetry_space_group_name_H-M "C M M M"
_symmetry_group_IT_number 65
_symmetry_cell_setting 'orthorhombic'
loop_
_space_group_symop_operation_xyz
x,y,z
-x,-y,z
x,-y,-z
-x,y,-z
-x,-y,-z
x,y,-z
-x,y,z
x,-y,z
1/2+x,1/2+y,z
1/2-x,1/2-y,z
1/2+x,1/2-y,-z
1/2-x,1/2+y,-z
1/2-x,1/2-y,-z
1/2+x,1/2+y,-z
1/2-x,1/2+y,z
1/2+x,1/2-y,z
loop_
_atom_site_type_symbol
_atom_site_label
_atom_site_fract_x
_atom_site_fract_y
_atom_site_fract_z
Si Si1 0.180509 0.712400 0.616655
Si Si2 0.429833 0.500000 0.759446
Si Si3 0.070972 0.843741 0.617284
Si Si4 0.812639 0.000000 0.119782
Si Si5 0.868942 0.401923 0.208938
Si Si6 0.754189 0.341111 0.885522
Si Si7 0.000000 0.400415 0.117585
O O1 0.175894 0.685221 0.500000
O O2 0.250000 0.750000 0.627815
O O3 0.126595 0.780047 0.633449
O O4 0.161945 0.640774 0.693966
O O5 0.500000 0.500000 0.795336
O O6 0.420494 0.579243 0.689674
O O7 0.383674 0.500000 0.851906
O O8 0.073972 0.869316 0.500000
O O9 0.000000 0.811352 0.633247
O O10 0.783340 0.916254 0.162665
O O11 0.800708 0.000000 0.000000
O O12 0.867316 0.500000 0.217828
O O13 0.824482 0.371865 0.119281
O O14 0.938467 0.375989 0.179068
O O15 0.750000 0.250000 0.841686
O O16 0.731375 0.333323 0.000000
O O17 0.000000 0.500000 0.114065
O O18 0.000000 0.373179 0.000000
#
# Coordination Sequence:
#
# PCOD9491457 Si02
#       7
#    16   8  16   8  16  16   8
#     4  10  23  40  57  85 122 155 192 243 297 352
#     4  10  21  35  58  85 112 147 188 236 285 342
#     4   9  19  37  61  85 110 147 193 240 288 341
#     4  10  22  38  57  85 118 153 194 232 290 355
#     4  11  22  36  60  85 114 156 194 240 294 352
#     4  10  21  37  59  84 110 147 194 244 290 346
#     4   9  20  38  59  87 119 148 192 247 296 345
#
# _framework density 18.804964999999999
#
# number of rings (size 3 to 8) (size 9 to 14) (size 15 to 20)
#    0.000    2.091    0.909    1.364    6.364    2.364 
#    0.000    0.000    0.000    1.636    0.000    0.000 
#    0.000    0.000    0.000    0.000    0.000    0.000 
#
# Total GULP energy -245168.651121 kJ/mol
# GULP energy per Si atom -5572.014798 kJ/mol
# Density = 1.876216 g / cm^3
# Si number density = 18.804965 Si / 1000 Ang^3
#
#
#
# Elastic Constant Matrix: (Units=GPa)
#
#
# Indices 1 2 3 4 5 6 
#
# 1 126.4761 50.4864 22.6257 0.0000 0.0000 0.0000
# 2 50.4864 101.7919 31.9170 0.0000 0.0000 0.0000
# 3 22.6257 31.9170 58.3354 0.0000 0.0000 0.0000
# 4 0.0000 0.0000 0.0000 -91.6933 0.0000 0.0000
# 5 0.0000 0.0000 0.0000 0.0000 -224.2565 0.0000
# 6 0.0000 0.0000 0.0000 0.0000 0.0000 21.8624
#
#
#
# Elastic Compliance Matrix: (Units=1/GPa)
#
#
# Indices 1 2 3 4 5 6 
#
# 1 0.009952 -0.004497 -0.001399 0.000000 0.000000 0.000000
# 2 -0.004497 0.013891 -0.005856 0.000000 0.000000 0.000000
# 3 -0.001399 -0.005856 0.020889 0.000000 0.000000 0.000000
# 4 0.000000 0.000000 0.000000 -0.010906 0.000000 0.000000
# 5 0.000000 0.000000 0.000000 0.000000 -0.004459 0.000000
# 6 0.000000 0.000000 0.000000 0.000000 0.000000 0.045741
#
#
# Mechanical properties :
#
#
# Convention : Reuss Voigt Hill
#
# Bulk Modulus (GPa) = 47.11002 55.18461 51.14732
# Shear Modulus (GPa) = 47.30934 -46.71254 0.29840
#
# Velocity S-wave (km/s) = 5.02121 -4.98944 0.39878
# Velocity P-wave (km/s) = 7.66309 1.94503 5.24117
#
# Compressibility (1/GPa) = 0.02122690
#
# Stress axis : x y z
#
# Youngs Moduli (GPa) = 100.48045 71.99146 47.87251
#
# Poissons Ratio (x) = 0.32376 0.06699
# Poissons Ratio (y) = 0.45189 0.28032
# Poissons Ratio (z) = 0.14062 0.42156
#
# Static dielectric constant tensor:
#      x y z
#    x 1.674640 0.000000 0.000000 
#    y 0.000000 1.654770 0.000000 
#    z 0.000000 0.000000 1.663220 
# 
# From -- ./inp_files/42547.got.cif
#   From: 2010.05.17/outbox.cif.g08.bks.cpg/sg65_22_cif.got.tgz:42547.got - 2010.06.03 17:01:31.
