data_PCOD9491494
_publ_section_title
;
Structure prediction by ZEFSAII (Michael W. Deem and Ramdas Pophale) SiO2 
 PCOD9491494
Probable space group: C M M M
;
_chemical_formula_sum "Si O2"
_cell_formula_units_Z 96
_cell_length_a 18.974791
_cell_length_b 14.974175
_cell_length_c 14.974426
_cell_angle_alpha 90.000000
_cell_angle_beta 90.000000
_cell_angle_gamma 90.000000
_cell_volume 4254.711228
_symmetry_space_group_name_H-M "C M M M"
_symmetry_group_IT_number 65
_symmetry_cell_setting 'orthorhombic'
loop_
_space_group_symop_operation_xyz
x,y,z
-x,-y,z
x,-y,-z
-x,y,-z
-x,-y,-z
x,y,-z
-x,y,z
x,-y,z
1/2+x,1/2+y,z
1/2-x,1/2-y,z
1/2+x,1/2-y,-z
1/2-x,1/2+y,-z
1/2-x,1/2-y,-z
1/2+x,1/2+y,-z
1/2-x,1/2+y,z
1/2+x,1/2-y,z
loop_
_atom_site_type_symbol
_atom_site_label
_atom_site_fract_x
_atom_site_fract_y
_atom_site_fract_z
Si Si1 0.779309 0.851946 0.400579
Si Si2 0.583985 0.898036 0.275508
Si Si3 0.919285 0.891832 0.895399
Si Si4 0.420795 0.737309 0.396681
Si Si5 0.350541 0.897130 0.096141
Si Si6 0.721684 0.648831 0.203176
O O1 0.762557 0.890258 0.500000
O O2 0.750000 0.750000 0.403583
O O3 0.864044 0.840771 0.392150
O O4 0.761647 0.889875 0.302246
O O5 0.500000 0.902609 0.282401
O O6 0.607329 0.824293 0.345731
O O7 0.605251 0.861495 0.178656
O O8 0.610260 0.000000 0.287873
O O9 0.858824 0.856353 0.829171
O O10 0.000000 0.863870 0.874249
O O11 0.917072 0.000000 0.889875
O O12 0.905342 0.868732 0.000000
O O13 0.425057 0.762813 0.500000
O O14 0.500000 0.714532 0.365722
O O15 0.269846 0.896083 0.127647
O O16 0.373333 0.000000 0.089236
O O17 0.359410 0.853268 0.000000
O O18 0.750000 0.750000 0.205473
#
# Coordination Sequence:
#
# PCOD9491494 Si02
#       6
#    16  16  16  16  16  16
#     4   9  18  32  49  69  96 131 166 200 247 311
#     4   9  17  29  46  69  96 127 166 207 242 283
#     4   9  19  37  59  80 105 143 187 223 260 315
#     4   9  17  30  48  69  95 127 161 197 240 292
#     4  10  21  36  52  70  97 136 175 207 249 311
#     4  11  21  33  54  82 107 131 165 220 276 314
#
# _framework density 22.563223000000001
#
# number of rings (size 3 to 8) (size 9 to 14) (size 15 to 20)
#    0.000    2.500    0.000    3.500    0.000    4.000 
#    0.000    4.167    0.000    3.000    0.000    1.167 
#    0.000    0.000    0.000    0.000    0.000    0.000 
#
# Total GULP energy -267695.494408 kJ/mol
# GULP energy per Si atom -5576.989467 kJ/mol
# Density = 2.251187 g / cm^3
# Si number density = 22.563223 Si / 1000 Ang^3
#
#
#
# Elastic Constant Matrix: (Units=GPa)
#
#
# Indices 1 2 3 4 5 6 
#
# 1 71.3054 9.7343 -0.9371 0.0000 0.0000 0.0000
# 2 9.7343 41.0057 12.1515 0.0000 0.0000 0.0000
# 3 -0.9371 12.1515 88.1249 0.0000 0.0000 0.0000
# 4 0.0000 0.0000 0.0000 -1.7387 0.0000 0.0000
# 5 0.0000 0.0000 0.0000 0.0000 33.9227 0.0000
# 6 0.0000 0.0000 0.0000 0.0000 0.0000 22.2735
#
#
#
# Elastic Compliance Matrix: (Units=1/GPa)
#
#
# Indices 1 2 3 4 5 6 
#
# 1 0.014530 -0.003644 0.000657 0.000000 0.000000 0.000000
# 2 -0.003644 0.026340 -0.003671 0.000000 0.000000 0.000000
# 3 0.000657 -0.003671 0.011861 0.000000 0.000000 0.000000
# 4 0.000000 0.000000 0.000000 -0.575126 0.000000 0.000000
# 5 0.000000 0.000000 0.000000 0.000000 0.029479 0.000000
# 6 0.000000 0.000000 0.000000 0.000000 0.000000 0.044896
#
#
# Mechanical properties :
#
#
# Convention : Reuss Voigt Hill
#
# Bulk Modulus (GPa) = 25.37096 26.92592 26.14844
# Shear Modulus (GPa) = -11.86053 22.85731 5.49839
#
# Velocity S-wave (km/s) = -2.29521 3.18627 1.56275
# Velocity P-wave (km/s) = 2.06029 5.04935 3.85621
#
# Compressibility (1/GPa) = 0.03941514
#
# Stress axis : x y z
#
# Youngs Moduli (GPa) = 68.82172 37.96553 84.31224
#
# Poissons Ratio (x) = 0.13835 -0.05539
# Poissons Ratio (y) = 0.25079 0.30949
# Poissons Ratio (z) = -0.04522 0.13936
#
# Static dielectric constant tensor:
#      x y z
#    x 1.882270 0.000000 0.000000 
#    y 0.000000 1.866170 0.000000 
#    z 0.000000 0.000000 1.883400 
# 
# From -- ./inp_files/29035.got.cif
#   From: 2010.05.17/outbox.cif.g08.bks.cpg/sg65_15_cif.got.tgz:29035.got - 2010.06.03 17:01:31.
