data_PCOD9491501
_publ_section_title
;
Structure prediction by ZEFSAII (Michael W. Deem and Ramdas Pophale) SiO2 
 PCOD9491501
Probable space group: C M M M
;
_chemical_formula_sum "Si O2"
_cell_formula_units_Z 72
_cell_length_a 16.146599
_cell_length_b 17.604891
_cell_length_c 13.154133
_cell_angle_alpha 90.000000
_cell_angle_beta 90.000000
_cell_angle_gamma 90.000000
_cell_volume 3739.182211
_symmetry_space_group_name_H-M "C M M M"
_symmetry_group_IT_number 65
_symmetry_cell_setting 'orthorhombic'
loop_
_space_group_symop_operation_xyz
x,y,z
-x,-y,z
x,-y,-z
-x,y,-z
-x,-y,-z
x,y,-z
-x,y,z
x,-y,z
1/2+x,1/2+y,z
1/2-x,1/2-y,z
1/2+x,1/2-y,-z
1/2-x,1/2+y,-z
1/2-x,1/2-y,-z
1/2+x,1/2+y,-z
1/2-x,1/2+y,z
1/2+x,1/2-y,z
loop_
_atom_site_type_symbol
_atom_site_label
_atom_site_fract_x
_atom_site_fract_y
_atom_site_fract_z
Si Si1 0.898257 0.087237 0.000000
Si Si2 0.101025 0.628640 0.110067
Si Si3 0.599895 0.918646 0.669441
Si Si4 0.651392 0.750892 0.389789
Si Si5 0.400534 0.702243 0.171829
O O1 0.870849 0.133951 0.899766
O O2 0.000000 0.087465 0.000000
O O3 0.871565 0.000000 0.000000
O O4 0.126427 0.586307 0.212201
O O5 0.126171 0.716614 0.125142
O O6 0.000000 0.626369 0.109357
O O7 0.129372 0.600548 0.000000
O O8 0.500000 0.918600 0.666231
O O9 0.626111 0.839298 0.621051
O O10 0.628271 0.000000 0.626620
O O11 0.621194 0.722615 0.500000
O O12 0.750000 0.750000 0.388992
O O13 0.622257 0.705169 0.290528
O O14 0.500000 0.701836 0.166517
#
# Coordination Sequence:
#
# PCOD9491501 Si02
#       5
#     8  16  16  16  16
#     4   9  16  28  51  80 103 125 161 214 270 316
#     4   8  12  21  41  69 101 132 159 192 241 304
#     4   9  18  31  50  78 106 133 169 216 266 308
#     4  10  21  36  52  72 100 140 183 215 255 315
#     4   9  16  29  51  77 101 129 169 214 260 312
#
# _framework density 19.255547
#
# number of rings (size 3 to 8) (size 9 to 14) (size 15 to 20)
#    0.000    3.000    1.111    2.000    0.000    2.667 
#    0.000    5.000    0.000    2.000    0.000    3.111 
#    0.000    0.000    0.000    0.000    0.000    0.000 
#
# Total GULP energy -200526.267893 kJ/mol
# GULP energy per Si atom -5570.174108 kJ/mol
# Density = 1.921172 g / cm^3
# Si number density = 19.255547 Si / 1000 Ang^3
#
#
#
# Elastic Constant Matrix: (Units=GPa)
#
#
# Indices 1 2 3 4 5 6 
#
# 1 8.0553 20.0425 5.1286 0.0000 0.0000 0.0000
# 2 20.0425 118.8070 52.8554 0.0000 0.0000 0.0000
# 3 5.1286 52.8554 150.5928 0.0000 0.0000 0.0000
# 4 0.0000 0.0000 0.0000 6.8707 0.0000 0.0000
# 5 0.0000 0.0000 0.0000 0.0000 7.8307 0.0000
# 6 0.0000 0.0000 0.0000 0.0000 0.0000 4.7899
#
#
#
# Elastic Compliance Matrix: (Units=1/GPa)
#
#
# Indices 1 2 3 4 5 6 
#
# 1 0.219239 -0.039893 0.006535 0.000000 0.000000 0.000000
# 2 -0.039893 0.017233 -0.004690 0.000000 0.000000 0.000000
# 3 0.006535 -0.004690 0.008064 0.000000 0.000000 0.000000
# 4 0.000000 0.000000 0.000000 0.145545 0.000000 0.000000
# 5 0.000000 0.000000 0.000000 0.000000 0.127703 0.000000
# 6 0.000000 0.000000 0.000000 0.000000 0.000000 0.208772
#
#
# Mechanical properties :
#
#
# Convention : Reuss Voigt Hill
#
# Bulk Modulus (GPa) = 5.93677 48.16758 27.05217
# Shear Modulus (GPa) = 5.82208 17.19349 11.50779
#
# Velocity S-wave (km/s) = 1.74073 2.99140 2.44731
# Velocity P-wave (km/s) = 2.67021 6.08281 4.69737
#
# Compressibility (1/GPa) = 0.16844167
#
# Stress axis : x y z
#
# Youngs Moduli (GPa) = 4.56122 58.02689 124.00824
#
# Poissons Ratio (x) = 2.31485 -0.81042
# Poissons Ratio (y) = 0.18196 0.58160
# Poissons Ratio (z) = -0.02981 0.27215
#
# Static dielectric constant tensor:
#      x y z
#    x 1.695320 0.000000 0.000000 
#    y 0.000000 1.685370 0.000000 
#    z 0.000000 0.000000 1.719360 
# 
# From -- ./inp_files/39772.got.cif
#   From: 2010.05.17/outbox.cif.g08.bks.cpg/sg65_20_cif.got.tgz:39772.got - 2010.06.03 17:01:31.
