data_PCOD9491150
_publ_section_title
;
Structure prediction by ZEFSAII (Michael W. Deem and Ramdas Pophale) SiO2 
 PCOD9491150
Probable space group: C M M M
;
_chemical_formula_sum "Si O2"
_cell_formula_units_Z 88
_cell_length_a 21.848082
_cell_length_b 7.480800
_cell_length_c 24.582467
_cell_angle_alpha 90.000000
_cell_angle_beta 90.000000
_cell_angle_gamma 90.000000
_cell_volume 4017.786230
_symmetry_space_group_name_H-M "C M M M"
_symmetry_group_IT_number 65
_symmetry_cell_setting 'orthorhombic'
loop_
_space_group_symop_operation_xyz
x,y,z
-x,-y,z
x,-y,-z
-x,y,-z
-x,-y,-z
x,y,-z
-x,y,z
x,-y,z
1/2+x,1/2+y,z
1/2-x,1/2-y,z
1/2+x,1/2-y,-z
1/2-x,1/2+y,-z
1/2-x,1/2-y,-z
1/2+x,1/2+y,-z
1/2-x,1/2+y,z
1/2+x,1/2-y,z
loop_
_atom_site_type_symbol
_atom_site_label
_atom_site_fract_x
_atom_site_fract_y
_atom_site_fract_z
Si Si1 0.932661 0.286722 0.761704
Si Si2 0.134973 0.280854 0.938478
Si Si3 0.816597 0.286411 0.827693
Si Si4 0.000000 0.701508 0.934039
Si Si5 0.318640 0.714225 0.562171
Si Si6 0.932015 0.215175 0.633638
O O1 0.934374 0.500000 0.770677
O O2 0.874185 0.215412 0.793910
O O3 0.924889 0.257399 0.697332
O O4 0.000000 0.216190 0.777800
O O5 0.132967 0.500000 0.940208
O O6 0.178795 0.222124 0.890130
O O7 0.066233 0.220050 0.921822
O O8 0.149220 0.222305 0.000000
O O9 0.822801 0.500000 0.829551
O O10 0.750000 0.250000 0.803956
O O11 0.000000 0.500000 0.910802
O O12 0.000000 0.689043 0.000000
O O13 0.321929 0.782534 0.500000
O O14 0.324648 0.500000 0.559833
O O15 0.250000 0.750000 0.583310
O O16 0.374607 0.782437 0.598723
O O17 0.000000 0.279255 0.616610
O O18 0.932653 0.000000 0.628753
#
# Coordination Sequence:
#
# PCOD9491150 Si02
#       6
#    16  16  16   8  16  16
#     4   9  19  35  53  72  95 126 164 206 248 287
#     4   8  14  25  43  68  95 121 152 193 240 287
#     4  10  21  34  49  71  99 128 159 197 242 293
#     4   7  10  18  36  64  91 111 139 185 232 269
#     4   9  18  32  50  74 104 136 168 202 241 286
#     4   9  18  33  53  76 100 128 164 204 246 291
#
# _framework density 21.902608000000001
#
# number of rings (size 3 to 8) (size 9 to 14) (size 15 to 20)
#    0.000    3.182    0.000    1.091    1.273    2.909 
#    0.000    5.455    0.000    0.000    0.000    5.091 
#    0.000    2.182    0.000    0.000    0.000    0.000 
#
# Total GULP energy -245394.903896 kJ/mol
# GULP energy per Si atom -5577.156907 kJ/mol
# Density = 2.185276 g / cm^3
# Si number density = 21.902608 Si / 1000 Ang^3
#
#
#
# Elastic Constant Matrix: (Units=GPa)
#
#
# Indices 1 2 3 4 5 6 
#
# 1 217.7456 4.9750 102.1322 0.0000 0.0000 0.0000
# 2 4.9750 63.2921 1.6052 0.0000 0.0000 0.0000
# 3 102.1322 1.6052 79.2257 0.0000 0.0000 0.0000
# 4 0.0000 0.0000 0.0000 18.1241 0.0000 0.0000
# 5 0.0000 0.0000 0.0000 0.0000 144.2086 0.0000
# 6 0.0000 0.0000 0.0000 0.0000 0.0000 11.7731
#
#
#
# Elastic Compliance Matrix: (Units=1/GPa)
#
#
# Indices 1 2 3 4 5 6 
#
# 1 0.011635 -0.000534 -0.014988 0.000000 0.000000 0.000000
# 2 -0.000534 0.015832 0.000368 0.000000 0.000000 0.000000
# 3 -0.014988 0.000368 0.031936 0.000000 0.000000 0.000000
# 4 0.000000 0.000000 0.000000 0.055175 0.000000 0.000000
# 5 0.000000 0.000000 0.000000 0.000000 0.006934 0.000000
# 6 0.000000 0.000000 0.000000 0.000000 0.000000 0.084940
#
#
# Mechanical properties :
#
#
# Convention : Reuss Voigt Hill
#
# Bulk Modulus (GPa) = 34.37027 64.18757 49.27892
# Shear Modulus (GPa) = 20.28742 51.59122 35.93932
#
# Velocity S-wave (km/s) = 3.04675 4.85860 4.05516
# Velocity P-wave (km/s) = 5.30125 7.80027 6.66886
#
# Compressibility (1/GPa) = 0.02909491
#
# Stress axis : x y z
#
# Youngs Moduli (GPa) = 85.95058 63.16149 31.31287
#
# Poissons Ratio (x) = 0.03375 0.46931
# Poissons Ratio (y) = 0.04593 -0.01153
# Poissons Ratio (z) = 1.28820 -0.02325
#
# Static dielectric constant tensor:
#      x y z
#    x 1.826190 0.000000 0.000000 
#    y 0.000000 1.869960 0.000000 
#    z 0.000000 0.000000 1.772100 
# 
# From -- ./inp_files/71028.got.cif
#   From: 2010.05.17/outbox.cif.g08.bks.cpg/sg65_36_cif.got.tgz:71028.got - 2010.06.03 17:01:31.
