data_PCOD9491528
_publ_section_title
;
Structure prediction by ZEFSAII (Michael W. Deem and Ramdas Pophale) SiO2 
 PCOD9491528
Probable space group: C M M M
;
_chemical_formula_sum "Si O2"
_cell_formula_units_Z 72
_cell_length_a 8.937349
_cell_length_b 16.109771
_cell_length_c 25.794908
_cell_angle_alpha 90.000000
_cell_angle_beta 90.000000
_cell_angle_gamma 90.000000
_cell_volume 3713.915921
_symmetry_space_group_name_H-M "C M M M"
_symmetry_group_IT_number 65
_symmetry_cell_setting 'orthorhombic'
loop_
_space_group_symop_operation_xyz
x,y,z
-x,-y,z
x,-y,-z
-x,y,-z
-x,-y,-z
x,y,-z
-x,y,z
x,-y,z
1/2+x,1/2+y,z
1/2-x,1/2-y,z
1/2+x,1/2-y,-z
1/2-x,1/2+y,-z
1/2-x,1/2-y,-z
1/2+x,1/2+y,-z
1/2-x,1/2+y,z
1/2+x,1/2-y,z
loop_
_atom_site_type_symbol
_atom_site_label
_atom_site_fract_x
_atom_site_fract_y
_atom_site_fract_z
Si Si1 0.678245 0.158976 0.556206
Si Si2 0.680656 0.598692 0.227444
Si Si3 0.331382 0.401030 0.341433
Si Si4 0.318068 0.000000 0.940536
Si Si5 0.679742 0.163606 0.123429
O O1 0.719484 0.119916 0.500000
O O2 0.500000 0.164845 0.557920
O O3 0.750000 0.250000 0.556567
O O4 0.735775 0.116099 0.607970
O O5 0.500000 0.607462 0.223895
O O6 0.714393 0.500000 0.222147
O O7 0.725813 0.628312 0.285247
O O8 0.761532 0.646281 0.181451
O O9 0.500000 0.367799 0.349542
O O10 0.342512 0.500000 0.335504
O O11 0.272651 0.083717 0.910591
O O12 0.500000 0.000000 0.940615
O O13 0.267145 0.000000 0.000000
O O14 0.500000 0.168896 0.122988
O O15 0.750000 0.250000 0.104635
#
# Coordination Sequence:
#
# PCOD9491528 Si02
#       5
#    16  16  16   8  16
#     4  10  21  36  53  73 100 137 180 228 280 333
#     4   9  18  35  58  82 113 149 186 234 288 341
#     4   9  19  35  55  80 108 141 179 222 277 335
#     4   9  20  40  63  87 121 161 198 243 294 341
#     4  11  22  37  60  90 120 157 201 242 291 348
#
# _framework density 19.386545000000002
#
# number of rings (size 3 to 8) (size 9 to 14) (size 15 to 20)
#    0.000    2.333    1.111    2.667    0.000    4.444 
#    0.000    4.444    0.000    4.667    0.000    0.000 
#    0.000    0.000    0.000    0.000    0.000    0.000 
#
# Total GULP energy -200802.146777 kJ/mol
# GULP energy per Si atom -5577.837410 kJ/mol
# Density = 1.934242 g / cm^3
# Si number density = 19.386545 Si / 1000 Ang^3
#
#
#
# Elastic Constant Matrix: (Units=GPa)
#
#
# Indices 1 2 3 4 5 6 
#
# 1 41.6385 26.7469 44.8918 0.0000 0.0000 0.0000
# 2 26.7469 92.5180 61.6561 0.0000 0.0000 0.0000
# 3 44.8918 61.6561 167.4026 0.0000 0.0000 0.0000
# 4 0.0000 0.0000 0.0000 7.4154 0.0000 0.0000
# 5 0.0000 0.0000 0.0000 0.0000 24.0308 0.0000
# 6 0.0000 0.0000 0.0000 0.0000 0.0000 26.7586
#
#
#
# Elastic Compliance Matrix: (Units=1/GPa)
#
#
# Indices 1 2 3 4 5 6 
#
# 1 0.035580 -0.005205 -0.007624 0.000000 0.000000 0.000000
# 2 -0.005205 0.015086 -0.004161 0.000000 0.000000 0.000000
# 3 -0.007624 -0.004161 0.009551 0.000000 0.000000 0.000000
# 4 0.000000 0.000000 0.000000 0.134855 0.000000 0.000000
# 5 0.000000 0.000000 0.000000 0.000000 0.041613 0.000000
# 6 0.000000 0.000000 0.000000 0.000000 0.000000 0.037371
#
#
# Mechanical properties :
#
#
# Convention : Reuss Voigt Hill
#
# Bulk Modulus (GPa) = 38.11456 63.12764 50.62110
# Shear Modulus (GPa) = 15.78376 22.85857 19.32116
#
# Velocity S-wave (km/s) = 2.85645 3.43752 3.16037
# Velocity P-wave (km/s) = 5.53010 6.95620 6.28374
#
# Compressibility (1/GPa) = 0.02623669
#
# Stress axis : x y z
#
# Youngs Moduli (GPa) = 28.10588 66.28574 104.70601
#
# Poissons Ratio (x) = 0.34503 0.79830
# Poissons Ratio (y) = 0.14630 0.43563
# Poissons Ratio (z) = 0.21428 0.27579
#
# Static dielectric constant tensor:
#      x y z
#    x 1.647440 0.000000 0.000000 
#    y 0.000000 1.693290 0.000000 
#    z 0.000000 0.000000 1.700750 
# 
# From -- ./inp_files/70312.got.cif
#   From: 2010.05.17/outbox.cif.g08.bks.cpg/sg65_36_cif.got.tgz:70312.got - 2010.06.03 17:01:31.
