data_PCOD9491334
_publ_section_title
;
Structure prediction by ZEFSAII (Michael W. Deem and Ramdas Pophale) SiO2 
 PCOD9491334
Probable space group: C M M M
;
_chemical_formula_sum "Si O2"
_cell_formula_units_Z 80
_cell_length_a 13.775339
_cell_length_b 21.531501
_cell_length_c 13.000203
_cell_angle_alpha 90.000000
_cell_angle_beta 90.000000
_cell_angle_gamma 90.000000
_cell_volume 3855.908641
_symmetry_space_group_name_H-M "C M M M"
_symmetry_group_IT_number 65
_symmetry_cell_setting 'orthorhombic'
loop_
_space_group_symop_operation_xyz
x,y,z
-x,-y,z
x,-y,-z
-x,y,-z
-x,-y,-z
x,y,-z
-x,y,z
x,-y,z
1/2+x,1/2+y,z
1/2-x,1/2-y,z
1/2+x,1/2-y,-z
1/2-x,1/2+y,-z
1/2-x,1/2-y,-z
1/2+x,1/2+y,-z
1/2-x,1/2+y,z
1/2+x,1/2-y,z
loop_
_atom_site_type_symbol
_atom_site_label
_atom_site_fract_x
_atom_site_fract_y
_atom_site_fract_z
Si Si1 0.607395 0.102710 0.682964
Si Si2 0.279075 0.073428 0.119304
Si Si3 0.105312 0.148725 0.787048
Si Si4 0.865246 0.744635 0.381089
Si Si5 0.319560 0.571205 0.607643
O O1 0.500000 0.077653 0.658511
O O2 0.634626 0.090623 0.802245
O O3 0.607679 0.175004 0.652049
O O4 0.704092 0.076628 0.628254
O O5 0.194017 0.124630 0.141681
O O6 0.250428 0.000000 0.140104
O O7 0.305944 0.076665 0.000000
O O8 0.110612 0.210967 0.716592
O O9 0.117024 0.098868 0.696745
O O10 0.000000 0.146706 0.838529
O O11 0.898729 0.755991 0.500000
O O12 0.750000 0.750000 0.386676
O O13 0.339709 0.604156 0.500000
O O14 0.343121 0.500000 0.601017
#
# Coordination Sequence:
#
# PCOD9491334 Si02
#       5
#    16  16  16  16  16
#     4  11  22  37  59  87 116 150 195 242 288 342
#     4  10  23  43  64  86 114 150 194 247 305 356
#     4  11  22  37  59  87 116 150 195 242 288 342
#     4  11  21  37  61  87 121 162 197 232 280 342
#     4  10  21  35  51  78 117 156 191 231 284 343
#
# _framework density 20.74738
#
# number of rings (size 3 to 8) (size 9 to 14) (size 15 to 20)
#    0.000    1.400    4.000    4.200    0.000    8.000 
#    0.000    6.000    0.000    2.400    0.000    0.000 
#    0.000    0.000    0.000    0.000    0.000    0.000 
#
# Total GULP energy -222682.174862 kJ/mol
# GULP energy per Si atom -5567.054372 kJ/mol
# Density = 2.070016 g / cm^3
# Si number density = 20.747380 Si / 1000 Ang^3
#
#
#
# Elastic Constant Matrix: (Units=GPa)
#
#
# Indices 1 2 3 4 5 6 
#
# 1 68.7303 -15.5963 -24.0535 0.0000 0.0000 0.0000
# 2 -15.5963 86.6460 14.9793 0.0000 0.0000 0.0000
# 3 -24.0535 14.9793 86.0460 0.0000 0.0000 0.0000
# 4 0.0000 0.0000 0.0000 32.0312 0.0000 0.0000
# 5 0.0000 0.0000 0.0000 0.0000 -44.1186 0.0000
# 6 0.0000 0.0000 0.0000 0.0000 0.0000 37.4198
#
#
#
# Elastic Compliance Matrix: (Units=1/GPa)
#
#
# Indices 1 2 3 4 5 6 
#
# 1 0.016541 0.002246 0.004233 0.000000 0.000000 0.000000
# 2 0.002246 0.012204 -0.001497 0.000000 0.000000 0.000000
# 3 0.004233 -0.001497 0.013066 0.000000 0.000000 0.000000
# 4 0.000000 0.000000 0.000000 0.031220 0.000000 0.000000
# 5 0.000000 0.000000 0.000000 0.000000 -0.022666 0.000000
# 6 0.000000 0.000000 0.000000 0.000000 0.000000 0.026724
#
#
# Mechanical properties :
#
#
# Convention : Reuss Voigt Hill
#
# Bulk Modulus (GPa) = 19.31492 21.34235 20.32864
# Shear Modulus (GPa) = 59.25421 22.80600 41.03011
#
# Velocity S-wave (km/s) = 5.34994 3.31905 4.45185
# Velocity P-wave (km/s) = 6.89146 4.99972 6.02036
#
# Compressibility (1/GPa) = 0.05177344
#
# Stress axis : x y z
#
# Youngs Moduli (GPa) = 60.45741 81.93912 76.53718
#
# Poissons Ratio (x) = -0.18400 -0.32397
# Poissons Ratio (y) = -0.13576 0.11456
# Poissons Ratio (z) = -0.25591 0.12265
#
# Static dielectric constant tensor:
#      x y z
#    x 1.761880 0.000000 0.000000 
#    y 0.000000 1.768730 0.000000 
#    z 0.000000 0.000000 1.360820 
# 
# From -- ./inp_files/40029.got.cif
#   From: 2010.05.17/outbox.cif.g08.bks.cpg/sg65_21_cif.got.tgz:40029.got - 2010.06.03 17:01:31.
