data_PCOD9491513
_publ_section_title
;
Structure prediction by ZEFSAII (Michael W. Deem and Ramdas Pophale) SiO2 
 PCOD9491513
Probable space group: C M M M
;
_chemical_formula_sum "Si O2"
_cell_formula_units_Z 104
_cell_length_a 32.950400
_cell_length_b 20.824653
_cell_length_c 8.921814
_cell_angle_alpha 90.000000
_cell_angle_beta 90.000000
_cell_angle_gamma 90.000000
_cell_volume 6121.976096
_symmetry_space_group_name_H-M "C M M M"
_symmetry_group_IT_number 65
_symmetry_cell_setting 'orthorhombic'
loop_
_space_group_symop_operation_xyz
x,y,z
-x,-y,z
x,-y,-z
-x,y,-z
-x,-y,-z
x,y,-z
-x,y,z
x,-y,z
1/2+x,1/2+y,z
1/2-x,1/2-y,z
1/2+x,1/2-y,-z
1/2-x,1/2+y,-z
1/2-x,1/2-y,-z
1/2+x,1/2+y,-z
1/2-x,1/2+y,z
1/2+x,1/2-y,z
loop_
_atom_site_type_symbol
_atom_site_label
_atom_site_fract_x
_atom_site_fract_y
_atom_site_fract_z
Si Si1 0.577036 0.129657 0.178738
Si Si2 0.178790 0.072131 0.180139
Si Si3 0.048266 0.500000 0.669995
Si Si4 0.632454 0.309449 0.679607
Si Si5 0.045031 0.757394 0.319482
Si Si6 0.225865 0.573839 0.180450
Si Si7 0.338193 0.169173 0.679960
O O1 0.561506 0.062824 0.241831
O O2 0.550559 0.188142 0.243907
O O3 0.622080 0.139794 0.242830
O O4 0.576894 0.131081 0.000000
O O5 0.151801 0.127980 0.248465
O O6 0.226460 0.081036 0.217010
O O7 0.167056 0.000000 0.229243
O O8 0.175860 0.074216 0.000000
O O9 0.064957 0.500000 0.500000
O O10 0.000000 0.500000 0.660406
O O11 0.633080 0.315690 0.500000
O O12 0.585376 0.297039 0.724834
O O13 0.658486 0.245216 0.717427
O O14 0.047235 0.749365 0.500000
O O15 0.000000 0.783529 0.283687
O O16 0.213852 0.500000 0.220674
O O17 0.199703 0.628616 0.260105
O O18 0.221356 0.579382 0.000000
O O19 0.340941 0.163828 0.500000
#
# Coordination Sequence:
#
# PCOD9491513 Si02
#       7
#    16  16   8  16  16  16  16
#     4  11  22  34  50  73 101 133 172 219 265 308
#     4   9  19  36  56  78 105 138 171 209 262 319
#     4  11  23  37  51  67  93 133 177 219 267 317
#     4   9  19  34  53  79 106 134 172 215 256 307
#     4   9  18  35  56  76 103 137 170 208 258 312
#     4   9  19  35  53  74 103 138 179 221 261 309
#     4  10  21  36  52  74 105 139 176 216 263 312
#
# _framework density 16.98798
#
# number of rings (size 3 to 8) (size 9 to 14) (size 15 to 20)
#    0.000    2.385    0.000    4.385    1.077    7.692 
#    0.000    4.615    0.000    0.462    0.000    3.231 
#    0.000    0.000    0.000    0.000    0.000    0.000 
#
# Total GULP energy -290001.574939 kJ/mol
# GULP energy per Si atom -5576.953364 kJ/mol
# Density = 1.694931 g / cm^3
# Si number density = 16.987980 Si / 1000 Ang^3
#
#
#
# Elastic Constant Matrix: (Units=GPa)
#
#
# Indices 1 2 3 4 5 6 
#
# 1 103.0540 93.7229 41.1518 0.0000 0.0000 0.0000
# 2 93.7229 141.3187 47.9843 0.0000 0.0000 0.0000
# 3 41.1518 47.9843 41.9746 0.0000 0.0000 0.0000
# 4 0.0000 0.0000 0.0000 35.2598 0.0000 0.0000
# 5 0.0000 0.0000 0.0000 0.0000 58.6965 0.0000
# 6 0.0000 0.0000 0.0000 0.0000 0.0000 8.9809
#
#
#
# Elastic Compliance Matrix: (Units=1/GPa)
#
#
# Indices 1 2 3 4 5 6 
#
# 1 0.026661 -0.014393 -0.009684 0.000000 0.000000 0.000000
# 2 -0.014393 0.019336 -0.007993 0.000000 0.000000 0.000000
# 3 -0.009684 -0.007993 0.042456 0.000000 0.000000 0.000000
# 4 0.000000 0.000000 0.000000 0.028361 0.000000 0.000000
# 5 0.000000 0.000000 0.000000 0.000000 0.017037 0.000000
# 6 0.000000 0.000000 0.000000 0.000000 0.000000 0.111347
#
#
# Mechanical properties :
#
#
# Convention : Reuss Voigt Hill
#
# Bulk Modulus (GPa) = 41.13306 72.45171 56.79238
# Shear Modulus (GPa) = 15.75087 27.48666 21.61877
#
# Velocity S-wave (km/s) = 3.04826 4.02681 3.57121
# Velocity P-wave (km/s) = 6.05432 8.02257 7.10691
#
# Compressibility (1/GPa) = 0.02431135
#
# Stress axis : x y z
#
# Youngs Moduli (GPa) = 37.50830 51.71718 23.55382
#
# Poissons Ratio (x) = 0.74438 0.22810
# Poissons Ratio (y) = 0.53987 0.18827
# Poissons Ratio (z) = 0.36324 0.41339
#
# Static dielectric constant tensor:
#      x y z
#    x 1.585990 0.000000 0.000000 
#    y 0.000000 1.576200 0.000000 
#    z 0.000000 0.000000 1.567860 
# 
# From -- ./inp_files/18671.got.cif
#   From: 2010.05.17/outbox.cif.g08.bks.cpg/sg65_10_cif.got.tgz:18671.got - 2010.06.03 17:01:31.
