data_PCOD9491569
_publ_section_title
;
Structure prediction by ZEFSAII (Michael W. Deem and Ramdas Pophale) SiO2 
 PCOD9491569
Probable space group: C M M M
;
_chemical_formula_sum "Si O2"
_cell_formula_units_Z 112
_cell_length_a 25.060803
_cell_length_b 14.634584
_cell_length_c 14.592287
_cell_angle_alpha 90.000000
_cell_angle_beta 90.000000
_cell_angle_gamma 90.000000
_cell_volume 5351.785852
_symmetry_space_group_name_H-M "C M M M"
_symmetry_group_IT_number 65
_symmetry_cell_setting 'orthorhombic'
loop_
_space_group_symop_operation_xyz
x,y,z
-x,-y,z
x,-y,-z
-x,y,-z
-x,-y,-z
x,y,-z
-x,y,z
x,-y,z
1/2+x,1/2+y,z
1/2-x,1/2-y,z
1/2+x,1/2-y,-z
1/2-x,1/2+y,-z
1/2-x,1/2-y,-z
1/2+x,1/2+y,-z
1/2-x,1/2+y,z
1/2+x,1/2-y,z
loop_
_atom_site_type_symbol
_atom_site_label
_atom_site_fract_x
_atom_site_fract_y
_atom_site_fract_z
Si Si1 0.105720 0.241676 0.602571
Si Si2 0.194897 0.102769 0.355352
Si Si3 0.656662 0.603737 0.148338
Si Si4 0.687685 0.896174 0.610062
Si Si5 0.887244 0.609605 0.890207
Si Si6 0.229304 0.396082 0.892403
Si Si7 0.060361 0.225481 0.198731
O O1 0.081112 0.248174 0.500000
O O2 0.154302 0.169477 0.595543
O O3 0.136591 0.334851 0.627758
O O4 0.070397 0.217804 0.691219
O O5 0.170180 0.096204 0.255173
O O6 0.255833 0.136855 0.349780
O O7 0.197585 0.000000 0.394296
O O8 0.649827 0.500000 0.111001
O O9 0.712195 0.647775 0.113020
O O10 0.603769 0.663999 0.144360
O O11 0.695461 0.894767 0.500000
O O12 0.679021 0.000000 0.640395
O O13 0.891652 0.500000 0.877154
O O14 0.827312 0.638563 0.855992
O O15 0.928320 0.671397 0.834807
O O16 0.893195 0.626529 0.000000
O O17 0.236414 0.500000 0.854808
O O18 0.218618 0.404402 0.000000
O O19 0.000000 0.198331 0.178482
#
# Coordination Sequence:
#
# PCOD9491569 Si02
#       7
#    16  16  16  16  16  16  16
#     4  10  21  36  53  74 105 146 192 240 286 330
#     4   9  17  29  49  78 110 143 179 223 279 343
#     4   9  19  35  55  81 114 150 184 228 284 337
#     4   9  17  29  47  73 104 136 169 213 276 345
#     4   9  20  40  65  92 120 147 179 228 285 339
#     4   8  15  31  57  88 117 143 173 213 274 349
#     4  11  25  40  56  81 110 150 204 246 279 329
#
# _framework density 20.927593000000002
#
# number of rings (size 3 to 8) (size 9 to 14) (size 15 to 20)
#    0.000    2.714    0.000    1.714    2.000    4.857 
#    0.000    2.143    0.000    0.000    0.000   10.000 
#    0.000    0.000    0.000    0.000    0.000    0.000 
#
# Total GULP energy -312146.944216 kJ/mol
# GULP energy per Si atom -5574.052575 kJ/mol
# Density = 2.087996 g / cm^3
# Si number density = 20.927593 Si / 1000 Ang^3
#
#
#
# Elastic Constant Matrix: (Units=GPa)
#
#
# Indices 1 2 3 4 5 6 
#
# 1 69.2818 -4.8546 -2.4867 0.0000 0.0000 0.0000
# 2 -4.8546 36.8996 -1.3560 0.0000 0.0000 0.0000
# 3 -2.4867 -1.3560 50.5760 0.0000 0.0000 0.0000
# 4 0.0000 0.0000 0.0000 14.4020 0.0000 0.0000
# 5 0.0000 0.0000 0.0000 0.0000 13.1424 0.0000
# 6 0.0000 0.0000 0.0000 0.0000 0.0000 13.3625
#
#
#
# Elastic Compliance Matrix: (Units=1/GPa)
#
#
# Indices 1 2 3 4 5 6 
#
# 1 0.014598 0.001949 0.000770 0.000000 0.000000 0.000000
# 2 0.001949 0.027387 0.000830 0.000000 0.000000 0.000000
# 3 0.000770 0.000830 0.019832 0.000000 0.000000 0.000000
# 4 0.000000 0.000000 0.000000 0.069435 0.000000 0.000000
# 5 0.000000 0.000000 0.000000 0.000000 0.076089 0.000000
# 6 0.000000 0.000000 0.000000 0.000000 0.000000 0.074836
#
#
# Mechanical properties :
#
#
# Convention : Reuss Voigt Hill
#
# Bulk Modulus (GPa) = 14.51049 15.48476 14.99762
# Shear Modulus (GPa) = 16.77558 19.21170 17.99364
#
# Velocity S-wave (km/s) = 2.83433 3.03315 2.93542
# Velocity P-wave (km/s) = 4.20237 4.43643 4.32099
#
# Compressibility (1/GPa) = 0.06891568
#
# Stress axis : x y z
#
# Youngs Moduli (GPa) = 68.50257 36.51304 50.42270
#
# Poissons Ratio (x) = -0.07116 -0.03883
# Poissons Ratio (y) = -0.13350 -0.04186
# Poissons Ratio (z) = -0.05275 -0.03031
#
# Static dielectric constant tensor:
#      x y z
#    x 1.742750 0.000000 0.000000 
#    y 0.000000 1.798030 0.000000 
#    z 0.000000 0.000000 1.806720 
# 
# From -- ./inp_files/45748.got.cif
#   From: 2010.05.17/outbox.cif.g08.bks.cpg/sg65_23_cif.got.tgz:45748.got - 2010.06.03 17:01:31.
