data_PCOD9491755
_publ_section_title
;
Structure prediction by ZEFSAII (Michael W. Deem and Ramdas Pophale) SiO2 
 PCOD9491755
Probable space group: C M M M
;
_chemical_formula_sum "Si O2"
_cell_formula_units_Z 56
_cell_length_a 7.675652
_cell_length_b 18.444382
_cell_length_c 20.159638
_cell_angle_alpha 90.000000
_cell_angle_beta 90.000000
_cell_angle_gamma 90.000000
_cell_volume 2854.053528
_symmetry_space_group_name_H-M "C M M M"
_symmetry_group_IT_number 65
_symmetry_cell_setting 'orthorhombic'
loop_
_space_group_symop_operation_xyz
x,y,z
-x,-y,z
x,-y,-z
-x,y,-z
-x,-y,-z
x,y,-z
-x,y,z
x,-y,z
1/2+x,1/2+y,z
1/2-x,1/2-y,z
1/2+x,1/2-y,-z
1/2-x,1/2+y,-z
1/2-x,1/2-y,-z
1/2+x,1/2+y,-z
1/2-x,1/2+y,z
1/2+x,1/2-y,z
loop_
_atom_site_type_symbol
_atom_site_label
_atom_site_fract_x
_atom_site_fract_y
_atom_site_fract_z
Si Si1 0.706511 0.918878 0.705548
Si Si2 0.000000 0.085508 0.079203
Si Si3 0.208979 0.664814 0.162973
Si Si4 0.792888 0.834140 0.426302
O O1 0.500000 0.924721 0.714877
O O2 0.765387 0.867075 0.765201
O O3 0.733300 0.883896 0.633742
O O4 0.781795 0.000000 0.709681
O O5 0.828606 0.123109 0.110083
O O6 0.000000 0.000000 0.095592
O O7 0.000000 0.093518 0.000000
O O8 0.250000 0.750000 0.160420
O O9 0.000000 0.654202 0.153618
O O10 0.722205 0.852108 0.500000
O O11 0.750000 0.750000 0.412954
O O12 0.000000 0.840539 0.429096
#
# Coordination Sequence:
#
# PCOD9491755 Si02
#       4
#    16   8  16  16
#     4  10  22  38  59  87 120 160 205 256 316 378
#     4  11  26  46  70 102 136 174 216 261 326 392
#     4  11  23  43  68 100 132 171 220 270 320 382
#     4  10  21  36  55  81 113 155 205 257 313 372
#
# _framework density 19.621214999999999
#
# number of rings (size 3 to 8) (size 9 to 14) (size 15 to 20)
#    0.000    1.571    1.429    2.571    2.000    8.000 
#    0.000    4.286    0.000    0.000    0.000    0.000 
#    0.000    0.000    0.000    0.000    0.000    0.000 
#
# Total GULP energy -156374.821956 kJ/mol
# GULP energy per Si atom -5584.815070 kJ/mol
# Density = 1.957656 g / cm^3
# Si number density = 19.621215 Si / 1000 Ang^3
#
#
#
# Elastic Constant Matrix: (Units=GPa)
#
#
# Indices 1 2 3 4 5 6 
#
# 1 92.2259 45.4294 41.7111 0.0000 0.0000 0.0000
# 2 45.4294 171.0169 102.9596 0.0000 0.0000 0.0000
# 3 41.7111 102.9596 129.9313 0.0000 0.0000 0.0000
# 4 0.0000 0.0000 0.0000 37.1989 0.0000 0.0000
# 5 0.0000 0.0000 0.0000 0.0000 103.0525 0.0000
# 6 0.0000 0.0000 0.0000 0.0000 0.0000 8.6774
#
#
#
# Elastic Compliance Matrix: (Units=1/GPa)
#
#
# Indices 1 2 3 4 5 6 
#
# 1 0.012966 -0.001795 -0.002741 0.000000 0.000000 0.000000
# 2 -0.001795 0.011430 -0.008481 0.000000 0.000000 0.000000
# 3 -0.002741 -0.008481 0.015297 0.000000 0.000000 0.000000
# 4 0.000000 0.000000 0.000000 0.026882 0.000000 0.000000
# 5 0.000000 0.000000 0.000000 0.000000 0.009704 0.000000
# 6 0.000000 0.000000 0.000000 0.000000 0.000000 0.115241
#
#
# Mechanical properties :
#
#
# Convention : Reuss Voigt Hill
#
# Bulk Modulus (GPa) = 73.20292 85.93049 79.56671
# Shear Modulus (GPa) = 22.51158 43.32404 32.91781
#
# Velocity S-wave (km/s) = 3.39087 4.70406 4.10037
# Velocity P-wave (km/s) = 7.26083 8.56703 7.94083
#
# Compressibility (1/GPa) = 0.01366066
#
# Stress axis : x y z
#
# Youngs Moduli (GPa) = 77.12274 87.48693 65.37236
#
# Poissons Ratio (x) = 0.15700 0.17915
# Poissons Ratio (y) = 0.13840 0.55445
# Poissons Ratio (z) = 0.21136 0.74202
#
# Static dielectric constant tensor:
#      x y z
#    x 1.700690 0.000000 0.000000 
#    y 0.000000 1.661070 0.000000 
#    z 0.000000 0.000000 1.687160 
# 
# From -- ./inp_files/48754.got.cif
#   From: 2010.05.17/outbox.cif.g08.bks.cpg/sg65_25_cif.got.tgz:48754.got - 2010.06.03 17:01:31.
