data_PCOD9491746
_publ_section_title
;
Structure prediction by ZEFSAII (Michael W. Deem and Ramdas Pophale) SiO2 
 PCOD9491746
Probable space group: C M M M
;
_chemical_formula_sum "Si O2"
_cell_formula_units_Z 72
_cell_length_a 25.603089
_cell_length_b 14.868919
_cell_length_c 10.184514
_cell_angle_alpha 90.000000
_cell_angle_beta 90.000000
_cell_angle_gamma 90.000000
_cell_volume 3877.145247
_symmetry_space_group_name_H-M "C M M M"
_symmetry_group_IT_number 65
_symmetry_cell_setting 'orthorhombic'
loop_
_space_group_symop_operation_xyz
x,y,z
-x,-y,z
x,-y,-z
-x,y,-z
-x,-y,-z
x,y,-z
-x,y,z
x,-y,z
1/2+x,1/2+y,z
1/2-x,1/2-y,z
1/2+x,1/2-y,-z
1/2-x,1/2+y,-z
1/2-x,1/2-y,-z
1/2+x,1/2+y,-z
1/2-x,1/2+y,z
1/2+x,1/2-y,z
loop_
_atom_site_type_symbol
_atom_site_label
_atom_site_fract_x
_atom_site_fract_y
_atom_site_fract_z
Si Si1 0.252340 0.111081 0.000000
Si Si2 0.410236 0.708826 0.500000
Si Si3 0.715545 0.104884 0.720238
Si Si4 0.440420 0.394012 0.240685
Si Si5 0.787658 0.836451 0.500000
Si Si6 0.368643 0.390829 0.000000
Si Si7 0.368616 0.891478 0.500000
O O1 0.278221 0.144910 0.135221
O O2 0.191486 0.136336 0.000000
O O3 0.253693 0.000000 0.000000
O O4 0.434217 0.664068 0.628834
O O5 0.348456 0.682942 0.500000
O O6 0.413852 0.817423 0.500000
O O7 0.767934 0.115105 0.632525
O O8 0.667376 0.131447 0.627184
O O9 0.707404 0.000000 0.740351
O O10 0.500000 0.387815 0.191182
O O11 0.430612 0.500000 0.270506
O O12 0.399877 0.362968 0.129934
O O13 0.750000 0.750000 0.500000
O O14 0.370007 0.500000 0.000000
O O15 0.379180 0.000000 0.500000
#
# Coordination Sequence:
#
# PCOD9491746 Si02
#       7
#     8   8  16  16   8   8   8
#     4   9  16  27  48  76  98 127 177 221 252 298
#     4  12  21  32  54  75 106 134 182 224 259 310
#     4   9  17  31  48  66  96 134 173 215 256 300
#     4  10  21  36  55  81 111 140 170 212 267 320
#     4  11  19  30  45  67 101 131 174 208 252 307
#     4   9  17  32  52  76 108 145 175 201 250 320
#     4   9  19  36  53  69  96 144 185 217 268 313
#
# _framework density 18.570364000000001
#
# number of rings (size 3 to 8) (size 9 to 14) (size 15 to 20)
#    0.000    2.222    2.222    3.333    0.000    5.778 
#    0.000    1.667    0.000    1.333    0.000    0.000 
#    0.000    1.778    0.000    0.000    0.000    0.000 
#
# Total GULP energy -200672.342681 kJ/mol
# GULP energy per Si atom -5574.231741 kJ/mol
# Density = 1.852810 g / cm^3
# Si number density = 18.570364 Si / 1000 Ang^3
#
#
#
# Elastic Constant Matrix: (Units=GPa)
#
#
# Indices 1 2 3 4 5 6 
#
# 1 35.2427 13.8322 18.4836 0.0000 0.0000 0.0000
# 2 13.8322 53.7231 25.8821 0.0000 0.0000 0.0000
# 3 18.4836 25.8821 150.1218 0.0000 0.0000 0.0000
# 4 0.0000 0.0000 0.0000 -6.3142 0.0000 0.0000
# 5 0.0000 0.0000 0.0000 0.0000 12.2459 0.0000
# 6 0.0000 0.0000 0.0000 0.0000 0.0000 21.0365
#
#
#
# Elastic Compliance Matrix: (Units=1/GPa)
#
#
# Indices 1 2 3 4 5 6 
#
# 1 0.032609 -0.007047 -0.002800 0.000000 0.000000 0.000000
# 2 -0.007047 0.021823 -0.002895 0.000000 0.000000 0.000000
# 3 -0.002800 -0.002895 0.007505 0.000000 0.000000 0.000000
# 4 0.000000 0.000000 0.000000 -0.158373 0.000000 0.000000
# 5 0.000000 0.000000 0.000000 0.000000 0.081660 0.000000
# 6 0.000000 0.000000 0.000000 0.000000 0.000000 0.047536
#
#
# Mechanical properties :
#
#
# Convention : Reuss Voigt Hill
#
# Bulk Modulus (GPa) = 27.43215 39.49815 33.46515
# Shear Modulus (GPa) = 71.02821 17.45297 44.24059
#
# Velocity S-wave (km/s) = 6.19122 3.06899 4.88620
# Velocity P-wave (km/s) = 8.11864 5.82013 7.06351
#
# Compressibility (1/GPa) = 0.03645358
#
# Stress axis : x y z
#
# Youngs Moduli (GPa) = 30.66635 45.82330 133.24294
#
# Poissons Ratio (x) = 0.32291 0.37308
# Poissons Ratio (y) = 0.21610 0.38571
# Poissons Ratio (z) = 0.08587 0.13265
#
# Static dielectric constant tensor:
#      x y z
#    x 1.622160 0.000000 0.000000 
#    y 0.000000 1.674210 0.000000 
#    z 0.000000 0.000000 2.212180 
# 
# From -- ./inp_files/13676.got.cif
#   From: 2010.05.17/outbox.cif.g08.bks.cpg/sg65_7_cif.got.tgz:13676.got - 2010.06.03 17:01:31.
