data_PCOD9491344
_publ_section_title
;
Structure prediction by ZEFSAII (Michael W. Deem and Ramdas Pophale) SiO2 
 PCOD9491344
Probable space group: C M M M
;
_chemical_formula_sum "Si O2"
_cell_formula_units_Z 88
_cell_length_a 9.152038
_cell_length_b 18.944576
_cell_length_c 28.984744
_cell_angle_alpha 90.000000
_cell_angle_beta 90.000000
_cell_angle_gamma 90.000000
_cell_volume 5025.417796
_symmetry_space_group_name_H-M "C M M M"
_symmetry_group_IT_number 65
_symmetry_cell_setting 'orthorhombic'
loop_
_space_group_symop_operation_xyz
x,y,z
-x,-y,z
x,-y,-z
-x,y,-z
-x,-y,-z
x,y,-z
-x,y,z
x,-y,z
1/2+x,1/2+y,z
1/2-x,1/2-y,z
1/2+x,1/2-y,-z
1/2-x,1/2+y,-z
1/2-x,1/2-y,-z
1/2+x,1/2+y,-z
1/2-x,1/2+y,z
1/2+x,1/2-y,z
loop_
_atom_site_type_symbol
_atom_site_label
_atom_site_fract_x
_atom_site_fract_y
_atom_site_fract_z
Si Si1 0.325479 0.916931 0.726736
Si Si2 0.668044 0.585847 0.000000
Si Si3 0.829182 0.915315 0.631182
Si Si4 0.323833 0.173930 0.816582
Si Si5 0.326097 0.825980 0.446974
Si Si6 0.824679 0.582828 0.094026
O O1 0.500000 0.910013 0.719033
O O2 0.240428 0.895818 0.680536
O O3 0.284756 0.870192 0.770770
O O4 0.296557 0.000000 0.736006
O O5 0.748724 0.607499 0.953104
O O6 0.671663 0.500000 0.000000
O O7 0.500000 0.608506 0.000000
O O8 0.743086 0.878366 0.589965
O O9 0.000000 0.896254 0.629658
O O10 0.816815 0.000000 0.627010
O O11 0.500000 0.181176 0.816978
O O12 0.250000 0.250000 0.816555
O O13 0.282270 0.129224 0.861946
O O14 0.300350 0.849314 0.500000
O O15 0.500000 0.819594 0.440290
O O16 0.250000 0.750000 0.441547
O O17 0.788265 0.500000 0.101829
O O18 0.000000 0.586689 0.088490
#
# Coordination Sequence:
#
# PCOD9491344 Si02
#       6
#    16   8  16  16  16  16
#     4   9  18  35  57  77 100 134 176 218 258 304
#     4   9  17  29  48  77 106 129 161 207 256 301
#     4  10  21  36  55  81 111 141 175 217 264 313
#     4  10  21  35  52  76 104 134 169 210 257 307
#     4  10  21  37  57  80 107 141 180 220 263 313
#     4   9  17  32  54  76  99 131 171 210 248 296
#
# _framework density 17.510981999999998
#
# number of rings (size 3 to 8) (size 9 to 14) (size 15 to 20)
#    0.000    2.455    0.000    1.909    0.000    8.000 
#    0.000    4.091    0.000    5.455    0.000    0.000 
#    0.000    0.000    0.000    0.000    0.000    0.000 
#
# Total GULP energy -245528.533162 kJ/mol
# GULP energy per Si atom -5580.193936 kJ/mol
# Density = 1.747113 g / cm^3
# Si number density = 17.510982 Si / 1000 Ang^3
#
#
#
# Elastic Constant Matrix: (Units=GPa)
#
#
# Indices 1 2 3 4 5 6 
#
# 1 73.0738 52.4962 92.9646 0.0000 0.0000 0.0000
# 2 52.4962 70.1436 88.6567 0.0000 0.0000 0.0000
# 3 92.9646 88.6567 195.6436 0.0000 0.0000 0.0000
# 4 0.0000 0.0000 0.0000 -21.3697 0.0000 0.0000
# 5 0.0000 0.0000 0.0000 0.0000 22.2289 0.0000
# 6 0.0000 0.0000 0.0000 0.0000 0.0000 30.7444
#
#
#
# Elastic Compliance Matrix: (Units=1/GPa)
#
#
# Indices 1 2 3 4 5 6 
#
# 1 0.039507 -0.013669 -0.012578 0.000000 0.000000 0.000000
# 2 -0.013669 0.038098 -0.010769 0.000000 0.000000 0.000000
# 3 -0.012578 -0.010769 0.015968 0.000000 0.000000 0.000000
# 4 0.000000 0.000000 0.000000 -0.046795 0.000000 0.000000
# 5 0.000000 0.000000 0.000000 0.000000 0.044986 0.000000
# 6 0.000000 0.000000 0.000000 0.000000 0.000000 0.032526
#
#
# Mechanical properties :
#
#
# Convention : Reuss Voigt Hill
#
# Bulk Modulus (GPa) = 51.17710 89.67733 70.42722
# Shear Modulus (GPa) = 24.40963 13.30363 18.85663
#
# Velocity S-wave (km/s) = 3.73763 2.75931 3.28509
# Velocity P-wave (km/s) = 6.92211 7.84060 7.39563
#
# Compressibility (1/GPa) = 0.01953999
#
# Stress axis : x y z
#
# Youngs Moduli (GPa) = 25.31196 26.24816 62.62412
#
# Poissons Ratio (x) = 0.35879 0.78771
# Poissons Ratio (y) = 0.34599 0.67440
# Poissons Ratio (z) = 0.31838 0.28267
#
# Static dielectric constant tensor:
#      x y z
#    x 1.585100 0.000000 0.000000 
#    y 0.000000 1.572140 0.000000 
#    z 0.000000 0.000000 1.575330 
# 
# From -- ./inp_files/67474.got.cif
#   From: 2010.05.17/outbox.cif.g08.bks.cpg/sg65_34_cif.got.tgz:67474.got - 2010.06.03 17:01:31.
