data_PCOD9491845
_publ_section_title
;
Structure prediction by ZEFSAII (Michael W. Deem and Ramdas Pophale) SiO2 
 PCOD9491845
Probable space group: C M M M
;
_chemical_formula_sum "Si O2"
_cell_formula_units_Z 88
_cell_length_a 8.624803
_cell_length_b 22.675578
_cell_length_c 24.534455
_cell_angle_alpha 90.000000
_cell_angle_beta 90.000000
_cell_angle_gamma 90.000000
_cell_volume 4798.262079
_symmetry_space_group_name_H-M "C M M M"
_symmetry_group_IT_number 65
_symmetry_cell_setting 'orthorhombic'
loop_
_space_group_symop_operation_xyz
x,y,z
-x,-y,z
x,-y,-z
-x,y,-z
-x,-y,-z
x,y,-z
-x,y,z
x,-y,z
1/2+x,1/2+y,z
1/2-x,1/2-y,z
1/2+x,1/2-y,-z
1/2-x,1/2+y,-z
1/2-x,1/2-y,-z
1/2+x,1/2+y,-z
1/2-x,1/2+y,z
1/2+x,1/2-y,z
loop_
_atom_site_type_symbol
_atom_site_label
_atom_site_fract_x
_atom_site_fract_y
_atom_site_fract_z
Si Si1 0.816625 0.100148 0.859567
Si Si2 0.314692 0.815035 0.940750
Si Si3 0.321254 0.570047 0.258700
Si Si4 0.185411 0.814086 0.564312
Si Si5 0.314989 0.000000 0.062392
Si Si6 0.184278 0.431537 0.622953
O O1 0.775694 0.159856 0.889478
O O2 0.759900 0.097571 0.797360
O O3 0.739336 0.054340 0.900915
O O4 0.000000 0.088254 0.857297
O O5 0.500000 0.816973 0.932801
O O6 0.250000 0.750000 0.946273
O O7 0.284047 0.845449 0.000000
O O8 0.500000 0.589181 0.268389
O O9 0.324189 0.500000 0.248024
O O10 0.225065 0.578798 0.313497
O O11 0.225280 0.817205 0.500000
O O12 0.250000 0.750000 0.584411
O O13 0.245836 0.875078 0.591281
O O14 0.000000 0.812587 0.570186
O O15 0.500000 0.000000 0.059306
O O16 0.254793 0.000000 0.000000
O O17 0.238762 0.500000 0.609937
O O18 0.000000 0.431337 0.614692
#
# Coordination Sequence:
#
# PCOD9491845 Si02
#       6
#    16  16  16  16   8  16
#     4  11  21  35  55  79 105 137 176 221 273 327
#     4  10  21  37  55  75 100 133 173 218 271 330
#     4   9  18  35  55  77 108 145 185 228 275 328
#     4  10  21  38  61  88 120 159 198 239 291 346
#     4  11  23  35  49  75 109 141 174 217 268 325
#     4  10  21  36  57  87 119 154 197 242 288 339
#
# _framework density 18.339971999999999
#
# number of rings (size 3 to 8) (size 9 to 14) (size 15 to 20)
#    0.000    1.909    0.909    3.000    0.000    8.000 
#    0.000    2.727    0.000    4.364    0.000    0.000 
#    0.000    0.000    0.000    0.000    0.000    0.000 
#
# Total GULP energy -245121.037045 kJ/mol
# GULP energy per Si atom -5570.932660 kJ/mol
# Density = 1.829823 g / cm^3
# Si number density = 18.339972 Si / 1000 Ang^3
#
#
#
# Elastic Constant Matrix: (Units=GPa)
#
#
# Indices 1 2 3 4 5 6 
#
# 1 36.7038 23.1444 27.1411 0.0000 0.0000 0.0000
# 2 23.1444 114.3681 66.3240 0.0000 0.0000 0.0000
# 3 27.1411 66.3240 98.3548 0.0000 0.0000 0.0000
# 4 0.0000 0.0000 0.0000 66.2030 0.0000 0.0000
# 5 0.0000 0.0000 0.0000 0.0000 24.3367 0.0000
# 6 0.0000 0.0000 0.0000 0.0000 0.0000 29.3038
#
#
#
# Elastic Compliance Matrix: (Units=1/GPa)
#
#
# Indices 1 2 3 4 5 6 
#
# 1 0.034629 -0.002408 -0.007932 0.000000 0.000000 0.000000
# 2 -0.002408 0.014526 -0.009131 0.000000 0.000000 0.000000
# 3 -0.007932 -0.009131 0.018514 0.000000 0.000000 0.000000
# 4 0.000000 0.000000 0.000000 0.015105 0.000000 0.000000
# 5 0.000000 0.000000 0.000000 0.000000 0.041090 0.000000
# 6 0.000000 0.000000 0.000000 0.000000 0.000000 0.034125
#
#
# Mechanical properties :
#
#
# Convention : Reuss Voigt Hill
#
# Bulk Modulus (GPa) = 34.81095 53.62729 44.21912
# Shear Modulus (GPa) = 24.21221 32.82316 28.51768
#
# Velocity S-wave (km/s) = 3.63738 4.23508 3.94756
# Velocity P-wave (km/s) = 6.05498 7.29511 6.70379
#
# Compressibility (1/GPa) = 0.02872660
#
# Stress axis : x y z
#
# Youngs Moduli (GPa) = 28.87749 68.84095 54.01420
#
# Poissons Ratio (x) = 0.16575 0.42846
# Poissons Ratio (y) = 0.06953 0.49321
# Poissons Ratio (z) = 0.22907 0.62860
#
# Static dielectric constant tensor:
#      x y z
#    x 1.631030 0.000000 0.000000 
#    y 0.000000 1.683140 0.000000 
#    z 0.000000 0.000000 1.630720 
# 
# From -- ./inp_files/67554.got.cif
#   From: 2010.05.17/outbox.cif.g08.bks.cpg/sg65_34_cif.got.tgz:67554.got - 2010.06.03 17:01:31.
