data_PCOD9491963
_publ_section_title
;
Structure prediction by ZEFSAII (Michael W. Deem and Ramdas Pophale) SiO2 
 PCOD9491963
Probable space group: C M M M
;
_chemical_formula_sum "Si O2"
_cell_formula_units_Z 50
_cell_length_a 14.612883
_cell_length_b 10.708919
_cell_length_c 15.156012
_cell_angle_alpha 90.000000
_cell_angle_beta 90.000000
_cell_angle_gamma 90.000000
_cell_volume 2371.736740
_symmetry_space_group_name_H-M "C M M M"
_symmetry_group_IT_number 65
_symmetry_cell_setting 'orthorhombic'
loop_
_space_group_symop_operation_xyz
x,y,z
-x,-y,z
x,-y,-z
-x,y,-z
-x,-y,-z
x,y,-z
-x,y,z
x,-y,z
1/2+x,1/2+y,z
1/2-x,1/2-y,z
1/2+x,1/2-y,-z
1/2-x,1/2+y,-z
1/2-x,1/2-y,-z
1/2+x,1/2+y,-z
1/2-x,1/2+y,z
1/2+x,1/2-y,z
loop_
_atom_site_type_symbol
_atom_site_label
_atom_site_fract_x
_atom_site_fract_y
_atom_site_fract_z
Si Si1 0.608121 0.636635 0.304915
Si Si2 0.861032 0.243584 0.000000
Si Si3 0.177199 0.140444 0.500000
Si Si4 0.892554 0.362036 0.810775
Si Si5 0.000000 0.000000 0.000000
O O1 0.500000 0.631837 0.285295
O O2 0.645783 0.500000 0.279299
O O3 0.620868 0.651152 0.409610
O O4 0.646500 0.753824 0.251801
O O5 0.750000 0.250000 0.000000
O O6 0.887411 0.316075 0.088998
O O7 0.918098 0.112220 0.000000
O O8 0.250000 0.250000 0.500000
O O9 0.218214 0.000000 0.500000
O O10 0.851869 0.500000 0.800366
O O11 0.000000 0.371733 0.787929
#
# Coordination Sequence:
#
# PCOD9491963 Si02
#       5
#    16   8   8  16   2
#     4   9  19  36  62  87 115 157 213 266 328 403
#     4  12  27  43  69 101 139 187 238 287 356 422
#     4  10  21  37  55  83 119 158 200 264 332 400
#     4  10  21  40  62  89 129 173 216 280 347 402
#     4  12  28  48  74 106 152 182 254 304 348 442
#
# _framework density 21.081599000000001
#
# number of rings (size 3 to 8) (size 9 to 14) (size 15 to 20)
#    0.000    1.920    1.600    0.960    4.480    5.760 
#    0.000    3.200    0.000    4.800    0.000    0.000 
#    0.000    0.000    0.000    0.000    0.000    0.000 
#
# Total GULP energy -139171.947921 kJ/mol
# GULP energy per Si atom -5566.877917 kJ/mol
# Density = 2.103362 g / cm^3
# Si number density = 21.081599 Si / 1000 Ang^3
#
#
#
# Elastic Constant Matrix: (Units=GPa)
#
#
# Indices 1 2 3 4 5 6 
#
# 1 93.6916 37.3486 -4.4110 0.0000 0.0000 0.0000
# 2 37.3486 252.5909 106.6891 0.0000 0.0000 0.0000
# 3 -4.4110 106.6891 113.8856 0.0000 0.0000 0.0000
# 4 0.0000 0.0000 0.0000 37.8220 0.0000 0.0000
# 5 0.0000 0.0000 0.0000 0.0000 69.4447 0.0000
# 6 0.0000 0.0000 0.0000 0.0000 0.0000 13.2863
#
#
#
# Elastic Compliance Matrix: (Units=1/GPa)
#
#
# Indices 1 2 3 4 5 6 
#
# 1 0.012158 -0.003304 0.003566 0.000000 0.000000 0.000000
# 2 -0.003304 0.007449 -0.007106 0.000000 0.000000 0.000000
# 3 0.003566 -0.007106 0.015576 0.000000 0.000000 0.000000
# 4 0.000000 0.000000 0.000000 0.026440 0.000000 0.000000
# 5 0.000000 0.000000 0.000000 0.000000 0.014400 0.000000
# 6 0.000000 0.000000 0.000000 0.000000 0.000000 0.075266
#
#
# Mechanical properties :
#
#
# Convention : Reuss Voigt Hill
#
# Bulk Modulus (GPa) = 46.52220 82.15796 64.34008
# Shear Modulus (GPa) = 29.04577 45.48002 37.26290
#
# Velocity S-wave (km/s) = 3.71587 4.64975 4.20879
# Velocity P-wave (km/s) = 6.36599 8.23911 7.36236
#
# Compressibility (1/GPa) = 0.02149511
#
# Stress axis : x y z
#
# Youngs Moduli (GPa) = 82.24832 134.24478 64.20072
#
# Poissons Ratio (x) = 0.44355 -0.22895
# Poissons Ratio (y) = 0.27175 0.45623
# Poissons Ratio (z) = -0.29331 0.95399
#
# Static dielectric constant tensor:
#      x y z
#    x 1.771400 0.000000 0.000000 
#    y 0.000000 1.819090 0.000000 
#    z 0.000000 0.000000 1.735730 
# 
# From -- ./inp_files/41676.got.cif
#   From: 2010.05.17/outbox.cif.g08.bks.cpg/sg65_21_cif.got.tgz:41676.got - 2010.06.03 17:01:31.
