data_PCOD9491201
_publ_section_title
;
Structure prediction by ZEFSAII (Michael W. Deem and Ramdas Pophale) SiO2 
 PCOD9491201
Probable space group: C M M M
;
_chemical_formula_sum "Si O2"
_cell_formula_units_Z 104
_cell_length_a 33.746638
_cell_length_b 25.392958
_cell_length_c 8.769776
_cell_angle_alpha 90.000000
_cell_angle_beta 90.000000
_cell_angle_gamma 90.000000
_cell_volume 7515.057500
_symmetry_space_group_name_H-M "C M M M"
_symmetry_group_IT_number 65
_symmetry_cell_setting 'orthorhombic'
loop_
_space_group_symop_operation_xyz
x,y,z
-x,-y,z
x,-y,-z
-x,y,-z
-x,-y,-z
x,y,-z
-x,y,z
x,-y,z
1/2+x,1/2+y,z
1/2-x,1/2-y,z
1/2+x,1/2-y,-z
1/2-x,1/2+y,-z
1/2-x,1/2-y,-z
1/2+x,1/2+y,-z
1/2-x,1/2+y,z
1/2+x,1/2-y,z
loop_
_atom_site_type_symbol
_atom_site_label
_atom_site_fract_x
_atom_site_fract_y
_atom_site_fract_z
Si Si1 0.767377 0.832201 0.183310
Si Si2 0.048106 0.500000 0.326895
Si Si3 0.743110 0.441912 0.316525
Si Si4 0.118978 0.337872 0.317100
Si Si5 0.812620 0.727681 0.184045
Si Si6 0.546254 0.112266 0.818002
Si Si7 0.836122 0.442731 0.684889
O O1 0.776004 0.889593 0.248863
O O2 0.798164 0.786266 0.226863
O O3 0.723653 0.811137 0.231442
O O4 0.766821 0.834687 0.000000
O O5 0.063605 0.500000 0.500000
O O6 0.058526 0.445314 0.245965
O O7 0.000000 0.500000 0.332010
O O8 0.740992 0.439801 0.500000
O O9 0.728309 0.500000 0.268234
O O10 0.789778 0.439499 0.274001
O O11 0.118110 0.337214 0.500000
O O12 0.146486 0.291085 0.256536
O O13 0.074905 0.343919 0.252566
O O14 0.140861 0.391558 0.261821
O O15 0.815297 0.725308 0.000000
O O16 0.500000 0.120212 0.777525
O O17 0.549561 0.111772 0.000000
O O18 0.837846 0.442407 0.500000
O O19 0.851407 0.500000 0.736600
#
# Coordination Sequence:
#
# PCOD9491201 Si02
#       7
#    16   8  16  16  16  16  16
#     4   9  17  29  44  59  80 110 139 169 204 243
#     4   9  17  31  49  65  79  99 131 169 209 255
#     4   9  16  27  42  59  81 107 134 168 208 247
#     4  11  20  29  46  65  79 101 136 174 213 253
#     4   9  18  31  43  58  82 109 136 170 210 246
#     4  10  21  35  47  59  79 106 133 166 211 260
#     4   8  15  26  37  53  78 103 128 163 207 248
#
# _framework density 13.838882999999999
#
# number of rings (size 3 to 8) (size 9 to 14) (size 15 to 20)
#    0.000    2.692    1.538    3.000    1.077    2.769 
#    0.000    1.538    0.000    0.000    0.000    0.000 
#    0.000    0.000    0.000    0.000    0.000    0.769 
#
# Total GULP energy -289794.023414 kJ/mol
# GULP energy per Si atom -5572.961989 kJ/mol
# Density = 1.380738 g / cm^3
# Si number density = 13.838883 Si / 1000 Ang^3
#
#
#
# Elastic Constant Matrix: (Units=GPa)
#
#
# Indices 1 2 3 4 5 6 
#
# 1 68.3358 42.5638 27.8060 0.0000 0.0000 0.0000
# 2 42.5638 103.0503 27.9113 0.0000 0.0000 0.0000
# 3 27.8060 27.9113 28.0149 0.0000 0.0000 0.0000
# 4 0.0000 0.0000 0.0000 21.4769 0.0000 0.0000
# 5 0.0000 0.0000 0.0000 0.0000 15.3260 0.0000
# 6 0.0000 0.0000 0.0000 0.0000 0.0000 25.9219
#
#
#
# Elastic Compliance Matrix: (Units=1/GPa)
#
#
# Indices 1 2 3 4 5 6 
#
# 1 0.026454 -0.005225 -0.021051 0.000000 0.000000 0.000000
# 2 -0.005225 0.014322 -0.009084 0.000000 0.000000 0.000000
# 3 -0.021051 -0.009084 0.065639 0.000000 0.000000 0.000000
# 4 0.000000 0.000000 0.000000 0.046562 0.000000 0.000000
# 5 0.000000 0.000000 0.000000 0.000000 0.065249 0.000000
# 6 0.000000 0.000000 0.000000 0.000000 0.000000 0.038577
#
#
# Mechanical properties :
#
#
# Convention : Reuss Voigt Hill
#
# Bulk Modulus (GPa) = 28.01385 43.99591 36.00488
# Shear Modulus (GPa) = 14.73101 19.28629 17.00865
#
# Velocity S-wave (km/s) = 3.26615 3.73719 3.50958
# Velocity P-wave (km/s) = 5.87456 7.10511 6.51894
#
# Compressibility (1/GPa) = 0.03569662
#
# Stress axis : x y z
#
# Youngs Moduli (GPa) = 37.80208 69.82128 15.23480
#
# Poissons Ratio (x) = 0.36479 0.32071
# Poissons Ratio (y) = 0.19750 0.13839
# Poissons Ratio (z) = 0.79577 0.63423
#
# Static dielectric constant tensor:
#      x y z
#    x 1.462860 0.000000 0.000000 
#    y 0.000000 1.461960 0.000000 
#    z 0.000000 0.000000 1.465440 
# 
# From -- ./inp_files/18869.got.cif
#   From: 2010.05.17/outbox.cif.g08.bks.cpg/sg65_10_cif.got.tgz:18869.got - 2010.06.03 17:01:31.
