data_PCOD9491265
_publ_section_title
;
Structure prediction by ZEFSAII (Michael W. Deem and Ramdas Pophale) SiO2 
 PCOD9491265
Probable space group: C M M M
;
_chemical_formula_sum "Si O2"
_cell_formula_units_Z 120
_cell_length_a 24.143352
_cell_length_b 22.299371
_cell_length_c 13.178978
_cell_angle_alpha 90.000000
_cell_angle_beta 90.000000
_cell_angle_gamma 90.000000
_cell_volume 7095.318780
_symmetry_space_group_name_H-M "C M M M"
_symmetry_group_IT_number 65
_symmetry_cell_setting 'orthorhombic'
loop_
_space_group_symop_operation_xyz
x,y,z
-x,-y,z
x,-y,-z
-x,y,-z
-x,-y,-z
x,y,-z
-x,y,z
x,-y,z
1/2+x,1/2+y,z
1/2-x,1/2-y,z
1/2+x,1/2-y,-z
1/2-x,1/2+y,-z
1/2-x,1/2-y,-z
1/2+x,1/2+y,-z
1/2-x,1/2+y,z
1/2+x,1/2-y,z
loop_
_atom_site_type_symbol
_atom_site_label
_atom_site_fract_x
_atom_site_fract_y
_atom_site_fract_z
Si Si1 0.933515 0.431138 0.114743
Si Si2 0.898388 0.147538 0.222438
Si Si3 0.500000 0.427481 0.122382
Si Si4 0.564821 0.252324 0.616315
Si Si5 0.816003 0.242472 0.878937
Si Si6 0.205679 0.430998 0.382766
Si Si7 0.837898 0.070445 0.388288
Si Si8 0.129954 0.343416 0.740505
O O1 0.916045 0.500000 0.133091
O O2 0.910785 0.386714 0.198314
O O3 0.000000 0.430004 0.115566
O O4 0.915476 0.414539 0.000000
O O5 0.925127 0.195891 0.300204
O O6 0.851414 0.183848 0.157822
O O7 0.866909 0.102141 0.295990
O O8 0.945960 0.109867 0.162903
O O9 0.500000 0.500000 0.151003
O O10 0.500000 0.425738 0.000000
O O11 0.579837 0.268925 0.500000
O O12 0.500000 0.237604 0.617325
O O13 0.599552 0.195563 0.654788
O O14 0.750000 0.250000 0.855294
O O15 0.844614 0.297255 0.820849
O O16 0.821489 0.246387 0.000000
O O17 0.188312 0.422593 0.500000
O O18 0.193278 0.500000 0.354615
O O19 0.271775 0.423166 0.379783
O O20 0.176241 0.384290 0.310882
O O21 0.854626 0.093852 0.500000
O O22 0.850378 0.000000 0.386384
#
# Coordination Sequence:
#
# PCOD9491265 Si02
#       8
#    16  16   8  16  16  16  16  16
#     4   9  18  32  49  71 100 131 168 220 272 313
#     4  11  20  37  59  78 106 143 178 217 269 325
#     4  11  24  40  59  85 113 143 183 228 272 327
#     4  10  21  35  50  73 105 137 170 215 260 305
#     4  10  22  37  53  76 105 138 178 225 270 312
#     4   9  18  32  50  76 108 137 169 214 262 313
#     4   9  18  33  54  80 107 134 169 213 261 315
#     4  11  19  31  53  74  98 135 180 210 258 321
#
# _framework density 16.912559000000002
#
# number of rings (size 3 to 8) (size 9 to 14) (size 15 to 20)
#    0.000    2.067    0.667    4.800    0.000    0.000 
#    0.000    0.000    0.000    8.000    0.000   16.800 
#    0.000    0.000    0.000    0.000    0.000    0.000 
#
# Total GULP energy -334334.914510 kJ/mol
# GULP energy per Si atom -5572.248575 kJ/mol
# Density = 1.687406 g / cm^3
# Si number density = 16.912559 Si / 1000 Ang^3
#
#
#
# Elastic Constant Matrix: (Units=GPa)
#
#
# Indices 1 2 3 4 5 6 
#
# 1 70.8629 53.9087 50.1811 0.0000 0.0000 0.0000
# 2 53.9087 97.1577 59.6107 0.0000 0.0000 0.0000
# 3 50.1811 59.6107 102.7682 0.0000 0.0000 0.0000
# 4 0.0000 0.0000 0.0000 30.7313 0.0000 0.0000
# 5 0.0000 0.0000 0.0000 0.0000 23.4977 0.0000
# 6 0.0000 0.0000 0.0000 0.0000 0.0000 28.9184
#
#
#
# Elastic Compliance Matrix: (Units=1/GPa)
#
#
# Indices 1 2 3 4 5 6 
#
# 1 0.027374 -0.010849 -0.007074 0.000000 0.000000 0.000000
# 2 -0.010849 0.020279 -0.006465 0.000000 0.000000 0.000000
# 3 -0.007074 -0.006465 0.016935 0.000000 0.000000 0.000000
# 4 0.000000 0.000000 0.000000 0.032540 0.000000 0.000000
# 5 0.000000 0.000000 0.000000 0.000000 0.042557 0.000000
# 6 0.000000 0.000000 0.000000 0.000000 0.000000 0.034580
#
#
# Mechanical properties :
#
#
# Convention : Reuss Voigt Hill
#
# Bulk Modulus (GPa) = 63.24247 66.46553 64.85400
# Shear Modulus (GPa) = 21.89987 23.76870 22.83429
#
# Velocity S-wave (km/s) = 3.60236 3.75292 3.67841
# Velocity P-wave (km/s) = 7.40119 7.62653 7.51471
#
# Compressibility (1/GPa) = 0.01581216
#
# Stress axis : x y z
#
# Youngs Moduli (GPa) = 36.53094 49.31262 59.04915
#
# Poissons Ratio (x) = 0.53497 0.41771
# Poissons Ratio (y) = 0.39631 0.38178
# Poissons Ratio (z) = 0.25842 0.31883
#
# Static dielectric constant tensor:
#      x y z
#    x 1.560550 0.000000 0.000000 
#    y 0.000000 1.571180 0.000000 
#    z 0.000000 0.000000 1.558740 
# 
# From -- ./inp_files/31120.got.cif
#   From: 2010.05.17/outbox.cif.g08.bks.cpg/sg65_16_cif.got.tgz:31120.got - 2010.06.03 17:01:31.
