data_PCOD9491037
_publ_section_title
;
Structure prediction by ZEFSAII (Michael W. Deem and Ramdas Pophale) SiO2 
 PCOD9491037
Probable space group: C M M M
;
_chemical_formula_sum "Si O2"
_cell_formula_units_Z 52
_cell_length_a 14.573493
_cell_length_b 13.153987
_cell_length_c 12.562950
_cell_angle_alpha 90.000000
_cell_angle_beta 90.000000
_cell_angle_gamma 90.000000
_cell_volume 2408.311704
_symmetry_space_group_name_H-M "C M M M"
_symmetry_group_IT_number 65
_symmetry_cell_setting 'orthorhombic'
loop_
_space_group_symop_operation_xyz
x,y,z
-x,-y,z
x,-y,-z
-x,y,-z
-x,-y,-z
x,y,-z
-x,y,z
x,-y,z
1/2+x,1/2+y,z
1/2-x,1/2-y,z
1/2+x,1/2-y,-z
1/2-x,1/2+y,-z
1/2-x,1/2-y,-z
1/2+x,1/2+y,-z
1/2-x,1/2+y,z
1/2+x,1/2-y,z
loop_
_atom_site_type_symbol
_atom_site_label
_atom_site_fract_x
_atom_site_fract_y
_atom_site_fract_z
Si Si1 0.741533 0.500000 0.621372
Si Si2 0.000000 0.800596 0.000000
Si Si3 0.606052 0.000000 0.195831
Si Si4 0.854288 0.720130 0.840952
Si Si5 0.893268 0.191877 0.380916
O O1 0.776511 0.500000 0.500000
O O2 0.821346 0.500000 0.707792
O O3 0.675480 0.597769 0.634179
O O4 0.079550 0.792271 0.092674
O O5 0.623398 0.103631 0.131324
O O6 0.500000 0.000000 0.231019
O O7 0.750000 0.750000 0.860051
O O8 0.875213 0.731975 0.715300
O O9 0.877516 0.234417 0.500000
O O10 0.000000 0.159025 0.376285
#
# Coordination Sequence:
#
# PCOD9491037 Si02
#       5
#     8   4   8  16  16
#     4  10  21  37  66 101 141 180 221 270 340 418
#     4  12  26  49  70  99 128 180 236 283 342 393
#     4  12  24  42  67  98 136 181 221 277 341 404
#     4  12  25  44  71  98 134 179 229 285 337 405
#     4  10  20  39  68 101 136 178 221 278 347 407
#
# _framework density 21.591888999999998
#
# number of rings (size 3 to 8) (size 9 to 14) (size 15 to 20)
#    0.000    0.923    6.154    0.923    0.000    5.231 
#    0.000    0.000    0.000    4.615    0.000    0.000 
#    0.000    0.000    0.000    0.000    0.000    0.000 
#
# Total GULP energy -144914.728776 kJ/mol
# GULP energy per Si atom -5573.643414 kJ/mol
# Density = 2.154275 g / cm^3
# Si number density = 21.591889 Si / 1000 Ang^3
#
#
#
# Elastic Constant Matrix: (Units=GPa)
#
#
# Indices 1 2 3 4 5 6 
#
# 1 195.8850 -3.5552 36.5525 0.0000 0.0000 0.0000
# 2 -3.5552 45.4459 9.7678 0.0000 0.0000 0.0000
# 3 36.5525 9.7678 110.3920 0.0000 0.0000 0.0000
# 4 0.0000 0.0000 0.0000 -26.8560 0.0000 0.0000
# 5 0.0000 0.0000 0.0000 0.0000 176.5054 0.0000
# 6 0.0000 0.0000 0.0000 0.0000 0.0000 -1.4777
#
#
#
# Elastic Compliance Matrix: (Units=1/GPa)
#
#
# Indices 1 2 3 4 5 6 
#
# 1 0.005472 0.000833 -0.001886 0.000000 0.000000 0.000000
# 2 0.000833 0.022558 -0.002272 0.000000 0.000000 0.000000
# 3 -0.001886 -0.002272 0.009884 0.000000 0.000000 0.000000
# 4 0.000000 0.000000 0.000000 -0.037236 0.000000 0.000000
# 5 0.000000 0.000000 0.000000 0.000000 0.005666 0.000000
# 6 0.000000 0.000000 0.000000 0.000000 0.000000 -0.676707
#
#
# Mechanical properties :
#
#
# Convention : Reuss Voigt Hill
#
# Bulk Modulus (GPa) = 31.98425 48.58368 40.28397
# Shear Modulus (GPa) = -7.65352 50.23153 21.28900
#
# Velocity S-wave (km/s) = -1.88476 4.82852 3.14343
# Velocity P-wave (km/s) = 3.17944 7.32365 5.64556
#
# Compressibility (1/GPa) = 0.03126538
#
# Stress axis : x y z
#
# Youngs Moduli (GPa) = 182.74798 44.33079 101.17356
#
# Poissons Ratio (x) = -0.03694 0.19077
# Poissons Ratio (y) = -0.15229 0.22986
# Poissons Ratio (z) = 0.34459 0.10072
#
# Static dielectric constant tensor:
#      x y z
#    x 1.749450 0.000000 0.000000 
#    y 0.000000 1.817280 0.000000 
#    z 0.000000 0.000000 1.794410 
# 
# From -- ./inp_files/23531.got.cif
#   From: 2010.05.17/outbox.cif.g08.bks.cpg/sg65_12_cif.got.tgz:23531.got - 2010.06.03 17:01:31.
