data_PCOD9491056
_publ_section_title
;
Structure prediction by ZEFSAII (Michael W. Deem and Ramdas Pophale) SiO2 
 PCOD9491056
Probable space group: C M M M
;
_chemical_formula_sum "Si O2"
_cell_formula_units_Z 56
_cell_length_a 9.899862
_cell_length_b 13.437798
_cell_length_c 20.381609
_cell_angle_alpha 90.000000
_cell_angle_beta 90.000000
_cell_angle_gamma 90.000000
_cell_volume 2711.413256
_symmetry_space_group_name_H-M "C M M M"
_symmetry_group_IT_number 65
_symmetry_cell_setting 'orthorhombic'
loop_
_space_group_symop_operation_xyz
x,y,z
-x,-y,z
x,-y,-z
-x,y,-z
-x,-y,-z
x,y,-z
-x,y,z
x,-y,z
1/2+x,1/2+y,z
1/2-x,1/2-y,z
1/2+x,1/2-y,-z
1/2-x,1/2+y,-z
1/2-x,1/2-y,-z
1/2+x,1/2+y,-z
1/2-x,1/2+y,z
1/2+x,1/2-y,z
loop_
_atom_site_type_symbol
_atom_site_label
_atom_site_fract_x
_atom_site_fract_y
_atom_site_fract_z
Si Si1 0.000000 0.121165 0.176734
Si Si2 0.841490 0.391577 0.000000
Si Si3 0.000000 0.812299 0.322044
Si Si4 0.250000 0.250000 0.884049
Si Si5 0.000000 0.388111 0.629872
Si Si6 0.707928 0.616674 0.572315
O O1 0.867986 0.187018 0.153747
O O2 0.000000 0.127283 0.255601
O O3 0.000000 0.000000 0.158291
O O4 0.808687 0.331382 0.934385
O O5 0.773369 0.500000 0.000000
O O6 0.000000 0.402992 0.000000
O O7 0.872719 0.836480 0.368019
O O8 0.000000 0.693544 0.313099
O O9 0.132963 0.375290 0.585794
O O10 0.000000 0.500000 0.656195
O O11 0.671746 0.655172 0.500000
O O12 0.674340 0.500000 0.572769
#
# Coordination Sequence:
#
# PCOD9491056 Si02
#       6
#     8   8   8   8   8  16
#     4  12  28  48  70 104 147 194 242 285 343 420
#     4  10  20  41  73 112 147 181 236 289 338 405
#     4  12  25  41  62  91 126 171 228 277 337 411
#     4  11  24  46  72 108 147 194 232 286 349 404
#     4  10  23  40  59  87 122 160 209 279 350 421
#     4  10  21  39  63  90 120 161 216 283 354 413
#
# _framework density 20.653435999999999
#
# number of rings (size 3 to 8) (size 9 to 14) (size 15 to 20)
#    0.000    1.286    1.429    3.857    4.000    6.286 
#    0.000    3.571    0.000    0.000    0.000    0.000 
#    0.000    0.000    0.000    0.000    0.000    0.000 
#
# Total GULP energy -156171.644324 kJ/mol
# GULP energy per Si atom -5577.558726 kJ/mol
# Density = 2.060643 g / cm^3
# Si number density = 20.653436 Si / 1000 Ang^3
#
#
#
# Elastic Constant Matrix: (Units=GPa)
#
#
# Indices 1 2 3 4 5 6 
#
# 1 143.2385 37.1659 54.5830 0.0000 0.0000 0.0000
# 2 37.1659 173.9702 54.6658 0.0000 0.0000 0.0000
# 3 54.5830 54.6658 103.2033 0.0000 0.0000 0.0000
# 4 0.0000 0.0000 0.0000 28.7114 0.0000 0.0000
# 5 0.0000 0.0000 0.0000 0.0000 6.4005 0.0000
# 6 0.0000 0.0000 0.0000 0.0000 0.0000 25.5075
#
#
#
# Elastic Compliance Matrix: (Units=1/GPa)
#
#
# Indices 1 2 3 4 5 6 
#
# 1 0.008780 -0.000500 -0.004379 0.000000 0.000000 0.000000
# 2 -0.000500 0.006924 -0.003403 0.000000 0.000000 0.000000
# 3 -0.004379 -0.003403 0.013808 0.000000 0.000000 0.000000
# 4 0.000000 0.000000 0.000000 0.034829 0.000000 0.000000
# 5 0.000000 0.000000 0.000000 0.000000 0.156238 0.000000
# 6 0.000000 0.000000 0.000000 0.000000 0.000000 0.039204
#
#
# Mechanical properties :
#
#
# Convention : Reuss Voigt Hill
#
# Bulk Modulus (GPa) = 77.22981 79.24906 78.23944
# Shear Modulus (GPa) = 17.81493 30.39037 24.10265
#
# Velocity S-wave (km/s) = 2.94013 3.84010 3.41985
# Velocity P-wave (km/s) = 7.00002 7.62339 7.31834
#
# Compressibility (1/GPa) = 0.01294837
#
# Stress axis : x y z
#
# Youngs Moduli (GPa) = 113.90045 144.41858 72.42049
#
# Poissons Ratio (x) = 0.07217 0.31711
# Poissons Ratio (y) = 0.05692 0.24648
# Poissons Ratio (z) = 0.49874 0.49152
#
# Static dielectric constant tensor:
#      x y z
#    x 1.772020 0.000000 0.000000 
#    y 0.000000 1.842590 0.000000 
#    z 0.000000 0.000000 1.686520 
# 
# From -- ./inp_files/58671.got.cif
#   From: 2010.05.17/outbox.cif.g08.bks.cpg/sg65_30_cif.got.tgz:58671.got - 2010.06.03 17:01:31.
