data_PCOD9491246
_publ_section_title
;
Structure prediction by ZEFSAII (Michael W. Deem and Ramdas Pophale) SiO2 
 PCOD9491246
Probable space group: C M M M
;
_chemical_formula_sum "Si O2"
_cell_formula_units_Z 96
_cell_length_a 8.498251
_cell_length_b 19.521246
_cell_length_c 32.182797
_cell_angle_alpha 90.000000
_cell_angle_beta 90.000000
_cell_angle_gamma 90.000000
_cell_volume 5339.011720
_symmetry_space_group_name_H-M "C M M M"
_symmetry_group_IT_number 65
_symmetry_cell_setting 'orthorhombic'
loop_
_space_group_symop_operation_xyz
x,y,z
-x,-y,z
x,-y,-z
-x,y,-z
-x,-y,-z
x,y,-z
-x,y,z
x,-y,z
1/2+x,1/2+y,z
1/2-x,1/2-y,z
1/2+x,1/2-y,-z
1/2-x,1/2+y,-z
1/2-x,1/2-y,-z
1/2+x,1/2+y,-z
1/2-x,1/2+y,z
1/2+x,1/2-y,z
loop_
_atom_site_type_symbol
_atom_site_label
_atom_site_fract_x
_atom_site_fract_y
_atom_site_fract_z
Si Si1 0.690112 0.328289 0.044595
Si Si2 0.809471 0.828033 0.135874
Si Si3 0.309613 0.421027 0.787017
Si Si4 0.811109 0.673448 0.286296
Si Si5 0.812221 0.325776 0.380904
Si Si6 0.810354 0.079649 0.453884
O O1 0.500000 0.328443 0.044512
O O2 0.750000 0.250000 0.044313
O O3 0.739954 0.354843 0.089945
O O4 0.741630 0.359301 0.000000
O O5 0.750000 0.750000 0.141297
O O6 0.756227 0.877520 0.172802
O O7 0.000000 0.825697 0.136677
O O8 0.500000 0.421071 0.787257
O O9 0.256766 0.500000 0.788085
O O10 0.252773 0.381172 0.746287
O O11 0.750000 0.750000 0.276357
O O12 0.760279 0.657079 0.333710
O O13 0.000000 0.674347 0.284700
O O14 0.750000 0.250000 0.390216
O O15 0.754135 0.377123 0.415934
O O16 0.000000 0.324646 0.380870
O O17 0.759204 0.103726 0.500000
O O18 0.000000 0.082677 0.453047
O O19 0.764767 0.000000 0.449949
#
# Coordination Sequence:
#
# PCOD9491246 Si02
#       6
#    16  16  16  16  16  16
#     4   8  13  22  38  61  88 116 148 190 238 284
#     4   9  17  29  46  68  93 122 158 199 242 290
#     4  10  21  35  50  70  98 132 167 203 246 295
#     4  10  21  37  56  77 101 129 164 206 250 298
#     4  10  21  36  55  79 105 133 166 206 251 297
#     4   9  19  36  56  78 106 140 175 209 246 290
#
# _framework density 17.980855999999999
#
# number of rings (size 3 to 8) (size 9 to 14) (size 15 to 20)
#    0.000    2.667    0.000    2.000    0.000    6.000 
#    0.000    4.167    0.000    0.500    0.000    3.500 
#    0.000    0.000    0.000   28.500    0.000   14.333 
#
# Total GULP energy -267484.735139 kJ/mol
# GULP energy per Si atom -5572.598649 kJ/mol
# Density = 1.793993 g / cm^3
# Si number density = 17.980856 Si / 1000 Ang^3
#
#
#
# Elastic Constant Matrix: (Units=GPa)
#
#
# Indices 1 2 3 4 5 6 
#
# 1 11.2588 20.3876 27.7608 0.0000 0.0000 0.0000
# 2 20.3876 102.4204 110.5318 0.0000 0.0000 0.0000
# 3 27.7608 110.5318 180.5609 0.0000 0.0000 0.0000
# 4 0.0000 0.0000 0.0000 -34.2060 0.0000 0.0000
# 5 0.0000 0.0000 0.0000 0.0000 18.0713 0.0000
# 6 0.0000 0.0000 0.0000 0.0000 0.0000 23.2501
#
#
#
# Elastic Compliance Matrix: (Units=1/GPa)
#
#
# Indices 1 2 3 4 5 6 
#
# 1 0.150166 -0.014661 -0.014113 0.000000 0.000000 0.000000
# 2 -0.014661 0.030202 -0.016234 0.000000 0.000000 0.000000
# 3 -0.014113 -0.016234 0.017646 0.000000 0.000000 0.000000
# 4 0.000000 0.000000 0.000000 -0.029235 0.000000 0.000000
# 5 0.000000 0.000000 0.000000 0.000000 0.055336 0.000000
# 6 0.000000 0.000000 0.000000 0.000000 0.000000 0.043011
#
#
# Mechanical properties :
#
#
# Convention : Reuss Voigt Hill
#
# Bulk Modulus (GPa) = 9.25947 67.95561 38.60754
# Shear Modulus (GPa) = 12.71804 10.46042 11.58923
#
# Velocity S-wave (km/s) = 2.66242 2.41457 2.54152
# Velocity P-wave (km/s) = 3.82257 6.75640 5.48913
#
# Compressibility (1/GPa) = 0.10799755
#
# Stress axis : x y z
#
# Youngs Moduli (GPa) = 6.65930 33.11020 56.66992
#
# Poissons Ratio (x) = 0.48544 0.79976
# Poissons Ratio (y) = 0.09763 0.92000
# Poissons Ratio (z) = 0.09398 0.53752
#
# Static dielectric constant tensor:
#      x y z
#    x 1.620080 0.000000 0.000000 
#    y 0.000000 1.583280 0.000000 
#    z 0.000000 0.000000 1.660450 
# 
# From -- ./inp_files/73123.got.cif
#   From: 2010.05.17/outbox.cif.g08.bks.cpg/sg65_37_cif.got.tgz:73123.got - 2010.06.03 17:01:31.
