data_PCOD9491815
_publ_section_title
;
Structure prediction by ZEFSAII (Michael W. Deem and Ramdas Pophale) SiO2 
 PCOD9491815
Probable space group: C M M M
;
_chemical_formula_sum "Si O2"
_cell_formula_units_Z 80
_cell_length_a 10.623923
_cell_length_b 28.351796
_cell_length_c 14.614245
_cell_angle_alpha 90.000000
_cell_angle_beta 90.000000
_cell_angle_gamma 90.000000
_cell_volume 4401.917243
_symmetry_space_group_name_H-M "C M M M"
_symmetry_group_IT_number 65
_symmetry_cell_setting 'orthorhombic'
loop_
_space_group_symop_operation_xyz
x,y,z
-x,-y,z
x,-y,-z
-x,y,-z
-x,-y,-z
x,y,-z
-x,y,z
x,-y,z
1/2+x,1/2+y,z
1/2-x,1/2-y,z
1/2+x,1/2-y,-z
1/2-x,1/2+y,-z
1/2-x,1/2-y,-z
1/2+x,1/2+y,-z
1/2-x,1/2+y,z
1/2+x,1/2-y,z
loop_
_atom_site_type_symbol
_atom_site_label
_atom_site_fract_x
_atom_site_fract_y
_atom_site_fract_z
Si Si1 0.232649 0.447343 0.397468
Si Si2 0.148717 0.790321 0.218610
Si Si3 0.637355 0.945072 0.801039
Si Si4 0.149492 0.846214 0.599813
Si Si5 0.642085 0.614728 0.108976
O O1 0.175388 0.444789 0.500000
O O2 0.292315 0.500000 0.391448
O O3 0.144169 0.443615 0.309480
O O4 0.321074 0.401719 0.389247
O O5 0.250000 0.750000 0.198404
O O6 0.190491 0.815246 0.314159
O O7 0.153491 0.831646 0.143456
O O8 0.000000 0.775397 0.225543
O O9 0.500000 0.927620 0.831136
O O10 0.751594 0.915921 0.842331
O O11 0.649339 0.000000 0.827340
O O12 0.201330 0.831621 0.500000
O O13 0.000000 0.841171 0.597681
O O14 0.500000 0.598941 0.134834
O O15 0.654381 0.611710 0.000000
#
# Coordination Sequence:
#
# PCOD9491815 Si02
#       5
#    16  16  16  16  16
#     4   9  17  30  51  81 116 152 187 222 265 321
#     4  10  21  38  58  82 110 142 181 230 284 338
#     4  10  21  36  56  85 120 154 187 225 271 325
#     4   9  17  31  52  79 113 149 184 225 272 324
#     4  10  22  41  62  83 109 143 186 235 286 338
#
# _framework density 18.173898999999999
#
# number of rings (size 3 to 8) (size 9 to 14) (size 15 to 20)
#    0.000    2.400    2.000    0.000    0.000    3.600 
#    0.000    8.000    0.000    0.000    0.000    0.000 
#    0.000    0.000    0.000    0.000    0.000    0.000 
#
# Total GULP energy -222698.758300 kJ/mol
# GULP energy per Si atom -5567.468957 kJ/mol
# Density = 1.813253 g / cm^3
# Si number density = 18.173899 Si / 1000 Ang^3
#
#
#
# Elastic Constant Matrix: (Units=GPa)
#
#
# Indices 1 2 3 4 5 6 
#
# 1 113.9105 66.5297 56.2013 0.0000 0.0000 0.0000
# 2 66.5297 63.7224 30.3739 0.0000 0.0000 0.0000
# 3 56.2013 30.3739 73.9198 0.0000 0.0000 0.0000
# 4 0.0000 0.0000 0.0000 6.5115 0.0000 0.0000
# 5 0.0000 0.0000 0.0000 0.0000 3.4330 0.0000
# 6 0.0000 0.0000 0.0000 0.0000 0.0000 27.2213
#
#
#
# Elastic Compliance Matrix: (Units=1/GPa)
#
#
# Indices 1 2 3 4 5 6 
#
# 1 0.029103 -0.024670 -0.011990 0.000000 0.000000 0.000000
# 2 -0.024670 0.040428 0.002145 0.000000 0.000000 0.000000
# 3 -0.011990 0.002145 0.021763 0.000000 0.000000 0.000000
# 4 0.000000 0.000000 0.000000 0.153574 0.000000 0.000000
# 5 0.000000 0.000000 0.000000 0.000000 0.291293 0.000000
# 6 0.000000 0.000000 0.000000 0.000000 0.000000 0.036736
#
#
# Mechanical properties :
#
#
# Convention : Reuss Voigt Hill
#
# Bulk Modulus (GPa) = 44.91765 61.97362 53.44563
# Shear Modulus (GPa) = 7.70003 13.99635 10.84819
#
# Velocity S-wave (km/s) = 2.06060 2.77814 2.44583
# Velocity P-wave (km/s) = 5.51639 6.66822 6.11946
#
# Compressibility (1/GPa) = 0.02226296
#
# Stress axis : x y z
#
# Youngs Moduli (GPa) = 34.36062 24.73561 45.94964
#
# Poissons Ratio (x) = 0.61023 0.55094
# Poissons Ratio (y) = 0.84768 -0.09855
# Poissons Ratio (z) = 0.41199 -0.05305
#
# Static dielectric constant tensor:
#      x y z
#    x 1.613200 0.000000 0.000000 
#    y 0.000000 1.605460 0.000000 
#    z 0.000000 0.000000 1.666540 
# 
# From -- ./inp_files/38267.got.cif
#   From: 2010.05.17/outbox.cif.g08.bks.cpg/sg65_20_cif.got.tgz:38267.got - 2010.06.03 17:01:31.
