data_PCOD9491042
_publ_section_title
;
Structure prediction by ZEFSAII (Michael W. Deem and Ramdas Pophale) SiO2 
 PCOD9491042
Probable space group: C M M M
;
_chemical_formula_sum "Si O2"
_cell_formula_units_Z 68
_cell_length_a 12.034444
_cell_length_b 17.876425
_cell_length_c 17.230019
_cell_angle_alpha 90.000000
_cell_angle_beta 90.000000
_cell_angle_gamma 90.000000
_cell_volume 3706.742845
_symmetry_space_group_name_H-M "C M M M"
_symmetry_group_IT_number 65
_symmetry_cell_setting 'orthorhombic'
loop_
_space_group_symop_operation_xyz
x,y,z
-x,-y,z
x,-y,-z
-x,y,-z
-x,-y,-z
x,y,-z
-x,y,z
x,-y,z
1/2+x,1/2+y,z
1/2-x,1/2-y,z
1/2+x,1/2-y,-z
1/2-x,1/2+y,-z
1/2-x,1/2-y,-z
1/2+x,1/2+y,-z
1/2-x,1/2+y,z
1/2+x,1/2-y,z
loop_
_atom_site_type_symbol
_atom_site_label
_atom_site_fract_x
_atom_site_fract_y
_atom_site_fract_z
Si Si1 0.733573 0.838640 0.407979
Si Si2 0.790088 0.164861 0.880992
Si Si3 0.000000 0.413331 0.406012
Si Si4 0.000000 0.161141 0.000000
Si Si5 0.367993 0.587970 0.274532
Si Si6 0.127105 0.410508 0.000000
O O1 0.747375 0.853444 0.500000
O O2 0.750000 0.750000 0.396117
O O3 0.611370 0.868567 0.384106
O O4 0.821050 0.882129 0.355513
O O5 0.750000 0.250000 0.876981
O O6 0.812317 0.131689 0.796504
O O7 0.694295 0.119329 0.925957
O O8 0.901604 0.160040 0.932563
O O9 0.000000 0.500000 0.378538
O O10 0.000000 0.416090 0.500000
O O11 0.500000 0.598799 0.270769
O O12 0.344404 0.500000 0.266639
O O13 0.126528 0.500000 0.000000
O O14 0.000000 0.382270 0.000000
#
# Coordination Sequence:
#
# PCOD9491042 Si02
#       6
#    16  16   8   4  16   8
#     4  10  22  40  65  94 125 163 210 264 318 373
#     4  11  23  39  66  88 122 162 206 258 308 369
#     4   9  18  36  61  87 118 159 206 252 307 381
#     4  10  20  40  63  94 115 156 208 248 308 362
#     4  11  24  42  61  89 129 167 209 256 309 373
#     4  10  22  39  60  90 123 154 199 253 313 377
#
# _framework density 18.344947000000001
#
# number of rings (size 3 to 8) (size 9 to 14) (size 15 to 20)
#    0.000    1.647    1.176    3.529    4.941    1.882 
#    2.118    2.941    0.000    0.000    0.000    0.000 
#    0.000    0.000    0.000    0.000    0.000    0.000 
#
# Total GULP energy -189373.417343 kJ/mol
# GULP energy per Si atom -5569.806392 kJ/mol
# Density = 1.830319 g / cm^3
# Si number density = 18.344947 Si / 1000 Ang^3
#
#
#
# Elastic Constant Matrix: (Units=GPa)
#
#
# Indices 1 2 3 4 5 6 
#
# 1 124.3525 71.7416 49.5180 0.0000 0.0000 0.0000
# 2 71.7416 98.6262 42.9436 0.0000 0.0000 0.0000
# 3 49.5180 42.9436 72.7022 0.0000 0.0000 0.0000
# 4 0.0000 0.0000 0.0000 25.2299 0.0000 0.0000
# 5 0.0000 0.0000 0.0000 0.0000 20.9937 0.0000
# 6 0.0000 0.0000 0.0000 0.0000 0.0000 8.2052
#
#
#
# Elastic Compliance Matrix: (Units=1/GPa)
#
#
# Indices 1 2 3 4 5 6 
#
# 1 0.015156 -0.008791 -0.005130 0.000000 0.000000 0.000000
# 2 -0.008791 0.018749 -0.005087 0.000000 0.000000 0.000000
# 3 -0.005130 -0.005087 0.020254 0.000000 0.000000 0.000000
# 4 0.000000 0.000000 0.000000 0.039636 0.000000 0.000000
# 5 0.000000 0.000000 0.000000 0.000000 0.047633 0.000000
# 6 0.000000 0.000000 0.000000 0.000000 0.000000 0.121874
#
#
# Mechanical properties :
#
#
# Convention : Reuss Voigt Hill
#
# Bulk Modulus (GPa) = 61.94893 69.34306 65.64599
# Shear Modulus (GPa) = 16.30261 19.65093 17.97677
#
# Velocity S-wave (km/s) = 2.98429 3.27645 3.13378
# Velocity P-wave (km/s) = 6.76143 7.22462 6.99686
#
# Compressibility (1/GPa) = 0.01614233
#
# Stress axis : x y z
#
# Youngs Moduli (GPa) = 65.97892 53.33650 49.37317
#
# Poissons Ratio (x) = 0.46888 0.25331
# Poissons Ratio (y) = 0.58002 0.25116
# Poissons Ratio (z) = 0.33850 0.27132
#
# Static dielectric constant tensor:
#      x y z
#    x 1.839430 0.000000 0.000000 
#    y 0.000000 1.650500 0.000000 
#    z 0.000000 0.000000 1.609150 
# 
# From -- ./inp_files/51179.got.cif
#   From: 2010.05.17/outbox.cif.g08.bks.cpg/sg65_26_cif.got.tgz:51179.got - 2010.06.03 17:01:31.
