data_PCOD9491257
_publ_section_title
;
Structure prediction by ZEFSAII (Michael W. Deem and Ramdas Pophale) SiO2 
 PCOD9491257
Probable space group: C M M M
;
_chemical_formula_sum "Si O2"
_cell_formula_units_Z 88
_cell_length_a 19.481186
_cell_length_b 8.775131
_cell_length_c 29.140982
_cell_angle_alpha 90.000000
_cell_angle_beta 90.000000
_cell_angle_gamma 90.000000
_cell_volume 4981.649684
_symmetry_space_group_name_H-M "C M M M"
_symmetry_group_IT_number 65
_symmetry_cell_setting 'orthorhombic'
loop_
_space_group_symop_operation_xyz
x,y,z
-x,-y,z
x,-y,-z
-x,y,-z
-x,-y,-z
x,y,-z
-x,y,z
x,-y,z
1/2+x,1/2+y,z
1/2-x,1/2-y,z
1/2+x,1/2-y,-z
1/2-x,1/2+y,-z
1/2-x,1/2-y,-z
1/2+x,1/2+y,-z
1/2-x,1/2+y,z
1/2+x,1/2-y,z
loop_
_atom_site_type_symbol
_atom_site_label
_atom_site_fract_x
_atom_site_fract_y
_atom_site_fract_z
Si Si1 0.324669 0.681776 0.629404
Si Si2 0.674535 0.682805 0.734950
Si Si3 0.919201 0.316977 0.448707
Si Si4 0.826943 0.315752 0.899312
Si Si5 0.673374 0.183477 0.000000
Si Si6 0.079749 0.684407 0.186514
O O1 0.321217 0.500000 0.627413
O O2 0.250000 0.750000 0.619387
O O3 0.342036 0.724746 0.682076
O O4 0.377605 0.742158 0.592148
O O5 0.677525 0.500000 0.738454
O O6 0.750000 0.750000 0.745664
O O7 0.618744 0.748203 0.769686
O O8 0.896270 0.269107 0.500000
O O9 0.911934 0.500000 0.446162
O O10 0.000000 0.282048 0.444856
O O11 0.821702 0.500000 0.898058
O O12 0.750000 0.250000 0.893524
O O13 0.855051 0.271120 0.950055
O O14 0.877482 0.268011 0.858645
O O15 0.750000 0.250000 0.000000
O O16 0.675800 0.000000 0.000000
O O17 0.082011 0.500000 0.188856
O O18 0.000000 0.730201 0.184401
#
# Coordination Sequence:
#
# PCOD9491257 Si02
#       6
#    16  16  16  16   8  16
#     4  10  21  36  55  79 105 133 168 211 256 302
#     4  10  21  37  56  77 101 131 169 211 255 304
#     4   9  19  36  56  78 106 140 175 209 248 297
#     4   9  17  30  49  72  97 127 165 207 250 297
#     4   8  14  26  45  69  95 123 159 204 249 292
#     4  10  21  35  50  72 103 136 170 208 251 301
#
# _framework density 17.664831
#
# number of rings (size 3 to 8) (size 9 to 14) (size 15 to 20)
#    0.000    2.545    0.000    2.182    0.000    6.545 
#    0.000    5.000    0.000    2.727    0.000    0.000 
#    0.000    8.727    0.000    0.000    0.000    0.000 
#
# Total GULP energy -245336.246533 kJ/mol
# GULP energy per Si atom -5575.823785 kJ/mol
# Density = 1.762463 g / cm^3
# Si number density = 17.664831 Si / 1000 Ang^3
#
#
#
# Elastic Constant Matrix: (Units=GPa)
#
#
# Indices 1 2 3 4 5 6 
#
# 1 112.0957 34.8580 107.8849 0.0000 0.0000 0.0000
# 2 34.8580 18.9953 42.9023 0.0000 0.0000 0.0000
# 3 107.8849 42.9023 158.6079 0.0000 0.0000 0.0000
# 4 0.0000 0.0000 0.0000 23.5225 0.0000 0.0000
# 5 0.0000 0.0000 0.0000 0.0000 -29.1836 0.0000
# 6 0.0000 0.0000 0.0000 0.0000 0.0000 27.7483
#
#
#
# Elastic Compliance Matrix: (Units=1/GPa)
#
#
# Indices 1 2 3 4 5 6 
#
# 1 0.029109 -0.022356 -0.013753 0.000000 0.000000 0.000000
# 2 -0.022356 0.152478 -0.026038 0.000000 0.000000 0.000000
# 3 -0.013753 -0.026038 0.022703 0.000000 0.000000 0.000000
# 4 0.000000 0.000000 0.000000 0.042513 0.000000 0.000000
# 5 0.000000 0.000000 0.000000 0.000000 -0.034266 0.000000
# 6 0.000000 0.000000 0.000000 0.000000 0.000000 0.036038
#
#
# Mechanical properties :
#
#
# Convention : Reuss Voigt Hill
#
# Bulk Modulus (GPa) = 12.50054 73.44323 42.97189
# Shear Modulus (GPa) = 12.51462 11.35434 11.93448
#
# Velocity S-wave (km/s) = 2.66456 2.53803 2.60206
# Velocity P-wave (km/s) = 4.06920 7.08908 5.77985
#
# Compressibility (1/GPa) = 0.07999653
#
# Stress axis : x y z
#
# Youngs Moduli (GPa) = 34.35341 6.55834 44.04775
#
# Poissons Ratio (x) = 0.14662 0.60579
# Poissons Ratio (y) = 0.76800 1.14690
# Poissons Ratio (z) = 0.47246 0.17076
#
# Static dielectric constant tensor:
#      x y z
#    x 1.559790 0.000000 0.000000 
#    y 0.000000 1.595480 0.000000 
#    z 0.000000 0.000000 1.628560 
# 
# From -- ./inp_files/67464.got.cif
#   From: 2010.05.17/outbox.cif.g08.bks.cpg/sg65_34_cif.got.tgz:67464.got - 2010.06.03 17:01:31.
