data_PCOD9491174
_publ_section_title
;
Structure prediction by ZEFSAII (Michael W. Deem and Ramdas Pophale) SiO2 
 PCOD9491174
Probable space group: C M M M
;
_chemical_formula_sum "Si O2"
_cell_formula_units_Z 64
_cell_length_a 18.306634
_cell_length_b 7.767221
_cell_length_c 23.582907
_cell_angle_alpha 90.000000
_cell_angle_beta 90.000000
_cell_angle_gamma 90.000000
_cell_volume 3353.292978
_symmetry_space_group_name_H-M "C M M M"
_symmetry_group_IT_number 65
_symmetry_cell_setting 'orthorhombic'
loop_
_space_group_symop_operation_xyz
x,y,z
-x,-y,z
x,-y,-z
-x,y,-z
-x,-y,-z
x,y,-z
-x,y,z
x,-y,z
1/2+x,1/2+y,z
1/2-x,1/2-y,z
1/2+x,1/2-y,-z
1/2-x,1/2+y,-z
1/2-x,1/2-y,-z
1/2+x,1/2+y,-z
1/2-x,1/2+y,z
1/2+x,1/2-y,z
loop_
_atom_site_type_symbol
_atom_site_label
_atom_site_fract_x
_atom_site_fract_y
_atom_site_fract_z
Si Si1 0.916587 0.704444 0.000000
Si Si2 0.165167 0.206661 0.766122
Si Si3 0.916371 0.206264 0.877608
Si Si4 0.087935 0.798465 0.349748
Si Si5 0.088858 0.500000 0.435274
O O1 0.883535 0.756904 0.060285
O O2 0.920860 0.500000 0.000000
O O3 0.000000 0.777628 0.000000
O O4 0.250000 0.250000 0.763897
O O5 0.128492 0.273781 0.823975
O O6 0.124082 0.262347 0.709016
O O7 0.157698 0.000000 0.767075
O O8 0.000000 0.273304 0.876309
O O9 0.920196 0.000000 0.872555
O O10 0.110245 0.670243 0.400115
O O11 0.000000 0.790264 0.343756
O O12 0.106826 0.000000 0.360026
O O13 0.115010 0.500000 0.500000
O O14 0.000000 0.500000 0.436873
#
# Coordination Sequence:
#
# PCOD9491174 Si02
#       5
#     8  16  16  16   8
#     4   9  17  29  46  73 102 127 161 211 264 309
#     4  10  21  34  51  76 102 136 173 216 263 313
#     4   9  17  32  53  73  97 131 172 212 256 313
#     4   9  18  34  55  80 109 141 177 217 262 312
#     4   9  18  32  54  86 114 137 172 216 263 313
#
# _framework density 19.085716999999999
#
# number of rings (size 3 to 8) (size 9 to 14) (size 15 to 20)
#    0.000    2.750    0.000    1.125    1.750    6.000 
#    0.000    3.125    0.000    0.750    0.000    0.000 
#    0.000    0.000    0.000    0.000    0.000    0.000 
#
# Total GULP energy -178387.788116 kJ/mol
# GULP energy per Si atom -5574.618379 kJ/mol
# Density = 1.904228 g / cm^3
# Si number density = 19.085717 Si / 1000 Ang^3
#
#
#
# Elastic Constant Matrix: (Units=GPa)
#
#
# Indices 1 2 3 4 5 6 
#
# 1 37.1657 19.2231 55.7886 0.0000 0.0000 0.0000
# 2 19.2231 61.6899 63.1818 0.0000 0.0000 0.0000
# 3 55.7886 63.1818 226.9947 0.0000 0.0000 0.0000
# 4 0.0000 0.0000 0.0000 0.4146 0.0000 0.0000
# 5 0.0000 0.0000 0.0000 0.0000 -64.1032 0.0000
# 6 0.0000 0.0000 0.0000 0.0000 0.0000 17.4719
#
#
#
# Elastic Compliance Matrix: (Units=1/GPa)
#
#
# Indices 1 2 3 4 5 6 
#
# 1 0.043206 -0.003620 -0.009611 0.000000 0.000000 0.000000
# 2 -0.003620 0.022977 -0.005506 0.000000 0.000000 0.000000
# 3 -0.009611 -0.005506 0.008300 0.000000 0.000000 0.000000
# 4 0.000000 0.000000 0.000000 2.411752 0.000000 0.000000
# 5 0.000000 0.000000 0.000000 0.000000 -0.015600 0.000000
# 6 0.000000 0.000000 0.000000 0.000000 0.000000 0.057235
#
#
# Mechanical properties :
#
#
# Convention : Reuss Voigt Hill
#
# Bulk Modulus (GPa) = 27.02002 66.91525 46.96763
# Shear Modulus (GPa) = 1.93973 3.26710 2.60342
#
# Velocity S-wave (km/s) = 1.00922 1.30978 1.16920
# Velocity P-wave (km/s) = 3.94284 6.11750 5.14635
#
# Compressibility (1/GPa) = 0.03700960
#
# Stress axis : x y z
#
# Youngs Moduli (GPa) = 23.14491 43.52173 120.48112
#
# Poissons Ratio (x) = 0.15753 1.15798
# Poissons Ratio (y) = 0.08378 0.66335
# Poissons Ratio (z) = 0.22245 0.23962
#
# Static dielectric constant tensor:
#      x y z
#    x 1.640290 0.000000 0.000000 
#    y 0.000000 1.683600 0.000000 
#    z 0.000000 0.000000 1.678640 
# 
# From -- ./inp_files/49111.got.cif
#   From: 2010.05.17/outbox.cif.g08.bks.cpg/sg65_25_cif.got.tgz:49111.got - 2010.06.03 17:01:31.
