data_PCOD9491411
_publ_section_title
;
Structure prediction by ZEFSAII (Michael W. Deem and Ramdas Pophale) SiO2 
 PCOD9491411
Probable space group: C M M M
;
_chemical_formula_sum "Si O2"
_cell_formula_units_Z 88
_cell_length_a 18.374255
_cell_length_b 11.657256
_cell_length_c 22.903287
_cell_angle_alpha 90.000000
_cell_angle_beta 90.000000
_cell_angle_gamma 90.000000
_cell_volume 4905.732784
_symmetry_space_group_name_H-M "C M M M"
_symmetry_group_IT_number 65
_symmetry_cell_setting 'orthorhombic'
loop_
_space_group_symop_operation_xyz
x,y,z
-x,-y,z
x,-y,-z
-x,y,-z
-x,-y,-z
x,y,-z
-x,y,z
x,-y,z
1/2+x,1/2+y,z
1/2-x,1/2-y,z
1/2+x,1/2-y,-z
1/2-x,1/2+y,-z
1/2-x,1/2-y,-z
1/2+x,1/2+y,-z
1/2-x,1/2+y,z
1/2+x,1/2-y,z
loop_
_atom_site_type_symbol
_atom_site_label
_atom_site_fract_x
_atom_site_fract_y
_atom_site_fract_z
Si Si1 0.201905 0.365077 0.430388
Si Si2 0.663611 0.263518 0.901498
Si Si3 0.836411 0.235944 0.236645
Si Si4 0.419258 0.135753 0.663955
Si Si5 0.584305 0.500000 0.762971
Si Si6 0.918810 0.364667 0.000000
Si Si7 0.415746 0.500000 0.904191
O O1 0.190005 0.364527 0.500000
O O2 0.226564 0.500000 0.416462
O O3 0.250000 0.250000 0.417368
O O4 0.129383 0.344049 0.393066
O O5 0.750000 0.250000 0.910224
O O6 0.649320 0.246141 0.832429
O O7 0.630388 0.386990 0.919498
O O8 0.623053 0.174641 0.942472
O O9 0.750000 0.250000 0.245463
O O10 0.878150 0.321553 0.278712
O O11 0.869071 0.111747 0.253015
O O12 0.500000 0.187151 0.660006
O O13 0.425721 0.000000 0.668758
O O14 0.500000 0.500000 0.741886
O O15 0.580114 0.500000 0.833572
O O16 0.923555 0.500000 0.000000
O O17 0.000000 0.313896 0.000000
O O18 0.500000 0.500000 0.925411
#
# Coordination Sequence:
#
# PCOD9491411 Si02
#       7
#    16  16  16  16   8   8   8
#     4   9  18  35  59  84 113 151 194 242 292 340
#     4  10  22  39  60  83 111 145 184 234 286 335
#     4  10  21  36  58  83 111 147 188 234 284 337
#     4  10  21  35  53  82 117 151 190 232 278 340
#     4   9  18  34  55  80 111 144 183 230 283 342
#     4  11  25  41  57  81 113 147 181 221 277 349
#     4   9  18  35  60  85 106 137 186 234 274 332
#
# _framework density 17.938196999999999
#
# number of rings (size 3 to 8) (size 9 to 14) (size 15 to 20)
#    0.000    2.273    0.000    1.909    2.545    3.636 
#    1.636    4.545    0.000    0.000    0.000    2.545 
#    0.000    0.000    0.000    0.000    0.000    0.000 
#
# Total GULP energy -245125.098079 kJ/mol
# GULP energy per Si atom -5571.024956 kJ/mol
# Density = 1.789737 g / cm^3
# Si number density = 17.938197 Si / 1000 Ang^3
#
#
#
# Elastic Constant Matrix: (Units=GPa)
#
#
# Indices 1 2 3 4 5 6 
#
# 1 150.0949 70.7405 61.5740 0.0000 0.0000 0.0000
# 2 70.7405 85.8191 38.6613 0.0000 0.0000 0.0000
# 3 61.5740 38.6613 46.8635 0.0000 0.0000 0.0000
# 4 0.0000 0.0000 0.0000 13.1370 0.0000 0.0000
# 5 0.0000 0.0000 0.0000 0.0000 -56.6195 0.0000
# 6 0.0000 0.0000 0.0000 0.0000 0.0000 30.1818
#
#
#
# Elastic Compliance Matrix: (Units=1/GPa)
#
#
# Indices 1 2 3 4 5 6 
#
# 1 0.016177 -0.005983 -0.016319 0.000000 0.000000 0.000000
# 2 -0.005983 0.020757 -0.009263 0.000000 0.000000 0.000000
# 3 -0.016319 -0.009263 0.050422 0.000000 0.000000 0.000000
# 4 0.000000 0.000000 0.000000 0.076121 0.000000 0.000000
# 5 0.000000 0.000000 0.000000 0.000000 -0.017662 0.000000
# 6 0.000000 0.000000 0.000000 0.000000 0.000000 0.033133
#
#
# Mechanical properties :
#
#
# Convention : Reuss Voigt Hill
#
# Bulk Modulus (GPa) = 41.27826 69.41435 55.34630
# Shear Modulus (GPa) = 19.98770 4.79330 12.39050
#
# Velocity S-wave (km/s) = 3.34167 1.63644 2.63103
# Velocity P-wave (km/s) = 6.16038 6.50776 6.33645
#
# Compressibility (1/GPa) = 0.02422583
#
# Stress axis : x y z
#
# Youngs Moduli (GPa) = 61.81672 48.17621 19.83249
#
# Poissons Ratio (x) = 0.28823 0.32365
# Poissons Ratio (y) = 0.36984 0.18371
# Poissons Ratio (z) = 1.00879 0.44627
#
# Static dielectric constant tensor:
#      x y z
#    x 1.595780 0.000000 0.000000 
#    y 0.000000 1.645230 0.000000 
#    z 0.000000 0.000000 1.582010 
# 
# From -- ./inp_files/63656.got.cif
#   From: 2010.05.17/outbox.cif.g08.bks.cpg/sg65_32_cif.got.tgz:63656.got - 2010.06.03 17:01:31.
