data_PCOD9491216
_publ_section_title
;
Structure prediction by ZEFSAII (Michael W. Deem and Ramdas Pophale) SiO2 
 PCOD9491216
Probable space group: C M M M
;
_chemical_formula_sum "Si O2"
_cell_formula_units_Z 80
_cell_length_a 7.541166
_cell_length_b 18.791197
_cell_length_c 27.762816
_cell_angle_alpha 90.000000
_cell_angle_beta 90.000000
_cell_angle_gamma 90.000000
_cell_volume 3934.200245
_symmetry_space_group_name_H-M "C M M M"
_symmetry_group_IT_number 65
_symmetry_cell_setting 'orthorhombic'
loop_
_space_group_symop_operation_xyz
x,y,z
-x,-y,z
x,-y,-z
-x,y,-z
-x,-y,-z
x,y,-z
-x,y,z
x,-y,z
1/2+x,1/2+y,z
1/2-x,1/2-y,z
1/2+x,1/2-y,-z
1/2-x,1/2+y,-z
1/2-x,1/2-y,-z
1/2+x,1/2+y,-z
1/2-x,1/2+y,z
1/2+x,1/2-y,z
loop_
_atom_site_type_symbol
_atom_site_label
_atom_site_fract_x
_atom_site_fract_y
_atom_site_fract_z
Si Si1 0.286931 0.666707 0.000000
Si Si2 0.787511 0.665329 0.500000
Si Si3 0.283738 0.916664 0.302012
Si Si4 0.211208 0.081314 0.907629
Si Si5 0.713082 0.833981 0.604531
Si Si6 0.787180 0.417701 0.802559
O O1 0.250000 0.750000 0.000000
O O2 0.219131 0.627919 0.048244
O O3 0.500000 0.659021 0.000000
O O4 0.750000 0.750000 0.500000
O O5 0.720188 0.639562 0.552067
O O6 0.000000 0.655188 0.500000
O O7 0.500000 0.913622 0.302641
O O8 0.218385 0.874327 0.348453
O O9 0.226189 0.888454 0.249233
O O10 0.236453 0.000000 0.305228
O O11 0.239768 0.113606 0.854390
O O12 0.000000 0.076038 0.913609
O O13 0.282504 0.000000 0.908815
O O14 0.500000 0.842723 0.603858
O O15 0.750000 0.750000 0.608368
O O16 0.723988 0.500000 0.804096
O O17 0.000000 0.419086 0.800810
#
# Coordination Sequence:
#
# PCOD9491216 Si02
#       6
#     8   8  16  16  16  16
#     4  10  21  35  49  67  93 122 146 172 214 262
#     4   8  14  24  39  59  81 107 141 178 214 252
#     4   8  14  26  44  64  87 115 143 173 214 260
#     4   9  17  31  51  71  89 112 145 182 215 249
#     4   9  16  27  43  62  84 111 144 180 216 255
#     4   8  14  26  45  67  88 112 144 178 211 251
#
# _framework density 20.334499999999998
#
# number of rings (size 3 to 8) (size 9 to 14) (size 15 to 20)
#    0.000    3.400    0.000    1.500    0.000    2.000 
#    0.000    2.500    0.000   12.600    0.000    0.000 
#    0.000    8.000    0.000    0.000    0.000    0.000 
#
# Total GULP energy -222693.580360 kJ/mol
# GULP energy per Si atom -5567.339509 kJ/mol
# Density = 2.028822 g / cm^3
# Si number density = 20.334500 Si / 1000 Ang^3
#
#
#
# Elastic Constant Matrix: (Units=GPa)
#
#
# Indices 1 2 3 4 5 6 
#
# 1 49.9938 -0.6727 9.9767 0.0000 0.0000 0.0000
# 2 -0.6727 48.9979 82.9373 0.0000 0.0000 0.0000
# 3 9.9767 82.9373 285.4198 0.0000 0.0000 0.0000
# 4 0.0000 0.0000 0.0000 35.7151 0.0000 0.0000
# 5 0.0000 0.0000 0.0000 0.0000 94.7450 0.0000
# 6 0.0000 0.0000 0.0000 0.0000 0.0000 11.4599
#
#
#
# Elastic Compliance Matrix: (Units=1/GPa)
#
#
# Indices 1 2 3 4 5 6 
#
# 1 0.020353 0.002920 -0.001560 0.000000 0.000000 0.000000
# 2 0.002920 0.040583 -0.011895 0.000000 0.000000 0.000000
# 3 -0.001560 -0.011895 0.007014 0.000000 0.000000 0.000000
# 4 0.000000 0.000000 0.000000 0.027999 0.000000 0.000000
# 5 0.000000 0.000000 0.000000 0.000000 0.010555 0.000000
# 6 0.000000 0.000000 0.000000 0.000000 0.000000 0.087261
#
#
# Mechanical properties :
#
#
# Convention : Reuss Voigt Hill
#
# Bulk Modulus (GPa) = 21.33067 63.21046 42.27056
# Shear Modulus (GPa) = 21.69556 47.86198 34.77877
#
# Velocity S-wave (km/s) = 3.26994 4.85679 4.14010
# Velocity P-wave (km/s) = 4.97688 7.91227 6.60959
#
# Compressibility (1/GPa) = 0.04688086
#
# Stress axis : x y z
#
# Youngs Moduli (GPa) = 49.13264 24.64101 142.56249
#
# Poissons Ratio (x) = -0.07195 0.22238
# Poissons Ratio (y) = -0.14345 1.69572
# Poissons Ratio (z) = 0.07664 0.29309
#
# Static dielectric constant tensor:
#      x y z
#    x 1.784610 0.000000 0.000000 
#    y 0.000000 1.673090 0.000000 
#    z 0.000000 0.000000 1.798920 
# 
# From -- ./inp_files/67374.got.cif
#   From: 2010.05.17/outbox.cif.g08.bks.cpg/sg65_34_cif.got.tgz:67374.got - 2010.06.03 17:01:31.
