data_PCOD9491267
_publ_section_title
;
Structure prediction by ZEFSAII (Michael W. Deem and Ramdas Pophale) SiO2 
 PCOD9491267
Probable space group: C M M M
;
_chemical_formula_sum "Si O2"
_cell_formula_units_Z 120
_cell_length_a 27.945013
_cell_length_b 28.458332
_cell_length_c 8.401468
_cell_angle_alpha 90.000000
_cell_angle_beta 90.000000
_cell_angle_gamma 90.000000
_cell_volume 6681.422499
_symmetry_space_group_name_H-M "C M M M"
_symmetry_group_IT_number 65
_symmetry_cell_setting 'orthorhombic'
loop_
_space_group_symop_operation_xyz
x,y,z
-x,-y,z
x,-y,-z
-x,y,-z
-x,-y,-z
x,y,-z
-x,y,z
x,-y,z
1/2+x,1/2+y,z
1/2-x,1/2-y,z
1/2+x,1/2-y,-z
1/2-x,1/2+y,-z
1/2-x,1/2-y,-z
1/2+x,1/2+y,-z
1/2-x,1/2+y,z
1/2+x,1/2-y,z
loop_
_atom_site_type_symbol
_atom_site_label
_atom_site_fract_x
_atom_site_fract_y
_atom_site_fract_z
Si Si1 0.946597 0.810957 0.807731
Si Si2 0.101158 0.716840 0.690488
Si Si3 0.906999 0.611958 0.809549
Si Si4 0.000000 0.554060 0.194473
Si Si5 0.851160 0.860242 0.191807
Si Si6 0.710730 0.553559 0.807592
Si Si7 0.198156 0.767109 0.307713
Si Si8 0.316589 0.054195 0.690562
O O1 0.932232 0.758332 0.756544
O O2 0.904067 0.845315 0.750452
O O3 0.000000 0.822715 0.751708
O O4 0.946531 0.812386 0.000000
O O5 0.098283 0.717160 0.500000
O O6 0.089038 0.665438 0.752603
O O7 0.155423 0.731494 0.737031
O O8 0.858221 0.588039 0.750314
O O9 0.952403 0.581375 0.753351
O O10 0.906921 0.611408 0.000000
O O11 0.000000 0.500000 0.247007
O O12 0.000000 0.553925 0.000000
O O13 0.828517 0.909028 0.249107
O O14 0.816496 0.817627 0.240560
O O15 0.853165 0.862196 0.000000
O O16 0.702140 0.500000 0.752812
O O17 0.764009 0.567485 0.753086
O O18 0.710258 0.553427 0.000000
O O19 0.198818 0.770148 0.500000
O O20 0.250000 0.750000 0.253192
O O21 0.315717 0.055156 0.500000
O O22 0.325791 0.000000 0.742607
#
# Coordination Sequence:
#
# PCOD9491267 Si02
#       8
#    16  16  16   8  16  16  16  16
#     4   9  18  34  55  75 101 136 174 215 258 310
#     4  10  21  35  50  75 106 134 169 211 258 308
#     4  11  22  36  56  78 101 131 170 216 264 313
#     4   9  20  38  57  75  95 127 171 215 258 305
#     4   9  18  32  51  77 102 132 174 215 255 303
#     4   9  18  33  53  78 108 140 173 210 255 306
#     4   9  19  34  50  70 100 137 168 202 252 308
#     4  10  21  36  53  75 103 135 172 213 257 306
#
# _framework density 17.960248
#
# number of rings (size 3 to 8) (size 9 to 14) (size 15 to 20)
#    0.000    2.467    0.000    1.600    2.800    2.933 
#    0.000    1.000    0.000    2.800    0.000    2.800 
#    0.000    0.000    0.000   10.000    0.000   10.400 
#
# Total GULP energy -334788.430172 kJ/mol
# GULP energy per Si atom -5579.807170 kJ/mol
# Density = 1.791937 g / cm^3
# Si number density = 17.960248 Si / 1000 Ang^3
#
#
#
# Elastic Constant Matrix: (Units=GPa)
#
#
# Indices 1 2 3 4 5 6 
#
# 1 159.3879 96.4670 16.4740 0.0000 0.0000 0.0000
# 2 96.4670 132.5323 13.6527 0.0000 0.0000 0.0000
# 3 16.4740 13.6527 10.4415 0.0000 0.0000 0.0000
# 4 0.0000 0.0000 0.0000 14.8941 0.0000 0.0000
# 5 0.0000 0.0000 0.0000 0.0000 9.4180 0.0000
# 6 0.0000 0.0000 0.0000 0.0000 0.0000 16.1865
#
#
#
# Elastic Compliance Matrix: (Units=1/GPa)
#
#
# Indices 1 2 3 4 5 6 
#
# 1 0.011842 -0.007737 -0.008567 0.000000 0.000000 0.000000
# 2 -0.007737 0.013775 -0.005804 0.000000 0.000000 0.000000
# 3 -0.008567 -0.005804 0.116878 0.000000 0.000000 0.000000
# 4 0.000000 0.000000 0.000000 0.067141 0.000000 0.000000
# 5 0.000000 0.000000 0.000000 0.000000 0.106179 0.000000
# 6 0.000000 0.000000 0.000000 0.000000 0.000000 0.061780
#
#
# Mechanical properties :
#
#
# Convention : Reuss Voigt Hill
#
# Bulk Modulus (GPa) = 10.17521 61.72766 35.95143
# Shear Modulus (GPa) = 10.99935 19.81759 15.40847
#
# Velocity S-wave (km/s) = 2.47741 3.32537 2.93221
# Velocity P-wave (km/s) = 3.72305 7.01340 5.61466
#
# Compressibility (1/GPa) = 0.09827804
#
# Stress axis : x y z
#
# Youngs Moduli (GPa) = 84.44305 72.59571 8.55592
#
# Poissons Ratio (x) = 0.56168 0.07330
# Poissons Ratio (y) = 0.65335 0.04966
# Poissons Ratio (z) = 0.72346 0.42135
#
# Static dielectric constant tensor:
#      x y z
#    x 1.616470 0.000000 0.000000 
#    y 0.000000 1.599740 0.000000 
#    z 0.000000 0.000000 1.611270 
# 
# From -- ./inp_files/17107.got.cif
#   From: 2010.05.17/outbox.cif.g08.bks.cpg/sg65_9_cif.got.tgz:17107.got - 2010.06.03 17:01:31.
