data_PCOD9491027
_publ_section_title
;
Structure prediction by ZEFSAII (Michael W. Deem and Ramdas Pophale) SiO2 
 PCOD9491027
Probable space group: C M M M
;
_chemical_formula_sum "Si O2"
_cell_formula_units_Z 56
_cell_length_a 17.405216
_cell_length_b 8.536045
_cell_length_c 16.169140
_cell_angle_alpha 90.000000
_cell_angle_beta 90.000000
_cell_angle_gamma 90.000000
_cell_volume 2402.276731
_symmetry_space_group_name_H-M "C M M M"
_symmetry_group_IT_number 65
_symmetry_cell_setting 'orthorhombic'
loop_
_space_group_symop_operation_xyz
x,y,z
-x,-y,z
x,-y,-z
-x,y,-z
-x,-y,-z
x,y,-z
-x,y,z
x,-y,z
1/2+x,1/2+y,z
1/2-x,1/2-y,z
1/2+x,1/2-y,-z
1/2-x,1/2+y,-z
1/2-x,1/2-y,-z
1/2+x,1/2+y,-z
1/2-x,1/2+y,z
1/2+x,1/2-y,z
loop_
_atom_site_type_symbol
_atom_site_label
_atom_site_fract_x
_atom_site_fract_y
_atom_site_fract_z
Si Si1 0.411394 0.675842 0.118060
Si Si2 0.143730 0.000000 0.406949
Si Si3 0.717530 0.000000 0.721819
Si Si4 0.584327 0.242107 0.305582
Si Si5 0.815293 0.500000 0.091721
O O1 0.500000 0.699480 0.091704
O O2 0.387312 0.500000 0.090460
O O3 0.413286 0.670742 0.217636
O O4 0.363886 0.834893 0.096123
O O5 0.210435 0.000000 0.337826
O O6 0.092920 0.850788 0.384631
O O7 0.172805 0.000000 0.500000
O O8 0.661032 0.858588 0.699864
O O9 0.731520 0.000000 0.821264
O O10 0.500000 0.165835 0.307237
O O11 0.778892 0.500000 0.000000
#
# Coordination Sequence:
#
# PCOD9491027 Si02
#       5
#    16   8   8  16   8
#     4   9  17  32  56  87 126 171 215 265 327 389
#     4  12  25  41  65  97 131 170 217 272 335 403
#     4  10  23  41  64  92 132 178 215 268 333 394
#     4  10  20  39  65  94 127 169 221 267 320 392
#     4  10  21  36  57  89 126 170 226 276 324 389
#
# _framework density 23.311219999999999
#
# number of rings (size 3 to 8) (size 9 to 14) (size 15 to 20)
#    0.000    2.000    1.429    2.143    0.000    8.571 
#    0.000    1.429    0.000   16.286    0.000    0.000 
#    0.000    0.000    0.000    0.000    0.000    0.000 
#
# Total GULP energy -156145.932828 kJ/mol
# GULP energy per Si atom -5576.640458 kJ/mol
# Density = 2.325816 g / cm^3
# Si number density = 23.311220 Si / 1000 Ang^3
#
#
#
# Elastic Constant Matrix: (Units=GPa)
#
#
# Indices 1 2 3 4 5 6 
#
# 1 124.5357 33.4276 54.4710 0.0000 0.0000 0.0000
# 2 33.4276 139.5358 40.3369 0.0000 0.0000 0.0000
# 3 54.4710 40.3369 170.0859 0.0000 0.0000 0.0000
# 4 0.0000 0.0000 0.0000 11.3571 0.0000 0.0000
# 5 0.0000 0.0000 0.0000 0.0000 7.7562 0.0000
# 6 0.0000 0.0000 0.0000 0.0000 0.0000 12.1362
#
#
#
# Elastic Compliance Matrix: (Units=1/GPa)
#
#
# Indices 1 2 3 4 5 6 
#
# 1 0.009629 -0.001519 -0.002723 0.000000 0.000000 0.000000
# 2 -0.001519 0.007934 -0.001395 0.000000 0.000000 0.000000
# 3 -0.002723 -0.001395 0.007082 0.000000 0.000000 0.000000
# 4 0.000000 0.000000 0.000000 0.088050 0.000000 0.000000
# 5 0.000000 0.000000 0.000000 0.000000 0.128928 0.000000
# 6 0.000000 0.000000 0.000000 0.000000 0.000000 0.082398
#
#
# Mechanical properties :
#
#
# Convention : Reuss Voigt Hill
#
# Bulk Modulus (GPa) = 74.79661 76.73649 75.76655
# Shear Modulus (GPa) = 14.71652 26.64470 20.68061
#
# Velocity S-wave (km/s) = 2.51531 3.38449 2.98174
# Velocity P-wave (km/s) = 6.37114 6.94714 6.66537
#
# Compressibility (1/GPa) = 0.01336959
#
# Stress axis : x y z
#
# Youngs Moduli (GPa) = 103.85457 126.04181 141.19560
#
# Poissons Ratio (x) = 0.19151 0.38452
# Poissons Ratio (y) = 0.15780 0.19696
# Poissons Ratio (z) = 0.28283 0.17582
#
# Static dielectric constant tensor:
#      x y z
#    x 1.859580 0.000000 0.000000 
#    y 0.000000 2.033300 0.000000 
#    z 0.000000 0.000000 1.809650 
# 
# From -- ./inp_files/53950.got.cif
#   From: 2010.05.17/outbox.cif.g08.bks.cpg/sg65_27_cif.got.tgz:53950.got - 2010.06.03 17:01:31.
