data_PCOD9491886
_publ_section_title
;
Structure prediction by ZEFSAII (Michael W. Deem and Ramdas Pophale) SiO2 
 PCOD9491886
Probable space group: C M M M
;
_chemical_formula_sum "Si O2"
_cell_formula_units_Z 68
_cell_length_a 12.913556
_cell_length_b 16.716792
_cell_length_c 15.719350
_cell_angle_alpha 90.000000
_cell_angle_beta 90.000000
_cell_angle_gamma 90.000000
_cell_volume 3393.386852
_symmetry_space_group_name_H-M "C M M M"
_symmetry_group_IT_number 65
_symmetry_cell_setting 'orthorhombic'
loop_
_space_group_symop_operation_xyz
x,y,z
-x,-y,z
x,-y,-z
-x,y,-z
-x,-y,-z
x,y,-z
-x,y,z
x,-y,z
1/2+x,1/2+y,z
1/2-x,1/2-y,z
1/2+x,1/2-y,-z
1/2-x,1/2+y,-z
1/2-x,1/2-y,-z
1/2+x,1/2+y,-z
1/2-x,1/2+y,z
1/2+x,1/2-y,z
loop_
_atom_site_type_symbol
_atom_site_label
_atom_site_fract_x
_atom_site_fract_y
_atom_site_fract_z
Si Si1 0.000000 0.719313 0.901280
Si Si2 0.884153 0.095781 0.595778
Si Si3 0.331378 0.643734 0.903078
Si Si4 0.500000 0.500000 0.105544
Si Si5 0.500000 0.903401 0.247637
Si Si6 0.222226 0.656941 0.268961
O O1 0.099759 0.776626 0.885486
O O2 0.000000 0.641915 0.843049
O O3 0.000000 0.698820 0.000000
O O4 0.859218 0.124810 0.500000
O O5 0.801713 0.116133 0.666568
O O6 0.000000 0.125058 0.618839
O O7 0.889751 0.000000 0.591619
O O8 0.410544 0.569902 0.898352
O O9 0.249081 0.633602 0.828306
O O10 0.290739 0.648878 0.000000
O O11 0.394292 0.870084 0.289544
O O12 0.500000 0.000000 0.244094
O O13 0.250000 0.750000 0.277219
#
# Coordination Sequence:
#
# PCOD9491886 Si02
#       6
#     8  16  16   4   8  16
#     4   9  19  40  63  86 123 171 219 280 332 377
#     4   9  21  43  72 104 130 156 203 270 338 399
#     4  10  21  38  62  96 131 168 222 278 333 391
#     4  10  21  36  64 100 129 160 225 294 336 398
#     4  12  27  45  57  95 139 175 228 276 318 400
#     4  12  26  41  68  92 130 181 224 264 330 390
#
# _framework density 20.038976999999999
#
# number of rings (size 3 to 8) (size 9 to 14) (size 15 to 20)
#    0.000    1.647    2.353    3.176    8.235    2.118 
#    0.000    0.588    0.000    2.118    0.000    0.000 
#    0.000    0.000    0.000    0.000    0.000    0.000 
#
# Total GULP energy -189361.121434 kJ/mol
# GULP energy per Si atom -5569.444748 kJ/mol
# Density = 1.999337 g / cm^3
# Si number density = 20.038977 Si / 1000 Ang^3
#
#
#
# Elastic Constant Matrix: (Units=GPa)
#
#
# Indices 1 2 3 4 5 6 
#
# 1 148.0772 37.8794 83.4364 0.0000 0.0000 0.0000
# 2 37.8794 116.7045 22.8585 0.0000 0.0000 0.0000
# 3 83.4364 22.8585 88.8107 0.0000 0.0000 0.0000
# 4 0.0000 0.0000 0.0000 16.6447 0.0000 0.0000
# 5 0.0000 0.0000 0.0000 0.0000 -19.6134 0.0000
# 6 0.0000 0.0000 0.0000 0.0000 0.0000 27.6535
#
#
#
# Elastic Compliance Matrix: (Units=1/GPa)
#
#
# Indices 1 2 3 4 5 6 
#
# 1 0.014867 -0.002201 -0.013401 0.000000 0.000000 0.000000
# 2 -0.002201 0.009349 -0.000339 0.000000 0.000000 0.000000
# 3 -0.013401 -0.000339 0.023937 0.000000 0.000000 0.000000
# 4 0.000000 0.000000 0.000000 0.060079 0.000000 0.000000
# 5 0.000000 0.000000 0.000000 0.000000 -0.050985 0.000000
# 6 0.000000 0.000000 0.000000 0.000000 0.000000 0.036162
#
#
# Mechanical properties :
#
#
# Convention : Reuss Voigt Hill
#
# Bulk Modulus (GPa) = 61.45344 71.32678 66.39011
# Shear Modulus (GPa) = 38.25111 18.89815 28.57463
#
# Velocity S-wave (km/s) = 4.37376 3.07428 3.78028
# Velocity P-wave (km/s) = 7.49933 6.94787 7.22886
#
# Compressibility (1/GPa) = 0.01627248
#
# Stress axis : x y z
#
# Youngs Moduli (GPa) = 67.26183 106.95978 41.77583
#
# Poissons Ratio (x) = 0.23539 0.55984
# Poissons Ratio (y) = 0.14802 0.01416
# Poissons Ratio (z) = 0.90139 0.03624
#
# Static dielectric constant tensor:
#      x y z
#    x 1.751150 0.000000 0.000000 
#    y 0.000000 1.711840 0.000000 
#    z 0.000000 0.000000 1.719100 
# 
# From -- ./inp_files/51159.got.cif
#   From: 2010.05.17/outbox.cif.g08.bks.cpg/sg65_26_cif.got.tgz:51159.got - 2010.06.03 17:01:31.
