data_PCOD9491455
_publ_section_title
;
Structure prediction by ZEFSAII (Michael W. Deem and Ramdas Pophale) SiO2 
 PCOD9491455
Probable space group: C M M M
;
_chemical_formula_sum "Si O2"
_cell_formula_units_Z 80
_cell_length_a 27.571454
_cell_length_b 7.444145
_cell_length_c 19.926197
_cell_angle_alpha 90.000000
_cell_angle_beta 90.000000
_cell_angle_gamma 90.000000
_cell_volume 4089.770265
_symmetry_space_group_name_H-M "C M M M"
_symmetry_group_IT_number 65
_symmetry_cell_setting 'orthorhombic'
loop_
_space_group_symop_operation_xyz
x,y,z
-x,-y,z
x,-y,-z
-x,y,-z
-x,-y,-z
x,y,-z
-x,y,z
x,-y,z
1/2+x,1/2+y,z
1/2-x,1/2-y,z
1/2+x,1/2-y,-z
1/2-x,1/2+y,-z
1/2-x,1/2-y,-z
1/2+x,1/2+y,-z
1/2-x,1/2+y,z
1/2+x,1/2-y,z
loop_
_atom_site_type_symbol
_atom_site_label
_atom_site_fract_x
_atom_site_fract_y
_atom_site_fract_z
Si Si1 0.888033 0.715773 0.636515
Si Si2 0.807262 0.713340 0.267043
Si Si3 0.193705 0.712446 0.000000
Si Si4 0.447562 0.500000 0.711480
Si Si5 0.945911 0.000000 0.129804
Si Si6 0.636282 0.781628 0.131492
Si Si7 0.942751 0.718330 0.500000
O O1 0.892113 0.500000 0.640025
O O2 0.834210 0.768015 0.663398
O O3 0.921099 0.819840 0.689129
O O4 0.910714 0.771096 0.564934
O O5 0.811765 0.500000 0.264210
O O6 0.750000 0.750000 0.264404
O O7 0.837187 0.777152 0.201151
O O8 0.250000 0.750000 0.000000
O O9 0.170043 0.774608 0.069185
O O10 0.186116 0.500000 0.000000
O O11 0.500000 0.500000 0.678382
O O12 0.451252 0.500000 0.790307
O O13 0.913663 0.822732 0.117373
O O14 0.000000 0.000000 0.099556
O O15 0.630428 0.000000 0.133336
O O16 0.944867 0.500000 0.500000
O O17 0.000000 0.777100 0.500000
#
# Coordination Sequence:
#
# PCOD9491455 Si02
#       7
#    16  16   8   8   8  16   8
#     4  10  21  38  56  85 120 150 195 244 295 358
#     4  10  21  35  58  84 113 157 195 240 297 346
#     4  10  22  38  62  95 125 162 200 250 315 356
#     4  11  22  35  59  89 117 153 197 247 296 346
#     4  11  24  39  63  91 119 165 205 245 303 349
#     4  10  22  41  60  89 126 156 199 252 298 360
#     4   9  18  35  60  83 112 154 190 236 302 357
#
# _framework density 19.560998999999999
#
# number of rings (size 3 to 8) (size 9 to 14) (size 15 to 20)
#    0.000    1.900    2.000    1.200    4.200    2.000 
#    0.000    4.500    0.000    1.800    0.000    0.000 
#    0.000    0.000    0.000    0.000    0.000    0.000 
#
# Total GULP energy -222799.951201 kJ/mol
# GULP energy per Si atom -5569.998780 kJ/mol
# Density = 1.951648 g / cm^3
# Si number density = 19.560999 Si / 1000 Ang^3
#
#
#
# Elastic Constant Matrix: (Units=GPa)
#
#
# Indices 1 2 3 4 5 6 
#
# 1 179.2322 28.3742 66.3245 0.0000 0.0000 0.0000
# 2 28.3742 60.5199 15.1846 0.0000 0.0000 0.0000
# 3 66.3245 15.1846 114.9529 0.0000 0.0000 0.0000
# 4 0.0000 0.0000 0.0000 36.2154 0.0000 0.0000
# 5 0.0000 0.0000 0.0000 0.0000 26.9029 0.0000
# 6 0.0000 0.0000 0.0000 0.0000 0.0000 15.8870
#
#
#
# Elastic Compliance Matrix: (Units=1/GPa)
#
#
# Indices 1 2 3 4 5 6 
#
# 1 0.007441 -0.002494 -0.003964 0.000000 0.000000 0.000000
# 2 -0.002494 0.017926 -0.000929 0.000000 0.000000 0.000000
# 3 -0.003964 -0.000929 0.011109 0.000000 0.000000 0.000000
# 4 0.000000 0.000000 0.000000 0.027613 0.000000 0.000000
# 5 0.000000 0.000000 0.000000 0.000000 0.037171 0.000000
# 6 0.000000 0.000000 0.000000 0.000000 0.000000 0.062944
#
#
# Mechanical properties :
#
#
# Convention : Reuss Voigt Hill
#
# Bulk Modulus (GPa) = 46.07821 63.83018 54.95419
# Shear Modulus (GPa) = 26.85125 32.12251 29.48688
#
# Velocity S-wave (km/s) = 3.70901 4.05677 3.88678
# Velocity P-wave (km/s) = 6.47685 7.39225 6.94964
#
# Compressibility (1/GPa) = 0.02170223
#
# Stress axis : x y z
#
# Youngs Moduli (GPa) = 134.39084 55.78529 90.01789
#
# Poissons Ratio (x) = 0.13913 0.35681
# Poissons Ratio (y) = 0.33519 0.08362
# Poissons Ratio (z) = 0.53270 0.05182
#
# Static dielectric constant tensor:
#      x y z
#    x 1.725570 0.000000 0.000000 
#    y 0.000000 1.552590 0.000000 
#    z 0.000000 0.000000 1.705900 
# 
# From -- ./inp_files/65095.got.cif
#   From: 2010.05.17/outbox.cif.g08.bks.cpg/sg65_33_cif.got.tgz:65095.got - 2010.06.03 17:01:31.
