data_PCOD9491495
_publ_section_title
;
Structure prediction by ZEFSAII (Michael W. Deem and Ramdas Pophale) SiO2 
 PCOD9491495
Probable space group: C M M M
;
_chemical_formula_sum "Si O2"
_cell_formula_units_Z 72
_cell_length_a 16.050000
_cell_length_b 8.814084
_cell_length_c 25.747046
_cell_angle_alpha 90.000000
_cell_angle_beta 90.000000
_cell_angle_gamma 90.000000
_cell_volume 3642.332850
_symmetry_space_group_name_H-M "C M M M"
_symmetry_group_IT_number 65
_symmetry_cell_setting 'orthorhombic'
loop_
_space_group_symop_operation_xyz
x,y,z
-x,-y,z
x,-y,-z
-x,y,-z
-x,-y,-z
x,y,-z
-x,y,z
x,-y,z
1/2+x,1/2+y,z
1/2-x,1/2-y,z
1/2+x,1/2-y,-z
1/2-x,1/2+y,-z
1/2-x,1/2-y,-z
1/2+x,1/2+y,-z
1/2-x,1/2+y,z
1/2+x,1/2-y,z
loop_
_atom_site_type_symbol
_atom_site_label
_atom_site_fract_x
_atom_site_fract_y
_atom_site_fract_z
Si Si1 0.900668 0.328754 0.839409
Si Si2 0.837747 0.682500 0.616588
Si Si3 0.096794 0.684781 0.727665
Si Si4 0.342251 0.319129 0.056238
Si Si5 0.500000 0.679249 0.437983
O O1 0.867110 0.500000 0.846357
O O2 0.870434 0.263018 0.784086
O O3 0.884815 0.237953 0.891599
O O4 0.000000 0.339295 0.832382
O O5 0.836387 0.500000 0.613785
O O6 0.750000 0.750000 0.598166
O O7 0.852350 0.729052 0.676898
O O8 0.917276 0.744470 0.585525
O O9 0.096587 0.500000 0.730239
O O10 0.000000 0.731857 0.720384
O O11 0.337966 0.500000 0.057443
O O12 0.250000 0.250000 0.056912
O O13 0.380758 0.274575 0.000000
O O14 0.500000 0.500000 0.425554
O O15 0.500000 0.696684 0.500000
#
# Coordination Sequence:
#
# PCOD9491495 Si02
#       5
#    16  16  16  16   8
#     4   9  18  33  55  81 110 143 180 225 279 340
#     4  11  22  39  65  95 128 166 208 253 304 364
#     4   8  15  32  57  83 114 152 190 234 291 348
#     4  10  21  36  52  70  98 137 182 233 286 340
#     4  11  25  45  67  93 127 165 208 259 308 355
#
# _framework density 19.767551999999998
#
# number of rings (size 3 to 8) (size 9 to 14) (size 15 to 20)
#    0.000    2.333    1.111    3.000    0.000    4.444 
#    0.000    6.667    0.000    0.000    0.000    0.000 
#    0.000    0.000    0.000    0.000    0.000    0.000 
#
# Total GULP energy -200776.809893 kJ/mol
# GULP energy per Si atom -5577.133608 kJ/mol
# Density = 1.972256 g / cm^3
# Si number density = 19.767552 Si / 1000 Ang^3
#
#
#
# Elastic Constant Matrix: (Units=GPa)
#
#
# Indices 1 2 3 4 5 6 
#
# 1 97.3912 34.1902 51.9048 0.0000 0.0000 0.0000
# 2 34.1902 65.1357 53.3740 0.0000 0.0000 0.0000
# 3 51.9048 53.3740 120.3129 0.0000 0.0000 0.0000
# 4 0.0000 0.0000 0.0000 10.1668 0.0000 0.0000
# 5 0.0000 0.0000 0.0000 0.0000 -0.3630 0.0000
# 6 0.0000 0.0000 0.0000 0.0000 0.0000 25.8565
#
#
#
# Elastic Compliance Matrix: (Units=1/GPa)
#
#
# Indices 1 2 3 4 5 6 
#
# 1 0.013890 -0.003740 -0.004333 0.000000 0.000000 0.000000
# 2 -0.003740 0.025128 -0.009534 0.000000 0.000000 0.000000
# 3 -0.004333 -0.009534 0.014411 0.000000 0.000000 0.000000
# 4 0.000000 0.000000 0.000000 0.098360 0.000000 0.000000
# 5 0.000000 0.000000 0.000000 0.000000 -2.754717 0.000000
# 6 0.000000 0.000000 0.000000 0.000000 0.000000 0.038675
#
#
# Mechanical properties :
#
#
# Convention : Reuss Voigt Hill
#
# Bulk Modulus (GPa) = 54.90220 62.41976 58.66098
# Shear Modulus (GPa) = -1.98179 16.69010 7.35415
#
# Velocity S-wave (km/s) = -1.00236 2.90887 1.93090
# Velocity P-wave (km/s) = 5.14729 6.55190 5.89160
#
# Compressibility (1/GPa) = 0.01821421
#
# Stress axis : x y z
#
# Youngs Moduli (GPa) = 71.99241 39.79581 69.39362
#
# Poissons Ratio (x) = 0.14885 0.30069
# Poissons Ratio (y) = 0.26928 0.66159
# Poissons Ratio (z) = 0.31195 0.37941
#
# Static dielectric constant tensor:
#      x y z
#    x 1.711380 0.000000 0.000000 
#    y 0.000000 1.666580 0.000000 
#    z 0.000000 0.000000 1.744200 
# 
# From -- ./inp_files/72511.got.cif
#   From: 2010.05.17/outbox.cif.g08.bks.cpg/sg65_37_cif.got.tgz:72511.got - 2010.06.03 17:01:31.
