data_PCOD9491521
_publ_section_title
;
Structure prediction by ZEFSAII (Michael W. Deem and Ramdas Pophale) SiO2 
 PCOD9491521
Probable space group: C M M M
;
_chemical_formula_sum "Si O2"
_cell_formula_units_Z 88
_cell_length_a 9.500396
_cell_length_b 14.764454
_cell_length_c 30.003986
_cell_angle_alpha 90.000000
_cell_angle_beta 90.000000
_cell_angle_gamma 90.000000
_cell_volume 4208.603901
_symmetry_space_group_name_H-M "C M M M"
_symmetry_group_IT_number 65
_symmetry_cell_setting 'orthorhombic'
loop_
_space_group_symop_operation_xyz
x,y,z
-x,-y,z
x,-y,-z
-x,y,-z
-x,-y,-z
x,y,-z
-x,y,z
x,-y,z
1/2+x,1/2+y,z
1/2-x,1/2-y,z
1/2+x,1/2-y,-z
1/2-x,1/2+y,-z
1/2-x,1/2-y,-z
1/2+x,1/2+y,-z
1/2-x,1/2+y,z
1/2+x,1/2-y,z
loop_
_atom_site_type_symbol
_atom_site_label
_atom_site_fract_x
_atom_site_fract_y
_atom_site_fract_z
Si Si1 0.339436 0.610974 0.682821
Si Si2 0.163395 0.610409 0.232085
Si Si3 0.157818 0.393163 0.133435
Si Si4 0.832224 0.844305 0.951579
Si Si5 0.171338 0.394634 0.500000
Si Si6 0.837132 0.388979 0.402995
O O1 0.500000 0.641462 0.682140
O O2 0.339244 0.500000 0.682905
O O3 0.260940 0.641170 0.727660
O O4 0.256880 0.639236 0.638497
O O5 0.169342 0.500000 0.232957
O O6 0.204169 0.641386 0.182130
O O7 0.000000 0.635030 0.239157
O O8 0.141400 0.500000 0.139490
O O9 0.265754 0.383814 0.093123
O O10 0.000000 0.356283 0.122820
O O11 0.750000 0.750000 0.954506
O O12 0.000000 0.834118 0.947325
O O13 0.806932 0.890709 0.000000
O O14 0.214951 0.500000 0.500000
O O15 0.214800 0.357440 0.548177
O O16 0.000000 0.393240 0.500000
O O17 0.836576 0.500000 0.404110
O O18 0.000000 0.362160 0.396743
#
# Coordination Sequence:
#
# PCOD9491521 Si02
#       6
#    16  16  16  16   8  16
#     4   9  15  20  27  42  63  86 114 150 194 242
#     4   8  14  25  39  54  74 101 131 162 200 248
#     4   9  18  32  50  72  96 121 150 186 228 271
#     4  10  21  36  53  72  95 124 156 188 222 263
#     4   7  10  16  25  35  45  63  99 145 188 231
#     4   8  12  18  27  36  48  71 105 145 189 237
#
# _framework density 20.909547
#
# number of rings (size 3 to 8) (size 9 to 14) (size 15 to 20)
#    0.000    3.364    0.000    3.273    0.000    4.727 
#    0.000    4.091    0.000    2.727    0.000    0.000 
#    0.000    0.000    0.000    0.000    0.000    0.000 
#
# Total GULP energy -245120.198044 kJ/mol
# GULP energy per Si atom -5570.913592 kJ/mol
# Density = 2.086196 g / cm^3
# Si number density = 20.909547 Si / 1000 Ang^3
#
#
#
# Elastic Constant Matrix: (Units=GPa)
#
#
# Indices 1 2 3 4 5 6 
#
# 1 121.6097 9.3580 136.0601 0.0000 0.0000 0.0000
# 2 9.3580 38.0760 12.6818 0.0000 0.0000 0.0000
# 3 136.0601 12.6818 260.1534 0.0000 0.0000 0.0000
# 4 0.0000 0.0000 0.0000 -4.3352 0.0000 0.0000
# 5 0.0000 0.0000 0.0000 0.0000 45.1540 0.0000
# 6 0.0000 0.0000 0.0000 0.0000 0.0000 7.3258
#
#
#
# Elastic Compliance Matrix: (Units=1/GPa)
#
#
# Indices 1 2 3 4 5 6 
#
# 1 0.019900 -0.001448 -0.010337 0.000000 0.000000 0.000000
# 2 -0.001448 0.026802 -0.000549 0.000000 0.000000 0.000000
# 3 -0.010337 -0.000549 0.009277 0.000000 0.000000 0.000000
# 4 0.000000 0.000000 0.000000 -0.230671 0.000000 0.000000
# 5 0.000000 0.000000 0.000000 0.000000 0.022146 0.000000
# 6 0.000000 0.000000 0.000000 0.000000 0.000000 0.136504
#
#
# Mechanical properties :
#
#
# Convention : Reuss Voigt Hill
#
# Bulk Modulus (GPa) = 31.93832 81.78212 56.86022
# Shear Modulus (GPa) = 262.29203 27.07819 144.68511
#
# Velocity S-wave (km/s) = 11.21221 3.60254 8.32742
# Velocity P-wave (km/s) = 13.52501 7.51675 10.94138
#
# Compressibility (1/GPa) = 0.03131035
#
# Stress axis : x y z
#
# Youngs Moduli (GPa) = 50.25201 37.31058 107.79487
#
# Poissons Ratio (x) = 0.05402 1.11427
# Poissons Ratio (y) = 0.07276 0.05921
# Poissons Ratio (z) = 0.51945 0.02049
#
# Static dielectric constant tensor:
#      x y z
#    x 1.708550 0.000000 0.000000 
#    y 0.000000 1.885570 0.000000 
#    z 0.000000 0.000000 1.801590 
# 
# From -- ./inp_files/76653.got.cif
#   From: 2010.05.17/outbox.cif.g08.bks.cpg/sg65_39_cif.got.tgz:76653.got - 2010.06.03 17:01:31.
