data_PCOD9491554
_publ_section_title
;
Structure prediction by ZEFSAII (Michael W. Deem and Ramdas Pophale) SiO2 
 PCOD9491554
Probable space group: C M M M
;
_chemical_formula_sum "Si O2"
_cell_formula_units_Z 72
_cell_length_a 15.682700
_cell_length_b 10.339309
_cell_length_c 23.592759
_cell_angle_alpha 90.000000
_cell_angle_beta 90.000000
_cell_angle_gamma 90.000000
_cell_volume 3825.525322
_symmetry_space_group_name_H-M "C M M M"
_symmetry_group_IT_number 65
_symmetry_cell_setting 'orthorhombic'
loop_
_space_group_symop_operation_xyz
x,y,z
-x,-y,z
x,-y,-z
-x,y,-z
-x,-y,-z
x,y,-z
-x,y,z
x,-y,z
1/2+x,1/2+y,z
1/2-x,1/2-y,z
1/2+x,1/2-y,-z
1/2-x,1/2+y,-z
1/2-x,1/2-y,-z
1/2+x,1/2+y,-z
1/2-x,1/2+y,z
1/2+x,1/2-y,z
loop_
_atom_site_type_symbol
_atom_site_label
_atom_site_fract_x
_atom_site_fract_y
_atom_site_fract_z
Si Si1 0.500000 0.343293 0.435145
Si Si2 0.500000 0.255340 0.935212
Si Si3 0.325948 0.651902 0.236331
Si Si4 0.173900 0.848739 0.627705
Si Si5 0.000000 0.854680 0.816273
Si Si6 0.186458 0.640847 0.067940
O O1 0.500000 0.500000 0.435857
O O2 0.500000 0.297482 0.500000
O O3 0.413527 0.307181 0.402678
O O4 0.500000 0.355320 0.884063
O O5 0.413168 0.174772 0.927191
O O6 0.500000 0.305886 0.000000
O O7 0.310268 0.500000 0.220910
O O8 0.250000 0.750000 0.223006
O O9 0.338505 0.654853 0.304322
O O10 0.411899 0.701911 0.206235
O O11 0.250000 0.750000 0.613323
O O12 0.192461 0.000000 0.612870
O O13 0.000000 0.000000 0.792830
O O14 0.204981 0.500000 0.092312
O O15 0.250000 0.750000 0.090372
O O16 0.202000 0.634471 0.000000
#
# Coordination Sequence:
#
# PCOD9491554 Si02
#       6
#     8   8  16  16   8  16
#     4   9  17  29  47  74 108 145 182 214 248 299
#     4  10  21  36  53  74 102 135 167 200 247 309
#     4   9  18  35  57  79 103 131 168 214 261 306
#     4   9  17  31  53  77 101 135 176 216 258 303
#     4  10  21  36  54  76 102 132 166 208 256 306
#     4   9  18  34  55  76  98 127 163 200 238 285
#
# _framework density 18.820944000000001
#
# number of rings (size 3 to 8) (size 9 to 14) (size 15 to 20)
#    0.000    2.778    0.000    1.000    0.000    6.444 
#    0.000    7.778    0.000    6.000    0.000    0.000 
#    0.000    0.000    0.000    0.000    0.000    0.000 
#
# Total GULP energy -200659.388010 kJ/mol
# GULP energy per Si atom -5573.871889 kJ/mol
# Density = 1.877811 g / cm^3
# Si number density = 18.820944 Si / 1000 Ang^3
#
#
#
# Elastic Constant Matrix: (Units=GPa)
#
#
# Indices 1 2 3 4 5 6 
#
# 1 184.2243 86.8591 68.4690 0.0000 0.0000 0.0000
# 2 86.8591 95.2914 32.4889 0.0000 0.0000 0.0000
# 3 68.4690 32.4889 69.8036 0.0000 0.0000 0.0000
# 4 0.0000 0.0000 0.0000 11.1149 0.0000 0.0000
# 5 0.0000 0.0000 0.0000 0.0000 -26.6800 0.0000
# 6 0.0000 0.0000 0.0000 0.0000 0.0000 19.4179
#
#
#
# Elastic Compliance Matrix: (Units=1/GPa)
#
#
# Indices 1 2 3 4 5 6 
#
# 1 0.012603 -0.008645 -0.008339 0.000000 0.000000 0.000000
# 2 -0.008645 0.018403 -0.000086 0.000000 0.000000 0.000000
# 3 -0.008339 -0.000086 0.022545 0.000000 0.000000 0.000000
# 4 0.000000 0.000000 0.000000 0.089969 0.000000 0.000000
# 5 0.000000 0.000000 0.000000 0.000000 -0.037481 0.000000
# 6 0.000000 0.000000 0.000000 0.000000 0.000000 0.051499
#
#
# Mechanical properties :
#
#
# Convention : Reuss Voigt Hill
#
# Bulk Modulus (GPa) = 51.51238 80.55039 66.03138
# Shear Modulus (GPa) = 25.23355 11.53737 18.38546
#
# Velocity S-wave (km/s) = 3.66555 2.47858 3.12887
# Velocity P-wave (km/s) = 6.73381 7.14719 6.94358
#
# Compressibility (1/GPa) = 0.01941281
#
# Stress axis : x y z
#
# Youngs Moduli (GPa) = 79.34385 54.33762 44.35549
#
# Poissons Ratio (x) = 0.46975 0.36987
# Poissons Ratio (y) = 0.68593 0.00380
# Poissons Ratio (z) = 0.66162 0.00466
#
# Static dielectric constant tensor:
#      x y z
#    x 1.630580 0.000000 0.000000 
#    y 0.000000 1.664910 0.000000 
#    z 0.000000 0.000000 1.650010 
# 
# From -- ./inp_files/69674.got.cif
#   From: 2010.05.17/outbox.cif.g08.bks.cpg/sg65_35_cif.got.tgz:69674.got - 2010.06.03 17:01:31.
