data_PCOD9491436
_publ_section_title
;
Structure prediction by ZEFSAII (Michael W. Deem and Ramdas Pophale) SiO2 
 PCOD9491436
Probable space group: C M M M
;
_chemical_formula_sum "Si O2"
_cell_formula_units_Z 58
_cell_length_a 8.008890
_cell_length_b 19.957773
_cell_length_c 18.447777
_cell_angle_alpha 90.000000
_cell_angle_beta 90.000000
_cell_angle_gamma 90.000000
_cell_volume 2948.685455
_symmetry_space_group_name_H-M "C M M M"
_symmetry_group_IT_number 65
_symmetry_cell_setting 'orthorhombic'
loop_
_space_group_symop_operation_xyz
x,y,z
-x,-y,z
x,-y,-z
-x,y,-z
-x,-y,-z
x,y,-z
-x,y,z
x,-y,z
1/2+x,1/2+y,z
1/2-x,1/2-y,z
1/2+x,1/2-y,-z
1/2-x,1/2+y,-z
1/2-x,1/2-y,-z
1/2+x,1/2+y,-z
1/2-x,1/2+y,z
1/2+x,1/2-y,z
loop_
_atom_site_type_symbol
_atom_site_label
_atom_site_fract_x
_atom_site_fract_y
_atom_site_fract_z
Si Si1 0.187344 0.893413 0.000000
Si Si2 0.807604 0.676642 0.859370
Si Si3 0.500000 0.000000 0.000000
Si Si4 0.196835 0.077809 0.263899
Si Si5 0.799744 0.420082 0.578480
O O1 0.204118 0.848573 0.928160
O O2 0.348198 0.942555 0.000000
O O3 0.000000 0.923820 0.000000
O O4 0.750000 0.750000 0.835440
O O5 0.785997 0.623500 0.794778
O O6 0.000000 0.679791 0.881027
O O7 0.224832 0.103843 0.345876
O O8 0.000000 0.078237 0.248470
O O9 0.255343 0.000000 0.260061
O O10 0.742080 0.392927 0.500000
O O11 0.764838 0.500000 0.577073
O O12 0.000000 0.412215 0.581852
#
# Coordination Sequence:
#
# PCOD9491436 Si02
#       5
#     8  16   2  16  16
#     4  12  26  46  70  99 133 166 210 256 306 373
#     4  12  25  44  65  90 122 164 212 255 311 374
#     4  12  26  48  68 110 128 168 202 260 320 358
#     4  10  21  35  55  87 121 157 200 253 310 362
#     4   8  14  27  48  76 111 152 195 242 300 363
#
# _framework density 19.669781
#
# number of rings (size 3 to 8) (size 9 to 14) (size 15 to 20)
#    0.000    1.655    1.379    4.759    1.931    2.207 
#    0.000    2.759    0.000    0.828    0.000    0.000 
#    0.000    0.000    0.000    0.000    0.000    0.000 
#
# Total GULP energy -161564.431625 kJ/mol
# GULP energy per Si atom -5571.187297 kJ/mol
# Density = 1.962501 g / cm^3
# Si number density = 19.669781 Si / 1000 Ang^3
#
#
#
# Elastic Constant Matrix: (Units=GPa)
#
#
# Indices 1 2 3 4 5 6 
#
# 1 97.0035 21.1632 18.3470 0.0000 0.0000 0.0000
# 2 21.1632 77.0279 40.1757 0.0000 0.0000 0.0000
# 3 18.3470 40.1757 108.8288 0.0000 0.0000 0.0000
# 4 0.0000 0.0000 0.0000 -9.6231 0.0000 0.0000
# 5 0.0000 0.0000 0.0000 0.0000 65.8661 0.0000
# 6 0.0000 0.0000 0.0000 0.0000 0.0000 10.9620
#
#
#
# Elastic Compliance Matrix: (Units=1/GPa)
#
#
# Indices 1 2 3 4 5 6 
#
# 1 0.011040 -0.002554 -0.000918 0.000000 0.000000 0.000000
# 2 -0.002554 0.016669 -0.005723 0.000000 0.000000 0.000000
# 3 -0.000918 -0.005723 0.011456 0.000000 0.000000 0.000000
# 4 0.000000 0.000000 0.000000 -0.103917 0.000000 0.000000
# 5 0.000000 0.000000 0.000000 0.000000 0.015182 0.000000
# 6 0.000000 0.000000 0.000000 0.000000 0.000000 0.091225
#
#
# Mechanical properties :
#
#
# Convention : Reuss Voigt Hill
#
# Bulk Modulus (GPa) = 48.13660 49.13688 48.63674
# Shear Modulus (GPa) = 74.65953 26.98595 50.82274
#
# Velocity S-wave (km/s) = 6.16757 3.70800 5.08862
# Velocity P-wave (km/s) = 8.67433 6.58540 7.70102
#
# Compressibility (1/GPa) = 0.02077421
#
# Stress axis : x y z
#
# Youngs Moduli (GPa) = 90.58102 59.99144 87.28840
#
# Poissons Ratio (x) = 0.15323 0.08015
# Poissons Ratio (y) = 0.23137 0.49955
# Poissons Ratio (z) = 0.08317 0.34333
#
# Static dielectric constant tensor:
#      x y z
#    x 1.700030 0.000000 0.000000 
#    y 0.000000 1.670310 0.000000 
#    z 0.000000 0.000000 1.700360 
# 
# From -- ./inp_files/48852.got.cif
#   From: 2010.05.17/outbox.cif.g08.bks.cpg/sg65_25_cif.got.tgz:48852.got - 2010.06.03 17:01:31.
