data_PCOD9491100
_publ_section_title
;
Structure prediction by ZEFSAII (Michael W. Deem and Ramdas Pophale) SiO2 
 PCOD9491100
Probable space group: C M M M
;
_chemical_formula_sum "Si O2"
_cell_formula_units_Z 42
_cell_length_a 28.471245
_cell_length_b 7.682027
_cell_length_c 9.892198
_cell_angle_alpha 90.000000
_cell_angle_beta 90.000000
_cell_angle_gamma 90.000000
_cell_volume 2163.590612
_symmetry_space_group_name_H-M "C M M M"
_symmetry_group_IT_number 65
_symmetry_cell_setting 'orthorhombic'
loop_
_space_group_symop_operation_xyz
x,y,z
-x,-y,z
x,-y,-z
-x,y,-z
-x,-y,-z
x,y,-z
-x,y,z
x,-y,z
1/2+x,1/2+y,z
1/2-x,1/2-y,z
1/2+x,1/2-y,-z
1/2-x,1/2+y,-z
1/2-x,1/2-y,-z
1/2+x,1/2+y,-z
1/2-x,1/2+y,z
1/2+x,1/2-y,z
loop_
_atom_site_type_symbol
_atom_site_label
_atom_site_fract_x
_atom_site_fract_y
_atom_site_fract_z
Si Si1 0.000000 0.000000 0.500000
Si Si2 0.695357 0.709316 0.000000
Si Si3 0.054188 0.289993 0.000000
Si Si4 0.625974 0.702580 0.771371
Si Si5 0.579785 0.807934 0.500000
O O1 0.958537 0.153858 0.500000
O O2 0.750000 0.750000 0.000000
O O3 0.668202 0.773417 0.134411
O O4 0.688983 0.500000 0.000000
O O5 0.080807 0.218604 0.869235
O O6 0.057738 0.500000 0.000000
O O7 0.000000 0.240610 0.000000
O O8 0.635271 0.500000 0.742587
O O9 0.612417 0.791560 0.632326
O O10 0.557705 0.000000 0.500000
#
# Coordination Sequence:
#
# PCOD9491100 Si02
#       5
#     2   8   8  16   8
#     4  12  26  44  60  88 136 176 210 262 308 358
#     4   9  20  38  66  92 121 159 204 259 327 384
#     4  10  21  33  51  81 114 152 204 251 296 366
#     4  10  21  40  58  84 122 163 201 260 318 365
#     4  12  25  41  64  91 124 174 219 253 309 372
#
# _framework density 19.412175999999999
#
# number of rings (size 3 to 8) (size 9 to 14) (size 15 to 20)
#    0.000    1.714    1.905    3.143    2.667    6.095 
#    0.000    0.952    0.000    0.000    0.000    0.000 
#    0.000    0.000    0.000    0.000    0.000    0.000 
#
# Total GULP energy -116987.348468 kJ/mol
# GULP energy per Si atom -5570.826118 kJ/mol
# Density = 1.936799 g / cm^3
# Si number density = 19.412176 Si / 1000 Ang^3
#
#
#
# Elastic Constant Matrix: (Units=GPa)
#
#
# Indices 1 2 3 4 5 6 
#
# 1 150.4113 21.4099 63.1359 0.0000 0.0000 0.0000
# 2 21.4099 112.4530 23.7429 0.0000 0.0000 0.0000
# 3 63.1359 23.7429 162.5133 0.0000 0.0000 0.0000
# 4 0.0000 0.0000 0.0000 32.6968 0.0000 0.0000
# 5 0.0000 0.0000 0.0000 0.0000 -2.4945 0.0000
# 6 0.0000 0.0000 0.0000 0.0000 0.0000 28.4450
#
#
#
# Elastic Compliance Matrix: (Units=1/GPa)
#
#
# Indices 1 2 3 4 5 6 
#
# 1 0.008031 -0.000898 -0.002989 0.000000 0.000000 0.000000
# 2 -0.000898 0.009276 -0.001006 0.000000 0.000000 0.000000
# 3 -0.002989 -0.001006 0.007461 0.000000 0.000000 0.000000
# 4 0.000000 0.000000 0.000000 0.030584 0.000000 0.000000
# 5 0.000000 0.000000 0.000000 0.000000 -0.400880 0.000000
# 6 0.000000 0.000000 0.000000 0.000000 0.000000 0.035156
#
#
# Mechanical properties :
#
#
# Convention : Reuss Voigt Hill
#
# Bulk Modulus (GPa) = 66.74586 71.32835 69.03711
# Shear Modulus (GPa) = -16.91522 32.86871 7.97675
#
# Velocity S-wave (km/s) = -2.95510 4.11932 2.02930
# Velocity P-wave (km/s) = 4.77647 7.71031 6.41341
#
# Compressibility (1/GPa) = 0.01498220
#
# Stress axis : x y z
#
# Youngs Moduli (GPa) = 124.52072 107.80458 134.02153
#
# Poissons Ratio (x) = 0.09680 0.40056
# Poissons Ratio (y) = 0.11181 0.13487
# Poissons Ratio (z) = 0.37216 0.10849
#
# Static dielectric constant tensor:
#      x y z
#    x 1.651090 0.000000 0.000000 
#    y 0.000000 1.712580 0.000000 
#    z 0.000000 0.000000 1.683060 
# 
# From -- ./inp_files/2726.got.cif
#   From: 2010.05.17/outbox.cif.g08.bks.cpg/sg65_2_cif.got.tgz:2726.got - 2010.06.03 17:01:31.
