data_PCOD9491192
_publ_section_title
;
Structure prediction by ZEFSAII (Michael W. Deem and Ramdas Pophale) SiO2 
 PCOD9491192
Probable space group: C M M M
;
_chemical_formula_sum "Si O2"
_cell_formula_units_Z 88
_cell_length_a 27.764956
_cell_length_b 19.298761
_cell_length_c 7.493606
_cell_angle_alpha 90.000000
_cell_angle_beta 90.000000
_cell_angle_gamma 90.000000
_cell_volume 4015.293283
_symmetry_space_group_name_H-M "C M M M"
_symmetry_group_IT_number 65
_symmetry_cell_setting 'orthorhombic'
loop_
_space_group_symop_operation_xyz
x,y,z
-x,-y,z
x,-y,-z
-x,y,-z
-x,-y,-z
x,y,-z
-x,y,z
x,-y,z
1/2+x,1/2+y,z
1/2-x,1/2-y,z
1/2+x,1/2-y,-z
1/2-x,1/2+y,-z
1/2-x,1/2-y,-z
1/2+x,1/2+y,-z
1/2-x,1/2+y,z
1/2+x,1/2-y,z
loop_
_atom_site_type_symbol
_atom_site_label
_atom_site_fract_x
_atom_site_fract_y
_atom_site_fract_z
Si Si1 0.630668 0.311719 0.202215
Si Si2 0.592219 0.830829 0.203884
Si Si3 0.317171 0.079452 0.286654
Si Si4 0.500000 0.081086 0.781397
Si Si5 0.292875 0.420491 0.212187
Si Si6 0.556243 0.576204 0.715169
O O1 0.610169 0.241506 0.288192
O O2 0.672535 0.359994 0.284973
O O3 0.586058 0.363773 0.197430
O O4 0.646793 0.293185 0.000000
O O5 0.639972 0.877116 0.204618
O O6 0.547576 0.875966 0.276975
O O7 0.577558 0.813848 0.000000
O O8 0.322119 0.082964 0.500000
O O9 0.262697 0.099971 0.239787
O O10 0.322166 0.000000 0.228790
O O11 0.500000 0.000000 0.724113
O O12 0.500000 0.078749 0.000000
O O13 0.299467 0.500000 0.282065
O O14 0.302299 0.424142 0.000000
O O15 0.560505 0.581435 0.500000
O O16 0.500000 0.580168 0.758507
O O17 0.574450 0.500000 0.767951
#
# Coordination Sequence:
#
# PCOD9491192 Si02
#       6
#    16  16  16   8  16  16
#     4  10  21  34  53  82 113 143 180 230 276 322
#     4  10  21  36  56  82 111 144 179 223 279 333
#     4  10  21  37  57  81 107 138 182 230 273 324
#     4   9  18  34  57  81 104 137 182 222 263 325
#     4   9  18  34  55  78 107 144 182 220 268 325
#     4   9  19  35  53  74 104 146 191 229 270 325
#
# _framework density 21.916208000000001
#
# number of rings (size 3 to 8) (size 9 to 14) (size 15 to 20)
#    0.000    2.455    0.000    2.182    1.273    5.455 
#    0.000    6.818    0.000    1.636    0.000    0.000 
#    0.000    0.000    0.000    0.000    0.000    0.000 
#
# Total GULP energy -245503.957817 kJ/mol
# GULP energy per Si atom -5579.635405 kJ/mol
# Density = 2.186633 g / cm^3
# Si number density = 21.916208 Si / 1000 Ang^3
#
#
#
# Elastic Constant Matrix: (Units=GPa)
#
#
# Indices 1 2 3 4 5 6 
#
# 1 144.4758 113.2452 1.8589 0.0000 0.0000 0.0000
# 2 113.2452 163.7266 7.3190 0.0000 0.0000 0.0000
# 3 1.8589 7.3190 60.2339 0.0000 0.0000 0.0000
# 4 0.0000 0.0000 0.0000 -0.3511 0.0000 0.0000
# 5 0.0000 0.0000 0.0000 0.0000 16.4827 0.0000
# 6 0.0000 0.0000 0.0000 0.0000 0.0000 104.5373
#
#
#
# Elastic Compliance Matrix: (Units=1/GPa)
#
#
# Indices 1 2 3 4 5 6 
#
# 1 0.015157 -0.010520 0.000811 0.000000 0.000000 0.000000
# 2 -0.010520 0.013443 -0.001309 0.000000 0.000000 0.000000
# 3 0.000811 -0.001309 0.016736 0.000000 0.000000 0.000000
# 4 0.000000 0.000000 0.000000 -2.848487 0.000000 0.000000
# 5 0.000000 0.000000 0.000000 0.000000 0.060670 0.000000
# 6 0.000000 0.000000 0.000000 0.000000 0.000000 0.009566
#
#
# Mechanical properties :
#
#
# Convention : Reuss Voigt Hill
#
# Bulk Modulus (GPa) = 42.91984 68.14249 55.53116
# Shear Modulus (GPa) = -1.84972 40.53467 19.34248
#
# Velocity S-wave (km/s) = -0.91969 4.30528 2.97402
# Velocity P-wave (km/s) = 4.30097 7.47487 6.09803
#
# Compressibility (1/GPa) = 0.02329925
#
# Stress axis : x y z
#
# Youngs Moduli (GPa) = 65.97587 74.39032 59.75159
#
# Poissons Ratio (x) = 0.78258 -0.04843
# Poissons Ratio (y) = 0.69406 0.07820
# Poissons Ratio (z) = -0.05347 0.09736
#
# Static dielectric constant tensor:
#      x y z
#    x 1.767980 0.000000 0.000000 
#    y 0.000000 1.805050 0.000000 
#    z 0.000000 0.000000 1.842030 
# 
# From -- ./inp_files/11738.got.cif
#   From: 2010.05.17/outbox.cif.g08.bks.cpg/sg65_6_cif.got.tgz:11738.got - 2010.06.03 17:01:31.
