data_PCOD9491144
_publ_section_title
;
Structure prediction by ZEFSAII (Michael W. Deem and Ramdas Pophale) SiO2 
 PCOD9491144
Probable space group: C M M M
;
_chemical_formula_sum "Si O2"
_cell_formula_units_Z 120
_cell_length_a 14.146369
_cell_length_b 29.317156
_cell_length_c 15.432514
_cell_angle_alpha 90.000000
_cell_angle_beta 90.000000
_cell_angle_gamma 90.000000
_cell_volume 6400.346699
_symmetry_space_group_name_H-M "C M M M"
_symmetry_group_IT_number 65
_symmetry_cell_setting 'orthorhombic'
loop_
_space_group_symop_operation_xyz
x,y,z
-x,-y,z
x,-y,-z
-x,y,-z
-x,-y,-z
x,y,-z
-x,y,z
x,-y,z
1/2+x,1/2+y,z
1/2-x,1/2-y,z
1/2+x,1/2-y,-z
1/2-x,1/2+y,-z
1/2-x,1/2-y,-z
1/2+x,1/2+y,-z
1/2-x,1/2+y,z
1/2+x,1/2-y,z
loop_
_atom_site_type_symbol
_atom_site_label
_atom_site_fract_x
_atom_site_fract_y
_atom_site_fract_z
Si Si1 0.613511 0.784029 0.600781
Si Si2 0.114943 0.207979 0.259089
Si Si3 0.112478 0.628789 0.900117
Si Si4 0.681505 0.886739 0.602927
Si Si5 0.500000 0.051744 0.604129
Si Si6 0.280227 0.387676 0.767695
Si Si7 0.613407 0.236677 0.091813
Si Si8 0.386640 0.447237 0.904357
O O1 0.633550 0.774530 0.500000
O O2 0.500000 0.790553 0.610278
O O3 0.638745 0.740589 0.659475
O O4 0.659069 0.833197 0.622465
O O5 0.170042 0.161040 0.247827
O O6 0.144303 0.236739 0.175210
O O7 0.000000 0.200926 0.260343
O O8 0.182888 0.612491 0.824575
O O9 0.131157 0.683089 0.902765
O O10 0.000000 0.621749 0.881642
O O11 0.129271 0.612085 0.000000
O O12 0.701816 0.890060 0.500000
O O13 0.590824 0.917693 0.623911
O O14 0.759582 0.903671 0.670069
O O15 0.500000 0.047549 0.500000
O O16 0.500000 0.000000 0.639951
O O17 0.347816 0.418321 0.825801
O O18 0.500000 0.240890 0.091401
O O19 0.647822 0.255618 0.000000
O O20 0.500000 0.446310 0.903232
O O21 0.356655 0.500000 0.897667
O O22 0.356528 0.429842 0.000000
#
# Coordination Sequence:
#
# PCOD9491144 Si02
#       8
#    16  16  16  16   8  16  16  16
#     4   9  17  33  55  74 106 158 208 245 286 344
#     4  10  21  34  48  75 108 143 190 245 292 335
#     4   9  19  34  50  72 107 149 188 223 275 348
#     4  10  21  35  54  82 115 155 199 241 290 347
#     4   9  18  36  60  82 105 137 187 247 295 334
#     4  12  23  33  56  85 115 145 187 239 296 351
#     4   8  15  29  46  64  96 142 182 221 270 328
#     4   9  20  42  69  91 112 143 186 237 293 354
#
# _framework density 18.748982999999999
#
# number of rings (size 3 to 8) (size 9 to 14) (size 15 to 20)
#    0.000    2.467    0.667    2.800    0.933    5.333 
#    0.000    4.000    0.000    1.200    0.000    2.800 
#    0.000    0.000    0.000    0.000    0.000    0.000 
#
# Total GULP energy -334483.264917 kJ/mol
# GULP energy per Si atom -5574.721082 kJ/mol
# Density = 1.870631 g / cm^3
# Si number density = 18.748983 Si / 1000 Ang^3
#
#
#
# Elastic Constant Matrix: (Units=GPa)
#
#
# Indices 1 2 3 4 5 6 
#
# 1 57.1095 18.9081 31.5916 0.0000 0.0000 0.0000
# 2 18.9081 66.2201 46.6469 0.0000 0.0000 0.0000
# 3 31.5916 46.6469 111.3121 0.0000 0.0000 0.0000
# 4 0.0000 0.0000 0.0000 22.6966 0.0000 0.0000
# 5 0.0000 0.0000 0.0000 0.0000 17.1840 0.0000
# 6 0.0000 0.0000 0.0000 0.0000 0.0000 -14.0586
#
#
#
# Elastic Compliance Matrix: (Units=1/GPa)
#
#
# Indices 1 2 3 4 5 6 
#
# 1 0.021073 -0.002560 -0.004908 0.000000 0.000000 0.000000
# 2 -0.002560 0.021737 -0.008383 0.000000 0.000000 0.000000
# 3 -0.004908 -0.008383 0.013890 0.000000 0.000000 0.000000
# 4 0.000000 0.000000 0.000000 0.044059 0.000000 0.000000
# 5 0.000000 0.000000 0.000000 0.000000 0.058194 0.000000
# 6 0.000000 0.000000 0.000000 0.000000 0.000000 -0.071131
#
#
# Mechanical properties :
#
#
# Convention : Reuss Voigt Hill
#
# Bulk Modulus (GPa) = 40.00243 47.65944 43.83094
# Shear Modulus (GPa) = 39.10684 14.33076 26.71880
#
# Velocity S-wave (km/s) = 4.57202 2.76768 3.77912
# Velocity P-wave (km/s) = 7.01807 5.97397 6.51697
#
# Compressibility (1/GPa) = 0.02499848
#
# Stress axis : x y z
#
# Youngs Moduli (GPa) = 47.45486 46.00449 71.99629
#
# Poissons Ratio (x) = 0.11776 0.35336
# Poissons Ratio (y) = 0.12147 0.60353
# Poissons Ratio (z) = 0.23291 0.38564
#
# Static dielectric constant tensor:
#      x y z
#    x 1.682890 0.000000 0.000000 
#    y 0.000000 1.626650 0.000000 
#    z 0.000000 0.000000 1.676390 
# 
# From -- ./inp_files/41436.got.cif
#   From: 2010.05.17/outbox.cif.g08.bks.cpg/sg65_21_cif.got.tgz:41436.got - 2010.06.03 17:01:31.
