data_PCOD9491033
_publ_section_title
;
Structure prediction by ZEFSAII (Michael W. Deem and Ramdas Pophale) SiO2 
 PCOD9491033
Probable space group: C M M M
;
_chemical_formula_sum "Si O2"
_cell_formula_units_Z 50
_cell_length_a 15.541347
_cell_length_b 16.119263
_cell_length_c 9.363876
_cell_angle_alpha 90.000000
_cell_angle_beta 90.000000
_cell_angle_gamma 90.000000
_cell_volume 2345.791955
_symmetry_space_group_name_H-M "C M M M"
_symmetry_group_IT_number 65
_symmetry_cell_setting 'orthorhombic'
loop_
_space_group_symop_operation_xyz
x,y,z
-x,-y,z
x,-y,-z
-x,y,-z
-x,-y,-z
x,y,-z
-x,y,z
x,-y,z
1/2+x,1/2+y,z
1/2-x,1/2-y,z
1/2+x,1/2-y,-z
1/2-x,1/2+y,-z
1/2-x,1/2-y,-z
1/2+x,1/2+y,-z
1/2-x,1/2+y,z
1/2+x,1/2-y,z
loop_
_atom_site_type_symbol
_atom_site_label
_atom_site_fract_x
_atom_site_fract_y
_atom_site_fract_z
Si Si1 0.809967 0.400242 0.653532
Si Si2 0.000000 0.821393 0.672123
Si Si3 0.500000 0.862973 0.254002
Si Si4 0.155128 0.100368 0.837887
Si Si5 0.000000 0.500000 0.000000
O O1 0.777451 0.369507 0.500000
O O2 0.804176 0.500000 0.654489
O O3 0.909789 0.379574 0.667887
O O4 0.748676 0.371160 0.781198
O O5 0.916024 0.870150 0.725905
O O6 0.000000 0.808482 0.500000
O O7 0.000000 0.735841 0.761218
O O8 0.500000 0.926616 0.123025
O O9 0.154114 0.000000 0.840826
O O10 0.138273 0.128853 0.000000
#
# Coordination Sequence:
#
# PCOD9491033 Si02
#       5
#    16   8   8  16   2
#     4  10  20  39  66  95 129 174 221 268 325 394
#     4  12  26  44  66  98 135 174 223 280 332 390
#     4  12  26  42  68  96 132 170 217 274 333 393
#     4  10  23  42  67  97 136 178 222 270 329 395
#     4  12  28  44  70 100 134 174 222 268 336 408
#
# _framework density 21.314764
#
# number of rings (size 3 to 8) (size 9 to 14) (size 15 to 20)
#    0.000    1.280    1.600    3.360    4.480    6.400 
#    0.000    4.800    0.000    0.000    0.000    0.000 
#    0.000    0.000    0.000    0.000    0.000    0.000 
#
# Total GULP energy -139255.753997 kJ/mol
# GULP energy per Si atom -5570.230160 kJ/mol
# Density = 2.126625 g / cm^3
# Si number density = 21.314764 Si / 1000 Ang^3
#
#
#
# Elastic Constant Matrix: (Units=GPa)
#
#
# Indices 1 2 3 4 5 6 
#
# 1 115.4480 10.3926 48.8970 0.0000 0.0000 0.0000
# 2 10.3926 45.9168 42.8383 0.0000 0.0000 0.0000
# 3 48.8970 42.8383 101.9910 0.0000 0.0000 0.0000
# 4 0.0000 0.0000 0.0000 -306.2769 0.0000 0.0000
# 5 0.0000 0.0000 0.0000 0.0000 -190.7380 0.0000
# 6 0.0000 0.0000 0.0000 0.0000 0.0000 525.7687
#
#
#
# Elastic Compliance Matrix: (Units=1/GPa)
#
#
# Indices 1 2 3 4 5 6 
#
# 1 0.011322 0.004114 -0.007156 0.000000 0.000000 0.000000
# 2 0.004114 0.037306 -0.017642 0.000000 0.000000 0.000000
# 3 -0.007156 -0.017642 0.020645 0.000000 0.000000 0.000000
# 4 0.000000 0.000000 0.000000 -0.003265 0.000000 0.000000
# 5 0.000000 0.000000 0.000000 0.000000 -0.005243 0.000000
# 6 0.000000 0.000000 0.000000 0.000000 0.000000 0.001902
#
#
# Mechanical properties :
#
#
# Convention : Reuss Voigt Hill
#
# Bulk Modulus (GPa) = 35.83446 51.95683 43.89565
# Shear Modulus (GPa) = 44.11575 16.49928 30.30752
#
# Velocity S-wave (km/s) = 4.55436 2.78524 3.77490
# Velocity P-wave (km/s) = 6.67119 5.89681 6.29592
#
# Compressibility (1/GPa) = 0.02790610
#
# Stress axis : x y z
#
# Youngs Moduli (GPa) = 88.31972 26.80521 48.43701
#
# Poissons Ratio (x) = -0.11027 0.34662
# Poissons Ratio (y) = -0.36331 0.85450
# Poissons Ratio (z) = 0.63202 0.47288
#
# Static dielectric constant tensor:
#      x y z
#    x 1.790830 0.000000 0.000000 
#    y 0.000000 1.758440 0.000000 
#    z 0.000000 0.000000 1.758520 
# 
# From -- ./inp_files/5875.got.cif
#   From: 2010.05.17/outbox.cif.g08.bks.cpg/sg65_3_cif.got.tgz:5875.got - 2010.06.03 17:01:31.
