data_PCOD9491879
_publ_section_title
;
Structure prediction by ZEFSAII (Michael W. Deem and Ramdas Pophale) SiO2 
 PCOD9491879
Probable space group: C M M M
;
_chemical_formula_sum "Si O2"
_cell_formula_units_Z 88
_cell_length_a 14.174975
_cell_length_b 16.799860
_cell_length_c 19.765895
_cell_angle_alpha 90.000000
_cell_angle_beta 90.000000
_cell_angle_gamma 90.000000
_cell_volume 4707.002708
_symmetry_space_group_name_H-M "C M M M"
_symmetry_group_IT_number 65
_symmetry_cell_setting 'orthorhombic'
loop_
_space_group_symop_operation_xyz
x,y,z
-x,-y,z
x,-y,-z
-x,y,-z
-x,-y,-z
x,y,-z
-x,y,z
x,-y,z
1/2+x,1/2+y,z
1/2-x,1/2-y,z
1/2+x,1/2-y,-z
1/2-x,1/2+y,-z
1/2-x,1/2-y,-z
1/2+x,1/2+y,-z
1/2-x,1/2+y,z
1/2+x,1/2-y,z
loop_
_atom_site_type_symbol
_atom_site_label
_atom_site_fract_x
_atom_site_fract_y
_atom_site_fract_z
Si Si1 0.809067 0.364900 0.172698
Si Si2 0.107478 0.092049 0.671544
Si Si3 0.106005 0.591994 0.311760
Si Si4 0.608840 0.687676 0.810424
Si Si5 0.730286 0.156304 0.576928
Si Si6 0.887458 0.500000 0.922915
O O1 0.825224 0.398985 0.248005
O O2 0.697977 0.357234 0.156469
O O3 0.860989 0.279388 0.178679
O O4 0.854969 0.422874 0.118573
O O5 0.114074 0.155729 0.732899
O O6 0.183620 0.112484 0.614727
O O7 0.000000 0.097120 0.645488
O O8 0.121055 0.000000 0.695415
O O9 0.106179 0.500000 0.332081
O O10 0.140916 0.641825 0.375122
O O11 0.000000 0.614144 0.290072
O O12 0.500000 0.674756 0.832358
O O13 0.717752 0.128346 0.500000
O O14 0.750000 0.250000 0.575922
O O15 0.000000 0.500000 0.924193
O O16 0.852259 0.500000 0.000000
#
# Coordination Sequence:
#
# PCOD9491879 Si02
#       6
#    16  16  16  16  16   8
#     4  11  21  38  64  93 125 161 204 250 302 363
#     4  10  21  37  57  83 115 153 202 256 308 359
#     4  11  22  36  58  84 111 147 197 251 302 361
#     4  10  21  36  60  94 126 160 204 254 305 358
#     4  11  24  39  54  78 114 155 198 249 313 374
#     4  11  24  42  67  99 132 166 204 249 301 357
#
# _framework density 18.695549
#
# number of rings (size 3 to 8) (size 9 to 14) (size 15 to 20)
#    0.000    1.364    2.727    3.273    1.273    4.364 
#    0.000    5.455    0.000    2.182    0.000    0.000 
#    0.000    0.000    0.000    0.000    0.000    0.000 
#
# Total GULP energy -245475.663718 kJ/mol
# GULP energy per Si atom -5578.992357 kJ/mol
# Density = 1.865300 g / cm^3
# Si number density = 18.695549 Si / 1000 Ang^3
#
#
#
# Elastic Constant Matrix: (Units=GPa)
#
#
# Indices 1 2 3 4 5 6 
#
# 1 121.0249 30.4881 24.9419 0.0000 0.0000 0.0000
# 2 30.4881 78.8344 46.9084 0.0000 0.0000 0.0000
# 3 24.9419 46.9084 93.7985 0.0000 0.0000 0.0000
# 4 0.0000 0.0000 0.0000 -1.0694 0.0000 0.0000
# 5 0.0000 0.0000 0.0000 0.0000 22.9132 0.0000
# 6 0.0000 0.0000 0.0000 0.0000 0.0000 30.4897
#
#
#
# Elastic Compliance Matrix: (Units=1/GPa)
#
#
# Indices 1 2 3 4 5 6 
#
# 1 0.009214 -0.002997 -0.000951 0.000000 0.000000 0.000000
# 2 -0.002997 0.019034 -0.008722 0.000000 0.000000 0.000000
# 3 -0.000951 -0.008722 0.015276 0.000000 0.000000 0.000000
# 4 0.000000 0.000000 0.000000 -0.935111 0.000000 0.000000
# 5 0.000000 0.000000 0.000000 0.000000 0.043643 0.000000
# 6 0.000000 0.000000 0.000000 0.000000 0.000000 0.032798
#
#
# Mechanical properties :
#
#
# Convention : Reuss Voigt Hill
#
# Bulk Modulus (GPa) = 54.99647 55.37051 55.18349
# Shear Modulus (GPa) = -6.37962 23.22134 8.42086
#
# Velocity S-wave (km/s) = -1.84927 3.52814 2.12461
# Velocity P-wave (km/s) = 4.99210 6.80281 5.96654
#
# Compressibility (1/GPa) = 0.01818299
#
# Stress axis : x y z
#
# Youngs Moduli (GPa) = 108.53213 52.53869 65.46354
#
# Poissons Ratio (x) = 0.15748 0.06226
# Poissons Ratio (y) = 0.32532 0.57095
# Poissons Ratio (z) = 0.10322 0.45822
#
# Static dielectric constant tensor:
#      x y z
#    x 1.679390 0.000000 0.000000 
#    y 0.000000 1.657690 0.000000 
#    z 0.000000 0.000000 1.600960 
# 
# From -- ./inp_files/52993.got.cif
#   From: 2010.05.17/outbox.cif.g08.bks.cpg/sg65_27_cif.got.tgz:52993.got - 2010.06.03 17:01:31.
