data_PCOD9491029
_publ_section_title
;
Structure prediction by ZEFSAII (Michael W. Deem and Ramdas Pophale) SiO2 
 PCOD9491029
Probable space group: C M M M
;
_chemical_formula_sum "Si O2"
_cell_formula_units_Z 88
_cell_length_a 17.333979
_cell_length_b 11.557769
_cell_length_c 23.272864
_cell_angle_alpha 90.000000
_cell_angle_beta 90.000000
_cell_angle_gamma 90.000000
_cell_volume 4662.535032
_symmetry_space_group_name_H-M "C M M M"
_symmetry_group_IT_number 65
_symmetry_cell_setting 'orthorhombic'
loop_
_space_group_symop_operation_xyz
x,y,z
-x,-y,z
x,-y,-z
-x,y,-z
-x,-y,-z
x,y,-z
-x,y,z
x,-y,z
1/2+x,1/2+y,z
1/2-x,1/2-y,z
1/2+x,1/2-y,-z
1/2-x,1/2+y,-z
1/2-x,1/2-y,-z
1/2+x,1/2+y,-z
1/2-x,1/2+y,z
1/2+x,1/2-y,z
loop_
_atom_site_type_symbol
_atom_site_label
_atom_site_fract_x
_atom_site_fract_y
_atom_site_fract_z
Si Si1 0.340732 0.245492 0.828551
Si Si2 0.906980 0.712185 0.385436
Si Si3 0.588739 0.361441 0.063235
Si Si4 0.093197 0.131791 0.283875
Si Si5 0.906684 0.500000 0.174700
Si Si6 0.407351 0.000000 0.694757
Si Si7 0.814803 0.645242 0.500000
O O1 0.250000 0.250000 0.819411
O O2 0.362949 0.325661 0.881936
O O3 0.379157 0.288864 0.768957
O O4 0.372310 0.119761 0.847224
O O5 0.884533 0.825232 0.348116
O O6 0.886041 0.611778 0.340689
O O7 0.864845 0.677603 0.443756
O O8 0.000000 0.713840 0.394688
O O9 0.500000 0.321526 0.070939
O O10 0.587009 0.500000 0.061426
O O11 0.615807 0.320641 0.000000
O O12 0.000000 0.136059 0.282730
O O13 0.118770 0.000000 0.274347
O O14 0.879183 0.500000 0.241054
O O15 0.000000 0.500000 0.170884
O O16 0.500000 0.000000 0.698632
O O17 0.798213 0.500000 0.500000
O O18 0.750000 0.750000 0.500000
#
# Coordination Sequence:
#
# PCOD9491029 Si02
#       7
#    16  16  16  16   8   8   8
#     4  12  25  36  58  91 131 163 200 252 313 370
#     4  10  20  39  66  92 112 148 208 261 297 352
#     4   9  19  39  66  88 111 155 211 257 302 366
#     4  10  21  39  64  91 121 158 201 251 309 371
#     4  11  22  40  62  90 127 168 208 248 305 375
#     4   9  16  33  62  86 110 144 197 255 293 337
#     4  12  27  43  61  89 125 166 204 250 314 378
#
# _framework density 18.873853
#
# number of rings (size 3 to 8) (size 9 to 14) (size 15 to 20)
#    0.000    1.636    2.727    3.000    2.545    3.636 
#    0.000    0.455    0.000    4.364    0.000    0.000 
#    0.000    0.000    0.000    0.000    0.000    0.000 
#
# Total GULP energy -245129.968858 kJ/mol
# GULP energy per Si atom -5571.135656 kJ/mol
# Density = 1.883090 g / cm^3
# Si number density = 18.873853 Si / 1000 Ang^3
#
#
#
# Elastic Constant Matrix: (Units=GPa)
#
#
# Indices 1 2 3 4 5 6 
#
# 1 44.2253 28.2404 19.4705 0.0000 0.0000 0.0000
# 2 28.2404 96.8307 16.1952 0.0000 0.0000 0.0000
# 3 19.4705 16.1952 99.9283 0.0000 0.0000 0.0000
# 4 0.0000 0.0000 0.0000 35.7490 0.0000 0.0000
# 5 0.0000 0.0000 0.0000 0.0000 -1.2416 0.0000
# 6 0.0000 0.0000 0.0000 0.0000 0.0000 16.3746
#
#
#
# Elastic Compliance Matrix: (Units=1/GPa)
#
#
# Indices 1 2 3 4 5 6 
#
# 1 0.029628 -0.007889 -0.004494 0.000000 0.000000 0.000000
# 2 -0.007889 0.012716 -0.000524 0.000000 0.000000 0.000000
# 3 -0.004494 -0.000524 0.010968 0.000000 0.000000 0.000000
# 4 0.000000 0.000000 0.000000 0.027973 0.000000 0.000000
# 5 0.000000 0.000000 0.000000 0.000000 -0.805385 0.000000
# 6 0.000000 0.000000 0.000000 0.000000 0.000000 0.061070
#
#
# Mechanical properties :
#
#
# Convention : Reuss Voigt Hill
#
# Bulk Modulus (GPa) = 36.36745 40.97739 38.67242
# Shear Modulus (GPa) = -7.96114 21.98161 7.01023
#
# Velocity S-wave (km/s) = -2.05602 3.41641 1.92933
# Velocity P-wave (km/s) = 3.69787 6.10908 5.04951
#
# Compressibility (1/GPa) = 0.02749712
#
# Stress axis : x y z
#
# Youngs Moduli (GPa) = 33.75211 78.64263 91.17674
#
# Poissons Ratio (x) = 0.62043 0.40977
# Poissons Ratio (y) = 0.26628 0.04775
# Poissons Ratio (z) = 0.15169 0.04118
#
# Static dielectric constant tensor:
#      x y z
#    x 1.647920 0.000000 0.000000 
#    y 0.000000 1.724140 0.000000 
#    z 0.000000 0.000000 1.636800 
# 
# From -- ./inp_files/63652.got.cif
#   From: 2010.05.17/outbox.cif.g08.bks.cpg/sg65_32_cif.got.tgz:63652.got - 2010.06.03 17:01:31.
