data_PCOD9491849
_publ_section_title
;
Structure prediction by ZEFSAII (Michael W. Deem and Ramdas Pophale) SiO2 
 PCOD9491849
Probable space group: C M M M
;
_chemical_formula_sum "Si O2"
_cell_formula_units_Z 112
_cell_length_a 12.933484
_cell_length_b 13.277200
_cell_length_c 27.465368
_cell_angle_alpha 90.000000
_cell_angle_beta 90.000000
_cell_angle_gamma 90.000000
_cell_volume 4716.365456
_symmetry_space_group_name_H-M "C M M M"
_symmetry_group_IT_number 65
_symmetry_cell_setting 'orthorhombic'
loop_
_space_group_symop_operation_xyz
x,y,z
-x,-y,z
x,-y,-z
-x,y,-z
-x,-y,-z
x,y,-z
-x,y,z
x,-y,z
1/2+x,1/2+y,z
1/2-x,1/2-y,z
1/2+x,1/2-y,-z
1/2-x,1/2+y,-z
1/2-x,1/2-y,-z
1/2+x,1/2+y,-z
1/2-x,1/2+y,z
1/2+x,1/2-y,z
loop_
_atom_site_type_symbol
_atom_site_label
_atom_site_fract_x
_atom_site_fract_y
_atom_site_fract_z
Si Si1 0.835556 0.388448 0.089141
Si Si2 0.881842 0.169318 0.762136
Si Si3 0.175876 0.119524 0.552121
Si Si4 0.378955 0.298833 0.657283
Si Si5 0.113251 0.168766 0.057047
Si Si6 0.619882 0.882882 0.601238
Si Si7 0.167257 0.388199 0.202435
O O1 0.865845 0.500000 0.071500
O O2 0.878738 0.290252 0.062322
O O3 0.711350 0.377382 0.084059
O O4 0.864244 0.380313 0.145964
O O5 0.844392 0.148660 0.706605
O O6 0.876417 0.290733 0.769780
O O7 0.792129 0.123222 0.795162
O O8 0.000000 0.135783 0.770449
O O9 0.137973 0.159342 0.500000
O O10 0.130484 0.153192 0.603727
O O11 0.299065 0.138634 0.558366
O O12 0.160816 0.000000 0.550777
O O13 0.500000 0.288736 0.667779
O O14 0.342362 0.185155 0.646185
O O15 0.000000 0.137028 0.074853
O O16 0.122293 0.143275 0.000000
O O17 0.500000 0.861215 0.589397
O O18 0.627789 0.000000 0.612986
O O19 0.138209 0.500000 0.220433
#
# Coordination Sequence:
#
# PCOD9491849 Si02
#       7
#    16  16  16  16  16  16  16
#     4  10  21  38  58  84 120 159 201 249 301 354
#     4  10  22  40  61  86 117 152 193 242 297 356
#     4  10  22  38  57  82 110 144 183 222 270 329
#     4  10  22  38  57  82 109 142 181 223 275 333
#     4  10  21  36  57  87 121 161 207 251 298 351
#     4   9  19  35  55  81 110 139 174 216 265 322
#     4  10  23  39  60  91 119 153 200 246 298 357
#
# _framework density 23.747098999999999
#
# number of rings (size 3 to 8) (size 9 to 14) (size 15 to 20)
#    0.000    2.143    0.000    3.000    4.000    7.714 
#    0.000   10.714    0.000    0.000    0.000    0.000 
#    0.000    0.000    0.000    0.000    0.000    0.000 
#
# Total GULP energy -312641.898854 kJ/mol
# GULP energy per Si atom -5582.891051 kJ/mol
# Density = 2.369305 g / cm^3
# Si number density = 23.747099 Si / 1000 Ang^3
#
#
#
# Elastic Constant Matrix: (Units=GPa)
#
#
# Indices 1 2 3 4 5 6 
#
# 1 78.3757 -12.2072 -0.8203 0.0000 0.0000 0.0000
# 2 -12.2072 70.3766 0.2021 0.0000 0.0000 0.0000
# 3 -0.8203 0.2021 66.4412 0.0000 0.0000 0.0000
# 4 0.0000 0.0000 0.0000 91.6293 0.0000 0.0000
# 5 0.0000 0.0000 0.0000 0.0000 95.2568 0.0000
# 6 0.0000 0.0000 0.0000 0.0000 0.0000 8.9169
#
#
#
# Elastic Compliance Matrix: (Units=1/GPa)
#
#
# Indices 1 2 3 4 5 6 
#
# 1 0.013115 0.002274 0.000155 0.000000 0.000000 0.000000
# 2 0.002274 0.014604 -0.000016 0.000000 0.000000 0.000000
# 3 0.000155 -0.000016 0.015053 0.000000 0.000000 0.000000
# 4 0.000000 0.000000 0.000000 0.010914 0.000000 0.000000
# 5 0.000000 0.000000 0.000000 0.000000 0.010498 0.000000
# 6 0.000000 0.000000 0.000000 0.000000 0.000000 0.112147
#
#
# Mechanical properties :
#
#
# Convention : Reuss Voigt Hill
#
# Bulk Modulus (GPa) = 21.00941 21.06031 21.03486
# Shear Modulus (GPa) = 26.68517 54.36185 40.52351
#
# Velocity S-wave (km/s) = 3.35584 4.78975 4.13542
# Velocity P-wave (km/s) = 4.88691 6.28305 5.62844
#
# Compressibility (1/GPa) = 0.04759772
#
# Stress axis : x y z
#
# Youngs Moduli (GPa) = 76.24903 68.47524 66.43257
#
# Poissons Ratio (x) = -0.15574 -0.01030
# Poissons Ratio (y) = -0.17342 0.00109
# Poissons Ratio (z) = -0.01182 0.00112
#
# Static dielectric constant tensor:
#      x y z
#    x 1.454180 0.000000 0.000000 
#    y 0.000000 1.945450 0.000000 
#    z 0.000000 0.000000 1.858000 
# 
# From -- ./inp_files/70018.got.cif
#   From: 2010.05.17/outbox.cif.g08.bks.cpg/sg65_36_cif.got.tgz:70018.got - 2010.06.03 17:01:31.
