data_PCOD9491028
_publ_section_title
;
Structure prediction by ZEFSAII (Michael W. Deem and Ramdas Pophale) SiO2 
 PCOD9491028
Probable space group: C M M M
;
_chemical_formula_sum "Si O2"
_cell_formula_units_Z 48
_cell_length_a 38.420003
_cell_length_b 7.605789
_cell_length_c 9.021628
_cell_angle_alpha 90.000000
_cell_angle_beta 90.000000
_cell_angle_gamma 90.000000
_cell_volume 2636.249940
_symmetry_space_group_name_H-M "C M M M"
_symmetry_group_IT_number 65
_symmetry_cell_setting 'orthorhombic'
loop_
_space_group_symop_operation_xyz
x,y,z
-x,-y,z
x,-y,-z
-x,y,-z
-x,-y,-z
x,y,-z
-x,y,z
x,-y,z
1/2+x,1/2+y,z
1/2-x,1/2-y,z
1/2+x,1/2-y,-z
1/2-x,1/2+y,-z
1/2-x,1/2-y,-z
1/2+x,1/2+y,-z
1/2-x,1/2+y,z
1/2+x,1/2-y,z
loop_
_atom_site_type_symbol
_atom_site_label
_atom_site_fract_x
_atom_site_fract_y
_atom_site_fract_z
Si Si1 0.790265 0.293971 0.323818
Si Si2 0.162984 0.000000 0.823653
Si Si3 0.459320 0.792692 0.175996
Si Si4 0.912670 0.000000 0.676089
O O1 0.795022 0.259773 0.500000
O O2 0.796426 0.500000 0.296713
O O3 0.750000 0.250000 0.289483
O O4 0.815561 0.169073 0.232789
O O5 0.125026 0.000000 0.751133
O O6 0.160262 0.000000 0.000000
O O7 0.500000 0.755420 0.208267
O O8 0.434306 0.669030 0.268759
O O9 0.453388 0.000000 0.202687
O O10 0.454126 0.760534 0.000000
O O11 0.909248 0.000000 0.500000
#
# Coordination Sequence:
#
# PCOD9491028 Si02
#       4
#    16   8  16   8
#     4  10  20  39  66  90 116 151 191 237 293 356
#     4  12  26  41  59  86 122 159 200 248 297 353
#     4   9  19  38  64  91 120 157 199 243 295 354
#     4  12  25  39  58  85 122 162 202 246 298 353
#
# _framework density 18.207681000000001
#
# number of rings (size 3 to 8) (size 9 to 14) (size 15 to 20)
#    0.000    1.667    1.667    4.500    0.000    6.000 
#    0.000    1.667    0.000    0.000    0.000    0.000 
#    0.000    0.000    0.000    0.000    0.000    0.000 
#
# Total GULP energy -134163.447826 kJ/mol
# GULP energy per Si atom -5590.143659 kJ/mol
# Density = 1.816624 g / cm^3
# Si number density = 18.207681 Si / 1000 Ang^3
#
#
#
# Elastic Constant Matrix: (Units=GPa)
#
#
# Indices 1 2 3 4 5 6 
#
# 1 157.1115 98.3670 118.0895 0.0000 0.0000 0.0000
# 2 98.3670 119.4740 98.4682 0.0000 0.0000 0.0000
# 3 118.0895 98.4682 137.6500 0.0000 0.0000 0.0000
# 4 0.0000 0.0000 0.0000 59.7891 0.0000 0.0000
# 5 0.0000 0.0000 0.0000 0.0000 35.7208 0.0000
# 6 0.0000 0.0000 0.0000 0.0000 0.0000 206.1247
#
#
#
# Elastic Compliance Matrix: (Units=1/GPa)
#
#
# Indices 1 2 3 4 5 6 
#
# 1 0.019280 -0.005462 -0.012633 0.000000 0.000000 0.000000
# 2 -0.005462 0.021941 -0.011010 0.000000 0.000000 0.000000
# 3 -0.012633 -0.011010 0.025978 0.000000 0.000000 0.000000
# 4 0.000000 0.000000 0.000000 0.016725 0.000000 0.000000
# 5 0.000000 0.000000 0.000000 0.000000 0.027995 0.000000
# 6 0.000000 0.000000 0.000000 0.000000 0.000000 0.004851
#
#
# Mechanical properties :
#
#
# Convention : Reuss Voigt Hill
#
# Bulk Modulus (GPa) = 111.23432 116.00944 113.62188
# Shear Modulus (GPa) = 28.09345 66.94764 47.52055
#
# Velocity S-wave (km/s) = 3.93230 6.07031 5.11428
# Velocity P-wave (km/s) = 9.04665 10.62942 9.86981
#
# Compressibility (1/GPa) = 0.00899003
#
# Stress axis : x y z
#
# Youngs Moduli (GPa) = 51.86741 45.57648 38.49346
#
# Poissons Ratio (x) = 0.24894 0.48629
# Poissons Ratio (y) = 0.28330 0.42381
# Poissons Ratio (z) = 0.65524 0.50179
#
# Static dielectric constant tensor:
#      x y z
#    x 1.592050 0.000000 0.000000 
#    y 0.000000 1.615060 0.000000 
#    z 0.000000 0.000000 1.602680 
# 
# From -- ./inp_files/17551.got.cif
#   From: 2010.05.17/outbox.cif.g08.bks.cpg/sg65_9_cif.got.tgz:17551.got - 2010.06.03 17:01:31.
