data_PCOD9491486
_publ_section_title
;
Structure prediction by ZEFSAII (Michael W. Deem and Ramdas Pophale) SiO2 
 PCOD9491486
Probable space group: C M M M
;
_chemical_formula_sum "Si O2"
_cell_formula_units_Z 88
_cell_length_a 26.044278
_cell_length_b 8.101045
_cell_length_c 28.835431
_cell_angle_alpha 90.000000
_cell_angle_beta 90.000000
_cell_angle_gamma 90.000000
_cell_volume 6083.868441
_symmetry_space_group_name_H-M "C M M M"
_symmetry_group_IT_number 65
_symmetry_cell_setting 'orthorhombic'
loop_
_space_group_symop_operation_xyz
x,y,z
-x,-y,z
x,-y,-z
-x,y,-z
-x,-y,-z
x,y,-z
-x,y,z
x,-y,z
1/2+x,1/2+y,z
1/2-x,1/2-y,z
1/2+x,1/2-y,-z
1/2-x,1/2+y,-z
1/2-x,1/2-y,-z
1/2+x,1/2+y,-z
1/2-x,1/2+y,z
1/2+x,1/2-y,z
loop_
_atom_site_type_symbol
_atom_site_label
_atom_site_fract_x
_atom_site_fract_y
_atom_site_fract_z
Si Si1 0.596759 0.304275 0.612505
Si Si2 0.437242 0.000000 0.885991
Si Si3 0.562395 0.686390 0.946269
Si Si4 0.000000 0.695975 0.447977
Si Si5 0.562234 0.000000 0.220657
Si Si6 0.692004 0.802960 0.447489
Si Si7 0.437885 0.694575 0.285788
O O1 0.593442 0.500000 0.613666
O O2 0.550507 0.243646 0.580258
O O3 0.650265 0.254994 0.589335
O O4 0.587284 0.251289 0.665481
O O5 0.420630 0.165083 0.913246
O O6 0.420383 0.000000 0.832629
O O7 0.500000 0.000000 0.886303
O O8 0.500000 0.686732 0.945350
O O9 0.578539 0.500000 0.932894
O O10 0.577114 0.715204 0.000000
O O11 0.000000 0.500000 0.451826
O O12 0.000000 0.767672 0.500000
O O13 0.576836 0.168975 0.247425
O O14 0.500000 0.000000 0.220052
O O15 0.680191 0.740595 0.500000
O O16 0.750000 0.750000 0.436342
O O17 0.690147 0.000000 0.448961
O O18 0.500000 0.700648 0.291471
O O19 0.425464 0.500000 0.275767
#
# Coordination Sequence:
#
# PCOD9491486 Si02
#       7
#    16   8  16   8   8  16  16
#     4  11  21  33  50  68  87 114 141 172 212 256
#     4   9  15  22  31  48  66  90 128 162 208 262
#     4   8  13  20  30  44  64  91 122 162 210 254
#     4  11  23  33  45  69  93 113 139 171 207 253
#     4   9  18  27  40  55  74 106 132 172 224 253
#     4  10  21  36  52  70  91 114 138 165 203 256
#     4   9  18  31  44  61  81 105 140 173 209 258
#
# _framework density 14.464482
#
# number of rings (size 3 to 8) (size 9 to 14) (size 15 to 20)
#    0.000    2.455    0.909    2.727    2.545    5.818 
#    0.000    3.636    0.000    0.000    0.000    0.000 
#    0.000    0.000    0.000    0.000    0.000    0.000 
#
# Total GULP energy -245095.880962 kJ/mol
# GULP energy per Si atom -5570.360931 kJ/mol
# Density = 1.443156 g / cm^3
# Si number density = 14.464482 Si / 1000 Ang^3
#
#
#
# Elastic Constant Matrix: (Units=GPa)
#
#
# Indices 1 2 3 4 5 6 
#
# 1 31.2123 17.1719 31.4430 0.0000 0.0000 0.0000
# 2 17.1719 89.2656 80.5958 0.0000 0.0000 0.0000
# 3 31.4430 80.5958 130.2754 0.0000 0.0000 0.0000
# 4 0.0000 0.0000 0.0000 -5.4244 0.0000 0.0000
# 5 0.0000 0.0000 0.0000 0.0000 5.6761 0.0000
# 6 0.0000 0.0000 0.0000 0.0000 0.0000 15.8034
#
#
#
# Elastic Compliance Matrix: (Units=1/GPa)
#
#
# Indices 1 2 3 4 5 6 
#
# 1 0.042569 0.002464 -0.011799 0.000000 0.000000 0.000000
# 2 0.002464 0.025520 -0.016383 0.000000 0.000000 0.000000
# 3 -0.011799 -0.016383 0.020659 0.000000 0.000000 0.000000
# 4 0.000000 0.000000 0.000000 -0.184351 0.000000 0.000000
# 5 0.000000 0.000000 0.000000 0.000000 0.176177 0.000000
# 6 0.000000 0.000000 0.000000 0.000000 0.000000 0.063277
#
#
# Mechanical properties :
#
#
# Convention : Reuss Voigt Hill
#
# Bulk Modulus (GPa) = 26.80040 56.57496 41.68768
# Shear Modulus (GPa) = 24.07033 11.31387 17.69210
#
# Velocity S-wave (km/s) = 4.08376 2.79979 3.50114
# Velocity P-wave (km/s) = 6.38786 7.04625 6.72512
#
# Compressibility (1/GPa) = 0.03731288
#
# Stress axis : x y z
#
# Youngs Moduli (GPa) = 23.49128 39.18422 48.40457
#
# Poissons Ratio (x) = -0.09654 0.57110
# Poissons Ratio (y) = -0.05788 0.79301
# Poissons Ratio (z) = 0.27716 0.64196
#
# Static dielectric constant tensor:
#      x y z
#    x 1.431310 0.000000 0.000000 
#    y 0.000000 1.504330 0.000000 
#    z 0.000000 0.000000 1.496790 
# 
# From -- ./inp_files/59889.got.cif
#   From: 2010.05.17/outbox.cif.g08.bks.cpg/sg65_30_cif.got.tgz:59889.got - 2010.06.03 17:01:31.
