data_PCOD9491137
_publ_section_title
;
Structure prediction by ZEFSAII (Michael W. Deem and Ramdas Pophale) SiO2 
 PCOD9491137
Probable space group: C M M M
;
_chemical_formula_sum "Si O2"
_cell_formula_units_Z 112
_cell_length_a 19.462147
_cell_length_b 20.715538
_cell_length_c 15.469845
_cell_angle_alpha 90.000000
_cell_angle_beta 90.000000
_cell_angle_gamma 90.000000
_cell_volume 6236.959552
_symmetry_space_group_name_H-M "C M M M"
_symmetry_group_IT_number 65
_symmetry_cell_setting 'orthorhombic'
loop_
_space_group_symop_operation_xyz
x,y,z
-x,-y,z
x,-y,-z
-x,y,-z
-x,-y,-z
x,y,-z
-x,y,z
x,-y,z
1/2+x,1/2+y,z
1/2-x,1/2-y,z
1/2+x,1/2-y,-z
1/2-x,1/2+y,-z
1/2-x,1/2-y,-z
1/2+x,1/2+y,-z
1/2-x,1/2+y,z
1/2+x,1/2-y,z
loop_
_atom_site_type_symbol
_atom_site_label
_atom_site_fract_x
_atom_site_fract_y
_atom_site_fract_z
Si Si1 0.704150 0.077078 0.901441
Si Si2 0.279063 0.425437 0.276277
Si Si3 0.919947 0.331889 0.147667
Si Si4 0.281315 0.818638 0.401822
Si Si5 0.079902 0.866153 0.276278
Si Si6 0.923291 0.721094 0.343409
Si Si7 0.582909 0.691523 0.908731
O O1 0.757724 0.090426 0.823312
O O2 0.633143 0.112699 0.876733
O O3 0.693905 0.000000 0.901662
O O4 0.724300 0.095832 0.000000
O O5 0.260103 0.500000 0.291138
O O6 0.239828 0.375525 0.338019
O O7 0.359629 0.415146 0.298035
O O8 0.919098 0.312996 0.249145
O O9 0.895590 0.265719 0.102046
O O10 0.000000 0.345381 0.124647
O O11 0.257447 0.830322 0.500000
O O12 0.250000 0.750000 0.371570
O O13 0.362691 0.807625 0.399264
O O14 0.086051 0.798093 0.327355
O O15 0.096681 0.847823 0.177031
O O16 0.000000 0.887133 0.283141
O O17 0.000000 0.711238 0.377531
O O18 0.500000 0.694484 0.910679
O O19 0.607746 0.664503 0.000000
#
# Coordination Sequence:
#
# PCOD9491137 Si02
#       7
#    16  16  16  16  16  16  16
#     4  10  21  34  48  71 105 149 197 235 273 325
#     4  11  23  39  58  80 115 155 188 236 285 328
#     4   9  16  28  49  74 104 143 184 229 282 334
#     4  11  22  38  63  90 113 146 190 232 278 340
#     4   9  18  33  55  80 108 145 185 227 280 339
#     4   9  17  33  58  86 114 142 178 232 285 330
#     4   8  14  25  44  73 104 133 174 229 279 321
#
# _framework density 17.957467999999999
#
# number of rings (size 3 to 8) (size 9 to 14) (size 15 to 20)
#    0.000    2.429    2.857    2.143    0.000    2.571 
#    0.000    0.714    0.000    3.857    0.000    6.000 
#    0.000    0.000    0.000    0.000    0.000    0.000 
#
# Total GULP energy -311896.555566 kJ/mol
# GULP energy per Si atom -5569.581349 kJ/mol
# Density = 1.791660 g / cm^3
# Si number density = 17.957468 Si / 1000 Ang^3
#
#
#
# Elastic Constant Matrix: (Units=GPa)
#
#
# Indices 1 2 3 4 5 6 
#
# 1 92.6246 39.6791 16.9298 0.0000 0.0000 0.0000
# 2 39.6791 60.5189 38.9839 0.0000 0.0000 0.0000
# 3 16.9298 38.9839 56.9543 0.0000 0.0000 0.0000
# 4 0.0000 0.0000 0.0000 12.4171 0.0000 0.0000
# 5 0.0000 0.0000 0.0000 0.0000 12.1906 0.0000
# 6 0.0000 0.0000 0.0000 0.0000 0.0000 22.3792
#
#
#
# Elastic Compliance Matrix: (Units=1/GPa)
#
#
# Indices 1 2 3 4 5 6 
#
# 1 0.015559 -0.012918 0.004217 0.000000 0.000000 0.000000
# 2 -0.012918 0.040280 -0.023731 0.000000 0.000000 0.000000
# 3 0.004217 -0.023731 0.032548 0.000000 0.000000 0.000000
# 4 0.000000 0.000000 0.000000 0.080534 0.000000 0.000000
# 5 0.000000 0.000000 0.000000 0.000000 0.082031 0.000000
# 6 0.000000 0.000000 0.000000 0.000000 0.000000 0.044684
#
#
# Mechanical properties :
#
#
# Convention : Reuss Voigt Hill
#
# Bulk Modulus (GPa) = 42.51083 44.58702 43.54893
# Shear Modulus (GPa) = 13.57444 17.03105 15.30275
#
# Velocity S-wave (km/s) = 2.75239 3.08297 2.92236
# Velocity P-wave (km/s) = 5.81595 6.12830 5.97417
#
# Compressibility (1/GPa) = 0.02352341
#
# Stress axis : x y z
#
# Youngs Moduli (GPa) = 64.27026 24.82647 30.72431
#
# Poissons Ratio (x) = 0.32070 -0.12956
# Poissons Ratio (y) = 0.83023 0.72911
# Poissons Ratio (z) = -0.27102 0.58915
#
# Static dielectric constant tensor:
#      x y z
#    x 1.625000 0.000000 0.000000 
#    y 0.000000 1.592330 0.000000 
#    z 0.000000 0.000000 1.648140 
# 
# From -- ./inp_files/54884.got.cif
#   From: 2010.05.17/outbox.cif.g08.bks.cpg/sg65_28_cif.got.tgz:54884.got - 2010.06.03 17:01:31.
