data_PCOD9491437
_publ_section_title
;
Structure prediction by ZEFSAII (Michael W. Deem and Ramdas Pophale) SiO2 
 PCOD9491437
Probable space group: C M M M
;
_chemical_formula_sum "Si O2"
_cell_formula_units_Z 88
_cell_length_a 21.539433
_cell_length_b 8.186541
_cell_length_c 25.130764
_cell_angle_alpha 90.000000
_cell_angle_beta 90.000000
_cell_angle_gamma 90.000000
_cell_volume 4431.394352
_symmetry_space_group_name_H-M "C M M M"
_symmetry_group_IT_number 65
_symmetry_cell_setting 'orthorhombic'
loop_
_space_group_symop_operation_xyz
x,y,z
-x,-y,z
x,-y,-z
-x,y,-z
-x,-y,-z
x,y,-z
-x,y,z
x,-y,z
1/2+x,1/2+y,z
1/2-x,1/2-y,z
1/2+x,1/2-y,-z
1/2-x,1/2+y,-z
1/2-x,1/2-y,-z
1/2+x,1/2+y,-z
1/2-x,1/2+y,z
1/2+x,1/2-y,z
loop_
_atom_site_type_symbol
_atom_site_label
_atom_site_fract_x
_atom_site_fract_y
_atom_site_fract_z
Si Si1 0.823350 0.197666 0.500000
Si Si2 0.819202 0.693848 0.000000
Si Si3 0.180930 0.805107 0.220254
Si Si4 0.569374 0.804192 0.296034
Si Si5 0.626078 0.694693 0.889573
Si Si6 0.000000 0.200637 0.936836
Si Si7 0.929755 0.196288 0.581920
O O1 0.750000 0.250000 0.500000
O O2 0.868495 0.251354 0.549250
O O3 0.821099 0.000000 0.500000
O O4 0.750000 0.750000 0.000000
O O5 0.844075 0.769500 0.946002
O O6 0.828512 0.500000 0.000000
O O7 0.250000 0.750000 0.235620
O O8 0.125780 0.754793 0.259717
O O9 0.162487 0.739040 0.161414
O O10 0.182642 0.000000 0.218434
O O11 0.500000 0.750464 0.277593
O O12 0.576957 0.741702 0.356331
O O13 0.569977 0.000000 0.296791
O O14 0.622149 0.500000 0.881916
O O15 0.557659 0.757984 0.901753
O O16 0.000000 0.000000 0.938947
O O17 0.000000 0.251171 0.000000
O O18 0.000000 0.254127 0.565307
O O19 0.931143 0.000000 0.576188
#
# Coordination Sequence:
#
# PCOD9491437 Si02
#       7
#     8   8  16  16  16   8  16
#     4  10  21  35  55  87 123 158 196 244 298 346
#     4  12  24  37  56  79 109 146 186 230 283 346
#     4  11  24  40  62  87 117 154 198 245 294 353
#     4  10  22  40  62  89 122 157 196 245 299 352
#     4  10  21  38  60  85 113 146 186 231 283 344
#     4   9  16  32  60  86 112 142 176 221 276 339
#     4   9  18  36  61  86 115 155 204 248 288 341
#
# _framework density 19.858308000000001
#
# number of rings (size 3 to 8) (size 9 to 14) (size 15 to 20)
#    0.000    1.909    0.909    2.727    1.273    6.545 
#    0.000    2.727    0.000    2.727    0.000    0.000 
#    0.000    0.000    0.000    0.000    0.000    0.000 
#
# Total GULP energy -245213.052607 kJ/mol
# GULP energy per Si atom -5573.023923 kJ/mol
# Density = 1.981311 g / cm^3
# Si number density = 19.858308 Si / 1000 Ang^3
#
#
#
# Elastic Constant Matrix: (Units=GPa)
#
#
# Indices 1 2 3 4 5 6 
#
# 1 221.8534 19.4471 91.3367 0.0000 0.0000 0.0000
# 2 19.4471 15.0683 7.2593 0.0000 0.0000 0.0000
# 3 91.3367 7.2593 113.3764 0.0000 0.0000 0.0000
# 4 0.0000 0.0000 0.0000 49.7739 0.0000 0.0000
# 5 0.0000 0.0000 0.0000 0.0000 13.1713 0.0000
# 6 0.0000 0.0000 0.0000 0.0000 0.0000 19.9792
#
#
#
# Elastic Compliance Matrix: (Units=1/GPa)
#
#
# Indices 1 2 3 4 5 6 
#
# 1 0.007374 -0.006867 -0.005501 0.000000 0.000000 0.000000
# 2 -0.006867 0.074872 0.000738 0.000000 0.000000 0.000000
# 3 -0.005501 0.000738 0.013205 0.000000 0.000000 0.000000
# 4 0.000000 0.000000 0.000000 0.020091 0.000000 0.000000
# 5 0.000000 0.000000 0.000000 0.000000 0.075923 0.000000
# 6 0.000000 0.000000 0.000000 0.000000 0.000000 0.050052
#
#
# Mechanical properties :
#
#
# Convention : Reuss Voigt Hill
#
# Bulk Modulus (GPa) = 13.85220 65.15381 39.50300
# Shear Modulus (GPa) = 17.31067 32.06854 24.68961
#
# Velocity S-wave (km/s) = 2.95568 4.02290 3.52986
# Velocity P-wave (km/s) = 4.31725 7.37963 6.04556
#
# Compressibility (1/GPa) = 0.07219072
#
# Stress axis : x y z
#
# Youngs Moduli (GPa) = 135.60841 13.35620 75.73146
#
# Poissons Ratio (x) = 0.09172 0.41660
# Poissons Ratio (y) = 0.93122 -0.05590
# Poissons Ratio (z) = 0.74598 -0.00986
#
# Static dielectric constant tensor:
#      x y z
#    x 1.542610 0.000000 0.000000 
#    y 0.000000 1.698140 0.000000 
#    z 0.000000 0.000000 1.661940 
# 
# From -- ./inp_files/71116.got.cif
#   From: 2010.05.17/outbox.cif.g08.bks.cpg/sg65_36_cif.got.tgz:71116.got - 2010.06.03 17:01:31.
