data_PCOD9491918
_publ_section_title
;
Structure prediction by ZEFSAII (Michael W. Deem and Ramdas Pophale) SiO2 
 PCOD9491918
Probable space group: C M M M
;
_chemical_formula_sum "Si O2"
_cell_formula_units_Z 88
_cell_length_a 30.182876
_cell_length_b 7.849706
_cell_length_c 19.751079
_cell_angle_alpha 90.000000
_cell_angle_beta 90.000000
_cell_angle_gamma 90.000000
_cell_volume 4679.558025
_symmetry_space_group_name_H-M "C M M M"
_symmetry_group_IT_number 65
_symmetry_cell_setting 'orthorhombic'
loop_
_space_group_symop_operation_xyz
x,y,z
-x,-y,z
x,-y,-z
-x,y,-z
-x,-y,-z
x,y,-z
-x,y,z
x,-y,z
1/2+x,1/2+y,z
1/2-x,1/2-y,z
1/2+x,1/2-y,-z
1/2-x,1/2+y,-z
1/2-x,1/2-y,-z
1/2+x,1/2+y,-z
1/2-x,1/2+y,z
1/2+x,1/2-y,z
loop_
_atom_site_type_symbol
_atom_site_label
_atom_site_fract_x
_atom_site_fract_y
_atom_site_fract_z
Si Si1 0.173686 0.701892 0.500000
Si Si2 0.550733 0.704304 0.852410
Si Si3 0.879012 0.690271 0.260431
Si Si4 0.067802 0.298898 0.500000
Si Si5 0.699849 0.793916 0.350372
Si Si6 0.053581 0.194839 0.000000
Si Si7 0.451574 0.696937 0.352814
O O1 0.184653 0.500000 0.500000
O O2 0.120823 0.719572 0.500000
O O3 0.190807 0.770678 0.572467
O O4 0.500000 0.764430 0.836033
O O5 0.547137 0.500000 0.858583
O O6 0.589270 0.736842 0.798151
O O7 0.564334 0.772912 0.926895
O O8 0.867221 0.500000 0.238617
O O9 0.835079 0.771728 0.293893
O O10 0.912614 0.690608 0.323773
O O11 0.057104 0.500000 0.500000
O O12 0.049563 0.213580 0.567060
O O13 0.750000 0.750000 0.332511
O O14 0.694020 0.000000 0.352432
O O15 0.000000 0.186000 0.000000
O O16 0.070953 0.000000 0.000000
O O17 0.500000 0.749019 0.327599
O O18 0.444364 0.500000 0.332840
#
# Coordination Sequence:
#
# PCOD9491918 Si02
#       7
#     8  16  16   8  16   8  16
#     4   9  17  35  55  71  94 121 155 205 259 309
#     4   9  17  31  52  78 108 141 175 208 241 285
#     4  11  22  35  51  73 103 135 167 205 252 305
#     4  11  20  35  54  70  94 128 164 206 257 305
#     4  10  21  37  55  74  96 124 162 210 262 313
#     4   7  12  26  49  75 104 139 174 205 240 283
#     4  11  23  36  49  69  98 131 171 213 246 288
#
# _framework density 18.805194
#
# number of rings (size 3 to 8) (size 9 to 14) (size 15 to 20)
#    0.000    2.091    1.818    3.545    0.000    6.545 
#    0.000    0.455    0.000    1.636    0.000    0.636 
#    0.000    0.000    0.000    0.000    0.000    0.000 
#
# Total GULP energy -245211.832601 kJ/mol
# GULP energy per Si atom -5572.996195 kJ/mol
# Density = 1.876239 g / cm^3
# Si number density = 18.805194 Si / 1000 Ang^3
#
#
#
# Elastic Constant Matrix: (Units=GPa)
#
#
# Indices 1 2 3 4 5 6 
#
# 1 121.3875 13.3827 61.1285 0.0000 0.0000 0.0000
# 2 13.3827 24.9632 2.9325 0.0000 0.0000 0.0000
# 3 61.1285 2.9325 142.5496 0.0000 0.0000 0.0000
# 4 0.0000 0.0000 0.0000 34.7278 0.0000 0.0000
# 5 0.0000 0.0000 0.0000 0.0000 12.2251 0.0000
# 6 0.0000 0.0000 0.0000 0.0000 0.0000 12.6708
#
#
#
# Elastic Compliance Matrix: (Units=1/GPa)
#
#
# Indices 1 2 3 4 5 6 
#
# 1 0.011202 -0.005454 -0.004691 0.000000 0.000000 0.000000
# 2 -0.005454 0.042812 0.001458 0.000000 0.000000 0.000000
# 3 -0.004691 0.001458 0.008997 0.000000 0.000000 0.000000
# 4 0.000000 0.000000 0.000000 0.028795 0.000000 0.000000
# 5 0.000000 0.000000 0.000000 0.000000 0.081799 0.000000
# 6 0.000000 0.000000 0.000000 0.000000 0.000000 0.078921
#
#
# Mechanical properties :
#
#
# Convention : Reuss Voigt Hill
#
# Bulk Modulus (GPa) = 21.91271 49.30972 35.61122
# Shear Modulus (GPa) = 17.53691 26.02186 21.77939
#
# Velocity S-wave (km/s) = 3.05709 3.72393 3.40686
# Velocity P-wave (km/s) = 4.91313 6.69092 5.86972
#
# Compressibility (1/GPa) = 0.04563562
#
# Stress axis : x y z
#
# Youngs Moduli (GPa) = 89.27048 23.35809 111.14944
#
# Poissons Ratio (x) = 0.12740 0.52145
# Poissons Ratio (y) = 0.48690 -0.16207
# Poissons Ratio (z) = 0.41881 -0.03406
#
# Static dielectric constant tensor:
#      x y z
#    x 1.649500 0.000000 0.000000 
#    y 0.000000 1.714850 0.000000 
#    z 0.000000 0.000000 1.708070 
# 
# From -- ./inp_files/58055.got.cif
#   From: 2010.05.17/outbox.cif.g08.bks.cpg/sg65_30_cif.got.tgz:58055.got - 2010.06.03 17:01:31.
