data_PCOD9491159
_publ_section_title
;
Structure prediction by ZEFSAII (Michael W. Deem and Ramdas Pophale) SiO2 
 PCOD9491159
Probable space group: C M M M
;
_chemical_formula_sum "Si O2"
_cell_formula_units_Z 112
_cell_length_a 14.309281
_cell_length_b 15.015868
_cell_length_c 27.890515
_cell_angle_alpha 90.000000
_cell_angle_beta 90.000000
_cell_angle_gamma 90.000000
_cell_volume 5992.731057
_symmetry_space_group_name_H-M "C M M M"
_symmetry_group_IT_number 65
_symmetry_cell_setting 'orthorhombic'
loop_
_space_group_symop_operation_xyz
x,y,z
-x,-y,z
x,-y,-z
-x,y,-z
-x,-y,-z
x,y,-z
-x,y,z
x,-y,z
1/2+x,1/2+y,z
1/2-x,1/2-y,z
1/2+x,1/2-y,-z
1/2-x,1/2+y,-z
1/2-x,1/2-y,-z
1/2+x,1/2+y,-z
1/2-x,1/2+y,z
1/2+x,1/2-y,z
loop_
_atom_site_type_symbol
_atom_site_label
_atom_site_fract_x
_atom_site_fract_y
_atom_site_fract_z
Si Si1 0.395941 0.165095 0.773169
Si Si2 0.395529 0.106705 0.054470
Si Si3 0.232522 0.644395 0.857407
Si Si4 0.391269 0.232438 0.557408
Si Si5 0.270509 0.392716 0.595633
Si Si6 0.245539 0.900191 0.706989
Si Si7 0.894839 0.126025 0.792990
O O1 0.500000 0.131417 0.763974
O O2 0.343146 0.116992 0.816922
O O3 0.327098 0.161180 0.727979
O O4 0.401390 0.267170 0.789349
O O5 0.500000 0.138598 0.069977
O O6 0.313520 0.127207 0.091508
O O7 0.400593 0.000000 0.052350
O O8 0.379098 0.139156 0.000000
O O9 0.250000 0.750000 0.854834
O O10 0.329679 0.603454 0.838546
O O11 0.384981 0.222803 0.500000
O O12 0.500000 0.226569 0.571725
O O13 0.347870 0.329107 0.570969
O O14 0.327111 0.154691 0.580487
O O15 0.274028 0.500000 0.585149
O O16 0.282432 0.380572 0.652835
O O17 0.160271 0.898986 0.744538
O O18 0.285481 0.000000 0.707320
O O19 0.000000 0.093011 0.795552
#
# Coordination Sequence:
#
# PCOD9491159 Si02
#       7
#    16  16  16  16  16  16  16
#     4   9  18  32  51  73  99 134 170 207 253 307
#     4   9  18  32  50  73  99 126 160 207 264 319
#     4   9  17  30  49  72 100 129 167 211 255 305
#     4  10  23  41  62  89 116 148 194 240 286 344
#     4  10  22  39  60  86 119 153 188 236 290 341
#     4  10  21  34  49  76 109 137 172 214 258 312
#     4   9  19  34  51  71  99 138 176 209 249 301
#
# _framework density 18.689309000000002
#
# number of rings (size 3 to 8) (size 9 to 14) (size 15 to 20)
#    0.000    2.571    0.000    3.000    4.000    6.571 
#    0.000    4.286    0.000    0.429    0.000    1.000 
#    0.000    0.000    0.000    0.000    0.000    0.000 
#
# Total GULP energy -311924.219457 kJ/mol
# GULP energy per Si atom -5570.075347 kJ/mol
# Density = 1.864677 g / cm^3
# Si number density = 18.689309 Si / 1000 Ang^3
#
#
#
# Elastic Constant Matrix: (Units=GPa)
#
#
# Indices 1 2 3 4 5 6 
#
# 1 149.3461 34.9739 58.8128 0.0000 0.0000 0.0000
# 2 34.9739 65.1456 15.7080 0.0000 0.0000 0.0000
# 3 58.8128 15.7080 94.5298 0.0000 0.0000 0.0000
# 4 0.0000 0.0000 0.0000 29.3698 0.0000 0.0000
# 5 0.0000 0.0000 0.0000 0.0000 2.2274 0.0000
# 6 0.0000 0.0000 0.0000 0.0000 0.0000 -5.9783
#
#
#
# Elastic Compliance Matrix: (Units=1/GPa)
#
#
# Indices 1 2 3 4 5 6 
#
# 1 0.009747 -0.003928 -0.005411 0.000000 0.000000 0.000000
# 2 -0.003928 0.017574 -0.000477 0.000000 0.000000 0.000000
# 3 -0.005411 -0.000477 0.014025 0.000000 0.000000 0.000000
# 4 0.000000 0.000000 0.000000 0.034049 0.000000 0.000000
# 5 0.000000 0.000000 0.000000 0.000000 0.448952 0.000000
# 6 0.000000 0.000000 0.000000 0.000000 0.000000 -0.167273
#
#
# Mechanical properties :
#
#
# Convention : Reuss Voigt Hill
#
# Bulk Modulus (GPa) = 46.05370 58.66787 52.36078
# Shear Modulus (GPa) = 13.02279 18.42558 15.72419
#
# Velocity S-wave (km/s) = 2.64257 3.14329 2.90374
# Velocity P-wave (km/s) = 5.83148 6.68079 6.27053
#
# Compressibility (1/GPa) = 0.02171378
#
# Stress axis : x y z
#
# Youngs Moduli (GPa) = 102.59934 56.90294 71.30342
#
# Poissons Ratio (x) = 0.22350 0.38585
# Poissons Ratio (y) = 0.40299 0.03398
# Poissons Ratio (z) = 0.55520 0.02712
#
# Static dielectric constant tensor:
#      x y z
#    x 1.670590 0.000000 0.000000 
#    y 0.000000 1.516470 0.000000 
#    z 0.000000 0.000000 1.650710 
# 
# From -- ./inp_files/74910.got.cif
#   From: 2010.05.17/outbox.cif.g08.bks.cpg/sg65_38_cif.got.tgz:74910.got - 2010.06.03 17:01:31.
