data_PCOD9491046
_publ_section_title
;
Structure prediction by ZEFSAII (Michael W. Deem and Ramdas Pophale) SiO2 
 PCOD9491046
Probable space group: C M M M
;
_chemical_formula_sum "Si O2"
_cell_formula_units_Z 72
_cell_length_a 7.604946
_cell_length_b 16.098165
_cell_length_c 29.327633
_cell_angle_alpha 90.000000
_cell_angle_beta 90.000000
_cell_angle_gamma 90.000000
_cell_volume 3590.455282
_symmetry_space_group_name_H-M "C M M M"
_symmetry_group_IT_number 65
_symmetry_cell_setting 'orthorhombic'
loop_
_space_group_symop_operation_xyz
x,y,z
-x,-y,z
x,-y,-z
-x,y,-z
-x,-y,-z
x,y,-z
-x,y,z
x,-y,z
1/2+x,1/2+y,z
1/2-x,1/2-y,z
1/2+x,1/2-y,-z
1/2-x,1/2+y,-z
1/2-x,1/2-y,-z
1/2+x,1/2+y,-z
1/2-x,1/2+y,z
1/2+x,1/2-y,z
loop_
_atom_site_type_symbol
_atom_site_label
_atom_site_fract_x
_atom_site_fract_y
_atom_site_fract_z
Si Si1 0.208867 0.347579 0.120516
Si Si2 0.788304 0.000000 0.390136
Si Si3 0.788967 0.156596 0.447877
Si Si4 0.500000 0.402482 0.949356
Si Si5 0.288881 0.000000 0.716562
Si Si6 0.210790 0.347876 0.222694
O O1 0.250000 0.250000 0.120895
O O2 0.328254 0.381759 0.080294
O O3 0.265312 0.374766 0.171494
O O4 0.000000 0.362560 0.114603
O O5 0.722786 0.917119 0.415749
O O6 0.747696 0.000000 0.336919
O O7 0.000000 0.000000 0.394304
O O8 0.722203 0.148571 0.500000
O O9 0.750000 0.250000 0.431661
O O10 0.000000 0.149220 0.449915
O O11 0.500000 0.500000 0.954827
O O12 0.500000 0.362906 0.000000
O O13 0.222741 0.084395 0.741082
O O14 0.500000 0.000000 0.722023
O O15 0.250000 0.250000 0.230868
O O16 0.000000 0.351881 0.222469
#
# Coordination Sequence:
#
# PCOD9491046 Si02
#       6
#    16   8  16   8   8  16
#     4  10  20  40  65  90 117 156 202 247 298 355
#     4  10  21  36  52  78 112 144 187 227 281 346
#     4   9  18  34  56  79 106 144 188 233 278 331
#     4  11  26  42  58  92 129 157 199 247 298 364
#     4  10  22  39  55  81 114 151 186 229 297 345
#     4   9  20  37  59  84 111 143 192 241 283 346
#
# _framework density 20.053166999999998
#
# number of rings (size 3 to 8) (size 9 to 14) (size 15 to 20)
#    0.000    2.333    1.111    0.333    3.111    5.333 
#    0.000    5.556    0.000    3.333    0.000    0.000 
#    0.000    0.000    0.000    0.000    0.000    0.000 
#
# Total GULP energy -200796.080891 kJ/mol
# GULP energy per Si atom -5577.668914 kJ/mol
# Density = 2.000753 g / cm^3
# Si number density = 20.053167 Si / 1000 Ang^3
#
#
#
# Elastic Constant Matrix: (Units=GPa)
#
#
# Indices 1 2 3 4 5 6 
#
# 1 69.3687 21.2318 35.2358 0.0000 0.0000 0.0000
# 2 21.2318 134.4823 115.4836 0.0000 0.0000 0.0000
# 3 35.2358 115.4836 172.2851 0.0000 0.0000 0.0000
# 4 0.0000 0.0000 0.0000 11.0148 0.0000 0.0000
# 5 0.0000 0.0000 0.0000 0.0000 29.1319 0.0000
# 6 0.0000 0.0000 0.0000 0.0000 0.0000 14.2870
#
#
#
# Elastic Compliance Matrix: (Units=1/GPa)
#
#
# Indices 1 2 3 4 5 6 
#
# 1 0.016113 0.000674 -0.003747 0.000000 0.000000 0.000000
# 2 0.000674 0.017550 -0.011901 0.000000 0.000000 0.000000
# 3 -0.003747 -0.011901 0.014548 0.000000 0.000000 0.000000
# 4 0.000000 0.000000 0.000000 0.090787 0.000000 0.000000
# 5 0.000000 0.000000 0.000000 0.000000 0.034327 0.000000
# 6 0.000000 0.000000 0.000000 0.000000 0.000000 0.069994
#
#
# Mechanical properties :
#
#
# Convention : Reuss Voigt Hill
#
# Bulk Modulus (GPa) = 54.76026 80.00428 67.38227
# Shear Modulus (GPa) = 17.89840 24.49905 21.19873
#
# Velocity S-wave (km/s) = 2.99079 3.49908 3.25487
# Velocity P-wave (km/s) = 6.26844 7.50383 6.91378
#
# Compressibility (1/GPa) = 0.01826142
#
# Stress axis : x y z
#
# Youngs Moduli (GPa) = 62.06237 56.98138 68.73667
#
# Poissons Ratio (x) = -0.03840 0.25756
# Poissons Ratio (y) = -0.04182 0.81806
# Poissons Ratio (z) = 0.23255 0.67816
#
# Static dielectric constant tensor:
#      x y z
#    x 1.729390 0.000000 0.000000 
#    y 0.000000 1.748360 0.000000 
#    z 0.000000 0.000000 1.737430 
# 
# From -- ./inp_files/72601.got.cif
#   From: 2010.05.17/outbox.cif.g08.bks.cpg/sg65_37_cif.got.tgz:72601.got - 2010.06.03 17:01:31.
