data_PCOD9491287
_publ_section_title
;
Structure prediction by ZEFSAII (Michael W. Deem and Ramdas Pophale) SiO2 
 PCOD9491287
Probable space group: C M M M
;
_chemical_formula_sum "Si O2"
_cell_formula_units_Z 96
_cell_length_a 9.189603
_cell_length_b 18.864335
_cell_length_c 31.853320
_cell_angle_alpha 90.000000
_cell_angle_beta 90.000000
_cell_angle_gamma 90.000000
_cell_volume 5521.956163
_symmetry_space_group_name_H-M "C M M M"
_symmetry_group_IT_number 65
_symmetry_cell_setting 'orthorhombic'
loop_
_space_group_symop_operation_xyz
x,y,z
-x,-y,z
x,-y,-z
-x,y,-z
-x,-y,-z
x,y,-z
-x,y,z
x,-y,z
1/2+x,1/2+y,z
1/2-x,1/2-y,z
1/2+x,1/2-y,-z
1/2-x,1/2+y,-z
1/2-x,1/2-y,-z
1/2+x,1/2+y,-z
1/2-x,1/2+y,z
1/2+x,1/2-y,z
loop_
_atom_site_type_symbol
_atom_site_label
_atom_site_fract_x
_atom_site_fract_y
_atom_site_fract_z
Si Si1 0.174831 0.917199 0.630811
Si Si2 0.673058 0.326074 0.951709
Si Si3 0.824479 0.173871 0.711957
Si Si4 0.670543 0.086016 0.453817
Si Si5 0.330181 0.085132 0.119290
Si Si6 0.326647 0.583589 0.205690
O O1 0.219040 0.870696 0.670723
O O2 0.242675 0.890485 0.587142
O O3 0.000000 0.915306 0.627684
O O4 0.216732 0.000000 0.636983
O O5 0.500000 0.319369 0.945283
O O6 0.750000 0.250000 0.946946
O O7 0.742848 0.378674 0.918235
O O8 0.697276 0.349610 0.000000
O O9 0.750000 0.250000 0.712340
O O10 0.787332 0.129566 0.753763
O O11 0.000000 0.181327 0.711099
O O12 0.722178 0.110448 0.500000
O O13 0.500000 0.103787 0.449883
O O14 0.680496 0.000000 0.454211
O O15 0.500000 0.104911 0.117616
O O16 0.260677 0.104998 0.164139
O O17 0.319228 0.000000 0.115847
O O18 0.500000 0.591278 0.198051
O O19 0.299539 0.500000 0.213915
#
# Coordination Sequence:
#
# PCOD9491287 Si02
#       6
#    16  16  16  16  16  16
#     4   9  17  30  49  72  97 126 162 202 243 289
#     4  10  21  37  57  80 107 141 180 219 259 306
#     4  10  21  35  51  73 100 130 164 204 250 298
#     4   8  14  25  42  67  98 127 156 194 241 291
#     4  10  21  36  55  81 111 140 172 213 259 306
#     4   9  18  35  57  76  98 132 172 211 252 300
#
# _framework density 17.385142999999999
#
# number of rings (size 3 to 8) (size 9 to 14) (size 15 to 20)
#    0.000    2.667    0.000    2.000    0.000    6.667 
#    0.000    5.000    0.000    5.500    0.000    0.000 
#    0.000    0.000    0.000    0.000    0.000    0.000 
#
# Total GULP energy -267661.225305 kJ/mol
# GULP energy per Si atom -5576.275527 kJ/mol
# Density = 1.734557 g / cm^3
# Si number density = 17.385143 Si / 1000 Ang^3
#
#
#
# Elastic Constant Matrix: (Units=GPa)
#
#
# Indices 1 2 3 4 5 6 
#
# 1 62.7472 43.2153 86.1807 0.0000 0.0000 0.0000
# 2 43.2153 56.8958 77.5654 0.0000 0.0000 0.0000
# 3 86.1807 77.5654 192.6974 0.0000 0.0000 0.0000
# 4 0.0000 0.0000 0.0000 -14.3411 0.0000 0.0000
# 5 0.0000 0.0000 0.0000 0.0000 28.1501 0.0000
# 6 0.0000 0.0000 0.0000 0.0000 0.0000 27.9794
#
#
#
# Elastic Compliance Matrix: (Units=1/GPa)
#
#
# Indices 1 2 3 4 5 6 
#
# 1 0.046787 -0.015536 -0.014671 0.000000 0.000000 0.000000
# 2 -0.015536 0.044109 -0.010807 0.000000 0.000000 0.000000
# 3 -0.014671 -0.010807 0.016101 0.000000 0.000000 0.000000
# 4 0.000000 0.000000 0.000000 -0.069729 0.000000 0.000000
# 5 0.000000 0.000000 0.000000 0.000000 0.035524 0.000000
# 6 0.000000 0.000000 0.000000 0.000000 0.000000 0.035741
#
#
# Mechanical properties :
#
#
# Convention : Reuss Voigt Hill
#
# Bulk Modulus (GPa) = 40.04954 80.69589 60.37272
# Shear Modulus (GPa) = 25.14035 15.38295 20.26165
#
# Velocity S-wave (km/s) = 3.80686 2.97784 3.41758
# Velocity P-wave (km/s) = 6.51227 7.63811 7.09755
#
# Compressibility (1/GPa) = 0.02496907
#
# Stress axis : x y z
#
# Youngs Moduli (GPa) = 21.37337 22.67095 62.10887
#
# Poissons Ratio (x) = 0.35223 0.91120
# Poissons Ratio (y) = 0.33207 0.67119
# Poissons Ratio (z) = 0.31357 0.24500
#
# Static dielectric constant tensor:
#      x y z
#    x 1.580790 0.000000 0.000000 
#    y 0.000000 1.569190 0.000000 
#    z 0.000000 0.000000 1.584940 
# 
# From -- ./inp_files/73105.got.cif
#   From: 2010.05.17/outbox.cif.g08.bks.cpg/sg65_37_cif.got.tgz:73105.got - 2010.06.03 17:01:31.
