data_PCOD9491597
_publ_section_title
;
Structure prediction by ZEFSAII (Michael W. Deem and Ramdas Pophale) SiO2 
 PCOD9491597
Probable space group: C M M M
;
_chemical_formula_sum "Si O2"
_cell_formula_units_Z 120
_cell_length_a 27.857315
_cell_length_b 28.238862
_cell_length_c 8.672479
_cell_angle_alpha 90.000000
_cell_angle_beta 90.000000
_cell_angle_gamma 90.000000
_cell_volume 6822.282565
_symmetry_space_group_name_H-M "C M M M"
_symmetry_group_IT_number 65
_symmetry_cell_setting 'orthorhombic'
loop_
_space_group_symop_operation_xyz
x,y,z
-x,-y,z
x,-y,-z
-x,y,-z
-x,-y,-z
x,y,-z
-x,y,z
x,-y,z
1/2+x,1/2+y,z
1/2-x,1/2-y,z
1/2+x,1/2-y,-z
1/2-x,1/2+y,-z
1/2-x,1/2-y,-z
1/2+x,1/2+y,-z
1/2-x,1/2+y,z
1/2+x,1/2-y,z
loop_
_atom_site_type_symbol
_atom_site_label
_atom_site_fract_x
_atom_site_fract_y
_atom_site_fract_z
Si Si1 0.399389 0.785162 0.315600
Si Si2 0.302192 0.267176 0.314516
Si Si3 0.554059 0.690825 0.813441
Si Si4 0.908890 0.389083 0.816474
Si Si5 0.286607 0.445605 0.813496
Si Si6 0.000000 0.555149 0.314865
Si Si7 0.850820 0.140197 0.185652
Si Si8 0.318299 0.944297 0.684367
O O1 0.404058 0.788244 0.500000
O O2 0.344435 0.770155 0.278275
O O3 0.431546 0.742009 0.253240
O O4 0.411849 0.835153 0.241390
O O5 0.301419 0.272844 0.500000
O O6 0.250000 0.250000 0.263465
O O7 0.317427 0.316693 0.240426
O O8 0.500000 0.677998 0.767724
O O9 0.595383 0.654002 0.762728
O O10 0.555718 0.693759 0.000000
O O11 0.952879 0.418954 0.747926
O O12 0.859384 0.412391 0.758407
O O13 0.910835 0.390392 0.000000
O O14 0.296554 0.500000 0.768578
O O15 0.327460 0.408973 0.761936
O O16 0.234710 0.432158 0.745645
O O17 0.283426 0.443984 0.000000
O O18 0.000000 0.500000 0.269051
O O19 0.000000 0.557518 0.500000
O O20 0.851423 0.139415 0.000000
O O21 0.319700 0.939042 0.500000
O O22 0.326779 0.000000 0.721310
#
# Coordination Sequence:
#
# PCOD9491597 Si02
#       8
#    16  16  16  16  16   8  16  16
#     4  10  21  36  53  77 108 140 177 219 266 317
#     4   9  19  34  51  74 104 139 174 215 265 316
#     4   9  18  34  55  76 104 139 178 224 270 323
#     4  12  25  39  58  82 109 140 177 221 272 326
#     4   9  18  33  53  79 111 144 179 219 265 319
#     4  11  25  45  65  83 105 137 181 231 280 325
#     4   9  18  32  51  77 104 138 179 219 268 321
#     4  10  21  37  56  78 105 139 179 221 266 316
#
# _framework density 17.589421000000002
#
# number of rings (size 3 to 8) (size 9 to 14) (size 15 to 20)
#    0.000    2.200    0.000    2.600    2.800    4.533 
#    0.000    0.000    0.000    0.400    0.000    2.800 
#    0.000    0.000    0.000   10.000    0.000   10.400 
#
# Total GULP energy -334947.616056 kJ/mol
# GULP energy per Si atom -5582.460268 kJ/mol
# Density = 1.754939 g / cm^3
# Si number density = 17.589421 Si / 1000 Ang^3
#
#
#
# Elastic Constant Matrix: (Units=GPa)
#
#
# Indices 1 2 3 4 5 6 
#
# 1 157.4569 93.7929 33.1037 0.0000 0.0000 0.0000
# 2 93.7929 127.2939 35.8773 0.0000 0.0000 0.0000
# 3 33.1037 35.8773 32.8622 0.0000 0.0000 0.0000
# 4 0.0000 0.0000 0.0000 19.2968 0.0000 0.0000
# 5 0.0000 0.0000 0.0000 0.0000 18.9205 0.0000
# 6 0.0000 0.0000 0.0000 0.0000 0.0000 15.8706
#
#
#
# Elastic Compliance Matrix: (Units=1/GPa)
#
#
# Indices 1 2 3 4 5 6 
#
# 1 0.011575 -0.007572 -0.003393 0.000000 0.000000 0.000000
# 2 -0.007572 0.016301 -0.010169 0.000000 0.000000 0.000000
# 3 -0.003393 -0.010169 0.044950 0.000000 0.000000 0.000000
# 4 0.000000 0.000000 0.000000 0.051822 0.000000 0.000000
# 5 0.000000 0.000000 0.000000 0.000000 0.052853 0.000000
# 6 0.000000 0.000000 0.000000 0.000000 0.000000 0.063009
#
#
# Mechanical properties :
#
#
# Convention : Reuss Voigt Hill
#
# Bulk Modulus (GPa) = 32.72488 71.46233 52.09360
# Shear Modulus (GPa) = 17.06687 21.14019 19.10353
#
# Velocity S-wave (km/s) = 3.11833 3.47056 3.29915
# Velocity P-wave (km/s) = 5.62233 7.53498 6.64780
#
# Compressibility (1/GPa) = 0.03055779
#
# Stress axis : x y z
#
# Youngs Moduli (GPa) = 86.39355 61.34412 22.24690
#
# Poissons Ratio (x) = 0.46452 0.07548
# Poissons Ratio (y) = 0.65421 0.22623
# Poissons Ratio (z) = 0.29312 0.62382
#
# Static dielectric constant tensor:
#      x y z
#    x 1.595760 0.000000 0.000000 
#    y 0.000000 1.579380 0.000000 
#    z 0.000000 0.000000 1.589220 
# 
# From -- ./inp_files/17120.got.cif
#   From: 2010.05.17/outbox.cif.g08.bks.cpg/sg65_9_cif.got.tgz:17120.got - 2010.06.03 17:01:31.
