data_PCOD9491563
_publ_section_title
;
Structure prediction by ZEFSAII (Michael W. Deem and Ramdas Pophale) SiO2 
 PCOD9491563
Probable space group: C M M M
;
_chemical_formula_sum "Si O2"
_cell_formula_units_Z 72
_cell_length_a 8.772343
_cell_length_b 18.785214
_cell_length_c 23.943095
_cell_angle_alpha 90.000000
_cell_angle_beta 90.000000
_cell_angle_gamma 90.000000
_cell_volume 3945.590779
_symmetry_space_group_name_H-M "C M M M"
_symmetry_group_IT_number 65
_symmetry_cell_setting 'orthorhombic'
loop_
_space_group_symop_operation_xyz
x,y,z
-x,-y,z
x,-y,-z
-x,y,-z
-x,-y,-z
x,y,-z
-x,y,z
x,-y,z
1/2+x,1/2+y,z
1/2-x,1/2-y,z
1/2+x,1/2-y,-z
1/2-x,1/2+y,-z
1/2-x,1/2-y,-z
1/2+x,1/2+y,-z
1/2-x,1/2+y,z
1/2+x,1/2-y,z
loop_
_atom_site_type_symbol
_atom_site_label
_atom_site_fract_x
_atom_site_fract_y
_atom_site_fract_z
Si Si1 0.185589 0.082015 0.712507
Si Si2 0.183945 0.829268 0.395860
Si Si3 0.321042 0.414638 0.836865
Si Si4 0.183066 0.584086 0.500000
Si Si5 0.318252 0.828598 0.062285
O O1 0.230750 0.133791 0.662589
O O2 0.235593 0.105099 0.774567
O O3 0.000000 0.080758 0.713970
O O4 0.234263 0.000000 0.702441
O O5 0.250000 0.750000 0.400156
O O6 0.247334 0.877457 0.445945
O O7 0.000000 0.827055 0.398607
O O8 0.500000 0.395997 0.840502
O O9 0.308839 0.500000 0.840350
O O10 0.236709 0.377969 0.887729
O O11 0.219235 0.500000 0.500000
O O12 0.000000 0.592062 0.500000
O O13 0.500000 0.823857 0.063270
O O14 0.250000 0.750000 0.069548
O O15 0.271473 0.854243 0.000000
#
# Coordination Sequence:
#
# PCOD9491563 Si02
#       5
#    16  16  16   8  16
#     4   8  16  33  56  80 106 139 179 220 262 313
#     4  11  22  37  58  83 113 146 181 220 264 315
#     4   9  18  34  56  81 109 140 175 217 265 317
#     4  11  24  41  60  83 111 141 178 225 272 317
#     4  10  21  36  53  74 103 139 179 223 269 319
#
# _framework density 18.248217
#
# number of rings (size 3 to 8) (size 9 to 14) (size 15 to 20)
#    0.000    2.333    0.000    4.000    0.000    4.889 
#    0.000    6.667    0.000    2.667    0.000    0.000 
#    0.000    0.000    0.000    0.000    0.000    0.000 
#
# Total GULP energy -200904.937190 kJ/mol
# GULP energy per Si atom -5580.692700 kJ/mol
# Density = 1.820668 g / cm^3
# Si number density = 18.248217 Si / 1000 Ang^3
#
#
#
# Elastic Constant Matrix: (Units=GPa)
#
#
# Indices 1 2 3 4 5 6 
#
# 1 54.0942 45.7911 59.5551 0.0000 0.0000 0.0000
# 2 45.7911 97.8840 92.7408 0.0000 0.0000 0.0000
# 3 59.5551 92.7408 190.1447 0.0000 0.0000 0.0000
# 4 0.0000 0.0000 0.0000 57.4994 0.0000 0.0000
# 5 0.0000 0.0000 0.0000 0.0000 10.4798 0.0000
# 6 0.0000 0.0000 0.0000 0.0000 0.0000 20.6553
#
#
#
# Elastic Compliance Matrix: (Units=1/GPa)
#
#
# Indices 1 2 3 4 5 6 
#
# 1 0.033205 -0.010560 -0.005250 0.000000 0.000000 0.000000
# 2 -0.010560 0.022351 -0.007594 0.000000 0.000000 0.000000
# 3 -0.005250 -0.007594 0.010607 0.000000 0.000000 0.000000
# 4 0.000000 0.000000 0.000000 0.017391 0.000000 0.000000
# 5 0.000000 0.000000 0.000000 0.000000 0.095422 0.000000
# 6 0.000000 0.000000 0.000000 0.000000 0.000000 0.048414
#
#
# Mechanical properties :
#
#
# Convention : Reuss Voigt Hill
#
# Bulk Modulus (GPa) = 51.66270 82.03299 66.84785
# Shear Modulus (GPa) = 17.81584 27.32929 22.57257
#
# Velocity S-wave (km/s) = 3.12798 3.87414 3.52088
# Velocity P-wave (km/s) = 6.43570 8.06619 7.29663
#
# Compressibility (1/GPa) = 0.01935633
#
# Stress axis : x y z
#
# Youngs Moduli (GPa) = 30.11620 44.74032 94.27400
#
# Poissons Ratio (x) = 0.47244 0.49491
# Poissons Ratio (y) = 0.31802 0.71593
# Poissons Ratio (z) = 0.15810 0.33977
#
# Static dielectric constant tensor:
#      x y z
#    x 1.615820 0.000000 0.000000 
#    y 0.000000 1.592960 0.000000 
#    z 0.000000 0.000000 1.634130 
# 
# From -- ./inp_files/67096.got.cif
#   From: 2010.05.17/outbox.cif.g08.bks.cpg/sg65_34_cif.got.tgz:67096.got - 2010.06.03 17:01:31.
