data_PCOD9491917
_publ_section_title
;
Structure prediction by ZEFSAII (Michael W. Deem and Ramdas Pophale) SiO2 
 PCOD9491917
Probable space group: C M M M
;
_chemical_formula_sum "Si O2"
_cell_formula_units_Z 72
_cell_length_a 8.938940
_cell_length_b 26.064904
_cell_length_c 20.279356
_cell_angle_alpha 90.000000
_cell_angle_beta 90.000000
_cell_angle_gamma 90.000000
_cell_volume 4724.940144
_symmetry_space_group_name_H-M "C M M M"
_symmetry_group_IT_number 65
_symmetry_cell_setting 'orthorhombic'
loop_
_space_group_symop_operation_xyz
x,y,z
-x,-y,z
x,-y,-z
-x,y,-z
-x,-y,-z
x,y,-z
-x,y,z
x,-y,z
1/2+x,1/2+y,z
1/2-x,1/2-y,z
1/2+x,1/2-y,-z
1/2-x,1/2+y,-z
1/2-x,1/2-y,-z
1/2+x,1/2+y,-z
1/2-x,1/2+y,z
1/2+x,1/2-y,z
loop_
_atom_site_type_symbol
_atom_site_label
_atom_site_fract_x
_atom_site_fract_y
_atom_site_fract_z
Si Si1 0.821843 0.500000 0.578694
Si Si2 0.680218 0.401732 0.349817
Si Si3 0.321788 0.805275 0.422007
Si Si4 0.322549 0.061851 0.928007
Si Si5 0.320582 0.559832 0.207186
O O1 0.799918 0.500000 0.500000
O O2 0.747239 0.550161 0.610383
O O3 0.000000 0.500000 0.591580
O O4 0.500000 0.402336 0.354941
O O5 0.746258 0.349902 0.379842
O O6 0.721676 0.409812 0.273029
O O7 0.296242 0.815700 0.500000
O O8 0.500000 0.804031 0.411243
O O9 0.250000 0.750000 0.407305
O O10 0.500000 0.071095 0.924257
O O11 0.245227 0.080439 0.861359
O O12 0.301223 0.000000 0.928393
O O13 0.268561 0.080690 0.000000
O O14 0.500000 0.559894 0.202401
O O15 0.273238 0.500000 0.215668
#
# Coordination Sequence:
#
# PCOD9491917 Si02
#       5
#     8  16  16  16  16
#     4  11  23  35  47  67  94 125 162 199 235 284
#     4  11  21  34  50  70  97 127 159 197 240 286
#     4  10  21  37  55  74  94 119 156 200 245 291
#     4   8  14  24  38  58  84 116 155 193 227 267
#     4   9  17  29  42  61  91 124 158 191 228 276
#
# _framework density 15.238288000000001
#
# number of rings (size 3 to 8) (size 9 to 14) (size 15 to 20)
#    0.000    2.333    1.111    3.000    0.000    7.111 
#    0.000    2.222    0.000    0.000    0.000    0.000 
#    0.000    0.889    0.000    2.889    0.000    4.222 
#
# Total GULP energy -200692.476160 kJ/mol
# GULP energy per Si atom -5574.791004 kJ/mol
# Density = 1.520360 g / cm^3
# Si number density = 15.238288 Si / 1000 Ang^3
#
#
#
# Elastic Constant Matrix: (Units=GPa)
#
#
# Indices 1 2 3 4 5 6 
#
# 1 55.3992 42.0360 70.3848 0.0000 0.0000 0.0000
# 2 42.0360 86.4160 77.0889 0.0000 0.0000 0.0000
# 3 70.3848 77.0889 156.3571 0.0000 0.0000 0.0000
# 4 0.0000 0.0000 0.0000 8.9163 0.0000 0.0000
# 5 0.0000 0.0000 0.0000 0.0000 29.4182 0.0000
# 6 0.0000 0.0000 0.0000 0.0000 0.0000 23.5124
#
#
#
# Elastic Compliance Matrix: (Units=1/GPa)
#
#
# Indices 1 2 3 4 5 6 
#
# 1 0.044240 -0.006703 -0.016610 0.000000 0.000000 0.000000
# 2 -0.006703 0.021673 -0.007668 0.000000 0.000000 0.000000
# 3 -0.016610 -0.007668 0.017653 0.000000 0.000000 0.000000
# 4 0.000000 0.000000 0.000000 0.112155 0.000000 0.000000
# 5 0.000000 0.000000 0.000000 0.000000 0.033993 0.000000
# 6 0.000000 0.000000 0.000000 0.000000 0.000000 0.042531
#
#
# Mechanical properties :
#
#
# Convention : Reuss Voigt Hill
#
# Bulk Modulus (GPa) = 46.28721 75.24353 60.76537
# Shear Modulus (GPa) = 14.64527 19.61354 17.12941
#
# Velocity S-wave (km/s) = 3.10350 3.59154 3.35640
# Velocity P-wave (km/s) = 6.57904 8.16603 7.41511
#
# Compressibility (1/GPa) = 0.02160424
#
# Stress axis : x y z
#
# Youngs Moduli (GPa) = 22.60411 46.14061 56.64629
#
# Poissons Ratio (x) = 0.30926 0.94090
# Poissons Ratio (y) = 0.15150 0.43438
# Poissons Ratio (z) = 0.37546 0.35382
#
# Static dielectric constant tensor:
#      x y z
#    x 1.508650 0.000000 0.000000 
#    y 0.000000 1.471630 0.000000 
#    z 0.000000 0.000000 1.528240 
# 
# From -- ./inp_files/49702.got.cif
#   From: 2010.05.17/outbox.cif.g08.bks.cpg/sg65_25_cif.got.tgz:49702.got - 2010.06.03 17:01:31.
