data_PCOD9491348
_publ_section_title
;
Structure prediction by ZEFSAII (Michael W. Deem and Ramdas Pophale) SiO2 
 PCOD9491348
Probable space group: C M M M
;
_chemical_formula_sum "Si O2"
_cell_formula_units_Z 80
_cell_length_a 26.182893
_cell_length_b 15.963771
_cell_length_c 9.841336
_cell_angle_alpha 90.000000
_cell_angle_beta 90.000000
_cell_angle_gamma 90.000000
_cell_volume 4113.459065
_symmetry_space_group_name_H-M "C M M M"
_symmetry_group_IT_number 65
_symmetry_cell_setting 'orthorhombic'
loop_
_space_group_symop_operation_xyz
x,y,z
-x,-y,z
x,-y,-z
-x,y,-z
-x,-y,-z
x,y,-z
-x,y,z
x,-y,z
1/2+x,1/2+y,z
1/2-x,1/2-y,z
1/2+x,1/2-y,-z
1/2-x,1/2+y,-z
1/2-x,1/2-y,-z
1/2+x,1/2+y,-z
1/2-x,1/2+y,z
1/2+x,1/2-y,z
loop_
_atom_site_type_symbol
_atom_site_label
_atom_site_fract_x
_atom_site_fract_y
_atom_site_fract_z
Si Si1 0.500000 0.093541 0.276516
Si Si2 0.183920 0.898923 0.341966
Si Si3 0.000000 0.207417 0.342093
Si Si4 0.201830 0.599935 0.349292
Si Si5 0.608636 0.128569 0.148964
Si Si6 0.404512 0.327103 0.844575
O O1 0.500000 0.188838 0.340544
O O2 0.553188 0.095470 0.194151
O O3 0.500000 0.000000 0.345896
O O4 0.173495 0.873915 0.500000
O O5 0.241764 0.869572 0.307526
O O6 0.143497 0.866143 0.233536
O O7 0.182351 0.000000 0.339113
O O8 0.047719 0.170555 0.258188
O O9 0.000000 0.182914 0.500000
O O10 0.190527 0.634087 0.500000
O O11 0.207588 0.500000 0.360459
O O12 0.154167 0.612595 0.252606
O O13 0.604195 0.228239 0.141710
O O14 0.621465 0.095860 0.000000
O O15 0.412592 0.359567 0.000000
#
# Coordination Sequence:
#
# PCOD9491348 Si02
#       6
#     8  16   8  16  16  16
#     4  10  21  35  53  80 111 143 183 228 268 309
#     4   9  19  37  59  81 106 138 176 219 270 326
#     4  10  21  38  59  81 109 146 181 216 264 316
#     4   9  19  35  53  76 108 142 178 224 272 316
#     4  10  21  35  52  76 107 145 185 223 266 317
#     4  10  21  37  56  80 111 142 176 221 268 316
#
# _framework density 19.448352
#
# number of rings (size 3 to 8) (size 9 to 14) (size 15 to 20)
#    0.000    2.400    0.000    3.000    0.000   10.600 
#    0.000    6.500    0.000    3.000    0.000    0.000 
#    0.000    0.000    0.000    0.000    0.000    0.000 
#
# Total GULP energy -222723.691300 kJ/mol
# GULP energy per Si atom -5568.092283 kJ/mol
# Density = 1.940409 g / cm^3
# Si number density = 19.448352 Si / 1000 Ang^3
#
#
#
# Elastic Constant Matrix: (Units=GPa)
#
#
# Indices 1 2 3 4 5 6 
#
# 1 184.4862 25.2716 133.0533 0.0000 0.0000 0.0000
# 2 25.2716 18.2324 24.4302 0.0000 0.0000 0.0000
# 3 133.0533 24.4302 179.1552 0.0000 0.0000 0.0000
# 4 0.0000 0.0000 0.0000 10.5881 0.0000 0.0000
# 5 0.0000 0.0000 0.0000 0.0000 22.9265 0.0000
# 6 0.0000 0.0000 0.0000 0.0000 0.0000 -1.8571
#
#
#
# Elastic Compliance Matrix: (Units=1/GPa)
#
#
# Indices 1 2 3 4 5 6 
#
# 1 0.012156 -0.005815 -0.008235 0.000000 0.000000 0.000000
# 2 -0.005815 0.069891 -0.005212 0.000000 0.000000 0.000000
# 3 -0.008235 -0.005212 0.012409 0.000000 0.000000 0.000000
# 4 0.000000 0.000000 0.000000 0.094446 0.000000 0.000000
# 5 0.000000 0.000000 0.000000 0.000000 0.043618 0.000000
# 6 0.000000 0.000000 0.000000 0.000000 0.000000 -0.538485
#
#
# Mechanical properties :
#
#
# Convention : Reuss Voigt Hill
#
# Bulk Modulus (GPa) = 17.87898 83.04269 50.46083
# Shear Modulus (GPa) = -20.09668 19.60607 -0.24530
#
# Velocity S-wave (km/s) = -3.21804 3.17852 -0.35553
# Velocity P-wave (km/s) = 2.14353 7.50083 5.08270
#
# Compressibility (1/GPa) = 0.05593161
#
# Stress axis : x y z
#
# Youngs Moduli (GPa) = 82.26162 14.30797 80.58990
#
# Poissons Ratio (x) = 0.08320 0.66367
# Poissons Ratio (y) = 0.47836 0.42003
# Poissons Ratio (z) = 0.67744 0.07457
#
# Static dielectric constant tensor:
#      x y z
#    x 1.681880 0.000000 0.000000 
#    y 0.000000 1.702420 0.000000 
#    z 0.000000 0.000000 1.715760 
# 
# From -- ./inp_files/16096.got.cif
#   From: 2010.05.17/outbox.cif.g08.bks.cpg/sg65_9_cif.got.tgz:16096.got - 2010.06.03 17:01:31.
