data_PCOD9491097
_publ_section_title
;
Structure prediction by ZEFSAII (Michael W. Deem and Ramdas Pophale) SiO2 
 PCOD9491097
Probable space group: C M M M
;
_chemical_formula_sum "Si O2"
_cell_formula_units_Z 96
_cell_length_a 15.287791
_cell_length_b 14.442212
_cell_length_c 22.796767
_cell_angle_alpha 90.000000
_cell_angle_beta 90.000000
_cell_angle_gamma 90.000000
_cell_volume 5033.287212
_symmetry_space_group_name_H-M "C M M M"
_symmetry_group_IT_number 65
_symmetry_cell_setting 'orthorhombic'
loop_
_space_group_symop_operation_xyz
x,y,z
-x,-y,z
x,-y,-z
-x,y,-z
-x,-y,-z
x,y,-z
-x,y,z
x,-y,z
1/2+x,1/2+y,z
1/2-x,1/2-y,z
1/2+x,1/2-y,-z
1/2-x,1/2+y,-z
1/2-x,1/2-y,-z
1/2+x,1/2+y,-z
1/2-x,1/2+y,z
1/2+x,1/2-y,z
loop_
_atom_site_type_symbol
_atom_site_label
_atom_site_fract_x
_atom_site_fract_y
_atom_site_fract_z
Si Si1 0.896213 0.764068 0.929861
Si Si2 0.778290 0.643267 0.242902
Si Si3 0.778729 0.607127 0.432569
Si Si4 0.094569 0.309764 0.661769
Si Si5 0.636048 0.399439 0.338913
Si Si6 0.737264 0.894637 0.108574
O O1 0.830568 0.843370 0.904196
O O2 0.842165 0.669540 0.915594
O O3 0.000000 0.764921 0.910580
O O4 0.897100 0.775499 0.000000
O O5 0.750000 0.750000 0.235843
O O6 0.868695 0.645462 0.278560
O O7 0.709718 0.600063 0.288190
O O8 0.776639 0.602346 0.178637
O O9 0.777381 0.636375 0.500000
O O10 0.809330 0.500000 0.429950
O O11 0.839038 0.668069 0.390583
O O12 0.684372 0.607342 0.401687
O O13 0.090931 0.198969 0.669862
O O14 0.000000 0.346783 0.646840
O O15 0.592311 0.500000 0.336153
O O16 0.737025 0.000000 0.085560
#
# Coordination Sequence:
#
# PCOD9491097 Si02
#       6
#    16  16  16  16  16  16
#     4  10  23  42  61  88 127 162 195 244 300 351
#     4   9  17  35  55  77 107 143 181 229 275 328
#     4   9  18  34  55  74  95 133 185 232 273 327
#     4  10  21  33  50  78 110 143 175 219 283 343
#     4   9  18  33  53  76 103 137 178 221 267 322
#     4  11  21  37  64  92 117 156 206 248 293 351
#
# _framework density 19.073022000000002
#
# number of rings (size 3 to 8) (size 9 to 14) (size 15 to 20)
#    0.000    2.333    1.667    3.000    0.000    5.667 
#    0.000    2.500    0.000    2.000    0.000    3.500 
#    0.000    0.000    0.000    0.000    0.000    0.000 
#
# Total GULP energy -267291.965056 kJ/mol
# GULP energy per Si atom -5568.582605 kJ/mol
# Density = 1.902961 g / cm^3
# Si number density = 19.073022 Si / 1000 Ang^3
#
#
#
# Elastic Constant Matrix: (Units=GPa)
#
#
# Indices 1 2 3 4 5 6 
#
# 1 121.4618 42.8581 30.1723 0.0000 0.0000 0.0000
# 2 42.8581 123.6066 18.1270 0.0000 0.0000 0.0000
# 3 30.1723 18.1270 101.7378 0.0000 0.0000 0.0000
# 4 0.0000 0.0000 0.0000 -177.3954 0.0000 0.0000
# 5 0.0000 0.0000 0.0000 0.0000 -2.0037 0.0000
# 6 0.0000 0.0000 0.0000 0.0000 0.0000 -4.7840
#
#
#
# Elastic Compliance Matrix: (Units=1/GPa)
#
#
# Indices 1 2 3 4 5 6 
#
# 1 0.009916 -0.003088 -0.002391 0.000000 0.000000 0.000000
# 2 -0.003088 0.009269 -0.000736 0.000000 0.000000 0.000000
# 3 -0.002391 -0.000736 0.010669 0.000000 0.000000 0.000000
# 4 0.000000 0.000000 0.000000 -0.005637 0.000000 0.000000
# 5 0.000000 0.000000 0.000000 0.000000 -0.499072 0.000000
# 6 0.000000 0.000000 0.000000 0.000000 0.000000 -0.209031
#
#
# Mechanical properties :
#
#
# Convention : Reuss Voigt Hill
#
# Bulk Modulus (GPa) = 57.38540 58.79122 58.08831
# Shear Modulus (GPa) = -7.51147 -19.79336 -13.65242
#
# Velocity S-wave (km/s) = -1.98666 -3.22493 -2.67834
# Velocity P-wave (km/s) = 4.98900 4.12605 4.57790
#
# Compressibility (1/GPa) = 0.01742604
#
# Stress axis : x y z
#
# Youngs Moduli (GPa) = 100.84268 107.89026 93.72688
#
# Poissons Ratio (x) = 0.33313 0.22408
# Poissons Ratio (y) = 0.31137 0.06896
# Poissons Ratio (z) = 0.24109 0.07938
#
# Static dielectric constant tensor:
#      x y z
#    x -0.104490 0.000000 0.000000 
#    y 0.000000 1.727870 0.000000 
#    z 0.000000 0.000000 1.641690 
# 
# From -- ./inp_files/62600.got.cif
#   From: 2010.05.17/outbox.cif.g08.bks.cpg/sg65_32_cif.got.tgz:62600.got - 2010.06.03 17:01:31.
