data_PCOD9491799
_publ_section_title
;
Structure prediction by ZEFSAII (Michael W. Deem and Ramdas Pophale) SiO2 
 PCOD9491799
Probable space group: C M M M
;
_chemical_formula_sum "Si O2"
_cell_formula_units_Z 88
_cell_length_a 9.037118
_cell_length_b 18.479678
_cell_length_c 28.982435
_cell_angle_alpha 90.000000
_cell_angle_beta 90.000000
_cell_angle_gamma 90.000000
_cell_volume 4840.154482
_symmetry_space_group_name_H-M "C M M M"
_symmetry_group_IT_number 65
_symmetry_cell_setting 'orthorhombic'
loop_
_space_group_symop_operation_xyz
x,y,z
-x,-y,z
x,-y,-z
-x,y,-z
-x,-y,-z
x,y,-z
-x,y,z
x,-y,z
1/2+x,1/2+y,z
1/2-x,1/2-y,z
1/2+x,1/2-y,-z
1/2-x,1/2+y,-z
1/2-x,1/2-y,-z
1/2+x,1/2+y,-z
1/2-x,1/2+y,z
1/2+x,1/2-y,z
loop_
_atom_site_type_symbol
_atom_site_label
_atom_site_fract_x
_atom_site_fract_y
_atom_site_fract_z
Si Si1 0.177883 0.171148 0.500000
Si Si2 0.323095 0.084830 0.230118
Si Si3 0.822314 0.671058 0.322998
Si Si4 0.171929 0.086985 0.134435
Si Si5 0.322069 0.414830 0.406978
Si Si6 0.176499 0.671212 0.947874
O O1 0.250000 0.250000 0.500000
O O2 0.218330 0.126282 0.454225
O O3 0.000000 0.179037 0.500000
O O4 0.500000 0.089267 0.222913
O O5 0.284614 0.132404 0.274510
O O6 0.241444 0.108743 0.183570
O O7 0.287069 0.000000 0.238762
O O8 0.750000 0.750000 0.325425
O O9 0.760115 0.622436 0.364464
O O10 0.000000 0.676433 0.326258
O O11 0.258524 0.121140 0.091855
O O12 0.000000 0.107886 0.132364
O O13 0.182208 0.000000 0.132030
O O14 0.500000 0.407905 0.400868
O O15 0.287720 0.500000 0.410025
O O16 0.250000 0.750000 0.943606
O O17 0.000000 0.677390 0.943304
O O18 0.209120 0.644291 0.000000
#
# Coordination Sequence:
#
# PCOD9491799 Si02
#       6
#     8  16  16  16  16  16
#     4  10  21  37  57  83 115 150 187 228 276 328
#     4   9  19  37  58  78 105 143 184 227 275 326
#     4  11  23  38  57  83 114 147 185 229 277 328
#     4  10  21  36  56  83 113 145 182 225 272 324
#     4  10  21  38  60  84 112 148 188 230 277 330
#     4  10  21  37  57  80 108 144 184 226 274 328
#
# _framework density 18.181238
#
# number of rings (size 3 to 8) (size 9 to 14) (size 15 to 20)
#    0.000    2.000    0.000    3.000    0.000    9.091 
#    0.000    5.455    0.000    1.636    0.000    0.000 
#    0.000    0.000    0.000    0.000    0.000    0.000 
#
# Total GULP energy -245782.021207 kJ/mol
# GULP energy per Si atom -5585.955027 kJ/mol
# Density = 1.813986 g / cm^3
# Si number density = 18.181238 Si / 1000 Ang^3
#
#
#
# Elastic Constant Matrix: (Units=GPa)
#
#
# Indices 1 2 3 4 5 6 
#
# 1 69.3378 59.8625 88.9776 0.0000 0.0000 0.0000
# 2 59.8625 110.9533 95.0617 0.0000 0.0000 0.0000
# 3 88.9776 95.0617 196.3097 0.0000 0.0000 0.0000
# 4 0.0000 0.0000 0.0000 61.0403 0.0000 0.0000
# 5 0.0000 0.0000 0.0000 0.0000 32.4604 0.0000
# 6 0.0000 0.0000 0.0000 0.0000 0.0000 29.9051
#
#
#
# Elastic Compliance Matrix: (Units=1/GPa)
#
#
# Indices 1 2 3 4 5 6 
#
# 1 0.040529 -0.010473 -0.013298 0.000000 0.000000 0.000000
# 2 -0.010473 0.018110 -0.004023 0.000000 0.000000 0.000000
# 3 -0.013298 -0.004023 0.013069 0.000000 0.000000 0.000000
# 4 0.000000 0.000000 0.000000 0.016383 0.000000 0.000000
# 5 0.000000 0.000000 0.000000 0.000000 0.030807 0.000000
# 6 0.000000 0.000000 0.000000 0.000000 0.000000 0.033439
#
#
# Mechanical properties :
#
#
# Convention : Reuss Voigt Hill
#
# Bulk Modulus (GPa) = 62.03355 96.04492 79.03923
# Shear Modulus (GPa) = 23.44138 33.52777 28.48458
#
# Velocity S-wave (km/s) = 3.59460 4.29894 3.96245
# Velocity P-wave (km/s) = 7.17090 8.80808 8.03132
#
# Compressibility (1/GPa) = 0.01612031
#
# Stress axis : x y z
#
# Youngs Moduli (GPa) = 24.67370 55.21889 76.51426
#
# Poissons Ratio (x) = 0.57830 1.01752
# Poissons Ratio (y) = 0.25840 0.30779
# Poissons Ratio (z) = 0.32812 0.22213
#
# Static dielectric constant tensor:
#      x y z
#    x 1.609530 0.000000 0.000000 
#    y 0.000000 1.597080 0.000000 
#    z 0.000000 0.000000 1.599920 
# 
# From -- ./inp_files/67463.got.cif
#   From: 2010.05.17/outbox.cif.g08.bks.cpg/sg65_34_cif.got.tgz:67463.got - 2010.06.03 17:01:31.
