data_PCOD9491332
_publ_section_title
;
Structure prediction by ZEFSAII (Michael W. Deem and Ramdas Pophale) SiO2 
 PCOD9491332
Probable space group: C M M M
;
_chemical_formula_sum "Si O2"
_cell_formula_units_Z 112
_cell_length_a 15.396075
_cell_length_b 14.482665
_cell_length_c 24.898283
_cell_angle_alpha 90.000000
_cell_angle_beta 90.000000
_cell_angle_gamma 90.000000
_cell_volume 5551.724444
_symmetry_space_group_name_H-M "C M M M"
_symmetry_group_IT_number 65
_symmetry_cell_setting 'orthorhombic'
loop_
_space_group_symop_operation_xyz
x,y,z
-x,-y,z
x,-y,-z
-x,y,-z
-x,-y,-z
x,y,-z
-x,y,z
x,-y,z
1/2+x,1/2+y,z
1/2-x,1/2-y,z
1/2+x,1/2-y,-z
1/2-x,1/2+y,-z
1/2-x,1/2-y,-z
1/2+x,1/2+y,-z
1/2-x,1/2+y,z
1/2+x,1/2-y,z
loop_
_atom_site_type_symbol
_atom_site_label
_atom_site_fract_x
_atom_site_fract_y
_atom_site_fract_z
Si Si1 0.127999 0.604656 0.343875
Si Si2 0.096060 0.394666 0.093532
Si Si3 0.400456 0.243264 0.560612
Si Si4 0.789140 0.890311 0.058789
Si Si5 0.666720 0.395941 0.365187
Si Si6 0.402287 0.707027 0.850418
Si Si7 0.645923 0.732592 0.270098
O O1 0.096429 0.500000 0.339310
O O2 0.101605 0.657750 0.398210
O O3 0.232289 0.600128 0.349394
O O4 0.107518 0.671518 0.293561
O O5 0.100514 0.500000 0.113594
O O6 0.184519 0.379787 0.060684
O O7 0.099664 0.316675 0.138494
O O8 0.000000 0.384864 0.066993
O O9 0.374619 0.218341 0.500000
O O10 0.500000 0.276421 0.559645
O O11 0.344413 0.326452 0.585162
O O12 0.834955 0.839686 0.108420
O O13 0.806553 0.000000 0.062872
O O14 0.820219 0.857470 0.000000
O O15 0.635520 0.500000 0.374784
O O16 0.623494 0.343863 0.314863
O O17 0.500000 0.673553 0.862605
O O18 0.382177 0.697508 0.787910
O O19 0.750000 0.750000 0.267948
#
# Coordination Sequence:
#
# PCOD9491332 Si02
#       7
#    16  16  16  16  16  16  16
#     4   9  19  36  58  83 109 141 183 230 281 333
#     4   9  19  36  58  86 116 143 179 230 285 341
#     4  10  21  35  51  76 112 150 186 225 271 328
#     4  10  22  40  61  84 112 149 190 232 281 336
#     4   9  19  36  57  80 105 138 184 235 284 331
#     4  11  23  37  56  84 116 152 193 232 275 334
#     4   9  18  34  55  80 110 141 178 229 286 338
#
# _framework density 20.173912000000001
#
# number of rings (size 3 to 8) (size 9 to 14) (size 15 to 20)
#    0.000    2.429    0.000    2.571    0.000    7.714 
#    0.000    9.286    0.000    0.000    0.000    0.000 
#    0.000    0.000    0.000    0.000    0.000    0.000 
#
# Total GULP energy -312183.019317 kJ/mol
# GULP energy per Si atom -5574.696774 kJ/mol
# Density = 2.012800 g / cm^3
# Si number density = 20.173912 Si / 1000 Ang^3
#
#
#
# Elastic Constant Matrix: (Units=GPa)
#
#
# Indices 1 2 3 4 5 6 
#
# 1 76.1134 33.9358 31.7247 0.0000 0.0000 0.0000
# 2 33.9358 102.1637 43.4777 0.0000 0.0000 0.0000
# 3 31.7247 43.4777 131.7158 0.0000 0.0000 0.0000
# 4 0.0000 0.0000 0.0000 8.6521 0.0000 0.0000
# 5 0.0000 0.0000 0.0000 0.0000 40.9961 0.0000
# 6 0.0000 0.0000 0.0000 0.0000 0.0000 13.8736
#
#
#
# Elastic Compliance Matrix: (Units=1/GPa)
#
#
# Indices 1 2 3 4 5 6 
#
# 1 0.016076 -0.004296 -0.002454 0.000000 0.000000 0.000000
# 2 -0.004296 0.012536 -0.003103 0.000000 0.000000 0.000000
# 3 -0.002454 -0.003103 0.009208 0.000000 0.000000 0.000000
# 4 0.000000 0.000000 0.000000 0.115579 0.000000 0.000000
# 5 0.000000 0.000000 0.000000 0.000000 0.024393 0.000000
# 6 0.000000 0.000000 0.000000 0.000000 0.000000 0.072080
#
#
# Mechanical properties :
#
#
# Convention : Reuss Voigt Hill
#
# Bulk Modulus (GPa) = 55.20736 58.69661 56.95198
# Shear Modulus (GPa) = 18.14122 26.09465 22.11793
#
# Velocity S-wave (km/s) = 3.00199 3.60041 3.31473
# Velocity P-wave (km/s) = 6.28021 6.81486 6.55299
#
# Compressibility (1/GPa) = 0.01811353
#
# Stress axis : x y z
#
# Youngs Moduli (GPa) = 62.20265 79.77169 108.60650
#
# Poissons Ratio (x) = 0.34268 0.26654
# Poissons Ratio (y) = 0.26720 0.33703
# Poissons Ratio (z) = 0.15266 0.24755
#
# Static dielectric constant tensor:
#      x y z
#    x 1.762110 0.000000 0.000000 
#    y 0.000000 1.712610 0.000000 
#    z 0.000000 0.000000 1.692990 
# 
# From -- ./inp_files/70007.got.cif
#   From: 2010.05.17/outbox.cif.g08.bks.cpg/sg65_36_cif.got.tgz:70007.got - 2010.06.03 17:01:31.
