data_PCOD9491087
_publ_section_title
;
Structure prediction by ZEFSAII (Michael W. Deem and Ramdas Pophale) SiO2 
 PCOD9491087
Probable space group: C M M M
;
_chemical_formula_sum "Si O2"
_cell_formula_units_Z 80
_cell_length_a 7.990970
_cell_length_b 15.040869
_cell_length_c 30.394412
_cell_angle_alpha 90.000000
_cell_angle_beta 90.000000
_cell_angle_gamma 90.000000
_cell_volume 3653.138814
_symmetry_space_group_name_H-M "C M M M"
_symmetry_group_IT_number 65
_symmetry_cell_setting 'orthorhombic'
loop_
_space_group_symop_operation_xyz
x,y,z
-x,-y,z
x,-y,-z
-x,y,-z
-x,-y,-z
x,y,-z
-x,y,z
x,-y,z
1/2+x,1/2+y,z
1/2-x,1/2-y,z
1/2+x,1/2-y,-z
1/2-x,1/2+y,-z
1/2-x,1/2-y,-z
1/2+x,1/2+y,-z
1/2-x,1/2+y,z
1/2+x,1/2-y,z
loop_
_atom_site_type_symbol
_atom_site_label
_atom_site_fract_x
_atom_site_fract_y
_atom_site_fract_z
Si Si1 0.817456 0.891144 0.107342
Si Si2 0.799849 0.649140 0.702722
Si Si3 0.191460 0.393546 0.200961
Si Si4 0.500000 0.390649 0.551062
Si Si5 0.310966 0.102750 0.393576
Si Si6 0.500000 0.890949 0.050570
O O1 0.788426 0.862369 0.157846
O O2 0.664647 0.862189 0.077006
O O3 0.000000 0.862393 0.091794
O O4 0.815643 0.000000 0.107188
O O5 0.750000 0.750000 0.695573
O O6 0.732567 0.624689 0.750992
O O7 0.750961 0.602883 0.657298
O O8 0.000000 0.634944 0.706072
O O9 0.181534 0.500000 0.197568
O O10 0.000000 0.358861 0.198964
O O11 0.500000 0.500000 0.553607
O O12 0.500000 0.366426 0.500000
O O13 0.666603 0.357893 0.575984
O O14 0.500000 0.141922 0.395509
O O15 0.327078 0.000000 0.406869
O O16 0.500000 0.000000 0.050872
O O17 0.500000 0.862580 0.000000
#
# Coordination Sequence:
#
# PCOD9491087 Si02
#       6
#    16  16  16   8  16   8
#     4   9  16  26  41  63  90 123 162 201 243 292
#     4  10  21  33  49  74 102 139 169 207 253 298
#     4   9  16  30  50  68  94 133 172 207 244 296
#     4   9  18  32  54  83 106 128 163 212 262 298
#     4   9  18  34  54  77 105 136 171 208 248 299
#     4   9  16  26  40  59  90 128 160 199 250 296
#
# _framework density 21.898976999999999
#
# number of rings (size 3 to 8) (size 9 to 14) (size 15 to 20)
#    0.000    2.800    1.000    0.600    1.400    4.000 
#    0.000    4.000    0.000    0.600    0.000    0.000 
#    0.000    0.800    0.400    0.000    0.000    0.000 
#
# Total GULP energy -223100.191679 kJ/mol
# GULP energy per Si atom -5577.504792 kJ/mol
# Density = 2.184913 g / cm^3
# Si number density = 21.898977 Si / 1000 Ang^3
#
#
#
# Elastic Constant Matrix: (Units=GPa)
#
#
# Indices 1 2 3 4 5 6 
#
# 1 143.6345 7.1910 110.0445 0.0000 0.0000 0.0000
# 2 7.1910 24.5889 0.1729 0.0000 0.0000 0.0000
# 3 110.0445 0.1729 181.5264 0.0000 0.0000 0.0000
# 4 0.0000 0.0000 0.0000 -45.4058 0.0000 0.0000
# 5 0.0000 0.0000 0.0000 0.0000 -17.8919 0.0000
# 6 0.0000 0.0000 0.0000 0.0000 0.0000 7.0078
#
#
#
# Elastic Compliance Matrix: (Units=1/GPa)
#
#
# Indices 1 2 3 4 5 6 
#
# 1 0.013354 -0.003849 -0.008092 0.000000 0.000000 0.000000
# 2 -0.003849 0.041778 0.002293 0.000000 0.000000 0.000000
# 3 -0.008092 0.002293 0.010412 0.000000 0.000000 0.000000
# 4 0.000000 0.000000 0.000000 -0.022024 0.000000 0.000000
# 5 0.000000 0.000000 0.000000 0.000000 -0.055891 0.000000
# 6 0.000000 0.000000 0.000000 0.000000 0.000000 0.142697
#
#
# Mechanical properties :
#
#
# Convention : Reuss Voigt Hill
#
# Bulk Modulus (GPa) = 21.62159 64.95185 43.28672
# Shear Modulus (GPa) = 30.29599 4.23147 17.26373
#
# Velocity S-wave (km/s) = 3.72350 1.39157 2.81078
# Velocity P-wave (km/s) = 5.32736 5.68385 5.50849
#
# Compressibility (1/GPa) = 0.04625007
#
# Stress axis : x y z
#
# Youngs Moduli (GPa) = 74.88152 23.93599 96.04137
#
# Poissons Ratio (x) = 0.09212 0.77717
# Poissons Ratio (y) = 0.28819 -0.22025
# Poissons Ratio (z) = 0.60594 -0.05489
#
# Static dielectric constant tensor:
#      x y z
#    x 1.848490 0.000000 0.000000 
#    y 0.000000 1.802020 0.000000 
#    z 0.000000 0.000000 1.789750 
# 
# From -- ./inp_files/73018.got.cif
#   From: 2010.05.17/outbox.cif.g08.bks.cpg/sg65_37_cif.got.tgz:73018.got - 2010.06.03 17:01:31.
