data_PCOD9491427
_publ_section_title
;
Structure prediction by ZEFSAII (Michael W. Deem and Ramdas Pophale) SiO2 
 PCOD9491427
Probable space group: C M M M
;
_chemical_formula_sum "Si O2"
_cell_formula_units_Z 72
_cell_length_a 7.865257
_cell_length_b 18.473891
_cell_length_c 25.772577
_cell_angle_alpha 90.000000
_cell_angle_beta 90.000000
_cell_angle_gamma 90.000000
_cell_volume 3744.804419
_symmetry_space_group_name_H-M "C M M M"
_symmetry_group_IT_number 65
_symmetry_cell_setting 'orthorhombic'
loop_
_space_group_symop_operation_xyz
x,y,z
-x,-y,z
x,-y,-z
-x,y,-z
-x,-y,-z
x,y,-z
-x,y,z
x,-y,z
1/2+x,1/2+y,z
1/2-x,1/2-y,z
1/2+x,1/2-y,-z
1/2-x,1/2+y,-z
1/2-x,1/2-y,-z
1/2+x,1/2+y,-z
1/2-x,1/2+y,z
1/2+x,1/2-y,z
loop_
_atom_site_type_symbol
_atom_site_label
_atom_site_fract_x
_atom_site_fract_y
_atom_site_fract_z
Si Si1 0.794450 0.834831 0.375917
Si Si2 0.202158 0.082550 0.728307
Si Si3 0.297643 0.665887 0.943512
Si Si4 0.500000 0.085131 0.562102
Si Si5 0.798905 0.581226 0.840713
O O1 0.750000 0.750000 0.378135
O O2 0.745415 0.867347 0.319389
O O3 0.670148 0.876946 0.415380
O O4 0.000000 0.844650 0.384162
O O5 0.239021 0.112603 0.785679
O O6 0.000000 0.076540 0.723959
O O7 0.273383 0.000000 0.724912
O O8 0.500000 0.660076 0.944769
O O9 0.250000 0.750000 0.939224
O O10 0.238844 0.624392 0.892717
O O11 0.231104 0.639705 0.000000
O O12 0.500000 0.091079 0.500000
O O13 0.500000 0.000000 0.576374
O O14 0.724569 0.500000 0.844734
O O15 0.000000 0.575914 0.836571
#
# Coordination Sequence:
#
# PCOD9491427 Si02
#       5
#    16  16  16   8  16
#     4  11  23  42  66  99 134 173 217 267 325 380
#     4   9  19  36  59  85 118 159 201 249 303 365
#     4  10  21  37  56  76 103 142 188 240 298 357
#     4  11  26  46  70 100 133 175 222 268 321 382
#     4  10  21  35  54  83 115 151 192 237 294 354
#
# _framework density 19.226638000000001
#
# number of rings (size 3 to 8) (size 9 to 14) (size 15 to 20)
#    0.000    1.889    1.111    2.000    1.556    6.222 
#    0.000    5.556    0.000    0.000    0.000    0.000 
#    0.000    0.000    0.000    0.000    0.000    0.000 
#
# Total GULP energy -200799.790973 kJ/mol
# GULP energy per Si atom -5577.771971 kJ/mol
# Density = 1.918288 g / cm^3
# Si number density = 19.226638 Si / 1000 Ang^3
#
#
#
# Elastic Constant Matrix: (Units=GPa)
#
#
# Indices 1 2 3 4 5 6 
#
# 1 75.5016 32.4924 42.3121 0.0000 0.0000 0.0000
# 2 32.4924 98.6304 78.9348 0.0000 0.0000 0.0000
# 3 42.3121 78.9348 155.0455 0.0000 0.0000 0.0000
# 4 0.0000 0.0000 0.0000 39.5206 0.0000 0.0000
# 5 0.0000 0.0000 0.0000 0.0000 17.2845 0.0000
# 6 0.0000 0.0000 0.0000 0.0000 0.0000 16.7865
#
#
#
# Elastic Compliance Matrix: (Units=1/GPa)
#
#
# Indices 1 2 3 4 5 6 
#
# 1 0.016154 -0.003027 -0.002868 0.000000 0.000000 0.000000
# 2 -0.003027 0.017678 -0.008174 0.000000 0.000000 0.000000
# 3 -0.002868 -0.008174 0.011394 0.000000 0.000000 0.000000
# 4 0.000000 0.000000 0.000000 0.025303 0.000000 0.000000
# 5 0.000000 0.000000 0.000000 0.000000 0.057855 0.000000
# 6 0.000000 0.000000 0.000000 0.000000 0.000000 0.059572
#
#
# Mechanical properties :
#
#
# Convention : Reuss Voigt Hill
#
# Bulk Modulus (GPa) = 58.51658 70.73954 64.62806
# Shear Modulus (GPa) = 22.54400 26.41419 24.47909
#
# Velocity S-wave (km/s) = 3.42795 3.71055 3.57204
# Velocity P-wave (km/s) = 6.79478 7.43168 7.12036
#
# Compressibility (1/GPa) = 0.01708917
#
# Stress axis : x y z
#
# Youngs Moduli (GPa) = 61.90262 56.56895 87.76890
#
# Poissons Ratio (x) = 0.17123 0.25168
# Poissons Ratio (y) = 0.18738 0.71740
# Poissons Ratio (z) = 0.17751 0.46238
#
# Static dielectric constant tensor:
#      x y z
#    x 1.674900 0.000000 0.000000 
#    y 0.000000 1.669720 0.000000 
#    z 0.000000 0.000000 1.688590 
# 
# From -- ./inp_files/67006.got.cif
#   From: 2010.05.17/outbox.cif.g08.bks.cpg/sg65_34_cif.got.tgz:67006.got - 2010.06.03 17:01:31.
