data_PCOD9491534
_publ_section_title
;
Structure prediction by ZEFSAII (Michael W. Deem and Ramdas Pophale) SiO2 
 PCOD9491534
Probable space group: C M M M
;
_chemical_formula_sum "Si O2"
_cell_formula_units_Z 96
_cell_length_a 7.768977
_cell_length_b 20.897478
_cell_length_c 30.990226
_cell_angle_alpha 90.000000
_cell_angle_beta 90.000000
_cell_angle_gamma 90.000000
_cell_volume 5031.325975
_symmetry_space_group_name_H-M "C M M M"
_symmetry_group_IT_number 65
_symmetry_cell_setting 'orthorhombic'
loop_
_space_group_symop_operation_xyz
x,y,z
-x,-y,z
x,-y,-z
-x,y,-z
-x,-y,-z
x,y,-z
-x,y,z
x,-y,z
1/2+x,1/2+y,z
1/2-x,1/2-y,z
1/2+x,1/2-y,-z
1/2-x,1/2+y,-z
1/2-x,1/2-y,-z
1/2+x,1/2+y,-z
1/2-x,1/2+y,z
1/2+x,1/2-y,z
loop_
_atom_site_type_symbol
_atom_site_label
_atom_site_fract_x
_atom_site_fract_y
_atom_site_fract_z
Si Si1 0.710390 0.073317 0.215686
Si Si2 0.295962 0.322038 0.048499
Si Si3 0.707228 0.177385 0.382421
Si Si4 0.292760 0.822631 0.715745
Si Si5 0.289732 0.927015 0.549253
Si Si6 0.793854 0.428347 0.118104
O O1 0.500000 0.074924 0.216041
O O2 0.771618 0.124806 0.250458
O O3 0.767185 0.087841 0.166618
O O4 0.759868 0.000000 0.225704
O O5 0.500000 0.324846 0.045209
O O6 0.250000 0.250000 0.062367
O O7 0.244665 0.375536 0.082596
O O8 0.222549 0.332033 0.000000
O O9 0.500000 0.172109 0.381169
O O10 0.750000 0.250000 0.395344
O O11 0.771421 0.167616 0.333339
O O12 0.771411 0.124843 0.416237
O O13 0.500000 0.827839 0.714453
O O14 0.250000 0.750000 0.728698
O O15 0.236849 0.912615 0.500000
O O16 0.500000 0.926134 0.549612
O O17 0.238018 0.000000 0.559529
O O18 0.729917 0.500000 0.106944
O O19 0.000000 0.432216 0.120929
#
# Coordination Sequence:
#
# PCOD9491534 Si02
#       6
#    16  16  16  16  16  16
#     4   8  15  29  48  69  92 118 150 188 226 263
#     4  10  21  36  53  73  98 127 159 196 235 275
#     4   9  17  28  43  64  88 115 147 182 222 267
#     4   9  17  29  45  65  90 118 148 184 223 265
#     4   8  14  25  41  62  87 112 142 184 227 263
#     4   9  18  33  52  73  98 127 157 190 231 279
#
# _framework density 19.080458
#
# number of rings (size 3 to 8) (size 9 to 14) (size 15 to 20)
#    0.000    3.167    0.000    2.000    0.000    3.333 
#    0.000    7.500    0.000    2.000    0.000    5.833 
#    0.000    0.000    0.000    0.000    0.000    0.000 
#
# Total GULP energy -267560.564992 kJ/mol
# GULP energy per Si atom -5574.178437 kJ/mol
# Density = 1.903703 g / cm^3
# Si number density = 19.080458 Si / 1000 Ang^3
#
#
#
# Elastic Constant Matrix: (Units=GPa)
#
#
# Indices 1 2 3 4 5 6 
#
# 1 25.4610 5.0239 8.5349 0.0000 0.0000 0.0000
# 2 5.0239 191.8818 153.7221 0.0000 0.0000 0.0000
# 3 8.5349 153.7221 148.0470 0.0000 0.0000 0.0000
# 4 0.0000 0.0000 0.0000 45.9209 0.0000 0.0000
# 5 0.0000 0.0000 0.0000 0.0000 5.8363 0.0000
# 6 0.0000 0.0000 0.0000 0.0000 0.0000 23.5752
#
#
#
# Elastic Compliance Matrix: (Units=1/GPa)
#
#
# Indices 1 2 3 4 5 6 
#
# 1 0.040796 0.004853 -0.007391 0.000000 0.000000 0.000000
# 2 0.004853 0.031569 -0.033059 0.000000 0.000000 0.000000
# 3 -0.007391 -0.033059 0.041506 0.000000 0.000000 0.000000
# 4 0.000000 0.000000 0.000000 0.021777 0.000000 0.000000
# 5 0.000000 0.000000 0.000000 0.000000 0.171341 0.000000
# 6 0.000000 0.000000 0.000000 0.000000 0.000000 0.042417
#
#
# Mechanical properties :
#
#
# Convention : Reuss Voigt Hill
#
# Bulk Modulus (GPa) = 23.43128 77.77239 50.60183
# Shear Modulus (GPa) = 11.49890 28.27373 19.88632
#
# Velocity S-wave (km/s) = 2.45756 3.85361 3.23187
# Velocity P-wave (km/s) = 4.51218 7.78776 6.36431
#
# Compressibility (1/GPa) = 0.04267800
#
# Stress axis : x y z
#
# Youngs Moduli (GPa) = 24.51235 31.67702 24.09266
#
# Poissons Ratio (x) = -0.15372 0.17806
# Poissons Ratio (y) = -0.11895 0.79647
# Poissons Ratio (z) = 0.18116 1.04720
#
# Static dielectric constant tensor:
#      x y z
#    x 1.717670 0.000000 0.000000 
#    y 0.000000 1.526370 0.000000 
#    z 0.000000 0.000000 1.675030 
# 
# From -- ./inp_files/73101.got.cif
#   From: 2010.05.17/outbox.cif.g08.bks.cpg/sg65_37_cif.got.tgz:73101.got - 2010.06.03 17:01:31.
