data_PCOD9491990
_publ_section_title
;
Structure prediction by ZEFSAII (Michael W. Deem and Ramdas Pophale) SiO2 
 PCOD9491990
Probable space group: C M M M
;
_chemical_formula_sum "Si O2"
_cell_formula_units_Z 116
_cell_length_a 30.508466
_cell_length_b 7.940038
_cell_length_c 24.587077
_cell_angle_alpha 90.000000
_cell_angle_beta 90.000000
_cell_angle_gamma 90.000000
_cell_volume 5955.933686
_symmetry_space_group_name_H-M "C M M M"
_symmetry_group_IT_number 65
_symmetry_cell_setting 'orthorhombic'
loop_
_space_group_symop_operation_xyz
x,y,z
-x,-y,z
x,-y,-z
-x,y,-z
-x,-y,-z
x,y,-z
-x,y,z
x,-y,z
1/2+x,1/2+y,z
1/2-x,1/2-y,z
1/2+x,1/2-y,-z
1/2-x,1/2+y,-z
1/2-x,1/2-y,-z
1/2+x,1/2+y,-z
1/2-x,1/2+y,z
1/2+x,1/2-y,z
loop_
_atom_site_type_symbol
_atom_site_label
_atom_site_fract_x
_atom_site_fract_y
_atom_site_fract_z
Si Si1 0.297691 0.304755 0.258432
Si Si2 0.108833 0.805204 0.414452
Si Si3 0.200143 0.798538 0.061789
Si Si4 0.140707 0.699689 0.161458
Si Si5 0.094229 0.500000 0.500000
Si Si6 0.951818 0.302956 0.811480
Si Si7 0.950406 0.800210 0.689419
Si Si8 0.200341 0.307619 0.379682
O O1 0.295803 0.500000 0.274159
O O2 0.250000 0.250000 0.236779
O O3 0.333279 0.278234 0.212082
O O4 0.305538 0.205900 0.314376
O O5 0.095334 0.652419 0.453474
O O6 0.085318 0.769204 0.356649
O O7 0.161374 0.796190 0.406979
O O8 0.096952 0.000000 0.429893
O O9 0.250000 0.750000 0.075931
O O10 0.167020 0.729697 0.106307
O O11 0.197142 0.000000 0.062152
O O12 0.191825 0.737920 0.000000
O O13 0.138962 0.500000 0.171909
O O14 0.091148 0.768338 0.159687
O O15 0.954455 0.500000 0.825929
O O16 0.943322 0.289901 0.746731
O O17 0.000000 0.226771 0.821704
O O18 0.000000 0.758751 0.670143
O O19 0.949236 0.000000 0.701071
O O20 0.195271 0.500000 0.397286
O O21 0.250000 0.250000 0.391344
#
# Coordination Sequence:
#
# PCOD9491990 Si02
#       8
#    16  16  16  16   4  16  16  16
#     4  11  21  33  50  79 114 148 182 224 279 341
#     4  11  23  42  64  85 117 150 188 241 289 339
#     4  10  21  37  56  78 107 146 192 239 284 335
#     4  11  21  33  52  78 112 148 187 233 285 338
#     4  12  26  44  63  88 114 152 194 240 289 338
#     4   9  19  34  54  82 115 147 184 228 275 335
#     4   9  19  36  60  89 118 151 186 226 282 348
#     4  11  21  37  60  85 114 147 190 232 285 350
#
# _framework density 19.476375000000001
#
# number of rings (size 3 to 8) (size 9 to 14) (size 15 to 20)
#    0.000    1.655    0.690    5.586    0.966    4.138 
#    0.000    1.034    0.000    2.069    0.000    2.897 
#    0.000    0.000    0.000    0.000    0.000    0.000 
#
# Total GULP energy -323286.587122 kJ/mol
# GULP energy per Si atom -5573.906675 kJ/mol
# Density = 1.943205 g / cm^3
# Si number density = 19.476375 Si / 1000 Ang^3
#
#
#
# Elastic Constant Matrix: (Units=GPa)
#
#
# Indices 1 2 3 4 5 6 
#
# 1 74.3919 8.4773 10.3791 0.0000 0.0000 0.0000
# 2 8.4773 72.2798 2.3860 0.0000 0.0000 0.0000
# 3 10.3791 2.3860 15.2683 0.0000 0.0000 0.0000
# 4 0.0000 0.0000 0.0000 13.5637 0.0000 0.0000
# 5 0.0000 0.0000 0.0000 0.0000 -170.0318 0.0000
# 6 0.0000 0.0000 0.0000 0.0000 0.0000 17.0053
#
#
#
# Elastic Compliance Matrix: (Units=1/GPa)
#
#
# Indices 1 2 3 4 5 6 
#
# 1 0.014996 -0.001430 -0.009971 0.000000 0.000000 0.000000
# 2 -0.001430 0.014043 -0.001223 0.000000 0.000000 0.000000
# 3 -0.009971 -0.001223 0.072465 0.000000 0.000000 0.000000
# 4 0.000000 0.000000 0.000000 0.073726 0.000000 0.000000
# 5 0.000000 0.000000 0.000000 0.000000 -0.005881 0.000000
# 6 0.000000 0.000000 0.000000 0.000000 0.000000 0.058805
#
#
# Mechanical properties :
#
#
# Convention : Reuss Voigt Hill
#
# Bulk Modulus (GPa) = 13.11345 22.71387 17.91366
# Shear Modulus (GPa) = 17.93272 -18.51272 -0.29000
#
# Velocity S-wave (km/s) = 3.03767 -3.08640 -0.38629
# Velocity P-wave (km/s) = 4.36473 1.00675 3.00311
#
# Compressibility (1/GPa) = 0.07625756
#
# Stress axis : x y z
#
# Youngs Moduli (GPa) = 66.68273 71.20904 13.79986
#
# Poissons Ratio (x) = 0.10181 0.13760
# Poissons Ratio (y) = 0.09534 0.01687
# Poissons Ratio (z) = 0.66489 0.08706
#
# Static dielectric constant tensor:
#      x y z
#    x 1.720800 0.000000 0.000000 
#    y 0.000000 1.709220 0.000000 
#    z 0.000000 0.000000 1.644220 
# 
# From -- ./inp_files/72272.got.cif
#   From: 2010.05.17/outbox.cif.g08.bks.cpg/sg65_37_cif.got.tgz:72272.got - 2010.06.03 17:01:31.
