data_PCOD9491490
_publ_section_title
;
Structure prediction by ZEFSAII (Michael W. Deem and Ramdas Pophale) SiO2 
 PCOD9491490
Probable space group: C M M M
;
_chemical_formula_sum "Si O2"
_cell_formula_units_Z 80
_cell_length_a 18.805228
_cell_length_b 7.671708
_cell_length_c 27.239082
_cell_angle_alpha 90.000000
_cell_angle_beta 90.000000
_cell_angle_gamma 90.000000
_cell_volume 3929.733823
_symmetry_space_group_name_H-M "C M M M"
_symmetry_group_IT_number 65
_symmetry_cell_setting 'orthorhombic'
loop_
_space_group_symop_operation_xyz
x,y,z
-x,-y,z
x,-y,-z
-x,y,-z
-x,-y,-z
x,y,-z
-x,y,z
x,-y,z
1/2+x,1/2+y,z
1/2-x,1/2-y,z
1/2+x,1/2-y,-z
1/2-x,1/2+y,-z
1/2-x,1/2-y,-z
1/2+x,1/2+y,-z
1/2-x,1/2+y,z
1/2+x,1/2-y,z
loop_
_atom_site_type_symbol
_atom_site_label
_atom_site_fract_x
_atom_site_fract_y
_atom_site_fract_z
Si Si1 0.419826 0.708038 0.746461
Si Si2 0.333728 0.289803 0.840250
Si Si3 0.917596 0.712720 0.445020
Si Si4 0.165635 0.790452 0.052732
Si Si5 0.832785 0.293003 0.350928
O O1 0.500000 0.777665 0.742092
O O2 0.424849 0.500000 0.753152
O O3 0.378164 0.777823 0.794084
O O4 0.375352 0.735611 0.697123
O O5 0.339523 0.500000 0.840979
O O6 0.250000 0.250000 0.834519
O O7 0.359503 0.225583 0.893997
O O8 0.896590 0.769200 0.500000
O O9 0.915847 0.500000 0.445176
O O10 0.868410 0.777137 0.400924
O O11 0.000000 0.762156 0.436778
O O12 0.250000 0.750000 0.052666
O O13 0.157036 0.000000 0.052538
O O14 0.137162 0.724716 0.000000
O O15 0.839401 0.500000 0.352924
O O16 0.750000 0.250000 0.347456
#
# Coordination Sequence:
#
# PCOD9491490 Si02
#       5
#    16  16  16  16  16
#     4  10  21  36  52  70  96 130 165 203 248 296
#     4   9  17  29  46  68  93 122 156 195 240 287
#     4   8  15  30  52  76 101 130 164 200 238 282
#     4   8  13  22  38  61  88 116 148 188 232 278
#     4  11  22  35  53  77 103 131 165 204 245 289
#
# _framework density 20.357614000000002
#
# number of rings (size 3 to 8) (size 9 to 14) (size 15 to 20)
#    0.000    2.800    0.000    2.400    0.000    4.000 
#    0.000    0.000    0.000    2.400    0.000   11.200 
#    0.000    0.000    0.000   34.200    0.000   17.200 
#
# Total GULP energy -223004.918139 kJ/mol
# GULP energy per Si atom -5575.122953 kJ/mol
# Density = 2.031128 g / cm^3
# Si number density = 20.357614 Si / 1000 Ang^3
#
#
#
# Elastic Constant Matrix: (Units=GPa)
#
#
# Indices 1 2 3 4 5 6 
#
# 1 118.1022 0.7332 120.8539 0.0000 0.0000 0.0000
# 2 0.7332 39.2645 6.2056 0.0000 0.0000 0.0000
# 3 120.8539 6.2056 251.8651 0.0000 0.0000 0.0000
# 4 0.0000 0.0000 0.0000 13.5759 0.0000 0.0000
# 5 0.0000 0.0000 0.0000 0.0000 -18.9248 0.0000
# 6 0.0000 0.0000 0.0000 0.0000 0.0000 0.8494
#
#
#
# Elastic Compliance Matrix: (Units=1/GPa)
#
#
# Indices 1 2 3 4 5 6 
#
# 1 0.016671 0.000957 -0.008023 0.000000 0.000000 0.000000
# 2 0.000957 0.025623 -0.001090 0.000000 0.000000 0.000000
# 3 -0.008023 -0.001090 0.007847 0.000000 0.000000 0.000000
# 4 0.000000 0.000000 0.000000 0.073660 0.000000 0.000000
# 5 0.000000 0.000000 0.000000 0.000000 -0.052841 0.000000
# 6 0.000000 0.000000 0.000000 0.000000 0.000000 1.177338
#
#
# Mechanical properties :
#
#
# Convention : Reuss Voigt Hill
#
# Bulk Modulus (GPa) = 29.56165 73.86856 51.71511
# Shear Modulus (GPa) = 3.91884 17.86270 10.89077
#
# Velocity S-wave (km/s) = 1.38895 2.96538 2.31546
# Velocity P-wave (km/s) = 4.13823 6.93462 5.71025
#
# Compressibility (1/GPa) = 0.03382761
#
# Stress axis : x y z
#
# Youngs Moduli (GPa) = 59.98339 39.02781 127.43739
#
# Poissons Ratio (x) = -0.03734 1.02244
# Poissons Ratio (y) = -0.05739 0.13895
# Poissons Ratio (z) = 0.48125 0.04255
#
# Static dielectric constant tensor:
#      x y z
#    x 1.684560 0.000000 0.000000 
#    y 0.000000 1.767620 0.000000 
#    z 0.000000 0.000000 1.772640 
# 
# From -- ./inp_files/72790.got.cif
#   From: 2010.05.17/outbox.cif.g08.bks.cpg/sg65_37_cif.got.tgz:72790.got - 2010.06.03 17:01:31.
