data_PCOD9491676
_publ_section_title
;
Structure prediction by ZEFSAII (Michael W. Deem and Ramdas Pophale) SiO2 
 PCOD9491676
Probable space group: C M M M
;
_chemical_formula_sum "Si O2"
_cell_formula_units_Z 96
_cell_length_a 8.676971
_cell_length_b 24.270009
_cell_length_c 25.877349
_cell_angle_alpha 90.000000
_cell_angle_beta 90.000000
_cell_angle_gamma 90.000000
_cell_volume 5449.515177
_symmetry_space_group_name_H-M "C M M M"
_symmetry_group_IT_number 65
_symmetry_cell_setting 'orthorhombic'
loop_
_space_group_symop_operation_xyz
x,y,z
-x,-y,z
x,-y,-z
-x,y,-z
-x,-y,-z
x,y,-z
-x,y,z
x,-y,z
1/2+x,1/2+y,z
1/2-x,1/2-y,z
1/2+x,1/2-y,-z
1/2-x,1/2+y,-z
1/2-x,1/2-y,-z
1/2+x,1/2+y,-z
1/2-x,1/2+y,z
1/2+x,1/2-y,z
loop_
_atom_site_type_symbol
_atom_site_label
_atom_site_fract_x
_atom_site_fract_y
_atom_site_fract_z
Si Si1 0.684409 0.189969 0.060217
Si Si2 0.684463 0.500000 0.309911
Si Si3 0.814775 0.119052 0.849188
Si Si4 0.814255 0.385107 0.346244
Si Si5 0.686070 0.810416 0.440911
Si Si6 0.184984 0.311494 0.246568
Si Si7 0.687387 0.500000 0.809983
O O1 0.500000 0.191230 0.064704
O O2 0.750000 0.250000 0.075290
O O3 0.752390 0.143934 0.097641
O O4 0.725215 0.180813 0.000000
O O5 0.500000 0.500000 0.309539
O O6 0.744095 0.444917 0.337069
O O7 0.738368 0.500000 0.249878
O O8 0.752834 0.157068 0.802836
O O9 0.763880 0.056349 0.837689
O O10 0.000000 0.120709 0.849196
O O11 0.763756 0.355199 0.398934
O O12 0.773200 0.346062 0.297795
O O13 0.000000 0.389933 0.347181
O O14 0.732859 0.823124 0.500000
O O15 0.500000 0.807823 0.439465
O O16 0.750000 0.750000 0.427676
O O17 0.250000 0.250000 0.249597
O O18 0.000000 0.309579 0.242586
O O19 0.500000 0.500000 0.809469
#
# Coordination Sequence:
#
# PCOD9491676 Si02
#       7
#    16   8  16  16  16  16   8
#     4  10  21  38  59  84 113 145 182 223 270 322
#     4  11  21  37  58  79 106 144 187 227 273 322
#     4  11  21  37  58  80 109 142 182 225 269 322
#     4  10  21  36  54  79 109 142 183 225 272 328
#     4   9  18  34  56  81 110 144 182 226 276 329
#     4  11  22  34  51  78 110 141 175 219 272 326
#     4   9  20  37  56  79 106 142 183 223 268 319
#
# _framework density 17.616244999999999
#
# number of rings (size 3 to 8) (size 9 to 14) (size 15 to 20)
#    0.000    1.833    1.667    2.750    0.000    2.333 
#    0.000    2.500    0.000    5.000    0.000    0.000 
#    0.000    0.000    0.000    0.000    0.000    0.000 
#
# Total GULP energy -268097.472533 kJ/mol
# GULP energy per Si atom -5585.364011 kJ/mol
# Density = 1.757615 g / cm^3
# Si number density = 17.616245 Si / 1000 Ang^3
#
#
#
# Elastic Constant Matrix: (Units=GPa)
#
#
# Indices 1 2 3 4 5 6 
#
# 1 32.0056 42.7341 36.3826 0.0000 0.0000 0.0000
# 2 42.7341 192.6954 102.9372 0.0000 0.0000 0.0000
# 3 36.3826 102.9372 120.7601 0.0000 0.0000 0.0000
# 4 0.0000 0.0000 0.0000 21.9764 0.0000 0.0000
# 5 0.0000 0.0000 0.0000 0.0000 3.8878 0.0000
# 6 0.0000 0.0000 0.0000 0.0000 0.0000 19.0911
#
#
#
# Elastic Compliance Matrix: (Units=1/GPa)
#
#
# Indices 1 2 3 4 5 6 
#
# 1 0.050671 -0.005659 -0.010442 0.000000 0.000000 0.000000
# 2 -0.005659 0.010160 -0.006956 0.000000 0.000000 0.000000
# 3 -0.010442 -0.006956 0.017356 0.000000 0.000000 0.000000
# 4 0.000000 0.000000 0.000000 0.045503 0.000000 0.000000
# 5 0.000000 0.000000 0.000000 0.000000 0.257217 0.000000
# 6 0.000000 0.000000 0.000000 0.000000 0.000000 0.052380
#
#
# Mechanical properties :
#
#
# Convention : Reuss Voigt Hill
#
# Bulk Modulus (GPa) = 31.17883 78.84097 55.00990
# Shear Modulus (GPa) = 10.20213 19.88488 15.04351
#
# Velocity S-wave (km/s) = 2.40913 3.36338 2.92542
# Velocity P-wave (km/s) = 5.04736 7.74177 6.53494
#
# Compressibility (1/GPa) = 0.03207304
#
# Stress axis : x y z
#
# Youngs Moduli (GPa) = 19.73522 98.42223 57.61662
#
# Poissons Ratio (x) = 0.55698 0.60165
# Poissons Ratio (y) = 0.11168 0.40077
# Poissons Ratio (z) = 0.20608 0.68460
#
# Static dielectric constant tensor:
#      x y z
#    x 1.594770 0.000000 0.000000 
#    y 0.000000 1.566940 0.000000 
#    z 0.000000 0.000000 1.595910 
# 
# From -- ./inp_files/67877.got.cif
#   From: 2010.05.17/outbox.cif.g08.bks.cpg/sg65_34_cif.got.tgz:67877.got - 2010.06.03 17:01:31.
