data_PCOD9491191
_publ_section_title
;
Structure prediction by ZEFSAII (Michael W. Deem and Ramdas Pophale) SiO2 
 PCOD9491191
Probable space group: C M M M
;
_chemical_formula_sum "Si O2"
_cell_formula_units_Z 88
_cell_length_a 12.517762
_cell_length_b 16.062684
_cell_length_c 24.566350
_cell_angle_alpha 90.000000
_cell_angle_beta 90.000000
_cell_angle_gamma 90.000000
_cell_volume 4939.527876
_symmetry_space_group_name_H-M "C M M M"
_symmetry_group_IT_number 65
_symmetry_cell_setting 'orthorhombic'
loop_
_space_group_symop_operation_xyz
x,y,z
-x,-y,z
x,-y,-z
-x,y,-z
-x,-y,-z
x,y,-z
-x,y,z
x,-y,z
1/2+x,1/2+y,z
1/2-x,1/2-y,z
1/2+x,1/2-y,-z
1/2-x,1/2+y,-z
1/2-x,1/2-y,-z
1/2+x,1/2+y,-z
1/2-x,1/2+y,z
1/2+x,1/2-y,z
loop_
_atom_site_type_symbol
_atom_site_label
_atom_site_fract_x
_atom_site_fract_y
_atom_site_fract_z
Si Si1 0.127030 0.600400 0.720224
Si Si2 0.370872 0.500000 0.565894
Si Si3 0.724539 0.846802 0.389799
Si Si4 0.500000 0.594299 0.934167
Si Si5 0.119558 0.400472 0.158282
Si Si6 0.000000 0.593760 0.564743
Si Si7 0.769963 0.152682 0.061497
O O1 0.137059 0.500000 0.716274
O O2 0.201327 0.639573 0.674276
O O3 0.155771 0.627984 0.781688
O O4 0.000000 0.619159 0.711797
O O5 0.500000 0.500000 0.577750
O O6 0.358943 0.500000 0.500000
O O7 0.309759 0.583126 0.589066
O O8 0.750000 0.750000 0.400776
O O9 0.609767 0.865191 0.416860
O O10 0.500000 0.500000 0.913964
O O11 0.609510 0.637662 0.919082
O O12 0.500000 0.592710 0.000000
O O13 0.112911 0.500000 0.162965
O O14 0.192068 0.381752 0.106985
O O15 0.000000 0.367513 0.148832
O O16 0.000000 0.500000 0.587807
O O17 0.000000 0.589995 0.500000
O O18 0.750000 0.250000 0.057396
O O19 0.756262 0.116624 0.000000
#
# Coordination Sequence:
#
# PCOD9491191 Si02
#       7
#    16   8  16   8  16   8  16
#     4   9  17  36  63  86 112 151 198 249 298 347
#     4  11  26  45  61  87 133 172 194 241 318 374
#     4  12  24  39  66  94 122 162 209 257 303 361
#     4   9  18  34  54  73  99 145 195 226 265 338
#     4   9  19  34  57  86 113 145 189 240 296 352
#     4  11  22  40  66  94 121 159 216 262 292 349
#     4  10  21  34  53  78 113 151 187 235 290 349
#
# _framework density 17.815467000000002
#
# number of rings (size 3 to 8) (size 9 to 14) (size 15 to 20)
#    0.000    1.909    2.727    2.182    2.545    3.636 
#    0.000    0.909    2.000    0.000    0.000    0.000 
#    0.000    0.000    0.000    0.000    0.000    0.000 
#
# Total GULP energy -245212.980063 kJ/mol
# GULP energy per Si atom -5573.022274 kJ/mol
# Density = 1.777492 g / cm^3
# Si number density = 17.815467 Si / 1000 Ang^3
#
#
#
# Elastic Constant Matrix: (Units=GPa)
#
#
# Indices 1 2 3 4 5 6 
#
# 1 140.2986 64.7018 73.6490 0.0000 0.0000 0.0000
# 2 64.7018 103.9023 30.8993 0.0000 0.0000 0.0000
# 3 73.6490 30.8993 123.7217 0.0000 0.0000 0.0000
# 4 0.0000 0.0000 0.0000 6.8949 0.0000 0.0000
# 5 0.0000 0.0000 0.0000 0.0000 6.8749 0.0000
# 6 0.0000 0.0000 0.0000 0.0000 0.0000 0.7051
#
#
#
# Elastic Compliance Matrix: (Units=1/GPa)
#
#
# Indices 1 2 3 4 5 6 
#
# 1 0.013484 -0.006492 -0.006405 0.000000 0.000000 0.000000
# 2 -0.006492 0.013522 0.000487 0.000000 0.000000 0.000000
# 3 -0.006405 0.000487 0.011774 0.000000 0.000000 0.000000
# 4 0.000000 0.000000 0.000000 0.145035 0.000000 0.000000
# 5 0.000000 0.000000 0.000000 0.000000 0.145457 0.000000
# 6 0.000000 0.000000 0.000000 0.000000 0.000000 1.418318
#
#
# Mechanical properties :
#
#
# Convention : Reuss Voigt Hill
#
# Bulk Modulus (GPa) = 71.63219 78.49143 75.06181
# Shear Modulus (GPa) = 2.81363 16.13979 9.47671
#
# Velocity S-wave (km/s) = 1.25807 3.01315 2.30888
# Velocity P-wave (km/s) = 6.51195 7.50061 7.02370
#
# Compressibility (1/GPa) = 0.01396020
#
# Stress axis : x y z
#
# Youngs Moduli (GPa) = 74.16196 73.95309 84.93318
#
# Poissons Ratio (x) = 0.48009 0.54403
# Poissons Ratio (y) = 0.48145 -0.04139
# Poissons Ratio (z) = 0.47504 -0.03604
#
# Static dielectric constant tensor:
#      x y z
#    x 1.585960 0.000000 0.000000 
#    y 0.000000 1.611100 0.000000 
#    z 0.000000 0.000000 1.646530 
# 
# From -- ./inp_files/74292.got.cif
#   From: 2010.05.17/outbox.cif.g08.bks.cpg/sg65_38_cif.got.tgz:74292.got - 2010.06.03 17:01:31.
