data_PCOD9491650
_publ_section_title
;
Structure prediction by ZEFSAII (Michael W. Deem and Ramdas Pophale) SiO2 
 PCOD9491650
Probable space group: C M M M
;
_chemical_formula_sum "Si O2"
_cell_formula_units_Z 112
_cell_length_a 13.960015
_cell_length_b 14.934386
_cell_length_c 27.562178
_cell_angle_alpha 90.000000
_cell_angle_beta 90.000000
_cell_angle_gamma 90.000000
_cell_volume 5746.280080
_symmetry_space_group_name_H-M "C M M M"
_symmetry_group_IT_number 65
_symmetry_cell_setting 'orthorhombic'
loop_
_space_group_symop_operation_xyz
x,y,z
-x,-y,z
x,-y,-z
-x,y,-z
-x,-y,-z
x,y,-z
-x,y,z
x,-y,z
1/2+x,1/2+y,z
1/2-x,1/2-y,z
1/2+x,1/2-y,-z
1/2-x,1/2+y,-z
1/2-x,1/2-y,-z
1/2+x,1/2+y,-z
1/2-x,1/2+y,z
1/2+x,1/2-y,z
loop_
_atom_site_type_symbol
_atom_site_label
_atom_site_fract_x
_atom_site_fract_y
_atom_site_fract_z
Si Si1 0.783497 0.603209 0.816561
Si Si2 0.720810 0.846746 0.287793
Si Si3 0.395895 0.605512 0.355474
Si Si4 0.275815 0.353167 0.446210
Si Si5 0.384884 0.283224 0.852209
Si Si6 0.392957 0.102357 0.623628
Si Si7 0.615847 0.397843 0.944984
O O1 0.789451 0.500000 0.834777
O O2 0.810742 0.601163 0.759654
O O3 0.675677 0.644929 0.820252
O O4 0.846863 0.682066 0.842087
O O5 0.750000 0.750000 0.269353
O O6 0.814639 0.882202 0.315257
O O7 0.643685 0.839864 0.331050
O O8 0.500000 0.641322 0.341460
O O9 0.402358 0.500000 0.362893
O O10 0.360520 0.641920 0.407177
O O11 0.295513 0.389594 0.500000
O O12 0.250000 0.250000 0.450834
O O13 0.183231 0.394478 0.419683
O O14 0.500000 0.287427 0.844890
O O15 0.360568 0.321439 0.906077
O O16 0.500000 0.126216 0.608153
O O17 0.392658 0.000000 0.641898
O O18 0.500000 0.400331 0.946184
O O19 0.646303 0.500000 0.931385
O O20 0.649349 0.380168 0.000000
#
# Coordination Sequence:
#
# PCOD9491650 Si02
#       7
#    16  16  16  16  16  16  16
#     4  11  23  40  58  83 121 160 200 250 306 363
#     4  11  21  38  57  77 108 145 184 229 282 335
#     4  10  21  36  56  81 105 135 178 225 274 332
#     4  10  21  36  54  77 107 139 170 214 274 334
#     4  10  21  38  59  88 120 156 203 251 299 355
#     4  10  21  36  56  80 103 135 180 225 271 330
#     4   8  14  28  55  89 122 159 204 253 303 354
#
# _framework density 19.490870999999999
#
# number of rings (size 3 to 8) (size 9 to 14) (size 15 to 20)
#    0.000    2.000    1.429    5.143    0.000    6.286 
#    0.000    4.286    0.000    1.286    0.000    2.000 
#    0.000    0.000    0.000    0.000    0.000    0.000 
#
# Total GULP energy -311960.879406 kJ/mol
# GULP energy per Si atom -5570.729989 kJ/mol
# Density = 1.944651 g / cm^3
# Si number density = 19.490871 Si / 1000 Ang^3
#
#
#
# Elastic Constant Matrix: (Units=GPa)
#
#
# Indices 1 2 3 4 5 6 
#
# 1 66.2731 7.6216 8.7888 0.0000 0.0000 0.0000
# 2 7.6216 114.6009 30.1137 0.0000 0.0000 0.0000
# 3 8.7888 30.1137 111.6826 0.0000 0.0000 0.0000
# 4 0.0000 0.0000 0.0000 16.2053 0.0000 0.0000
# 5 0.0000 0.0000 0.0000 0.0000 5.9625 0.0000
# 6 0.0000 0.0000 0.0000 0.0000 0.0000 21.0133
#
#
#
# Elastic Compliance Matrix: (Units=1/GPa)
#
#
# Indices 1 2 3 4 5 6 
#
# 1 0.015309 -0.000755 -0.001001 0.000000 0.000000 0.000000
# 2 -0.000755 0.009429 -0.002483 0.000000 0.000000 0.000000
# 3 -0.001001 -0.002483 0.009702 0.000000 0.000000 0.000000
# 4 0.000000 0.000000 0.000000 0.061708 0.000000 0.000000
# 5 0.000000 0.000000 0.000000 0.000000 0.167715 0.000000
# 6 0.000000 0.000000 0.000000 0.000000 0.000000 0.047589
#
#
# Mechanical properties :
#
#
# Convention : Reuss Voigt Hill
#
# Bulk Modulus (GPa) = 38.51877 42.84498 40.68188
# Shear Modulus (GPa) = 15.21685 25.03840 20.12762
#
# Velocity S-wave (km/s) = 2.79716 3.58805 3.21700
# Velocity P-wave (km/s) = 5.49887 6.26061 5.89206
#
# Compressibility (1/GPa) = 0.02596137
#
# Stress axis : x y z
#
# Youngs Moduli (GPa) = 65.32247 106.06059 103.06946
#
# Poissons Ratio (x) = 0.08008 0.10318
# Poissons Ratio (y) = 0.04932 0.25591
# Poissons Ratio (z) = 0.06540 0.26333
#
# Static dielectric constant tensor:
#      x y z
#    x 1.709280 0.000000 0.000000 
#    y 0.000000 1.729070 0.000000 
#    z 0.000000 0.000000 1.717290 
# 
# From -- ./inp_files/74897.got.cif
#   From: 2010.05.17/outbox.cif.g08.bks.cpg/sg65_38_cif.got.tgz:74897.got - 2010.06.03 17:01:31.
