data_PCOD9491834
_publ_section_title
;
Structure prediction by ZEFSAII (Michael W. Deem and Ramdas Pophale) SiO2 
 PCOD9491834
Probable space group: C M M M
;
_chemical_formula_sum "Si O2"
_cell_formula_units_Z 112
_cell_length_a 14.718137
_cell_length_b 14.919500
_cell_length_c 24.162939
_cell_angle_alpha 90.000000
_cell_angle_beta 90.000000
_cell_angle_gamma 90.000000
_cell_volume 5305.873205
_symmetry_space_group_name_H-M "C M M M"
_symmetry_group_IT_number 65
_symmetry_cell_setting 'orthorhombic'
loop_
_space_group_symop_operation_xyz
x,y,z
-x,-y,z
x,-y,-z
-x,y,-z
-x,-y,-z
x,y,-z
-x,y,z
x,-y,z
1/2+x,1/2+y,z
1/2-x,1/2-y,z
1/2+x,1/2-y,-z
1/2-x,1/2+y,-z
1/2-x,1/2-y,-z
1/2+x,1/2+y,-z
1/2-x,1/2+y,z
1/2+x,1/2-y,z
loop_
_atom_site_type_symbol
_atom_site_label
_atom_site_fract_x
_atom_site_fract_y
_atom_site_fract_z
Si Si1 0.723245 0.891542 0.895942
Si Si2 0.100683 0.356012 0.660372
Si Si3 0.401964 0.339981 0.390676
Si Si4 0.098670 0.898005 0.271195
Si Si5 0.606949 0.725484 0.065530
Si Si6 0.272054 0.100796 0.559658
Si Si7 0.786954 0.607195 0.766892
O O1 0.652250 0.824585 0.926455
O O2 0.823192 0.846437 0.906392
O O3 0.696107 0.881126 0.831440
O O4 0.722285 0.000000 0.908849
O O5 0.094635 0.254812 0.639603
O O6 0.163304 0.396918 0.612556
O O7 0.144168 0.358599 0.720817
O O8 0.000000 0.395236 0.661328
O O9 0.500000 0.359089 0.416787
O O10 0.388183 0.402937 0.337395
O O11 0.316287 0.339877 0.430097
O O12 0.187003 0.853498 0.245735
O O13 0.000000 0.855764 0.260483
O O14 0.094846 0.000000 0.249735
O O15 0.500000 0.722346 0.083640
O O16 0.608358 0.705870 0.000000
O O17 0.316452 0.120867 0.500000
O O18 0.235548 0.000000 0.557073
O O19 0.783562 0.500000 0.756460
#
# Coordination Sequence:
#
# PCOD9491834 Si02
#       7
#    16  16  16  16  16  16  16
#     4  10  22  40  65  97 134 178 228 279 331 393
#     4  11  24  40  59  84 116 155 196 242 299 363
#     4  10  21  36  57  85 111 139 182 237 299 365
#     4   9  17  31  53  80 112 148 185 230 287 354
#     4  10  23  43  66  97 138 180 224 279 337 390
#     4  11  24  41  61  83 110 148 194 248 308 368
#     4  10  21  37  59  88 122 163 206 251 306 365
#
# _framework density 21.108682999999999
#
# number of rings (size 3 to 8) (size 9 to 14) (size 15 to 20)
#    0.000    1.857    1.429    2.143    0.000    8.857 
#    0.000    8.571    0.000    0.000    0.000    0.000 
#    0.000    0.000    0.000    0.000    0.000    0.000 
#
# Total GULP energy -312148.485492 kJ/mol
# GULP energy per Si atom -5574.080098 kJ/mol
# Density = 2.106064 g / cm^3
# Si number density = 21.108683 Si / 1000 Ang^3
#
#
#
# Elastic Constant Matrix: (Units=GPa)
#
#
# Indices 1 2 3 4 5 6 
#
# 1 125.4223 19.0253 43.2726 0.0000 0.0000 0.0000
# 2 19.0253 88.7515 20.5684 0.0000 0.0000 0.0000
# 3 43.2726 20.5684 84.3037 0.0000 0.0000 0.0000
# 4 0.0000 0.0000 0.0000 17.1550 0.0000 0.0000
# 5 0.0000 0.0000 0.0000 0.0000 -6.2550 0.0000
# 6 0.0000 0.0000 0.0000 0.0000 0.0000 -4.7641
#
#
#
# Elastic Compliance Matrix: (Units=1/GPa)
#
#
# Indices 1 2 3 4 5 6 
#
# 1 0.009770 -0.000988 -0.004774 0.000000 0.000000 0.000000
# 2 -0.000988 0.012043 -0.002431 0.000000 0.000000 0.000000
# 3 -0.004774 -0.002431 0.014905 0.000000 0.000000 0.000000
# 4 0.000000 0.000000 0.000000 0.058292 0.000000 0.000000
# 5 0.000000 0.000000 0.000000 0.000000 -0.159872 0.000000
# 6 0.000000 0.000000 0.000000 0.000000 0.000000 -0.209902
#
#
# Mechanical properties :
#
#
# Convention : Reuss Voigt Hill
#
# Bulk Modulus (GPa) = 49.18288 51.57889 50.38089
# Shear Modulus (GPa) = -19.87275 15.60125 -2.13575
#
# Velocity S-wave (km/s) = -3.07163 2.72157 -1.00697
# Velocity P-wave (km/s) = 3.28185 5.86207 4.75050
#
# Compressibility (1/GPa) = 0.02033228
#
# Stress axis : x y z
#
# Youngs Moduli (GPa) = 102.35442 83.03851 67.08994
#
# Poissons Ratio (x) = 0.08204 0.32028
# Poissons Ratio (y) = 0.10113 0.16310
# Poissons Ratio (z) = 0.48862 0.20187
#
# Static dielectric constant tensor:
#      x y z
#    x 1.803340 0.000000 0.000000 
#    y 0.000000 1.871610 0.000000 
#    z 0.000000 0.000000 1.768400 
# 
# From -- ./inp_files/69995.got.cif
#   From: 2010.05.17/outbox.cif.g08.bks.cpg/sg65_35_cif.got.tgz:69995.got - 2010.06.03 17:01:31.
