data_PCOD9491870
_publ_section_title
;
Structure prediction by ZEFSAII (Michael W. Deem and Ramdas Pophale) SiO2 
 PCOD9491870
Probable space group: C M M M
;
_chemical_formula_sum "Si O2"
_cell_formula_units_Z 88
_cell_length_a 18.504806
_cell_length_b 21.552957
_cell_length_c 12.713156
_cell_angle_alpha 90.000000
_cell_angle_beta 90.000000
_cell_angle_gamma 90.000000
_cell_volume 5070.429808
_symmetry_space_group_name_H-M "C M M M"
_symmetry_group_IT_number 65
_symmetry_cell_setting 'orthorhombic'
loop_
_space_group_symop_operation_xyz
x,y,z
-x,-y,z
x,-y,-z
-x,y,-z
-x,-y,-z
x,y,-z
-x,y,z
x,-y,z
1/2+x,1/2+y,z
1/2-x,1/2-y,z
1/2+x,1/2-y,-z
1/2-x,1/2+y,-z
1/2-x,1/2-y,-z
1/2+x,1/2+y,-z
1/2-x,1/2+y,z
1/2+x,1/2-y,z
loop_
_atom_site_type_symbol
_atom_site_label
_atom_site_fract_x
_atom_site_fract_y
_atom_site_fract_z
Si Si1 0.585943 0.737676 0.695283
Si Si2 0.326698 0.791598 0.500000
Si Si3 0.669934 0.608827 0.705755
Si Si4 0.785144 0.572543 0.875096
Si Si5 0.084141 0.000000 0.621384
Si Si6 0.764643 0.424702 0.500000
Si Si7 0.582437 0.162642 0.123164
O O1 0.500000 0.727603 0.674059
O O2 0.626597 0.772660 0.601126
O O3 0.631046 0.674575 0.705658
O O4 0.591708 0.779030 0.800296
O O5 0.250000 0.750000 0.500000
O O6 0.320399 0.866664 0.500000
O O7 0.719311 0.598935 0.807309
O O8 0.608376 0.558355 0.688769
O O9 0.719883 0.592852 0.604847
O O10 0.794334 0.500000 0.848777
O O11 0.857705 0.611077 0.851779
O O12 0.771393 0.577436 0.000000
O O13 0.114301 0.000000 0.500000
O O14 0.000000 0.000000 0.609291
O O15 0.782716 0.500000 0.500000
O O16 0.500000 0.139399 0.136954
O O17 0.590787 0.179649 0.000000
#
# Coordination Sequence:
#
# PCOD9491870 Si02
#       7
#    16   8  16  16   8   8  16
#     4  11  24  39  59  86 118 153 194 243 293 349
#     4  12  23  38  61  87 119 155 195 238 295 353
#     4  12  20  37  58  83 119 152 191 238 288 344
#     4  10  21  36  59  87 116 152 192 239 289 345
#     4  11  22  36  57  85 116 153 197 240 287 342
#     4  12  22  36  57  87 116 154 190 242 292 337
#     4   9  20  39  60  84 115 151 194 243 292 342
#
# _framework density 17.355530999999999
#
# number of rings (size 3 to 8) (size 9 to 14) (size 15 to 20)
#    0.000    1.182    4.545    1.909    0.000    1.091 
#    0.000    3.636    0.000    4.364    0.000    0.000 
#    0.000    0.727    0.000    0.000    0.000    0.000 
#
# Total GULP energy -245225.736182 kJ/mol
# GULP energy per Si atom -5573.312186 kJ/mol
# Density = 1.731603 g / cm^3
# Si number density = 17.355531 Si / 1000 Ang^3
#
#
#
# Elastic Constant Matrix: (Units=GPa)
#
#
# Indices 1 2 3 4 5 6 
#
# 1 114.0788 94.8232 65.2079 0.0000 0.0000 0.0000
# 2 94.8232 166.3521 61.2443 0.0000 0.0000 0.0000
# 3 65.2079 61.2443 65.8655 0.0000 0.0000 0.0000
# 4 0.0000 0.0000 0.0000 18.4130 0.0000 0.0000
# 5 0.0000 0.0000 0.0000 0.0000 33.6669 0.0000
# 6 0.0000 0.0000 0.0000 0.0000 0.0000 39.1825
#
#
#
# Elastic Compliance Matrix: (Units=1/GPa)
#
#
# Indices 1 2 3 4 5 6 
#
# 1 0.025749 -0.008047 -0.018009 0.000000 0.000000 0.000000
# 2 -0.008047 0.011655 -0.002871 0.000000 0.000000 0.000000
# 3 -0.018009 -0.002871 0.035681 0.000000 0.000000 0.000000
# 4 0.000000 0.000000 0.000000 0.054309 0.000000 0.000000
# 5 0.000000 0.000000 0.000000 0.000000 0.029703 0.000000
# 6 0.000000 0.000000 0.000000 0.000000 0.000000 0.025522
#
#
# Mechanical properties :
#
#
# Convention : Reuss Voigt Hill
#
# Bulk Modulus (GPa) = 65.65503 87.64967 76.65235
# Shear Modulus (GPa) = 20.36246 26.58723 23.47485
#
# Velocity S-wave (km/s) = 3.42900 3.91822 3.68174
# Velocity P-wave (km/s) = 7.32045 8.43101 7.89528
#
# Compressibility (1/GPa) = 0.01523112
#
# Stress axis : x y z
#
# Youngs Moduli (GPa) = 38.83706 85.79950 28.02575
#
# Poissons Ratio (x) = 0.69041 0.50472
# Poissons Ratio (y) = 0.31251 0.08046
# Poissons Ratio (z) = 0.69943 0.24632
#
# Static dielectric constant tensor:
#      x y z
#    x 1.606130 0.000000 0.000000 
#    y 0.000000 1.592490 0.000000 
#    z 0.000000 0.000000 1.584750 
# 
# From -- ./inp_files/26834.got.cif
#   From: 2010.05.17/outbox.cif.g08.bks.cpg/sg65_14_cif.got.tgz:26834.got - 2010.06.03 17:01:31.
