data_PCOD9491438
_publ_section_title
;
Structure prediction by ZEFSAII (Michael W. Deem and Ramdas Pophale) SiO2 
 PCOD9491438
Probable space group: C M M M
;
_chemical_formula_sum "Si O2"
_cell_formula_units_Z 100
_cell_length_a 8.909170
_cell_length_b 27.025451
_cell_length_c 23.256049
_cell_angle_alpha 90.000000
_cell_angle_beta 90.000000
_cell_angle_gamma 90.000000
_cell_volume 5599.459786
_symmetry_space_group_name_H-M "C M M M"
_symmetry_group_IT_number 65
_symmetry_cell_setting 'orthorhombic'
loop_
_space_group_symop_operation_xyz
x,y,z
-x,-y,z
x,-y,-z
-x,y,-z
-x,-y,-z
x,y,-z
-x,y,z
x,-y,z
1/2+x,1/2+y,z
1/2-x,1/2-y,z
1/2+x,1/2-y,-z
1/2-x,1/2+y,-z
1/2-x,1/2-y,-z
1/2+x,1/2+y,-z
1/2-x,1/2+y,z
1/2+x,1/2-y,z
loop_
_atom_site_type_symbol
_atom_site_label
_atom_site_fract_x
_atom_site_fract_y
_atom_site_fract_z
Si Si1 0.321979 0.699326 0.777125
Si Si2 0.677327 0.055788 0.189206
Si Si3 0.750000 0.250000 0.593274
Si Si4 0.320751 0.556626 0.315850
Si Si5 0.675901 0.153809 0.329652
Si Si6 0.000000 0.774584 0.500000
Si Si7 0.180302 0.805456 0.000000
Si Si8 0.680132 0.849923 0.885591
O O1 0.500000 0.701808 0.784129
O O2 0.250000 0.750000 0.756314
O O3 0.274600 0.661930 0.727473
O O4 0.240036 0.686517 0.836276
O O5 0.500000 0.063177 0.202455
O O6 0.766523 0.059035 0.249087
O O7 0.718133 0.096361 0.141455
O O8 0.696597 0.000000 0.166893
O O9 0.697497 0.202463 0.630946
O O10 0.873440 0.228461 0.550803
O O11 0.500000 0.563767 0.318754
O O12 0.286916 0.500000 0.334890
O O13 0.235776 0.600228 0.350475
O O14 0.500000 0.150174 0.315375
O O15 0.250000 0.750000 0.000000
O O16 0.239493 0.834758 0.944182
O O17 0.000000 0.801946 0.000000
O O18 0.500000 0.846225 0.892082
#
# Coordination Sequence:
#
# PCOD9491438 Si02
#       8
#    16  16   8  16  16   4   8  16
#     4  12  24  36  54  83 122 156 194 244 312 362
#     4   9  18  34  57  83 115 154 193 239 297 361
#     4  11  24  42  66  94 128 167 212 254 298 365
#     4  10  21  35  55  87 127 167 205 251 313 371
#     4  12  23  36  59  92 125 164 205 255 302 361
#     4  10  24  46  64  90 130 174 208 246 306 356
#     4  12  26  44  63  80 107 147 202 247 299 364
#     4  11  22  39  60  84 113 152 197 246 299 368
#
# _framework density 17.858865000000002
#
# number of rings (size 3 to 8) (size 9 to 14) (size 15 to 20)
#    0.000    1.120    3.200    4.080    2.240    1.600 
#    0.000    0.400    0.000    2.400    0.000    3.360 
#    0.000    0.000    0.000    0.000    0.000    0.000 
#
# Total GULP energy -278383.038438 kJ/mol
# GULP energy per Si atom -5567.660769 kJ/mol
# Density = 1.781822 g / cm^3
# Si number density = 17.858865 Si / 1000 Ang^3
#
#
#
# Elastic Constant Matrix: (Units=GPa)
#
#
# Indices 1 2 3 4 5 6 
#
# 1 84.1033 25.6683 9.8029 0.0000 0.0000 0.0000
# 2 25.6683 126.5073 15.7900 0.0000 0.0000 0.0000
# 3 9.8029 15.7900 59.0694 0.0000 0.0000 0.0000
# 4 0.0000 0.0000 0.0000 -0.6855 0.0000 0.0000
# 5 0.0000 0.0000 0.0000 0.0000 35.6275 0.0000
# 6 0.0000 0.0000 0.0000 0.0000 0.0000 107.9464
#
#
#
# Elastic Compliance Matrix: (Units=1/GPa)
#
#
# Indices 1 2 3 4 5 6 
#
# 1 0.012799 -0.002412 -0.001479 0.000000 0.000000 0.000000
# 2 -0.002412 0.008632 -0.001907 0.000000 0.000000 0.000000
# 3 -0.001479 -0.001907 0.017685 0.000000 0.000000 0.000000
# 4 0.000000 0.000000 0.000000 -1.458791 0.000000 0.000000
# 5 0.000000 0.000000 0.000000 0.000000 0.028068 0.000000
# 6 0.000000 0.000000 0.000000 0.000000 0.000000 0.009264
#
#
# Mechanical properties :
#
#
# Convention : Reuss Voigt Hill
#
# Bulk Modulus (GPa) = 36.33953 41.35583 38.84768
# Shear Modulus (GPa) = -3.67222 43.13895 19.73336
#
# Velocity S-wave (km/s) = -1.43552 4.92015 3.32770
# Velocity P-wave (km/s) = 4.20056 7.44879 6.04687
#
# Compressibility (1/GPa) = 0.02751824
#
# Stress axis : x y z
#
# Youngs Moduli (GPa) = 78.13248 115.84581 56.54664
#
# Poissons Ratio (x) = 0.27945 0.08364
# Poissons Ratio (y) = 0.18847 0.10784
# Poissons Ratio (z) = 0.11557 0.22094
#
# Static dielectric constant tensor:
#      x y z
#    x 1.609080 0.000000 0.000000 
#    y 0.000000 1.661160 0.000000 
#    z 0.000000 0.000000 1.575750 
# 
# From -- ./inp_files/60466.got.cif
#   From: 2010.05.17/outbox.cif.g08.bks.cpg/sg65_31_cif.got.tgz:60466.got - 2010.06.03 17:01:31.
