data_PCOD9491714
_publ_section_title
;
Structure prediction by ZEFSAII (Michael W. Deem and Ramdas Pophale) SiO2 
 PCOD9491714
Probable space group: C M M M
;
_chemical_formula_sum "Si O2"
_cell_formula_units_Z 88
_cell_length_a 19.617462
_cell_length_b 8.842741
_cell_length_c 28.555485
_cell_angle_alpha 90.000000
_cell_angle_beta 90.000000
_cell_angle_gamma 90.000000
_cell_volume 4953.580964
_symmetry_space_group_name_H-M "C M M M"
_symmetry_group_IT_number 65
_symmetry_cell_setting 'orthorhombic'
loop_
_space_group_symop_operation_xyz
x,y,z
-x,-y,z
x,-y,-z
-x,y,-z
-x,-y,-z
x,y,-z
-x,y,z
x,-y,z
1/2+x,1/2+y,z
1/2-x,1/2-y,z
1/2+x,1/2-y,-z
1/2-x,1/2+y,-z
1/2-x,1/2-y,-z
1/2+x,1/2+y,-z
1/2-x,1/2+y,z
1/2+x,1/2-y,z
loop_
_atom_site_type_symbol
_atom_site_label
_atom_site_fract_x
_atom_site_fract_y
_atom_site_fract_z
Si Si1 0.325175 0.318642 0.261373
Si Si2 0.420218 0.318883 0.080273
Si Si3 0.325985 0.818948 0.000000
Si Si4 0.080001 0.318193 0.447113
Si Si5 0.175304 0.180358 0.368358
Si Si6 0.580441 0.821607 0.817992
O O1 0.322655 0.500000 0.256770
O O2 0.250000 0.250000 0.254420
O O3 0.346075 0.281529 0.314950
O O4 0.375665 0.248907 0.223494
O O5 0.500000 0.282577 0.069522
O O6 0.412752 0.500000 0.077194
O O7 0.369027 0.239377 0.044580
O O8 0.406307 0.262097 0.132872
O O9 0.250000 0.750000 0.000000
O O10 0.321995 0.000000 0.000000
O O11 0.100820 0.272949 0.500000
O O12 0.086504 0.500000 0.444159
O O13 0.124228 0.242931 0.406996
O O14 0.000000 0.281631 0.441730
O O15 0.250000 0.250000 0.375724
O O16 0.179760 0.000000 0.371699
O O17 0.500000 0.804372 0.807892
O O18 0.595033 0.000000 0.823049
#
# Coordination Sequence:
#
# PCOD9491714 Si02
#       6
#    16  16   8  16  16  16
#     4  10  21  37  56  79 109 144 182 224 272 324
#     4  10  21  39  62  86 114 148 185 226 274 326
#     4  12  25  40  59  85 117 149 187 232 275 324
#     4   9  19  36  56  78 106 140 177 219 269 323
#     4  10  21  36  55  79 107 141 181 224 269 321
#     4  10  21  37  58  85 114 145 184 226 269 321
#
# _framework density 17.764925999999999
#
# number of rings (size 3 to 8) (size 9 to 14) (size 15 to 20)
#    0.000    2.000    0.000    3.818    0.000    8.000 
#    0.000    8.182    0.000    0.000    0.000    0.000 
#    0.000    0.000    0.000    0.000    0.000    0.000 
#
# Total GULP energy -245748.323901 kJ/mol
# GULP energy per Si atom -5585.189180 kJ/mol
# Density = 1.772449 g / cm^3
# Si number density = 17.764926 Si / 1000 Ang^3
#
#
#
# Elastic Constant Matrix: (Units=GPa)
#
#
# Indices 1 2 3 4 5 6 
#
# 1 106.0607 72.3522 115.6914 0.0000 0.0000 0.0000
# 2 72.3522 96.6258 82.2553 0.0000 0.0000 0.0000
# 3 115.6914 82.2553 167.0594 0.0000 0.0000 0.0000
# 4 0.0000 0.0000 0.0000 37.2195 0.0000 0.0000
# 5 0.0000 0.0000 0.0000 0.0000 51.8211 0.0000
# 6 0.0000 0.0000 0.0000 0.0000 0.0000 34.0039
#
#
#
# Elastic Compliance Matrix: (Units=1/GPa)
#
#
# Indices 1 2 3 4 5 6 
#
# 1 0.046034 -0.012622 -0.025665 0.000000 0.000000 0.000000
# 2 -0.012622 0.021278 -0.001736 0.000000 0.000000 0.000000
# 3 -0.025665 -0.001736 0.024614 0.000000 0.000000 0.000000
# 4 0.000000 0.000000 0.000000 0.026868 0.000000 0.000000
# 5 0.000000 0.000000 0.000000 0.000000 0.019297 0.000000
# 6 0.000000 0.000000 0.000000 0.000000 0.000000 0.029408
#
#
# Mechanical properties :
#
#
# Convention : Reuss Voigt Hill
#
# Bulk Modulus (GPa) = 84.16792 101.14930 92.65861
# Shear Modulus (GPa) = 19.88034 31.23868 25.55951
#
# Velocity S-wave (km/s) = 3.34889 4.19793 3.79722
# Velocity P-wave (km/s) = 7.90158 8.97542 8.45556
#
# Compressibility (1/GPa) = 0.01188101
#
# Stress axis : x y z
#
# Youngs Moduli (GPa) = 21.72292 46.99680 40.62769
#
# Poissons Ratio (x) = 0.59320 1.04270
# Poissons Ratio (y) = 0.27419 0.07052
# Poissons Ratio (z) = 0.55751 0.08157
#
# Static dielectric constant tensor:
#      x y z
#    x 1.573890 0.000000 0.000000 
#    y 0.000000 1.592430 0.000000 
#    z 0.000000 0.000000 1.589930 
# 
# From -- ./inp_files/67569.got.cif
#   From: 2010.05.17/outbox.cif.g08.bks.cpg/sg65_34_cif.got.tgz:67569.got - 2010.06.03 17:01:31.
