data_PCOD9491259
_publ_section_title
;
Structure prediction by ZEFSAII (Michael W. Deem and Ramdas Pophale) SiO2 
 PCOD9491259
Probable space group: C M M M
;
_chemical_formula_sum "Si O2"
_cell_formula_units_Z 56
_cell_length_a 7.611709
_cell_length_b 14.840604
_cell_length_c 23.314770
_cell_angle_alpha 90.000000
_cell_angle_beta 90.000000
_cell_angle_gamma 90.000000
_cell_volume 2633.691419
_symmetry_space_group_name_H-M "C M M M"
_symmetry_group_IT_number 65
_symmetry_cell_setting 'orthorhombic'
loop_
_space_group_symop_operation_xyz
x,y,z
-x,-y,z
x,-y,-z
-x,y,-z
-x,-y,-z
x,y,-z
-x,y,z
x,-y,z
1/2+x,1/2+y,z
1/2-x,1/2-y,z
1/2+x,1/2-y,-z
1/2-x,1/2+y,-z
1/2-x,1/2-y,-z
1/2+x,1/2+y,-z
1/2-x,1/2+y,z
1/2+x,1/2-y,z
loop_
_atom_site_type_symbol
_atom_site_label
_atom_site_fract_x
_atom_site_fract_y
_atom_site_fract_z
Si Si1 0.711163 0.355487 0.686514
Si Si2 0.788750 0.000000 0.224100
Si Si3 0.710694 0.144689 0.000000
Si Si4 0.211088 0.142746 0.438372
Si Si5 0.210301 0.500000 0.090302
O O1 0.500000 0.364653 0.684635
O O2 0.750000 0.250000 0.692851
O O3 0.776161 0.413799 0.739823
O O4 0.776920 0.388425 0.623835
O O5 0.747547 0.000000 0.157323
O O6 0.000000 0.000000 0.227261
O O7 0.750000 0.250000 0.000000
O O8 0.774578 0.088252 0.944462
O O9 0.500000 0.138686 0.000000
O O10 0.277844 0.107909 0.500000
O O11 0.250000 0.250000 0.438311
O O12 0.000000 0.129717 0.438754
O O13 0.000000 0.500000 0.085065
#
# Coordination Sequence:
#
# PCOD9491259 Si02
#       5
#    16   8   8  16   8
#     4   9  18  32  48  68  96 129 166 208 252 298
#     4  10  21  35  50  72 104 137 168 204 244 288
#     4   9  19  37  60  84 108 133 163 201 242 284
#     4   8  13  23  41  63  86 116 156 202 251 298
#     4   9  20  38  56  77 107 138 166 198 239 288
#
# _framework density 21.262930000000001
#
# number of rings (size 3 to 8) (size 9 to 14) (size 15 to 20)
#    0.000    3.143    0.000    0.857    0.000    3.429 
#    0.000    7.857    0.000    4.286    0.000    0.000 
#    0.000   24.000    0.000    0.000    0.000    0.000 
#
# Total GULP energy -156043.046540 kJ/mol
# GULP energy per Si atom -5572.965948 kJ/mol
# Density = 2.121453 g / cm^3
# Si number density = 21.262930 Si / 1000 Ang^3
#
#
#
# Elastic Constant Matrix: (Units=GPa)
#
#
# Indices 1 2 3 4 5 6 
#
# 1 46.5280 2.8852 11.1542 0.0000 0.0000 0.0000
# 2 2.8852 144.9279 114.5024 0.0000 0.0000 0.0000
# 3 11.1542 114.5024 272.6146 0.0000 0.0000 0.0000
# 4 0.0000 0.0000 0.0000 23.5882 0.0000 0.0000
# 5 0.0000 0.0000 0.0000 0.0000 15.5711 0.0000
# 6 0.0000 0.0000 0.0000 0.0000 0.0000 11.7793
#
#
#
# Elastic Compliance Matrix: (Units=1/GPa)
#
#
# Indices 1 2 3 4 5 6 
#
# 1 0.021721 0.000404 -0.001058 0.000000 0.000000 0.000000
# 2 0.000404 0.010334 -0.004357 0.000000 0.000000 0.000000
# 3 -0.001058 -0.004357 0.005542 0.000000 0.000000 0.000000
# 4 0.000000 0.000000 0.000000 0.042394 0.000000 0.000000
# 5 0.000000 0.000000 0.000000 0.000000 0.064221 0.000000
# 6 0.000000 0.000000 0.000000 0.000000 0.000000 0.084895
#
#
# Mechanical properties :
#
#
# Convention : Reuss Voigt Hill
#
# Bulk Modulus (GPa) = 36.26661 80.12823 58.19742
# Shear Modulus (GPa) = 20.13519 32.55632 26.34575
#
# Velocity S-wave (km/s) = 3.08061 3.91721 3.52383
# Velocity P-wave (km/s) = 5.45407 7.63058 6.63221
#
# Compressibility (1/GPa) = 0.02757357
#
# Stress axis : x y z
#
# Youngs Moduli (GPa) = 46.03822 96.76479 180.45547
#
# Poissons Ratio (x) = -0.03906 0.19097
# Poissons Ratio (y) = -0.01859 0.78626
# Poissons Ratio (z) = 0.04872 0.42161
#
# Static dielectric constant tensor:
#      x y z
#    x 1.808960 0.000000 0.000000 
#    y 0.000000 1.747700 0.000000 
#    z 0.000000 0.000000 1.795300 
# 
# From -- ./inp_files/58641.got.cif
#   From: 2010.05.17/outbox.cif.g08.bks.cpg/sg65_30_cif.got.tgz:58641.got - 2010.06.03 17:01:31.
