data_PCOD9491995
_publ_section_title
;
Structure prediction by ZEFSAII (Michael W. Deem and Ramdas Pophale) SiO2 
 PCOD9491995
Probable space group: C M M M
;
_chemical_formula_sum "Si O2"
_cell_formula_units_Z 64
_cell_length_a 14.682886
_cell_length_b 10.001456
_cell_length_c 24.182904
_cell_angle_alpha 90.000000
_cell_angle_beta 90.000000
_cell_angle_gamma 90.000000
_cell_volume 3551.265215
_symmetry_space_group_name_H-M "C M M M"
_symmetry_group_IT_number 65
_symmetry_cell_setting 'orthorhombic'
loop_
_space_group_symop_operation_xyz
x,y,z
-x,-y,z
x,-y,-z
-x,y,-z
-x,-y,-z
x,y,-z
-x,y,z
x,-y,z
1/2+x,1/2+y,z
1/2-x,1/2-y,z
1/2+x,1/2-y,-z
1/2-x,1/2+y,-z
1/2-x,1/2-y,-z
1/2+x,1/2+y,-z
1/2-x,1/2+y,z
1/2+x,1/2-y,z
loop_
_atom_site_type_symbol
_atom_site_label
_atom_site_fract_x
_atom_site_fract_y
_atom_site_fract_z
Si Si1 0.500000 0.845308 0.805331
Si Si2 0.168836 0.344973 0.276424
Si Si3 0.611498 0.346609 0.500000
Si Si4 0.110158 0.652020 0.402103
Si Si5 0.500000 0.341501 0.088615
Si Si6 0.341344 0.659694 0.000000
O O1 0.413971 0.826064 0.765380
O O2 0.500000 0.746595 0.856720
O O3 0.500000 0.000000 0.824457
O O4 0.196223 0.500000 0.274481
O O5 0.250000 0.250000 0.260197
O O6 0.140171 0.316900 0.339775
O O7 0.642538 0.500000 0.500000
O O8 0.500000 0.348991 0.500000
O O9 0.640013 0.262400 0.446181
O O10 0.139766 0.500000 0.416378
O O11 0.000000 0.650608 0.402756
O O12 0.500000 0.500000 0.100789
O O13 0.590879 0.314649 0.052029
O O14 0.250000 0.750000 0.000000
O O15 0.319039 0.500000 0.000000
#
# Coordination Sequence:
#
# PCOD9491995 Si02
#       6
#     8  16   8  16   8   8
#     4  10  21  39  59  81 113 150 188 230 271 322
#     4  10  21  37  56  79 107 141 183 228 275 327
#     4   9  17  27  44  75 106 128 162 218 276 327
#     4   9  16  31  53  72  96 135 177 215 264 330
#     4   9  20  38  58  84 117 153 189 228 274 321
#     4   9  19  37  60  86 120 155 189 229 272 318
#
# _framework density 18.021746
#
# number of rings (size 3 to 8) (size 9 to 14) (size 15 to 20)
#    0.000    2.625    1.250    1.125    0.000    5.500 
#    0.000    6.875    0.000    0.000    0.000    0.000 
#    0.000    0.000    0.000    0.000    0.000    0.000 
#
# Total GULP energy -178556.881483 kJ/mol
# GULP energy per Si atom -5579.902546 kJ/mol
# Density = 1.798073 g / cm^3
# Si number density = 18.021746 Si / 1000 Ang^3
#
#
#
# Elastic Constant Matrix: (Units=GPa)
#
#
# Indices 1 2 3 4 5 6 
#
# 1 100.1482 80.7525 43.5996 0.0000 0.0000 0.0000
# 2 80.7525 125.5569 101.9077 0.0000 0.0000 0.0000
# 3 43.5996 101.9077 122.8581 0.0000 0.0000 0.0000
# 4 0.0000 0.0000 0.0000 35.1005 0.0000 0.0000
# 5 0.0000 0.0000 0.0000 0.0000 -37.4093 0.0000
# 6 0.0000 0.0000 0.0000 0.0000 0.0000 27.4083
#
#
#
# Elastic Compliance Matrix: (Units=1/GPa)
#
#
# Indices 1 2 3 4 5 6 
#
# 1 0.027610 -0.030007 0.015092 0.000000 0.000000 0.000000
# 2 -0.030007 0.056985 -0.036619 0.000000 0.000000 0.000000
# 3 0.015092 -0.036619 0.033159 0.000000 0.000000 0.000000
# 4 0.000000 0.000000 0.000000 0.028490 0.000000 0.000000
# 5 0.000000 0.000000 0.000000 0.000000 -0.026731 0.000000
# 6 0.000000 0.000000 0.000000 0.000000 0.000000 0.036485
#
#
# Mechanical properties :
#
#
# Convention : Reuss Voigt Hill
#
# Bulk Modulus (GPa) = 68.09453 89.00921 78.55187
# Shear Modulus (GPa) = 18.94212 13.17347 16.05780
#
# Velocity S-wave (km/s) = 3.24554 2.70659 2.98824
# Velocity P-wave (km/s) = 7.20495 7.69835 7.45574
#
# Compressibility (1/GPa) = 0.01468547
#
# Stress axis : x y z
#
# Youngs Moduli (GPa) = 36.21816 17.54836 30.15817
#
# Poissons Ratio (x) = 0.52657 -0.45513
# Poissons Ratio (y) = 1.08679 1.10437
# Poissons Ratio (z) = -0.54659 0.64261
#
# Static dielectric constant tensor:
#      x y z
#    x 1.614490 0.000000 0.000000 
#    y 0.000000 1.602900 0.000000 
#    z 0.000000 0.000000 1.596140 
# 
# From -- ./inp_files/69600.got.cif
#   From: 2010.05.17/outbox.cif.g08.bks.cpg/sg65_35_cif.got.tgz:69600.got - 2010.06.03 17:01:31.
