data_PCOD9491059
_publ_section_title
;
Structure prediction by ZEFSAII (Michael W. Deem and Ramdas Pophale) SiO2 
 PCOD9491059
Probable space group: C M M M
;
_chemical_formula_sum "Si O2"
_cell_formula_units_Z 84
_cell_length_a 11.664554
_cell_length_b 14.273061
_cell_length_c 23.684086
_cell_angle_alpha 90.000000
_cell_angle_beta 90.000000
_cell_angle_gamma 90.000000
_cell_volume 3943.137207
_symmetry_space_group_name_H-M "C M M M"
_symmetry_group_IT_number 65
_symmetry_cell_setting 'orthorhombic'
loop_
_space_group_symop_operation_xyz
x,y,z
-x,-y,z
x,-y,-z
-x,y,-z
-x,-y,-z
x,y,-z
-x,y,z
x,-y,z
1/2+x,1/2+y,z
1/2-x,1/2-y,z
1/2+x,1/2-y,-z
1/2-x,1/2+y,-z
1/2-x,1/2-y,-z
1/2+x,1/2+y,-z
1/2-x,1/2+y,z
1/2+x,1/2-y,z
loop_
_atom_site_type_symbol
_atom_site_label
_atom_site_fract_x
_atom_site_fract_y
_atom_site_fract_z
Si Si1 0.000000 0.110660 0.937251
Si Si2 0.000000 0.000000 0.707742
Si Si3 0.782130 0.138184 0.266695
Si Si4 0.133376 0.500000 0.334061
Si Si5 0.364483 0.000000 0.064228
Si Si6 0.725073 0.357835 0.864725
Si Si7 0.800859 0.000000 0.434371
Si Si8 0.873621 0.791185 0.567981
O O1 0.890537 0.131530 0.899752
O O2 0.000000 0.000000 0.944691
O O3 0.000000 0.154866 0.000000
O O4 0.897471 0.915369 0.710244
O O5 0.750000 0.250000 0.270639
O O6 0.783776 0.111809 0.200179
O O7 0.679547 0.088519 0.299614
O O8 0.191311 0.500000 0.395083
O O9 0.000000 0.500000 0.338941
O O10 0.319826 0.912473 0.099784
O O11 0.500000 0.000000 0.061106
O O12 0.317192 0.000000 0.000000
O O13 0.750000 0.250000 0.862868
O O14 0.868121 0.096413 0.423448
O O15 0.769296 0.000000 0.500000
O O16 0.873838 0.774654 0.500000
O O17 0.750000 0.750000 0.588689
O O18 0.000000 0.757490 0.589041
#
# Coordination Sequence:
#
# PCOD9491059 Si02
#       8
#     8   4  16   8   8  16   8  16
#     4  11  23  39  64  93 130 180 227 285 343 402
#     4  10  20  42  72 104 142 182 228 290 370 442
#     4  10  24  44  71 104 135 180 237 301 361 433
#     4  11  26  45  67 101 137 179 221 293 375 429
#     4  11  24  40  57  85 131 175 213 272 339 406
#     4  11  24  41  65  96 126 171 231 281 344 415
#     4  10  22  42  66  96 135 180 231 276 343 442
#     4   9  18  35  61  94 131 175 226 280 335 404
#
# _framework density 21.302834000000001
#
# number of rings (size 3 to 8) (size 9 to 14) (size 15 to 20)
#    0.000    1.714    0.952    2.571    4.000    5.905 
#    6.857    1.905    0.000    0.000    0.000    0.000 
#    0.000    0.000    0.000    0.000    0.000    0.000 
#
# Total GULP energy -233840.975274 kJ/mol
# GULP energy per Si atom -5567.642268 kJ/mol
# Density = 2.125435 g / cm^3
# Si number density = 21.302834 Si / 1000 Ang^3
#
#
#
# Elastic Constant Matrix: (Units=GPa)
#
#
# Indices 1 2 3 4 5 6 
#
# 1 189.6976 39.1413 54.6532 0.0000 0.0000 0.0000
# 2 39.1413 119.0011 22.8433 0.0000 0.0000 0.0000
# 3 54.6532 22.8433 142.8124 0.0000 0.0000 0.0000
# 4 0.0000 0.0000 0.0000 18.6566 0.0000 0.0000
# 5 0.0000 0.0000 0.0000 0.0000 14.0056 0.0000
# 6 0.0000 0.0000 0.0000 0.0000 0.0000 12.1909
#
#
#
# Elastic Compliance Matrix: (Units=1/GPa)
#
#
# Indices 1 2 3 4 5 6 
#
# 1 0.006220 -0.001639 -0.002118 0.000000 0.000000 0.000000
# 2 -0.001639 0.009101 -0.000828 0.000000 0.000000 0.000000
# 3 -0.002118 -0.000828 0.007945 0.000000 0.000000 0.000000
# 4 0.000000 0.000000 0.000000 0.053600 0.000000 0.000000
# 5 0.000000 0.000000 0.000000 0.000000 0.071400 0.000000
# 6 0.000000 0.000000 0.000000 0.000000 0.000000 0.082028
#
#
# Mechanical properties :
#
#
# Convention : Reuss Voigt Hill
#
# Bulk Modulus (GPa) = 70.94691 76.08742 73.51716
# Shear Modulus (GPa) = 20.47793 31.29553 25.88673
#
# Velocity S-wave (km/s) = 3.10381 3.83701 3.48972
# Velocity P-wave (km/s) = 6.79861 7.44478 7.12902
#
# Compressibility (1/GPa) = 0.01409505
#
# Stress axis : x y z
#
# Youngs Moduli (GPa) = 160.77061 109.87203 125.86037
#
# Poissons Ratio (x) = 0.18011 0.26659
# Poissons Ratio (y) = 0.26355 0.10427
# Poissons Ratio (z) = 0.34054 0.09103
#
# Static dielectric constant tensor:
#      x y z
#    x 1.807110 0.000000 0.000000 
#    y 0.000000 1.805800 0.000000 
#    z 0.000000 0.000000 1.832270 
# 
# From -- ./inp_files/68978.got.cif
#   From: 2010.05.17/outbox.cif.g08.bks.cpg/sg65_35_cif.got.tgz:68978.got - 2010.06.03 17:01:31.
