data_PCOD9491840
_publ_section_title
;
Structure prediction by ZEFSAII (Michael W. Deem and Ramdas Pophale) SiO2 
 PCOD9491840
Probable space group: C M M M
;
_chemical_formula_sum "Si O2"
_cell_formula_units_Z 90
_cell_length_a 20.547093
_cell_length_b 25.055660
_cell_length_c 8.905172
_cell_angle_alpha 90.000000
_cell_angle_beta 90.000000
_cell_angle_gamma 90.000000
_cell_volume 4584.569342
_symmetry_space_group_name_H-M "C M M M"
_symmetry_group_IT_number 65
_symmetry_cell_setting 'orthorhombic'
loop_
_space_group_symop_operation_xyz
x,y,z
-x,-y,z
x,-y,-z
-x,y,-z
-x,-y,-z
x,y,-z
-x,y,z
x,-y,z
1/2+x,1/2+y,z
1/2-x,1/2-y,z
1/2+x,1/2-y,-z
1/2-x,1/2+y,-z
1/2-x,1/2-y,-z
1/2+x,1/2+y,-z
1/2-x,1/2+y,z
1/2+x,1/2-y,z
loop_
_atom_site_type_symbol
_atom_site_label
_atom_site_fract_x
_atom_site_fract_y
_atom_site_fract_z
Si Si1 0.429545 0.401432 0.822668
Si Si2 0.386735 0.292529 0.321697
Si Si3 0.211057 0.940543 0.177831
Si Si4 0.243500 0.334064 0.677036
Si Si5 0.500000 0.887685 0.665911
Si Si6 0.500000 0.000000 0.500000
Si Si7 0.105074 0.316713 0.177688
O O1 0.500000 0.425668 0.789199
O O2 0.420127 0.346990 0.731386
O O3 0.366637 0.437553 0.796581
O O4 0.427973 0.387968 0.000000
O O5 0.392064 0.286090 0.500000
O O6 0.309438 0.301413 0.286087
O O7 0.415566 0.241168 0.239798
O O8 0.240966 0.895327 0.281886
O O9 0.235263 0.000000 0.208269
O O10 0.222282 0.928568 0.000000
O O11 0.230516 0.327038 0.500000
O O12 0.179925 0.320409 0.770759
O O13 0.500000 0.861917 0.500000
O O14 0.500000 0.951084 0.629489
O O15 0.437142 0.864386 0.750799
O O16 0.098973 0.318560 0.000000
#
# Coordination Sequence:
#
# PCOD9491840 Si02
#       7
#    16  16  16  16   8   2  16
#     4   9  18  32  51  78 115 157 198 243 295 348
#     4  10  21  36  57  85 123 163 199 241 289 352
#     4   9  18  34  54  79 111 149 199 253 299 347
#     4  10  21  38  58  85 119 160 202 243 298 356
#     4  10  23  47  71  93 117 150 197 242 290 352
#     4   8  24  52  78  88 116 156 198 244 304 356
#     4  12  24  39  63  95 124 152 190 238 297 360
#
# _framework density 19.631069
#
# number of rings (size 3 to 8) (size 9 to 14) (size 15 to 20)
#    0.267    1.778    0.000    3.467    1.244    5.333 
#    1.600    2.667    0.000    0.000    0.000    4.978 
#    0.000    0.000    0.000    0.000    0.000    0.000 
#
# Total GULP energy -250871.845460 kJ/mol
# GULP energy per Si atom -5574.929899 kJ/mol
# Density = 1.958639 g / cm^3
# Si number density = 19.631069 Si / 1000 Ang^3
#
#
#
# Elastic Constant Matrix: (Units=GPa)
#
#
# Indices 1 2 3 4 5 6 
#
# 1 39.9081 6.4338 21.6260 0.0000 0.0000 0.0000
# 2 6.4338 110.5878 41.1691 0.0000 0.0000 0.0000
# 3 21.6260 41.1691 74.6790 0.0000 0.0000 0.0000
# 4 0.0000 0.0000 0.0000 21.1472 0.0000 0.0000
# 5 0.0000 0.0000 0.0000 0.0000 23.7233 0.0000
# 6 0.0000 0.0000 0.0000 0.0000 0.0000 4.5892
#
#
#
# Elastic Compliance Matrix: (Units=1/GPa)
#
#
# Indices 1 2 3 4 5 6 
#
# 1 0.030027 0.001875 -0.009729 0.000000 0.000000 0.000000
# 2 0.001875 0.011495 -0.006880 0.000000 0.000000 0.000000
# 3 -0.009729 -0.006880 0.020001 0.000000 0.000000 0.000000
# 4 0.000000 0.000000 0.000000 0.047288 0.000000 0.000000
# 5 0.000000 0.000000 0.000000 0.000000 0.042153 0.000000
# 6 0.000000 0.000000 0.000000 0.000000 0.000000 0.217904
#
#
# Mechanical properties :
#
#
# Convention : Reuss Voigt Hill
#
# Bulk Modulus (GPa) = 31.19640 40.40365 35.80003
# Shear Modulus (GPa) = 12.22433 20.28834 16.25634
#
# Velocity S-wave (km/s) = 2.49811 3.21827 2.88078
# Velocity P-wave (km/s) = 4.92408 5.86820 5.41675
#
# Compressibility (1/GPa) = 0.03205498
#
# Stress axis : x y z
#
# Youngs Moduli (GPa) = 33.30288 86.99686 49.99815
#
# Poissons Ratio (x) = -0.16312 0.48644
# Poissons Ratio (y) = -0.06244 0.34398
# Poissons Ratio (z) = 0.32401 0.59852
#
# Static dielectric constant tensor:
#      x y z
#    x 1.725810 0.000000 0.000000 
#    y 0.000000 1.675900 0.000000 
#    z 0.000000 0.000000 1.658580 
# 
# From -- ./inp_files/11875.got.cif
#   From: 2010.05.17/outbox.cif.g08.bks.cpg/sg65_6_cif.got.tgz:11875.got - 2010.06.03 17:01:31.
