data_PCOD9491512
_publ_section_title
;
Structure prediction by ZEFSAII (Michael W. Deem and Ramdas Pophale) SiO2 
 PCOD9491512
Probable space group: C M M M
;
_chemical_formula_sum "Si O2"
_cell_formula_units_Z 72
_cell_length_a 31.919703
_cell_length_b 8.767059
_cell_length_c 14.525535
_cell_angle_alpha 90.000000
_cell_angle_beta 90.000000
_cell_angle_gamma 90.000000
_cell_volume 4064.853596
_symmetry_space_group_name_H-M "C M M M"
_symmetry_group_IT_number 65
_symmetry_cell_setting 'orthorhombic'
loop_
_space_group_symop_operation_xyz
x,y,z
-x,-y,z
x,-y,-z
-x,y,-z
-x,-y,-z
x,y,-z
-x,y,z
x,-y,z
1/2+x,1/2+y,z
1/2-x,1/2-y,z
1/2+x,1/2-y,-z
1/2-x,1/2+y,-z
1/2-x,1/2-y,-z
1/2+x,1/2+y,-z
1/2-x,1/2+y,z
1/2+x,1/2-y,z
loop_
_atom_site_type_symbol
_atom_site_label
_atom_site_fract_x
_atom_site_fract_y
_atom_site_fract_z
Si Si1 0.372140 0.183129 0.278778
Si Si2 0.588794 0.682070 0.892538
Si Si3 0.500000 0.827188 0.111672
Si Si4 0.546420 0.185307 0.607419
Si Si5 0.795655 0.817432 0.607340
O O1 0.377961 0.242688 0.175375
O O2 0.413813 0.236455 0.334120
O O3 0.331514 0.248235 0.328913
O O4 0.371095 0.000000 0.280102
O O5 0.589682 0.500000 0.884883
O O6 0.542828 0.743142 0.863872
O O7 0.595086 0.722767 0.000000
O O8 0.500000 0.000000 0.148429
O O9 0.500000 0.834091 0.000000
O O10 0.551052 0.228561 0.500000
O O11 0.500000 0.235621 0.639256
O O12 0.546375 0.000000 0.610300
O O13 0.804526 0.778815 0.500000
O O14 0.750000 0.750000 0.629542
O O15 0.794738 0.000000 0.615705
#
# Coordination Sequence:
#
# PCOD9491512 Si02
#       5
#    16  16   8  16  16
#     4  11  21  32  54  83 110 143 185 230 277 330
#     4  10  21  36  52  73 106 147 188 232 282 331
#     4   9  17  31  51  73  98 133 182 235 281 325
#     4   8  15  28  45  69 104 142 178 216 258 310
#     4  10  21  38  60  85 114 145 180 225 276 330
#
# _framework density 17.712814999999999
#
# number of rings (size 3 to 8) (size 9 to 14) (size 15 to 20)
#    0.000    2.333    0.000    3.667    1.556    4.889 
#    0.000    0.000    0.000    0.667    0.000    4.667 
#    0.000    0.000    0.000    0.000    0.000    0.000 
#
# Total GULP energy -200987.206522 kJ/mol
# GULP energy per Si atom -5582.977959 kJ/mol
# Density = 1.767250 g / cm^3
# Si number density = 17.712815 Si / 1000 Ang^3
#
#
#
# Elastic Constant Matrix: (Units=GPa)
#
#
# Indices 1 2 3 4 5 6 
#
# 1 140.7506 54.1687 92.5077 0.0000 0.0000 0.0000
# 2 54.1687 58.2935 47.8758 0.0000 0.0000 0.0000
# 3 92.5077 47.8758 103.9979 0.0000 0.0000 0.0000
# 4 0.0000 0.0000 0.0000 22.0305 0.0000 0.0000
# 5 0.0000 0.0000 0.0000 0.0000 26.1029 0.0000
# 6 0.0000 0.0000 0.0000 0.0000 0.0000 28.0748
#
#
#
# Elastic Compliance Matrix: (Units=1/GPa)
#
#
# Indices 1 2 3 4 5 6 
#
# 1 0.018260 -0.005834 -0.013557 0.000000 0.000000 0.000000
# 2 -0.005834 0.029447 -0.008367 0.000000 0.000000 0.000000
# 3 -0.013557 -0.008367 0.025527 0.000000 0.000000 0.000000
# 4 0.000000 0.000000 0.000000 0.045392 0.000000 0.000000
# 5 0.000000 0.000000 0.000000 0.000000 0.038310 0.000000
# 6 0.000000 0.000000 0.000000 0.000000 0.000000 0.035619
#
#
# Mechanical properties :
#
#
# Convention : Reuss Voigt Hill
#
# Bulk Modulus (GPa) = 56.43855 76.90516 66.67185
# Shear Modulus (GPa) = 19.68681 22.47430 21.08056
#
# Velocity S-wave (km/s) = 3.33745 3.56591 3.45357
# Velocity P-wave (km/s) = 6.83986 7.77601 7.32291
#
# Compressibility (1/GPa) = 0.01771839
#
# Stress axis : x y z
#
# Youngs Moduli (GPa) = 54.76321 33.95903 39.17463
#
# Poissons Ratio (x) = 0.19811 0.53110
# Poissons Ratio (y) = 0.31948 0.32777
# Poissons Ratio (z) = 0.74244 0.28413
#
# Static dielectric constant tensor:
#      x y z
#    x 1.577890 0.000000 0.000000 
#    y 0.000000 1.591470 0.000000 
#    z 0.000000 0.000000 1.628150 
# 
# From -- ./inp_files/36524.got.cif
#   From: 2010.05.17/outbox.cif.g08.bks.cpg/sg65_19_cif.got.tgz:36524.got - 2010.06.03 17:01:31.
