data_PCOD9491637
_publ_section_title
;
Structure prediction by ZEFSAII (Michael W. Deem and Ramdas Pophale) SiO2 
 PCOD9491637
Probable space group: C M M M
;
_chemical_formula_sum "Si O2"
_cell_formula_units_Z 72
_cell_length_a 18.206119
_cell_length_b 9.098954
_cell_length_c 24.030693
_cell_angle_alpha 90.000000
_cell_angle_beta 90.000000
_cell_angle_gamma 90.000000
_cell_volume 3980.843842
_symmetry_space_group_name_H-M "C M M M"
_symmetry_group_IT_number 65
_symmetry_cell_setting 'orthorhombic'
loop_
_space_group_symop_operation_xyz
x,y,z
-x,-y,z
x,-y,-z
-x,y,-z
-x,-y,-z
x,y,-z
-x,y,z
x,-y,z
1/2+x,1/2+y,z
1/2-x,1/2-y,z
1/2+x,1/2-y,-z
1/2-x,1/2+y,-z
1/2-x,1/2-y,-z
1/2+x,1/2+y,-z
1/2-x,1/2+y,z
1/2+x,1/2-y,z
loop_
_atom_site_type_symbol
_atom_site_label
_atom_site_fract_x
_atom_site_fract_y
_atom_site_fract_z
Si Si1 0.328908 0.823384 0.784784
Si Si2 0.585957 0.823288 0.673916
Si Si3 0.329745 0.324621 0.000000
Si Si4 0.412860 0.825361 0.101390
Si Si5 0.589097 0.672834 0.561060
O O1 0.250000 0.750000 0.790866
O O2 0.368241 0.775502 0.727677
O O3 0.379032 0.790466 0.838326
O O4 0.320750 0.000000 0.782512
O O5 0.500000 0.781484 0.680916
O O6 0.614398 0.757318 0.615848
O O7 0.588465 0.000000 0.670774
O O8 0.250000 0.250000 0.000000
O O9 0.373300 0.268069 0.945941
O O10 0.323137 0.500000 0.000000
O O11 0.500000 0.800424 0.101030
O O12 0.400490 0.000000 0.090735
O O13 0.614759 0.725596 0.500000
O O14 0.500000 0.685501 0.560626
O O15 0.606231 0.500000 0.565677
#
# Coordination Sequence:
#
# PCOD9491637 Si02
#       5
#    16  16   8  16  16
#     4  10  21  36  54  77 105 138 175 215 260 312
#     4   9  17  30  49  73 100 130 167 211 257 306
#     4  12  25  40  59  85 117 149 183 222 263 310
#     4  10  21  39  62  85 111 144 180 219 267 319
#     4   8  14  25  42  67  99 131 163 203 253 307
#
# _framework density 18.086618000000001
#
# number of rings (size 3 to 8) (size 9 to 14) (size 15 to 20)
#    0.000    2.444    0.000    3.333    0.000    8.444 
#    0.000    2.222    0.000    4.667    0.000    0.000 
#    0.000    0.000    0.000    0.000    0.000    0.000 
#
# Total GULP energy -200845.098163 kJ/mol
# GULP energy per Si atom -5579.030505 kJ/mol
# Density = 1.804545 g / cm^3
# Si number density = 18.086618 Si / 1000 Ang^3
#
#
#
# Elastic Constant Matrix: (Units=GPa)
#
#
# Indices 1 2 3 4 5 6 
#
# 1 94.0556 52.3766 74.4067 0.0000 0.0000 0.0000
# 2 52.3766 49.3355 75.1725 0.0000 0.0000 0.0000
# 3 74.4067 75.1725 184.2329 0.0000 0.0000 0.0000
# 4 0.0000 0.0000 0.0000 -39.1454 0.0000 0.0000
# 5 0.0000 0.0000 0.0000 0.0000 -21.6998 0.0000
# 6 0.0000 0.0000 0.0000 0.0000 0.0000 24.4181
#
#
#
# Elastic Compliance Matrix: (Units=1/GPa)
#
#
# Indices 1 2 3 4 5 6 
#
# 1 0.026294 -0.031018 0.002037 0.000000 0.000000 0.000000
# 2 -0.031018 0.090174 -0.024266 0.000000 0.000000 0.000000
# 3 0.002037 -0.024266 0.014507 0.000000 0.000000 0.000000
# 4 0.000000 0.000000 0.000000 -0.025546 0.000000 0.000000
# 5 0.000000 0.000000 0.000000 0.000000 -0.046083 0.000000
# 6 0.000000 0.000000 0.000000 0.000000 0.000000 0.040953
#
#
# Mechanical properties :
#
#
# Convention : Reuss Voigt Hill
#
# Bulk Modulus (GPa) = 40.85075 81.28173 61.06624
# Shear Modulus (GPa) = 23.26088 1.09248 12.17668
#
# Velocity S-wave (km/s) = 3.59009 0.77803 2.59751
# Velocity P-wave (km/s) = 6.31032 6.77089 6.54466
#
# Compressibility (1/GPa) = 0.02447935
#
# Stress axis : x y z
#
# Youngs Moduli (GPa) = 38.03199 11.08964 68.93455
#
# Poissons Ratio (x) = 0.34398 -0.14043
# Poissons Ratio (y) = 1.17969 1.67278
# Poissons Ratio (z) = -0.07748 0.26910
#
# Static dielectric constant tensor:
#      x y z
#    x 1.595970 0.000000 0.000000 
#    y 0.000000 1.605570 0.000000 
#    z 0.000000 0.000000 1.624760 
# 
# From -- ./inp_files/67120.got.cif
#   From: 2010.05.17/outbox.cif.g08.bks.cpg/sg65_34_cif.got.tgz:67120.got - 2010.06.03 17:01:31.
