data_PCOD9491574
_publ_section_title
;
Structure prediction by ZEFSAII (Michael W. Deem and Ramdas Pophale) SiO2 
 PCOD9491574
Probable space group: C M M M
;
_chemical_formula_sum "Si O2"
_cell_formula_units_Z 104
_cell_length_a 18.838438
_cell_length_b 8.725186
_cell_length_c 34.828436
_cell_angle_alpha 90.000000
_cell_angle_beta 90.000000
_cell_angle_gamma 90.000000
_cell_volume 5724.710861
_symmetry_space_group_name_H-M "C M M M"
_symmetry_group_IT_number 65
_symmetry_cell_setting 'orthorhombic'
loop_
_space_group_symop_operation_xyz
x,y,z
-x,-y,z
x,-y,-z
-x,y,-z
-x,-y,-z
x,y,-z
-x,y,z
x,-y,z
1/2+x,1/2+y,z
1/2-x,1/2-y,z
1/2+x,1/2-y,-z
1/2-x,1/2+y,-z
1/2-x,1/2-y,-z
1/2+x,1/2+y,-z
1/2-x,1/2+y,z
1/2+x,1/2-y,z
loop_
_atom_site_type_symbol
_atom_site_label
_atom_site_fract_x
_atom_site_fract_y
_atom_site_fract_z
Si Si1 0.170930 0.683383 0.957099
Si Si2 0.582537 0.184611 0.805150
Si Si3 0.170308 0.815258 0.500000
Si Si4 0.082605 0.814457 0.341168
Si Si5 0.329204 0.815740 0.730105
Si Si6 0.829791 0.814705 0.583982
Si Si7 0.083454 0.817468 0.113182
O O1 0.173803 0.500000 0.954776
O O2 0.250000 0.750000 0.953710
O O3 0.124197 0.747543 0.922729
O O4 0.144139 0.725230 0.000000
O O5 0.500000 0.231385 0.799015
O O6 0.630882 0.231495 0.769360
O O7 0.607593 0.252264 0.845690
O O8 0.583774 0.000000 0.807621
O O9 0.250000 0.750000 0.500000
O O10 0.140725 0.768752 0.458284
O O11 0.172274 0.000000 0.500000
O O12 0.125454 0.744638 0.305730
O O13 0.120545 0.767051 0.380875
O O14 0.000000 0.769510 0.340287
O O15 0.085899 0.000000 0.338872
O O16 0.250000 0.750000 0.728711
O O17 0.326537 0.000000 0.728920
O O18 0.750000 0.750000 0.588363
O O19 0.825132 0.000000 0.584724
O O20 0.000000 0.779446 0.109936
O O21 0.091475 0.000000 0.113142
#
# Coordination Sequence:
#
# PCOD9491574 Si02
#       7
#    16  16   8  16  16  16  16
#     4  10  21  37  57  80 108 144 184 226 272 319
#     4   9  19  37  58  78 104 139 177 217 261 311
#     4   8  14  26  45  69  97 129 167 210 255 304
#     4  10  21  36  53  75 105 139 174 215 264 315
#     4  11  23  38  57  81 107 137 175 217 262 312
#     4   9  17  30  49  73 100 132 171 214 259 307
#     4  10  21  36  56  83 113 145 180 218 262 313
#
# _framework density 18.166855999999999
#
# number of rings (size 3 to 8) (size 9 to 14) (size 15 to 20)
#    0.000    2.308    0.000    2.308    0.000    6.769 
#    0.000    5.000    0.000    2.308    0.000    0.000 
#    0.000    7.385    0.000    0.000    0.000    0.000 
#
# Total GULP energy -290127.356421 kJ/mol
# GULP energy per Si atom -5579.372239 kJ/mol
# Density = 1.812551 g / cm^3
# Si number density = 18.166856 Si / 1000 Ang^3
#
#
#
# Elastic Constant Matrix: (Units=GPa)
#
#
# Indices 1 2 3 4 5 6 
#
# 1 106.9721 33.3735 109.8127 0.0000 0.0000 0.0000
# 2 33.3735 16.3618 51.0490 0.0000 0.0000 0.0000
# 3 109.8127 51.0490 233.2266 0.0000 0.0000 0.0000
# 4 0.0000 0.0000 0.0000 25.0373 0.0000 0.0000
# 5 0.0000 0.0000 0.0000 0.0000 51.1249 0.0000
# 6 0.0000 0.0000 0.0000 0.0000 0.0000 21.8436
#
#
#
# Elastic Compliance Matrix: (Units=1/GPa)
#
#
# Indices 1 2 3 4 5 6 
#
# 1 0.025999 -0.046793 -0.001999 0.000000 0.000000 0.000000
# 2 -0.046793 0.276964 -0.038590 0.000000 0.000000 0.000000
# 3 -0.001999 -0.038590 0.013676 0.000000 0.000000 0.000000
# 4 0.000000 0.000000 0.000000 0.039940 0.000000 0.000000
# 5 0.000000 0.000000 0.000000 0.000000 0.019560 0.000000
# 6 0.000000 0.000000 0.000000 0.000000 0.000000 0.045780
#
#
# Mechanical properties :
#
#
# Convention : Reuss Voigt Hill
#
# Bulk Modulus (GPa) = 7.04853 82.78120 44.91486
# Shear Modulus (GPa) = 7.76427 30.42285 19.09356
#
# Velocity S-wave (km/s) = 2.06958 4.09667 3.24545
# Velocity P-wave (km/s) = 3.09825 8.24882 6.23066
#
# Compressibility (1/GPa) = 0.14187357
#
# Stress axis : x y z
#
# Youngs Moduli (GPa) = 38.46240 3.61058 73.12195
#
# Poissons Ratio (x) = 0.16895 0.14621
# Poissons Ratio (y) = 1.79977 2.82179
# Poissons Ratio (z) = 0.07690 0.13933
#
# Static dielectric constant tensor:
#      x y z
#    x 1.589060 0.000000 0.000000 
#    y 0.000000 1.612100 0.000000 
#    z 0.000000 0.000000 1.633290 
# 
# From -- ./inp_files/75493.got.cif
#   From: 2010.05.17/outbox.cif.g08.bks.cpg/sg65_38_cif.got.tgz:75493.got - 2010.06.03 17:01:31.
