data_PCOD9491307
_publ_section_title
;
Structure prediction by ZEFSAII (Michael W. Deem and Ramdas Pophale) SiO2 
 PCOD9491307
Probable space group: C M M M
;
_chemical_formula_sum "Si O2"
_cell_formula_units_Z 96
_cell_length_a 7.633046
_cell_length_b 25.959395
_cell_length_c 19.436506
_cell_angle_alpha 90.000000
_cell_angle_beta 90.000000
_cell_angle_gamma 90.000000
_cell_volume 3851.329206
_symmetry_space_group_name_H-M "C M M M"
_symmetry_group_IT_number 65
_symmetry_cell_setting 'orthorhombic'
loop_
_space_group_symop_operation_xyz
x,y,z
-x,-y,z
x,-y,-z
-x,y,-z
-x,-y,-z
x,y,-z
-x,y,z
x,-y,z
1/2+x,1/2+y,z
1/2-x,1/2-y,z
1/2+x,1/2-y,-z
1/2-x,1/2+y,-z
1/2-x,1/2-y,-z
1/2+x,1/2+y,-z
1/2-x,1/2+y,z
1/2+x,1/2-y,z
loop_
_atom_site_type_symbol
_atom_site_label
_atom_site_fract_x
_atom_site_fract_y
_atom_site_fract_z
Si Si1 0.799361 0.171260 0.422710
Si Si2 0.712207 0.585730 0.074182
Si Si3 0.705823 0.944430 0.226525
Si Si4 0.206456 0.168524 0.275837
Si Si5 0.790625 0.194737 0.873651
Si Si6 0.299296 0.055966 0.418030
O O1 0.722627 0.180840 0.500000
O O2 0.716912 0.187344 0.349231
O O3 0.801409 0.109323 0.410665
O O4 0.000000 0.189743 0.425924
O O5 0.500000 0.583261 0.074300
O O6 0.771074 0.559846 0.144399
O O7 0.768249 0.645334 0.083721
O O8 0.772351 0.565974 0.000000
O O9 0.500000 0.944026 0.240419
O O10 0.779911 0.893276 0.262194
O O11 0.779884 0.000000 0.246998
O O12 0.281472 0.191428 0.204779
O O13 0.000000 0.180627 0.279120
O O14 0.750000 0.250000 0.904125
O O15 0.000000 0.189658 0.868291
O O16 0.310966 0.051717 0.500000
O O17 0.500000 0.062355 0.392692
O O18 0.232039 0.000000 0.394323
#
# Coordination Sequence:
#
# PCOD9491307 Si02
#       6
#    16  16  16  16  16  16
#     4   9  17  29  46  67  89 117 157 205 255 301
#     4   9  19  36  56  79 108 139 170 203 241 293
#     4  10  21  35  51  74 104 138 177 217 251 285
#     4   9  19  35  52  71  98 132 170 211 254 306
#     4   9  18  33  53  76 101 130 165 204 247 297
#     4   8  14  24  36  52  79 114 147 181 228 285
#
# _framework density 24.926458
#
# number of rings (size 3 to 8) (size 9 to 14) (size 15 to 20)
#    0.000    3.000    0.000    2.000    0.000    6.667 
#    0.000    6.667    0.000    0.500    0.000    0.000 
#    0.000    0.000    0.000    0.000    0.000    0.333 
#
# Total GULP energy -267695.009075 kJ/mol
# GULP energy per Si atom -5576.979356 kJ/mol
# Density = 2.486972 g / cm^3
# Si number density = 24.926458 Si / 1000 Ang^3
#
#
#
# Elastic Constant Matrix: (Units=GPa)
#
#
# Indices 1 2 3 4 5 6 
#
# 1 51.7058 -10.1658 7.3912 0.0000 0.0000 0.0000
# 2 -10.1658 84.9646 -0.0147 0.0000 0.0000 0.0000
# 3 7.3912 -0.0147 207.0636 0.0000 0.0000 0.0000
# 4 0.0000 0.0000 0.0000 -123.2661 0.0000 0.0000
# 5 0.0000 0.0000 0.0000 0.0000 97.0255 0.0000
# 6 0.0000 0.0000 0.0000 0.0000 0.0000 13.2160
#
#
#
# Elastic Compliance Matrix: (Units=1/GPa)
#
#
# Indices 1 2 3 4 5 6 
#
# 1 0.019910 0.002382 -0.000711 0.000000 0.000000 0.000000
# 2 0.002382 0.012055 -0.000084 0.000000 0.000000 0.000000
# 3 -0.000711 -0.000084 0.004855 0.000000 0.000000 0.000000
# 4 0.000000 0.000000 0.000000 -0.008113 0.000000 0.000000
# 5 0.000000 0.000000 0.000000 0.000000 0.010307 0.000000
# 6 0.000000 0.000000 0.000000 0.000000 0.000000 0.075666
#
#
# Mechanical properties :
#
#
# Convention : Reuss Voigt Hill
#
# Bulk Modulus (GPa) = 25.00360 37.57282 31.28821
# Shear Modulus (GPa) = 40.05256 20.49663 30.27460
#
# Velocity S-wave (km/s) = 4.01288 2.87066 3.48883
# Velocity P-wave (km/s) = 5.61459 5.10821 5.36737
#
# Compressibility (1/GPa) = 0.03999424
#
# Stress axis : x y z
#
# Youngs Moduli (GPa) = 50.22575 82.95584 205.98205
#
# Poissons Ratio (x) = -0.19761 0.14636
# Poissons Ratio (y) = -0.11964 0.01734
# Poissons Ratio (z) = 0.03569 0.00698
#
# Static dielectric constant tensor:
#      x y z
#    x 1.923690 0.000000 0.000000 
#    y 0.000000 1.977930 0.000000 
#    z 0.000000 0.000000 2.020390 
# 
# From -- ./inp_files/60297.got.cif
#   From: 2010.05.17/outbox.cif.g08.bks.cpg/sg65_31_cif.got.tgz:60297.got - 2010.06.03 17:01:31.
