data_PCOD9491981
_publ_section_title
;
Structure prediction by ZEFSAII (Michael W. Deem and Ramdas Pophale) SiO2 
 PCOD9491981
Probable space group: C M M M
;
_chemical_formula_sum "Si O2"
_cell_formula_units_Z 72
_cell_length_a 21.435358
_cell_length_b 8.552349
_cell_length_c 20.855454
_cell_angle_alpha 90.000000
_cell_angle_beta 90.000000
_cell_angle_gamma 90.000000
_cell_volume 3823.277356
_symmetry_space_group_name_H-M "C M M M"
_symmetry_group_IT_number 65
_symmetry_cell_setting 'orthorhombic'
loop_
_space_group_symop_operation_xyz
x,y,z
-x,-y,z
x,-y,-z
-x,y,-z
-x,-y,-z
x,y,-z
-x,y,z
x,-y,z
1/2+x,1/2+y,z
1/2-x,1/2-y,z
1/2+x,1/2-y,-z
1/2-x,1/2+y,-z
1/2-x,1/2-y,-z
1/2+x,1/2+y,-z
1/2-x,1/2+y,z
1/2+x,1/2-y,z
loop_
_atom_site_type_symbol
_atom_site_label
_atom_site_fract_x
_atom_site_fract_y
_atom_site_fract_z
Si Si1 0.075547 0.683612 0.068795
Si Si2 0.133806 0.813737 0.426409
Si Si3 0.500000 0.175983 0.577327
Si Si4 0.315185 0.813862 0.300026
Si Si5 0.428037 0.191602 0.789633
O O1 0.093307 0.500000 0.068396
O O2 0.092051 0.746882 0.138916
O O3 0.000000 0.687666 0.068556
O O4 0.096532 0.752257 0.000000
O O5 0.144691 0.760629 0.500000
O O6 0.177543 0.738515 0.373536
O O7 0.063459 0.764360 0.407171
O O8 0.139395 0.000000 0.425068
O O9 0.500000 0.164222 0.500000
O O10 0.500000 0.000000 0.604802
O O11 0.250000 0.750000 0.273742
O O12 0.376197 0.757844 0.261170
O O13 0.314397 0.000000 0.297119
O O14 0.500000 0.239211 0.776341
O O15 0.428799 0.000000 0.790735
#
# Coordination Sequence:
#
# PCOD9491981 Si02
#       5
#    16  16   8  16  16
#     4   7   9  16  35  65  99 129 158 201 256 304
#     4  10  21  37  56  78 104 133 170 219 269 315
#     4   9  17  31  53  81 109 135 164 201 252 311
#     4  11  23  37  54  74 103 140 176 218 268 321
#     4   8  15  28  47  73 101 131 171 215 258 306
#
# _framework density 18.832011999999999
#
# number of rings (size 3 to 8) (size 9 to 14) (size 15 to 20)
#    0.000    3.000    0.000    3.667    1.556    3.111 
#    0.000    0.000    0.000    0.667    0.000    0.000 
#    0.000    2.667    0.000   22.222    0.000   18.000 
#
# Total GULP energy -200478.715196 kJ/mol
# GULP energy per Si atom -5568.853200 kJ/mol
# Density = 1.878915 g / cm^3
# Si number density = 18.832012 Si / 1000 Ang^3
#
#
#
# Elastic Constant Matrix: (Units=GPa)
#
#
# Indices 1 2 3 4 5 6 
#
# 1 97.3544 14.1487 63.1093 0.0000 0.0000 0.0000
# 2 14.1487 22.9031 19.0908 0.0000 0.0000 0.0000
# 3 63.1093 19.0908 127.0823 0.0000 0.0000 0.0000
# 4 0.0000 0.0000 0.0000 1.5330 0.0000 0.0000
# 5 0.0000 0.0000 0.0000 0.0000 5.0362 0.0000
# 6 0.0000 0.0000 0.0000 0.0000 0.0000 22.6999
#
#
#
# Elastic Compliance Matrix: (Units=1/GPa)
#
#
# Indices 1 2 3 4 5 6 
#
# 1 0.015402 -0.003589 -0.007110 0.000000 0.000000 0.000000
# 2 -0.003589 0.050748 -0.005841 0.000000 0.000000 0.000000
# 3 -0.007110 -0.005841 0.012277 0.000000 0.000000 0.000000
# 4 0.000000 0.000000 0.000000 0.652315 0.000000 0.000000
# 5 0.000000 0.000000 0.000000 0.000000 0.198563 0.000000
# 6 0.000000 0.000000 0.000000 0.000000 0.000000 0.044053
#
#
# Mechanical properties :
#
#
# Convention : Reuss Voigt Hill
#
# Bulk Modulus (GPa) = 22.05172 48.89305 35.47238
# Shear Modulus (GPa) = 4.89450 15.91989 10.40719
#
# Velocity S-wave (km/s) = 1.61390 2.91067 2.35337
# Velocity P-wave (km/s) = 3.89975 6.10861 5.12460
#
# Compressibility (1/GPa) = 0.04534793
#
# Stress axis : x y z
#
# Youngs Moduli (GPa) = 64.92652 19.70514 81.45259
#
# Poissons Ratio (x) = 0.07071 0.57909
# Poissons Ratio (y) = 0.23300 0.47580
# Poissons Ratio (z) = 0.46160 0.11511
#
# Static dielectric constant tensor:
#      x y z
#    x 1.631490 0.000000 0.000000 
#    y 0.000000 1.649750 0.000000 
#    z 0.000000 0.000000 1.721410 
# 
# From -- ./inp_files/59272.got.cif
#   From: 2010.05.17/outbox.cif.g08.bks.cpg/sg65_30_cif.got.tgz:59272.got - 2010.06.03 17:01:31.
