data_PCOD9491368
_publ_section_title
;
Structure prediction by ZEFSAII (Michael W. Deem and Ramdas Pophale) SiO2 
 PCOD9491368
Probable space group: C M M M
;
_chemical_formula_sum "Si O2"
_cell_formula_units_Z 104
_cell_length_a 11.137182
_cell_length_b 18.359055
_cell_length_c 28.479004
_cell_angle_alpha 90.000000
_cell_angle_beta 90.000000
_cell_angle_gamma 90.000000
_cell_volume 5823.048888
_symmetry_space_group_name_H-M "C M M M"
_symmetry_group_IT_number 65
_symmetry_cell_setting 'orthorhombic'
loop_
_space_group_symop_operation_xyz
x,y,z
-x,-y,z
x,-y,-z
-x,y,-z
-x,-y,-z
x,y,-z
-x,y,z
x,-y,z
1/2+x,1/2+y,z
1/2-x,1/2-y,z
1/2+x,1/2-y,-z
1/2-x,1/2+y,-z
1/2-x,1/2-y,-z
1/2+x,1/2+y,-z
1/2-x,1/2+y,z
1/2+x,1/2-y,z
loop_
_atom_site_type_symbol
_atom_site_label
_atom_site_fract_x
_atom_site_fract_y
_atom_site_fract_z
Si Si1 0.850501 0.814119 0.500000
Si Si2 0.357699 0.691316 0.945392
Si Si3 0.245932 0.663451 0.218745
Si Si4 0.500000 0.083400 0.331066
Si Si5 0.858371 0.919436 0.864232
Si Si6 0.641349 0.418172 0.413044
Si Si7 0.000000 0.416708 0.782328
Si Si8 0.753562 0.663102 0.329706
O O1 0.750000 0.750000 0.500000
O O2 0.822160 0.863676 0.545504
O O3 0.000000 0.797290 0.500000
O O4 0.500000 0.713511 0.935853
O O5 0.250000 0.750000 0.940192
O O6 0.322805 0.628083 0.909102
O O7 0.356490 0.668172 0.000000
O O8 0.250000 0.750000 0.211716
O O9 0.334909 0.623356 0.183817
O O10 0.268097 0.649860 0.274189
O O11 0.117401 0.629215 0.205479
O O12 0.500000 0.078639 0.274399
O O13 0.382466 0.129338 0.343276
O O14 0.500000 0.000000 0.348921
O O15 0.000000 0.927187 0.868976
O O16 0.802703 0.000000 0.862699
O O17 0.500000 0.426040 0.419435
O O18 0.694905 0.500000 0.415081
O O19 0.664343 0.379938 0.363286
O O20 0.000000 0.500000 0.800089
O O21 0.750000 0.750000 0.337172
#
# Coordination Sequence:
#
# PCOD9491368 Si02
#       8
#     8  16  16   8  16  16   8  16
#     4  10  21  41  65  87 115 148 186 234 283 333
#     4   9  18  35  59  83 108 141 182 228 278 335
#     4  10  21  35  54  78 110 148 188 236 279 326
#     4   9  18  34  54  75 107 149 186 229 284 333
#     4  10  21  35  52  78 111 144 180 226 280 336
#     4  10  21  37  59  85 113 147 185 224 277 341
#     4   9  18  34  54  74 101 145 195 229 272 343
#     4  10  21  35  55  82 112 146 190 234 277 331
#
# _framework density 17.860060000000001
#
# number of rings (size 3 to 8) (size 9 to 14) (size 15 to 20)
#    0.000    2.308    0.000    2.077    2.154    3.692 
#    2.769    3.077    0.000    0.462    0.000    2.154 
#    0.000    0.000    0.000    0.000    0.000    0.000 
#
# Total GULP energy -289497.148668 kJ/mol
# GULP energy per Si atom -5567.252859 kJ/mol
# Density = 1.781941 g / cm^3
# Si number density = 17.860060 Si / 1000 Ang^3
#
#
#
# Elastic Constant Matrix: (Units=GPa)
#
#
# Indices 1 2 3 4 5 6 
#
# 1 35.6537 44.5313 20.6530 0.0000 0.0000 0.0000
# 2 44.5313 156.5262 77.6362 0.0000 0.0000 0.0000
# 3 20.6530 77.6362 82.8873 0.0000 0.0000 0.0000
# 4 0.0000 0.0000 0.0000 -42.0484 0.0000 0.0000
# 5 0.0000 0.0000 0.0000 0.0000 25.5770 0.0000
# 6 0.0000 0.0000 0.0000 0.0000 0.0000 28.2374
#
#
#
# Elastic Compliance Matrix: (Units=1/GPa)
#
#
# Indices 1 2 3 4 5 6 
#
# 1 0.043595 -0.013102 0.001409 0.000000 0.000000 0.000000
# 2 -0.013102 0.015869 -0.011599 0.000000 0.000000 0.000000
# 3 0.001409 -0.011599 0.022578 0.000000 0.000000 0.000000
# 4 0.000000 0.000000 0.000000 -0.023782 0.000000 0.000000
# 5 0.000000 0.000000 0.000000 0.000000 0.039098 0.000000
# 6 0.000000 0.000000 0.000000 0.000000 0.000000 0.035414
#
#
# Mechanical properties :
#
#
# Convention : Reuss Voigt Hill
#
# Bulk Modulus (GPa) = 28.20197 62.30093 45.25145
# Shear Modulus (GPa) = 26.15390 11.16963 18.66176
#
# Velocity S-wave (km/s) = 3.83087 2.50351 3.23598
# Velocity P-wave (km/s) = 5.94914 6.58143 6.27326
#
# Compressibility (1/GPa) = 0.03545852
#
# Stress axis : x y z
#
# Youngs Moduli (GPa) = 22.93828 63.01455 44.29066
#
# Poissons Ratio (x) = 0.82559 -0.06240
# Poissons Ratio (y) = 0.30053 0.51375
# Poissons Ratio (z) = -0.03232 0.73094
#
# Static dielectric constant tensor:
#      x y z
#    x 1.665640 0.000000 0.000000 
#    y 0.000000 1.642430 0.000000 
#    z 0.000000 0.000000 1.585770 
# 
# From -- ./inp_files/74416.got.cif
#   From: 2010.05.17/outbox.cif.g08.bks.cpg/sg65_38_cif.got.tgz:74416.got - 2010.06.03 17:01:31.
