data_PCOD9491795
_publ_section_title
;
Structure prediction by ZEFSAII (Michael W. Deem and Ramdas Pophale) SiO2 
 PCOD9491795
Probable space group: C M M M
;
_chemical_formula_sum "Si O2"
_cell_formula_units_Z 72
_cell_length_a 15.866867
_cell_length_b 8.669179
_cell_length_c 27.508485
_cell_angle_alpha 90.000000
_cell_angle_beta 90.000000
_cell_angle_gamma 90.000000
_cell_volume 3783.866665
_symmetry_space_group_name_H-M "C M M M"
_symmetry_group_IT_number 65
_symmetry_cell_setting 'orthorhombic'
loop_
_space_group_symop_operation_xyz
x,y,z
-x,-y,z
x,-y,-z
-x,y,-z
-x,-y,-z
x,y,-z
-x,y,z
x,-y,z
1/2+x,1/2+y,z
1/2-x,1/2-y,z
1/2+x,1/2-y,-z
1/2-x,1/2+y,-z
1/2-x,1/2-y,-z
1/2+x,1/2+y,-z
1/2-x,1/2+y,z
1/2+x,1/2-y,z
loop_
_atom_site_type_symbol
_atom_site_label
_atom_site_fract_x
_atom_site_fract_y
_atom_site_fract_z
Si Si1 0.401070 0.671415 0.500000
Si Si2 0.500000 0.313914 0.771083
Si Si3 0.156094 0.683673 0.600304
Si Si4 0.500000 0.186757 0.120442
Si Si5 0.341188 0.186087 0.056206
Si Si6 0.654466 0.314572 0.298026
O O1 0.359934 0.500000 0.500000
O O2 0.500000 0.652151 0.500000
O O3 0.380280 0.760895 0.549223
O O4 0.500000 0.500000 0.772964
O O5 0.500000 0.247585 0.825034
O O6 0.414602 0.268417 0.742241
O O7 0.154773 0.500000 0.603540
O O8 0.250000 0.750000 0.600138
O O9 0.119770 0.754988 0.649907
O O10 0.416808 0.237110 0.090945
O O11 0.500000 0.000000 0.121082
O O12 0.250000 0.250000 0.070795
O O13 0.338233 0.000000 0.057209
O O14 0.356904 0.232620 0.000000
O O15 0.660479 0.500000 0.299570
O O16 0.750000 0.250000 0.290365
#
# Coordination Sequence:
#
# PCOD9491795 Si02
#       6
#     8   8  16   8  16  16
#     4  11  24  39  56  81 115 151 182 221 276 335
#     4  10  24  41  59  82 115 152 190 237 291 343
#     4  11  22  38  60  85 112 143 182 228 278 336
#     4  10  21  36  56  82 113 151 192 235 284 337
#     4   9  18  34  56  83 115 152 192 234 281 335
#     4  10  21  40  62  85 111 148 191 235 288 343
#
# _framework density 19.028155000000002
#
# number of rings (size 3 to 8) (size 9 to 14) (size 15 to 20)
#    0.000    1.889    0.000    5.000    1.556    5.778 
#    0.000    4.444    0.000    3.333    0.000    0.000 
#    0.000    0.000    0.000    0.000    0.000    0.000 
#
# Total GULP energy -200927.068785 kJ/mol
# GULP energy per Si atom -5581.307466 kJ/mol
# Density = 1.898485 g / cm^3
# Si number density = 19.028155 Si / 1000 Ang^3
#
#
#
# Elastic Constant Matrix: (Units=GPa)
#
#
# Indices 1 2 3 4 5 6 
#
# 1 127.0935 38.0354 111.3829 0.0000 0.0000 0.0000
# 2 38.0354 71.5281 44.1837 0.0000 0.0000 0.0000
# 3 111.3829 44.1837 175.5615 0.0000 0.0000 0.0000
# 4 0.0000 0.0000 0.0000 34.6184 0.0000 0.0000
# 5 0.0000 0.0000 0.0000 0.0000 17.2460 0.0000
# 6 0.0000 0.0000 0.0000 0.0000 0.0000 24.4321
#
#
#
# Elastic Compliance Matrix: (Units=1/GPa)
#
#
# Indices 1 2 3 4 5 6 
#
# 1 0.018258 -0.003023 -0.010822 0.000000 0.000000 0.000000
# 2 -0.003023 0.017055 -0.002374 0.000000 0.000000 0.000000
# 3 -0.010822 -0.002374 0.013160 0.000000 0.000000 0.000000
# 4 0.000000 0.000000 0.000000 0.028886 0.000000 0.000000
# 5 0.000000 0.000000 0.000000 0.000000 0.057984 0.000000
# 6 0.000000 0.000000 0.000000 0.000000 0.000000 0.040930
#
#
# Mechanical properties :
#
#
# Convention : Reuss Voigt Hill
#
# Bulk Modulus (GPa) = 62.37428 84.59858 73.48643
# Shear Modulus (GPa) = 23.35832 27.29803 25.32818
#
# Velocity S-wave (km/s) = 3.50747 3.79174 3.65237
# Velocity P-wave (km/s) = 7.01814 7.98285 7.51599
#
# Compressibility (1/GPa) = 0.01603225
#
# Stress axis : x y z
#
# Youngs Moduli (GPa) = 54.77128 58.63491 75.98974
#
# Poissons Ratio (x) = 0.17728 0.82240
# Poissons Ratio (y) = 0.16560 0.18040
# Poissons Ratio (z) = 0.59276 0.13920
#
# Static dielectric constant tensor:
#      x y z
#    x 1.643800 0.000000 0.000000 
#    y 0.000000 1.680010 0.000000 
#    z 0.000000 0.000000 1.710290 
# 
# From -- ./inp_files/74677.got.cif
#   From: 2010.05.17/outbox.cif.g08.bks.cpg/sg65_38_cif.got.tgz:74677.got - 2010.06.03 17:01:31.
