data_PCOD9491683
_publ_section_title
;
Structure prediction by ZEFSAII (Michael W. Deem and Ramdas Pophale) SiO2 
 PCOD9491683
Probable space group: C M M M
;
_chemical_formula_sum "Si O2"
_cell_formula_units_Z 96
_cell_length_a 21.618577
_cell_length_b 27.127504
_cell_length_c 7.891333
_cell_angle_alpha 90.000000
_cell_angle_beta 90.000000
_cell_angle_gamma 90.000000
_cell_volume 4627.935637
_symmetry_space_group_name_H-M "C M M M"
_symmetry_group_IT_number 65
_symmetry_cell_setting 'orthorhombic'
loop_
_space_group_symop_operation_xyz
x,y,z
-x,-y,z
x,-y,-z
-x,y,-z
-x,-y,-z
x,y,-z
-x,y,z
x,-y,z
1/2+x,1/2+y,z
1/2-x,1/2-y,z
1/2+x,1/2-y,-z
1/2-x,1/2+y,-z
1/2-x,1/2-y,-z
1/2+x,1/2+y,-z
1/2-x,1/2+y,z
1/2+x,1/2-y,z
loop_
_atom_site_type_symbol
_atom_site_label
_atom_site_fract_x
_atom_site_fract_y
_atom_site_fract_z
Si Si1 0.570133 0.667591 0.707092
Si Si2 0.566248 0.888198 0.199024
Si Si3 0.910481 0.719731 0.306618
Si Si4 0.188949 0.444551 0.202819
Si Si5 0.721489 0.802843 0.809599
Si Si6 0.309222 0.386610 0.305526
O O1 0.575142 0.668925 0.500000
O O2 0.500000 0.652818 0.750545
O O3 0.579180 0.724922 0.763595
O O4 0.623847 0.630104 0.768467
O O5 0.500000 0.906563 0.271944
O O6 0.564624 0.828927 0.215911
O O7 0.631620 0.910222 0.266794
O O8 0.565782 0.900287 0.000000
O O9 0.932249 0.719932 0.500000
O O10 0.838469 0.707595 0.298229
O O11 0.181367 0.500000 0.269374
O O12 0.258756 0.425388 0.236717
O O13 0.183527 0.445894 0.000000
O O14 0.750000 0.750000 0.834226
O O15 0.769713 0.836831 0.714839
O O16 0.707093 0.823611 0.000000
O O17 0.319980 0.400049 0.500000
#
# Coordination Sequence:
#
# PCOD9491683 Si02
#       6
#    16  16  16  16  16  16
#     4   9  19  34  52  79 115 150 182 219 267 325
#     4  10  21  36  54  79 112 150 189 227 271 323
#     4  11  20  32  53  80 113 151 191 223 261 313
#     4  10  22  40  60  81 107 141 181 229 286 340
#     4  11  21  32  50  77 112 149 185 224 269 320
#     4  11  21  35  58  83 108 141 184 231 278 327
#
# _framework density 20.743589
#
# number of rings (size 3 to 8) (size 9 to 14) (size 15 to 20)
#    0.000    1.667    3.333    2.000    0.000    2.333 
#    0.000    1.667    0.000    5.500    0.000    5.833 
#    0.000    0.000    0.000    0.000    0.000    0.000 
#
# Total GULP energy -267324.735397 kJ/mol
# GULP energy per Si atom -5569.265321 kJ/mol
# Density = 2.069638 g / cm^3
# Si number density = 20.743589 Si / 1000 Ang^3
#
#
#
# Elastic Constant Matrix: (Units=GPa)
#
#
# Indices 1 2 3 4 5 6 
#
# 1 195.6346 50.8227 11.5757 0.0000 0.0000 0.0000
# 2 50.8227 88.8550 5.6410 0.0000 0.0000 0.0000
# 3 11.5757 5.6410 26.1076 0.0000 0.0000 0.0000
# 4 0.0000 0.0000 0.0000 208.3393 0.0000 0.0000
# 5 0.0000 0.0000 0.0000 0.0000 -4.2482 0.0000
# 6 0.0000 0.0000 0.0000 0.0000 0.0000 -5.3367
#
#
#
# Elastic Compliance Matrix: (Units=1/GPa)
#
#
# Indices 1 2 3 4 5 6 
#
# 1 0.006103 -0.003365 -0.001979 0.000000 0.000000 0.000000
# 2 -0.003365 0.013266 -0.001374 0.000000 0.000000 0.000000
# 3 -0.001979 -0.001374 0.039477 0.000000 0.000000 0.000000
# 4 0.000000 0.000000 0.000000 0.004800 0.000000 0.000000
# 5 0.000000 0.000000 0.000000 0.000000 -0.235393 0.000000
# 6 0.000000 0.000000 0.000000 0.000000 0.000000 -0.187381
#
#
# Mechanical properties :
#
#
# Convention : Reuss Voigt Hill
#
# Bulk Modulus (GPa) = 22.02163 49.63066 35.82615
# Shear Modulus (GPa) = -15.12612 55.92139 20.39763
#
# Velocity S-wave (km/s) = -2.70329 5.19778 3.13920
# Velocity P-wave (km/s) = 0.94628 7.74599 5.51796
#
# Compressibility (1/GPa) = 0.04540989
#
# Stress axis : x y z
#
# Youngs Moduli (GPa) = 163.85820 75.37920 25.33100
#
# Poissons Ratio (x) = 0.25365 0.05013
# Poissons Ratio (y) = 0.55139 0.03482
# Poissons Ratio (z) = 0.32425 0.10360
#
# Static dielectric constant tensor:
#      x y z
#    x 1.806360 0.000000 0.000000 
#    y 0.000000 1.740930 0.000000 
#    z 0.000000 0.000000 1.808300 
# 
# From -- ./inp_files/12292.got.cif
#   From: 2010.05.17/outbox.cif.g08.bks.cpg/sg65_7_cif.got.tgz:12292.got - 2010.06.03 17:01:31.
