data_PCOD9491297
_publ_section_title
;
Structure prediction by ZEFSAII (Michael W. Deem and Ramdas Pophale) SiO2 
 PCOD9491297
Probable space group: C M M M
;
_chemical_formula_sum "Si O2"
_cell_formula_units_Z 88
_cell_length_a 17.806407
_cell_length_b 13.775074
_cell_length_c 18.483530
_cell_angle_alpha 90.000000
_cell_angle_beta 90.000000
_cell_angle_gamma 90.000000
_cell_volume 4533.724784
_symmetry_space_group_name_H-M "C M M M"
_symmetry_group_IT_number 65
_symmetry_cell_setting 'orthorhombic'
loop_
_space_group_symop_operation_xyz
x,y,z
-x,-y,z
x,-y,-z
-x,y,-z
-x,-y,-z
x,y,-z
-x,y,z
x,-y,z
1/2+x,1/2+y,z
1/2-x,1/2-y,z
1/2+x,1/2-y,-z
1/2-x,1/2+y,-z
1/2-x,1/2-y,-z
1/2+x,1/2+y,-z
1/2-x,1/2+y,z
1/2+x,1/2-y,z
loop_
_atom_site_type_symbol
_atom_site_label
_atom_site_fract_x
_atom_site_fract_y
_atom_site_fract_z
Si Si1 0.591089 0.109832 0.081895
Si Si2 0.636349 0.116415 0.338629
Si Si3 0.193448 0.115498 0.708677
Si Si4 0.583440 0.617983 0.418357
Si Si5 0.414113 0.247064 0.786457
Si Si6 0.587548 0.882140 0.500000
O O1 0.500000 0.107241 0.081333
O O2 0.610799 0.185130 0.143933
O O3 0.616807 0.000000 0.098885
O O4 0.615185 0.134278 0.000000
O O5 0.720147 0.136337 0.308582
O O6 0.585425 0.174734 0.282549
O O7 0.624358 0.145299 0.422764
O O8 0.623062 0.000000 0.334372
O O9 0.147513 0.144117 0.636741
O O10 0.148203 0.171624 0.770430
O O11 0.186908 0.000000 0.719534
O O12 0.595857 0.652227 0.500000
O O13 0.500000 0.648204 0.394280
O O14 0.582696 0.500000 0.420923
O O15 0.500000 0.283661 0.796509
O O16 0.500000 0.853104 0.500000
O O17 0.589778 0.000000 0.500000
#
# Coordination Sequence:
#
# PCOD9491297 Si02
#       6
#    16  16  16  16  16   8
#     4   8  15  30  55  87 116 139 171 222 279 329
#     4  10  21  36  55  77 105 143 182 228 279 334
#     4  10  21  35  51  73 106 147 188 226 268 325
#     4   8  14  26  45  66  89 123 173 231 275 304
#     4  11  21  34  55  82 111 141 177 224 276 330
#     4   9  18  34  55  78 106 140 183 235 292 346
#
# _framework density 19.410088999999999
#
# number of rings (size 3 to 8) (size 9 to 14) (size 15 to 20)
#    0.000    2.636    0.000    3.273    1.273    2.909 
#    1.636    0.909    0.000    2.727    0.000    5.091 
#    0.000    0.000    0.000    0.000    0.000    0.000 
#
# Total GULP energy -245587.804445 kJ/mol
# GULP energy per Si atom -5581.541010 kJ/mol
# Density = 1.936591 g / cm^3
# Si number density = 19.410089 Si / 1000 Ang^3
#
#
#
# Elastic Constant Matrix: (Units=GPa)
#
#
# Indices 1 2 3 4 5 6 
#
# 1 89.6074 39.3300 41.8964 0.0000 0.0000 0.0000
# 2 39.3300 80.8502 50.5093 0.0000 0.0000 0.0000
# 3 41.8964 50.5093 103.7160 0.0000 0.0000 0.0000
# 4 0.0000 0.0000 0.0000 35.2670 0.0000 0.0000
# 5 0.0000 0.0000 0.0000 0.0000 5.6076 0.0000
# 6 0.0000 0.0000 0.0000 0.0000 0.0000 27.7613
#
#
#
# Elastic Compliance Matrix: (Units=1/GPa)
#
#
# Indices 1 2 3 4 5 6 
#
# 1 0.015080 -0.005074 -0.003621 0.000000 0.000000 0.000000
# 2 -0.005074 0.019484 -0.007439 0.000000 0.000000 0.000000
# 3 -0.003621 -0.007439 0.014727 0.000000 0.000000 0.000000
# 4 0.000000 0.000000 0.000000 0.028355 0.000000 0.000000
# 5 0.000000 0.000000 0.000000 0.000000 0.178330 0.000000
# 6 0.000000 0.000000 0.000000 0.000000 0.000000 0.036021
#
#
# Mechanical properties :
#
#
# Convention : Reuss Voigt Hill
#
# Bulk Modulus (GPa) = 58.74076 59.73832 59.23954
# Shear Modulus (GPa) = 15.15433 23.22302 19.18868
#
# Velocity S-wave (km/s) = 2.79721 3.46271 3.14760
# Velocity P-wave (km/s) = 6.38445 6.84331 6.61786
#
# Compressibility (1/GPa) = 0.01702395
#
# Stress axis : x y z
#
# Youngs Moduli (GPa) = 66.31516 51.32395 67.90207
#
# Poissons Ratio (x) = 0.26040 0.24584
# Poissons Ratio (y) = 0.33646 0.50513
# Poissons Ratio (z) = 0.24010 0.38181
#
# Static dielectric constant tensor:
#      x y z
#    x 1.682790 0.000000 0.000000 
#    y 0.000000 1.747290 0.000000 
#    z 0.000000 0.000000 1.668760 
# 
# From -- ./inp_files/54341.got.cif
#   From: 2010.05.17/outbox.cif.g08.bks.cpg/sg65_28_cif.got.tgz:54341.got - 2010.06.03 17:01:31.
