data_PCOD9491225
_publ_section_title
;
Structure prediction by ZEFSAII (Michael W. Deem and Ramdas Pophale) SiO2 
 PCOD9491225
Probable space group: C M M M
;
_chemical_formula_sum "Si O2"
_cell_formula_units_Z 112
_cell_length_a 14.310572
_cell_length_b 14.341599
_cell_length_c 28.140929
_cell_angle_alpha 90.000000
_cell_angle_beta 90.000000
_cell_angle_gamma 90.000000
_cell_volume 5775.545355
_symmetry_space_group_name_H-M "C M M M"
_symmetry_group_IT_number 65
_symmetry_cell_setting 'orthorhombic'
loop_
_space_group_symop_operation_xyz
x,y,z
-x,-y,z
x,-y,-z
-x,y,-z
-x,-y,-z
x,y,-z
-x,y,z
x,-y,z
1/2+x,1/2+y,z
1/2-x,1/2-y,z
1/2+x,1/2-y,-z
1/2-x,1/2+y,-z
1/2-x,1/2-y,-z
1/2+x,1/2+y,-z
1/2-x,1/2+y,z
1/2+x,1/2-y,z
loop_
_atom_site_type_symbol
_atom_site_label
_atom_site_fract_x
_atom_site_fract_y
_atom_site_fract_z
Si Si1 0.777163 0.612069 0.811434
Si Si2 0.717864 0.886417 0.297658
Si Si3 0.395778 0.612117 0.354887
Si Si4 0.274913 0.357592 0.447402
Si Si5 0.387599 0.278731 0.854092
Si Si6 0.399061 0.107624 0.614944
Si Si7 0.613108 0.394103 0.946169
O O1 0.784135 0.500000 0.818423
O O2 0.801009 0.636322 0.756707
O O3 0.672169 0.649673 0.821442
O O4 0.845313 0.676333 0.843517
O O5 0.819600 0.856150 0.316356
O O6 0.645588 0.850125 0.337375
O O7 0.717939 0.000000 0.299507
O O8 0.500000 0.649329 0.348979
O O9 0.400025 0.500000 0.350530
O O10 0.353599 0.629897 0.407383
O O11 0.298656 0.392727 0.500000
O O12 0.250000 0.250000 0.450967
O O13 0.178153 0.394701 0.425934
O O14 0.500000 0.281767 0.847197
O O15 0.364255 0.317116 0.906935
O O16 0.500000 0.147346 0.601362
O O17 0.411782 0.000000 0.627091
O O18 0.500000 0.397242 0.947500
O O19 0.643998 0.500000 0.932909
O O20 0.645478 0.374633 0.000000
#
# Coordination Sequence:
#
# PCOD9491225 Si02
#       7
#    16  16  16  16  16  16  16
#     4  10  21  37  56  79 114 156 192 233 290 351
#     4   8  16  33  54  73  99 134 170 211 261 318
#     4   9  18  34  56  78  97 124 169 218 260 309
#     4  10  21  35  49  69 103 137 160 195 256 323
#     4  10  21  36  55  84 117 147 191 245 287 336
#     4   9  18  34  56  77  94 121 168 217 255 301
#     4   8  14  28  54  85 115 152 197 242 290 341
#
# _framework density 19.392108
#
# number of rings (size 3 to 8) (size 9 to 14) (size 15 to 20)
#    0.000    2.857    0.000    2.143    0.000    4.571 
#   10.286    7.143    0.000    1.286    0.000    2.000 
#    0.000    0.000    0.000    0.000    0.000    0.000 
#
# Total GULP energy -311871.844307 kJ/mol
# GULP energy per Si atom -5569.140077 kJ/mol
# Density = 1.934797 g / cm^3
# Si number density = 19.392108 Si / 1000 Ang^3
#
#
#
# Elastic Constant Matrix: (Units=GPa)
#
#
# Indices 1 2 3 4 5 6 
#
# 1 90.1047 9.8812 22.1849 0.0000 0.0000 0.0000
# 2 9.8812 97.5553 25.7984 0.0000 0.0000 0.0000
# 3 22.1849 25.7984 102.3525 0.0000 0.0000 0.0000
# 4 0.0000 0.0000 0.0000 29.1392 0.0000 0.0000
# 5 0.0000 0.0000 0.0000 0.0000 8.5689 0.0000
# 6 0.0000 0.0000 0.0000 0.0000 0.0000 -5.3029
#
#
#
# Elastic Compliance Matrix: (Units=1/GPa)
#
#
# Indices 1 2 3 4 5 6 
#
# 1 0.011752 -0.000554 -0.002408 0.000000 0.000000 0.000000
# 2 -0.000554 0.011009 -0.002655 0.000000 0.000000 0.000000
# 3 -0.002408 -0.002655 0.010961 0.000000 0.000000 0.000000
# 4 0.000000 0.000000 0.000000 0.034318 0.000000 0.000000
# 5 0.000000 0.000000 0.000000 0.000000 0.116700 0.000000
# 6 0.000000 0.000000 0.000000 0.000000 0.000000 -0.188576
#
#
# Mechanical properties :
#
#
# Convention : Reuss Voigt Hill
#
# Bulk Modulus (GPa) = 44.46521 45.08238 44.77380
# Shear Modulus (GPa) = 335.72493 21.95758 178.84125
#
# Velocity S-wave (km/s) = 13.17195 3.36861 9.61374
# Velocity P-wave (km/s) = 15.94720 6.19906 12.09838
#
# Compressibility (1/GPa) = 0.02248949
#
# Stress axis : x y z
#
# Youngs Moduli (GPa) = 85.09408 90.83700 91.23114
#
# Poissons Ratio (x) = 0.05029 0.21965
# Poissons Ratio (y) = 0.04711 0.24220
# Poissons Ratio (z) = 0.20488 0.24115
#
# Static dielectric constant tensor:
#      x y z
#    x 1.692560 0.000000 0.000000 
#    y 0.000000 1.672180 0.000000 
#    z 0.000000 0.000000 1.693560 
# 
# From -- ./inp_files/74896.got.cif
#   From: 2010.05.17/outbox.cif.g08.bks.cpg/sg65_38_cif.got.tgz:74896.got - 2010.06.03 17:01:31.
