data_PCOD9491992
_publ_section_title
;
Structure prediction by ZEFSAII (Michael W. Deem and Ramdas Pophale) SiO2 
 PCOD9491992
Probable space group: C M M M
;
_chemical_formula_sum "Si O2"
_cell_formula_units_Z 88
_cell_length_a 18.945810
_cell_length_b 7.619554
_cell_length_c 30.040528
_cell_angle_alpha 90.000000
_cell_angle_beta 90.000000
_cell_angle_gamma 90.000000
_cell_volume 4336.609237
_symmetry_space_group_name_H-M "C M M M"
_symmetry_group_IT_number 65
_symmetry_cell_setting 'orthorhombic'
loop_
_space_group_symop_operation_xyz
x,y,z
-x,-y,z
x,-y,-z
-x,y,-z
-x,-y,-z
x,y,-z
-x,y,z
x,-y,z
1/2+x,1/2+y,z
1/2-x,1/2-y,z
1/2+x,1/2-y,-z
1/2-x,1/2+y,-z
1/2-x,1/2-y,-z
1/2+x,1/2+y,-z
1/2-x,1/2+y,z
1/2+x,1/2-y,z
loop_
_atom_site_type_symbol
_atom_site_label
_atom_site_fract_x
_atom_site_fract_y
_atom_site_fract_z
Si Si1 0.917697 0.214715 0.855507
Si Si2 0.579538 0.708575 0.412293
Si Si3 0.667158 0.206478 0.500000
Si Si4 0.832381 0.210670 0.770292
Si Si5 0.667386 0.288674 0.328659
Si Si6 0.084707 0.788510 0.952169
O O1 0.875808 0.277996 0.812435
O O2 0.889300 0.274604 0.903958
O O3 0.000000 0.262713 0.851989
O O4 0.915109 0.000000 0.855919
O O5 0.500000 0.778661 0.418216
O O6 0.573321 0.500000 0.405464
O O7 0.627261 0.730017 0.455895
O O8 0.619548 0.780437 0.368788
O O9 0.750000 0.250000 0.500000
O O10 0.660973 0.000000 0.500000
O O11 0.750000 0.250000 0.776360
O O12 0.852214 0.276610 0.720868
O O13 0.841476 0.000000 0.769530
O O14 0.660945 0.500000 0.327840
O O15 0.750000 0.250000 0.336475
O O16 0.000000 0.757994 0.951778
O O17 0.093835 0.000000 0.952666
O O18 0.111914 0.721111 0.000000
#
# Coordination Sequence:
#
# PCOD9491992 Si02
#       6
#    16  16   8  16  16  16
#     4   8  13  21  36  59  83 108 143 187 229 268
#     4  10  21  37  56  79 107 134 160 196 243 288
#     4  12  25  40  59  81 105 135 171 204 235 276
#     4   9  17  29  45  65  90 120 153 188 227 273
#     4   9  18  32  50  71  94 124 160 194 229 274
#     4   7   9  14  26  47  76 106 135 173 223 271
#
# _framework density 20.292352000000001
#
# number of rings (size 3 to 8) (size 9 to 14) (size 15 to 20)
#    0.000    3.091    0.000    3.273    0.000    4.364 
#    0.000    3.636    0.000    1.091    0.000    5.091 
#    0.000    0.000    0.000    4.545    0.000    3.636 
#
# Total GULP energy -245192.722012 kJ/mol
# GULP energy per Si atom -5572.561864 kJ/mol
# Density = 2.024617 g / cm^3
# Si number density = 20.292352 Si / 1000 Ang^3
#
#
#
# Elastic Constant Matrix: (Units=GPa)
#
#
# Indices 1 2 3 4 5 6 
#
# 1 94.7936 0.0881 114.3099 0.0000 0.0000 0.0000
# 2 0.0881 42.0184 4.8419 0.0000 0.0000 0.0000
# 3 114.3099 4.8419 255.3467 0.0000 0.0000 0.0000
# 4 0.0000 0.0000 0.0000 -14.0846 0.0000 0.0000
# 5 0.0000 0.0000 0.0000 0.0000 25.3528 0.0000
# 6 0.0000 0.0000 0.0000 0.0000 0.0000 12.7636
#
#
#
# Elastic Compliance Matrix: (Units=1/GPa)
#
#
# Indices 1 2 3 4 5 6 
#
# 1 0.022979 0.001140 -0.010309 0.000000 0.000000 0.000000
# 2 0.001140 0.023908 -0.000964 0.000000 0.000000 0.000000
# 3 -0.010309 -0.000964 0.008549 0.000000 0.000000 0.000000
# 4 0.000000 0.000000 0.000000 -0.070999 0.000000 0.000000
# 5 0.000000 0.000000 0.000000 0.000000 0.039443 0.000000
# 6 0.000000 0.000000 0.000000 0.000000 0.000000 0.078348
#
#
# Mechanical properties :
#
#
# Convention : Reuss Voigt Hill
#
# Bulk Modulus (GPa) = 28.43226 70.07094 49.25160
# Shear Modulus (GPa) = 37.25320 23.00094 30.12707
#
# Velocity S-wave (km/s) = 4.28930 3.37037 3.85730
# Velocity P-wave (km/s) = 6.21068 7.05348 6.64545
#
# Compressibility (1/GPa) = 0.03517131
#
# Stress axis : x y z
#
# Youngs Moduli (GPa) = 43.51784 41.82749 116.96866
#
# Poissons Ratio (x) = -0.04767 1.20578
# Poissons Ratio (y) = -0.04960 0.11270
# Poissons Ratio (z) = 0.44861 0.04030
#
# Static dielectric constant tensor:
#      x y z
#    x 1.668950 0.000000 0.000000 
#    y 0.000000 1.756410 0.000000 
#    z 0.000000 0.000000 1.844140 
# 
# From -- ./inp_files/77812.got.cif
#   From: 2010.05.17/outbox.cif.g08.bks.cpg/sg65_39_cif.got.tgz:77812.got - 2010.06.03 17:01:31.
