data_PCOD9491363
_publ_section_title
;
Structure prediction by ZEFSAII (Michael W. Deem and Ramdas Pophale) SiO2 
 PCOD9491363
Probable space group: C M M M
;
_chemical_formula_sum "Si O2"
_cell_formula_units_Z 88
_cell_length_a 19.509280
_cell_length_b 7.832277
_cell_length_c 30.574732
_cell_angle_alpha 90.000000
_cell_angle_beta 90.000000
_cell_angle_gamma 90.000000
_cell_volume 4671.882799
_symmetry_space_group_name_H-M "C M M M"
_symmetry_group_IT_number 65
_symmetry_cell_setting 'orthorhombic'
loop_
_space_group_symop_operation_xyz
x,y,z
-x,-y,z
x,-y,-z
-x,y,-z
-x,-y,-z
x,y,-z
-x,y,z
x,-y,z
1/2+x,1/2+y,z
1/2-x,1/2-y,z
1/2+x,1/2-y,-z
1/2-x,1/2+y,-z
1/2-x,1/2-y,-z
1/2+x,1/2+y,-z
1/2-x,1/2+y,z
1/2+x,1/2-y,z
loop_
_atom_site_type_symbol
_atom_site_label
_atom_site_fract_x
_atom_site_fract_y
_atom_site_fract_z
Si Si1 0.080525 0.500000 0.052468
Si Si2 0.170643 0.794035 0.548793
Si Si3 0.670061 0.706545 0.096821
Si Si4 0.327766 0.702024 0.801925
Si Si5 0.422073 0.296568 0.372381
Si Si6 0.922962 0.701280 0.277736
O O1 0.120114 0.330685 0.069768
O O2 0.000000 0.500000 0.065861
O O3 0.083053 0.500000 0.000000
O O4 0.151075 0.732587 0.500000
O O5 0.250000 0.750000 0.555937
O O6 0.123972 0.727542 0.588255
O O7 0.165381 0.000000 0.548281
O O8 0.659830 0.500000 0.091418
O O9 0.750000 0.750000 0.086770
O O10 0.659127 0.756052 0.147984
O O11 0.333156 0.500000 0.802111
O O12 0.250000 0.750000 0.790850
O O13 0.378768 0.767276 0.765161
O O14 0.500000 0.227675 0.373262
O O15 0.426378 0.500000 0.378475
O O16 0.393503 0.268713 0.323582
O O17 0.928131 0.500000 0.283316
O O18 0.000000 0.774066 0.272521
#
# Coordination Sequence:
#
# PCOD9491363 Si02
#       6
#     8  16  16  16  16  16
#     4  11  26  44  64  96 135 171 211 265 321 371
#     4   9  18  32  50  72  96 125 163 209 265 325
#     4  10  21  41  67  95 126 166 215 263 311 374
#     4  10  21  36  59  86 115 148 188 237 286 335
#     4   9  18  33  51  70  98 134 173 220 265 315
#     4  10  21  35  52  77 109 146 184 223 272 332
#
# _framework density 18.836091
#
# number of rings (size 3 to 8) (size 9 to 14) (size 15 to 20)
#    0.000    2.273    0.909    1.091    2.545    4.727 
#    0.000    6.364    0.000    0.000    0.000    5.091 
#    0.000    0.000    0.000    0.000    0.000    0.000 
#
# Total GULP energy -245341.864233 kJ/mol
# GULP energy per Si atom -5575.951460 kJ/mol
# Density = 1.879322 g / cm^3
# Si number density = 18.836091 Si / 1000 Ang^3
#
#
#
# Elastic Constant Matrix: (Units=GPa)
#
#
# Indices 1 2 3 4 5 6 
#
# 1 96.7067 35.4016 85.6157 0.0000 0.0000 0.0000
# 2 35.4016 62.3912 36.2465 0.0000 0.0000 0.0000
# 3 85.6157 36.2465 117.7480 0.0000 0.0000 0.0000
# 4 0.0000 0.0000 0.0000 16.3840 0.0000 0.0000
# 5 0.0000 0.0000 0.0000 0.0000 37.8106 0.0000
# 6 0.0000 0.0000 0.0000 0.0000 0.0000 22.2565
#
#
#
# Elastic Compliance Matrix: (Units=1/GPa)
#
#
# Indices 1 2 3 4 5 6 
#
# 1 0.030435 -0.005374 -0.020475 0.000000 0.000000 0.000000
# 2 -0.005374 0.020467 -0.002393 0.000000 0.000000 0.000000
# 3 -0.020475 -0.002393 0.024117 0.000000 0.000000 0.000000
# 4 0.000000 0.000000 0.000000 0.061035 0.000000 0.000000
# 5 0.000000 0.000000 0.000000 0.000000 0.026448 0.000000
# 6 0.000000 0.000000 0.000000 0.000000 0.000000 0.044931
#
#
# Mechanical properties :
#
#
# Convention : Reuss Voigt Hill
#
# Bulk Modulus (GPa) = 53.95221 65.70816 59.83018
# Shear Modulus (GPa) = 18.51199 23.26233 20.88716
#
# Velocity S-wave (km/s) = 3.13835 3.51805 3.33361
# Velocity P-wave (km/s) = 6.46819 7.17371 6.83007
#
# Compressibility (1/GPa) = 0.01853492
#
# Stress axis : x y z
#
# Youngs Moduli (GPa) = 32.85727 48.85820 41.46447
#
# Poissons Ratio (x) = 0.26256 0.84899
# Poissons Ratio (y) = 0.17657 0.09923
# Poissons Ratio (z) = 0.67276 0.11692
#
# Static dielectric constant tensor:
#      x y z
#    x 1.646110 0.000000 0.000000 
#    y 0.000000 1.666230 0.000000 
#    z 0.000000 0.000000 1.677730 
# 
# From -- ./inp_files/77843.got.cif
#   From: 2010.05.17/outbox.cif.g08.bks.cpg/sg65_39_cif.got.tgz:77843.got - 2010.06.03 17:01:31.
