data_PCOD9491074
_publ_section_title
;
Structure prediction by ZEFSAII (Michael W. Deem and Ramdas Pophale) SiO2 
 PCOD9491074
Probable space group: C M M M
;
_chemical_formula_sum "Si O2"
_cell_formula_units_Z 112
_cell_length_a 31.538698
_cell_length_b 13.993106
_cell_length_c 14.600188
_cell_angle_alpha 90.000000
_cell_angle_beta 90.000000
_cell_angle_gamma 90.000000
_cell_volume 6443.418395
_symmetry_space_group_name_H-M "C M M M"
_symmetry_group_IT_number 65
_symmetry_cell_setting 'orthorhombic'
loop_
_space_group_symop_operation_xyz
x,y,z
-x,-y,z
x,-y,-z
-x,y,-z
-x,-y,-z
x,y,-z
-x,y,z
x,-y,z
1/2+x,1/2+y,z
1/2-x,1/2-y,z
1/2+x,1/2-y,-z
1/2-x,1/2+y,-z
1/2-x,1/2-y,-z
1/2+x,1/2+y,-z
1/2-x,1/2+y,z
1/2+x,1/2-y,z
loop_
_atom_site_type_symbol
_atom_site_label
_atom_site_fract_x
_atom_site_fract_y
_atom_site_fract_z
Si Si1 0.669806 0.115337 0.392983
Si Si2 0.277322 0.614990 0.898648
Si Si3 0.050945 0.387785 0.104363
Si Si4 0.734761 0.384146 0.606122
Si Si5 0.815928 0.611325 0.889968
Si Si6 0.885064 0.295586 0.763874
Si Si7 0.158125 0.887776 0.262665
O O1 0.664646 0.142191 0.500000
O O2 0.717842 0.146231 0.363485
O O3 0.632872 0.153573 0.327548
O O4 0.669378 0.000000 0.388750
O O5 0.271409 0.500000 0.906244
O O6 0.231176 0.647374 0.865390
O O7 0.315651 0.626232 0.830696
O O8 0.285825 0.653604 0.000000
O O9 0.063043 0.500000 0.112809
O O10 0.072098 0.330616 0.187733
O O11 0.000000 0.382019 0.108227
O O12 0.063781 0.357775 0.000000
O O13 0.730366 0.357724 0.500000
O O14 0.735605 0.500000 0.612156
O O15 0.692900 0.356873 0.661608
O O16 0.820797 0.500000 0.861296
O O17 0.850682 0.673107 0.840159
O O18 0.819158 0.613691 0.000000
O O19 0.881201 0.183405 0.742476
O O20 0.148137 0.000000 0.274261
#
# Coordination Sequence:
#
# PCOD9491074 Si02
#       7
#    16  16  16  16  16  16  16
#     4   9  18  31  47  72 105 135 165 205 251 298
#     4   8  15  28  41  54  84 128 161 189 232 281
#     4   9  19  37  60  84 106 123 142 179 239 311
#     4   8  15  30  48  63  90 136 180 216 252 282
#     4   9  17  28  43  66  93 118 150 194 239 284
#     4  12  21  29  49  74  94 123 162 201 242 288
#     4  10  21  33  43  61  92 130 173 213 241 268
#
# _framework density 17.382076999999999
#
# number of rings (size 3 to 8) (size 9 to 14) (size 15 to 20)
#    0.000    2.714    0.000    4.714    0.000    7.429 
#    0.000    2.857    0.000    0.857    0.000    3.000 
#    0.000    0.000    0.000    4.857    0.000    0.143 
#
# Total GULP energy -312377.371074 kJ/mol
# GULP energy per Si atom -5578.167341 kJ/mol
# Density = 1.734251 g / cm^3
# Si number density = 17.382077 Si / 1000 Ang^3
#
#
#
# Elastic Constant Matrix: (Units=GPa)
#
#
# Indices 1 2 3 4 5 6 
#
# 1 46.8449 23.3342 29.6021 0.0000 0.0000 0.0000
# 2 23.3342 80.5457 17.5492 0.0000 0.0000 0.0000
# 3 29.6021 17.5492 76.5084 0.0000 0.0000 0.0000
# 4 0.0000 0.0000 0.0000 -2.0475 0.0000 0.0000
# 5 0.0000 0.0000 0.0000 0.0000 29.3626 0.0000
# 6 0.0000 0.0000 0.0000 0.0000 0.0000 21.4791
#
#
#
# Elastic Compliance Matrix: (Units=1/GPa)
#
#
# Indices 1 2 3 4 5 6 
#
# 1 0.031432 -0.006796 -0.010603 0.000000 0.000000 0.000000
# 2 -0.006796 0.014538 -0.000705 0.000000 0.000000 0.000000
# 3 -0.010603 -0.000705 0.017335 0.000000 0.000000 0.000000
# 4 0.000000 0.000000 0.000000 -0.488398 0.000000 0.000000
# 5 0.000000 0.000000 0.000000 0.000000 0.034057 0.000000
# 6 0.000000 0.000000 0.000000 0.000000 0.000000 0.046557
#
#
# Mechanical properties :
#
#
# Convention : Reuss Voigt Hill
#
# Bulk Modulus (GPa) = 36.90455 38.31889 37.61172
# Shear Modulus (GPa) = -16.70901 18.65306 0.97202
#
# Velocity S-wave (km/s) = -3.10381 3.27941 0.74861
# Velocity P-wave (km/s) = 2.90389 6.03591 4.73629
#
# Compressibility (1/GPa) = 0.02709693
#
# Stress axis : x y z
#
# Youngs Moduli (GPa) = 31.81452 68.78656 57.68819
#
# Poissons Ratio (x) = 0.46746 0.61165
# Poissons Ratio (y) = 0.21621 0.04068
# Poissons Ratio (z) = 0.33732 0.04851
#
# Static dielectric constant tensor:
#      x y z
#    x 1.577760 0.000000 0.000000 
#    y 0.000000 1.674170 0.000000 
#    z 0.000000 0.000000 1.615310 
# 
# From -- ./inp_files/47030.got.cif
#   From: 2010.05.17/outbox.cif.g08.bks.cpg/sg65_24_cif.got.tgz:47030.got - 2010.06.03 17:01:31.
