data_PCOD9491530
_publ_section_title
;
Structure prediction by ZEFSAII (Michael W. Deem and Ramdas Pophale) SiO2 
 PCOD9491530
Probable space group: C M M M
;
_chemical_formula_sum "Si O2"
_cell_formula_units_Z 72
_cell_length_a 15.947587
_cell_length_b 8.911295
_cell_length_c 25.401822
_cell_angle_alpha 90.000000
_cell_angle_beta 90.000000
_cell_angle_gamma 90.000000
_cell_volume 3609.945699
_symmetry_space_group_name_H-M "C M M M"
_symmetry_group_IT_number 65
_symmetry_cell_setting 'orthorhombic'
loop_
_space_group_symop_operation_xyz
x,y,z
-x,-y,z
x,-y,-z
-x,y,-z
-x,-y,-z
x,y,-z
-x,y,z
x,-y,z
1/2+x,1/2+y,z
1/2-x,1/2-y,z
1/2+x,1/2-y,-z
1/2-x,1/2+y,-z
1/2-x,1/2-y,-z
1/2+x,1/2+y,-z
1/2-x,1/2+y,z
1/2+x,1/2-y,z
loop_
_atom_site_type_symbol
_atom_site_label
_atom_site_fract_x
_atom_site_fract_y
_atom_site_fract_z
Si Si1 0.899640 0.680660 0.722414
Si Si2 0.657911 0.678757 0.943071
Si Si3 0.662203 0.679211 0.616378
Si Si4 0.500000 0.174511 0.436971
Si Si5 0.400173 0.168649 0.161593
O O1 0.888030 0.500000 0.717651
O O2 0.852920 0.767455 0.676446
O O3 0.870623 0.725458 0.781315
O O4 0.000000 0.708833 0.716931
O O5 0.663334 0.500000 0.941606
O O6 0.750000 0.750000 0.942957
O O7 0.615864 0.735675 0.889998
O O8 0.618140 0.721040 0.000000
O O9 0.664685 0.500000 0.612882
O O10 0.750000 0.750000 0.597818
O O11 0.582996 0.744997 0.584773
O O12 0.500000 0.178065 0.500000
O O13 0.500000 0.000000 0.419224
O O14 0.500000 0.156598 0.167909
O O15 0.366037 0.000000 0.153185
#
# Coordination Sequence:
#
# PCOD9491530 Si02
#       5
#    16  16  16   8  16
#     4   9  18  36  61  86 120 160 199 249 308 368
#     4  10  21  36  53  73 101 141 187 239 297 356
#     4  12  25  41  66  99 133 173 219 264 315 376
#     4  11  25  47  73  99 133 175 214 263 322 371
#     4   9  19  35  56  83 112 148 189 235 293 354
#
# _framework density 19.944897000000001
#
# number of rings (size 3 to 8) (size 9 to 14) (size 15 to 20)
#    0.000    1.889    1.111    4.333    0.000    5.333 
#    0.000    4.444    0.000    0.000    0.000    0.000 
#    0.000    0.000    0.000    0.000    0.000    0.000 
#
# Total GULP energy -200990.984128 kJ/mol
# GULP energy per Si atom -5583.082892 kJ/mol
# Density = 1.989950 g / cm^3
# Si number density = 19.944897 Si / 1000 Ang^3
#
#
#
# Elastic Constant Matrix: (Units=GPa)
#
#
# Indices 1 2 3 4 5 6 
#
# 1 96.9798 48.5193 44.3700 0.0000 0.0000 0.0000
# 2 48.5193 105.5276 55.0996 0.0000 0.0000 0.0000
# 3 44.3700 55.0996 117.0126 0.0000 0.0000 0.0000
# 4 0.0000 0.0000 0.0000 -382.5705 0.0000 0.0000
# 5 0.0000 0.0000 0.0000 0.0000 -2.3939 0.0000
# 6 0.0000 0.0000 0.0000 0.0000 0.0000 29.8804
#
#
#
# Elastic Compliance Matrix: (Units=1/GPa)
#
#
# Indices 1 2 3 4 5 6 
#
# 1 0.014171 -0.004919 -0.003057 0.000000 0.000000 0.000000
# 2 -0.004919 0.014273 -0.004856 0.000000 0.000000 0.000000
# 3 -0.003057 -0.004856 0.011992 0.000000 0.000000 0.000000
# 4 0.000000 0.000000 0.000000 -0.002614 0.000000 0.000000
# 5 0.000000 0.000000 0.000000 0.000000 -0.417725 0.000000
# 6 0.000000 0.000000 0.000000 0.000000 0.000000 0.033467
#
#
# Mechanical properties :
#
#
# Convention : Reuss Voigt Hill
#
# Bulk Modulus (GPa) = 67.69597 68.38864 68.04231
# Shear Modulus (GPa) = -15.83047 -59.58140 -37.70593
#
# Velocity S-wave (km/s) = -2.82034 -5.47155 -4.35271
# Velocity P-wave (km/s) = 4.83833 2.35667 2.98793
#
# Compressibility (1/GPa) = 0.01477193
#
# Stress axis : x y z
#
# Youngs Moduli (GPa) = 70.56501 70.06038 83.39019
#
# Poissons Ratio (x) = 0.34466 0.25493
# Poissons Ratio (y) = 0.34714 0.40492
# Poissons Ratio (z) = 0.21573 0.34020
#
# Static dielectric constant tensor:
#      x y z
#    x 1.718290 0.000000 0.000000 
#    y 0.000000 1.667610 0.000000 
#    z 0.000000 0.000000 1.738610 
# 
# From -- ./inp_files/72492.got.cif
#   From: 2010.05.17/outbox.cif.g08.bks.cpg/sg65_37_cif.got.tgz:72492.got - 2010.06.03 17:01:31.
