data_PCOD9491126
_publ_section_title
;
Structure prediction by ZEFSAII (Michael W. Deem and Ramdas Pophale) SiO2 
 PCOD9491126
Probable space group: C M M M
;
_chemical_formula_sum "Si O2"
_cell_formula_units_Z 72
_cell_length_a 8.056330
_cell_length_b 27.456395
_cell_length_c 17.697855
_cell_angle_alpha 90.000000
_cell_angle_beta 90.000000
_cell_angle_gamma 90.000000
_cell_volume 3914.726214
_symmetry_space_group_name_H-M "C M M M"
_symmetry_group_IT_number 65
_symmetry_cell_setting 'orthorhombic'
loop_
_space_group_symop_operation_xyz
x,y,z
-x,-y,z
x,-y,-z
-x,y,-z
-x,-y,-z
x,y,-z
-x,y,z
x,-y,z
1/2+x,1/2+y,z
1/2-x,1/2-y,z
1/2+x,1/2-y,-z
1/2-x,1/2+y,-z
1/2-x,1/2-y,-z
1/2+x,1/2+y,-z
1/2-x,1/2+y,z
1/2+x,1/2-y,z
loop_
_atom_site_type_symbol
_atom_site_label
_atom_site_fract_x
_atom_site_fract_y
_atom_site_fract_z
Si Si1 0.304740 0.656592 0.417504
Si Si2 0.199611 0.404671 0.188842
Si Si3 0.302432 0.054326 0.356708
Si Si4 0.500000 0.441632 0.912815
Si Si5 0.305269 0.803611 0.741125
O O1 0.233856 0.668885 0.500000
O O2 0.500000 0.666104 0.418439
O O3 0.277120 0.599257 0.400887
O O4 0.233939 0.685607 0.346492
O O5 0.217582 0.434753 0.267286
O O6 0.331177 0.424196 0.128589
O O7 0.255588 0.349626 0.210491
O O8 0.000000 0.406125 0.169258
O O9 0.500000 0.056066 0.371823
O O10 0.241332 0.000000 0.374750
O O11 0.500000 0.500000 0.910561
O O12 0.500000 0.425473 0.000000
O O13 0.500000 0.805710 0.749142
O O14 0.250000 0.750000 0.763393
#
# Coordination Sequence:
#
# PCOD9491126 Si02
#       5
#    16  16  16   8  16
#     4  10  21  34  47  70 108 146 183 233 287 337
#     4   9  20  38  58  85 119 152 188 240 284 332
#     4   9  18  32  51  74 100 139 191 237 284 336
#     4  11  24  38  60  94 123 157 193 221 279 348
#     4  10  21  36  59  86 105 140 192 236 289 339
#
# _framework density 18.39209
#
# number of rings (size 3 to 8) (size 9 to 14) (size 15 to 20)
#    0.000    2.333    0.000    3.333    7.778    4.889 
#    0.000    3.333    0.000    0.667    0.000    0.000 
#    0.000    0.000    0.000    0.000    0.000    0.000 
#
# Total GULP energy -200761.777536 kJ/mol
# GULP energy per Si atom -5576.716043 kJ/mol
# Density = 1.835023 g / cm^3
# Si number density = 18.392090 Si / 1000 Ang^3
#
#
#
# Elastic Constant Matrix: (Units=GPa)
#
#
# Indices 1 2 3 4 5 6 
#
# 1 35.4535 6.8473 27.8690 0.0000 0.0000 0.0000
# 2 6.8473 74.0759 1.7185 0.0000 0.0000 0.0000
# 3 27.8690 1.7185 68.1218 0.0000 0.0000 0.0000
# 4 0.0000 0.0000 0.0000 3.2762 0.0000 0.0000
# 5 0.0000 0.0000 0.0000 0.0000 5.3588 0.0000
# 6 0.0000 0.0000 0.0000 0.0000 0.0000 30.1278
#
#
#
# Elastic Compliance Matrix: (Units=1/GPa)
#
#
# Indices 1 2 3 4 5 6 
#
# 1 0.042477 -0.003525 -0.017289 0.000000 0.000000 0.000000
# 2 -0.003525 0.013800 0.001094 0.000000 0.000000 0.000000
# 3 -0.017289 0.001094 0.021725 0.000000 0.000000 0.000000
# 4 0.000000 0.000000 0.000000 0.305232 0.000000 0.000000
# 5 0.000000 0.000000 0.000000 0.000000 0.186609 0.000000
# 6 0.000000 0.000000 0.000000 0.000000 0.000000 0.033192
#
#
# Mechanical properties :
#
#
# Convention : Reuss Voigt Hill
#
# Bulk Modulus (GPa) = 25.93210 27.83563 26.88387
# Shear Modulus (GPa) = 7.62977 17.16699 12.39838
#
# Velocity S-wave (km/s) = 2.03897 3.05846 2.59919
# Velocity P-wave (km/s) = 4.43547 5.25734 4.86380
#
# Compressibility (1/GPa) = 0.03856224
#
# Stress axis : x y z
#
# Youngs Moduli (GPa) = 23.54223 72.46294 46.03019
#
# Poissons Ratio (x) = 0.25545 0.79580
# Poissons Ratio (y) = 0.08299 -0.05036
# Poissons Ratio (z) = 0.40701 -0.07928
#
# Static dielectric constant tensor:
#      x y z
#    x 1.641990 0.000000 0.000000 
#    y 0.000000 1.533190 0.000000 
#    z 0.000000 0.000000 1.648770 
# 
# From -- ./inp_files/36596.got.cif
#   From: 2010.05.17/outbox.cif.g08.bks.cpg/sg65_19_cif.got.tgz:36596.got - 2010.06.03 17:01:31.
