data_PCOD9491887
_publ_section_title
;
Structure prediction by ZEFSAII (Michael W. Deem and Ramdas Pophale) SiO2 
 PCOD9491887
Probable space group: C M M M
;
_chemical_formula_sum "Si O2"
_cell_formula_units_Z 92
_cell_length_a 22.809760
_cell_length_b 29.087462
_cell_length_c 7.796690
_cell_angle_alpha 90.000000
_cell_angle_beta 90.000000
_cell_angle_gamma 90.000000
_cell_volume 5172.932500
_symmetry_space_group_name_H-M "C M M M"
_symmetry_group_IT_number 65
_symmetry_cell_setting 'orthorhombic'
loop_
_space_group_symop_operation_xyz
x,y,z
-x,-y,z
x,-y,-z
-x,y,-z
-x,-y,-z
x,y,-z
-x,y,z
x,-y,z
1/2+x,1/2+y,z
1/2-x,1/2-y,z
1/2+x,1/2-y,-z
1/2-x,1/2+y,-z
1/2-x,1/2-y,-z
1/2+x,1/2+y,-z
1/2-x,1/2+y,z
1/2+x,1/2-y,z
loop_
_atom_site_type_symbol
_atom_site_label
_atom_site_fract_x
_atom_site_fract_y
_atom_site_fract_z
Si Si1 0.084032 0.798915 0.196798
Si Si2 0.284696 0.705348 0.301507
Si Si3 0.000000 0.171158 0.500000
Si Si4 0.000000 0.555727 0.804040
Si Si5 0.063917 0.690239 0.205727
Si Si6 0.370225 0.052390 0.298864
Si Si7 0.817725 0.356359 0.199277
O O1 0.154084 0.803442 0.210234
O O2 0.050753 0.825889 0.346421
O O3 0.069271 0.744974 0.229454
O O4 0.066814 0.809557 0.000000
O O5 0.298758 0.715233 0.500000
O O6 0.250000 0.750000 0.231921
O O7 0.239563 0.663297 0.288779
O O8 0.937830 0.568463 0.724150
O O9 0.000000 0.500000 0.800046
O O10 0.000000 0.571695 0.000000
O O11 0.122846 0.666750 0.273422
O O12 0.000000 0.675072 0.273008
O O13 0.063498 0.681735 0.000000
O O14 0.357566 0.051522 0.500000
O O15 0.328379 0.089393 0.212928
O O16 0.365817 0.000000 0.231746
O O17 0.812903 0.343083 0.000000
#
# Coordination Sequence:
#
# PCOD9491887 Si02
#       7
#    16  16   4   8  16  16  16
#     4  11  21  36  56  76 105 142 180 227 272 320
#     4  11  22  36  54  77 107 143 184 223 265 323
#     4  12  22  36  52  82 104 140 180 222 268 336
#     4   9  17  31  52  73  93 123 168 218 272 328
#     4   9  18  32  48  69  99 134 176 223 271 315
#     4  10  21  37  52  70  98 131 169 221 278 327
#     4  11  22  34  53  76 101 136 180 225 271 320
#
# _framework density 17.784884000000002
#
# number of rings (size 3 to 8) (size 9 to 14) (size 15 to 20)
#    0.000    1.652    3.478    2.087    1.217    2.783 
#    1.565    0.000    0.000    0.000    0.000    0.000 
#    0.000    0.000    0.000    1.565    0.000    6.696 
#
# Total GULP energy -256307.472962 kJ/mol
# GULP energy per Si atom -5571.901586 kJ/mol
# Density = 1.774440 g / cm^3
# Si number density = 17.784884 Si / 1000 Ang^3
#
#
#
# Elastic Constant Matrix: (Units=GPa)
#
#
# Indices 1 2 3 4 5 6 
#
# 1 131.7265 27.0502 18.6795 0.0000 0.0000 0.0000
# 2 27.0502 43.8201 -0.4873 0.0000 0.0000 0.0000
# 3 18.6795 -0.4873 71.4576 0.0000 0.0000 0.0000
# 4 0.0000 0.0000 0.0000 13.2056 0.0000 0.0000
# 5 0.0000 0.0000 0.0000 0.0000 10.7624 0.0000
# 6 0.0000 0.0000 0.0000 0.0000 0.0000 19.8830
#
#
#
# Elastic Compliance Matrix: (Units=1/GPa)
#
#
# Indices 1 2 3 4 5 6 
#
# 1 0.009092 -0.005639 -0.002415 0.000000 0.000000 0.000000
# 2 -0.005639 0.026320 0.001654 0.000000 0.000000 0.000000
# 3 -0.002415 0.001654 0.014637 0.000000 0.000000 0.000000
# 4 0.000000 0.000000 0.000000 0.075726 0.000000 0.000000
# 5 0.000000 0.000000 0.000000 0.000000 0.092916 0.000000
# 6 0.000000 0.000000 0.000000 0.000000 0.000000 0.050294
#
#
# Mechanical properties :
#
#
# Convention : Reuss Voigt Hill
#
# Bulk Modulus (GPa) = 26.84753 37.49876 32.17314
# Shear Modulus (GPa) = 16.99510 22.22099 19.60804
#
# Velocity S-wave (km/s) = 3.09462 3.53856 3.32401
# Velocity P-wave (km/s) = 5.28180 6.15026 5.73250
#
# Compressibility (1/GPa) = 0.03724737
#
# Stress axis : x y z
#
# Youngs Moduli (GPa) = 109.98656 37.99370 68.32033
#
# Poissons Ratio (x) = 0.21426 0.16501
# Poissons Ratio (y) = 0.62025 -0.11298
# Poissons Ratio (z) = 0.26564 -0.06283
#
# Static dielectric constant tensor:
#      x y z
#    x 1.620480 0.000000 0.000000 
#    y 0.000000 1.615920 0.000000 
#    z 0.000000 0.000000 1.668260 
# 
# From -- ./inp_files/12340.got.cif
#   From: 2010.05.17/outbox.cif.g08.bks.cpg/sg65_7_cif.got.tgz:12340.got - 2010.06.03 17:01:31.
