data_PCOD9491194
_publ_section_title
;
Structure prediction by ZEFSAII (Michael W. Deem and Ramdas Pophale) SiO2 
 PCOD9491194
Probable space group: C M M M
;
_chemical_formula_sum "Si O2"
_cell_formula_units_Z 58
_cell_length_a 24.307160
_cell_length_b 15.245985
_cell_length_c 7.785358
_cell_angle_alpha 90.000000
_cell_angle_beta 90.000000
_cell_angle_gamma 90.000000
_cell_volume 2885.149326
_symmetry_space_group_name_H-M "C M M M"
_symmetry_group_IT_number 65
_symmetry_cell_setting 'orthorhombic'
loop_
_space_group_symop_operation_xyz
x,y,z
-x,-y,z
x,-y,-z
-x,y,-z
-x,-y,-z
x,y,-z
-x,y,z
x,-y,z
1/2+x,1/2+y,z
1/2-x,1/2-y,z
1/2+x,1/2-y,-z
1/2-x,1/2+y,-z
1/2-x,1/2-y,-z
1/2+x,1/2+y,-z
1/2-x,1/2+y,z
1/2+x,1/2-y,z
loop_
_atom_site_type_symbol
_atom_site_label
_atom_site_fract_x
_atom_site_fract_y
_atom_site_fract_z
Si Si1 0.804676 0.100919 0.703299
Si Si2 0.500000 0.500000 0.000000
Si Si3 0.320643 0.100140 0.208037
Si Si4 0.393217 0.258915 0.198495
Si Si5 0.500000 0.355912 0.689543
O O1 0.815721 0.104047 0.500000
O O2 0.740963 0.124199 0.733843
O O3 0.845922 0.166927 0.793437
O O4 0.812318 0.000000 0.762404
O O5 0.500000 0.576165 0.152727
O O6 0.365202 0.170437 0.268307
O O7 0.331226 0.000000 0.263381
O O8 0.320431 0.102163 0.000000
O O9 0.445944 0.295966 0.293720
O O10 0.408640 0.244120 0.000000
O O11 0.500000 0.397370 0.500000
#
# Coordination Sequence:
#
# PCOD9491194 Si02
#       5
#    16   2  16  16   8
#     4  10  21  34  53  85 121 158 202 253 314 378
#     4  12  26  52  68  94 126 168 206 260 296 368
#     4   9  19  37  60  86 117 160 206 255 314 373
#     4  11  22  39  60  86 122 161 207 260 311 369
#     4  12  27  45  68  95 126 164 208 254 308 366
#
# _framework density 20.102947
#
# number of rings (size 3 to 8) (size 9 to 14) (size 15 to 20)
#    0.000    1.655    1.379    2.690    1.931    7.172 
#    0.000    0.690    0.000    4.138    0.000    0.000 
#    0.000    0.000    0.000    0.000    0.000    0.000 
#
# Total GULP energy -161820.435066 kJ/mol
# GULP energy per Si atom -5580.015002 kJ/mol
# Density = 2.005719 g / cm^3
# Si number density = 20.102947 Si / 1000 Ang^3
#
#
#
# Elastic Constant Matrix: (Units=GPa)
#
#
# Indices 1 2 3 4 5 6 
#
# 1 110.1538 81.0818 21.3548 0.0000 0.0000 0.0000
# 2 81.0818 96.8306 20.1431 0.0000 0.0000 0.0000
# 3 21.3548 20.1431 86.2362 0.0000 0.0000 0.0000
# 4 0.0000 0.0000 0.0000 6.6273 0.0000 0.0000
# 5 0.0000 0.0000 0.0000 0.0000 34.0951 0.0000
# 6 0.0000 0.0000 0.0000 0.0000 0.0000 -17.2451
#
#
#
# Elastic Compliance Matrix: (Units=1/GPa)
#
#
# Indices 1 2 3 4 5 6 
#
# 1 0.023802 -0.019660 -0.001302 0.000000 0.000000 0.000000
# 2 -0.019660 0.027093 -0.001460 0.000000 0.000000 0.000000
# 3 -0.001302 -0.001460 0.012260 0.000000 0.000000 0.000000
# 4 0.000000 0.000000 0.000000 0.150891 0.000000 0.000000
# 5 0.000000 0.000000 0.000000 0.000000 0.029330 0.000000
# 6 0.000000 0.000000 0.000000 0.000000 0.000000 -0.057988
#
#
# Mechanical properties :
#
#
# Convention : Reuss Voigt Hill
#
# Bulk Modulus (GPa) = 54.61195 59.82000 57.21597
# Shear Modulus (GPa) = 21.15641 16.07151 18.61396
#
# Velocity S-wave (km/s) = 3.24760 2.83054 3.04621
# Velocity P-wave (km/s) = 6.42554 6.36428 6.39498
#
# Compressibility (1/GPa) = 0.01831101
#
# Stress axis : x y z
#
# Youngs Moduli (GPa) = 42.01379 36.90956 81.56934
#
# Poissons Ratio (x) = 0.72563 0.10620
# Poissons Ratio (y) = 0.82598 0.11910
# Poissons Ratio (z) = 0.05470 0.05389
#
# Static dielectric constant tensor:
#      x y z
#    x 1.673710 0.000000 0.000000 
#    y 0.000000 1.712050 0.000000 
#    z 0.000000 0.000000 1.730610 
# 
# From -- ./inp_files/13266.got.cif
#   From: 2010.05.17/outbox.cif.g08.bks.cpg/sg65_7_cif.got.tgz:13266.got - 2010.06.03 17:01:31.
