data_PCOD9491709
_publ_section_title
;
Structure prediction by ZEFSAII (Michael W. Deem and Ramdas Pophale) SiO2 
 PCOD9491709
Probable space group: C M M M
;
_chemical_formula_sum "Si O2"
_cell_formula_units_Z 64
_cell_length_a 28.192180
_cell_length_b 10.200668
_cell_length_c 13.829314
_cell_angle_alpha 90.000000
_cell_angle_beta 90.000000
_cell_angle_gamma 90.000000
_cell_volume 3977.021236
_symmetry_space_group_name_H-M "C M M M"
_symmetry_group_IT_number 65
_symmetry_cell_setting 'orthorhombic'
loop_
_space_group_symop_operation_xyz
x,y,z
-x,-y,z
x,-y,-z
-x,y,-z
-x,-y,-z
x,y,-z
-x,y,z
x,-y,z
1/2+x,1/2+y,z
1/2-x,1/2-y,z
1/2+x,1/2-y,-z
1/2-x,1/2+y,-z
1/2-x,1/2-y,-z
1/2+x,1/2+y,-z
1/2-x,1/2+y,z
1/2+x,1/2-y,z
loop_
_atom_site_type_symbol
_atom_site_label
_atom_site_fract_x
_atom_site_fract_y
_atom_site_fract_z
Si Si1 0.705327 0.655678 0.384793
Si Si2 0.146989 0.238144 0.212893
Si Si3 0.798606 0.000000 0.886853
Si Si4 0.185452 0.500000 0.884197
Si Si5 0.054851 0.158169 0.888692
O O1 0.698090 0.664291 0.500000
O O2 0.713281 0.500000 0.362058
O O3 0.750000 0.750000 0.359948
O O4 0.661343 0.711996 0.323692
O O5 0.177244 0.126819 0.158150
O O6 0.164373 0.374334 0.169326
O O7 0.092362 0.217258 0.185211
O O8 0.742304 0.000000 0.872857
O O9 0.808546 0.000000 0.000000
O O10 0.175354 0.500000 0.000000
O O11 0.000000 0.194157 0.871267
O O12 0.058044 0.000000 0.883529
O O13 0.066915 0.195011 0.000000
#
# Coordination Sequence:
#
# PCOD9491709 Si02
#       5
#    16  16   8   8  16
#     4  10  21  36  55  79 106 138 179 225 268 315
#     4  12  21  34  53  75 104 144 176 218 268 310
#     4  11  20  32  50  72 102 139 176 206 252 319
#     4  11  24  34  46  76 114 143 174 212 258 325
#     4   9  17  31  53  78 101 132 179 225 263 313
#
# _framework density 16.092447
#
# number of rings (size 3 to 8) (size 9 to 14) (size 15 to 20)
#    0.000    1.500    2.500    5.250    1.750    2.000 
#    0.000    0.625    0.000    3.000    0.000    3.500 
#    0.000    2.000    0.000    0.000    0.000    0.000 
#
# Total GULP energy -178594.365176 kJ/mol
# GULP energy per Si atom -5581.073912 kJ/mol
# Density = 1.605582 g / cm^3
# Si number density = 16.092447 Si / 1000 Ang^3
#
#
#
# Elastic Constant Matrix: (Units=GPa)
#
#
# Indices 1 2 3 4 5 6 
#
# 1 86.6660 32.1141 47.2797 0.0000 0.0000 0.0000
# 2 32.1141 112.7722 32.4145 0.0000 0.0000 0.0000
# 3 47.2797 32.4145 71.5975 0.0000 0.0000 0.0000
# 4 0.0000 0.0000 0.0000 23.9510 0.0000 0.0000
# 5 0.0000 0.0000 0.0000 0.0000 26.4723 0.0000
# 6 0.0000 0.0000 0.0000 0.0000 0.0000 6.8910
#
#
#
# Elastic Compliance Matrix: (Units=1/GPa)
#
#
# Indices 1 2 3 4 5 6 
#
# 1 0.018425 -0.002011 -0.011256 0.000000 0.000000 0.000000
# 2 -0.002011 0.010414 -0.003386 0.000000 0.000000 0.000000
# 3 -0.011256 -0.003386 0.022933 0.000000 0.000000 0.000000
# 4 0.000000 0.000000 0.000000 0.041752 0.000000 0.000000
# 5 0.000000 0.000000 0.000000 0.000000 0.037775 0.000000
# 6 0.000000 0.000000 0.000000 0.000000 0.000000 0.145116
#
#
# Mechanical properties :
#
#
# Convention : Reuss Voigt Hill
#
# Bulk Modulus (GPa) = 54.16076 54.96136 54.56106
# Shear Modulus (GPa) = 15.82896 22.07801 18.95348
#
# Velocity S-wave (km/s) = 3.13968 3.70800 3.43561
# Velocity P-wave (km/s) = 6.84635 7.24983 7.05098
#
# Compressibility (1/GPa) = 0.01846355
#
# Stress axis : x y z
#
# Youngs Moduli (GPa) = 54.27551 96.02868 43.60517
#
# Poissons Ratio (x) = 0.19315 0.49082
# Poissons Ratio (y) = 0.10917 0.14766
# Poissons Ratio (z) = 0.61093 0.32518
#
# Static dielectric constant tensor:
#      x y z
#    x 1.529680 0.000000 0.000000 
#    y 0.000000 1.534720 0.000000 
#    z 0.000000 0.000000 1.563410 
# 
# From -- ./inp_files/36340.got.cif
#   From: 2010.05.17/outbox.cif.g08.bks.cpg/sg65_19_cif.got.tgz:36340.got - 2010.06.03 17:01:31.
