data_PCOD9491409
_publ_section_title
;
Structure prediction by ZEFSAII (Michael W. Deem and Ramdas Pophale) SiO2 
 PCOD9491409
Probable space group: C M M M
;
_chemical_formula_sum "Si O2"
_cell_formula_units_Z 80
_cell_length_a 9.692033
_cell_length_b 20.577118
_cell_length_c 22.327991
_cell_angle_alpha 90.000000
_cell_angle_beta 90.000000
_cell_angle_gamma 90.000000
_cell_volume 4452.962940
_symmetry_space_group_name_H-M "C M M M"
_symmetry_group_IT_number 65
_symmetry_cell_setting 'orthorhombic'
loop_
_space_group_symop_operation_xyz
x,y,z
-x,-y,z
x,-y,-z
-x,y,-z
-x,-y,-z
x,y,-z
-x,y,z
x,-y,z
1/2+x,1/2+y,z
1/2-x,1/2-y,z
1/2+x,1/2-y,-z
1/2-x,1/2+y,-z
1/2-x,1/2-y,-z
1/2+x,1/2+y,-z
1/2-x,1/2+y,z
1/2+x,1/2-y,z
loop_
_atom_site_type_symbol
_atom_site_label
_atom_site_fract_x
_atom_site_fract_y
_atom_site_fract_z
Si Si1 0.161640 0.809635 0.189728
Si Si2 0.663505 0.426477 0.722915
Si Si3 0.333573 0.818580 0.500000
Si Si4 0.844433 0.500000 0.072409
Si Si5 0.664770 0.925265 0.601731
Si Si6 0.837740 0.875691 0.930812
O O1 0.250000 0.750000 0.212076
O O2 0.196599 0.874344 0.226429
O O3 0.185632 0.821714 0.119242
O O4 0.000000 0.796752 0.198051
O O5 0.500000 0.420900 0.709040
O O6 0.688346 0.500000 0.744540
O O7 0.751673 0.416489 0.663058
O O8 0.500000 0.805827 0.500000
O O9 0.250000 0.750000 0.500000
O O10 0.302317 0.866627 0.443828
O O11 0.757269 0.436226 0.086755
O O12 0.000000 0.500000 0.096627
O O13 0.853608 0.500000 0.000000
O O14 0.500000 0.922837 0.612198
O O15 0.694023 0.000000 0.579818
O O16 0.000000 0.894430 0.927434
O O17 0.809757 0.857168 0.000000
#
# Coordination Sequence:
#
# PCOD9491409 Si02
#       6
#    16  16   8   8  16  16
#     4  10  22  37  54  76 106 141 177 220 270 323
#     4   9  19  36  57  79 104 138 179 222 267 315
#     4  10  21  35  53  81 115 148 178 214 260 310
#     4   9  17  29  47  75 105 129 159 208 265 310
#     4   9  18  35  58  81 106 139 180 222 262 306
#     4   9  18  33  53  75 100 136 179 217 262 325
#
# _framework density 17.965565999999999
#
# number of rings (size 3 to 8) (size 9 to 14) (size 15 to 20)
#    0.000    2.700    0.000    0.600    1.400    6.000 
#    0.000    4.000    0.000    3.000    0.000    0.000 
#    0.000    0.000    0.000    0.000    0.000    0.000 
#
# Total GULP energy -222886.361044 kJ/mol
# GULP energy per Si atom -5572.159026 kJ/mol
# Density = 1.792468 g / cm^3
# Si number density = 17.965566 Si / 1000 Ang^3
#
#
#
# Elastic Constant Matrix: (Units=GPa)
#
#
# Indices 1 2 3 4 5 6 
#
# 1 38.9462 70.2809 45.3047 0.0000 0.0000 0.0000
# 2 70.2809 142.6803 74.0001 0.0000 0.0000 0.0000
# 3 45.3047 74.0001 86.8288 0.0000 0.0000 0.0000
# 4 0.0000 0.0000 0.0000 2.6786 0.0000 0.0000
# 5 0.0000 0.0000 0.0000 0.0000 22.0892 0.0000
# 6 0.0000 0.0000 0.0000 0.0000 0.0000 29.5958
#
#
#
# Elastic Compliance Matrix: (Units=1/GPa)
#
#
# Indices 1 2 3 4 5 6 
#
# 1 0.369079 -0.146817 -0.067449 0.000000 0.000000 0.000000
# 2 -0.146817 0.070964 0.016126 0.000000 0.000000 0.000000
# 3 -0.067449 0.016126 0.032966 0.000000 0.000000 0.000000
# 4 0.000000 0.000000 0.000000 0.373323 0.000000 0.000000
# 5 0.000000 0.000000 0.000000 0.000000 0.045271 0.000000
# 6 0.000000 0.000000 0.000000 0.000000 0.000000 0.033789
#
#
# Mechanical properties :
#
#
# Convention : Reuss Voigt Hill
#
# Bulk Modulus (GPa) = 13.03304 71.95853 42.49578
# Shear Modulus (GPa) = 3.71127 16.13070 9.92098
#
# Velocity S-wave (km/s) = 1.43884 2.99969 2.35249
# Velocity P-wave (km/s) = 3.16710 7.22067 5.57533
#
# Compressibility (1/GPa) = 0.07672808
#
# Stress axis : x y z
#
# Youngs Moduli (GPa) = 2.70945 14.09168 30.33389
#
# Poissons Ratio (x) = 2.06890 2.04599
# Poissons Ratio (y) = 0.39779 -0.48916
# Poissons Ratio (z) = 0.18275 -0.22724
#
# Static dielectric constant tensor:
#      x y z
#    x 1.604960 0.000000 0.000000 
#    y 0.000000 1.606430 0.000000 
#    z 0.000000 0.000000 1.609610 
# 
# From -- ./inp_files/67289.got.cif
#   From: 2010.05.17/outbox.cif.g08.bks.cpg/sg65_34_cif.got.tgz:67289.got - 2010.06.03 17:01:31.
