data_PCOD9491331
_publ_section_title
;
Structure prediction by ZEFSAII (Michael W. Deem and Ramdas Pophale) SiO2 
 PCOD9491331
Probable space group: C M M M
;
_chemical_formula_sum "Si O2"
_cell_formula_units_Z 58
_cell_length_a 33.034467
_cell_length_b 13.827257
_cell_length_c 7.428381
_cell_angle_alpha 90.000000
_cell_angle_beta 90.000000
_cell_angle_gamma 90.000000
_cell_volume 3393.106643
_symmetry_space_group_name_H-M "C M M M"
_symmetry_group_IT_number 65
_symmetry_cell_setting 'orthorhombic'
loop_
_space_group_symop_operation_xyz
x,y,z
-x,-y,z
x,-y,-z
-x,y,-z
-x,-y,-z
x,y,-z
-x,y,z
x,-y,z
1/2+x,1/2+y,z
1/2-x,1/2-y,z
1/2+x,1/2-y,-z
1/2-x,1/2+y,-z
1/2-x,1/2-y,-z
1/2+x,1/2+y,-z
1/2-x,1/2+y,z
1/2+x,1/2-y,z
loop_
_atom_site_type_symbol
_atom_site_label
_atom_site_fract_x
_atom_site_fract_y
_atom_site_fract_z
Si Si1 0.297289 0.729928 0.500000
Si Si2 0.132804 0.386000 0.500000
Si Si3 0.500000 0.500000 0.500000
Si Si4 0.586617 0.765533 0.211748
Si Si5 0.500000 0.678561 0.783873
Si Si6 0.155090 0.887736 0.213343
O O1 0.250000 0.750000 0.500000
O O2 0.325016 0.826403 0.500000
O O3 0.311134 0.667129 0.327923
O O4 0.138945 0.500000 0.500000
O O5 0.106846 0.348875 0.329572
O O6 0.500000 0.584986 0.658285
O O7 0.540360 0.740643 0.252930
O O8 0.613288 0.669084 0.249419
O O9 0.590242 0.786846 0.000000
O O10 0.500000 0.654866 0.000000
O O11 0.152004 0.000000 0.263440
O O12 0.163064 0.881649 0.000000
#
# Coordination Sequence:
#
# PCOD9491331 Si02
#       6
#     8   8   2  16   8  16
#     4  10  21  36  55  78 106 135 165 213 267 322
#     4  10  21  37  56  78 102 137 184 225 268 316
#     4  12  22  28  44  78 114 144 178 216 268 314
#     4   9  19  36  54  75 108 144 179 220 263 308
#     4  10  21  35  51  76 112 148 184 223 264 314
#     4   9  18  33  54  78 105 137 169 204 254 318
#
# _framework density 17.093481000000001
#
# number of rings (size 3 to 8) (size 9 to 14) (size 15 to 20)
#    0.000    2.483    0.000    1.448    1.931    2.207 
#    0.000    1.379    0.000    2.483    0.000    0.000 
#    0.000    0.000    0.000    0.000    0.000    0.000 
#
# Total GULP energy -161518.178237 kJ/mol
# GULP energy per Si atom -5569.592353 kJ/mol
# Density = 1.705458 g / cm^3
# Si number density = 17.093481 Si / 1000 Ang^3
#
#
#
# Elastic Constant Matrix: (Units=GPa)
#
#
# Indices 1 2 3 4 5 6 
#
# 1 149.3368 60.5205 50.3503 0.0000 0.0000 0.0000
# 2 60.5205 149.5781 55.3030 0.0000 0.0000 0.0000
# 3 50.3503 55.3030 69.7746 0.0000 0.0000 0.0000
# 4 0.0000 0.0000 0.0000 15.7222 0.0000 0.0000
# 5 0.0000 0.0000 0.0000 0.0000 15.5802 0.0000
# 6 0.0000 0.0000 0.0000 0.0000 0.0000 2.0130
#
#
#
# Elastic Compliance Matrix: (Units=1/GPa)
#
#
# Indices 1 2 3 4 5 6 
#
# 1 0.009176 -0.001789 -0.005204 0.000000 0.000000 0.000000
# 2 -0.001789 0.009805 -0.006481 0.000000 0.000000 0.000000
# 3 -0.005204 -0.006481 0.023224 0.000000 0.000000 0.000000
# 4 0.000000 0.000000 0.000000 0.063604 0.000000 0.000000
# 5 0.000000 0.000000 0.000000 0.000000 0.064184 0.000000
# 6 0.000000 0.000000 0.000000 0.000000 0.000000 0.496781
#
#
# Mechanical properties :
#
#
# Convention : Reuss Voigt Hill
#
# Bulk Modulus (GPa) = 65.53849 77.89302 71.71575
# Shear Modulus (GPa) = 7.15506 20.16412 13.65959
#
# Velocity S-wave (km/s) = 2.04815 3.43831 2.82992
# Velocity P-wave (km/s) = 6.63458 7.83776 7.26113
#
# Compressibility (1/GPa) = 0.01525821
#
# Stress axis : x y z
#
# Youngs Moduli (GPa) = 108.98516 101.98511 43.05956
#
# Poissons Ratio (x) = 0.18241 0.22406
# Poissons Ratio (y) = 0.19493 0.27907
# Poissons Ratio (z) = 0.56711 0.66096
#
# Static dielectric constant tensor:
#      x y z
#    x 1.612660 0.000000 0.000000 
#    y 0.000000 1.543110 0.000000 
#    z 0.000000 0.000000 1.609270 
# 
# From -- ./inp_files/17741.got.cif
#   From: 2010.05.17/outbox.cif.g08.bks.cpg/sg65_9_cif.got.tgz:17741.got - 2010.06.03 17:01:31.
