data_PCOD9491518
_publ_section_title
;
Structure prediction by ZEFSAII (Michael W. Deem and Ramdas Pophale) SiO2 
 PCOD9491518
Probable space group: C M M M
;
_chemical_formula_sum "Si O2"
_cell_formula_units_Z 88
_cell_length_a 18.573555
_cell_length_b 14.600569
_cell_length_c 15.866301
_cell_angle_alpha 90.000000
_cell_angle_beta 90.000000
_cell_angle_gamma 90.000000
_cell_volume 4302.694449
_symmetry_space_group_name_H-M "C M M M"
_symmetry_group_IT_number 65
_symmetry_cell_setting 'orthorhombic'
loop_
_space_group_symop_operation_xyz
x,y,z
-x,-y,z
x,-y,-z
-x,y,-z
-x,-y,-z
x,y,-z
-x,y,z
x,-y,z
1/2+x,1/2+y,z
1/2-x,1/2-y,z
1/2+x,1/2-y,-z
1/2-x,1/2+y,-z
1/2-x,1/2-y,-z
1/2+x,1/2+y,-z
1/2-x,1/2+y,z
1/2+x,1/2-y,z
loop_
_atom_site_type_symbol
_atom_site_label
_atom_site_fract_x
_atom_site_fract_y
_atom_site_fract_z
Si Si1 0.081841 0.257578 0.376650
Si Si2 0.912954 0.897954 0.500000
Si Si3 0.359371 0.399969 0.099051
Si Si4 0.581316 0.217862 0.179677
Si Si5 0.270996 0.142517 0.782226
Si Si6 0.779674 0.645664 0.592562
O O1 0.106883 0.163156 0.419699
O O2 0.083594 0.248787 0.276748
O O3 0.134321 0.338104 0.404153
O O4 0.000000 0.274412 0.402459
O O5 0.000000 0.903892 0.500000
O O6 0.884997 0.000000 0.500000
O O7 0.395252 0.500000 0.113789
O O8 0.402440 0.308440 0.124935
O O9 0.286740 0.398542 0.154349
O O10 0.342847 0.393821 0.000000
O O11 0.500000 0.183622 0.162459
O O12 0.647629 0.145357 0.180020
O O13 0.250000 0.250000 0.776888
O O14 0.263567 0.106472 0.685838
O O15 0.760441 0.606582 0.500000
O O16 0.750000 0.750000 0.592865
#
# Coordination Sequence:
#
# PCOD9491518 Si02
#       6
#    16   8  16  16  16  16
#     4   9  16  27  41  61  92 126 157 190 229 278
#     4   9  16  24  35  54  84 126 167 188 206 255
#     4  10  21  36  53  70  93 131 170 202 246 307
#     4   9  18  31  50  76 103 126 156 204 253 289
#     4   8  16  31  49  71  95 125 167 204 238 288
#     4   9  15  24  42  65  88 118 153 196 242 275
#
# _framework density 20.452300000000001
#
# number of rings (size 3 to 8) (size 9 to 14) (size 15 to 20)
#    0.000    3.000    0.909    1.091    0.000    4.727 
#    0.000    2.727    0.000    1.091    0.000    1.273 
#    0.000    0.000    0.000    9.091    0.000    0.000 
#
# Total GULP energy -244970.708481 kJ/mol
# GULP energy per Si atom -5567.516102 kJ/mol
# Density = 2.040575 g / cm^3
# Si number density = 20.452300 Si / 1000 Ang^3
#
#
#
# Elastic Constant Matrix: (Units=GPa)
#
#
# Indices 1 2 3 4 5 6 
#
# 1 96.6254 -6.0521 9.7458 0.0000 0.0000 0.0000
# 2 -6.0521 30.8778 6.8719 0.0000 0.0000 0.0000
# 3 9.7458 6.8719 104.2932 0.0000 0.0000 0.0000
# 4 0.0000 0.0000 0.0000 -254.0606 0.0000 0.0000
# 5 0.0000 0.0000 0.0000 0.0000 8.1165 0.0000
# 6 0.0000 0.0000 0.0000 0.0000 0.0000 10.6271
#
#
#
# Elastic Compliance Matrix: (Units=1/GPa)
#
#
# Indices 1 2 3 4 5 6 
#
# 1 0.010611 0.002335 -0.001145 0.000000 0.000000 0.000000
# 2 0.002335 0.033381 -0.002418 0.000000 0.000000 0.000000
# 3 -0.001145 -0.002418 0.009855 0.000000 0.000000 0.000000
# 4 0.000000 0.000000 0.000000 -0.003936 0.000000 0.000000
# 5 0.000000 0.000000 0.000000 0.000000 0.123206 0.000000
# 6 0.000000 0.000000 0.000000 0.000000 0.000000 0.094099
#
#
# Mechanical properties :
#
#
# Convention : Reuss Voigt Hill
#
# Bulk Modulus (GPa) = 19.45892 28.10307 23.78099
# Shear Modulus (GPa) = 17.43360 -32.31469 -7.44055
#
# Velocity S-wave (km/s) = 2.92276 -3.97924 -1.90942
# Velocity P-wave (km/s) = 4.57438 2.70958 2.60607
#
# Compressibility (1/GPa) = 0.05139031
#
# Stress axis : x y z
#
# Youngs Moduli (GPa) = 94.24174 29.95682 101.47449
#
# Poissons Ratio (x) = -0.06994 0.11623
# Poissons Ratio (y) = -0.22003 0.24533
# Poissons Ratio (z) = 0.10794 0.07243
#
# Static dielectric constant tensor:
#      x y z
#    x 1.817590 0.000000 0.000000 
#    y 0.000000 1.713990 0.000000 
#    z 0.000000 0.000000 1.743330 
# 
# From -- ./inp_files/42714.got.cif
#   From: 2010.05.17/outbox.cif.g08.bks.cpg/sg65_22_cif.got.tgz:42714.got - 2010.06.03 17:01:31.
