data_PCOD9491076
_publ_section_title
;
Structure prediction by ZEFSAII (Michael W. Deem and Ramdas Pophale) SiO2 
 PCOD9491076
Probable space group: C M M M
;
_chemical_formula_sum "Si O2"
_cell_formula_units_Z 120
_cell_length_a 28.169086
_cell_length_b 16.241339
_cell_length_c 14.548374
_cell_angle_alpha 90.000000
_cell_angle_beta 90.000000
_cell_angle_gamma 90.000000
_cell_volume 6655.934571
_symmetry_space_group_name_H-M "C M M M"
_symmetry_group_IT_number 65
_symmetry_cell_setting 'orthorhombic'
loop_
_space_group_symop_operation_xyz
x,y,z
-x,-y,z
x,-y,-z
-x,y,-z
-x,-y,-z
x,y,-z
-x,y,z
x,-y,z
1/2+x,1/2+y,z
1/2-x,1/2-y,z
1/2+x,1/2-y,-z
1/2-x,1/2+y,-z
1/2-x,1/2-y,-z
1/2+x,1/2+y,-z
1/2-x,1/2+y,z
1/2+x,1/2-y,z
loop_
_atom_site_type_symbol
_atom_site_label
_atom_site_fract_x
_atom_site_fract_y
_atom_site_fract_z
Si Si1 0.306115 0.749625 0.773426
Si Si2 0.057157 0.092249 0.392506
Si Si3 0.190463 0.409045 0.104733
Si Si4 0.942131 0.684248 0.108135
Si Si5 0.445789 0.000000 0.111240
Si Si6 0.694542 0.409284 0.104542
Si Si7 0.402273 0.749558 0.290936
Si Si8 0.056851 0.590877 0.609288
O O1 0.250000 0.750000 0.750335
O O2 0.318432 0.830883 0.832549
O O3 0.316409 0.667900 0.832626
O O4 0.345556 0.748966 0.695555
O O5 0.069898 0.103050 0.500000
O O6 0.077105 0.166596 0.333526
O O7 0.000000 0.094597 0.387495
O O8 0.072443 0.000000 0.363929
O O9 0.174532 0.500000 0.136210
O O10 0.247994 0.411998 0.100373
O O11 0.173368 0.397205 0.000000
O O12 0.925920 0.590302 0.132622
O O13 0.918338 0.742381 0.183941
O O14 0.000000 0.686652 0.116458
O O15 0.931466 0.700438 0.000000
O O16 0.500000 0.000000 0.147501
O O17 0.448517 0.000000 0.000000
O O18 0.678534 0.500000 0.136537
O O19 0.677694 0.396771 0.000000
O O20 0.422323 0.830924 0.339680
O O21 0.066550 0.596042 0.500000
O O22 0.073151 0.500000 0.642170
O O23 0.000000 0.593273 0.620387
#
# Coordination Sequence:
#
# PCOD9491076 Si02
#       8
#    16  16  16  16   8  16  16  16
#     4  10  21  33  44  65 102 142 179 224 266 299
#     4   9  19  38  64  91 111 122 147 209 288 349
#     4   8  14  27  46  64  85 122 175 230 277 310
#     4   9  18  31  46  70 108 149 184 216 248 296
#     4   7  12  26  44  60  91 143 185 207 234 274
#     4   8  14  27  48  66  81 116 173 232 284 320
#     4  12  22  31  54  81 106 143 188 218 256 315
#     4   9  19  36  58  86 116 138 160 202 264 330
#
# _framework density 18.029022999999999
#
# number of rings (size 3 to 8) (size 9 to 14) (size 15 to 20)
#    0.000    2.867    0.000    4.400    0.933    4.800 
#    0.000    0.000    0.000    2.000    0.000    3.733 
#    0.000    0.000    0.000    0.000    0.000    0.000 
#
# Total GULP energy -334414.224849 kJ/mol
# GULP energy per Si atom -5573.570414 kJ/mol
# Density = 1.798799 g / cm^3
# Si number density = 18.029023 Si / 1000 Ang^3
#
#
#
# Elastic Constant Matrix: (Units=GPa)
#
#
# Indices 1 2 3 4 5 6 
#
# 1 59.6016 42.6213 30.5599 0.0000 0.0000 0.0000
# 2 42.6213 141.8114 59.2136 0.0000 0.0000 0.0000
# 3 30.5599 59.2136 55.6294 0.0000 0.0000 0.0000
# 4 0.0000 0.0000 0.0000 41.4218 0.0000 0.0000
# 5 0.0000 0.0000 0.0000 0.0000 0.7880 0.0000
# 6 0.0000 0.0000 0.0000 0.0000 0.0000 -0.5475
#
#
#
# Elastic Compliance Matrix: (Units=1/GPa)
#
#
# Indices 1 2 3 4 5 6 
#
# 1 0.024084 -0.003085 -0.009947 0.000000 0.000000 0.000000
# 2 -0.003085 0.013088 -0.012237 0.000000 0.000000 0.000000
# 3 -0.009947 -0.012237 0.036465 0.000000 0.000000 0.000000
# 4 0.000000 0.000000 0.000000 0.024142 0.000000 0.000000
# 5 0.000000 0.000000 0.000000 0.000000 1.269026 0.000000
# 6 0.000000 0.000000 0.000000 0.000000 0.000000 -1.826371
#
#
# Mechanical properties :
#
#
# Convention : Reuss Voigt Hill
#
# Bulk Modulus (GPa) = 43.28851 57.98133 50.63492
# Shear Modulus (GPa) = -12.45867 16.64229 2.09181
#
# Velocity S-wave (km/s) = -2.63160 3.04152 1.07832
# Velocity P-wave (km/s) = 3.85082 6.67565 5.44945
#
# Compressibility (1/GPa) = 0.02310082
#
# Stress axis : x y z
#
# Youngs Moduli (GPa) = 41.52067 76.40366 27.42324
#
# Poissons Ratio (x) = 0.23573 0.27277
# Poissons Ratio (y) = 0.12810 0.33557
# Poissons Ratio (z) = 0.41299 0.93493
#
# Static dielectric constant tensor:
#      x y z
#    x 1.643610 0.000000 0.000000 
#    y 0.000000 1.636040 0.000000 
#    z 0.000000 0.000000 1.620660 
# 
# From -- ./inp_files/48127.got.cif
#   From: 2010.05.17/outbox.cif.g08.bks.cpg/sg65_25_cif.got.tgz:48127.got - 2010.06.03 17:01:31.
