data_PCOD9491296
_publ_section_title
;
Structure prediction by ZEFSAII (Michael W. Deem and Ramdas Pophale) SiO2 
 PCOD9491296
Probable space group: C M M M
;
_chemical_formula_sum "Si O2"
_cell_formula_units_Z 80
_cell_length_a 7.748313
_cell_length_b 18.469959
_cell_length_c 28.913929
_cell_angle_alpha 90.000000
_cell_angle_beta 90.000000
_cell_angle_gamma 90.000000
_cell_volume 4137.901971
_symmetry_space_group_name_H-M "C M M M"
_symmetry_group_IT_number 65
_symmetry_cell_setting 'orthorhombic'
loop_
_space_group_symop_operation_xyz
x,y,z
-x,-y,z
x,-y,-z
-x,y,-z
-x,-y,-z
x,y,-z
-x,y,z
x,-y,z
1/2+x,1/2+y,z
1/2-x,1/2-y,z
1/2+x,1/2-y,-z
1/2-x,1/2+y,-z
1/2-x,1/2-y,-z
1/2+x,1/2+y,-z
1/2-x,1/2+y,z
1/2+x,1/2-y,z
loop_
_atom_site_type_symbol
_atom_site_label
_atom_site_fract_x
_atom_site_fract_y
_atom_site_fract_z
Si Si1 0.792639 0.835526 0.500000
Si Si2 0.708360 0.664941 0.399437
Si Si3 0.203157 0.587009 0.123305
Si Si4 0.500000 0.412041 0.947308
Si Si5 0.204853 0.665671 0.216851
Si Si6 0.794094 0.918615 0.690424
O O1 0.750000 0.750000 0.500000
O O2 0.728589 0.862139 0.449953
O O3 0.000000 0.844229 0.500000
O O4 0.500000 0.659394 0.399948
O O5 0.750000 0.750000 0.394706
O O6 0.775440 0.621311 0.355280
O O7 0.215350 0.500000 0.129392
O O8 0.329261 0.608619 0.081524
O O9 0.265165 0.625676 0.170262
O O10 0.000000 0.603860 0.115012
O O11 0.500000 0.500000 0.948935
O O12 0.500000 0.385542 0.000000
O O13 0.250000 0.750000 0.216342
O O14 0.267267 0.627543 0.263456
O O15 0.000000 0.658371 0.216791
O O16 0.000000 0.923805 0.684093
O O17 0.724849 0.000000 0.695648
#
# Coordination Sequence:
#
# PCOD9491296 Si02
#       6
#     8  16  16   8  16  16
#     4   8  14  26  45  67  93 125 165 212 261 308
#     4   9  17  30  48  71  97 129 170 216 262 316
#     4   9  19  35  55  82 114 147 185 230 275 324
#     4   9  18  32  56  88 116 148 187 226 274 324
#     4  11  23  37  55  80 105 139 178 220 268 324
#     4  10  21  35  51  73 104 138 173 216 268 322
#
# _framework density 19.333468
#
# number of rings (size 3 to 8) (size 9 to 14) (size 15 to 20)
#    0.000    2.500    0.000    1.800    2.800    4.000 
#    0.000    2.500    0.000    3.600    0.000    0.000 
#    0.000    9.600    0.000    0.000    0.000    0.000 
#
# Total GULP energy -223062.791692 kJ/mol
# GULP energy per Si atom -5576.569792 kJ/mol
# Density = 1.928946 g / cm^3
# Si number density = 19.333468 Si / 1000 Ang^3
#
#
#
# Elastic Constant Matrix: (Units=GPa)
#
#
# Indices 1 2 3 4 5 6 
#
# 1 51.5848 19.7505 49.0488 0.0000 0.0000 0.0000
# 2 19.7505 74.1471 76.9181 0.0000 0.0000 0.0000
# 3 49.0488 76.9181 227.1013 0.0000 0.0000 0.0000
# 4 0.0000 0.0000 0.0000 30.2871 0.0000 0.0000
# 5 0.0000 0.0000 0.0000 0.0000 87.5925 0.0000
# 6 0.0000 0.0000 0.0000 0.0000 0.0000 12.0697
#
#
#
# Elastic Compliance Matrix: (Units=1/GPa)
#
#
# Indices 1 2 3 4 5 6 
#
# 1 0.024518 -0.001600 -0.004754 0.000000 0.000000 0.000000
# 2 -0.001600 0.020896 -0.006732 0.000000 0.000000 0.000000
# 3 -0.004754 -0.006732 0.007710 0.000000 0.000000 0.000000
# 4 0.000000 0.000000 0.000000 0.033017 0.000000 0.000000
# 5 0.000000 0.000000 0.000000 0.000000 0.011417 0.000000
# 6 0.000000 0.000000 0.000000 0.000000 0.000000 0.082852
#
#
# Mechanical properties :
#
#
# Convention : Reuss Voigt Hill
#
# Bulk Modulus (GPa) = 37.10029 71.58534 54.34281
# Shear Modulus (GPa) = 23.19486 39.79759 31.49623
#
# Velocity S-wave (km/s) = 3.46746 4.54197 4.04059
# Velocity P-wave (km/s) = 5.93822 8.03822 7.06666
#
# Compressibility (1/GPa) = 0.02695397
#
# Stress axis : x y z
#
# Youngs Moduli (GPa) = 40.78661 47.85514 129.70046
#
# Poissons Ratio (x) = 0.07655 0.61653
# Poissons Ratio (y) = 0.06524 0.87315
# Poissons Ratio (z) = 0.19388 0.32216
#
# Static dielectric constant tensor:
#      x y z
#    x 1.705930 0.000000 0.000000 
#    y 0.000000 1.638730 0.000000 
#    z 0.000000 0.000000 1.695680 
# 
# From -- ./inp_files/72946.got.cif
#   From: 2010.05.17/outbox.cif.g08.bks.cpg/sg65_37_cif.got.tgz:72946.got - 2010.06.03 17:01:31.
