data_PCOD9491763
_publ_section_title
;
Structure prediction by ZEFSAII (Michael W. Deem and Ramdas Pophale) SiO2 
 PCOD9491763
Probable space group: C M M M
;
_chemical_formula_sum "Si O2"
_cell_formula_units_Z 104
_cell_length_a 19.892182
_cell_length_b 26.454701
_cell_length_c 9.118519
_cell_angle_alpha 90.000000
_cell_angle_beta 90.000000
_cell_angle_gamma 90.000000
_cell_volume 4798.545187
_symmetry_space_group_name_H-M "C M M M"
_symmetry_group_IT_number 65
_symmetry_cell_setting 'orthorhombic'
loop_
_space_group_symop_operation_xyz
x,y,z
-x,-y,z
x,-y,-z
-x,y,-z
-x,-y,-z
x,y,-z
-x,y,z
x,-y,z
1/2+x,1/2+y,z
1/2-x,1/2-y,z
1/2+x,1/2-y,-z
1/2-x,1/2+y,-z
1/2-x,1/2-y,-z
1/2+x,1/2+y,-z
1/2-x,1/2+y,z
1/2+x,1/2-y,z
loop_
_atom_site_type_symbol
_atom_site_label
_atom_site_fract_x
_atom_site_fract_y
_atom_site_fract_z
Si Si1 0.079748 0.402680 0.163487
Si Si2 0.712503 0.555913 0.676783
Si Si3 0.741752 0.165144 0.669058
Si Si4 0.880170 0.292303 0.824886
Si Si5 0.425653 0.413040 0.824517
Si Si6 0.917421 0.500000 0.336239
Si Si7 0.100999 0.808899 0.330783
O O1 0.089065 0.346276 0.221365
O O2 0.105022 0.449001 0.258235
O O3 0.000000 0.410754 0.151551
O O4 0.109322 0.404420 0.000000
O O5 0.705500 0.559315 0.500000
O O6 0.739397 0.500000 0.713430
O O7 0.754248 0.606251 0.718716
O O8 0.638308 0.561284 0.747551
O O9 0.716741 0.167887 0.500000
O O10 0.696422 0.199139 0.773517
O O11 0.818205 0.183916 0.668866
O O12 0.912263 0.244871 0.743240
O O13 0.886439 0.286325 0.000000
O O14 0.500000 0.434742 0.791928
O O15 0.425379 0.355677 0.763758
O O16 0.416465 0.413646 0.000000
O O17 0.891766 0.500000 0.500000
O O18 0.000000 0.500000 0.339876
O O19 0.078930 0.811480 0.500000
#
# Coordination Sequence:
#
# PCOD9491763 Si02
#       7
#    16  16  16  16  16   8  16
#     4   9  19  36  54  72 102 141 172 205 257 317
#     4   9  19  37  59  81 109 147 188 228 273 327
#     4   9  19  36  55  76 106 142 181 222 270 323
#     4  11  22  34  53  82 109 137 179 224 269 325
#     4  10  21  36  55  82 115 148 183 225 275 328
#     4   9  17  31  53  77  97 123 165 211 250 293
#     4  10  21  37  57  78 105 143 183 223 268 321
#
# _framework density 21.673234999999998
#
# number of rings (size 3 to 8) (size 9 to 14) (size 15 to 20)
#    0.000    2.385    0.000    3.000    0.000    9.538 
#    1.385    3.077    0.000    0.000    0.000    0.000 
#    0.000    0.000    0.000    0.000    0.000    0.000 
#
# Total GULP energy -290422.264850 kJ/mol
# GULP energy per Si atom -5585.043555 kJ/mol
# Density = 2.162391 g / cm^3
# Si number density = 21.673235 Si / 1000 Ang^3
#
#
#
# Elastic Constant Matrix: (Units=GPa)
#
#
# Indices 1 2 3 4 5 6 
#
# 1 43.2029 -4.6537 -0.3919 0.0000 0.0000 0.0000
# 2 -4.6537 144.0179 30.4465 0.0000 0.0000 0.0000
# 3 -0.3919 30.4465 35.3582 0.0000 0.0000 0.0000
# 4 0.0000 0.0000 0.0000 28.1559 0.0000 0.0000
# 5 0.0000 0.0000 0.0000 0.0000 -24.5079 0.0000
# 6 0.0000 0.0000 0.0000 0.0000 0.0000 -1.8858
#
#
#
# Elastic Compliance Matrix: (Units=1/GPa)
#
#
# Indices 1 2 3 4 5 6 
#
# 1 0.023234 0.000851 -0.000475 0.000000 0.000000 0.000000
# 2 0.000851 0.008520 -0.007327 0.000000 0.000000 0.000000
# 3 -0.000475 -0.007327 0.034586 0.000000 0.000000 0.000000
# 4 0.000000 0.000000 0.000000 0.035516 0.000000 0.000000
# 5 0.000000 0.000000 0.000000 0.000000 -0.040803 0.000000
# 6 0.000000 0.000000 0.000000 0.000000 0.000000 -0.530277
#
#
# Mechanical properties :
#
#
# Convention : Reuss Voigt Hill
#
# Bulk Modulus (GPa) = 19.07033 30.37562 24.72298
# Shear Modulus (GPa) = -11.41966 13.49766 1.03900
#
# Velocity S-wave (km/s) = -2.29792 2.49826 0.69313
# Velocity P-wave (km/s) = 1.33324 4.72942 3.47455
#
# Compressibility (1/GPa) = 0.05243747
#
# Stress axis : x y z
#
# Youngs Moduli (GPa) = 43.04037 117.36962 28.91345
#
# Poissons Ratio (x) = -0.09992 0.01375
# Poissons Ratio (y) = -0.03664 0.21185
# Poissons Ratio (z) = 0.02047 0.85998
#
# Static dielectric constant tensor:
#      x y z
#    x 1.847480 0.000000 0.000000 
#    y 0.000000 1.811380 0.000000 
#    z 0.000000 0.000000 1.748830 
# 
# From -- ./inp_files/12432.got.cif
#   From: 2010.05.17/outbox.cif.g08.bks.cpg/sg65_7_cif.got.tgz:12432.got - 2010.06.03 17:01:31.
