data_PCOD9491394
_publ_section_title
;
Structure prediction by ZEFSAII (Michael W. Deem and Ramdas Pophale) SiO2 
 PCOD9491394
Probable space group: C M M M
;
_chemical_formula_sum "Si O2"
_cell_formula_units_Z 88
_cell_length_a 8.313971
_cell_length_b 19.112885
_cell_length_c 29.081758
_cell_angle_alpha 90.000000
_cell_angle_beta 90.000000
_cell_angle_gamma 90.000000
_cell_volume 4621.206848
_symmetry_space_group_name_H-M "C M M M"
_symmetry_group_IT_number 65
_symmetry_cell_setting 'orthorhombic'
loop_
_space_group_symop_operation_xyz
x,y,z
-x,-y,z
x,-y,-z
-x,y,-z
-x,-y,-z
x,y,-z
-x,y,z
x,-y,z
1/2+x,1/2+y,z
1/2-x,1/2-y,z
1/2+x,1/2-y,-z
1/2-x,1/2+y,-z
1/2-x,1/2-y,-z
1/2+x,1/2+y,-z
1/2-x,1/2+y,z
1/2+x,1/2-y,z
loop_
_atom_site_type_symbol
_atom_site_label
_atom_site_fract_x
_atom_site_fract_y
_atom_site_fract_z
Si Si1 0.308004 0.329588 0.774200
Si Si2 0.694627 0.329529 0.500000
Si Si3 0.303193 0.580389 0.861743
Si Si4 0.694308 0.671315 0.052067
Si Si5 0.192245 0.580384 0.311377
Si Si6 0.305720 0.580639 0.412810
O O1 0.500000 0.329141 0.776050
O O2 0.250000 0.250000 0.775600
O O3 0.248739 0.373895 0.818218
O O4 0.255823 0.368914 0.727935
O O5 0.500000 0.331422 0.500000
O O6 0.750000 0.250000 0.500000
O O7 0.749938 0.370298 0.454272
O O8 0.500000 0.580239 0.861543
O O9 0.250803 0.500000 0.858473
O O10 0.251115 0.617527 0.908961
O O11 0.500000 0.670786 0.051947
O O12 0.750000 0.750000 0.063061
O O13 0.748921 0.654670 0.000000
O O14 0.250295 0.500000 0.304103
O O15 0.245829 0.602140 0.362473
O O16 0.000000 0.579891 0.309654
O O17 0.500000 0.581518 0.412301
O O18 0.254741 0.500000 0.420604
#
# Coordination Sequence:
#
# PCOD9491394 Si02
#       6
#    16   8  16  16  16  16
#     4  11  22  36  55  77 104 139 177 218 265 316
#     4  10  21  35  53  79 109 140 174 216 262 308
#     4   9  18  32  51  76 103 132 171 217 261 308
#     4   9  17  30  50  75 103 135 169 208 255 307
#     4  10  21  37  57  82 110 138 173 218 265 315
#     4   9  18  35  58  80 104 139 181 218 255 305
#
# _framework density 19.042645
#
# number of rings (size 3 to 8) (size 9 to 14) (size 15 to 20)
#    0.000    2.364    0.000    2.455    0.000    4.727 
#    0.000    4.545    0.000    5.455    0.000    2.545 
#    0.000    0.000    0.000    0.000    0.000    0.000 
#
# Total GULP energy -245651.260483 kJ/mol
# GULP energy per Si atom -5582.983193 kJ/mol
# Density = 1.899930 g / cm^3
# Si number density = 19.042645 Si / 1000 Ang^3
#
#
#
# Elastic Constant Matrix: (Units=GPa)
#
#
# Indices 1 2 3 4 5 6 
#
# 1 14.9623 20.0286 23.9065 0.0000 0.0000 0.0000
# 2 20.0286 167.8862 145.0981 0.0000 0.0000 0.0000
# 3 23.9065 145.0981 190.5316 0.0000 0.0000 0.0000
# 4 0.0000 0.0000 0.0000 57.9913 0.0000 0.0000
# 5 0.0000 0.0000 0.0000 0.0000 6.7478 0.0000
# 6 0.0000 0.0000 0.0000 0.0000 0.0000 24.1515
#
#
#
# Elastic Compliance Matrix: (Units=1/GPa)
#
#
# Indices 1 2 3 4 5 6 
#
# 1 0.084000 -0.002668 -0.008508 0.000000 0.000000 0.000000
# 2 -0.002668 0.017510 -0.013000 0.000000 0.000000 0.000000
# 3 -0.008508 -0.013000 0.016216 0.000000 0.000000 0.000000
# 4 0.000000 0.000000 0.000000 0.017244 0.000000 0.000000
# 5 0.000000 0.000000 0.000000 0.000000 0.148197 0.000000
# 6 0.000000 0.000000 0.000000 0.000000 0.000000 0.041405
#
#
# Mechanical properties :
#
#
# Convention : Reuss Voigt Hill
#
# Bulk Modulus (GPa) = 14.41456 83.49407 48.95431
# Shear Modulus (GPa) = 12.62473 30.06791 21.34632
#
# Velocity S-wave (km/s) = 2.57762 3.97795 3.35173
# Velocity P-wave (km/s) = 4.05523 8.06472 6.38297
#
# Compressibility (1/GPa) = 0.06937429
#
# Stress axis : x y z
#
# Youngs Moduli (GPa) = 11.90478 57.10996 61.66749
#
# Poissons Ratio (x) = 0.15237 0.52466
# Poissons Ratio (y) = 0.03176 0.80167
# Poissons Ratio (z) = 0.10128 0.74243
#
# Static dielectric constant tensor:
#      x y z
#    x 1.663480 0.000000 0.000000 
#    y 0.000000 1.644520 0.000000 
#    z 0.000000 0.000000 1.650390 
# 
# From -- ./inp_files/76455.got.cif
#   From: 2010.05.17/outbox.cif.g08.bks.cpg/sg65_39_cif.got.tgz:76455.got - 2010.06.03 17:01:31.
