data_PCOD9491582
_publ_section_title
;
Structure prediction by ZEFSAII (Michael W. Deem and Ramdas Pophale) SiO2 
 PCOD9491582
Probable space group: C M M M
;
_chemical_formula_sum "Si O2"
_cell_formula_units_Z 104
_cell_length_a 17.314021
_cell_length_b 23.903073
_cell_length_c 15.140163
_cell_angle_alpha 90.000000
_cell_angle_beta 90.000000
_cell_angle_gamma 90.000000
_cell_volume 6265.882240
_symmetry_space_group_name_H-M "C M M M"
_symmetry_group_IT_number 65
_symmetry_cell_setting 'orthorhombic'
loop_
_space_group_symop_operation_xyz
x,y,z
-x,-y,z
x,-y,-z
-x,y,-z
-x,-y,-z
x,y,-z
-x,y,z
x,-y,z
1/2+x,1/2+y,z
1/2-x,1/2-y,z
1/2+x,1/2-y,-z
1/2-x,1/2+y,-z
1/2-x,1/2-y,-z
1/2+x,1/2+y,-z
1/2-x,1/2+y,z
1/2+x,1/2-y,z
loop_
_atom_site_type_symbol
_atom_site_label
_atom_site_fract_x
_atom_site_fract_y
_atom_site_fract_z
Si Si1 0.413544 0.064350 0.363440
Si Si2 0.909363 0.561748 0.849890
Si Si3 0.302403 0.160596 0.402969
Si Si4 0.093591 0.684846 0.902989
Si Si5 0.088980 0.734232 0.281863
Si Si6 0.379686 0.342666 0.605165
Si Si7 0.000000 0.062966 0.393773
O O1 0.500000 0.084477 0.386953
O O2 0.407360 0.065779 0.256667
O O3 0.346809 0.101980 0.402017
O O4 0.407492 0.000000 0.390384
O O5 0.876976 0.500000 0.874973
O O6 0.878055 0.620873 0.885471
O O7 0.000000 0.560263 0.875303
O O8 0.309481 0.187129 0.500000
O O9 0.348984 0.197716 0.334310
O O10 0.212341 0.152936 0.384517
O O11 0.110296 0.725891 0.821100
O O12 0.000000 0.681540 0.904808
O O13 0.119889 0.703369 0.000000
O O14 0.092538 0.794453 0.328325
O O15 0.000000 0.713408 0.291672
O O16 0.395378 0.330129 0.500000
O O17 0.425206 0.399476 0.627730
O O18 0.000000 0.058352 0.500000
O O19 0.000000 0.000000 0.357282
#
# Coordination Sequence:
#
# PCOD9491582 Si02
#       7
#    16  16  16  16  16  16   8
#     4   9  17  30  46  67 100 139 177 208 236 286
#     4   8  13  24  42  63  91 128 170 211 246 280
#     4  11  22  32  47  73 102 137 177 212 253 301
#     4   9  17  28  45  72 100 128 169 214 254 296
#     4  11  20  33  52  72 102 141 173 208 253 301
#     4  10  21  36  53  76 103 130 166 217 265 310
#     4   9  18  36  60  80  99 127 166 217 271 315
#
# _framework density 16.597822000000001
#
# number of rings (size 3 to 8) (size 9 to 14) (size 15 to 20)
#    0.000    2.385    2.308    2.308    0.000    4.308 
#    0.000    3.846    0.000    1.846    0.000    0.000 
#    0.000    1.231    0.000    0.000    0.000    0.000 
#
# Total GULP energy -289595.848836 kJ/mol
# GULP energy per Si atom -5569.150939 kJ/mol
# Density = 1.656004 g / cm^3
# Si number density = 16.597822 Si / 1000 Ang^3
#
#
#
# Elastic Constant Matrix: (Units=GPa)
#
#
# Indices 1 2 3 4 5 6 
#
# 1 75.7993 30.5861 40.5334 0.0000 0.0000 0.0000
# 2 30.5861 100.6339 50.3977 0.0000 0.0000 0.0000
# 3 40.5334 50.3977 99.8889 0.0000 0.0000 0.0000
# 4 0.0000 0.0000 0.0000 15.2132 0.0000 0.0000
# 5 0.0000 0.0000 0.0000 0.0000 2.4352 0.0000
# 6 0.0000 0.0000 0.0000 0.0000 0.0000 2.9498
#
#
#
# Elastic Compliance Matrix: (Units=1/GPa)
#
#
# Indices 1 2 3 4 5 6 
#
# 1 0.017246 -0.002324 -0.005825 0.000000 0.000000 0.000000
# 2 -0.002324 0.013610 -0.005924 0.000000 0.000000 0.000000
# 3 -0.005825 -0.005924 0.015364 0.000000 0.000000 0.000000
# 4 0.000000 0.000000 0.000000 0.065732 0.000000 0.000000
# 5 0.000000 0.000000 0.000000 0.000000 0.410649 0.000000
# 6 0.000000 0.000000 0.000000 0.000000 0.000000 0.339005
#
#
# Mechanical properties :
#
#
# Convention : Reuss Voigt Hill
#
# Bulk Modulus (GPa) = 55.33139 57.70626 56.51882
# Shear Modulus (GPa) = 5.58175 14.43997 10.01086
#
# Velocity S-wave (km/s) = 1.83582 2.95276 2.45856
# Velocity P-wave (km/s) = 6.15651 6.81674 6.49502
#
# Compressibility (1/GPa) = 0.01807292
#
# Stress axis : x y z
#
# Youngs Moduli (GPa) = 57.98549 73.47549 65.08861
#
# Poissons Ratio (x) = 0.17077 0.37917
# Poissons Ratio (y) = 0.13477 0.38556
# Poissons Ratio (z) = 0.33779 0.43524
#
# Static dielectric constant tensor:
#      x y z
#    x 1.540860 0.000000 0.000000 
#    y 0.000000 1.600900 0.000000 
#    z 0.000000 0.000000 1.588960 
# 
# From -- ./inp_files/43087.got.cif
#   From: 2010.05.17/outbox.cif.g08.bks.cpg/sg65_22_cif.got.tgz:43087.got - 2010.06.03 17:01:31.
