data_PCOD9491654
_publ_section_title
;
Structure prediction by ZEFSAII (Michael W. Deem and Ramdas Pophale) SiO2 
 PCOD9491654
Probable space group: C M M M
;
_chemical_formula_sum "Si O2"
_cell_formula_units_Z 104
_cell_length_a 21.959121
_cell_length_b 27.065775
_cell_length_c 7.764825
_cell_angle_alpha 90.000000
_cell_angle_beta 90.000000
_cell_angle_gamma 90.000000
_cell_volume 4614.950968
_symmetry_space_group_name_H-M "C M M M"
_symmetry_group_IT_number 65
_symmetry_cell_setting 'orthorhombic'
loop_
_space_group_symop_operation_xyz
x,y,z
-x,-y,z
x,-y,-z
-x,y,-z
-x,-y,-z
x,y,-z
-x,y,z
x,-y,z
1/2+x,1/2+y,z
1/2-x,1/2-y,z
1/2+x,1/2-y,-z
1/2-x,1/2+y,-z
1/2-x,1/2-y,-z
1/2+x,1/2+y,-z
1/2-x,1/2+y,z
1/2+x,1/2-y,z
loop_
_atom_site_type_symbol
_atom_site_label
_atom_site_fract_x
_atom_site_fract_y
_atom_site_fract_z
Si Si1 0.162316 0.712913 0.801333
Si Si2 0.607107 0.393530 0.699159
Si Si3 0.736958 0.357916 0.799382
Si Si4 0.328161 0.055942 0.291964
Si Si5 0.934668 0.791571 0.293291
Si Si6 0.430939 0.872969 0.707845
Si Si7 0.572825 0.500000 0.705684
O O1 0.224263 0.688722 0.726197
O O2 0.126712 0.761355 0.742660
O O3 0.111028 0.670505 0.780167
O O4 0.176504 0.720308 0.000000
O O5 0.586776 0.397727 0.500000
O O6 0.676382 0.374893 0.704879
O O7 0.570862 0.347264 0.776169
O O8 0.598593 0.448087 0.775990
O O9 0.782365 0.404608 0.788044
O O10 0.721896 0.348777 0.000000
O O11 0.320074 0.057842 0.500000
O O12 0.395838 0.076131 0.254738
O O13 0.318477 0.000000 0.235068
O O14 0.937222 0.793620 0.500000
O O15 0.000000 0.769414 0.234815
O O16 0.431269 0.866563 0.500000
O O17 0.500000 0.871556 0.769177
O O18 0.500000 0.500000 0.725617
O O19 0.587347 0.500000 0.500000
#
# Coordination Sequence:
#
# PCOD9491654 Si02
#       7
#    16  16  16  16  16  16   8
#     4  10  21  36  54  77 108 148 189 228 272 325
#     4  10  21  37  60  88 114 144 183 227 275 332
#     4  10  22  38  54  77 111 148 186 229 278 327
#     4   9  18  32  51  74 102 138 181 229 276 330
#     4  10  21  37  58  85 115 145 180 226 280 334
#     4   9  17  30  49  74 104 138 178 226 280 332
#     4   9  18  36  63  91 117 145 180 225 276 331
#
# _framework density 22.535450999999998
#
# number of rings (size 3 to 8) (size 9 to 14) (size 15 to 20)
#    0.000    2.385    0.000    1.846    1.077    8.000 
#    0.000    4.615    0.000    1.846    0.000    4.308 
#    0.000    0.000    0.000    0.000    0.000    0.000 
#
# Total GULP energy -290187.149653 kJ/mol
# GULP energy per Si atom -5580.522109 kJ/mol
# Density = 2.248416 g / cm^3
# Si number density = 22.535451 Si / 1000 Ang^3
#
#
#
# Elastic Constant Matrix: (Units=GPa)
#
#
# Indices 1 2 3 4 5 6 
#
# 1 74.5471 30.1363 -5.6678 0.0000 0.0000 0.0000
# 2 30.1363 144.0441 5.7691 0.0000 0.0000 0.0000
# 3 -5.6678 5.7691 32.5978 0.0000 0.0000 0.0000
# 4 0.0000 0.0000 0.0000 99.1178 0.0000 0.0000
# 5 0.0000 0.0000 0.0000 0.0000 147.9031 0.0000
# 6 0.0000 0.0000 0.0000 0.0000 0.0000 22.8790
#
#
#
# Elastic Compliance Matrix: (Units=1/GPa)
#
#
# Indices 1 2 3 4 5 6 
#
# 1 0.014974 -0.003260 0.003181 0.000000 0.000000 0.000000
# 2 -0.003260 0.007702 -0.001930 0.000000 0.000000 0.000000
# 3 0.003181 -0.001930 0.031571 0.000000 0.000000 0.000000
# 4 0.000000 0.000000 0.000000 0.010089 0.000000 0.000000
# 5 0.000000 0.000000 0.000000 0.000000 0.006761 0.000000
# 6 0.000000 0.000000 0.000000 0.000000 0.000000 0.043708
#
#
# Mechanical properties :
#
#
# Convention : Reuss Voigt Hill
#
# Bulk Modulus (GPa) = 19.90917 34.62937 27.26927
# Shear Modulus (GPa) = 36.88203 68.71009 52.79606
#
# Velocity S-wave (km/s) = 4.04991 5.52775 4.84550
# Velocity P-wave (km/s) = 5.54281 7.49275 6.59030
#
# Compressibility (1/GPa) = 0.05022810
#
# Stress axis : x y z
#
# Youngs Moduli (GPa) = 66.78196 129.84152 31.67421
#
# Poissons Ratio (x) = 0.42331 -0.10074
# Poissons Ratio (y) = 0.21772 0.06113
# Poissons Ratio (z) = -0.21240 0.25058
#
# Static dielectric constant tensor:
#      x y z
#    x 1.840180 0.000000 0.000000 
#    y 0.000000 1.864740 0.000000 
#    z 0.000000 0.000000 1.855390 
# 
# From -- ./inp_files/12444.got.cif
#   From: 2010.05.17/outbox.cif.g08.bks.cpg/sg65_7_cif.got.tgz:12444.got - 2010.06.03 17:01:31.
