data_PCOD9491339
_publ_section_title
;
Structure prediction by ZEFSAII (Michael W. Deem and Ramdas Pophale) SiO2 
 PCOD9491339
Probable space group: C M M M
;
_chemical_formula_sum "Si O2"
_cell_formula_units_Z 116
_cell_length_a 23.665791
_cell_length_b 28.282086
_cell_length_c 7.662036
_cell_angle_alpha 90.000000
_cell_angle_beta 90.000000
_cell_angle_gamma 90.000000
_cell_volume 5128.338124
_symmetry_space_group_name_H-M "C M M M"
_symmetry_group_IT_number 65
_symmetry_cell_setting 'orthorhombic'
loop_
_space_group_symop_operation_xyz
x,y,z
-x,-y,z
x,-y,-z
-x,y,-z
-x,-y,-z
x,y,-z
-x,y,z
x,-y,z
1/2+x,1/2+y,z
1/2-x,1/2-y,z
1/2+x,1/2-y,-z
1/2-x,1/2+y,-z
1/2-x,1/2-y,-z
1/2+x,1/2+y,-z
1/2-x,1/2+y,z
1/2+x,1/2-y,z
loop_
_atom_site_type_symbol
_atom_site_label
_atom_site_fract_x
_atom_site_fract_y
_atom_site_fract_z
Si Si1 0.122225 0.050469 0.306667
Si Si2 0.667619 0.350556 0.208641
Si Si3 0.090556 0.685936 0.201597
Si Si4 0.572207 0.500000 0.000000
Si Si5 0.815229 0.550403 0.703899
Si Si6 0.562348 0.081075 0.212423
Si Si7 0.561901 0.289107 0.213741
Si Si8 0.709273 0.845712 0.293891
O O1 0.097473 0.054053 0.500000
O O2 0.160185 0.095781 0.273794
O O3 0.155541 0.000000 0.298509
O O4 0.077415 0.040964 0.153684
O O5 0.613902 0.320967 0.272844
O O6 0.727208 0.329068 0.265784
O O7 0.666688 0.351497 0.000000
O O8 0.069174 0.635786 0.273026
O O9 0.069321 0.735163 0.276636
O O10 0.158619 0.683725 0.210796
O O11 0.072401 0.685701 0.000000
O O12 0.798926 0.550204 0.500000
O O13 0.797571 0.500000 0.782057
O O14 0.883296 0.554133 0.717087
O O15 0.794068 0.600323 0.778634
O O16 0.500000 0.063727 0.260673
O O17 0.566277 0.080074 0.000000
O O18 0.500000 0.307043 0.263653
O O19 0.564247 0.288276 0.000000
O O20 0.697166 0.847272 0.500000
#
# Coordination Sequence:
#
# PCOD9491339 Si02
#       8
#    16  16  16   4  16  16  16  16
#     4   9  17  31  53  81 115 152 188 232 278 328
#     4  11  20  34  55  83 116 145 184 232 280 340
#     4   9  17  34  56  78 104 138 184 228 274 333
#     4   8  14  32  52  82 113 148 198 230 265 338
#     4   9  19  35  50  68  98 134 178 226 270 323
#     4   9  17  29  49  75 103 136 175 222 271 322
#     4   9  19  35  59  86 109 139 180 228 281 340
#     4  10  21  35  52  75 105 144 184 228 284 337
#
# _framework density 22.619412000000001
#
# number of rings (size 3 to 8) (size 9 to 14) (size 15 to 20)
#    0.414    2.207    0.690    1.241    0.000    4.138 
#    0.000    6.897    0.000    4.966    0.000    3.379 
#    0.000    0.000    0.000    0.000    0.000    0.000 
#
# Total GULP energy -322978.878138 kJ/mol
# GULP energy per Si atom -5568.601347 kJ/mol
# Density = 2.256793 g / cm^3
# Si number density = 22.619412 Si / 1000 Ang^3
#
#
#
# Elastic Constant Matrix: (Units=GPa)
#
#
# Indices 1 2 3 4 5 6 
#
# 1 116.7342 21.0257 -5.1846 0.0000 0.0000 0.0000
# 2 21.0257 42.0865 -6.3073 0.0000 0.0000 0.0000
# 3 -5.1846 -6.3073 82.9746 0.0000 0.0000 0.0000
# 4 0.0000 0.0000 0.0000 3.6945 0.0000 0.0000
# 5 0.0000 0.0000 0.0000 0.0000 -240.6760 0.0000
# 6 0.0000 0.0000 0.0000 0.0000 0.0000 211.6835
#
#
#
# Elastic Compliance Matrix: (Units=1/GPa)
#
#
# Indices 1 2 3 4 5 6 
#
# 1 0.009418 -0.004670 0.000233 0.000000 0.000000 0.000000
# 2 -0.004670 0.026350 0.001711 0.000000 0.000000 0.000000
# 3 0.000233 0.001711 0.012197 0.000000 0.000000 0.000000
# 4 0.000000 0.000000 0.000000 0.270673 0.000000 0.000000
# 5 0.000000 0.000000 0.000000 0.000000 -0.004155 0.000000
# 6 0.000000 0.000000 0.000000 0.000000 0.000000 0.004724
#
#
# Mechanical properties :
#
#
# Convention : Reuss Voigt Hill
#
# Bulk Modulus (GPa) = 23.52174 28.98477 26.25326
# Shear Modulus (GPa) = 14.75672 10.42450 12.59061
#
# Velocity S-wave (km/s) = 2.55697 2.14911 2.36186
# Velocity P-wave (km/s) = 4.37481 4.35891 4.36687
#
# Compressibility (1/GPa) = 0.04251386
#
# Stress axis : x y z
#
# Youngs Moduli (GPa) = 106.17973 37.95047 81.99047
#
# Poissons Ratio (x) = 0.17723 -0.01914
# Poissons Ratio (y) = 0.49587 -0.14030
# Poissons Ratio (z) = -0.02479 -0.06494
#
# Static dielectric constant tensor:
#      x y z
#    x 1.848210 0.000000 0.000000 
#    y 0.000000 1.864060 0.000000 
#    z 0.000000 0.000000 1.862990 
# 
# From -- ./inp_files/15129.got.cif
#   From: 2010.05.17/outbox.cif.g08.bks.cpg/sg65_8_cif.got.tgz:15129.got - 2010.06.03 17:01:31.
