data_PCOD9491777
_publ_section_title
;
Structure prediction by ZEFSAII (Michael W. Deem and Ramdas Pophale) SiO2 
 PCOD9491777
Probable space group: C M M M
;
_chemical_formula_sum "Si O2"
_cell_formula_units_Z 88
_cell_length_a 15.894493
_cell_length_b 12.621924
_cell_length_c 21.194635
_cell_angle_alpha 90.000000
_cell_angle_beta 90.000000
_cell_angle_gamma 90.000000
_cell_volume 4252.048231
_symmetry_space_group_name_H-M "C M M M"
_symmetry_group_IT_number 65
_symmetry_cell_setting 'orthorhombic'
loop_
_space_group_symop_operation_xyz
x,y,z
-x,-y,z
x,-y,-z
-x,y,-z
-x,-y,-z
x,y,-z
-x,y,z
x,-y,z
1/2+x,1/2+y,z
1/2-x,1/2-y,z
1/2+x,1/2-y,-z
1/2-x,1/2+y,-z
1/2-x,1/2-y,-z
1/2+x,1/2+y,-z
1/2-x,1/2+y,z
1/2+x,1/2-y,z
loop_
_atom_site_type_symbol
_atom_site_label
_atom_site_fract_x
_atom_site_fract_y
_atom_site_fract_z
Si Si1 0.399510 0.878788 0.311788
Si Si2 0.848734 0.271087 0.070571
Si Si3 0.402741 0.500000 0.257065
Si Si4 0.897109 0.237334 0.430107
Si Si5 0.847546 0.220054 0.797034
Si Si6 0.593607 0.000000 0.924120
Si Si7 0.402565 0.500000 0.407465
O O1 0.500000 0.886639 0.319845
O O2 0.367240 0.810390 0.371983
O O3 0.385090 0.810299 0.248551
O O4 0.366205 0.000000 0.308665
O O5 0.750000 0.250000 0.064595
O O6 0.883869 0.211932 0.131709
O O7 0.859344 0.393043 0.090684
O O8 0.885960 0.254337 0.000000
O O9 0.500000 0.500000 0.235676
O O10 0.359215 0.393354 0.234328
O O11 0.403268 0.500000 0.332231
O O12 0.876560 0.279481 0.500000
O O13 0.866871 0.114873 0.426389
O O14 0.000000 0.233150 0.425164
O O15 0.750000 0.250000 0.802988
O O16 0.500000 0.000000 0.896532
O O17 0.586451 0.000000 0.000000
O O18 0.500000 0.500000 0.429517
#
# Coordination Sequence:
#
# PCOD9491777 Si02
#       7
#    16  16   8  16  16   8   8
#     4  10  21  36  55  83 118 154 190 235 296 357
#     4   9  20  38  58  82 115 154 196 242 294 353
#     4  11  22  40  62  86 121 161 197 240 299 356
#     4   9  16  28  50  81 113 146 190 243 290 337
#     4  11  24  38  61  87 116 150 198 247 295 349
#     4   9  18  33  56  86 114 142 184 240 296 344
#     4   9  15  28  50  78 110 143 189 242 285 330
#
# _framework density 20.695907999999999
#
# number of rings (size 3 to 8) (size 9 to 14) (size 15 to 20)
#    0.000    2.273    1.818    0.818    2.545    5.091 
#    0.000    3.182    0.000    1.091    0.000    0.000 
#    0.000    0.000    0.000    0.000    0.000    0.000 
#
# Total GULP energy -245238.402746 kJ/mol
# GULP energy per Si atom -5573.600062 kJ/mol
# Density = 2.064880 g / cm^3
# Si number density = 20.695908 Si / 1000 Ang^3
#
#
#
# Elastic Constant Matrix: (Units=GPa)
#
#
# Indices 1 2 3 4 5 6 
#
# 1 34.1281 23.3546 -0.1159 0.0000 0.0000 0.0000
# 2 23.3546 133.2431 58.9252 0.0000 0.0000 0.0000
# 3 -0.1159 58.9252 168.6480 0.0000 0.0000 0.0000
# 4 0.0000 0.0000 0.0000 49.0600 0.0000 0.0000
# 5 0.0000 0.0000 0.0000 0.0000 34.4239 0.0000
# 6 0.0000 0.0000 0.0000 0.0000 0.0000 -0.3089
#
#
#
# Elastic Compliance Matrix: (Units=1/GPa)
#
#
# Indices 1 2 3 4 5 6 
#
# 1 0.034165 -0.007095 0.002502 0.000000 0.000000 0.000000
# 2 -0.007095 0.010350 -0.003621 0.000000 0.000000 0.000000
# 3 0.002502 -0.003621 0.007196 0.000000 0.000000 0.000000
# 4 0.000000 0.000000 0.000000 0.020383 0.000000 0.000000
# 5 0.000000 0.000000 0.000000 0.000000 0.029050 0.000000
# 6 0.000000 0.000000 0.000000 0.000000 0.000000 -3.237439
#
#
# Mechanical properties :
#
#
# Convention : Reuss Voigt Hill
#
# Bulk Modulus (GPa) = 28.34133 55.59410 41.96771
# Shear Modulus (GPa) = -1.60870 33.55868 15.97499
#
# Velocity S-wave (km/s) = -0.88260 4.03117 2.78131
# Velocity P-wave (km/s) = 3.56164 6.97049 5.53503
#
# Compressibility (1/GPa) = 0.03528417
#
# Stress axis : x y z
#
# Youngs Moduli (GPa) = 29.26958 96.61724 138.95715
#
# Poissons Ratio (x) = 0.68551 -0.34774
# Poissons Ratio (y) = 0.20767 0.50319
# Poissons Ratio (z) = -0.07325 0.34987
#
# Static dielectric constant tensor:
#      x y z
#    x 1.758790 0.000000 0.000000 
#    y 0.000000 1.763900 0.000000 
#    z 0.000000 0.000000 1.784800 
# 
# From -- ./inp_files/63666.got.cif
#   From: 2010.05.17/outbox.cif.g08.bks.cpg/sg65_32_cif.got.tgz:63666.got - 2010.06.03 17:01:31.
