data_PCOD9491491
_publ_section_title
;
Structure prediction by ZEFSAII (Michael W. Deem and Ramdas Pophale) SiO2 
 PCOD9491491
Probable space group: C M M M
;
_chemical_formula_sum "Si O2"
_cell_formula_units_Z 88
_cell_length_a 8.293923
_cell_length_b 18.943549
_cell_length_c 29.877240
_cell_angle_alpha 90.000000
_cell_angle_beta 90.000000
_cell_angle_gamma 90.000000
_cell_volume 4694.202501
_symmetry_space_group_name_H-M "C M M M"
_symmetry_group_IT_number 65
_symmetry_cell_setting 'orthorhombic'
loop_
_space_group_symop_operation_xyz
x,y,z
-x,-y,z
x,-y,-z
-x,y,-z
-x,-y,-z
x,y,-z
-x,y,z
x,-y,z
1/2+x,1/2+y,z
1/2-x,1/2-y,z
1/2+x,1/2-y,-z
1/2-x,1/2+y,-z
1/2-x,1/2-y,-z
1/2+x,1/2+y,-z
1/2-x,1/2+y,z
1/2+x,1/2-y,z
loop_
_atom_site_type_symbol
_atom_site_label
_atom_site_fract_x
_atom_site_fract_y
_atom_site_fract_z
Si Si1 0.197057 0.081548 0.500000
Si Si2 0.695405 0.081619 0.671653
Si Si3 0.187091 0.414032 0.230502
Si Si4 0.192894 0.830538 0.950609
Si Si5 0.194859 0.581015 0.866192
Si Si6 0.192933 0.830494 0.413259
O O1 0.250347 0.123529 0.544212
O O2 0.000000 0.081074 0.500000
O O3 0.249776 0.000000 0.500000
O O4 0.500000 0.081300 0.673485
O O5 0.757023 0.104914 0.720997
O O6 0.749914 0.131983 0.632081
O O7 0.746176 0.000000 0.663685
O O8 0.186524 0.500000 0.229641
O O9 0.256782 0.391931 0.182392
O O10 0.000000 0.391005 0.231061
O O11 0.250000 0.750000 0.946596
O O12 0.255905 0.874442 0.908869
O O13 0.000000 0.832168 0.949914
O O14 0.247285 0.856570 0.000000
O O15 0.248948 0.500000 0.871735
O O16 0.000000 0.580416 0.863335
O O17 0.250000 0.750000 0.416262
O O18 0.000000 0.830868 0.413920
#
# Coordination Sequence:
#
# PCOD9491491 Si02
#       6
#     8  16  16  16  16  16
#     4   9  19  36  57  79 102 131 168 211 258 306
#     4   9  17  32  55  80 105 134 170 210 251 298
#     4   7  12  26  49  75 102 132 164 201 247 296
#     4  10  21  36  52  70  96 131 169 209 254 303
#     4   9  17  31  53  79 104 131 165 204 248 300
#     4  11  22  36  54  76 106 140 173 210 254 302
#
# _framework density 18.746528999999999
#
# number of rings (size 3 to 8) (size 9 to 14) (size 15 to 20)
#    0.000    2.818    0.000    4.091    0.000    2.909 
#    0.000    5.000    0.000    6.545    0.000    0.000 
#    0.000    0.000    0.000    0.000    0.000    0.000 
#
# Total GULP energy -245198.400805 kJ/mol
# GULP energy per Si atom -5572.690927 kJ/mol
# Density = 1.870386 g / cm^3
# Si number density = 18.746529 Si / 1000 Ang^3
#
#
#
# Elastic Constant Matrix: (Units=GPa)
#
#
# Indices 1 2 3 4 5 6 
#
# 1 15.4088 14.1204 23.0383 0.0000 0.0000 0.0000
# 2 14.1204 100.2951 103.0985 0.0000 0.0000 0.0000
# 3 23.0383 103.0985 236.3232 0.0000 0.0000 0.0000
# 4 0.0000 0.0000 0.0000 -31.8472 0.0000 0.0000
# 5 0.0000 0.0000 0.0000 0.0000 11.7724 0.0000
# 6 0.0000 0.0000 0.0000 0.0000 0.0000 5.2131
#
#
#
# Elastic Compliance Matrix: (Units=1/GPa)
#
#
# Indices 1 2 3 4 5 6 
#
# 1 0.077739 -0.005719 -0.005083 0.000000 0.000000 0.000000
# 2 -0.005719 0.018498 -0.007513 0.000000 0.000000 0.000000
# 3 -0.005083 -0.007513 0.008004 0.000000 0.000000 0.000000
# 4 0.000000 0.000000 0.000000 -0.031400 0.000000 0.000000
# 5 0.000000 0.000000 0.000000 0.000000 0.084944 0.000000
# 6 0.000000 0.000000 0.000000 0.000000 0.000000 0.191824
#
#
# Mechanical properties :
#
#
# Convention : Reuss Voigt Hill
#
# Bulk Modulus (GPa) = 14.79036 70.28241 42.53638
# Shear Modulus (GPa) = 12.23157 11.14566 11.68862
#
# Velocity S-wave (km/s) = 2.55712 2.44097 2.49972
# Velocity P-wave (km/s) = 4.07741 6.74661 5.57414
#
# Compressibility (1/GPa) = 0.06761161
#
# Stress axis : x y z
#
# Youngs Moduli (GPa) = 12.86349 54.05904 124.93015
#
# Poissons Ratio (x) = 0.30918 0.63507
# Poissons Ratio (y) = 0.07357 0.93854
# Poissons Ratio (z) = 0.06539 0.40612
#
# Static dielectric constant tensor:
#      x y z
#    x 1.658790 0.000000 0.000000 
#    y 0.000000 1.605890 0.000000 
#    z 0.000000 0.000000 1.689970 
# 
# From -- ./inp_files/76521.got.cif
#   From: 2010.05.17/outbox.cif.g08.bks.cpg/sg65_39_cif.got.tgz:76521.got - 2010.06.03 17:01:31.
