data_PCOD9491821
_publ_section_title
;
Structure prediction by ZEFSAII (Michael W. Deem and Ramdas Pophale) SiO2 
 PCOD9491821
Probable space group: C M M M
;
_chemical_formula_sum "Si O2"
_cell_formula_units_Z 88
_cell_length_a 21.722132
_cell_length_b 14.673312
_cell_length_c 14.485688
_cell_angle_alpha 90.000000
_cell_angle_beta 90.000000
_cell_angle_gamma 90.000000
_cell_volume 4617.104748
_symmetry_space_group_name_H-M "C M M M"
_symmetry_group_IT_number 65
_symmetry_cell_setting 'orthorhombic'
loop_
_space_group_symop_operation_xyz
x,y,z
-x,-y,z
x,-y,-z
-x,y,-z
-x,-y,-z
x,y,-z
-x,y,z
x,-y,z
1/2+x,1/2+y,z
1/2-x,1/2-y,z
1/2+x,1/2-y,-z
1/2-x,1/2+y,-z
1/2-x,1/2-y,-z
1/2+x,1/2+y,-z
1/2-x,1/2+y,z
1/2+x,1/2-y,z
loop_
_atom_site_type_symbol
_atom_site_label
_atom_site_fract_x
_atom_site_fract_y
_atom_site_fract_z
Si Si1 0.767465 0.392882 0.216494
Si Si2 0.892835 0.713409 0.795566
Si Si3 0.642741 0.604565 0.109616
Si Si4 0.070499 0.777082 0.396076
Si Si5 0.692997 0.609046 0.398288
Si Si6 0.000000 0.603572 0.890127
O O1 0.785410 0.500000 0.224271
O O2 0.825450 0.330194 0.196275
O O3 0.714248 0.387329 0.139515
O O4 0.735480 0.363146 0.312851
O O5 0.891652 0.817080 0.833256
O O6 0.914493 0.711721 0.689204
O O7 0.940344 0.655719 0.854487
O O8 0.624135 0.500000 0.132541
O O9 0.635401 0.617934 0.000000
O O10 0.075368 0.737520 0.500000
O O11 0.124111 0.852355 0.389368
O O12 0.000000 0.810544 0.386063
O O13 0.716675 0.636528 0.500000
O O14 0.690083 0.500000 0.394925
O O15 0.000000 0.500000 0.855725
O O16 0.000000 0.602740 0.000000
#
# Coordination Sequence:
#
# PCOD9491821 Si02
#       6
#    16  16  16  16  16   8
#     4  10  21  36  57  88 122 156 201 252 303 360
#     4  12  22  39  64  89 117 163 206 248 308 362
#     4  10  22  39  59  88 124 156 193 246 304 366
#     4  10  21  36  56  86 121 158 202 244 291 358
#     4   9  18  34  56  85 123 160 197 246 302 361
#     4  11  26  46  66  90 120 157 210 264 300 346
#
# _framework density 19.059564000000002
#
# number of rings (size 3 to 8) (size 9 to 14) (size 15 to 20)
#    0.000    1.727    2.727    1.636    0.000    3.273 
#    0.000    5.909    0.000    3.818    0.000    0.000 
#    0.000    0.000    0.000    0.000    0.000    0.000 
#
# Total GULP energy -245583.079789 kJ/mol
# GULP energy per Si atom -5581.433632 kJ/mol
# Density = 1.901618 g / cm^3
# Si number density = 19.059564 Si / 1000 Ang^3
#
#
#
# Elastic Constant Matrix: (Units=GPa)
#
#
# Indices 1 2 3 4 5 6 
#
# 1 62.0293 39.3038 18.2960 0.0000 0.0000 0.0000
# 2 39.3038 100.0676 41.7265 0.0000 0.0000 0.0000
# 3 18.2960 41.7265 90.7778 0.0000 0.0000 0.0000
# 4 0.0000 0.0000 0.0000 16.5775 0.0000 0.0000
# 5 0.0000 0.0000 0.0000 0.0000 -128.9842 0.0000
# 6 0.0000 0.0000 0.0000 0.0000 0.0000 23.5112
#
#
#
# Elastic Compliance Matrix: (Units=1/GPa)
#
#
# Indices 1 2 3 4 5 6 
#
# 1 0.021486 -0.008206 -0.000558 0.000000 0.000000 0.000000
# 2 -0.008206 0.015497 -0.005469 0.000000 0.000000 0.000000
# 3 -0.000558 -0.005469 0.013642 0.000000 0.000000 0.000000
# 4 0.000000 0.000000 0.000000 0.060323 0.000000 0.000000
# 5 0.000000 0.000000 0.000000 0.000000 -0.007753 0.000000
# 6 0.000000 0.000000 0.000000 0.000000 0.000000 0.042533
#
#
# Mechanical properties :
#
#
# Convention : Reuss Voigt Hill
#
# Bulk Modulus (GPa) = 45.13154 50.16970 47.65062
# Shear Modulus (GPa) = 27.53578 -7.54255 9.99662
#
# Velocity S-wave (km/s) = 3.80507 -1.99147 2.29267
# Velocity P-wave (km/s) = 6.56014 4.59258 5.66247
#
# Compressibility (1/GPa) = 0.02215745
#
# Stress axis : x y z
#
# Youngs Moduli (GPa) = 46.54235 64.52846 73.30051
#
# Poissons Ratio (x) = 0.52953 0.04093
# Poissons Ratio (y) = 0.38194 0.40091
# Poissons Ratio (z) = 0.02599 0.35293
#
# Static dielectric constant tensor:
#      x y z
#    x 1.629360 0.000000 0.000000 
#    y 0.000000 1.659500 0.000000 
#    z 0.000000 0.000000 1.688840 
# 
# From -- ./inp_files/44016.got.cif
#   From: 2010.05.17/outbox.cif.g08.bks.cpg/sg65_23_cif.got.tgz:44016.got - 2010.06.03 17:01:31.
