data_PCOD9491835
_publ_section_title
;
Structure prediction by ZEFSAII (Michael W. Deem and Ramdas Pophale) SiO2 
 PCOD9491835
Probable space group: C M M M
;
_chemical_formula_sum "Si O2"
_cell_formula_units_Z 56
_cell_length_a 13.804962
_cell_length_b 16.750776
_cell_length_c 12.414408
_cell_angle_alpha 90.000000
_cell_angle_beta 90.000000
_cell_angle_gamma 90.000000
_cell_volume 2870.755205
_symmetry_space_group_name_H-M "C M M M"
_symmetry_group_IT_number 65
_symmetry_cell_setting 'orthorhombic'
loop_
_space_group_symop_operation_xyz
x,y,z
-x,-y,z
x,-y,-z
-x,y,-z
-x,-y,-z
x,y,-z
-x,y,z
x,-y,z
1/2+x,1/2+y,z
1/2-x,1/2-y,z
1/2+x,1/2-y,-z
1/2-x,1/2+y,-z
1/2-x,1/2-y,-z
1/2+x,1/2+y,-z
1/2-x,1/2+y,z
1/2+x,1/2-y,z
loop_
_atom_site_type_symbol
_atom_site_label
_atom_site_fract_x
_atom_site_fract_y
_atom_site_fract_z
Si Si1 0.500000 0.592993 0.370288
Si Si2 0.723430 0.912574 0.163787
Si Si3 0.789734 0.159656 0.373756
Si Si4 0.388864 0.807611 0.000000
Si Si5 0.611961 0.383164 0.000000
O O1 0.500000 0.500000 0.329641
O O2 0.500000 0.586355 0.500000
O O3 0.402652 0.642749 0.344444
O O4 0.732889 0.894684 0.289251
O O5 0.680896 0.000000 0.143947
O O6 0.663305 0.844799 0.103440
O O7 0.827941 0.910900 0.104307
O O8 0.777555 0.138923 0.500000
O O9 0.750000 0.250000 0.360174
O O10 0.382667 0.712740 0.000000
O O11 0.500000 0.831459 0.000000
O O12 0.500000 0.406877 0.000000
#
# Coordination Sequence:
#
# PCOD9491835 Si02
#       5
#     8  16  16   8   8
#     4   9  18  34  58  87 116 152 199 245 295 353
#     4  11  22  36  57  85 118 150 190 241 294 353
#     4  10  21  38  59  86 122 160 199 244 295 358
#     4  10  21  40  63  81 110 154 199 241 286 354
#     4  10  21  36  57  85 114 146 187 241 294 344
#
# _framework density 19.507061
#
# number of rings (size 3 to 8) (size 9 to 14) (size 15 to 20)
#    0.000    1.857    0.000    6.000    2.000    4.000 
#    2.571    0.000    0.000    0.000    0.000    2.000 
#    0.000    0.000    0.000    0.000    0.000    0.000 
#
# Total GULP energy -156241.921441 kJ/mol
# GULP energy per Si atom -5580.068623 kJ/mol
# Density = 1.946266 g / cm^3
# Si number density = 19.507061 Si / 1000 Ang^3
#
#
#
# Elastic Constant Matrix: (Units=GPa)
#
#
# Indices 1 2 3 4 5 6 
#
# 1 95.2384 43.7301 14.3474 0.0000 0.0000 0.0000
# 2 43.7301 111.1305 26.8039 0.0000 0.0000 0.0000
# 3 14.3474 26.8039 90.2332 0.0000 0.0000 0.0000
# 4 0.0000 0.0000 0.0000 -55.3739 0.0000 0.0000
# 5 0.0000 0.0000 0.0000 0.0000 3.4955 0.0000
# 6 0.0000 0.0000 0.0000 0.0000 0.0000 -28.6034
#
#
#
# Elastic Compliance Matrix: (Units=1/GPa)
#
#
# Indices 1 2 3 4 5 6 
#
# 1 0.012844 -0.004914 -0.000583 0.000000 0.000000 0.000000
# 2 -0.004914 0.011573 -0.002656 0.000000 0.000000 0.000000
# 3 -0.000583 -0.002656 0.011964 0.000000 0.000000 0.000000
# 4 0.000000 0.000000 0.000000 -0.018059 0.000000 0.000000
# 5 0.000000 0.000000 0.000000 0.000000 0.286080 0.000000
# 6 0.000000 0.000000 0.000000 0.000000 0.000000 -0.034961
#
#
# Mechanical properties :
#
#
# Convention : Reuss Voigt Hill
#
# Bulk Modulus (GPa) = 49.81211 51.81831 50.81521
# Shear Modulus (GPa) = 17.09768 -1.98164 7.55802
#
# Velocity S-wave (km/s) = 2.96376 -1.00899 1.97051
# Velocity P-wave (km/s) = 6.10760 5.02634 5.59316
#
# Compressibility (1/GPa) = 0.02007544
#
# Stress axis : x y z
#
# Youngs Moduli (GPa) = 77.85816 86.41077 83.58323
#
# Poissons Ratio (x) = 0.42458 0.04870
# Poissons Ratio (y) = 0.38256 0.22203
# Poissons Ratio (z) = 0.04536 0.22954
#
# Static dielectric constant tensor:
#      x y z
#    x 1.692820 0.000000 0.000000 
#    y 0.000000 1.679640 0.000000 
#    z 0.000000 0.000000 1.672780 
# 
# From -- ./inp_files/23820.got.cif
#   From: 2010.05.17/outbox.cif.g08.bks.cpg/sg65_12_cif.got.tgz:23820.got - 2010.06.03 17:01:31.
