data_PCOD9491328
_publ_section_title
;
Structure prediction by ZEFSAII (Michael W. Deem and Ramdas Pophale) SiO2 
 PCOD9491328
Probable space group: C M M M
;
_chemical_formula_sum "Si O2"
_cell_formula_units_Z 112
_cell_length_a 14.717416
_cell_length_b 16.793195
_cell_length_c 24.558814
_cell_angle_alpha 90.000000
_cell_angle_beta 90.000000
_cell_angle_gamma 90.000000
_cell_volume 6069.770725
_symmetry_space_group_name_H-M "C M M M"
_symmetry_group_IT_number 65
_symmetry_cell_setting 'orthorhombic'
loop_
_space_group_symop_operation_xyz
x,y,z
-x,-y,z
x,-y,-z
-x,y,-z
-x,-y,-z
x,y,-z
-x,y,z
x,-y,z
1/2+x,1/2+y,z
1/2-x,1/2-y,z
1/2+x,1/2-y,-z
1/2-x,1/2+y,-z
1/2-x,1/2-y,-z
1/2+x,1/2+y,-z
1/2-x,1/2+y,z
1/2+x,1/2-y,z
loop_
_atom_site_type_symbol
_atom_site_label
_atom_site_fract_x
_atom_site_fract_y
_atom_site_fract_z
Si Si1 0.605562 0.623058 0.561897
Si Si2 0.606462 0.814750 0.438979
Si Si3 0.752009 0.903120 0.235192
Si Si4 0.251126 0.845483 0.937494
Si Si5 0.396041 0.403634 0.853236
Si Si6 0.765352 0.409027 0.641251
Si Si7 0.604087 0.903691 0.852189
O O1 0.629565 0.598557 0.500000
O O2 0.500000 0.602620 0.570825
O O3 0.613627 0.719205 0.563837
O O4 0.671949 0.590519 0.607437
O O5 0.636983 0.838786 0.500000
O O6 0.500000 0.834858 0.433664
O O7 0.665635 0.856018 0.393235
O O8 0.839660 0.877119 0.200249
O O9 0.749279 0.877501 0.297637
O O10 0.663226 0.878934 0.200548
O O11 0.754241 0.000000 0.235708
O O12 0.250000 0.750000 0.936773
O O13 0.163271 0.876161 0.904666
O O14 0.339150 0.874879 0.904307
O O15 0.251668 0.872912 0.000000
O O16 0.500000 0.375733 0.854068
O O17 0.396678 0.500000 0.853158
O O18 0.799546 0.500000 0.644808
O O19 0.500000 0.876013 0.851189
O O20 0.603748 0.000000 0.852895
#
# Coordination Sequence:
#
# PCOD9491328 Si02
#       7
#    16  16  16  16  16  16  16
#     4   9  19  36  54  70  94 132 172 206 245 298
#     4   9  19  36  54  70  94 132 172 206 245 298
#     4   8  17  33  50  73 104 133 163 202 250 302
#     4  10  21  35  51  76 111 142 164 196 248 304
#     4   9  18  35  58  77  96 131 176 214 245 283
#     4  11  21  31  50  79 105 129 159 203 258 305
#     4   9  18  35  58  77  96 131 176 214 245 283
#
# _framework density 18.452096999999998
#
# number of rings (size 3 to 8) (size 9 to 14) (size 15 to 20)
#    0.000    2.714    0.000    3.000    0.000    6.286 
#    0.000   12.857    0.000    0.000    0.000    0.000 
#    0.000    0.000    0.000    0.000    0.000    0.000 
#
# Total GULP energy -312417.528367 kJ/mol
# GULP energy per Si atom -5578.884435 kJ/mol
# Density = 1.841010 g / cm^3
# Si number density = 18.452097 Si / 1000 Ang^3
#
#
#
# Elastic Constant Matrix: (Units=GPa)
#
#
# Indices 1 2 3 4 5 6 
#
# 1 148.6703 24.8231 93.2359 0.0000 0.0000 0.0000
# 2 24.8231 23.4265 26.7520 0.0000 0.0000 0.0000
# 3 93.2359 26.7520 187.9180 0.0000 0.0000 0.0000
# 4 0.0000 0.0000 0.0000 26.9312 0.0000 0.0000
# 5 0.0000 0.0000 0.0000 0.0000 23.9539 0.0000
# 6 0.0000 0.0000 0.0000 0.0000 0.0000 -15.4374
#
#
#
# Elastic Compliance Matrix: (Units=1/GPa)
#
#
# Indices 1 2 3 4 5 6 
#
# 1 0.010459 -0.006158 -0.004313 0.000000 0.000000 0.000000
# 2 -0.006158 0.054599 -0.004718 0.000000 0.000000 0.000000
# 3 -0.004313 -0.004718 0.008133 0.000000 0.000000 0.000000
# 4 0.000000 0.000000 0.000000 0.037132 0.000000 0.000000
# 5 0.000000 0.000000 0.000000 0.000000 0.041747 0.000000
# 6 0.000000 0.000000 0.000000 0.000000 0.000000 -0.064778
#
#
# Mechanical properties :
#
#
# Convention : Reuss Voigt Hill
#
# Bulk Modulus (GPa) = 23.35645 72.18189 47.76917
# Shear Modulus (GPa) = 37.89636 21.43644 29.66640
#
# Velocity S-wave (km/s) = 4.53677 3.41212 4.01403
# Velocity P-wave (km/s) = 6.33470 7.39776 6.88677
#
# Compressibility (1/GPa) = 0.04281472
#
# Stress axis : x y z
#
# Youngs Moduli (GPa) = 95.61104 18.31547 122.95895
#
# Poissons Ratio (x) = 0.11278 0.53028
# Poissons Ratio (y) = 0.58875 0.58006
# Poissons Ratio (z) = 0.41234 0.08640
#
# Static dielectric constant tensor:
#      x y z
#    x 1.627270 0.000000 0.000000 
#    y 0.000000 1.652450 0.000000 
#    z 0.000000 0.000000 1.617620 
# 
# From -- ./inp_files/70031.got.cif
#   From: 2010.05.17/outbox.cif.g08.bks.cpg/sg65_36_cif.got.tgz:70031.got - 2010.06.03 17:01:31.
