data_PCOD9491430
_publ_section_title
;
Structure prediction by ZEFSAII (Michael W. Deem and Ramdas Pophale) SiO2 
 PCOD9491430
Probable space group: C M M M
;
_chemical_formula_sum "Si O2"
_cell_formula_units_Z 88
_cell_length_a 18.079800
_cell_length_b 10.694644
_cell_length_c 25.370884
_cell_angle_alpha 90.000000
_cell_angle_beta 90.000000
_cell_angle_gamma 90.000000
_cell_volume 4905.638641
_symmetry_space_group_name_H-M "C M M M"
_symmetry_group_IT_number 65
_symmetry_cell_setting 'orthorhombic'
loop_
_space_group_symop_operation_xyz
x,y,z
-x,-y,z
x,-y,-z
-x,y,-z
-x,-y,-z
x,y,-z
-x,y,z
x,-y,z
1/2+x,1/2+y,z
1/2-x,1/2-y,z
1/2+x,1/2-y,-z
1/2-x,1/2+y,-z
1/2-x,1/2-y,-z
1/2+x,1/2+y,-z
1/2-x,1/2+y,z
1/2+x,1/2-y,z
loop_
_atom_site_type_symbol
_atom_site_label
_atom_site_fract_x
_atom_site_fract_y
_atom_site_fract_z
Si Si1 0.089963 0.858744 0.439359
Si Si2 0.917144 0.644856 0.841194
Si Si3 0.685250 0.851268 0.254149
Si Si4 0.837944 0.743312 0.938115
Si Si5 0.916715 0.000000 0.936348
Si Si6 0.911637 0.358327 0.359536
O O1 0.113086 0.837382 0.500000
O O2 0.113232 0.748958 0.400113
O O3 0.000000 0.857946 0.439332
O O4 0.112903 0.000000 0.423752
O O5 0.925085 0.500000 0.827035
O O6 0.861622 0.693631 0.796806
O O7 0.878820 0.652518 0.898120
O O8 0.000000 0.700560 0.841997
O O9 0.750000 0.750000 0.261339
O O10 0.631960 0.847721 0.304905
O O11 0.707794 0.000000 0.247538
O O12 0.750000 0.750000 0.931435
O O13 0.871958 0.876955 0.922755
O O14 0.852913 0.717274 0.000000
O O15 0.000000 0.000000 0.915423
O O16 0.921358 0.000000 0.000000
O O17 0.900173 0.500000 0.380305
O O18 0.000000 0.344205 0.350380
#
# Coordination Sequence:
#
# PCOD9491430 Si02
#       6
#    16  16  16  16   8  16
#     4   8  14  25  43  71 108 145 177 214 263 314
#     4  10  21  37  57  79 105 136 171 216 268 321
#     4  10  21  38  57  77 104 138 176 218 269 324
#     4  10  21  35  55  81 110 142 178 218 263 319
#     4   9  18  34  54  74 103 143 179 213 261 319
#     4   9  17  30  51  77 104 137 177 220 265 315
#
# _framework density 17.938541000000001
#
# number of rings (size 3 to 8) (size 9 to 14) (size 15 to 20)
#    0.000    2.636    0.000    2.182    1.273    4.727 
#    1.636    2.727    0.000    1.636    0.000    0.000 
#    0.000    0.000    0.000    0.000    0.000    0.000 
#
# Total GULP energy -245030.058197 kJ/mol
# GULP energy per Si atom -5568.864959 kJ/mol
# Density = 1.789771 g / cm^3
# Si number density = 17.938541 Si / 1000 Ang^3
#
#
#
# Elastic Constant Matrix: (Units=GPa)
#
#
# Indices 1 2 3 4 5 6 
#
# 1 74.6502 49.6356 35.2643 0.0000 0.0000 0.0000
# 2 49.6356 86.9230 47.6725 0.0000 0.0000 0.0000
# 3 35.2643 47.6725 79.5603 0.0000 0.0000 0.0000
# 4 0.0000 0.0000 0.0000 30.8134 0.0000 0.0000
# 5 0.0000 0.0000 0.0000 0.0000 9.2348 0.0000
# 6 0.0000 0.0000 0.0000 0.0000 0.0000 23.2863
#
#
#
# Elastic Compliance Matrix: (Units=1/GPa)
#
#
# Indices 1 2 3 4 5 6 
#
# 1 0.022175 -0.010832 -0.003339 0.000000 0.000000 0.000000
# 2 -0.010832 0.022426 -0.008637 0.000000 0.000000 0.000000
# 3 -0.003339 -0.008637 0.019224 0.000000 0.000000 0.000000
# 4 0.000000 0.000000 0.000000 0.032453 0.000000 0.000000
# 5 0.000000 0.000000 0.000000 0.000000 0.108286 0.000000
# 6 0.000000 0.000000 0.000000 0.000000 0.000000 0.042944
#
#
# Mechanical properties :
#
#
# Convention : Reuss Voigt Hill
#
# Bulk Modulus (GPa) = 54.91062 56.25313 55.58187
# Shear Modulus (GPa) = 16.71162 19.90430 18.30796
#
# Velocity S-wave (km/s) = 3.05553 3.33465 3.19814
# Velocity P-wave (km/s) = 6.56698 6.80099 6.68501
#
# Compressibility (1/GPa) = 0.01821141
#
# Stress axis : x y z
#
# Youngs Moduli (GPa) = 45.09603 44.59018 52.01797
#
# Poissons Ratio (x) = 0.48298 0.17366
# Poissons Ratio (y) = 0.48846 0.44928
# Poissons Ratio (z) = 0.15056 0.38512
#
# Static dielectric constant tensor:
#      x y z
#    x 1.617720 0.000000 0.000000 
#    y 0.000000 1.642400 0.000000 
#    z 0.000000 0.000000 1.594190 
# 
# From -- ./inp_files/69788.got.cif
#   From: 2010.05.17/outbox.cif.g08.bks.cpg/sg65_35_cif.got.tgz:69788.got - 2010.06.03 17:01:31.
