data_PCOD9491924
_publ_section_title
;
Structure prediction by ZEFSAII (Michael W. Deem and Ramdas Pophale) SiO2 
 PCOD9491924
Probable space group: C M M M
;
_chemical_formula_sum "Si O2"
_cell_formula_units_Z 104
_cell_length_a 26.651170
_cell_length_b 24.561117
_cell_length_c 7.759054
_cell_angle_alpha 90.000000
_cell_angle_beta 90.000000
_cell_angle_gamma 90.000000
_cell_volume 5078.941000
_symmetry_space_group_name_H-M "C M M M"
_symmetry_group_IT_number 65
_symmetry_cell_setting 'orthorhombic'
loop_
_space_group_symop_operation_xyz
x,y,z
-x,-y,z
x,-y,-z
-x,y,-z
-x,-y,-z
x,y,-z
-x,y,z
x,-y,z
1/2+x,1/2+y,z
1/2-x,1/2-y,z
1/2+x,1/2-y,-z
1/2-x,1/2+y,-z
1/2-x,1/2-y,-z
1/2+x,1/2+y,-z
1/2-x,1/2+y,z
1/2+x,1/2-y,z
loop_
_atom_site_type_symbol
_atom_site_label
_atom_site_fract_x
_atom_site_fract_y
_atom_site_fract_z
Si Si1 0.206650 0.287099 0.699880
Si Si2 0.788177 0.500000 0.210055
Si Si3 0.555065 0.835468 0.204241
Si Si4 0.845168 0.393536 0.799412
Si Si5 0.898238 0.224368 0.300950
Si Si6 0.391874 0.603569 0.700248
Si Si7 0.500000 0.564936 0.800539
Si Si8 0.829635 0.000000 0.293484
O O1 0.219752 0.299267 0.500000
O O2 0.250000 0.250000 0.776843
O O3 0.193802 0.343735 0.787828
O O4 0.156429 0.251501 0.701911
O O5 0.818507 0.553093 0.273274
O O6 0.729807 0.500000 0.262166
O O7 0.787953 0.500000 0.000000
O O8 0.500000 0.848120 0.276876
O O9 0.602395 0.870014 0.276378
O O10 0.566580 0.771105 0.223166
O O11 0.553774 0.846275 0.000000
O O12 0.855079 0.405328 0.000000
O O13 0.914712 0.217900 0.500000
O O14 0.892703 0.164337 0.221956
O O15 0.376198 0.610247 0.500000
O O16 0.449168 0.584137 0.711665
O O17 0.356837 0.555198 0.773862
O O18 0.500000 0.500000 0.799771
O O19 0.500000 0.583641 0.000000
O O20 0.838456 0.000000 0.500000
#
# Coordination Sequence:
#
# PCOD9491924 Si02
#       8
#    16   8  16  16  16  16   8   8
#     4   9  18  32  53  77 104 135 171 216 259 306
#     4  10  22  38  56  79 110 144 177 221 270 319
#     4   9  18  34  55  78 106 138 173 216 263 316
#     4   9  19  36  54  76 107 141 176 215 267 322
#     4   9  19  33  50  76 105 134 169 211 260 313
#     4  10  21  37  55  75 102 137 179 221 266 317
#     4  11  23  37  53  73 101 137 177 222 267 310
#     4  10  22  37  57  79 102 139 184 227 266 315
#
# _framework density 20.476709
#
# number of rings (size 3 to 8) (size 9 to 14) (size 15 to 20)
#    0.000    2.538    0.769    0.231    3.231    2.769 
#    0.000    0.385    0.000    2.308    0.000    0.000 
#    0.000    5.538    0.000    0.000    0.000    0.000 
#
# Total GULP energy -289846.435466 kJ/mol
# GULP energy per Si atom -5573.969913 kJ/mol
# Density = 2.043010 g / cm^3
# Si number density = 20.476709 Si / 1000 Ang^3
#
#
#
# Elastic Constant Matrix: (Units=GPa)
#
#
# Indices 1 2 3 4 5 6 
#
# 1 129.2158 78.1318 -2.9921 0.0000 0.0000 0.0000
# 2 78.1318 157.2370 -1.6696 0.0000 0.0000 0.0000
# 3 -2.9921 -1.6696 27.3661 0.0000 0.0000 0.0000
# 4 0.0000 0.0000 0.0000 20.3131 0.0000 0.0000
# 5 0.0000 0.0000 0.0000 0.0000 -167.8349 0.0000
# 6 0.0000 0.0000 0.0000 0.0000 0.0000 4.0267
#
#
#
# Elastic Compliance Matrix: (Units=1/GPa)
#
#
# Indices 1 2 3 4 5 6 
#
# 1 0.011084 -0.005498 0.000876 0.000000 0.000000 0.000000
# 2 -0.005498 0.009091 -0.000047 0.000000 0.000000 0.000000
# 3 0.000876 -0.000047 0.036635 0.000000 0.000000 0.000000
# 4 0.000000 0.000000 0.000000 0.049229 0.000000 0.000000
# 5 0.000000 0.000000 0.000000 0.000000 -0.005958 0.000000
# 6 0.000000 0.000000 0.000000 0.000000 0.000000 0.248342
#
#
# Mechanical properties :
#
#
# Convention : Reuss Voigt Hill
#
# Bulk Modulus (GPa) = 21.06454 51.19546 36.13000
# Shear Modulus (GPa) = 13.38385 -12.67576 0.35405
#
# Velocity S-wave (km/s) = 2.55936 -2.49074 0.41627
# Velocity P-wave (km/s) = 4.36385 4.09687 4.23247
#
# Compressibility (1/GPa) = 0.04747316
#
# Stress axis : x y z
#
# Youngs Moduli (GPa) = 90.22071 109.99298 27.29661
#
# Poissons Ratio (x) = 0.60478 -0.02392
# Poissons Ratio (y) = 0.49607 0.00127
# Poissons Ratio (z) = -0.07907 0.00512
#
# Static dielectric constant tensor:
#      x y z
#    x 1.719600 0.000000 0.000000 
#    y 0.000000 1.737860 0.000000 
#    z 0.000000 0.000000 1.795980 
# 
# From -- ./inp_files/16853.got.cif
#   From: 2010.05.17/outbox.cif.g08.bks.cpg/sg65_9_cif.got.tgz:16853.got - 2010.06.03 17:01:31.
