data_PCOD9491090
_publ_section_title
;
Structure prediction by ZEFSAII (Michael W. Deem and Ramdas Pophale) SiO2 
 PCOD9491090
Probable space group: C M M M
;
_chemical_formula_sum "Si O2"
_cell_formula_units_Z 48
_cell_length_a 17.356766
_cell_length_b 7.376663
_cell_length_c 20.130648
_cell_angle_alpha 90.000000
_cell_angle_beta 90.000000
_cell_angle_gamma 90.000000
_cell_volume 2577.427789
_symmetry_space_group_name_H-M "C M M M"
_symmetry_group_IT_number 65
_symmetry_cell_setting 'orthorhombic'
loop_
_space_group_symop_operation_xyz
x,y,z
-x,-y,z
x,-y,-z
-x,y,-z
-x,-y,-z
x,y,-z
-x,y,z
x,-y,z
1/2+x,1/2+y,z
1/2-x,1/2-y,z
1/2+x,1/2-y,-z
1/2-x,1/2+y,-z
1/2-x,1/2-y,-z
1/2+x,1/2+y,-z
1/2-x,1/2+y,z
1/2+x,1/2-y,z
loop_
_atom_site_type_symbol
_atom_site_label
_atom_site_fract_x
_atom_site_fract_y
_atom_site_fract_z
Si Si1 0.407155 0.209221 0.639059
Si Si2 0.406183 0.500000 0.254499
Si Si3 0.659528 0.784328 0.500000
Si Si4 0.658432 0.784433 0.000000
Si Si5 0.592792 0.500000 0.898038
O O1 0.500000 0.214427 0.635761
O O2 0.382017 0.327209 0.701855
O O3 0.375869 0.283203 0.569053
O O4 0.383093 0.000000 0.646488
O O5 0.500000 0.500000 0.252883
O O6 0.380937 0.500000 0.178425
O O7 0.750000 0.750000 0.500000
O O8 0.643575 0.000000 0.500000
O O9 0.750000 0.750000 0.000000
O O10 0.623248 0.676915 0.062963
O O11 0.643085 0.000000 0.000000
O O12 0.500000 0.500000 0.900766
#
# Coordination Sequence:
#
# PCOD9491090 Si02
#       5
#    16   8   8   8   8
#     4   9  18  34  55  77 102 140 188 229 274 331
#     4   9  19  35  57  83 113 143 176 229 282 328
#     4  10  21  33  50  72 106 140 181 237 282 318
#     4  11  21  39  66  87 120 159 195 232 285 343
#     4  10  22  39  61  96 126 147 193 248 283 338
#
# _framework density 18.623217
#
# number of rings (size 3 to 8) (size 9 to 14) (size 15 to 20)
#    0.000    2.333    1.667    1.500    2.333    4.667 
#    0.000    7.500    0.000    0.000    0.000    0.000 
#    0.000    0.000    0.000    0.000    0.000    0.000 
#
# Total GULP energy -133880.901499 kJ/mol
# GULP energy per Si atom -5578.370896 kJ/mol
# Density = 1.858083 g / cm^3
# Si number density = 18.623217 Si / 1000 Ang^3
#
#
#
# Elastic Constant Matrix: (Units=GPa)
#
#
# Indices 1 2 3 4 5 6 
#
# 1 45.2712 26.4178 39.0447 0.0000 0.0000 0.0000
# 2 26.4178 152.9745 95.9250 0.0000 0.0000 0.0000
# 3 39.0447 95.9250 221.6702 0.0000 0.0000 0.0000
# 4 0.0000 0.0000 0.0000 16.9789 0.0000 0.0000
# 5 0.0000 0.0000 0.0000 0.0000 -14.3237 0.0000
# 6 0.0000 0.0000 0.0000 0.0000 0.0000 22.8392
#
#
#
# Elastic Compliance Matrix: (Units=1/GPa)
#
#
# Indices 1 2 3 4 5 6 
#
# 1 0.026610 -0.002273 -0.003703 0.000000 0.000000 0.000000
# 2 -0.002273 0.009166 -0.003566 0.000000 0.000000 0.000000
# 3 -0.003703 -0.003566 0.006707 0.000000 0.000000 0.000000
# 4 0.000000 0.000000 0.000000 0.058897 0.000000 0.000000
# 5 0.000000 0.000000 0.000000 0.000000 -0.069814 0.000000
# 6 0.000000 0.000000 0.000000 0.000000 0.000000 0.043784
#
#
# Mechanical properties :
#
#
# Convention : Reuss Voigt Hill
#
# Bulk Modulus (GPa) = 42.74035 82.52123 62.63079
# Shear Modulus (GPa) = 48.90839 22.33412 35.62125
#
# Velocity S-wave (km/s) = 5.13021 3.46679 4.37823
# Velocity P-wave (km/s) = 7.62181 7.77380 7.69818
#
# Compressibility (1/GPa) = 0.02339710
#
# Stress axis : x y z
#
# Youngs Moduli (GPa) = 37.58056 109.10278 149.10632
#
# Poissons Ratio (x) = 0.24800 0.55219
# Poissons Ratio (y) = 0.08542 0.53171
# Poissons Ratio (z) = 0.13917 0.38906
#
# Static dielectric constant tensor:
#      x y z
#    x 1.616500 0.000000 0.000000 
#    y 0.000000 1.669560 0.000000 
#    z 0.000000 0.000000 1.633830 
# 
# From -- ./inp_files/53763.got.cif
#   From: 2010.05.17/outbox.cif.g08.bks.cpg/sg65_27_cif.got.tgz:53763.got - 2010.06.03 17:01:31.
