data_PCOD9491830
_publ_section_title
;
Structure prediction by ZEFSAII (Michael W. Deem and Ramdas Pophale) SiO2 
 PCOD9491830
Probable space group: C M M M
;
_chemical_formula_sum "Si O2"
_cell_formula_units_Z 116
_cell_length_a 19.809862
_cell_length_b 18.878516
_cell_length_c 17.393851
_cell_angle_alpha 90.000000
_cell_angle_beta 90.000000
_cell_angle_gamma 90.000000
_cell_volume 6504.966255
_symmetry_space_group_name_H-M "C M M M"
_symmetry_group_IT_number 65
_symmetry_cell_setting 'orthorhombic'
loop_
_space_group_symop_operation_xyz
x,y,z
-x,-y,z
x,-y,-z
-x,y,-z
-x,-y,-z
x,y,-z
-x,y,z
x,-y,z
1/2+x,1/2+y,z
1/2-x,1/2-y,z
1/2+x,1/2-y,-z
1/2-x,1/2+y,-z
1/2-x,1/2-y,-z
1/2+x,1/2+y,-z
1/2-x,1/2+y,z
1/2+x,1/2-y,z
loop_
_atom_site_type_symbol
_atom_site_label
_atom_site_fract_x
_atom_site_fract_y
_atom_site_fract_z
Si Si1 0.576729 0.688355 0.303425
Si Si2 0.000000 0.626890 0.000000
Si Si3 0.819678 0.788027 0.832377
Si Si4 0.846150 0.917343 0.407637
Si Si5 0.075052 0.352647 0.689035
Si Si6 0.752312 0.078743 0.092034
Si Si7 0.306195 0.914815 0.588079
Si Si8 0.113372 0.645629 0.131745
O O1 0.500000 0.673921 0.277201
O O2 0.631072 0.687767 0.235208
O O3 0.600489 0.632705 0.366717
O O4 0.577557 0.769467 0.332100
O O5 0.941335 0.628216 0.932228
O O6 0.750000 0.750000 0.804613
O O7 0.798601 0.856951 0.879729
O O8 0.858464 0.726046 0.878683
O O9 0.851075 0.913622 0.500000
O O10 0.769584 0.893525 0.387146
O O11 0.854402 0.000000 0.385721
O O12 0.135489 0.389671 0.644334
O O13 0.085748 0.357682 0.781102
O O14 0.000000 0.380185 0.670167
O O15 0.677607 0.094455 0.123881
O O16 0.774848 0.000000 0.116107
O O17 0.748724 0.080656 0.000000
O O18 0.317518 0.890190 0.500000
O O19 0.305351 0.000000 0.586345
#
# Coordination Sequence:
#
# PCOD9491830 Si02
#       8
#    16   4  16  16  16  16  16  16
#     4  10  22  37  55  84 116 144 180 231 287 340
#     4  12  20  36  63  84 115 158 200 226 284 352
#     4   9  21  37  58  83 111 145 191 234 277 336
#     4   9  20  38  58  81 109 146 193 237 280 338
#     4  10  21  37  54  81 120 149 184 237 291 338
#     4  10  21  37  55  80 111 143 184 235 285 334
#     4   9  20  38  59  83 111 148 196 240 277 336
#     4  10  21  36  57  84 111 150 192 234 279 340
#
# _framework density 17.832529000000001
#
# number of rings (size 3 to 8) (size 9 to 14) (size 15 to 20)
#    0.000    2.345    1.379    0.828    7.724    3.586 
#    0.000    4.828    0.000    0.000    0.000    1.448 
#    0.000    0.000    0.000    0.000    0.000    0.000 
#
# Total GULP energy -322900.090132 kJ/mol
# GULP energy per Si atom -5567.242933 kJ/mol
# Density = 1.779194 g / cm^3
# Si number density = 17.832529 Si / 1000 Ang^3
#
#
#
# Elastic Constant Matrix: (Units=GPa)
#
#
# Indices 1 2 3 4 5 6 
#
# 1 67.1886 13.7023 28.2685 0.0000 0.0000 0.0000
# 2 13.7023 46.7741 21.6020 0.0000 0.0000 0.0000
# 3 28.2685 21.6020 44.2941 0.0000 0.0000 0.0000
# 4 0.0000 0.0000 0.0000 25.9877 0.0000 0.0000
# 5 0.0000 0.0000 0.0000 0.0000 25.8508 0.0000
# 6 0.0000 0.0000 0.0000 0.0000 0.0000 6.6502
#
#
#
# Elastic Compliance Matrix: (Units=1/GPa)
#
#
# Indices 1 2 3 4 5 6 
#
# 1 0.020347 0.000047 -0.013008 0.000000 0.000000 0.000000
# 2 0.000047 0.027595 -0.013488 0.000000 0.000000 0.000000
# 3 -0.013008 -0.013488 0.037456 0.000000 0.000000 0.000000
# 4 0.000000 0.000000 0.000000 0.038480 0.000000 0.000000
# 5 0.000000 0.000000 0.000000 0.000000 0.038684 0.000000
# 6 0.000000 0.000000 0.000000 0.000000 0.000000 0.150371
#
#
# Mechanical properties :
#
#
# Convention : Reuss Voigt Hill
#
# Bulk Modulus (GPa) = 30.76952 31.71138 31.24045
# Shear Modulus (GPa) = 13.27446 18.01002 15.64224
#
# Velocity S-wave (km/s) = 2.73132 3.18142 2.96493
# Velocity P-wave (km/s) = 5.21910 5.59614 5.41090
#
# Compressibility (1/GPa) = 0.03249969
#
# Stress axis : x y z
#
# Youngs Moduli (GPa) = 49.14743 36.23885 26.69780
#
# Poissons Ratio (x) = -0.00171 0.34730
# Poissons Ratio (y) = -0.00232 0.36010
# Poissons Ratio (z) = 0.63933 0.48878
#
# Static dielectric constant tensor:
#      x y z
#    x 1.609740 0.000000 0.000000 
#    y 0.000000 1.616470 0.000000 
#    z 0.000000 0.000000 1.593360 
# 
# From -- ./inp_files/54690.got.cif
#   From: 2010.05.17/outbox.cif.g08.bks.cpg/sg65_28_cif.got.tgz:54690.got - 2010.06.03 17:01:31.
