data_PCOD9491517
_publ_section_title
;
Structure prediction by ZEFSAII (Michael W. Deem and Ramdas Pophale) SiO2 
 PCOD9491517
Probable space group: C M M M
;
_chemical_formula_sum "Si O2"
_cell_formula_units_Z 104
_cell_length_a 30.547720
_cell_length_b 8.542316
_cell_length_c 23.468770
_cell_angle_alpha 90.000000
_cell_angle_beta 90.000000
_cell_angle_gamma 90.000000
_cell_volume 6124.135102
_symmetry_space_group_name_H-M "C M M M"
_symmetry_group_IT_number 65
_symmetry_cell_setting 'orthorhombic'
loop_
_space_group_symop_operation_xyz
x,y,z
-x,-y,z
x,-y,-z
-x,y,-z
-x,-y,-z
x,y,-z
-x,y,z
x,-y,z
1/2+x,1/2+y,z
1/2-x,1/2-y,z
1/2+x,1/2-y,-z
1/2-x,1/2+y,-z
1/2-x,1/2-y,-z
1/2+x,1/2+y,-z
1/2-x,1/2+y,z
1/2+x,1/2-y,z
loop_
_atom_site_type_symbol
_atom_site_label
_atom_site_fract_x
_atom_site_fract_y
_atom_site_fract_z
Si Si1 0.448942 0.690171 0.375008
Si Si2 0.297050 0.814163 0.236135
Si Si3 0.446912 0.680474 0.500000
Si Si4 0.000000 0.687205 0.933514
Si Si5 0.104707 0.687767 0.268507
Si Si6 0.663731 0.186021 0.116816
Si Si7 0.072425 0.817792 0.151833
Si Si8 0.298867 0.311777 0.000000
O O1 0.500000 0.734667 0.365275
O O2 0.447817 0.500000 0.375644
O O3 0.435038 0.748197 0.438309
O O4 0.417634 0.752385 0.325924
O O5 0.250000 0.750000 0.255951
O O6 0.344251 0.757704 0.261358
O O7 0.302444 0.785255 0.168282
O O8 0.296069 0.000000 0.245226
O O9 0.431607 0.500000 0.500000
O O10 0.500000 0.676361 0.500000
O O11 0.959145 0.742630 0.895268
O O12 0.000000 0.500000 0.935907
O O13 0.000000 0.743755 0.000000
O O14 0.105568 0.500000 0.266987
O O15 0.075024 0.744136 0.215075
O O16 0.621161 0.286813 0.130020
O O17 0.680150 0.239443 0.056178
O O18 0.653192 0.000000 0.118091
O O19 0.061782 0.000000 0.156797
O O20 0.250000 0.250000 0.000000
O O21 0.301300 0.500000 0.000000
#
# Coordination Sequence:
#
# PCOD9491517 Si02
#       8
#    16  16   8   8  16  16  16   8
#     4   9  17  30  51  78 109 144 184 221 259 306
#     4   9  19  34  53  74  98 130 167 210 259 314
#     4   7  12  26  47  73 106 143 178 219 262 305
#     4  11  25  43  61  77  99 136 175 214 270 324
#     4  10  21  36  52  77 111 144 177 214 268 320
#     4  10  21  38  56  75 102 131 161 204 261 321
#     4  11  23  39  58  79 103 132 174 221 260 310
#     4  12  24  36  52  77 102 129 164 204 254 316
#
# _framework density 16.98199
#
# number of rings (size 3 to 8) (size 9 to 14) (size 15 to 20)
#    0.000    2.154    0.000    5.538    2.154    5.846 
#    0.000    0.385    0.000    1.385    0.000    0.538 
#    0.000    0.000    0.000    0.000    0.000    0.000 
#
# Total GULP energy -289775.019116 kJ/mol
# GULP energy per Si atom -5572.596521 kJ/mol
# Density = 1.694334 g / cm^3
# Si number density = 16.981990 Si / 1000 Ang^3
#
#
#
# Elastic Constant Matrix: (Units=GPa)
#
#
# Indices 1 2 3 4 5 6 
#
# 1 80.0487 24.2505 61.5728 0.0000 0.0000 0.0000
# 2 24.2505 44.7213 28.3093 0.0000 0.0000 0.0000
# 3 61.5728 28.3093 157.8968 0.0000 0.0000 0.0000
# 4 0.0000 0.0000 0.0000 17.1864 0.0000 0.0000
# 5 0.0000 0.0000 0.0000 0.0000 15.7443 0.0000
# 6 0.0000 0.0000 0.0000 0.0000 0.0000 23.3163
#
#
#
# Elastic Compliance Matrix: (Units=1/GPa)
#
#
# Indices 1 2 3 4 5 6 
#
# 1 0.019366 -0.006453 -0.006395 0.000000 0.000000 0.000000
# 2 -0.006453 0.027374 -0.002391 0.000000 0.000000 0.000000
# 3 -0.006395 -0.002391 0.009256 0.000000 0.000000 0.000000
# 4 0.000000 0.000000 0.000000 0.058186 0.000000 0.000000
# 5 0.000000 0.000000 0.000000 0.000000 0.063515 0.000000
# 6 0.000000 0.000000 0.000000 0.000000 0.000000 0.042888
#
#
# Mechanical properties :
#
#
# Convention : Reuss Voigt Hill
#
# Bulk Modulus (GPa) = 39.19026 56.77024 47.98025
# Shear Modulus (GPa) = 19.26262 22.48502 20.87382
#
# Velocity S-wave (km/s) = 3.37159 3.64270 3.50976
# Velocity P-wave (km/s) = 6.18744 7.15504 6.68876
#
# Compressibility (1/GPa) = 0.02551655
#
# Stress axis : x y z
#
# Youngs Moduli (GPa) = 51.63574 36.53114 108.04078
#
# Poissons Ratio (x) = 0.23575 0.69092
# Poissons Ratio (y) = 0.33323 0.25836
# Poissons Ratio (z) = 0.33021 0.08736
#
# Static dielectric constant tensor:
#      x y z
#    x 1.571570 0.000000 0.000000 
#    y 0.000000 1.587310 0.000000 
#    z 0.000000 0.000000 1.637560 
# 
# From -- ./inp_files/71927.got.cif
#   From: 2010.05.17/outbox.cif.g08.bks.cpg/sg65_36_cif.got.tgz:71927.got - 2010.06.03 17:01:31.
