data_PCOD9491660
_publ_section_title
;
Structure prediction by ZEFSAII (Michael W. Deem and Ramdas Pophale) SiO2 
 PCOD9491660
Probable space group: C M M M
;
_chemical_formula_sum "Si O2"
_cell_formula_units_Z 96
_cell_length_a 24.872115
_cell_length_b 23.802568
_cell_length_c 8.867716
_cell_angle_alpha 90.000000
_cell_angle_beta 90.000000
_cell_angle_gamma 90.000000
_cell_volume 5249.867076
_symmetry_space_group_name_H-M "C M M M"
_symmetry_group_IT_number 65
_symmetry_cell_setting 'orthorhombic'
loop_
_space_group_symop_operation_xyz
x,y,z
-x,-y,z
x,-y,-z
-x,y,-z
-x,-y,-z
x,y,-z
-x,y,z
x,-y,z
1/2+x,1/2+y,z
1/2-x,1/2-y,z
1/2+x,1/2-y,-z
1/2-x,1/2+y,-z
1/2-x,1/2-y,-z
1/2+x,1/2+y,-z
1/2-x,1/2+y,z
1/2+x,1/2-y,z
loop_
_atom_site_type_symbol
_atom_site_label
_atom_site_fract_x
_atom_site_fract_y
_atom_site_fract_z
Si Si1 0.162528 0.138656 0.680547
Si Si2 0.939661 0.338768 0.820529
Si Si3 0.662066 0.238606 0.179929
Si Si4 0.225585 0.372087 0.819477
Si Si5 0.439246 0.434869 0.683493
Si Si6 0.124977 0.564632 0.320298
O O1 0.164677 0.135595 0.500000
O O2 0.162928 0.203153 0.733581
O O3 0.217104 0.113544 0.749379
O O4 0.108863 0.105851 0.733022
O O5 0.894688 0.292089 0.789276
O O6 0.922481 0.394861 0.734542
O O7 0.000000 0.320996 0.782586
O O8 0.936724 0.349854 0.000000
O O9 0.707080 0.191953 0.220213
O O10 0.666918 0.249242 0.000000
O O11 0.178834 0.412075 0.757866
O O12 0.227368 0.374926 0.000000
O O13 0.439405 0.433764 0.500000
O O14 0.500000 0.418886 0.732158
O O15 0.429869 0.500000 0.727469
O O16 0.131066 0.569027 0.500000
O O17 0.115535 0.500000 0.280098
#
# Coordination Sequence:
#
# PCOD9491660 Si02
#       6
#    16  16  16  16  16  16
#     4  11  21  31  52  84 107 129 170 218 263 312
#     4   9  19  36  56  77 104 142 184 220 258 310
#     4   9  19  35  52  72 103 141 176 211 255 307
#     4  10  21  37  55  74 102 141 179 213 255 312
#     4   8  16  33  53  72 100 136 168 201 246 301
#     4  10  21  36  54  78 108 139 173 219 271 314
#
# _framework density 18.286176999999999
#
# number of rings (size 3 to 8) (size 9 to 14) (size 15 to 20)
#    0.000    2.500    0.000    3.500    0.000    8.667 
#    0.000    3.333    0.000    3.000    0.000    4.667 
#    0.000    0.000    0.000    0.000    0.000    0.000 
#
# Total GULP energy -267805.841844 kJ/mol
# GULP energy per Si atom -5579.288372 kJ/mol
# Density = 1.824456 g / cm^3
# Si number density = 18.286177 Si / 1000 Ang^3
#
#
#
# Elastic Constant Matrix: (Units=GPa)
#
#
# Indices 1 2 3 4 5 6 
#
# 1 116.6020 10.0185 19.5287 0.0000 0.0000 0.0000
# 2 10.0185 20.3935 9.1024 0.0000 0.0000 0.0000
# 3 19.5287 9.1024 17.9449 0.0000 0.0000 0.0000
# 4 0.0000 0.0000 0.0000 38.2714 0.0000 0.0000
# 5 0.0000 0.0000 0.0000 0.0000 26.9523 0.0000
# 6 0.0000 0.0000 0.0000 0.0000 0.0000 14.3528
#
#
#
# Elastic Compliance Matrix: (Units=1/GPa)
#
#
# Indices 1 2 3 4 5 6 
#
# 1 0.010488 -0.000075 -0.011375 0.000000 0.000000 0.000000
# 2 -0.000075 0.063386 -0.032071 0.000000 0.000000 0.000000
# 3 -0.011375 -0.032071 0.084373 0.000000 0.000000 0.000000
# 4 0.000000 0.000000 0.000000 0.026129 0.000000 0.000000
# 5 0.000000 0.000000 0.000000 0.000000 0.037103 0.000000
# 6 0.000000 0.000000 0.000000 0.000000 0.000000 0.069673
#
#
# Mechanical properties :
#
#
# Convention : Reuss Voigt Hill
#
# Bulk Modulus (GPa) = 14.04390 25.80439 19.92414
# Shear Modulus (GPa) = 12.43999 23.66802 18.05401
#
# Velocity S-wave (km/s) = 2.61108 3.60156 3.14555
# Velocity P-wave (km/s) = 4.09720 5.60687 4.91040
#
# Compressibility (1/GPa) = 0.07120527
#
# Stress axis : x y z
#
# Youngs Moduli (GPa) = 95.34893 15.77627 11.85208
#
# Poissons Ratio (x) = 0.00118 0.13482
# Poissons Ratio (y) = 0.00714 0.38011
# Poissons Ratio (z) = 1.08464 0.50596
#
# Static dielectric constant tensor:
#      x y z
#    x 1.643790 0.000000 0.000000 
#    y 0.000000 1.611190 0.000000 
#    z 0.000000 0.000000 1.616440 
# 
# From -- ./inp_files/14305.got.cif
#   From: 2010.05.17/outbox.cif.g08.bks.cpg/sg65_8_cif.got.tgz:14305.got - 2010.06.03 17:01:31.
