data_PCOD9491634
_publ_section_title
;
Structure prediction by ZEFSAII (Michael W. Deem and Ramdas Pophale) SiO2 
 PCOD9491634
Probable space group: C M M M
;
_chemical_formula_sum "Si O2"
_cell_formula_units_Z 72
_cell_length_a 21.314414
_cell_length_b 24.409254
_cell_length_c 7.664477
_cell_angle_alpha 90.000000
_cell_angle_beta 90.000000
_cell_angle_gamma 90.000000
_cell_volume 3987.589364
_symmetry_space_group_name_H-M "C M M M"
_symmetry_group_IT_number 65
_symmetry_cell_setting 'orthorhombic'
loop_
_space_group_symop_operation_xyz
x,y,z
-x,-y,z
x,-y,-z
-x,y,-z
-x,-y,-z
x,y,-z
-x,y,z
x,-y,z
1/2+x,1/2+y,z
1/2-x,1/2-y,z
1/2+x,1/2-y,-z
1/2-x,1/2+y,-z
1/2-x,1/2-y,-z
1/2+x,1/2+y,-z
1/2-x,1/2+y,z
1/2+x,1/2-y,z
loop_
_atom_site_type_symbol
_atom_site_label
_atom_site_fract_x
_atom_site_fract_y
_atom_site_fract_z
Si Si1 0.070710 0.350747 0.000000
Si Si2 0.000000 0.062442 0.793205
Si Si3 0.297907 0.800884 0.000000
Si Si4 0.365852 0.561829 0.292293
Si Si5 0.261688 0.884442 0.704712
Si Si6 0.892614 0.437326 0.295462
O O1 0.079792 0.391558 0.166483
O O2 0.125337 0.304231 0.000000
O O3 0.000000 0.328829 0.000000
O O4 0.933825 0.087963 0.740324
O O5 0.000000 0.000000 0.717285
O O6 0.000000 0.058718 0.000000
O O7 0.250000 0.750000 0.000000
O O8 0.281267 0.834880 0.173409
O O9 0.358244 0.557694 0.500000
O O10 0.367114 0.500000 0.218874
O O11 0.304856 0.593210 0.229786
O O12 0.257165 0.869462 0.500000
O O13 0.317085 0.929368 0.718074
O O14 0.909176 0.428442 0.500000
O O15 0.909554 0.500000 0.249263
#
# Coordination Sequence:
#
# PCOD9491634 Si02
#       6
#     8   8   8  16  16  16
#     4  10  21  36  54  77 105 137 174 212 254 306
#     4   9  17  25  35  59  95 135 173 201 231 281
#     4  10  22  39  59  76  95 124 170 220 267 311
#     4   9  16  27  44  66  97 135 168 199 240 295
#     4   9  18  32  52  77 101 130 168 210 254 299
#     4   9  17  30  49  78 115 147 172 198 235 293
#
# _framework density 18.056021000000001
#
# number of rings (size 3 to 8) (size 9 to 14) (size 15 to 20)
#    0.000    2.778    0.000    1.333    1.556    5.778 
#    0.000    2.222    2.444    0.000    0.000    0.000 
#    0.000    0.000    0.000    0.000    0.000    0.000 
#
# Total GULP energy -200423.894735 kJ/mol
# GULP energy per Si atom -5567.330409 kJ/mol
# Density = 1.801492 g / cm^3
# Si number density = 18.056021 Si / 1000 Ang^3
#
#
#
# Elastic Constant Matrix: (Units=GPa)
#
#
# Indices 1 2 3 4 5 6 
#
# 1 149.6504 24.5303 18.2634 0.0000 0.0000 0.0000
# 2 24.5303 43.6638 16.5205 0.0000 0.0000 0.0000
# 3 18.2634 16.5205 58.1541 0.0000 0.0000 0.0000
# 4 0.0000 0.0000 0.0000 12.4548 0.0000 0.0000
# 5 0.0000 0.0000 0.0000 0.0000 -31.0504 0.0000
# 6 0.0000 0.0000 0.0000 0.0000 0.0000 17.2952
#
#
#
# Elastic Compliance Matrix: (Units=1/GPa)
#
#
# Indices 1 2 3 4 5 6 
#
# 1 0.007445 -0.003695 -0.001288 0.000000 0.000000 0.000000
# 2 -0.003695 0.027494 -0.006650 0.000000 0.000000 0.000000
# 3 -0.001288 -0.006650 0.019490 0.000000 0.000000 0.000000
# 4 0.000000 0.000000 0.000000 0.080291 0.000000 0.000000
# 5 0.000000 0.000000 0.000000 0.000000 -0.032206 0.000000
# 6 0.000000 0.000000 0.000000 0.000000 0.000000 0.057819
#
#
# Mechanical properties :
#
#
# Convention : Reuss Voigt Hill
#
# Bulk Modulus (GPa) = 32.09092 41.12185 36.60639
# Shear Modulus (GPa) = 25.77477 12.55019 19.16248
#
# Velocity S-wave (km/s) = 3.78231 2.63928 3.26126
# Velocity P-wave (km/s) = 6.07339 5.66672 5.87358
#
# Compressibility (1/GPa) = 0.03116147
#
# Stress axis : x y z
#
# Youngs Moduli (GPa) = 134.31485 36.37107 51.30962
#
# Poissons Ratio (x) = 0.13440 0.06611
# Poissons Ratio (y) = 0.49632 0.34122
# Poissons Ratio (z) = 0.17306 0.24187
#
# Static dielectric constant tensor:
#      x y z
#    x 1.685420 0.000000 0.000000 
#    y 0.000000 1.594480 0.000000 
#    z 0.000000 0.000000 1.635020 
# 
# From -- ./inp_files/11331.got.cif
#   From: 2010.05.17/outbox.cif.g08.bks.cpg/sg65_6_cif.got.tgz:11331.got - 2010.06.03 17:01:31.
