data_PCOD9491803
_publ_section_title
;
Structure prediction by ZEFSAII (Michael W. Deem and Ramdas Pophale) SiO2 
 PCOD9491803
Probable space group: C M M M
;
_chemical_formula_sum "Si O2"
_cell_formula_units_Z 112
_cell_length_a 23.449592
_cell_length_b 15.457142
_cell_length_c 15.289529
_cell_angle_alpha 90.000000
_cell_angle_beta 90.000000
_cell_angle_gamma 90.000000
_cell_volume 5541.898846
_symmetry_space_group_name_H-M "C M M M"
_symmetry_group_IT_number 65
_symmetry_cell_setting 'orthorhombic'
loop_
_space_group_symop_operation_xyz
x,y,z
-x,-y,z
x,-y,-z
-x,y,-z
-x,-y,-z
x,y,-z
-x,y,z
x,-y,z
1/2+x,1/2+y,z
1/2-x,1/2-y,z
1/2+x,1/2-y,-z
1/2-x,1/2+y,-z
1/2-x,1/2-y,-z
1/2+x,1/2+y,-z
1/2-x,1/2+y,z
1/2+x,1/2-y,z
loop_
_atom_site_type_symbol
_atom_site_label
_atom_site_fract_x
_atom_site_fract_y
_atom_site_fract_z
Si Si1 0.626916 0.403482 0.725091
Si Si2 0.561716 0.900965 0.153229
Si Si3 0.266551 0.648818 0.603882
Si Si4 0.190123 0.139875 0.106251
Si Si5 0.314580 0.157282 0.897932
Si Si6 0.562870 0.230366 0.685885
Si Si7 0.856124 0.406834 0.395750
O O1 0.607086 0.500000 0.702313
O O2 0.681003 0.378654 0.663952
O O3 0.646685 0.403178 0.826640
O O4 0.582285 0.326774 0.708243
O O5 0.500000 0.891162 0.104633
O O6 0.624286 0.887145 0.112412
O O7 0.560396 0.828402 0.227365
O O8 0.561336 0.000000 0.184856
O O9 0.277450 0.631588 0.500000
O O10 0.250000 0.750000 0.611537
O O11 0.209037 0.600938 0.633940
O O12 0.255241 0.115724 0.134088
O O13 0.183296 0.242230 0.129131
O O14 0.181398 0.127032 0.000000
O O15 0.303157 0.162583 0.000000
O O16 0.500000 0.229667 0.644978
O O17 0.608880 0.177316 0.630601
O O18 0.854404 0.407710 0.500000
O O19 0.880222 0.500000 0.366144
#
# Coordination Sequence:
#
# PCOD9491803 Si02
#       7
#    16  16  16  16  16  16  16
#     4  12  25  39  65  94 118 163 213 258 317 371
#     4  10  21  36  56  83 115 155 198 239 291 361
#     4  10  21  39  63  94 133 168 199 243 300 368
#     4   9  20  38  59  88 123 158 203 258 314 371
#     4   9  18  34  57  83 116 155 190 238 301 364
#     4  11  24  42  60  81 118 161 205 257 308 364
#     4  10  21  38  63  95 127 160 200 247 302 367
#
# _framework density 20.209679999999999
#
# number of rings (size 3 to 8) (size 9 to 14) (size 15 to 20)
#    0.000    1.857    2.857    1.714    4.000    3.714 
#    0.000    2.857    0.000    0.429    0.000    3.000 
#    0.000    0.000    0.000    0.000    0.000    0.000 
#
# Total GULP energy -311990.490017 kJ/mol
# GULP energy per Si atom -5571.258750 kJ/mol
# Density = 2.016368 g / cm^3
# Si number density = 20.209680 Si / 1000 Ang^3
#
#
#
# Elastic Constant Matrix: (Units=GPa)
#
#
# Indices 1 2 3 4 5 6 
#
# 1 73.3151 32.2935 4.3441 0.0000 0.0000 0.0000
# 2 32.2935 134.3074 13.3962 0.0000 0.0000 0.0000
# 3 4.3441 13.3962 38.5016 0.0000 0.0000 0.0000
# 4 0.0000 0.0000 0.0000 35.1652 0.0000 0.0000
# 5 0.0000 0.0000 0.0000 0.0000 0.1685 0.0000
# 6 0.0000 0.0000 0.0000 0.0000 0.0000 11.5309
#
#
#
# Elastic Compliance Matrix: (Units=1/GPa)
#
#
# Indices 1 2 3 4 5 6 
#
# 1 0.015263 -0.003624 -0.000461 0.000000 0.000000 0.000000
# 2 -0.003624 0.008574 -0.002574 0.000000 0.000000 0.000000
# 3 -0.000461 -0.002574 0.026921 0.000000 0.000000 0.000000
# 4 0.000000 0.000000 0.000000 0.028437 0.000000 0.000000
# 5 0.000000 0.000000 0.000000 0.000000 5.933395 0.000000
# 6 0.000000 0.000000 0.000000 0.000000 0.000000 0.086724
#
#
# Mechanical properties :
#
#
# Convention : Reuss Voigt Hill
#
# Bulk Modulus (GPa) = 26.71022 38.46574 32.58798
# Shear Modulus (GPa) = 0.81631 22.44561 11.63096
#
# Velocity S-wave (km/s) = 0.63624 3.33624 2.40159
# Velocity P-wave (km/s) = 3.71281 5.82368 4.88366
#
# Compressibility (1/GPa) = 0.03743885
#
# Stress axis : x y z
#
# Youngs Moduli (GPa) = 65.51637 116.63518 37.14621
#
# Poissons Ratio (x) = 0.42269 0.01713
# Poissons Ratio (y) = 0.23743 0.09562
# Poissons Ratio (z) = 0.03022 0.30025
#
# Static dielectric constant tensor:
#      x y z
#    x 1.795310 0.000000 0.000000 
#    y 0.000000 1.760680 0.000000 
#    z 0.000000 0.000000 1.739840 
# 
# From -- ./inp_files/45809.got.cif
#   From: 2010.05.17/outbox.cif.g08.bks.cpg/sg65_23_cif.got.tgz:45809.got - 2010.06.03 17:01:31.
