data_PCOD9491741
_publ_section_title
;
Structure prediction by ZEFSAII (Michael W. Deem and Ramdas Pophale) SiO2 
 PCOD9491741
Probable space group: C M M M
;
_chemical_formula_sum "Si O2"
_cell_formula_units_Z 104
_cell_length_a 28.997948
_cell_length_b 8.709305
_cell_length_c 23.357980
_cell_angle_alpha 90.000000
_cell_angle_beta 90.000000
_cell_angle_gamma 90.000000
_cell_volume 5899.103946
_symmetry_space_group_name_H-M "C M M M"
_symmetry_group_IT_number 65
_symmetry_cell_setting 'orthorhombic'
loop_
_space_group_symop_operation_xyz
x,y,z
-x,-y,z
x,-y,-z
-x,y,-z
-x,-y,-z
x,y,-z
-x,y,z
x,-y,z
1/2+x,1/2+y,z
1/2-x,1/2-y,z
1/2+x,1/2-y,-z
1/2-x,1/2+y,-z
1/2-x,1/2-y,-z
1/2+x,1/2+y,-z
1/2-x,1/2+y,z
1/2+x,1/2-y,z
loop_
_atom_site_type_symbol
_atom_site_label
_atom_site_fract_x
_atom_site_fract_y
_atom_site_fract_z
Si Si1 0.392760 0.315947 0.390872
Si Si2 0.611387 0.181036 0.831365
Si Si3 0.445977 0.815623 0.500000
Si Si4 0.054293 0.183546 0.727111
Si Si5 0.798959 0.817096 0.779337
Si Si6 0.553493 0.684329 0.933231
Si Si7 0.799597 0.683641 0.348445
O O1 0.389247 0.500000 0.394999
O O2 0.420924 0.250714 0.444165
O O3 0.420015 0.279044 0.332111
O O4 0.342030 0.243621 0.385920
O O5 0.577569 0.228828 0.779515
O O6 0.659203 0.268077 0.819585
O O7 0.587296 0.232194 0.889943
O O8 0.619470 0.000000 0.830252
O O9 0.500000 0.772559 0.500000
O O10 0.442807 0.000000 0.500000
O O11 0.000000 0.216517 0.722834
O O12 0.059724 0.000000 0.737011
O O13 0.750000 0.750000 0.799143
O O14 0.807481 0.746025 0.716202
O O15 0.796392 0.000000 0.773728
O O16 0.500000 0.723856 0.920565
O O17 0.557787 0.500000 0.926171
O O18 0.562109 0.719829 0.000000
O O19 0.798097 0.500000 0.347444
O O20 0.750000 0.750000 0.366894
#
# Coordination Sequence:
#
# PCOD9491741 Si02
#       7
#    16  16   8  16  16  16  16
#     4  11  22  39  62  86 113 152 196 239 286 342
#     4  12  23  34  53  84 118 152 189 234 288 343
#     4  11  25  43  62  85 116 155 197 241 287 343
#     4  10  21  36  55  80 112 149 189 236 287 338
#     4  11  21  36  57  83 115 151 190 234 284 342
#     4   9  19  37  59  81 110 153 200 241 284 338
#     4  11  21  36  59  88 119 151 187 232 287 345
#
# _framework density 17.629797
#
# number of rings (size 3 to 8) (size 9 to 14) (size 15 to 20)
#    0.000    1.308    1.538    7.154    0.000    4.615 
#    0.000    1.154    0.000    0.462    0.000    0.000 
#    0.000    0.000    0.000    0.000    0.000    0.000 
#
# Total GULP energy -290722.566035 kJ/mol
# GULP energy per Si atom -5590.818578 kJ/mol
# Density = 1.758967 g / cm^3
# Si number density = 17.629797 Si / 1000 Ang^3
#
#
#
# Elastic Constant Matrix: (Units=GPa)
#
#
# Indices 1 2 3 4 5 6 
#
# 1 147.8976 68.5222 63.9400 0.0000 0.0000 0.0000
# 2 68.5222 111.7557 48.8733 0.0000 0.0000 0.0000
# 3 63.9400 48.8733 77.3360 0.0000 0.0000 0.0000
# 4 0.0000 0.0000 0.0000 16.0411 0.0000 0.0000
# 5 0.0000 0.0000 0.0000 0.0000 28.8121 0.0000
# 6 0.0000 0.0000 0.0000 0.0000 0.0000 5.7032
#
#
#
# Elastic Compliance Matrix: (Units=1/GPa)
#
#
# Indices 1 2 3 4 5 6 
#
# 1 0.011729 -0.004078 -0.007120 0.000000 0.000000 0.000000
# 2 -0.004078 0.013783 -0.005339 0.000000 0.000000 0.000000
# 3 -0.007120 -0.005339 0.022192 0.000000 0.000000 0.000000
# 4 0.000000 0.000000 0.000000 0.062340 0.000000 0.000000
# 5 0.000000 0.000000 0.000000 0.000000 0.034708 0.000000
# 6 0.000000 0.000000 0.000000 0.000000 0.000000 0.175341
#
#
# Mechanical properties :
#
#
# Convention : Reuss Voigt Hill
#
# Bulk Modulus (GPa) = 68.35469 77.74005 73.04737
# Shear Modulus (GPa) = 13.96481 20.48820 17.22651
#
# Velocity S-wave (km/s) = 2.81751 3.41271 3.12929
# Velocity P-wave (km/s) = 7.03142 7.72789 7.38787
#
# Compressibility (1/GPa) = 0.01462957
#
# Stress axis : x y z
#
# Youngs Moduli (GPa) = 85.25899 72.55220 45.06186
#
# Poissons Ratio (x) = 0.29584 0.32086
# Poissons Ratio (y) = 0.34765 0.24059
# Poissons Ratio (z) = 0.60708 0.38736
#
# Static dielectric constant tensor:
#      x y z
#    x 1.596760 0.000000 0.000000 
#    y 0.000000 1.590520 0.000000 
#    z 0.000000 0.000000 1.571990 
# 
# From -- ./inp_files/66321.got.cif
#   From: 2010.05.17/outbox.cif.g08.bks.cpg/sg65_34_cif.got.tgz:66321.got - 2010.06.03 17:01:31.
