data_PCOD9491498
_publ_section_title
;
Structure prediction by ZEFSAII (Michael W. Deem and Ramdas Pophale) SiO2 
 PCOD9491498
Probable space group: C M M M
;
_chemical_formula_sum "Si O2"
_cell_formula_units_Z 104
_cell_length_a 30.448843
_cell_length_b 23.051564
_cell_length_c 9.072817
_cell_angle_alpha 90.000000
_cell_angle_beta 90.000000
_cell_angle_gamma 90.000000
_cell_volume 6368.150854
_symmetry_space_group_name_H-M "C M M M"
_symmetry_group_IT_number 65
_symmetry_cell_setting 'orthorhombic'
loop_
_space_group_symop_operation_xyz
x,y,z
-x,-y,z
x,-y,-z
-x,y,-z
-x,-y,-z
x,y,-z
-x,y,z
x,-y,z
1/2+x,1/2+y,z
1/2-x,1/2-y,z
1/2+x,1/2-y,-z
1/2-x,1/2+y,-z
1/2-x,1/2-y,-z
1/2+x,1/2+y,-z
1/2-x,1/2+y,z
1/2+x,1/2-y,z
loop_
_atom_site_type_symbol
_atom_site_label
_atom_site_fract_x
_atom_site_fract_y
_atom_site_fract_z
Si Si1 0.625011 0.932781 0.677276
Si Si2 0.947488 0.000000 0.175193
Si Si3 0.949241 0.658739 0.676831
Si Si4 0.715214 0.929495 0.169845
Si Si5 0.947974 0.782378 0.174795
Si Si6 0.400696 0.610145 0.677174
Si Si7 0.804563 0.068339 0.324180
O O1 0.628951 0.931850 0.500000
O O2 0.584714 0.891508 0.719213
O O3 0.670932 0.912055 0.746292
O O4 0.617546 0.000000 0.721426
O O5 0.926696 0.056590 0.250424
O O6 0.000000 0.000000 0.194442
O O7 0.938229 0.000000 0.000000
O O8 0.945739 0.667908 0.500000
O O9 0.939406 0.718659 0.759723
O O10 0.000000 0.642782 0.708038
O O11 0.760645 0.910387 0.244296
O O12 0.715948 0.000000 0.176594
O O13 0.713435 0.912008 0.000000
O O14 0.920104 0.830795 0.258328
O O15 0.000000 0.794419 0.197291
O O16 0.939499 0.783958 0.000000
O O17 0.405340 0.607903 0.500000
O O18 0.349189 0.601708 0.712981
O O19 0.797781 0.071519 0.500000
O O20 0.811421 0.000000 0.287665
#
# Coordination Sequence:
#
# PCOD9491498 Si02
#       7
#    16   8  16  16  16  16  16
#     4   9  17  30  50  77 107 136 163 198 248 296
#     4  11  23  35  47  69 103 137 167 207 260 309
#     4   9  18  33  53  76 101 132 171 208 242 290
#     4   9  17  28  45  71 100 132 167 200 239 293
#     4  10  21  36  52  71  97 132 172 210 252 300
#     4  11  21  34  52  74  98 129 170 214 258 303
#     4   9  17  31  48  69  98 128 162 204 252 301
#
# _framework density 16.331271999999998
#
# number of rings (size 3 to 8) (size 9 to 14) (size 15 to 20)
#    0.000    2.385    0.769    2.077    0.000    7.385 
#    0.000    1.538    0.000    0.923    0.000   10.769 
#    0.000    0.000    0.000    0.000    0.000    0.000 
#
# Total GULP energy -290017.754460 kJ/mol
# GULP energy per Si atom -5577.264509 kJ/mol
# Density = 1.629410 g / cm^3
# Si number density = 16.331272 Si / 1000 Ang^3
#
#
#
# Elastic Constant Matrix: (Units=GPa)
#
#
# Indices 1 2 3 4 5 6 
#
# 1 153.2540 89.4636 75.8875 0.0000 0.0000 0.0000
# 2 89.4636 85.6322 51.1225 0.0000 0.0000 0.0000
# 3 75.8875 51.1225 60.8924 0.0000 0.0000 0.0000
# 4 0.0000 0.0000 0.0000 16.6863 0.0000 0.0000
# 5 0.0000 0.0000 0.0000 0.0000 16.1693 0.0000
# 6 0.0000 0.0000 0.0000 0.0000 0.0000 3.9704
#
#
#
# Elastic Compliance Matrix: (Units=1/GPa)
#
#
# Indices 1 2 3 4 5 6 
#
# 1 0.023174 -0.013972 -0.017150 0.000000 0.000000 0.000000
# 2 -0.013972 0.031836 -0.009316 0.000000 0.000000 0.000000
# 3 -0.017150 -0.009316 0.045617 0.000000 0.000000 0.000000
# 4 0.000000 0.000000 0.000000 0.059929 0.000000 0.000000
# 5 0.000000 0.000000 0.000000 0.000000 0.061846 0.000000
# 6 0.000000 0.000000 0.000000 0.000000 0.000000 0.251861
#
#
# Mechanical properties :
#
#
# Convention : Reuss Voigt Hill
#
# Bulk Modulus (GPa) = 50.62958 81.41396 66.02177
# Shear Modulus (GPa) = 8.90119 12.91889 10.91004
#
# Velocity S-wave (km/s) = 2.33714 2.81562 2.58746
# Velocity P-wave (km/s) = 6.19289 7.78011 7.03143
#
# Compressibility (1/GPa) = 0.01975130
#
# Stress axis : x y z
#
# Youngs Moduli (GPa) = 43.15263 31.41053 21.92160
#
# Poissons Ratio (x) = 0.43886 0.37596
# Poissons Ratio (y) = 0.60292 0.20422
# Poissons Ratio (z) = 0.74007 0.29262
#
# Static dielectric constant tensor:
#      x y z
#    x 1.540030 0.000000 0.000000 
#    y 0.000000 1.521290 0.000000 
#    z 0.000000 0.000000 1.543130 
# 
# From -- ./inp_files/14804.got.cif
#   From: 2010.05.17/outbox.cif.g08.bks.cpg/sg65_8_cif.got.tgz:14804.got - 2010.06.03 17:01:31.
