data_PCOD9491213
_publ_section_title
;
Structure prediction by ZEFSAII (Michael W. Deem and Ramdas Pophale) SiO2 
 PCOD9491213
Probable space group: C M M M
;
_chemical_formula_sum "Si O2"
_cell_formula_units_Z 80
_cell_length_a 31.574505
_cell_length_b 7.480367
_cell_length_c 15.052043
_cell_angle_alpha 90.000000
_cell_angle_beta 90.000000
_cell_angle_gamma 90.000000
_cell_volume 3555.125257
_symmetry_space_group_name_H-M "C M M M"
_symmetry_group_IT_number 65
_symmetry_cell_setting 'orthorhombic'
loop_
_space_group_symop_operation_xyz
x,y,z
-x,-y,z
x,-y,-z
-x,y,-z
-x,-y,-z
x,y,-z
-x,y,z
x,-y,z
1/2+x,1/2+y,z
1/2-x,1/2-y,z
1/2+x,1/2-y,-z
1/2-x,1/2+y,-z
1/2-x,1/2-y,-z
1/2+x,1/2+y,-z
1/2-x,1/2+y,z
1/2+x,1/2-y,z
loop_
_atom_site_type_symbol
_atom_site_label
_atom_site_fract_x
_atom_site_fract_y
_atom_site_fract_z
Si Si1 0.637985 0.788791 0.899848
Si Si2 0.454658 0.285303 0.104450
Si Si3 0.454717 0.212437 0.607748
Si Si4 0.362570 0.218987 0.397705
Si Si5 0.799594 0.285759 0.751671
O O1 0.590773 0.771157 0.859156
O O2 0.674380 0.715359 0.836484
O O3 0.645366 0.000000 0.907948
O O4 0.638045 0.712633 0.000000
O O5 0.500000 0.221398 0.141969
O O6 0.455175 0.500000 0.106779
O O7 0.454165 0.230667 0.000000
O O8 0.454280 0.229983 0.500000
O O9 0.500000 0.287796 0.639200
O O10 0.408844 0.281025 0.636671
O O11 0.455383 0.000000 0.626520
O O12 0.357273 0.273582 0.500000
O O13 0.324411 0.278601 0.335564
O O14 0.363827 0.000000 0.397651
O O15 0.804294 0.500000 0.751935
O O16 0.750000 0.250000 0.753127
#
# Coordination Sequence:
#
# PCOD9491213 Si02
#       5
#    16  16  16  16  16
#     4   9  18  32  48  67  94 126 157 190 230 276
#     4   8  14  26  46  72  99 126 157 190 223 266
#     4   7   9  15  31  56  84 112 138 164 202 254
#     4   8  14  26  44  65  90 118 146 181 227 276
#     4  10  21  35  49  67  90 117 154 199 242 283
#
# _framework density 22.502723
#
# number of rings (size 3 to 8) (size 9 to 14) (size 15 to 20)
#    0.000    3.600    0.000    2.400    0.000    2.000 
#    0.000    3.000    0.000    3.600    0.000    0.000 
#    0.000    0.000    0.000    7.200    0.000    5.800 
#
# Total GULP energy -222977.592224 kJ/mol
# GULP energy per Si atom -5574.439806 kJ/mol
# Density = 2.245151 g / cm^3
# Si number density = 22.502723 Si / 1000 Ang^3
#
#
#
# Elastic Constant Matrix: (Units=GPa)
#
#
# Indices 1 2 3 4 5 6 
#
# 1 265.0038 0.5170 95.0022 0.0000 0.0000 0.0000
# 2 0.5170 60.7365 5.2863 0.0000 0.0000 0.0000
# 3 95.0022 5.2863 99.2024 0.0000 0.0000 0.0000
# 4 0.0000 0.0000 0.0000 -7.9172 0.0000 0.0000
# 5 0.0000 0.0000 0.0000 0.0000 44.4499 0.0000
# 6 0.0000 0.0000 0.0000 0.0000 0.0000 32.2474
#
#
#
# Elastic Compliance Matrix: (Units=1/GPa)
#
#
# Indices 1 2 3 4 5 6 
#
# 1 0.005758 0.000433 -0.005537 0.000000 0.000000 0.000000
# 2 0.000433 0.016574 -0.001298 0.000000 0.000000 0.000000
# 3 -0.005537 -0.001298 0.015452 0.000000 0.000000 0.000000
# 4 0.000000 0.000000 0.000000 -0.126307 0.000000 0.000000
# 5 0.000000 0.000000 0.000000 0.000000 0.022497 0.000000
# 6 0.000000 0.000000 0.000000 0.000000 0.000000 0.031010
#
#
# Mechanical properties :
#
#
# Convention : Reuss Voigt Hill
#
# Bulk Modulus (GPa) = 40.03210 69.61708 54.82459
# Shear Modulus (GPa) = -360.07817 35.36517 -162.35650
#
# Velocity S-wave (km/s) = -12.66344 3.96864 -8.50331
# Velocity P-wave (km/s) = 13.99959 7.21141 8.48481
#
# Compressibility (1/GPa) = 0.02497995
#
# Stress axis : x y z
#
# Youngs Moduli (GPa) = 173.68228 60.33607 64.71633
#
# Poissons Ratio (x) = -0.02612 0.35833
# Poissons Ratio (y) = -0.07519 0.08399
# Poissons Ratio (z) = 0.96167 0.07830
#
# Static dielectric constant tensor:
#      x y z
#    x 1.845150 0.000000 0.000000 
#    y 0.000000 1.859580 0.000000 
#    z 0.000000 0.000000 1.865470 
# 
# From -- ./inp_files/45341.got.cif
#   From: 2010.05.17/outbox.cif.g08.bks.cpg/sg65_23_cif.got.tgz:45341.got - 2010.06.03 17:01:31.
