data_PCOD9491091
_publ_section_title
;
Structure prediction by ZEFSAII (Michael W. Deem and Ramdas Pophale) SiO2 
 PCOD9491091
Probable space group: C M M M
;
_chemical_formula_sum "Si O2"
_cell_formula_units_Z 64
_cell_length_a 8.023943
_cell_length_b 14.213224
_cell_length_c 24.770313
_cell_angle_alpha 90.000000
_cell_angle_beta 90.000000
_cell_angle_gamma 90.000000
_cell_volume 2824.957574
_symmetry_space_group_name_H-M "C M M M"
_symmetry_group_IT_number 65
_symmetry_cell_setting 'orthorhombic'
loop_
_space_group_symop_operation_xyz
x,y,z
-x,-y,z
x,-y,-z
-x,y,-z
-x,-y,-z
x,y,-z
-x,y,z
x,-y,z
1/2+x,1/2+y,z
1/2-x,1/2-y,z
1/2+x,1/2-y,-z
1/2-x,1/2+y,-z
1/2-x,1/2-y,-z
1/2+x,1/2+y,-z
1/2-x,1/2+y,z
1/2+x,1/2-y,z
loop_
_atom_site_type_symbol
_atom_site_label
_atom_site_fract_x
_atom_site_fract_y
_atom_site_fract_z
Si Si1 0.316431 0.885267 0.617051
Si Si2 0.807361 0.114596 0.500000
Si Si3 0.801502 0.642494 0.000000
Si Si4 0.310999 0.108418 0.879264
Si Si5 0.000000 0.884147 0.811140
Si Si6 0.500000 0.615210 0.313138
O O1 0.500000 0.854713 0.634530
O O2 0.281845 0.857161 0.555200
O O3 0.164960 0.854820 0.654754
O O4 0.315164 0.000000 0.617719
O O5 0.000000 0.144940 0.500000
O O6 0.808991 0.000000 0.500000
O O7 0.750000 0.750000 0.000000
O O8 0.747180 0.607116 0.941371
O O9 0.000000 0.626790 0.000000
O O10 0.500000 0.149102 0.877787
O O11 0.166452 0.148976 0.841875
O O12 0.328088 0.000000 0.862597
O O13 0.000000 0.854997 0.748909
O O14 0.000000 0.000000 0.812977
O O15 0.500000 0.500000 0.313431
#
# Coordination Sequence:
#
# PCOD9491091 Si02
#       6
#    16   8   8  16   8   8
#     4   9  15  21  30  43  63  92 126 170 221 264
#     4   9  13  19  29  40  59  89 124 167 219 267
#     4  10  21  33  50  76 100 120 145 185 232 272
#     4   9  18  33  50  68  92 122 153 183 222 276
#     4   9  18  29  45  63  81 114 151 183 221 265
#     4   9  16  25  33  49  71  92 131 179 219 253
#
# _framework density 22.655207000000001
#
# number of rings (size 3 to 8) (size 9 to 14) (size 15 to 20)
#    0.000    2.875    1.250    0.750    1.750    4.000 
#    0.000    6.875    0.000    0.000    0.000    0.000 
#    0.000    0.000    0.000    0.000    0.000    0.000 
#
# Total GULP energy -178689.633592 kJ/mol
# GULP energy per Si atom -5584.051050 kJ/mol
# Density = 2.260364 g / cm^3
# Si number density = 22.655207 Si / 1000 Ang^3
#
#
#
# Elastic Constant Matrix: (Units=GPa)
#
#
# Indices 1 2 3 4 5 6 
#
# 1 198.6104 16.4754 131.2863 0.0000 0.0000 0.0000
# 2 16.4754 64.3763 -3.2371 0.0000 0.0000 0.0000
# 3 131.2863 -3.2371 202.1378 0.0000 0.0000 0.0000
# 4 0.0000 0.0000 0.0000 -59.2227 0.0000 0.0000
# 5 0.0000 0.0000 0.0000 0.0000 -88.8358 0.0000
# 6 0.0000 0.0000 0.0000 0.0000 0.0000 16.5296
#
#
#
# Elastic Compliance Matrix: (Units=1/GPa)
#
#
# Indices 1 2 3 4 5 6 
#
# 1 0.009261 -0.002675 -0.006058 0.000000 0.000000 0.000000
# 2 -0.002675 0.016319 0.001999 0.000000 0.000000 0.000000
# 3 -0.006058 0.001999 0.008914 0.000000 0.000000 0.000000
# 4 0.000000 0.000000 0.000000 -0.016885 0.000000 0.000000
# 5 0.000000 0.000000 0.000000 0.000000 -0.011257 0.000000
# 6 0.000000 0.000000 0.000000 0.000000 0.000000 0.060498
#
#
# Mechanical properties :
#
#
# Convention : Reuss Voigt Hill
#
# Bulk Modulus (GPa) = 47.56157 83.79709 65.67933
# Shear Modulus (GPa) = 57.25668 -4.93245 26.16211
#
# Velocity S-wave (km/s) = 5.03269 -1.47713 3.40191
# Velocity P-wave (km/s) = 7.40337 5.84458 6.66967
#
# Compressibility (1/GPa) = 0.02102538
#
# Stress axis : x y z
#
# Youngs Moduli (GPa) = 107.97577 61.27936 112.18667
#
# Poissons Ratio (x) = 0.16391 0.67962
# Poissons Ratio (y) = 0.28882 -0.22422
# Poissons Ratio (z) = 0.65411 -0.12247
#
# Static dielectric constant tensor:
#      x y z
#    x 1.827760 0.000000 0.000000 
#    y 0.000000 1.882490 0.000000 
#    z 0.000000 0.000000 1.786750 
# 
# From -- ./inp_files/58917.got.cif
#   From: 2010.05.17/outbox.cif.g08.bks.cpg/sg65_30_cif.got.tgz:58917.got - 2010.06.03 17:01:31.
