data_PCOD9491596
_publ_section_title
;
Structure prediction by ZEFSAII (Michael W. Deem and Ramdas Pophale) SiO2 
 PCOD9491596
Probable space group: C M M M
;
_chemical_formula_sum "Si O2"
_cell_formula_units_Z 112
_cell_length_a 29.998681
_cell_length_b 15.284519
_cell_length_c 13.119886
_cell_angle_alpha 90.000000
_cell_angle_beta 90.000000
_cell_angle_gamma 90.000000
_cell_volume 6015.669905
_symmetry_space_group_name_H-M "C M M M"
_symmetry_group_IT_number 65
_symmetry_cell_setting 'orthorhombic'
loop_
_space_group_symop_operation_xyz
x,y,z
-x,-y,z
x,-y,-z
-x,y,-z
-x,-y,-z
x,y,-z
-x,y,z
x,-y,z
1/2+x,1/2+y,z
1/2-x,1/2-y,z
1/2+x,1/2-y,-z
1/2-x,1/2+y,-z
1/2-x,1/2-y,-z
1/2+x,1/2+y,-z
1/2-x,1/2+y,z
1/2+x,1/2-y,z
loop_
_atom_site_type_symbol
_atom_site_label
_atom_site_fract_x
_atom_site_fract_y
_atom_site_fract_z
Si Si1 0.686805 0.606931 0.748387
Si Si2 0.140925 0.599111 0.726477
Si Si3 0.049323 0.188300 0.232727
Si Si4 0.950154 0.642068 0.621625
Si Si5 0.636797 0.739376 0.119362
Si Si6 0.730295 0.894212 0.386375
Si Si7 0.604631 0.398234 0.611541
O O1 0.684710 0.500000 0.764439
O O2 0.672074 0.665309 0.844226
O O3 0.734079 0.631605 0.699410
O O4 0.649505 0.635124 0.664721
O O5 0.150168 0.500000 0.763575
O O6 0.093552 0.597150 0.668167
O O7 0.141505 0.671559 0.815101
O O8 0.180188 0.624884 0.648439
O O9 0.049221 0.268956 0.312654
O O10 0.087529 0.203822 0.149759
O O11 0.065234 0.112210 0.307881
O O12 0.000000 0.177131 0.190537
O O13 0.944955 0.653710 0.500000
O O14 0.000000 0.602565 0.636604
O O15 0.640354 0.755661 0.000000
O O16 0.740150 0.860534 0.500000
O O17 0.734134 0.000000 0.391534
O O18 0.596004 0.359167 0.500000
O O19 0.612711 0.500000 0.599021
#
# Coordination Sequence:
#
# PCOD9491596 Si02
#       7
#    16  16  16  16  16  16  16
#     4   9  18  34  55  79 106 135 172 214 252 298
#     4  10  21  36  53  77 108 137 171 215 257 302
#     4   9  18  32  49  71  99 130 170 218 260 304
#     4   9  17  30  50  75 104 139 172 203 249 310
#     4  10  22  39  57  75  97 132 177 222 267 308
#     4   9  17  32  56  83 112 144 171 200 246 303
#     4   9  16  26  44  72 106 141 170 199 244 305
#
# _framework density 18.618043
#
# number of rings (size 3 to 8) (size 9 to 14) (size 15 to 20)
#    0.000    2.714    0.000    1.286    0.000    5.429 
#    0.000    5.714    0.000    2.571    0.000    8.000 
#    0.000    0.000    0.000    0.000    0.000    0.000 
#
# Total GULP energy -311787.767500 kJ/mol
# GULP energy per Si atom -5567.638705 kJ/mol
# Density = 1.857567 g / cm^3
# Si number density = 18.618043 Si / 1000 Ang^3
#
#
#
# Elastic Constant Matrix: (Units=GPa)
#
#
# Indices 1 2 3 4 5 6 
#
# 1 104.5519 19.9861 37.1563 0.0000 0.0000 0.0000
# 2 19.9861 35.4497 28.9946 0.0000 0.0000 0.0000
# 3 37.1563 28.9946 95.8577 0.0000 0.0000 0.0000
# 4 0.0000 0.0000 0.0000 13.7572 0.0000 0.0000
# 5 0.0000 0.0000 0.0000 0.0000 13.1281 0.0000
# 6 0.0000 0.0000 0.0000 0.0000 0.0000 19.6203
#
#
#
# Elastic Compliance Matrix: (Units=1/GPa)
#
#
# Indices 1 2 3 4 5 6 
#
# 1 0.011457 -0.003756 -0.003305 0.000000 0.000000 0.000000
# 2 -0.003756 0.038713 -0.010254 0.000000 0.000000 0.000000
# 3 -0.003305 -0.010254 0.014815 0.000000 0.000000 0.000000
# 4 0.000000 0.000000 0.000000 0.072689 0.000000 0.000000
# 5 0.000000 0.000000 0.000000 0.000000 0.076173 0.000000
# 6 0.000000 0.000000 0.000000 0.000000 0.000000 0.050968
#
#
# Mechanical properties :
#
#
# Convention : Reuss Voigt Hill
#
# Bulk Modulus (GPa) = 32.94322 45.34817 39.14569
# Shear Modulus (GPa) = 16.15179 19.28260 17.71720
#
# Velocity S-wave (km/s) = 2.94859 3.22171 3.08817
# Velocity P-wave (km/s) = 5.41525 6.18460 5.81266
#
# Compressibility (1/GPa) = 0.03035526
#
# Stress axis : x y z
#
# Youngs Moduli (GPa) = 87.28151 25.83080 67.50065
#
# Poissons Ratio (x) = 0.09703 0.22308
# Poissons Ratio (y) = 0.32786 0.69214
# Poissons Ratio (z) = 0.28845 0.26486
#
# Static dielectric constant tensor:
#      x y z
#    x 1.669820 0.000000 0.000000 
#    y 0.000000 1.692260 0.000000 
#    z 0.000000 0.000000 1.629780 
# 
# From -- ./inp_files/25552.got.cif
#   From: 2010.05.17/outbox.cif.g08.bks.cpg/sg65_13_cif.got.tgz:25552.got - 2010.06.03 17:01:31.
