data_PCOD9491369
_publ_section_title
;
Structure prediction by ZEFSAII (Michael W. Deem and Ramdas Pophale) SiO2 
 PCOD9491369
Probable space group: C M M M
;
_chemical_formula_sum "Si O2"
_cell_formula_units_Z 88
_cell_length_a 20.033971
_cell_length_b 16.339048
_cell_length_c 13.679472
_cell_angle_alpha 90.000000
_cell_angle_beta 90.000000
_cell_angle_gamma 90.000000
_cell_volume 4477.783835
_symmetry_space_group_name_H-M "C M M M"
_symmetry_group_IT_number 65
_symmetry_cell_setting 'orthorhombic'
loop_
_space_group_symop_operation_xyz
x,y,z
-x,-y,z
x,-y,-z
-x,y,-z
-x,-y,-z
x,y,-z
-x,y,z
x,-y,z
1/2+x,1/2+y,z
1/2-x,1/2-y,z
1/2+x,1/2-y,-z
1/2-x,1/2+y,-z
1/2-x,1/2-y,-z
1/2+x,1/2+y,-z
1/2-x,1/2+y,z
1/2+x,1/2-y,z
loop_
_atom_site_type_symbol
_atom_site_label
_atom_site_fract_x
_atom_site_fract_y
_atom_site_fract_z
Si Si1 0.816850 0.900817 0.110637
Si Si2 0.194066 0.660347 0.386906
Si Si3 0.333467 0.656550 0.318470
Si Si4 0.577301 0.401825 0.500000
Si Si5 0.161288 0.599549 0.892358
Si Si6 0.926023 0.596931 0.712114
O O1 0.851814 0.864391 0.206921
O O2 0.738554 0.875455 0.118283
O O3 0.819931 0.000000 0.116219
O O4 0.839196 0.877863 0.000000
O O5 0.209363 0.672843 0.500000
O O6 0.259414 0.619105 0.339548
O O7 0.178780 0.747474 0.336934
O O8 0.126133 0.611064 0.374063
O O9 0.384311 0.627698 0.402281
O O10 0.578362 0.500000 0.500000
O O11 0.500000 0.374189 0.500000
O O12 0.162132 0.500000 0.889287
O O13 0.112295 0.629204 0.808199
O O14 0.138130 0.624346 0.000000
O O15 0.932488 0.500000 0.725521
O O16 0.000000 0.631788 0.697965
#
# Coordination Sequence:
#
# PCOD9491369 Si02
#       6
#    16  16  16   8  16  16
#     4   9  17  31  57  90 117 145 184 230 283 339
#     4  11  22  38  56  81 112 148 199 233 283 346
#     4  11  20  39  60  82 116 150 182 236 287 335
#     4  11  24  39  60  90 112 137 186 237 286 348
#     4   8  14  27  48  76 109 142 180 226 271 317
#     4  10  21  35  52  79 113 151 195 234 273 329
#
# _framework density 19.65258
#
# number of rings (size 3 to 8) (size 9 to 14) (size 15 to 20)
#    0.000    2.091    3.636    2.182    0.000    2.545 
#    0.000    5.455    0.000    0.545    0.000    2.545 
#    0.000    0.000    0.000    0.000    0.000    0.000 
#
# Total GULP energy -245250.526576 kJ/mol
# GULP energy per Si atom -5573.875604 kJ/mol
# Density = 1.960785 g / cm^3
# Si number density = 19.652580 Si / 1000 Ang^3
#
#
#
# Elastic Constant Matrix: (Units=GPa)
#
#
# Indices 1 2 3 4 5 6 
#
# 1 85.2490 9.8834 45.5427 0.0000 0.0000 0.0000
# 2 9.8834 16.2208 19.6780 0.0000 0.0000 0.0000
# 3 45.5427 19.6780 173.1125 0.0000 0.0000 0.0000
# 4 0.0000 0.0000 0.0000 22.8019 0.0000 0.0000
# 5 0.0000 0.0000 0.0000 0.0000 12.0007 0.0000
# 6 0.0000 0.0000 0.0000 0.0000 0.0000 14.3844
#
#
#
# Elastic Compliance Matrix: (Units=1/GPa)
#
#
# Indices 1 2 3 4 5 6 
#
# 1 0.013950 -0.004695 -0.003136 0.000000 0.000000 0.000000
# 2 -0.004695 0.073091 -0.007073 0.000000 0.000000 0.000000
# 3 -0.003136 -0.007073 0.007406 0.000000 0.000000 0.000000
# 4 0.000000 0.000000 0.000000 0.043856 0.000000 0.000000
# 5 0.000000 0.000000 0.000000 0.000000 0.083328 0.000000
# 6 0.000000 0.000000 0.000000 0.000000 0.000000 0.069520
#
#
# Mechanical properties :
#
#
# Convention : Reuss Voigt Hill
#
# Bulk Modulus (GPa) = 15.47094 47.19894 31.33494
# Shear Modulus (GPa) = 14.59831 23.13595 18.86713
#
# Velocity S-wave (km/s) = 2.72843 3.43483 3.10180
# Velocity P-wave (km/s) = 4.22079 6.30869 5.36724
#
# Compressibility (1/GPa) = 0.06463732
#
# Stress axis : x y z
#
# Youngs Moduli (GPa) = 71.68348 13.68166 135.03074
#
# Poissons Ratio (x) = 0.06424 0.42350
# Poissons Ratio (y) = 0.33656 0.95509
# Poissons Ratio (z) = 0.22482 0.09677
#
# Static dielectric constant tensor:
#      x y z
#    x 1.717170 0.000000 0.000000 
#    y 0.000000 1.720400 0.000000 
#    z 0.000000 0.000000 1.732230 
# 
# From -- ./inp_files/26788.got.cif
#   From: 2010.05.17/outbox.cif.g08.bks.cpg/sg65_14_cif.got.tgz:26788.got - 2010.06.03 17:01:31.
