data_PCOD9491556
_publ_section_title
;
Structure prediction by ZEFSAII (Michael W. Deem and Ramdas Pophale) SiO2 
 PCOD9491556
Probable space group: C M M M
;
_chemical_formula_sum "Si O2"
_cell_formula_units_Z 104
_cell_length_a 15.002195
_cell_length_b 28.675614
_cell_length_c 13.430617
_cell_angle_alpha 90.000000
_cell_angle_beta 90.000000
_cell_angle_gamma 90.000000
_cell_volume 5777.813196
_symmetry_space_group_name_H-M "C M M M"
_symmetry_group_IT_number 65
_symmetry_cell_setting 'orthorhombic'
loop_
_space_group_symop_operation_xyz
x,y,z
-x,-y,z
x,-y,-z
-x,y,-z
-x,-y,-z
x,y,-z
-x,y,z
x,-y,z
1/2+x,1/2+y,z
1/2-x,1/2-y,z
1/2+x,1/2-y,-z
1/2-x,1/2+y,-z
1/2-x,1/2-y,-z
1/2+x,1/2+y,-z
1/2-x,1/2+y,z
1/2+x,1/2-y,z
loop_
_atom_site_type_symbol
_atom_site_label
_atom_site_fract_x
_atom_site_fract_y
_atom_site_fract_z
Si Si1 0.261718 0.699865 0.751641
Si Si2 0.101165 0.582677 0.749963
Si Si3 0.258119 0.607839 0.382266
Si Si4 0.099112 0.676242 0.882410
Si Si5 0.106909 0.054688 0.244236
Si Si6 0.606467 0.644665 0.114367
Si Si7 0.390710 0.000000 0.112282
O O1 0.250000 0.750000 0.701059
O O2 0.257774 0.658651 0.670387
O O3 0.180607 0.702284 0.831566
O O4 0.345995 0.683350 0.817522
O O5 0.164690 0.586975 0.656111
O O6 0.098394 0.628889 0.817809
O O7 0.137873 0.544217 0.825048
O O8 0.000000 0.571162 0.721142
O O9 0.265153 0.610786 0.500000
O O10 0.336093 0.575664 0.335505
O O11 0.000000 0.697819 0.871727
O O12 0.112644 0.667674 0.000000
O O13 0.126675 0.092570 0.156878
O O14 0.000000 0.057112 0.262487
O O15 0.128042 0.000000 0.224296
O O16 0.500000 0.650417 0.118395
O O17 0.636073 0.648500 0.000000
O O18 0.500000 0.000000 0.108381
O O19 0.358302 0.000000 0.000000
#
# Coordination Sequence:
#
# PCOD9491556 Si02
#       7
#    16  16  16  16  16  16   8
#     4  10  21  36  53  74 103 135 174 222 267 315
#     4   9  18  32  50  74 106 138 171 208 247 296
#     4  10  22  38  56  75 100 134 176 228 276 316
#     4   9  17  30  49  73 102 136 170 203 245 301
#     4   9  19  36  57  80 107 138 177 222 267 318
#     4   9  18  33  54  81 113 145 174 209 259 319
#     4   9  16  28  49  75 104 139 171 197 233 285
#
# _framework density 17.999890000000001
#
# number of rings (size 3 to 8) (size 9 to 14) (size 15 to 20)
#    0.000    2.692    0.000    0.923    1.077    5.231 
#    0.000    4.615    0.000    1.385    0.000    8.615 
#    0.000    0.000    0.000    0.000    0.000    0.000 
#
# Total GULP energy -289530.542922 kJ/mol
# GULP energy per Si atom -5567.895056 kJ/mol
# Density = 1.795892 g / cm^3
# Si number density = 17.999890 Si / 1000 Ang^3
#
#
#
# Elastic Constant Matrix: (Units=GPa)
#
#
# Indices 1 2 3 4 5 6 
#
# 1 44.0589 19.9849 21.5312 0.0000 0.0000 0.0000
# 2 19.9849 87.8651 12.6060 0.0000 0.0000 0.0000
# 3 21.5312 12.6060 94.4485 0.0000 0.0000 0.0000
# 4 0.0000 0.0000 0.0000 22.5405 0.0000 0.0000
# 5 0.0000 0.0000 0.0000 0.0000 21.0392 0.0000
# 6 0.0000 0.0000 0.0000 0.0000 0.0000 8.6569
#
#
#
# Elastic Compliance Matrix: (Units=1/GPa)
#
#
# Indices 1 2 3 4 5 6 
#
# 1 0.027970 -0.005553 -0.005635 0.000000 0.000000 0.000000
# 2 -0.005553 0.012706 -0.000430 0.000000 0.000000 0.000000
# 3 -0.005635 -0.000430 0.011930 0.000000 0.000000 0.000000
# 4 0.000000 0.000000 0.000000 0.044365 0.000000 0.000000
# 5 0.000000 0.000000 0.000000 0.000000 0.047530 0.000000
# 6 0.000000 0.000000 0.000000 0.000000 0.000000 0.115515
#
#
# Mechanical properties :
#
#
# Convention : Reuss Voigt Hill
#
# Bulk Modulus (GPa) = 34.04951 37.17964 35.61457
# Shear Modulus (GPa) = 17.06248 21.93068 19.49658
#
# Velocity S-wave (km/s) = 3.08217 3.49432 3.29470
# Velocity P-wave (km/s) = 5.62352 6.08117 5.85682
#
# Compressibility (1/GPa) = 0.02936900
#
# Stress axis : x y z
#
# Youngs Moduli (GPa) = 35.75312 78.70393 83.82403
#
# Poissons Ratio (x) = 0.43706 0.47235
# Poissons Ratio (y) = 0.19855 0.03604
# Poissons Ratio (z) = 0.20147 0.03383
#
# Static dielectric constant tensor:
#      x y z
#    x 1.659570 0.000000 0.000000 
#    y 0.000000 1.629480 0.000000 
#    z 0.000000 0.000000 1.569190 
# 
# From -- ./inp_files/25546.got.cif
#   From: 2010.05.17/outbox.cif.g08.bks.cpg/sg65_13_cif.got.tgz:25546.got - 2010.06.03 17:01:31.
