data_PCOD9491595
_publ_section_title
;
Structure prediction by ZEFSAII (Michael W. Deem and Ramdas Pophale) SiO2 
 PCOD9491595
Probable space group: C M M M
;
_chemical_formula_sum "Si O2"
_cell_formula_units_Z 58
_cell_length_a 7.858807
_cell_length_b 16.293858
_cell_length_c 21.943209
_cell_angle_alpha 90.000000
_cell_angle_beta 90.000000
_cell_angle_gamma 90.000000
_cell_volume 2809.834173
_symmetry_space_group_name_H-M "C M M M"
_symmetry_group_IT_number 65
_symmetry_cell_setting 'orthorhombic'
loop_
_space_group_symop_operation_xyz
x,y,z
-x,-y,z
x,-y,-z
-x,y,-z
-x,-y,-z
x,y,-z
-x,y,z
x,-y,z
1/2+x,1/2+y,z
1/2-x,1/2-y,z
1/2+x,1/2-y,-z
1/2-x,1/2+y,-z
1/2-x,1/2-y,-z
1/2+x,1/2+y,-z
1/2-x,1/2+y,z
1/2+x,1/2-y,z
loop_
_atom_site_type_symbol
_atom_site_label
_atom_site_fract_x
_atom_site_fract_y
_atom_site_fract_z
Si Si1 0.797329 0.154186 0.565734
Si Si2 0.795705 0.340863 0.822218
Si Si3 0.694339 0.500000 0.899006
Si Si4 0.500000 0.000000 0.000000
Si Si5 0.796721 0.590935 0.302384
O O1 0.731888 0.121918 0.500000
O O2 0.750000 0.250000 0.568164
O O3 0.737656 0.114679 0.628239
O O4 0.000000 0.146501 0.564917
O O5 0.750000 0.250000 0.845032
O O6 0.718359 0.417235 0.858893
O O7 0.736121 0.349846 0.751586
O O8 0.000000 0.349115 0.825264
O O9 0.500000 0.500000 0.923129
O O10 0.847824 0.500000 0.947342
O O11 0.727495 0.500000 0.290628
O O12 0.000000 0.588265 0.296376
#
# Coordination Sequence:
#
# PCOD9491595 Si02
#       5
#    16  16   8   2  16
#     4  10  21  36  53  76 112 158 213 276 338 403
#     4  11  22  42  69 103 144 181 230 293 341 406
#     4  12  25  47  79 110 144 194 233 273 350 399
#     4  12  26  52  80 106 160 186 224 296 320 406
#     4  10  21  37  59  88 124 167 215 275 339 399
#
# _framework density 20.641787999999998
#
# number of rings (size 3 to 8) (size 9 to 14) (size 15 to 20)
#    0.000    1.379    2.759    2.690    0.000    7.172 
#    0.000    3.448    0.000    0.000    0.000    0.000 
#    0.000    0.000    0.000    0.000    0.000    0.000 
#
# Total GULP energy -161596.546836 kJ/mol
# GULP energy per Si atom -5572.294718 kJ/mol
# Density = 2.059481 g / cm^3
# Si number density = 20.641788 Si / 1000 Ang^3
#
#
#
# Elastic Constant Matrix: (Units=GPa)
#
#
# Indices 1 2 3 4 5 6 
#
# 1 99.5842 21.3126 38.2860 0.0000 0.0000 0.0000
# 2 21.3126 121.4890 52.5259 0.0000 0.0000 0.0000
# 3 38.2860 52.5259 130.4765 0.0000 0.0000 0.0000
# 4 0.0000 0.0000 0.0000 -12.0222 0.0000 0.0000
# 5 0.0000 0.0000 0.0000 0.0000 3.4194 0.0000
# 6 0.0000 0.0000 0.0000 0.0000 0.0000 22.7241
#
#
#
# Elastic Compliance Matrix: (Units=1/GPa)
#
#
# Indices 1 2 3 4 5 6 
#
# 1 0.011363 -0.000668 -0.003065 0.000000 0.000000 0.000000
# 2 -0.000668 0.010005 -0.003832 0.000000 0.000000 0.000000
# 3 -0.003065 -0.003832 0.010106 0.000000 0.000000 0.000000
# 4 0.000000 0.000000 0.000000 -0.083179 0.000000 0.000000
# 5 0.000000 0.000000 0.000000 0.000000 0.292448 0.000000
# 6 0.000000 0.000000 0.000000 0.000000 0.000000 0.044006
#
#
# Mechanical properties :
#
#
# Convention : Reuss Voigt Hill
#
# Bulk Modulus (GPa) = 61.18395 63.97764 62.58079
# Shear Modulus (GPa) = 16.37588 18.78595 17.58091
#
# Velocity S-wave (km/s) = 2.81968 3.02005 2.92158
# Velocity P-wave (km/s) = 6.34870 6.57438 6.46252
#
# Compressibility (1/GPa) = 0.01634415
#
# Stress axis : x y z
#
# Youngs Moduli (GPa) = 88.00298 99.94974 98.94904
#
# Poissons Ratio (x) = 0.06678 0.30332
# Poissons Ratio (y) = 0.05880 0.37914
# Poissons Ratio (z) = 0.26976 0.38298
#
# Static dielectric constant tensor:
#      x y z
#    x 1.734100 0.000000 0.000000 
#    y 0.000000 1.732350 0.000000 
#    z 0.000000 0.000000 1.757420 
# 
# From -- ./inp_files/58628.got.cif
#   From: 2010.05.17/outbox.cif.g08.bks.cpg/sg65_30_cif.got.tgz:58628.got - 2010.06.03 17:01:31.
