data_PCOD9491420
_publ_section_title
;
Structure prediction by ZEFSAII (Michael W. Deem and Ramdas Pophale) SiO2 
 PCOD9491420
Probable space group: C M M M
;
_chemical_formula_sum "Si O2"
_cell_formula_units_Z 72
_cell_length_a 17.739896
_cell_length_b 15.695704
_cell_length_c 13.037874
_cell_angle_alpha 90.000000
_cell_angle_beta 90.000000
_cell_angle_gamma 90.000000
_cell_volume 3630.267678
_symmetry_space_group_name_H-M "C M M M"
_symmetry_group_IT_number 65
_symmetry_cell_setting 'orthorhombic'
loop_
_space_group_symop_operation_xyz
x,y,z
-x,-y,z
x,-y,-z
-x,y,-z
-x,-y,-z
x,y,-z
-x,y,z
x,-y,z
1/2+x,1/2+y,z
1/2-x,1/2-y,z
1/2+x,1/2-y,-z
1/2-x,1/2+y,-z
1/2-x,1/2-y,-z
1/2+x,1/2+y,-z
1/2-x,1/2+y,z
1/2+x,1/2-y,z
loop_
_atom_site_type_symbol
_atom_site_label
_atom_site_fract_x
_atom_site_fract_y
_atom_site_fract_z
Si Si1 0.292268 0.837108 0.233992
Si Si2 0.581390 0.897373 0.382600
Si Si3 0.587274 0.603017 0.500000
Si Si4 0.585661 0.255998 0.883433
Si Si5 0.135308 0.097475 0.730113
O O1 0.250000 0.750000 0.259752
O O2 0.348936 0.863688 0.321617
O O3 0.348727 0.812952 0.140991
O O4 0.222270 0.901208 0.231127
O O5 0.585511 0.870068 0.500000
O O6 0.500000 0.869320 0.340838
O O7 0.582625 0.000000 0.380454
O O8 0.585957 0.500000 0.500000
O O9 0.500000 0.633393 0.500000
O O10 0.626215 0.624786 0.609645
O O11 0.500000 0.222372 0.876346
O O12 0.594893 0.333159 0.802346
O O13 0.596534 0.287161 0.000000
O O14 0.106425 0.000000 0.738470
#
# Coordination Sequence:
#
# PCOD9491420 Si02
#       5
#    16  16   8  16  16
#     4  10  21  35  54  80 113 147 182 224 279 339
#     4   9  18  33  54  78 106 143 184 227 271 319
#     4   9  18  34  55  80 117 155 185 223 274 337
#     4  10  22  41  61  80 108 150 195 238 284 336
#     4  10  21  36  58  88 115 148 187 233 289 337
#
# _framework density 19.833248999999999
#
# number of rings (size 3 to 8) (size 9 to 14) (size 15 to 20)
#    0.000    2.333    0.000    2.667    1.556    6.222 
#    6.000    1.111    0.000    2.000    0.000    7.778 
#    0.000    0.000    0.000    0.000    0.000    0.000 
#
# Total GULP energy -200523.002429 kJ/mol
# GULP energy per Si atom -5570.083401 kJ/mol
# Density = 1.978811 g / cm^3
# Si number density = 19.833249 Si / 1000 Ang^3
#
#
#
# Elastic Constant Matrix: (Units=GPa)
#
#
# Indices 1 2 3 4 5 6 
#
# 1 123.5066 4.0630 33.7406 0.0000 0.0000 0.0000
# 2 4.0630 21.4022 23.3836 0.0000 0.0000 0.0000
# 3 33.7406 23.3836 128.2264 0.0000 0.0000 0.0000
# 4 0.0000 0.0000 0.0000 34.7148 0.0000 0.0000
# 5 0.0000 0.0000 0.0000 0.0000 62.8720 0.0000
# 6 0.0000 0.0000 0.0000 0.0000 0.0000 -67.1511
#
#
#
# Elastic Compliance Matrix: (Units=1/GPa)
#
#
# Indices 1 2 3 4 5 6 
#
# 1 0.008743 0.001066 -0.002495 0.000000 0.000000 0.000000
# 2 0.001066 0.058480 -0.010945 0.000000 0.000000 0.000000
# 3 -0.002495 -0.010945 0.010451 0.000000 0.000000 0.000000
# 4 0.000000 0.000000 0.000000 0.028806 0.000000 0.000000
# 5 0.000000 0.000000 0.000000 0.000000 0.015905 0.000000
# 6 0.000000 0.000000 0.000000 0.000000 0.000000 -0.014892
#
#
# Mechanical properties :
#
#
# Convention : Reuss Voigt Hill
#
# Bulk Modulus (GPa) = 18.89401 43.94550 31.41976
# Shear Modulus (GPa) = 33.35899 20.21701 26.78800
#
# Velocity S-wave (km/s) = 4.10564 3.19619 3.67912
# Velocity P-wave (km/s) = 5.65881 5.98552 5.82445
#
# Compressibility (1/GPa) = 0.05292681
#
# Stress axis : x y z
#
# Youngs Moduli (GPa) = 114.37351 17.09980 95.68264
#
# Poissons Ratio (x) = -0.01823 0.23874
# Poissons Ratio (y) = -0.12195 1.04726
# Poissons Ratio (z) = 0.28537 0.18716
#
# Static dielectric constant tensor:
#      x y z
#    x 1.725980 0.000000 0.000000 
#    y 0.000000 1.724860 0.000000 
#    z 0.000000 0.000000 1.686890 
# 
# From -- ./inp_files/26331.got.cif
#   From: 2010.05.17/outbox.cif.g08.bks.cpg/sg65_14_cif.got.tgz:26331.got - 2010.06.03 17:01:31.
