data_PCOD9491726
_publ_section_title
;
Structure prediction by ZEFSAII (Michael W. Deem and Ramdas Pophale) SiO2 
 PCOD9491726
Probable space group: C M M M
;
_chemical_formula_sum "Si O2"
_cell_formula_units_Z 104
_cell_length_a 19.101340
_cell_length_b 7.856783
_cell_length_c 34.971167
_cell_angle_alpha 90.000000
_cell_angle_beta 90.000000
_cell_angle_gamma 90.000000
_cell_volume 5248.300804
_symmetry_space_group_name_H-M "C M M M"
_symmetry_group_IT_number 65
_symmetry_cell_setting 'orthorhombic'
loop_
_space_group_symop_operation_xyz
x,y,z
-x,-y,z
x,-y,-z
-x,y,-z
-x,-y,-z
x,y,-z
-x,y,z
x,-y,z
1/2+x,1/2+y,z
1/2-x,1/2-y,z
1/2+x,1/2-y,-z
1/2-x,1/2+y,-z
1/2-x,1/2-y,-z
1/2+x,1/2+y,-z
1/2-x,1/2+y,z
1/2+x,1/2-y,z
loop_
_atom_site_type_symbol
_atom_site_label
_atom_site_fract_x
_atom_site_fract_y
_atom_site_fract_z
Si Si1 0.831773 0.794452 0.916903
Si Si2 0.919570 0.295218 0.760101
Si Si3 0.080128 0.205182 0.155096
Si Si4 0.330254 0.705297 0.543172
Si Si5 0.579228 0.295599 0.614009
Si Si6 0.167605 0.795175 0.000000
Si Si7 0.831293 0.297151 0.311828
O O1 0.750000 0.750000 0.913600
O O2 0.874110 0.730335 0.880277
O O3 0.858830 0.733121 0.958640
O O4 0.836982 0.000000 0.917148
O O5 0.922099 0.500000 0.757483
O O6 0.893750 0.251421 0.802620
O O7 0.870280 0.229787 0.726205
O O8 0.000000 0.232043 0.756151
O O9 0.000000 0.267041 0.152182
O O10 0.078888 0.000000 0.152973
O O11 0.344849 0.767662 0.500000
O O12 0.335124 0.500000 0.542402
O O13 0.250000 0.750000 0.552639
O O14 0.382407 0.769715 0.575778
O O15 0.500000 0.229965 0.618398
O O16 0.575167 0.500000 0.610421
O O17 0.626518 0.259127 0.650763
O O18 0.250000 0.750000 0.000000
O O19 0.160461 0.000000 0.000000
O O20 0.835097 0.500000 0.310522
O O21 0.750000 0.250000 0.313418
#
# Coordination Sequence:
#
# PCOD9491726 Si02
#       7
#    16  16  16  16  16   8  16
#     4   9  17  29  46  68  93 122 158 197 237 282
#     4   9  19  36  55  73  95 127 165 201 242 295
#     4   9  18  32  49  70  97 127 158 195 240 289
#     4   9  18  33  53  77 106 140 176 214 256 301
#     4  10  21  36  55  80 108 139 176 215 256 304
#     4   8  14  26  43  63  89 121 155 192 234 280
#     4  11  23  38  56  78 105 135 169 211 257 304
#
# _framework density 19.815939
#
# number of rings (size 3 to 8) (size 9 to 14) (size 15 to 20)
#    0.000    2.615    0.000    1.385    0.000    5.538 
#    0.000    6.538    0.000    2.308    0.000    3.231 
#    0.000    8.615    0.000    0.000    0.000    0.000 
#
# Total GULP energy -290037.826331 kJ/mol
# GULP energy per Si atom -5577.650506 kJ/mol
# Density = 1.977084 g / cm^3
# Si number density = 19.815939 Si / 1000 Ang^3
#
#
#
# Elastic Constant Matrix: (Units=GPa)
#
#
# Indices 1 2 3 4 5 6 
#
# 1 119.6535 4.4403 120.8985 0.0000 0.0000 0.0000
# 2 4.4403 23.4828 7.6716 0.0000 0.0000 0.0000
# 3 120.8985 7.6716 212.8971 0.0000 0.0000 0.0000
# 4 0.0000 0.0000 0.0000 9.5786 0.0000 0.0000
# 5 0.0000 0.0000 0.0000 0.0000-3850.2523 0.0000
# 6 0.0000 0.0000 0.0000 0.0000 0.0000 16.0860
#
#
#
# Elastic Compliance Matrix: (Units=1/GPa)
#
#
# Indices 1 2 3 4 5 6 
#
# 1 0.019609 -0.000071 -0.011133 0.000000 0.000000 0.000000
# 2 -0.000071 0.043092 -0.001513 0.000000 0.000000 0.000000
# 3 -0.011133 -0.001513 0.011074 0.000000 0.000000 0.000000
# 4 0.000000 0.000000 0.000000 0.104399 0.000000 0.000000
# 5 0.000000 0.000000 0.000000 0.000000 -0.000260 0.000000
# 6 0.000000 0.000000 0.000000 0.000000 0.000000 0.062166
#
#
# Mechanical properties :
#
#
# Convention : Reuss Voigt Hill
#
# Bulk Modulus (GPa) = 20.68596 69.11715 44.90155
# Shear Modulus (GPa) = 17.75407 -750.04936 -366.14764
#
# Velocity S-wave (km/s) = 2.99649 -19.47639 -13.60792
# Velocity P-wave (km/s) = 4.73642 21.69834 14.97305
#
# Compressibility (1/GPa) = 0.04834197
#
# Stress axis : x y z
#
# Youngs Moduli (GPa) = 50.99818 23.20620 90.30553
#
# Poissons Ratio (x) = 0.00164 1.00534
# Poissons Ratio (y) = 0.00361 0.13659
# Poissons Ratio (z) = 0.56774 0.03510
#
# Static dielectric constant tensor:
#      x y z
#    x 1.659340 0.000000 0.000000 
#    y 0.000000 1.720850 0.000000 
#    z 0.000000 0.000000 1.719750 
# 
# From -- ./inp_files/78177.got.cif
#   From: 2010.05.17/outbox.cif.g08.bks.cpg/sg65_40_cif.got.tgz:78177.got - 2010.06.03 17:01:31.
