data_PCOD9491610
_publ_section_title
;
Structure prediction by ZEFSAII (Michael W. Deem and Ramdas Pophale) SiO2 
 PCOD9491610
Probable space group: C M M M
;
_chemical_formula_sum "Si O2"
_cell_formula_units_Z 88
_cell_length_a 18.596354
_cell_length_b 9.317098
_cell_length_c 28.799137
_cell_angle_alpha 90.000000
_cell_angle_beta 90.000000
_cell_angle_gamma 90.000000
_cell_volume 4989.855190
_symmetry_space_group_name_H-M "C M M M"
_symmetry_group_IT_number 65
_symmetry_cell_setting 'orthorhombic'
loop_
_space_group_symop_operation_xyz
x,y,z
-x,-y,z
x,-y,-z
-x,y,-z
-x,-y,-z
x,y,-z
-x,y,z
x,-y,z
1/2+x,1/2+y,z
1/2-x,1/2-y,z
1/2+x,1/2-y,-z
1/2-x,1/2+y,-z
1/2-x,1/2-y,-z
1/2+x,1/2+y,-z
1/2-x,1/2+y,z
1/2+x,1/2-y,z
loop_
_atom_site_type_symbol
_atom_site_label
_atom_site_fract_x
_atom_site_fract_y
_atom_site_fract_z
Si Si1 0.673931 0.672152 0.722577
Si Si2 0.087627 0.334716 0.907937
Si Si3 0.412173 0.334352 0.000000
Si Si4 0.085077 0.828963 0.814631
Si Si5 0.674755 0.830230 0.445438
Si Si6 0.584586 0.670329 0.630117
O O1 0.684069 0.500000 0.722893
O O2 0.750000 0.750000 0.721242
O O3 0.629934 0.710183 0.769053
O O4 0.627625 0.707627 0.676920
O O5 0.110899 0.500000 0.909403
O O6 0.111147 0.248053 0.953526
O O7 0.108827 0.256900 0.860285
O O8 0.000000 0.333819 0.908532
O O9 0.389531 0.500000 0.000000
O O10 0.500000 0.333586 0.000000
O O11 0.000000 0.801569 0.806758
O O12 0.092561 0.000000 0.822832
O O13 0.657793 0.809734 0.500000
O O14 0.750000 0.750000 0.435997
O O15 0.615561 0.761125 0.412348
O O16 0.682520 0.000000 0.436924
O O17 0.500000 0.694296 0.636754
O O18 0.595382 0.500000 0.621168
#
# Coordination Sequence:
#
# PCOD9491610 Si02
#       6
#    16  16   8  16  16  16
#     4  10  21  36  54  76 102 133 170 212 257 307
#     4   9  16  25  39  63  95 127 160 203 252 296
#     4   9  15  23  37  59  90 129 168 201 240 295
#     4   9  17  31  50  70  95 129 167 205 248 300
#     4  10  21  37  57  81 110 144 181 220 262 310
#     4  10  21  37  57  81 109 141 177 218 265 315
#
# _framework density 17.635784000000001
#
# number of rings (size 3 to 8) (size 9 to 14) (size 15 to 20)
#    0.000    2.455    0.000    2.455    0.000   10.182 
#    0.000    1.818    0.000    3.273    0.000    0.636 
#    0.000    0.000    0.000    0.000    0.000    0.000 
#
# Total GULP energy -245535.415814 kJ/mol
# GULP energy per Si atom -5580.350359 kJ/mol
# Density = 1.759564 g / cm^3
# Si number density = 17.635784 Si / 1000 Ang^3
#
#
#
# Elastic Constant Matrix: (Units=GPa)
#
#
# Indices 1 2 3 4 5 6 
#
# 1 78.6019 59.8075 74.9348 0.0000 0.0000 0.0000
# 2 59.8075 93.2776 86.8679 0.0000 0.0000 0.0000
# 3 74.9348 86.8679 132.4205 0.0000 0.0000 0.0000
# 4 0.0000 0.0000 0.0000 3.4938 0.0000 0.0000
# 5 0.0000 0.0000 0.0000 0.0000 -21.1455 0.0000
# 6 0.0000 0.0000 0.0000 0.0000 0.0000 25.6300
#
#
#
# Elastic Compliance Matrix: (Units=1/GPa)
#
#
# Indices 1 2 3 4 5 6 
#
# 1 0.030237 -0.008873 -0.011290 0.000000 0.000000 0.000000
# 2 -0.008873 0.030158 -0.014762 0.000000 0.000000 0.000000
# 3 -0.011290 -0.014762 0.023625 0.000000 0.000000 0.000000
# 4 0.000000 0.000000 0.000000 0.286222 0.000000 0.000000
# 5 0.000000 0.000000 0.000000 0.000000 -0.047291 0.000000
# 6 0.000000 0.000000 0.000000 0.000000 0.000000 0.039017
#
#
# Mechanical properties :
#
#
# Convention : Reuss Voigt Hill
#
# Bulk Modulus (GPa) = 70.57848 83.05783 76.81815
# Shear Modulus (GPa) = 11.45366 7.10830 9.28098
#
# Velocity S-wave (km/s) = 2.55121 2.00982 2.29652
# Velocity P-wave (km/s) = 6.98464 7.25150 7.11932
#
# Compressibility (1/GPa) = 0.01416863
#
# Stress axis : x y z
#
# Youngs Moduli (GPa) = 33.07200 33.15866 42.32875
#
# Poissons Ratio (x) = 0.29423 0.47788
# Poissons Ratio (y) = 0.29346 0.62487
# Poissons Ratio (z) = 0.37338 0.48950
#
# Static dielectric constant tensor:
#      x y z
#    x 1.574010 0.000000 0.000000 
#    y 0.000000 1.588850 0.000000 
#    z 0.000000 0.000000 1.584540 
# 
# From -- ./inp_files/70982.got.cif
#   From: 2010.05.17/outbox.cif.g08.bks.cpg/sg65_36_cif.got.tgz:70982.got - 2010.06.03 17:01:31.
