data_PCOD9491475
_publ_section_title
;
Structure prediction by ZEFSAII (Michael W. Deem and Ramdas Pophale) SiO2 
 PCOD9491475
Probable space group: C M M M
;
_chemical_formula_sum "Si O2"
_cell_formula_units_Z 88
_cell_length_a 25.348915
_cell_length_b 23.564878
_cell_length_c 8.159010
_cell_angle_alpha 90.000000
_cell_angle_beta 90.000000
_cell_angle_gamma 90.000000
_cell_volume 4873.736399
_symmetry_space_group_name_H-M "C M M M"
_symmetry_group_IT_number 65
_symmetry_cell_setting 'orthorhombic'
loop_
_space_group_symop_operation_xyz
x,y,z
-x,-y,z
x,-y,-z
-x,y,-z
-x,-y,-z
x,y,-z
-x,y,z
x,-y,z
1/2+x,1/2+y,z
1/2-x,1/2-y,z
1/2+x,1/2-y,-z
1/2-x,1/2+y,-z
1/2-x,1/2-y,-z
1/2+x,1/2+y,-z
1/2-x,1/2+y,z
1/2+x,1/2-y,z
loop_
_atom_site_type_symbol
_atom_site_label
_atom_site_fract_x
_atom_site_fract_y
_atom_site_fract_z
Si Si1 0.646599 0.934467 0.299613
Si Si2 0.764944 0.934063 0.699569
Si Si3 0.625216 0.611040 0.695941
Si Si4 0.439984 0.845268 0.302955
Si Si5 0.060146 0.219394 0.195517
Si Si6 0.560711 0.500000 0.196559
O O1 0.646303 0.933680 0.500000
O O2 0.705955 0.917700 0.247291
O O3 0.601681 0.891553 0.241421
O O4 0.637384 0.000000 0.251427
O O5 0.764833 0.932401 0.500000
O O6 0.814846 0.898037 0.757559
O O7 0.773466 0.000000 0.745318
O O8 0.626889 0.612470 0.500000
O O9 0.597835 0.668250 0.755398
O O10 0.591085 0.556232 0.746318
O O11 0.441719 0.850368 0.500000
O O12 0.500000 0.853664 0.240887
O O13 0.423771 0.781029 0.261654
O O14 0.000000 0.208209 0.255001
O O15 0.058673 0.222665 0.000000
O O16 0.500000 0.500000 0.255331
O O17 0.559952 0.500000 0.000000
#
# Coordination Sequence:
#
# PCOD9491475 Si02
#       6
#    16  16  16  16  16   8
#     4   8  14  26  48  77 106 131 155 195 248 295
#     4   8  14  27  46  71 100 128 160 198 243 292
#     4  11  20  32  52  75  96 125 169 215 248 281
#     4   9  17  30  50  77 103 127 162 204 243 289
#     4  10  21  36  51  67  94 134 170 201 249 306
#     4  11  23  35  47  69 103 135 162 199 250 304
#
# _framework density 18.055962000000001
#
# number of rings (size 3 to 8) (size 9 to 14) (size 15 to 20)
#    0.000    2.636    0.909    3.000    0.000    4.364 
#    0.000    2.727    0.000    8.182    0.000    2.545 
#    0.000    0.000    0.000    0.000    0.000    0.000 
#
# Total GULP energy -245347.447701 kJ/mol
# GULP energy per Si atom -5576.078357 kJ/mol
# Density = 1.801487 g / cm^3
# Si number density = 18.055962 Si / 1000 Ang^3
#
#
#
# Elastic Constant Matrix: (Units=GPa)
#
#
# Indices 1 2 3 4 5 6 
#
# 1 153.7475 117.8356 7.8159 0.0000 0.0000 0.0000
# 2 117.8356 136.6124 4.1425 0.0000 0.0000 0.0000
# 3 7.8159 4.1425 12.8508 0.0000 0.0000 0.0000
# 4 0.0000 0.0000 0.0000 -26.4922 0.0000 0.0000
# 5 0.0000 0.0000 0.0000 0.0000 -0.4182 0.0000
# 6 0.0000 0.0000 0.0000 0.0000 0.0000 24.0969
#
#
#
# Elastic Compliance Matrix: (Units=1/GPa)
#
#
# Indices 1 2 3 4 5 6 
#
# 1 0.019726 -0.016816 -0.006577 0.000000 0.000000 0.000000
# 2 -0.016816 0.021727 0.003224 0.000000 0.000000 0.000000
# 3 -0.006577 0.003224 0.080777 0.000000 0.000000 0.000000
# 4 0.000000 0.000000 0.000000 -0.037747 0.000000 0.000000
# 5 0.000000 0.000000 0.000000 0.000000 -2.391476 0.000000
# 6 0.000000 0.000000 0.000000 0.000000 0.000000 0.041499
#
#
# Mechanical properties :
#
#
# Convention : Reuss Voigt Hill
#
# Bulk Modulus (GPa) = 12.21122 62.53318 37.37220
# Shear Modulus (GPa) = -2.27494 10.99844 4.36175
#
# Velocity S-wave (km/s) = -1.12369 2.47073 1.55593
# Velocity P-wave (km/s) = 2.25701 6.54580 4.89600
#
# Compressibility (1/GPa) = 0.08189190
#
# Stress axis : x y z
#
# Youngs Moduli (GPa) = 50.69338 46.02641 12.37978
#
# Poissons Ratio (x) = 0.77397 0.08142
# Poissons Ratio (y) = 0.85244 -0.03991
# Poissons Ratio (z) = 0.33341 -0.14838
#
# Static dielectric constant tensor:
#      x y z
#    x 1.646940 0.000000 0.000000 
#    y 0.000000 1.555710 0.000000 
#    z 0.000000 0.000000 1.629880 
# 
# From -- ./inp_files/11764.got.cif
#   From: 2010.05.17/outbox.cif.g08.bks.cpg/sg65_6_cif.got.tgz:11764.got - 2010.06.03 17:01:31.
