data_PCOD9491643
_publ_section_title
;
Structure prediction by ZEFSAII (Michael W. Deem and Ramdas Pophale) SiO2 
 PCOD9491643
Probable space group: C M M M
;
_chemical_formula_sum "Si O2"
_cell_formula_units_Z 72
_cell_length_a 18.842429
_cell_length_b 8.962211
_cell_length_c 23.751141
_cell_angle_alpha 90.000000
_cell_angle_beta 90.000000
_cell_angle_gamma 90.000000
_cell_volume 4010.851011
_symmetry_space_group_name_H-M "C M M M"
_symmetry_group_IT_number 65
_symmetry_cell_setting 'orthorhombic'
loop_
_space_group_symop_operation_xyz
x,y,z
-x,-y,z
x,-y,-z
-x,y,-z
-x,-y,-z
x,y,-z
-x,y,z
x,-y,z
1/2+x,1/2+y,z
1/2-x,1/2-y,z
1/2+x,1/2-y,-z
1/2-x,1/2+y,-z
1/2-x,1/2-y,-z
1/2+x,1/2+y,-z
1/2-x,1/2+y,z
1/2+x,1/2-y,z
loop_
_atom_site_type_symbol
_atom_site_label
_atom_site_fract_x
_atom_site_fract_y
_atom_site_fract_z
Si Si1 0.915207 0.675278 0.161396
Si Si2 0.671994 0.679615 0.609702
Si Si3 0.827383 0.177745 0.936975
Si Si4 0.416251 0.179734 0.289696
Si Si5 0.418502 0.681189 0.500000
O O1 0.897674 0.500000 0.155443
O O2 0.876734 0.765031 0.112801
O O3 0.896591 0.720585 0.225390
O O4 0.000000 0.690051 0.156476
O O5 0.677158 0.500000 0.610583
O O6 0.750000 0.750000 0.605872
O O7 0.631824 0.738040 0.665031
O O8 0.624687 0.725355 0.555666
O O9 0.750000 0.250000 0.930761
O O10 0.820910 0.000000 0.934327
O O11 0.854078 0.217893 0.000000
O O12 0.500000 0.214156 0.298062
O O13 0.408779 0.000000 0.294892
O O14 0.421010 0.500000 0.500000
O O15 0.500000 0.734841 0.500000
#
# Coordination Sequence:
#
# PCOD9491643 Si02
#       5
#    16  16  16  16   8
#     4   9  19  36  57  80 107 140 176 217 266 318
#     4  11  22  36  56  81 111 145 180 220 266 315
#     4  10  21  36  54  77 106 140 178 221 267 316
#     4   9  19  37  58  80 108 140 177 221 266 316
#     4   9  19  36  57  81 108 139 178 223 268 316
#
# _framework density 17.951302999999999
#
# number of rings (size 3 to 8) (size 9 to 14) (size 15 to 20)
#    0.000    2.333    0.000    3.667    0.000    5.333 
#    0.000    6.111    0.000    4.000    0.000    0.000 
#    0.000    0.000    0.000    0.000    0.000    0.000 
#
# Total GULP energy -200935.379529 kJ/mol
# GULP energy per Si atom -5581.538320 kJ/mol
# Density = 1.791044 g / cm^3
# Si number density = 17.951303 Si / 1000 Ang^3
#
#
#
# Elastic Constant Matrix: (Units=GPa)
#
#
# Indices 1 2 3 4 5 6 
#
# 1 103.6775 51.2536 97.4845 0.0000 0.0000 0.0000
# 2 51.2536 53.4186 71.5045 0.0000 0.0000 0.0000
# 3 97.4845 71.5045 179.8377 0.0000 0.0000 0.0000
# 4 0.0000 0.0000 0.0000 25.5026 0.0000 0.0000
# 5 0.0000 0.0000 0.0000 0.0000 51.8349 0.0000
# 6 0.0000 0.0000 0.0000 0.0000 0.0000 22.8217
#
#
#
# Elastic Compliance Matrix: (Units=1/GPa)
#
#
# Indices 1 2 3 4 5 6 
#
# 1 0.022428 -0.011213 -0.007699 0.000000 0.000000 0.000000
# 2 -0.011213 0.045625 -0.012063 0.000000 0.000000 0.000000
# 3 -0.007699 -0.012063 0.014530 0.000000 0.000000 0.000000
# 4 0.000000 0.000000 0.000000 0.039212 0.000000 0.000000
# 5 0.000000 0.000000 0.000000 0.000000 0.019292 0.000000
# 6 0.000000 0.000000 0.000000 0.000000 0.000000 0.043818
#
#
# Mechanical properties :
#
#
# Convention : Reuss Voigt Hill
#
# Bulk Modulus (GPa) = 48.46428 86.37988 67.42208
# Shear Modulus (GPa) = 19.70585 27.81128 23.75857
#
# Velocity S-wave (km/s) = 3.31681 3.94034 3.64194
# Velocity P-wave (km/s) = 6.45945 8.30212 7.43807
#
# Compressibility (1/GPa) = 0.02063375
#
# Stress axis : x y z
#
# Youngs Moduli (GPa) = 44.58795 21.91763 68.82280
#
# Poissons Ratio (x) = 0.24576 0.52986
# Poissons Ratio (y) = 0.49997 0.83018
# Poissons Ratio (z) = 0.34328 0.26438
#
# Static dielectric constant tensor:
#      x y z
#    x 1.584150 0.000000 0.000000 
#    y 0.000000 1.598290 0.000000 
#    z 0.000000 0.000000 1.608210 
# 
# From -- ./inp_files/70353.got.cif
#   From: 2010.05.17/outbox.cif.g08.bks.cpg/sg65_36_cif.got.tgz:70353.got - 2010.06.03 17:01:31.
