data_PCOD9491069
_publ_section_title
;
Structure prediction by ZEFSAII (Michael W. Deem and Ramdas Pophale) SiO2 
 PCOD9491069
Probable space group: C M M M
;
_chemical_formula_sum "Si O2"
_cell_formula_units_Z 88
_cell_length_a 27.500278
_cell_length_b 7.567506
_cell_length_c 23.156320
_cell_angle_alpha 90.000000
_cell_angle_beta 90.000000
_cell_angle_gamma 90.000000
_cell_volume 4819.027455
_symmetry_space_group_name_H-M "C M M M"
_symmetry_group_IT_number 65
_symmetry_cell_setting 'orthorhombic'
loop_
_space_group_symop_operation_xyz
x,y,z
-x,-y,z
x,-y,-z
-x,y,-z
-x,-y,-z
x,y,-z
-x,y,z
x,-y,z
1/2+x,1/2+y,z
1/2-x,1/2-y,z
1/2+x,1/2-y,-z
1/2-x,1/2+y,-z
1/2-x,1/2-y,-z
1/2+x,1/2+y,-z
1/2-x,1/2+y,z
1/2+x,1/2-y,z
loop_
_atom_site_type_symbol
_atom_site_label
_atom_site_fract_x
_atom_site_fract_y
_atom_site_fract_z
Si Si1 0.942455 0.000000 0.782016
Si Si2 0.868862 0.294146 0.386898
Si Si3 0.942246 0.000000 0.642539
Si Si4 0.192277 0.209935 0.500000
Si Si5 0.194877 0.711551 0.065422
Si Si6 0.871006 0.285129 0.829316
Si Si7 0.306372 0.790146 0.278652
O O1 0.934035 0.000000 0.712404
O O2 0.917751 0.172203 0.811107
O O3 0.000000 0.000000 0.791058
O O4 0.881777 0.500000 0.377938
O O5 0.835801 0.280377 0.443811
O O6 0.835640 0.224632 0.334041
O O7 0.915942 0.170041 0.385462
O O8 0.000000 0.000000 0.633207
O O9 0.250000 0.250000 0.500000
O O10 0.187147 0.000000 0.500000
O O11 0.191125 0.500000 0.062807
O O12 0.250000 0.750000 0.085790
O O13 0.153409 0.768345 0.109962
O O14 0.190075 0.781901 0.000000
O O15 0.878537 0.500000 0.828398
O O16 0.831374 0.234547 0.780592
O O17 0.250000 0.750000 0.281234
O O18 0.311141 0.000000 0.280556
#
# Coordination Sequence:
#
# PCOD9491069 Si02
#       7
#     8  16   8   8  16  16  16
#     4  11  24  40  64  90 114 154 205 255 316 360
#     4  11  23  42  61  89 126 158 201 252 298 361
#     4  11  24  43  68  92 118 159 205 261 317 358
#     4  12  24  40  64  94 129 171 206 240 292 365
#     4   9  18  32  52  82 120 162 200 236 290 358
#     4  10  21  37  55  84 119 151 196 248 301 358
#     4  10  21  32  53  83 115 155 191 234 295 355
#
# _framework density 18.260947000000002
#
# number of rings (size 3 to 8) (size 9 to 14) (size 15 to 20)
#    0.000    1.636    2.727    1.909    3.818    2.182 
#    0.000    2.727    0.000    2.182    0.000    2.545 
#    0.000    0.000    0.000    0.000    0.000    0.000 
#
# Total GULP energy -245568.545129 kJ/mol
# GULP energy per Si atom -5581.103298 kJ/mol
# Density = 1.821938 g / cm^3
# Si number density = 18.260947 Si / 1000 Ang^3
#
#
#
# Elastic Constant Matrix: (Units=GPa)
#
#
# Indices 1 2 3 4 5 6 
#
# 1 151.2717 48.7029 58.8067 0.0000 0.0000 0.0000
# 2 48.7029 92.5569 24.4280 0.0000 0.0000 0.0000
# 3 58.8067 24.4280 94.4757 0.0000 0.0000 0.0000
# 4 0.0000 0.0000 0.0000 22.3778 0.0000 0.0000
# 5 0.0000 0.0000 0.0000 0.0000 -16.5946 0.0000
# 6 0.0000 0.0000 0.0000 0.0000 0.0000 32.3096
#
#
#
# Elastic Compliance Matrix: (Units=1/GPa)
#
#
# Indices 1 2 3 4 5 6 
#
# 1 0.009837 -0.003821 -0.005135 0.000000 0.000000 0.000000
# 2 -0.003821 0.013080 -0.001004 0.000000 0.000000 0.000000
# 3 -0.005135 -0.001004 0.014041 0.000000 0.000000 0.000000
# 4 0.000000 0.000000 0.000000 0.044687 0.000000 0.000000
# 5 0.000000 0.000000 0.000000 0.000000 -0.060261 0.000000
# 6 0.000000 0.000000 0.000000 0.000000 0.000000 0.030951
#
#
# Mechanical properties :
#
#
# Convention : Reuss Voigt Hill
#
# Bulk Modulus (GPa) = 58.69242 66.90884 62.80063
# Shear Modulus (GPa) = 64.15770 21.37635 42.76702
#
# Velocity S-wave (km/s) = 5.93381 3.42512 4.84467
# Velocity P-wave (km/s) = 8.89705 7.23615 8.10924
#
# Compressibility (1/GPa) = 0.01703798
#
# Stress axis : x y z
#
# Youngs Moduli (GPa) = 101.65609 76.45510 71.22193
#
# Poissons Ratio (x) = 0.29213 0.36574
# Poissons Ratio (y) = 0.38842 0.07147
# Poissons Ratio (z) = 0.52202 0.07673
#
# Static dielectric constant tensor:
#      x y z
#    x 1.730990 0.000000 0.000000 
#    y 0.000000 1.646350 0.000000 
#    z 0.000000 0.000000 1.656200 
# 
# From -- ./inp_files/65271.got.cif
#   From: 2010.05.17/outbox.cif.g08.bks.cpg/sg65_33_cif.got.tgz:65271.got - 2010.06.03 17:01:31.
