data_PCOD9491164
_publ_section_title
;
Structure prediction by ZEFSAII (Michael W. Deem and Ramdas Pophale) SiO2 
 PCOD9491164
Probable space group: C M M M
;
_chemical_formula_sum "Si O2"
_cell_formula_units_Z 104
_cell_length_a 14.868859
_cell_length_b 17.377687
_cell_length_c 21.071729
_cell_angle_alpha 90.000000
_cell_angle_beta 90.000000
_cell_angle_gamma 90.000000
_cell_volume 5444.647729
_symmetry_space_group_name_H-M "C M M M"
_symmetry_group_IT_number 65
_symmetry_cell_setting 'orthorhombic'
loop_
_space_group_symop_operation_xyz
x,y,z
-x,-y,z
x,-y,-z
-x,y,-z
-x,-y,-z
x,y,-z
-x,y,z
x,-y,z
1/2+x,1/2+y,z
1/2-x,1/2-y,z
1/2+x,1/2-y,-z
1/2-x,1/2+y,-z
1/2-x,1/2-y,-z
1/2+x,1/2+y,-z
1/2-x,1/2+y,z
1/2+x,1/2-y,z
loop_
_atom_site_type_symbol
_atom_site_label
_atom_site_fract_x
_atom_site_fract_y
_atom_site_fract_z
Si Si1 0.107583 0.583164 0.629895
Si Si2 0.773237 0.339743 0.114562
Si Si3 0.398061 0.321090 0.700116
Si Si4 0.392470 0.907065 0.000000
Si Si5 0.144680 0.747811 0.430911
Si Si6 0.605172 0.849336 0.760949
Si Si7 0.105322 0.091472 0.821405
O O1 0.141607 0.500000 0.606282
O O2 0.123740 0.660104 0.589714
O O3 0.137555 0.598156 0.702368
O O4 0.000000 0.578847 0.633362
O O5 0.750000 0.250000 0.104199
O O6 0.836293 0.374351 0.059739
O O7 0.832087 0.350655 0.178357
O O8 0.676461 0.379938 0.126257
O O9 0.500000 0.347828 0.696105
O O10 0.372353 0.305808 0.627445
O O11 0.392765 0.236879 0.732242
O O12 0.358098 0.376851 0.753426
O O13 0.500000 0.885796 0.000000
O O14 0.388989 0.000000 0.000000
O O15 0.103682 0.765528 0.500000
O O16 0.250000 0.750000 0.437653
O O17 0.500000 0.867120 0.775861
O O18 0.000000 0.118081 0.830779
O O19 0.103907 0.000000 0.820453
#
# Coordination Sequence:
#
# PCOD9491164 Si02
#       7
#    16  16  16   8  16  16  16
#     4   9  19  34  54  83 114 145 188 244 303 359
#     4  12  23  39  67  95 121 162 203 244 294 348
#     4   9  18  34  56  81 110 147 192 244 298 352
#     4  11  27  48  65  91 133 171 204 239 286 358
#     4  10  21  34  50  75 111 155 199 243 295 364
#     4   9  18  33  56  89 122 149 188 240 297 360
#     4  10  22  39  60  90 122 152 197 256 308 352
#
# _framework density 19.101329
#
# number of rings (size 3 to 8) (size 9 to 14) (size 15 to 20)
#    0.000    2.077    1.538    2.538    4.308    3.385 
#    0.000    2.692    0.000    2.769    0.000    2.154 
#    0.000    0.000    0.000    0.000    0.000    0.000 
#
# Total GULP energy -289550.583154 kJ/mol
# GULP energy per Si atom -5568.280445 kJ/mol
# Density = 1.905785 g / cm^3
# Si number density = 19.101329 Si / 1000 Ang^3
#
#
#
# Elastic Constant Matrix: (Units=GPa)
#
#
# Indices 1 2 3 4 5 6 
#
# 1 103.4421 28.0808 60.8957 0.0000 0.0000 0.0000
# 2 28.0808 67.8325 19.8740 0.0000 0.0000 0.0000
# 3 60.8957 19.8740 122.2560 0.0000 0.0000 0.0000
# 4 0.0000 0.0000 0.0000 11.1659 0.0000 0.0000
# 5 0.0000 0.0000 0.0000 0.0000 -184.9675 0.0000
# 6 0.0000 0.0000 0.0000 0.0000 0.0000 16.0656
#
#
#
# Elastic Compliance Matrix: (Units=1/GPa)
#
#
# Indices 1 2 3 4 5 6 
#
# 1 0.014707 -0.004139 -0.006653 0.000000 0.000000 0.000000
# 2 -0.004139 0.016644 -0.000644 0.000000 0.000000 0.000000
# 3 -0.006653 -0.000644 0.011598 0.000000 0.000000 0.000000
# 4 0.000000 0.000000 0.000000 0.089559 0.000000 0.000000
# 5 0.000000 0.000000 0.000000 0.000000 -0.005406 0.000000
# 6 0.000000 0.000000 0.000000 0.000000 0.000000 0.062245
#
#
# Mechanical properties :
#
#
# Convention : Reuss Voigt Hill
#
# Bulk Modulus (GPa) = 49.80661 56.80353 53.30507
# Shear Modulus (GPa) = 22.84026 -19.23519 1.80253
#
# Velocity S-wave (km/s) = 3.46170 -3.17678 0.97248
# Velocity P-wave (km/s) = 6.48917 4.04310 5.40629
#
# Compressibility (1/GPa) = 0.02007765
#
# Stress axis : x y z
#
# Youngs Moduli (GPa) = 67.99289 60.08023 86.22145
#
# Poissons Ratio (x) = 0.24869 0.57362
# Poissons Ratio (y) = 0.28144 0.05552
# Poissons Ratio (z) = 0.45235 0.03869
#
# Static dielectric constant tensor:
#      x y z
#    x 1.690450 0.000000 0.000000 
#    y 0.000000 1.662030 0.000000 
#    z 0.000000 0.000000 1.775910 
# 
# From -- ./inp_files/62836.got.cif
#   From: 2010.05.17/outbox.cif.g08.bks.cpg/sg65_32_cif.got.tgz:62836.got - 2010.06.03 17:01:31.
