data_PCOD9491376
_publ_section_title
;
Structure prediction by ZEFSAII (Michael W. Deem and Ramdas Pophale) SiO2 
 PCOD9491376
Probable space group: C M M M
;
_chemical_formula_sum "Si O2"
_cell_formula_units_Z 80
_cell_length_a 8.109129
_cell_length_b 18.713390
_cell_length_c 28.367329
_cell_angle_alpha 90.000000
_cell_angle_beta 90.000000
_cell_angle_gamma 90.000000
_cell_volume 4304.722135
_symmetry_space_group_name_H-M "C M M M"
_symmetry_group_IT_number 65
_symmetry_cell_setting 'orthorhombic'
loop_
_space_group_symop_operation_xyz
x,y,z
-x,-y,z
x,-y,-z
-x,y,-z
-x,-y,-z
x,y,-z
-x,y,z
x,-y,z
1/2+x,1/2+y,z
1/2-x,1/2-y,z
1/2+x,1/2-y,-z
1/2-x,1/2+y,-z
1/2-x,1/2-y,-z
1/2+x,1/2+y,-z
1/2-x,1/2+y,z
1/2+x,1/2-y,z
loop_
_atom_site_type_symbol
_atom_site_label
_atom_site_fract_x
_atom_site_fract_y
_atom_site_fract_z
Si Si1 0.304174 0.918626 0.193337
Si Si2 0.306322 0.586092 0.380230
Si Si3 0.198057 0.918266 0.909151
Si Si4 0.500000 0.086782 0.553910
Si Si5 0.195937 0.831918 0.715590
Si Si6 0.300500 0.331807 0.000000
O O1 0.500000 0.922786 0.189954
O O2 0.240516 0.890978 0.142982
O O3 0.261531 0.869901 0.237570
O O4 0.238318 0.000000 0.200002
O O5 0.500000 0.603358 0.391395
O O6 0.298713 0.500000 0.374585
O O7 0.168301 0.607213 0.418699
O O8 0.258173 0.624059 0.331311
O O9 0.259555 0.871476 0.952728
O O10 0.000000 0.920858 0.912605
O O11 0.260388 0.000000 0.912556
O O12 0.500000 0.112245 0.500000
O O13 0.500000 0.000000 0.552988
O O14 0.250000 0.750000 0.712241
O O15 0.000000 0.834017 0.718355
O O16 0.250000 0.250000 0.000000
O O17 0.500000 0.335658 0.000000
#
# Coordination Sequence:
#
# PCOD9491376 Si02
#       6
#    16  16  16   8  16   8
#     4  10  21  36  56  82 111 142 179 224 275 331
#     4   9  19  35  56  83 113 148 189 233 283 338
#     4   9  18  35  57  77 100 135 179 225 267 319
#     4   9  18  32  56  88 116 146 185 234 288 332
#     4  11  23  37  55  81 110 148 186 227 278 330
#     4  10  21  35  53  77 103 136 176 218 274 326
#
# _framework density 18.584240999999999
#
# number of rings (size 3 to 8) (size 9 to 14) (size 15 to 20)
#    0.000    2.300    0.000    2.100    2.800    5.200 
#    0.000    4.000    0.000    3.600    0.000    0.000 
#    0.000    0.000    0.000    0.000    0.000    0.000 
#
# Total GULP energy -223145.453714 kJ/mol
# GULP energy per Si atom -5578.636343 kJ/mol
# Density = 1.854194 g / cm^3
# Si number density = 18.584241 Si / 1000 Ang^3
#
#
#
# Elastic Constant Matrix: (Units=GPa)
#
#
# Indices 1 2 3 4 5 6 
#
# 1 53.6332 28.7218 67.8561 0.0000 0.0000 0.0000
# 2 28.7218 59.6755 72.2688 0.0000 0.0000 0.0000
# 3 67.8561 72.2688 194.7527 0.0000 0.0000 0.0000
# 4 0.0000 0.0000 0.0000 -5.5056 0.0000 0.0000
# 5 0.0000 0.0000 0.0000 0.0000 22.7782 0.0000
# 6 0.0000 0.0000 0.0000 0.0000 0.0000 23.0072
#
#
#
# Elastic Compliance Matrix: (Units=1/GPa)
#
#
# Indices 1 2 3 4 5 6 
#
# 1 0.033774 -0.003640 -0.010417 0.000000 0.000000 0.000000
# 2 -0.003640 0.030826 -0.010171 0.000000 0.000000 0.000000
# 3 -0.010417 -0.010171 0.012538 0.000000 0.000000 0.000000
# 4 0.000000 0.000000 0.000000 -0.181633 0.000000 0.000000
# 5 0.000000 0.000000 0.000000 0.000000 0.043902 0.000000
# 6 0.000000 0.000000 0.000000 0.000000 0.000000 0.043465
#
#
# Mechanical properties :
#
#
# Convention : Reuss Voigt Hill
#
# Bulk Modulus (GPa) = 34.86402 71.75054 53.30728
# Shear Modulus (GPa) = 122.28583 17.33693 69.81138
#
# Velocity S-wave (km/s) = 8.12057 3.05763 6.13566
# Velocity P-wave (km/s) = 10.33081 7.15245 8.88491
#
# Compressibility (1/GPa) = 0.02868287
#
# Stress axis : x y z
#
# Youngs Moduli (GPa) = 29.60890 32.43976 79.75637
#
# Poissons Ratio (x) = 0.11810 0.83079
# Poissons Ratio (y) = 0.10779 0.81117
# Poissons Ratio (z) = 0.30842 0.32993
#
# Static dielectric constant tensor:
#      x y z
#    x 1.651990 0.000000 0.000000 
#    y 0.000000 1.615820 0.000000 
#    z 0.000000 0.000000 1.636980 
# 
# From -- ./inp_files/72907.got.cif
#   From: 2010.05.17/outbox.cif.g08.bks.cpg/sg65_37_cif.got.tgz:72907.got - 2010.06.03 17:01:31.
