data_PCOD9491244
_publ_section_title
;
Structure prediction by ZEFSAII (Michael W. Deem and Ramdas Pophale) SiO2 
 PCOD9491244
Probable space group: C M M M
;
_chemical_formula_sum "Si O2"
_cell_formula_units_Z 72
_cell_length_a 19.248996
_cell_length_b 7.759257
_cell_length_c 24.571429
_cell_angle_alpha 90.000000
_cell_angle_beta 90.000000
_cell_angle_gamma 90.000000
_cell_volume 3669.937206
_symmetry_space_group_name_H-M "C M M M"
_symmetry_group_IT_number 65
_symmetry_cell_setting 'orthorhombic'
loop_
_space_group_symop_operation_xyz
x,y,z
-x,-y,z
x,-y,-z
-x,y,-z
-x,-y,-z
x,y,-z
-x,y,z
x,-y,z
1/2+x,1/2+y,z
1/2-x,1/2-y,z
1/2+x,1/2-y,-z
1/2-x,1/2+y,-z
1/2-x,1/2-y,-z
1/2+x,1/2+y,-z
1/2-x,1/2+y,z
1/2+x,1/2-y,z
loop_
_atom_site_type_symbol
_atom_site_label
_atom_site_fract_x
_atom_site_fract_y
_atom_site_fract_z
Si Si1 0.667575 0.792146 0.500000
Si Si2 0.670602 0.705259 0.938731
Si Si3 0.332130 0.207359 0.382971
Si Si4 0.578223 0.794420 0.163408
Si Si5 0.831483 0.708073 0.735815
O O1 0.750000 0.750000 0.500000
O O2 0.639748 0.728341 0.441432
O O3 0.660850 0.000000 0.500000
O O4 0.665292 0.500000 0.940811
O O5 0.750000 0.750000 0.923968
O O6 0.618042 0.767380 0.893069
O O7 0.657701 0.773856 0.000000
O O8 0.250000 0.250000 0.383071
O O9 0.356854 0.270640 0.323868
O O10 0.339809 0.000000 0.383219
O O11 0.500000 0.724544 0.162146
O O12 0.623695 0.725123 0.213742
O O13 0.573653 0.000000 0.171370
O O14 0.836124 0.500000 0.735201
O O15 0.750000 0.750000 0.742425
#
# Coordination Sequence:
#
# PCOD9491244 Si02
#       5
#     8  16  16  16  16
#     4   8  12  18  30  50  77 107 137 173 221 272
#     4  10  21  37  57  79 101 125 154 189 230 277
#     4   8  13  21  34  54  80 109 141 179 224 272
#     4  10  21  35  50  70  97 129 163 197 235 278
#     4   9  17  29  45  65  89 118 153 192 233 277
#
# _framework density 19.618863000000001
#
# number of rings (size 3 to 8) (size 9 to 14) (size 15 to 20)
#    0.000    2.889    0.000    1.333    0.000    4.889 
#    0.000    2.222    0.000    0.000    0.000    0.778 
#    0.000    6.222    0.000    0.000    0.000  215.000 
#
# Total GULP energy -200489.871203 kJ/mol
# GULP energy per Si atom -5569.163089 kJ/mol
# Density = 1.957421 g / cm^3
# Si number density = 19.618863 Si / 1000 Ang^3
#
#
#
# Elastic Constant Matrix: (Units=GPa)
#
#
# Indices 1 2 3 4 5 6 
#
# 1 87.4216 2.1289 104.1183 0.0000 0.0000 0.0000
# 2 2.1289 31.4531 5.6732 0.0000 0.0000 0.0000
# 3 104.1183 5.6732 197.3789 0.0000 0.0000 0.0000
# 4 0.0000 0.0000 0.0000 -4.6520 0.0000 0.0000
# 5 0.0000 0.0000 0.0000 0.0000 -4.2861 0.0000
# 6 0.0000 0.0000 0.0000 0.0000 0.0000 11.9794
#
#
#
# Elastic Compliance Matrix: (Units=1/GPa)
#
#
# Indices 1 2 3 4 5 6 
#
# 1 0.030793 0.000850 -0.016268 0.000000 0.000000 0.000000
# 2 0.000850 0.031982 -0.001368 0.000000 0.000000 0.000000
# 3 -0.016268 -0.001368 0.013687 0.000000 0.000000 0.000000
# 4 0.000000 0.000000 0.000000 -0.214961 0.000000 0.000000
# 5 0.000000 0.000000 0.000000 0.000000 -0.233313 0.000000
# 6 0.000000 0.000000 0.000000 0.000000 0.000000 0.083477
#
#
# Mechanical properties :
#
#
# Convention : Reuss Voigt Hill
#
# Bulk Modulus (GPa) = 23.31464 60.01049 41.66257
# Shear Modulus (GPa) = -20.79292 14.23048 -3.28122
#
# Velocity S-wave (km/s) = -3.25906 2.69615 -1.29465
# Velocity P-wave (km/s) = 1.50078 6.35192 4.36432
#
# Compressibility (1/GPa) = 0.04289150
#
# Stress axis : x y z
#
# Youngs Moduli (GPa) = 32.47493 31.26713 73.06160
#
# Poissons Ratio (x) = -0.02658 1.18856
# Poissons Ratio (y) = -0.02760 0.09992
# Poissons Ratio (z) = 0.52830 0.04276
#
# Static dielectric constant tensor:
#      x y z
#    x 1.629650 0.000000 0.000000 
#    y 0.000000 1.715030 0.000000 
#    z 0.000000 0.000000 1.771800 
# 
# From -- ./inp_files/67020.got.cif
#   From: 2010.05.17/outbox.cif.g08.bks.cpg/sg65_34_cif.got.tgz:67020.got - 2010.06.03 17:01:31.
