data_PCOD9491488
_publ_section_title
;
Structure prediction by ZEFSAII (Michael W. Deem and Ramdas Pophale) SiO2 
 PCOD9491488
Probable space group: C M M M
;
_chemical_formula_sum "Si O2"
_cell_formula_units_Z 88
_cell_length_a 18.677144
_cell_length_b 7.624215
_cell_length_c 30.210385
_cell_angle_alpha 90.000000
_cell_angle_beta 90.000000
_cell_angle_gamma 90.000000
_cell_volume 4301.915365
_symmetry_space_group_name_H-M "C M M M"
_symmetry_group_IT_number 65
_symmetry_cell_setting 'orthorhombic'
loop_
_space_group_symop_operation_xyz
x,y,z
-x,-y,z
x,-y,-z
-x,y,-z
-x,-y,-z
x,y,-z
-x,y,z
x,-y,z
1/2+x,1/2+y,z
1/2-x,1/2-y,z
1/2+x,1/2-y,-z
1/2-x,1/2+y,-z
1/2-x,1/2-y,-z
1/2+x,1/2+y,-z
1/2-x,1/2+y,z
1/2+x,1/2-y,z
loop_
_atom_site_type_symbol
_atom_site_label
_atom_site_fract_x
_atom_site_fract_y
_atom_site_fract_z
Si Si1 0.416644 0.284912 0.403573
Si Si2 0.080548 0.709011 0.770972
Si Si3 0.912897 0.795335 0.500000
Si Si4 0.334399 0.211336 0.856043
Si Si5 0.833484 0.792065 0.682465
Si Si6 0.164911 0.710706 0.047557
O O1 0.500000 0.236397 0.397287
O O2 0.415079 0.500000 0.404885
O O3 0.391373 0.221854 0.452163
O O4 0.369781 0.221992 0.362453
O O5 0.075284 0.500000 0.777325
O O6 0.121877 0.779775 0.814052
O O7 0.125287 0.734630 0.726400
O O8 0.000000 0.779538 0.766666
O O9 0.000000 0.790794 0.500000
O O10 0.891600 0.000000 0.500000
O O11 0.250000 0.250000 0.851105
O O12 0.360405 0.276371 0.904444
O O13 0.340784 0.000000 0.856798
O O14 0.750000 0.750000 0.684948
O O15 0.841071 0.000000 0.680521
O O16 0.155841 0.500000 0.047365
O O17 0.250000 0.750000 0.047538
O O18 0.136489 0.777180 0.000000
#
# Coordination Sequence:
#
# PCOD9491488 Si02
#       6
#    16  16   8  16  16  16
#     4   8  14  26  46  71  96 123 157 196 235 276
#     4  10  21  36  52  70  94 125 160 198 242 290
#     4   7  10  20  41  68  95 121 152 191 232 273
#     4   9  17  29  46  68  93 121 153 191 234 278
#     4  11  22  35  51  72  99 128 161 200 241 285
#     4   8  13  22  38  61  88 116 147 184 225 269
#
# _framework density 20.456004
#
# number of rings (size 3 to 8) (size 9 to 14) (size 15 to 20)
#    0.000    3.000    0.000    2.727    0.000    3.273 
#    0.000    0.455    0.000    0.545    0.000    5.727 
#    0.000   10.182    0.000   31.091    0.000   15.636 
#
# Total GULP energy -245188.423406 kJ/mol
# GULP energy per Si atom -5572.464168 kJ/mol
# Density = 2.040945 g / cm^3
# Si number density = 20.456004 Si / 1000 Ang^3
#
#
#
# Elastic Constant Matrix: (Units=GPa)
#
#
# Indices 1 2 3 4 5 6 
#
# 1 100.5846 -0.1627 106.6954 0.0000 0.0000 0.0000
# 2 -0.1627 43.8430 7.2209 0.0000 0.0000 0.0000
# 3 106.6954 7.2209 269.5397 0.0000 0.0000 0.0000
# 4 0.0000 0.0000 0.0000 11.7588 0.0000 0.0000
# 5 0.0000 0.0000 0.0000 0.0000 53.3142 0.0000
# 6 0.0000 0.0000 0.0000 0.0000 0.0000 -2.9725
#
#
#
# Elastic Compliance Matrix: (Units=1/GPa)
#
#
# Indices 1 2 3 4 5 6 
#
# 1 0.017200 0.001190 -0.006840 0.000000 0.000000 0.000000
# 2 0.001190 0.022992 -0.001087 0.000000 0.000000 0.000000
# 3 -0.006840 -0.001087 0.006447 0.000000 0.000000 0.000000
# 4 0.000000 0.000000 0.000000 0.085043 0.000000 0.000000
# 5 0.000000 0.000000 0.000000 0.000000 0.018757 0.000000
# 6 0.000000 0.000000 0.000000 0.000000 0.000000 -0.336422
#
#
# Mechanical properties :
#
#
# Convention : Reuss Voigt Hill
#
# Bulk Modulus (GPa) = 30.15270 71.27495 50.71383
# Shear Modulus (GPa) = -30.96832 32.43434 0.73301
#
# Velocity S-wave (km/s) = -3.89511 3.98624 0.59926
# Velocity P-wave (km/s) = 2.33599 7.49036 5.03233
#
# Compressibility (1/GPa) = 0.03316452
#
# Stress axis : x y z
#
# Youngs Moduli (GPa) = 58.14090 43.49318 155.11546
#
# Poissons Ratio (x) = -0.05177 1.06103
# Poissons Ratio (y) = -0.06921 0.16864
# Poissons Ratio (z) = 0.39770 0.04728
#
# Static dielectric constant tensor:
#      x y z
#    x 1.694300 0.000000 0.000000 
#    y 0.000000 1.790270 0.000000 
#    z 0.000000 0.000000 1.792320 
# 
# From -- ./inp_files/77819.got.cif
#   From: 2010.05.17/outbox.cif.g08.bks.cpg/sg65_39_cif.got.tgz:77819.got - 2010.06.03 17:01:31.
