data_PCOD9491537
_publ_section_title
;
Structure prediction by ZEFSAII (Michael W. Deem and Ramdas Pophale) SiO2 
 PCOD9491537
Probable space group: C M M M
;
_chemical_formula_sum "Si O2"
_cell_formula_units_Z 104
_cell_length_a 19.568731
_cell_length_b 9.406833
_cell_length_c 33.809543
_cell_angle_alpha 90.000000
_cell_angle_beta 90.000000
_cell_angle_gamma 90.000000
_cell_volume 6223.653391
_symmetry_space_group_name_H-M "C M M M"
_symmetry_group_IT_number 65
_symmetry_cell_setting 'orthorhombic'
loop_
_space_group_symop_operation_xyz
x,y,z
-x,-y,z
x,-y,-z
-x,y,-z
-x,-y,-z
x,y,-z
-x,y,z
x,-y,z
1/2+x,1/2+y,z
1/2-x,1/2-y,z
1/2+x,1/2-y,-z
1/2-x,1/2+y,-z
1/2-x,1/2-y,-z
1/2+x,1/2+y,-z
1/2-x,1/2+y,z
1/2+x,1/2-y,z
loop_
_atom_site_type_symbol
_atom_site_label
_atom_site_fract_x
_atom_site_fract_y
_atom_site_fract_z
Si Si1 0.320991 0.832191 0.604102
Si Si2 0.081467 0.166773 0.545956
Si Si3 0.178646 0.668430 0.303243
Si Si4 0.416641 0.336324 0.000000
Si Si5 0.416575 0.163344 0.077682
Si Si6 0.081474 0.830707 0.243814
Si Si7 0.083117 0.836706 0.846018
O O1 0.250000 0.750000 0.597414
O O2 0.377242 0.765122 0.575590
O O3 0.339517 0.813006 0.650389
O O4 0.312391 0.000000 0.596952
O O5 0.098599 0.196375 0.500000
O O6 0.000000 0.185390 0.550404
O O7 0.096701 0.000000 0.553479
O O8 0.186167 0.500000 0.295839
O O9 0.250000 0.750000 0.296687
O O10 0.122544 0.738542 0.275108
O O11 0.395070 0.254072 0.039573
O O12 0.394584 0.500000 0.000000
O O13 0.500000 0.336515 0.000000
O O14 0.500000 0.164502 0.077867
O O15 0.393891 0.235518 0.118629
O O16 0.394982 0.000000 0.074636
O O17 0.102920 0.795813 0.198603
O O18 0.000000 0.807244 0.247188
O O19 0.093291 0.000000 0.249577
O O20 0.000000 0.836137 0.846198
O O21 0.104004 0.000000 0.853373
#
# Coordination Sequence:
#
# PCOD9491537 Si02
#       7
#    16  16  16   8  16  16  16
#     4  10  21  36  54  76 101 131 167 205 245 290
#     4   9  19  36  56  78 105 136 168 202 242 288
#     4  10  21  36  53  73  99 130 164 203 246 292
#     4   9  15  21  29  41  61  95 138 179 220 271
#     4   9  15  21  30  46  69  98 135 180 226 270
#     4   9  18  32  50  72  97 126 161 199 240 290
#     4   8  14  25  39  55  78 109 144 181 223 274
#
# _framework density 16.710442
#
# number of rings (size 3 to 8) (size 9 to 14) (size 15 to 20)
#    0.000    2.846    0.000    3.000    0.000    7.077 
#    0.000    5.385    0.000    0.000    0.000    0.000 
#    0.000    0.000    0.000    0.692    0.000   10.000 
#
# Total GULP energy -289827.298714 kJ/mol
# GULP energy per Si atom -5573.601898 kJ/mol
# Density = 1.667241 g / cm^3
# Si number density = 16.710442 Si / 1000 Ang^3
#
#
#
# Elastic Constant Matrix: (Units=GPa)
#
#
# Indices 1 2 3 4 5 6 
#
# 1 32.4092 52.8020 58.2693 0.0000 0.0000 0.0000
# 2 52.8020 142.1283 112.5398 0.0000 0.0000 0.0000
# 3 58.2693 112.5398 128.7632 0.0000 0.0000 0.0000
# 4 0.0000 0.0000 0.0000 35.1947 0.0000 0.0000
# 5 0.0000 0.0000 0.0000 0.0000 -16.0468 0.0000
# 6 0.0000 0.0000 0.0000 0.0000 0.0000 23.9667
#
#
#
# Elastic Compliance Matrix: (Units=1/GPa)
#
#
# Indices 1 2 3 4 5 6 
#
# 1 0.167776 -0.007185 -0.069645 0.000000 0.000000 0.000000
# 2 -0.007185 0.023156 -0.016987 0.000000 0.000000 0.000000
# 3 -0.069645 -0.016987 0.054129 0.000000 0.000000 0.000000
# 4 0.000000 0.000000 0.000000 0.028413 0.000000 0.000000
# 5 0.000000 0.000000 0.000000 0.000000 -0.062318 0.000000
# 6 0.000000 0.000000 0.000000 0.000000 0.000000 0.041725
#
#
# Mechanical properties :
#
#
# Convention : Reuss Voigt Hill
#
# Bulk Modulus (GPa) = 17.41283 83.39145 50.40214
# Shear Modulus (GPa) = 10.87770 13.93555 12.40662
#
# Velocity S-wave (km/s) = 2.55414 2.89094 2.72774
# Velocity P-wave (km/s) = 4.37506 7.82020 6.33627
#
# Compressibility (1/GPa) = 0.05742893
#
# Stress axis : x y z
#
# Youngs Moduli (GPa) = 5.96032 43.18624 18.47436
#
# Poissons Ratio (x) = 0.31028 1.28664
# Poissons Ratio (y) = 0.04282 0.31382
# Poissons Ratio (z) = 0.41510 0.73360
#
# Static dielectric constant tensor:
#      x y z
#    x 1.534230 0.000000 0.000000 
#    y 0.000000 1.554250 0.000000 
#    z 0.000000 0.000000 1.559740 
# 
# From -- ./inp_files/78254.got.cif
#   From: 2010.05.17/outbox.cif.g08.bks.cpg/sg65_40_cif.got.tgz:78254.got - 2010.06.03 17:01:31.
