data_PCOD9491005
_publ_section_title
;
Structure prediction by ZEFSAII (Michael W. Deem and Ramdas Pophale) SiO2 
 PCOD9491005
Probable space group: C M M M
;
_chemical_formula_sum "Si O2"
_cell_formula_units_Z 68
_cell_length_a 7.836130
_cell_length_b 21.120284
_cell_length_c 19.787881
_cell_angle_alpha 90.000000
_cell_angle_beta 90.000000
_cell_angle_gamma 90.000000
_cell_volume 3274.919853
_symmetry_space_group_name_H-M "C M M M"
_symmetry_group_IT_number 65
_symmetry_cell_setting 'orthorhombic'
loop_
_space_group_symop_operation_xyz
x,y,z
-x,-y,z
x,-y,-z
-x,y,-z
-x,-y,-z
x,y,-z
-x,y,z
x,-y,z
1/2+x,1/2+y,z
1/2-x,1/2-y,z
1/2+x,1/2-y,-z
1/2-x,1/2+y,-z
1/2-x,1/2-y,-z
1/2+x,1/2+y,-z
1/2-x,1/2+y,z
1/2+x,1/2-y,z
loop_
_atom_site_type_symbol
_atom_site_label
_atom_site_fract_x
_atom_site_fract_y
_atom_site_fract_z
Si Si1 0.293919 0.429761 0.420564
Si Si2 0.689359 0.600470 0.795495
Si Si3 0.704293 0.177503 0.077876
Si Si4 0.804687 0.318693 0.321897
Si Si5 0.000000 0.500000 0.775450
O O1 0.252302 0.424610 0.500000
O O2 0.500000 0.427509 0.414726
O O3 0.237627 0.500000 0.396827
O O4 0.218092 0.373116 0.377806
O O5 0.500000 0.572235 0.788567
O O6 0.713843 0.628802 0.870143
O O7 0.700230 0.658560 0.742848
O O8 0.847179 0.554741 0.778429
O O9 0.500000 0.170519 0.081582
O O10 0.750000 0.250000 0.095280
O O11 0.757862 0.167051 0.000000
O O12 0.750000 0.250000 0.347588
O O13 0.000000 0.314657 0.301289
#
# Coordination Sequence:
#
# PCOD9491005 Si02
#       5
#    16  16  16  16   4
#     4   9  20  40  65  94 128 169 217 267 326 396
#     4  12  25  44  68  96 134 171 220 275 329 391
#     4  10  20  38  65  97 133 172 220 276 331 392
#     4  12  25  42  64  95 131 170 221 275 332 395
#     4  12  26  48  65 100 129 180 220 262 336 396
#
# _framework density 20.763867999999999
#
# number of rings (size 3 to 8) (size 9 to 14) (size 15 to 20)
#    0.000    1.176    2.353    4.588    1.647    2.824 
#    0.000    2.353    0.000    1.412    0.000    0.000 
#    0.000    0.000    0.000    0.000    0.000    0.000 
#
# Total GULP energy -189591.260464 kJ/mol
# GULP energy per Si atom -5576.213543 kJ/mol
# Density = 2.071661 g / cm^3
# Si number density = 20.763868 Si / 1000 Ang^3
#
#
#
# Elastic Constant Matrix: (Units=GPa)
#
#
# Indices 1 2 3 4 5 6 
#
# 1 140.9063 37.4449 12.9375 0.0000 0.0000 0.0000
# 2 37.4449 134.5448 40.3444 0.0000 0.0000 0.0000
# 3 12.9375 40.3444 54.0499 0.0000 0.0000 0.0000
# 4 0.0000 0.0000 0.0000 23.2122 0.0000 0.0000
# 5 0.0000 0.0000 0.0000 0.0000 32.3565 0.0000
# 6 0.0000 0.0000 0.0000 0.0000 0.0000 39.2248
#
#
#
# Elastic Compliance Matrix: (Units=1/GPa)
#
#
# Indices 1 2 3 4 5 6 
#
# 1 0.007668 -0.002040 -0.000312 0.000000 0.000000 0.000000
# 2 -0.002040 0.010119 -0.007064 0.000000 0.000000 0.000000
# 3 -0.000312 -0.007064 0.023849 0.000000 0.000000 0.000000
# 4 0.000000 0.000000 0.000000 0.043081 0.000000 0.000000
# 5 0.000000 0.000000 0.000000 0.000000 0.030906 0.000000
# 6 0.000000 0.000000 0.000000 0.000000 0.000000 0.025494
#
#
# Mechanical properties :
#
#
# Convention : Reuss Voigt Hill
#
# Bulk Modulus (GPa) = 43.85707 56.77273 50.31490
# Shear Modulus (GPa) = 29.84164 34.87700 32.35932
#
# Velocity S-wave (km/s) = 3.79514 4.10286 3.95200
# Velocity P-wave (km/s) = 6.35388 7.06017 6.71632
#
# Compressibility (1/GPa) = 0.02280134
#
# Stress axis : x y z
#
# Youngs Moduli (GPa) = 130.41547 98.82744 41.92992
#
# Poissons Ratio (x) = 0.20164 0.01310
# Poissons Ratio (y) = 0.26609 0.29621
# Poissons Ratio (z) = 0.04074 0.69816
#
# Static dielectric constant tensor:
#      x y z
#    x 1.745620 0.000000 0.000000 
#    y 0.000000 1.724180 0.000000 
#    z 0.000000 0.000000 1.736470 
# 
# From -- ./inp_files/49200.got.cif
#   From: 2010.05.17/outbox.cif.g08.bks.cpg/sg65_25_cif.got.tgz:49200.got - 2010.06.03 17:01:31.
