data_PCOD9491573
_publ_section_title
;
Structure prediction by ZEFSAII (Michael W. Deem and Ramdas Pophale) SiO2 
 PCOD9491573
Probable space group: C M M M
;
_chemical_formula_sum "Si O2"
_cell_formula_units_Z 112
_cell_length_a 15.038101
_cell_length_b 28.793265
_cell_length_c 14.264446
_cell_angle_alpha 90.000000
_cell_angle_beta 90.000000
_cell_angle_gamma 90.000000
_cell_volume 6176.448448
_symmetry_space_group_name_H-M "C M M M"
_symmetry_group_IT_number 65
_symmetry_cell_setting 'orthorhombic'
loop_
_space_group_symop_operation_xyz
x,y,z
-x,-y,z
x,-y,-z
-x,y,-z
-x,-y,-z
x,y,-z
-x,y,z
x,-y,z
1/2+x,1/2+y,z
1/2-x,1/2-y,z
1/2+x,1/2-y,-z
1/2-x,1/2+y,-z
1/2-x,1/2-y,-z
1/2+x,1/2+y,-z
1/2-x,1/2+y,z
1/2+x,1/2-y,z
loop_
_atom_site_type_symbol
_atom_site_label
_atom_site_fract_x
_atom_site_fract_y
_atom_site_fract_z
Si Si1 0.280976 0.447904 0.279085
Si Si2 0.601295 0.624300 0.612077
Si Si3 0.172023 0.639893 0.230299
Si Si4 0.599793 0.431963 0.107068
Si Si5 0.839133 0.172848 0.108744
Si Si6 0.240693 0.304529 0.389008
Si Si7 0.000000 0.344493 0.111054
Si Si8 0.500000 0.733701 0.111620
O O1 0.258848 0.500000 0.310924
O O2 0.352315 0.421023 0.344157
O O3 0.201595 0.411176 0.265044
O O4 0.328489 0.450487 0.178390
O O5 0.598250 0.619616 0.500000
O O6 0.500000 0.630535 0.646686
O O7 0.667477 0.667392 0.632101
O O8 0.251265 0.663314 0.168749
O O9 0.167192 0.672066 0.322515
O O10 0.086684 0.637720 0.164970
O O11 0.500000 0.445067 0.134231
O O12 0.608742 0.376073 0.109587
O O13 0.615231 0.446000 0.000000
O O14 0.908277 0.210929 0.146982
O O15 0.815236 0.183623 0.000000
O O16 0.222355 0.310591 0.500000
O O17 0.250000 0.250000 0.370278
O O18 0.000000 0.288591 0.121067
O O19 0.000000 0.355435 0.000000
O O20 0.500000 0.722117 0.000000
#
# Coordination Sequence:
#
# PCOD9491573 Si02
#       8
#    16  16  16  16  16  16   8   8
#     4  10  21  36  53  75 104 138 183 232 281 339
#     4   9  18  34  56  84 118 152 183 222 281 345
#     4  10  22  38  56  79 105 148 187 232 293 338
#     4   9  16  27  44  68 102 140 172 208 255 313
#     4   9  16  30  51  76 108 144 180 214 265 336
#     4   9  19  37  56  79 114 153 194 232 266 322
#     4  11  24  40  56  81 114 141 185 251 297 337
#     4   9  18  30  50  80 110 142 177 215 265 337
#
# _framework density 18.133398
#
# number of rings (size 3 to 8) (size 9 to 14) (size 15 to 20)
#    0.000    2.571    0.714    0.857    2.000    2.286 
#    2.571    4.286    0.000    0.429    0.000    0.000 
#    0.000    4.571    0.000    0.000    0.000    0.000 
#
# Total GULP energy -312321.070133 kJ/mol
# GULP energy per Si atom -5577.161967 kJ/mol
# Density = 1.809213 g / cm^3
# Si number density = 18.133398 Si / 1000 Ang^3
#
#
#
# Elastic Constant Matrix: (Units=GPa)
#
#
# Indices 1 2 3 4 5 6 
#
# 1 83.4871 25.7266 34.4196 0.0000 0.0000 0.0000
# 2 25.7266 96.0497 35.3285 0.0000 0.0000 0.0000
# 3 34.4196 35.3285 65.3756 0.0000 0.0000 0.0000
# 4 0.0000 0.0000 0.0000 2.4314 0.0000 0.0000
# 5 0.0000 0.0000 0.0000 0.0000 28.0830 0.0000
# 6 0.0000 0.0000 0.0000 0.0000 0.0000 10.5197
#
#
#
# Elastic Compliance Matrix: (Units=1/GPa)
#
#
# Indices 1 2 3 4 5 6 
#
# 1 0.015455 -0.001431 -0.007363 0.000000 0.000000 0.000000
# 2 -0.001431 0.013127 -0.006340 0.000000 0.000000 0.000000
# 3 -0.007363 -0.006340 0.022599 0.000000 0.000000 0.000000
# 4 0.000000 0.000000 0.000000 0.411293 0.000000 0.000000
# 5 0.000000 0.000000 0.000000 0.000000 0.035609 0.000000
# 6 0.000000 0.000000 0.000000 0.000000 0.000000 0.095059
#
#
# Mechanical properties :
#
#
# Convention : Reuss Voigt Hill
#
# Bulk Modulus (GPa) = 47.82113 48.42909 48.12511
# Shear Modulus (GPa) = 7.93172 18.16934 13.05053
#
# Velocity S-wave (km/s) = 2.09370 3.16884 2.68562
# Velocity P-wave (km/s) = 5.68101 6.33671 6.01780
#
# Compressibility (1/GPa) = 0.02091126
#
# Stress axis : x y z
#
# Youngs Moduli (GPa) = 64.70567 76.18150 44.24970
#
# Poissons Ratio (x) = 0.10903 0.32582
# Poissons Ratio (y) = 0.09260 0.28054
# Poissons Ratio (z) = 0.47645 0.48299
#
# Static dielectric constant tensor:
#      x y z
#    x 1.617460 0.000000 0.000000 
#    y 0.000000 1.652120 0.000000 
#    z 0.000000 0.000000 1.653830 
# 
# From -- ./inp_files/41200.got.cif
#   From: 2010.05.17/outbox.cif.g08.bks.cpg/sg65_21_cif.got.tgz:41200.got - 2010.06.03 17:01:31.
