data_PCOD9491205
_publ_section_title
;
Structure prediction by ZEFSAII (Michael W. Deem and Ramdas Pophale) SiO2 
 PCOD9491205
Probable space group: C M M M
;
_chemical_formula_sum "Si O2"
_cell_formula_units_Z 104
_cell_length_a 33.966852
_cell_length_b 25.672387
_cell_length_c 8.524367
_cell_angle_alpha 90.000000
_cell_angle_beta 90.000000
_cell_angle_gamma 90.000000
_cell_volume 7433.334714
_symmetry_space_group_name_H-M "C M M M"
_symmetry_group_IT_number 65
_symmetry_cell_setting 'orthorhombic'
loop_
_space_group_symop_operation_xyz
x,y,z
-x,-y,z
x,-y,-z
-x,y,-z
-x,-y,-z
x,y,-z
-x,y,z
x,-y,z
1/2+x,1/2+y,z
1/2-x,1/2-y,z
1/2+x,1/2-y,-z
1/2-x,1/2+y,-z
1/2-x,1/2-y,-z
1/2+x,1/2+y,-z
1/2-x,1/2+y,z
1/2+x,1/2-y,z
loop_
_atom_site_type_symbol
_atom_site_label
_atom_site_fract_x
_atom_site_fract_y
_atom_site_fract_z
Si Si1 0.312106 0.727742 0.189378
Si Si2 0.619833 0.340540 0.312692
Si Si3 0.454931 0.387680 0.812988
Si Si4 0.768121 0.669995 0.808962
Si Si5 0.755840 0.443240 0.189272
Si Si6 0.333382 0.442811 0.689343
Si Si7 0.047847 0.000000 0.677435
O O1 0.352866 0.706430 0.255123
O O2 0.275540 0.690187 0.237429
O O3 0.299054 0.785723 0.239915
O O4 0.313741 0.726688 0.000000
O O5 0.618961 0.340843 0.500000
O O6 0.575678 0.345454 0.250129
O O7 0.641630 0.393581 0.256820
O O8 0.500000 0.379654 0.757700
O O9 0.441873 0.445441 0.757476
O O10 0.454910 0.387040 0.000000
O O11 0.775006 0.610900 0.755011
O O12 0.768252 0.670167 0.000000
O O13 0.770844 0.500000 0.244715
O O14 0.710199 0.440082 0.239152
O O15 0.757824 0.443318 0.000000
O O16 0.330264 0.440385 0.500000
O O17 0.350118 0.500000 0.730175
O O18 0.063337 0.000000 0.500000
O O19 0.000000 0.000000 0.673566
#
# Coordination Sequence:
#
# PCOD9491205 Si02
#       7
#    16  16  16  16  16  16   8
#     4   9  16  28  43  56  76 105 134 163 197 241
#     4  11  21  30  43  61  79  99 130 168 209 248
#     4  10  21  35  48  61  77 100 132 166 200 246
#     4   8  14  25  41  58  77 104 133 162 200 238
#     4   9  15  24  40  59  76  97 131 169 199 233
#     4   9  18  29  37  50  75 102 125 155 199 245
#     4   9  17  31  49  65  81 101 125 159 207 253
#
# _framework density 13.991028999999999
#
# number of rings (size 3 to 8) (size 9 to 14) (size 15 to 20)
#    0.000    2.692    1.538    2.077    1.077    2.462 
#    0.000    2.308    0.000    0.000    0.000    0.000 
#    0.000    0.000    0.000    0.000    0.000    0.769 
#
# Total GULP energy -289702.640426 kJ/mol
# GULP energy per Si atom -5571.204624 kJ/mol
# Density = 1.395918 g / cm^3
# Si number density = 13.991029 Si / 1000 Ang^3
#
#
#
# Elastic Constant Matrix: (Units=GPa)
#
#
# Indices 1 2 3 4 5 6 
#
# 1 70.9849 47.2937 15.8275 0.0000 0.0000 0.0000
# 2 47.2937 111.4353 14.8621 0.0000 0.0000 0.0000
# 3 15.8275 14.8621 14.2825 0.0000 0.0000 0.0000
# 4 0.0000 0.0000 0.0000 9.2338 0.0000 0.0000
# 5 0.0000 0.0000 0.0000 0.0000 10.8813 0.0000
# 6 0.0000 0.0000 0.0000 0.0000 0.0000 25.4499
#
#
#
# Elastic Compliance Matrix: (Units=1/GPa)
#
#
# Indices 1 2 3 4 5 6 
#
# 1 0.022965 -0.007376 -0.017774 0.000000 0.000000 0.000000
# 2 -0.007376 0.012789 -0.005134 0.000000 0.000000 0.000000
# 3 -0.017774 -0.005134 0.095054 0.000000 0.000000 0.000000
# 4 0.000000 0.000000 0.000000 0.108298 0.000000 0.000000
# 5 0.000000 0.000000 0.000000 0.000000 0.091901 0.000000
# 6 0.000000 0.000000 0.000000 0.000000 0.000000 0.039293
#
#
# Mechanical properties :
#
#
# Convention : Reuss Voigt Hill
#
# Bulk Modulus (GPa) = 14.23677 39.18548 26.71112
# Shear Modulus (GPa) = 11.00642 17.02762 14.01702
#
# Velocity S-wave (km/s) = 2.80782 3.49239 3.16865
# Velocity P-wave (km/s) = 4.55077 6.65814 5.70264
#
# Compressibility (1/GPa) = 0.07024065
#
# Stress axis : x y z
#
# Youngs Moduli (GPa) = 43.54519 78.19272 10.52030
#
# Poissons Ratio (x) = 0.57674 0.18698
# Poissons Ratio (y) = 0.32118 0.05401
# Poissons Ratio (z) = 0.77396 0.40145
#
# Static dielectric constant tensor:
#      x y z
#    x 1.456780 0.000000 0.000000 
#    y 0.000000 1.489840 0.000000 
#    z 0.000000 0.000000 1.470930 
# 
# From -- ./inp_files/16968.got.cif
#   From: 2010.05.17/outbox.cif.g08.bks.cpg/sg65_9_cif.got.tgz:16968.got - 2010.06.03 17:01:31.
