data_PCOD9491509
_publ_section_title
;
Structure prediction by ZEFSAII (Michael W. Deem and Ramdas Pophale) SiO2 
 PCOD9491509
Probable space group: C M M M
;
_chemical_formula_sum "Si O2"
_cell_formula_units_Z 88
_cell_length_a 18.629548
_cell_length_b 7.601239
_cell_length_c 30.253137
_cell_angle_alpha 90.000000
_cell_angle_beta 90.000000
_cell_angle_gamma 90.000000
_cell_volume 4284.075539
_symmetry_space_group_name_H-M "C M M M"
_symmetry_group_IT_number 65
_symmetry_cell_setting 'orthorhombic'
loop_
_space_group_symop_operation_xyz
x,y,z
-x,-y,z
x,-y,-z
-x,y,-z
-x,-y,-z
x,y,-z
-x,y,z
x,-y,z
1/2+x,1/2+y,z
1/2-x,1/2-y,z
1/2+x,1/2-y,-z
1/2-x,1/2+y,-z
1/2-x,1/2-y,-z
1/2+x,1/2+y,-z
1/2-x,1/2+y,z
1/2+x,1/2-y,z
loop_
_atom_site_type_symbol
_atom_site_label
_atom_site_fract_x
_atom_site_fract_y
_atom_site_fract_z
Si Si1 0.413723 0.288526 0.452535
Si Si2 0.664840 0.210855 0.000000
Si Si3 0.080701 0.290495 0.818700
Si Si4 0.834685 0.288078 0.096145
Si Si5 0.666211 0.708492 0.269982
Si Si6 0.916152 0.215350 0.356237
O O1 0.386357 0.219823 0.500000
O O2 0.500000 0.260572 0.452178
O O3 0.403183 0.500000 0.453066
O O4 0.388491 0.224291 0.404557
O O5 0.750000 0.250000 0.000000
O O6 0.639204 0.277466 0.952154
O O7 0.654682 0.000000 0.000000
O O8 0.075322 0.500000 0.825165
O O9 0.121861 0.219310 0.861787
O O10 0.125640 0.265670 0.774193
O O11 0.000000 0.219643 0.814210
O O12 0.841283 0.500000 0.095384
O O13 0.750000 0.250000 0.100964
O O14 0.658397 0.500000 0.271944
O O15 0.750000 0.750000 0.267913
O O16 0.629425 0.779462 0.314652
O O17 0.000000 0.264481 0.351186
O O18 0.914670 0.000000 0.356954
#
# Coordination Sequence:
#
# PCOD9491509 Si02
#       6
#    16   8  16  16  16  16
#     4   7   9  15  31  57  87 115 143 180 227 274
#     4   8  14  26  45  69  95 123 157 192 227 270
#     4  10  21  36  52  72  99 127 157 197 243 288
#     4   9  17  30  49  72  97 126 159 195 233 274
#     4  11  22  35  51  70  94 126 163 201 241 286
#     4   8  14  25  42  65  91 118 151 192 235 279
#
# _framework density 20.541187000000001
#
# number of rings (size 3 to 8) (size 9 to 14) (size 15 to 20)
#    0.000    3.091    0.000    3.273    0.000    3.273 
#    0.000    0.455    0.000    3.273    0.000    0.000 
#    0.000   10.909    0.000   20.545    0.000   16.909 
#
# Total GULP energy -245172.938080 kJ/mol
# GULP energy per Si atom -5572.112229 kJ/mol
# Density = 2.049443 g / cm^3
# Si number density = 20.541187 Si / 1000 Ang^3
#
#
#
# Elastic Constant Matrix: (Units=GPa)
#
#
# Indices 1 2 3 4 5 6 
#
# 1 98.1538 -0.4036 104.6355 0.0000 0.0000 0.0000
# 2 -0.4036 44.6089 7.2151 0.0000 0.0000 0.0000
# 3 104.6355 7.2151 275.2542 0.0000 0.0000 0.0000
# 4 0.0000 0.0000 0.0000 14.1095 0.0000 0.0000
# 5 0.0000 0.0000 0.0000 0.0000 34.3254 0.0000
# 6 0.0000 0.0000 0.0000 0.0000 0.0000 -7.2165
#
#
#
# Elastic Compliance Matrix: (Units=1/GPa)
#
#
# Indices 1 2 3 4 5 6 
#
# 1 0.017196 0.001218 -0.006569 0.000000 0.000000 0.000000
# 2 0.001218 0.022599 -0.001055 0.000000 0.000000 0.000000
# 3 -0.006569 -0.001055 0.006158 0.000000 0.000000 0.000000
# 4 0.000000 0.000000 0.000000 0.070874 0.000000 0.000000
# 5 0.000000 0.000000 0.000000 0.000000 0.029133 0.000000
# 6 0.000000 0.000000 0.000000 0.000000 0.000000 -0.138572
#
#
# Mechanical properties :
#
#
# Convention : Reuss Voigt Hill
#
# Bulk Modulus (GPa) = 30.17509 71.21231 50.69370
# Shear Modulus (GPa) = 160.02053 28.68169 94.35111
#
# Velocity S-wave (km/s) = 8.83580 3.74077 6.78472
# Velocity P-wave (km/s) = 10.90033 7.30761 9.27950
#
# Compressibility (1/GPa) = 0.03313991
#
# Stress axis : x y z
#
# Youngs Moduli (GPa) = 58.15466 44.25017 162.39864
#
# Poissons Ratio (x) = -0.05390 1.06674
# Poissons Ratio (y) = -0.07083 0.17139
# Poissons Ratio (z) = 0.38200 0.04670
#
# Static dielectric constant tensor:
#      x y z
#    x 1.676560 0.000000 0.000000 
#    y 0.000000 1.797480 0.000000 
#    z 0.000000 0.000000 1.797420 
# 
# From -- ./inp_files/77827.got.cif
#   From: 2010.05.17/outbox.cif.g08.bks.cpg/sg65_39_cif.got.tgz:77827.got - 2010.06.03 17:01:31.
