data_PCOD9491283
_publ_section_title
;
Structure prediction by ZEFSAII (Michael W. Deem and Ramdas Pophale) SiO2 
 PCOD9491283
Probable space group: C M M M
;
_chemical_formula_sum "Si O2"
_cell_formula_units_Z 88
_cell_length_a 20.646138
_cell_length_b 8.260487
_cell_length_c 30.235353
_cell_angle_alpha 90.000000
_cell_angle_beta 90.000000
_cell_angle_gamma 90.000000
_cell_volume 5156.553421
_symmetry_space_group_name_H-M "C M M M"
_symmetry_group_IT_number 65
_symmetry_cell_setting 'orthorhombic'
loop_
_space_group_symop_operation_xyz
x,y,z
-x,-y,z
x,-y,-z
-x,y,-z
-x,-y,-z
x,y,-z
-x,y,z
x,-y,z
1/2+x,1/2+y,z
1/2-x,1/2-y,z
1/2+x,1/2-y,-z
1/2-x,1/2+y,-z
1/2-x,1/2-y,-z
1/2+x,1/2+y,-z
1/2-x,1/2+y,z
1/2+x,1/2-y,z
loop_
_atom_site_type_symbol
_atom_site_label
_atom_site_fract_x
_atom_site_fract_y
_atom_site_fract_z
Si Si1 0.321812 0.306798 0.379169
Si Si2 0.678179 0.693075 0.278745
Si Si3 0.921332 0.313469 0.107052
Si Si4 0.078974 0.000000 0.948701
Si Si5 0.926230 0.695225 0.550109
Si Si6 0.573485 0.194316 0.208256
O O1 0.321923 0.500000 0.377908
O O2 0.250000 0.250000 0.392251
O O3 0.334021 0.245504 0.328955
O O4 0.375539 0.251253 0.413629
O O5 0.678573 0.500000 0.280200
O O6 0.750000 0.750000 0.265541
O O7 0.623663 0.746919 0.244589
O O8 0.899596 0.500000 0.097595
O O9 0.905618 0.268776 0.157889
O O10 0.000000 0.318922 0.104958
O O11 0.899843 0.166587 0.075459
O O12 0.000000 0.000000 0.946987
O O13 0.098073 0.000000 0.000000
O O14 0.909777 0.748960 0.500000
O O15 0.926443 0.500000 0.549851
O O16 0.000000 0.748906 0.559736
O O17 0.500000 0.256912 0.215165
O O18 0.570567 0.000000 0.210522
#
# Coordination Sequence:
#
# PCOD9491283 Si02
#       6
#    16  16  16   8  16  16
#     4  10  21  36  53  74 100 131 167 203 249 301
#     4  10  21  35  51  72 100 133 165 207 253 297
#     4   8  15  27  41  61  92 128 165 207 252 300
#     4   9  16  24  38  62  92 130 170 206 252 306
#     4   9  19  36  56  77 101 130 164 203 248 296
#     4   9  18  32  50  72  98 132 170 206 250 302
#
# _framework density 17.065662
#
# number of rings (size 3 to 8) (size 9 to 14) (size 15 to 20)
#    0.000    2.818    0.000    2.727    1.273    4.727 
#    0.000    6.364    0.000    0.000    0.000    0.000 
#    0.000    0.727    0.364    0.000    0.000    0.000 
#
# Total GULP energy -245151.198853 kJ/mol
# GULP energy per Si atom -5571.618156 kJ/mol
# Density = 1.702682 g / cm^3
# Si number density = 17.065662 Si / 1000 Ang^3
#
#
#
# Elastic Constant Matrix: (Units=GPa)
#
#
# Indices 1 2 3 4 5 6 
#
# 1 84.1319 38.2499 92.2311 0.0000 0.0000 0.0000
# 2 38.2499 55.4545 59.9383 0.0000 0.0000 0.0000
# 3 92.2311 59.9383 137.1405 0.0000 0.0000 0.0000
# 4 0.0000 0.0000 0.0000 27.9406 0.0000 0.0000
# 5 0.0000 0.0000 0.0000 0.0000 -10.7708 0.0000
# 6 0.0000 0.0000 0.0000 0.0000 0.0000 25.3630
#
#
#
# Elastic Compliance Matrix: (Units=1/GPa)
#
#
# Indices 1 2 3 4 5 6 
#
# 1 0.045540 0.003207 -0.032029 0.000000 0.000000 0.000000
# 2 0.003207 0.034405 -0.017194 0.000000 0.000000 0.000000
# 3 -0.032029 -0.017194 0.036347 0.000000 0.000000 0.000000
# 4 0.000000 0.000000 0.000000 0.035790 0.000000 0.000000
# 5 0.000000 0.000000 0.000000 0.000000 -0.092844 0.000000
# 6 0.000000 0.000000 0.000000 0.000000 0.000000 0.039428
#
#
# Mechanical properties :
#
#
# Convention : Reuss Voigt Hill
#
# Bulk Modulus (GPa) = 41.21891 73.06285 57.14088
# Shear Modulus (GPa) = 25.15301 14.26039 19.70670
#
# Velocity S-wave (km/s) = 3.84330 2.89384 3.40186
# Velocity P-wave (km/s) = 6.62572 7.35333 6.99899
#
# Compressibility (1/GPa) = 0.02426071
#
# Stress axis : x y z
#
# Youngs Moduli (GPa) = 21.95862 29.06591 27.51278
#
# Poissons Ratio (x) = -0.09322 0.88120
# Poissons Ratio (y) = -0.07042 0.47304
# Poissons Ratio (z) = 0.70331 0.49975
#
# Static dielectric constant tensor:
#      x y z
#    x 1.539860 0.000000 0.000000 
#    y 0.000000 1.597860 0.000000 
#    z 0.000000 0.000000 1.587620 
# 
# From -- ./inp_files/67457.got.cif
#   From: 2010.05.17/outbox.cif.g08.bks.cpg/sg65_34_cif.got.tgz:67457.got - 2010.06.03 17:01:31.
