data_PCOD9491653
_publ_section_title
;
Structure prediction by ZEFSAII (Michael W. Deem and Ramdas Pophale) SiO2 
 PCOD9491653
Probable space group: C M M M
;
_chemical_formula_sum "Si O2"
_cell_formula_units_Z 72
_cell_length_a 9.851441
_cell_length_b 28.561165
_cell_length_c 14.778086
_cell_angle_alpha 90.000000
_cell_angle_beta 90.000000
_cell_angle_gamma 90.000000
_cell_volume 4158.089840
_symmetry_space_group_name_H-M "C M M M"
_symmetry_group_IT_number 65
_symmetry_cell_setting 'orthorhombic'
loop_
_space_group_symop_operation_xyz
x,y,z
-x,-y,z
x,-y,-z
-x,y,-z
-x,-y,-z
x,y,-z
-x,y,z
x,-y,z
1/2+x,1/2+y,z
1/2-x,1/2-y,z
1/2+x,1/2-y,-z
1/2-x,1/2+y,-z
1/2-x,1/2-y,-z
1/2+x,1/2+y,-z
1/2-x,1/2+y,z
1/2+x,1/2-y,z
loop_
_atom_site_type_symbol
_atom_site_label
_atom_site_fract_x
_atom_site_fract_y
_atom_site_fract_z
Si Si1 0.158654 0.446112 0.169507
Si Si2 0.000000 0.182389 0.889588
Si Si3 0.652412 0.444128 0.000000
Si Si4 0.000000 0.294988 0.108179
Si Si5 0.838170 0.297099 0.398727
Si Si6 0.766310 0.348168 0.782318
O O1 0.185971 0.500000 0.199094
O O2 0.256288 0.433972 0.086143
O O3 0.190096 0.402201 0.232461
O O4 0.000000 0.444632 0.143132
O O5 0.000000 0.239004 0.874973
O O6 0.127748 0.159981 0.837378
O O7 0.000000 0.176668 0.000000
O O8 0.638361 0.500000 0.000000
O O9 0.500000 0.424532 0.000000
O O10 0.873430 0.320415 0.154822
O O11 0.000000 0.302105 0.000000
O O12 0.828028 0.318239 0.500000
O O13 0.750000 0.250000 0.400481
O O14 0.774850 0.325958 0.316716
O O15 0.000000 0.288996 0.381594
#
# Coordination Sequence:
#
# PCOD9491653 Si02
#       6
#    16   8   8   8  16  16
#     4  10  21  36  54  77 108 147 193 239 282 336
#     4  11  26  40  54  82 120 155 196 236 280 344
#     4   9  19  33  51  75 106 141 186 242 288 326
#     4  11  22  38  56  78 114 153 192 230 274 344
#     4  10  21  38  61  88 116 146 187 241 294 342
#     4  12  23  37  59  84 111 156 193 235 287 341
#
# _framework density 17.315643000000001
#
# number of rings (size 3 to 8) (size 9 to 14) (size 15 to 20)
#    0.000    1.444    2.222    3.000    6.222    3.111 
#    0.000    0.000    0.000    0.667    0.000    3.111 
#    0.000    1.778    0.000    0.000    0.000    0.000 
#
# Total GULP energy -200625.399068 kJ/mol
# GULP energy per Si atom -5572.927752 kJ/mol
# Density = 1.727623 g / cm^3
# Si number density = 17.315643 Si / 1000 Ang^3
#
#
#
# Elastic Constant Matrix: (Units=GPa)
#
#
# Indices 1 2 3 4 5 6 
#
# 1 133.8160 38.2356 45.7811 0.0000 0.0000 0.0000
# 2 38.2356 123.9039 50.8680 0.0000 0.0000 0.0000
# 3 45.7811 50.8680 114.4707 0.0000 0.0000 0.0000
# 4 0.0000 0.0000 0.0000 5.7426 0.0000 0.0000
# 5 0.0000 0.0000 0.0000 0.0000 16.1810 0.0000
# 6 0.0000 0.0000 0.0000 0.0000 0.0000 19.0713
#
#
#
# Elastic Compliance Matrix: (Units=1/GPa)
#
#
# Indices 1 2 3 4 5 6 
#
# 1 0.008901 -0.001572 -0.002861 0.000000 0.000000 0.000000
# 2 -0.001572 0.010149 -0.003881 0.000000 0.000000 0.000000
# 3 -0.002861 -0.003881 0.011605 0.000000 0.000000 0.000000
# 4 0.000000 0.000000 0.000000 0.174138 0.000000 0.000000
# 5 0.000000 0.000000 0.000000 0.000000 0.061801 0.000000
# 6 0.000000 0.000000 0.000000 0.000000 0.000000 0.052435
#
#
# Mechanical properties :
#
#
# Convention : Reuss Voigt Hill
#
# Bulk Modulus (GPa) = 71.29668 71.32888 71.31278
# Shear Modulus (GPa) = 14.69145 24.01937 19.35541
#
# Velocity S-wave (km/s) = 2.91598 3.72849 3.34698
# Velocity P-wave (km/s) = 7.25268 7.73422 7.49732
#
# Compressibility (1/GPa) = 0.01402590
#
# Stress axis : x y z
#
# Youngs Moduli (GPa) = 112.34644 98.52799 86.16985
#
# Poissons Ratio (x) = 0.15490 0.24655
# Poissons Ratio (y) = 0.17662 0.33446
# Poissons Ratio (z) = 0.32145 0.38243
#
# Static dielectric constant tensor:
#      x y z
#    x 1.620950 0.000000 0.000000 
#    y 0.000000 1.617120 0.000000 
#    z 0.000000 0.000000 1.551530 
# 
# From -- ./inp_files/36637.got.cif
#   From: 2010.05.17/outbox.cif.g08.bks.cpg/sg65_19_cif.got.tgz:36637.got - 2010.06.03 17:01:31.
