data_PCOD9491482
_publ_section_title
;
Structure prediction by ZEFSAII (Michael W. Deem and Ramdas Pophale) SiO2 
 PCOD9491482
Probable space group: C M M M
;
_chemical_formula_sum "Si O2"
_cell_formula_units_Z 72
_cell_length_a 8.188389
_cell_length_b 19.093243
_cell_length_c 25.899249
_cell_angle_alpha 90.000000
_cell_angle_beta 90.000000
_cell_angle_gamma 90.000000
_cell_volume 4049.163721
_symmetry_space_group_name_H-M "C M M M"
_symmetry_group_IT_number 65
_symmetry_cell_setting 'orthorhombic'
loop_
_space_group_symop_operation_xyz
x,y,z
-x,-y,z
x,-y,-z
-x,y,-z
-x,-y,-z
x,y,-z
-x,y,z
x,-y,z
1/2+x,1/2+y,z
1/2-x,1/2-y,z
1/2+x,1/2-y,-z
1/2-x,1/2+y,-z
1/2-x,1/2-y,-z
1/2+x,1/2+y,-z
1/2-x,1/2+y,z
1/2+x,1/2-y,z
loop_
_atom_site_type_symbol
_atom_site_label
_atom_site_fract_x
_atom_site_fract_y
_atom_site_fract_z
Si Si1 0.195261 0.330216 0.442916
Si Si2 0.690347 0.414751 0.233526
Si Si3 0.803361 0.920194 0.653996
Si Si4 0.180917 0.585398 0.876587
Si Si5 0.500000 0.414523 0.940292
O O1 0.252810 0.354524 0.500000
O O2 0.250000 0.250000 0.437209
O O3 0.257651 0.375067 0.395219
O O4 0.000000 0.332710 0.442691
O O5 0.500000 0.394657 0.226845
O O6 0.692948 0.500000 0.235332
O O7 0.752727 0.391941 0.289923
O O8 0.788341 0.393202 0.182853
O O9 0.000000 0.922722 0.657843
O O10 0.743436 0.000000 0.647555
O O11 0.182801 0.500000 0.877340
O O12 0.334975 0.608199 0.910938
O O13 0.000000 0.607591 0.893938
O O14 0.500000 0.500000 0.938897
O O15 0.500000 0.393329 0.000000
#
# Coordination Sequence:
#
# PCOD9491482 Si02
#       5
#    16  16  16  16   8
#     4  10  21  36  52  68  90 123 160 197 236 286
#     4   8  13  24  40  57  81 109 137 176 226 275
#     4   9  18  31  49  73  97 121 151 193 240 286
#     4   9  15  22  34  50  69 100 140 181 226 273
#     4   9  16  24  32  44  68 102 141 187 227 263
#
# _framework density 17.781451000000001
#
# number of rings (size 3 to 8) (size 9 to 14) (size 15 to 20)
#    0.000    3.000    1.111    2.000    0.000    3.556 
#    0.000    6.667    0.000    0.000    0.000    0.000 
#    0.000    0.000    0.000    0.000    0.000    1.111 
#
# Total GULP energy -200461.992602 kJ/mol
# GULP energy per Si atom -5568.388683 kJ/mol
# Density = 1.774098 g / cm^3
# Si number density = 17.781451 Si / 1000 Ang^3
#
#
#
# Elastic Constant Matrix: (Units=GPa)
#
#
# Indices 1 2 3 4 5 6 
#
# 1 91.8853 11.2424 70.3504 0.0000 0.0000 0.0000
# 2 11.2424 9.5096 29.9488 0.0000 0.0000 0.0000
# 3 70.3504 29.9488 170.3162 0.0000 0.0000 0.0000
# 4 0.0000 0.0000 0.0000 -6.7672 0.0000 0.0000
# 5 0.0000 0.0000 0.0000 0.0000 14.2935 0.0000
# 6 0.0000 0.0000 0.0000 0.0000 0.0000 12.4244
#
#
#
# Elastic Compliance Matrix: (Units=1/GPa)
#
#
# Indices 1 2 3 4 5 6 
#
# 1 0.015993 0.004252 -0.007354 0.000000 0.000000 0.000000
# 2 0.004252 0.236795 -0.043395 0.000000 0.000000 0.000000
# 3 -0.007354 -0.043395 0.016540 0.000000 0.000000 0.000000
# 4 0.000000 0.000000 0.000000 -0.147771 0.000000 0.000000
# 5 0.000000 0.000000 0.000000 0.000000 0.069962 0.000000
# 6 0.000000 0.000000 0.000000 0.000000 0.000000 0.080487
#
#
# Mechanical properties :
#
#
# Convention : Reuss Voigt Hill
#
# Bulk Modulus (GPa) = 5.67104 54.97716 30.32410
# Shear Modulus (GPa) = 11.79865 14.66809 13.23337
#
# Velocity S-wave (km/s) = 2.57872 2.87524 2.73101
# Velocity P-wave (km/s) = 3.47312 6.48136 5.19955
#
# Compressibility (1/GPa) = 0.17633458
#
# Stress axis : x y z
#
# Youngs Moduli (GPa) = 62.52658 4.22306 60.46076
#
# Poissons Ratio (x) = -0.01796 0.44462
# Poissons Ratio (y) = -0.26587 2.62369
# Poissons Ratio (z) = 0.45981 0.18326
#
# Static dielectric constant tensor:
#      x y z
#    x 1.632430 0.000000 0.000000 
#    y 0.000000 1.563950 0.000000 
#    z 0.000000 0.000000 1.635700 
# 
# From -- ./inp_files/59526.got.cif
#   From: 2010.05.17/outbox.cif.g08.bks.cpg/sg65_30_cif.got.tgz:59526.got - 2010.06.03 17:01:31.
