data_PCOD9491416
_publ_section_title
;
Structure prediction by ZEFSAII (Michael W. Deem and Ramdas Pophale) SiO2 
 PCOD9491416
Probable space group: C M M M
;
_chemical_formula_sum "Si O2"
_cell_formula_units_Z 108
_cell_length_a 24.449891
_cell_length_b 15.101851
_cell_length_c 14.726321
_cell_angle_alpha 90.000000
_cell_angle_beta 90.000000
_cell_angle_gamma 90.000000
_cell_volume 5437.526309
_symmetry_space_group_name_H-M "C M M M"
_symmetry_group_IT_number 65
_symmetry_cell_setting 'orthorhombic'
loop_
_space_group_symop_operation_xyz
x,y,z
-x,-y,z
x,-y,-z
-x,y,-z
-x,-y,-z
x,y,-z
-x,y,z
x,-y,z
1/2+x,1/2+y,z
1/2-x,1/2-y,z
1/2+x,1/2-y,-z
1/2-x,1/2+y,-z
1/2-x,1/2-y,-z
1/2+x,1/2+y,-z
1/2-x,1/2+y,z
1/2+x,1/2-y,z
loop_
_atom_site_type_symbol
_atom_site_label
_atom_site_fract_x
_atom_site_fract_y
_atom_site_fract_z
Si Si1 0.739690 0.397147 0.256823
Si Si2 0.348773 0.394075 0.397688
Si Si3 0.166869 0.649740 0.857596
Si Si4 0.062632 0.152092 0.249707
Si Si5 0.697713 0.000000 0.000000
Si Si6 0.562273 0.864618 0.754662
Si Si7 0.652230 0.645161 0.895992
Si Si8 0.566033 0.000000 0.398370
O O1 0.753923 0.500000 0.273396
O O2 0.703745 0.361808 0.340556
O O3 0.794359 0.345314 0.230751
O O4 0.699057 0.392546 0.169699
O O5 0.353123 0.358761 0.500000
O O6 0.342490 0.500000 0.402946
O O7 0.402026 0.378301 0.335774
O O8 0.193911 0.578246 0.922410
O O9 0.106853 0.615313 0.830873
O O10 0.161115 0.748409 0.896290
O O11 0.062599 0.258943 0.255060
O O12 0.095734 0.127102 0.158063
O O13 0.000000 0.121106 0.249813
O O14 0.500000 0.891613 0.776977
O O15 0.579389 0.914712 0.662797
O O16 0.654085 0.613234 0.000000
O O17 0.500000 0.000000 0.406064
O O18 0.588931 0.000000 0.500000
#
# Coordination Sequence:
#
# PCOD9491416 Si02
#       8
#    16  16  16  16   4  16  16   8
#     4  10  21  35  55  78 107 141 178 225 272 323
#     4   9  19  37  58  82 110 140 175 220 272 324
#     4  11  21  35  53  77 109 137 183 226 269 317
#     4   9  19  35  55  81 109 141 178 215 263 321
#     4  12  22  32  53  84 104 138 185 236 264 318
#     4   9  19  36  54  72 105 145 175 216 271 318
#     4  10  21  35  54  78 107 145 180 220 269 318
#     4   9  17  30  49  71  95 129 173 214 253 303
#
# _framework density 19.861972000000002
#
# number of rings (size 3 to 8) (size 9 to 14) (size 15 to 20)
#    0.000    2.296    1.481    0.889    1.037    2.370 
#    0.000    3.704    0.000   11.556    0.000    4.148 
#    0.000    0.000    0.000    0.000    0.000    0.000 
#
# Total GULP energy -300711.657110 kJ/mol
# GULP energy per Si atom -5568.734391 kJ/mol
# Density = 1.981676 g / cm^3
# Si number density = 19.861972 Si / 1000 Ang^3
#
#
#
# Elastic Constant Matrix: (Units=GPa)
#
#
# Indices 1 2 3 4 5 6 
#
# 1 91.1849 -1.5624 25.8868 0.0000 0.0000 0.0000
# 2 -1.5624 31.7680 1.6523 0.0000 0.0000 0.0000
# 3 25.8868 1.6523 95.5159 0.0000 0.0000 0.0000
# 4 0.0000 0.0000 0.0000 23.8836 0.0000 0.0000
# 5 0.0000 0.0000 0.0000 0.0000 -8.3874 0.0000
# 6 0.0000 0.0000 0.0000 0.0000 0.0000 91.2235
#
#
#
# Elastic Compliance Matrix: (Units=1/GPa)
#
#
# Indices 1 2 3 4 5 6 
#
# 1 0.011899 0.000754 -0.003238 0.000000 0.000000 0.000000
# 2 0.000754 0.031554 -0.000750 0.000000 0.000000 0.000000
# 3 -0.003238 -0.000750 0.011360 0.000000 0.000000 0.000000
# 4 0.000000 0.000000 0.000000 0.041870 0.000000 0.000000
# 5 0.000000 0.000000 0.000000 0.000000 -0.119227 0.000000
# 6 0.000000 0.000000 0.000000 0.000000 0.000000 0.010962
#
#
# Mechanical properties :
#
#
# Convention : Reuss Voigt Hill
#
# Bulk Modulus (GPa) = 20.68491 30.04690 25.36590
# Shear Modulus (GPa) = 454.46881 34.17676 244.32278
#
# Velocity S-wave (km/s) = 15.14299 4.15265 11.10303
# Velocity P-wave (km/s) = 17.78156 6.17684 13.31047
#
# Compressibility (1/GPa) = 0.04834443
#
# Stress axis : x y z
#
# Youngs Moduli (GPa) = 84.04171 31.69138 88.02845
#
# Poissons Ratio (x) = -0.02388 0.28502
# Poissons Ratio (y) = -0.06333 0.06603
# Poissons Ratio (z) = 0.27212 0.02377
#
# Static dielectric constant tensor:
#      x y z
#    x 1.713480 0.000000 0.000000 
#    y 0.000000 1.719180 0.000000 
#    z 0.000000 0.000000 1.717470 
# 
# From -- ./inp_files/45817.got.cif
#   From: 2010.05.17/outbox.cif.g08.bks.cpg/sg65_23_cif.got.tgz:45817.got - 2010.06.03 17:01:31.
