data_PCOD9491594
_publ_section_title
;
Structure prediction by ZEFSAII (Michael W. Deem and Ramdas Pophale) SiO2 
 PCOD9491594
Probable space group: C M M M
;
_chemical_formula_sum "Si O2"
_cell_formula_units_Z 56
_cell_length_a 18.639971
_cell_length_b 13.377247
_cell_length_c 12.826646
_cell_angle_alpha 90.000000
_cell_angle_beta 90.000000
_cell_angle_gamma 90.000000
_cell_volume 3198.343371
_symmetry_space_group_name_H-M "C M M M"
_symmetry_group_IT_number 65
_symmetry_cell_setting 'orthorhombic'
loop_
_space_group_symop_operation_xyz
x,y,z
-x,-y,z
x,-y,-z
-x,y,-z
-x,-y,-z
x,y,-z
-x,y,z
x,-y,z
1/2+x,1/2+y,z
1/2-x,1/2-y,z
1/2+x,1/2-y,-z
1/2-x,1/2+y,-z
1/2-x,1/2-y,-z
1/2+x,1/2+y,-z
1/2-x,1/2+y,z
1/2+x,1/2-y,z
loop_
_atom_site_type_symbol
_atom_site_label
_atom_site_fract_x
_atom_site_fract_y
_atom_site_fract_z
Si Si1 0.586049 0.114376 0.123690
Si Si2 0.500000 0.381701 0.625299
Si Si3 0.138583 0.234384 0.292631
Si Si4 0.262269 0.884641 0.382266
O O1 0.500000 0.121739 0.140970
O O2 0.623581 0.202493 0.188239
O O3 0.607258 0.000000 0.153790
O O4 0.598618 0.124380 0.000000
O O5 0.500000 0.500000 0.651709
O O6 0.500000 0.374182 0.500000
O O7 0.569252 0.325703 0.670939
O O8 0.205010 0.157116 0.299190
O O9 0.166039 0.320010 0.371831
O O10 0.232383 0.872562 0.500000
O O11 0.276343 0.000000 0.365722
#
# Coordination Sequence:
#
# PCOD9491594 Si02
#       4
#    16   8  16  16
#     4   9  18  34  56  81 108 139 176 220 274 327
#     4  11  22  34  52  81 112 140 176 221 268 320
#     4  11  19  34  56  79 105 141 183 222 263 315
#     4  10  21  36  53  76 111 152 185 215 261 321
#
# _framework density 17.509065
#
# number of rings (size 3 to 8) (size 9 to 14) (size 15 to 20)
#    0.000    1.857    1.429    6.000    0.000    2.286 
#    0.000    2.857    0.000    9.429    0.000    0.000 
#    0.000    0.000    0.000    0.000    0.000    0.000 
#
# Total GULP energy -156002.754747 kJ/mol
# GULP energy per Si atom -5571.526955 kJ/mol
# Density = 1.746921 g / cm^3
# Si number density = 17.509065 Si / 1000 Ang^3
#
#
#
# Elastic Constant Matrix: (Units=GPa)
#
#
# Indices 1 2 3 4 5 6 
#
# 1 83.9638 55.7181 26.2640 0.0000 0.0000 0.0000
# 2 55.7181 162.0444 44.7497 0.0000 0.0000 0.0000
# 3 26.2640 44.7497 68.7590 0.0000 0.0000 0.0000
# 4 0.0000 0.0000 0.0000 37.8219 0.0000 0.0000
# 5 0.0000 0.0000 0.0000 0.0000 25.6084 0.0000
# 6 0.0000 0.0000 0.0000 0.0000 0.0000 23.2649
#
#
#
# Elastic Compliance Matrix: (Units=1/GPa)
#
#
# Indices 1 2 3 4 5 6 
#
# 1 0.015947 -0.004634 -0.003075 0.000000 0.000000 0.000000
# 2 -0.004634 0.008870 -0.004003 0.000000 0.000000 0.000000
# 3 -0.003075 -0.004003 0.018323 0.000000 0.000000 0.000000
# 4 0.000000 0.000000 0.000000 0.026440 0.000000 0.000000
# 5 0.000000 0.000000 0.000000 0.000000 0.039050 0.000000
# 6 0.000000 0.000000 0.000000 0.000000 0.000000 0.042983
#
#
# Mechanical properties :
#
#
# Convention : Reuss Voigt Hill
#
# Bulk Modulus (GPa) = 50.72008 63.13677 56.92843
# Shear Modulus (GPa) = 27.53172 29.87475 28.70323
#
# Velocity S-wave (km/s) = 3.96969 4.13515 4.05326
# Velocity P-wave (km/s) = 7.07404 7.67705 7.38170
#
# Compressibility (1/GPa) = 0.01971606
#
# Stress axis : x y z
#
# Youngs Moduli (GPa) = 62.70773 112.74105 54.57542
#
# Poissons Ratio (x) = 0.52244 0.16784
# Poissons Ratio (y) = 0.29059 0.21845
# Poissons Ratio (z) = 0.19285 0.45126
#
# Static dielectric constant tensor:
#      x y z
#    x 1.615460 0.000000 0.000000 
#    y 0.000000 1.604420 0.000000 
#    z 0.000000 0.000000 1.591370 
# 
# From -- ./inp_files/23761.got.cif
#   From: 2010.05.17/outbox.cif.g08.bks.cpg/sg65_12_cif.got.tgz:23761.got - 2010.06.03 17:01:31.
