data_PCOD9491947
_publ_section_title
;
Structure prediction by ZEFSAII (Michael W. Deem and Ramdas Pophale) SiO2 
 PCOD9491947
Probable space group: C M M M
;
_chemical_formula_sum "Si O2"
_cell_formula_units_Z 72
_cell_length_a 8.250809
_cell_length_b 29.392021
_cell_length_c 16.072115
_cell_angle_alpha 90.000000
_cell_angle_beta 90.000000
_cell_angle_gamma 90.000000
_cell_volume 3897.615683
_symmetry_space_group_name_H-M "C M M M"
_symmetry_group_IT_number 65
_symmetry_cell_setting 'orthorhombic'
loop_
_space_group_symop_operation_xyz
x,y,z
-x,-y,z
x,-y,-z
-x,y,-z
-x,-y,-z
x,y,-z
-x,y,z
x,-y,z
1/2+x,1/2+y,z
1/2-x,1/2-y,z
1/2+x,1/2-y,-z
1/2-x,1/2+y,-z
1/2-x,1/2-y,-z
1/2+x,1/2+y,-z
1/2-x,1/2+y,z
1/2+x,1/2-y,z
loop_
_atom_site_type_symbol
_atom_site_label
_atom_site_fract_x
_atom_site_fract_y
_atom_site_fract_z
Si Si1 0.194980 0.697648 0.595441
Si Si2 0.318545 0.947351 0.304342
Si Si3 0.000000 0.945354 0.410117
Si Si4 0.305857 0.802117 0.093269
Si Si5 0.189797 0.139035 0.246432
O O1 0.243331 0.685188 0.500000
O O2 0.250000 0.750000 0.608732
O O3 0.263793 0.665967 0.668708
O O4 0.000000 0.695687 0.599828
O O5 0.500000 0.943740 0.340707
O O6 0.294036 0.907247 0.238498
O O7 0.170409 0.936247 0.365854
O O8 0.299467 0.000000 0.276439
O O9 0.000000 0.923327 0.500000
O O10 0.000000 0.000000 0.416949
O O11 0.500000 0.804044 0.101527
O O12 0.250000 0.750000 0.099337
O O13 0.226506 0.829733 0.167606
O O14 0.261937 0.818370 0.000000
O O15 0.000000 0.128052 0.248762
#
# Coordination Sequence:
#
# PCOD9491947 Si02
#       5
#    16  16   8  16  16
#     4  10  21  37  55  77 109 148 191 237 284 337
#     4  10  21  38  58  81 112 150 194 244 297 351
#     4   9  18  34  54  78 109 145 189 241 296 348
#     4  10  21  38  60  87 119 151 188 237 292 350
#     4  12  23  36  58  84 114 152 194 238 288 351
#
# _framework density 18.472830999999999
#
# number of rings (size 3 to 8) (size 9 to 14) (size 15 to 20)
#    0.000    1.667    1.111    4.000    0.000    4.000 
#    0.000    2.222    0.000    0.667    0.000    4.667 
#    0.000    0.000    0.000    0.000    0.000    0.000 
#
# Total GULP energy -200793.159629 kJ/mol
# GULP energy per Si atom -5577.587767 kJ/mol
# Density = 1.843079 g / cm^3
# Si number density = 18.472831 Si / 1000 Ang^3
#
#
#
# Elastic Constant Matrix: (Units=GPa)
#
#
# Indices 1 2 3 4 5 6 
#
# 1 112.3187 34.4802 42.3251 0.0000 0.0000 0.0000
# 2 34.4802 93.3771 59.1317 0.0000 0.0000 0.0000
# 3 42.3251 59.1317 101.2051 0.0000 0.0000 0.0000
# 4 0.0000 0.0000 0.0000 6.4152 0.0000 0.0000
# 5 0.0000 0.0000 0.0000 0.0000 -14.2276 0.0000
# 6 0.0000 0.0000 0.0000 0.0000 0.0000 34.1881
#
#
#
# Elastic Compliance Matrix: (Units=1/GPa)
#
#
# Indices 1 2 3 4 5 6 
#
# 1 0.010752 -0.001782 -0.003456 0.000000 0.000000 0.000000
# 2 -0.001782 0.017294 -0.009359 0.000000 0.000000 0.000000
# 3 -0.003456 -0.009359 0.016794 0.000000 0.000000 0.000000
# 4 0.000000 0.000000 0.000000 0.155879 0.000000 0.000000
# 5 0.000000 0.000000 0.000000 0.000000 -0.070286 0.000000
# 6 0.000000 0.000000 0.000000 0.000000 0.000000 0.029250
#
#
# Mechanical properties :
#
#
# Convention : Reuss Voigt Hill
#
# Bulk Modulus (GPa) = 63.90926 64.30835 64.10880
# Shear Modulus (GPa) = 25.76080 16.67274 21.21677
#
# Velocity S-wave (km/s) = 3.73838 3.00751 3.39269
# Velocity P-wave (km/s) = 7.30106 6.85187 7.08003
#
# Compressibility (1/GPa) = 0.01564719
#
# Stress axis : x y z
#
# Youngs Moduli (GPa) = 93.00171 57.82298 59.54356
#
# Poissons Ratio (x) = 0.10305 0.20575
# Poissons Ratio (y) = 0.16575 0.55728
# Poissons Ratio (z) = 0.32137 0.54118
#
# Static dielectric constant tensor:
#      x y z
#    x 1.645520 0.000000 0.000000 
#    y 0.000000 1.649550 0.000000 
#    z 0.000000 0.000000 1.645210 
# 
# From -- ./inp_files/36581.got.cif
#   From: 2010.05.17/outbox.cif.g08.bks.cpg/sg65_19_cif.got.tgz:36581.got - 2010.06.03 17:01:31.
