data_PCOD9491927
_publ_section_title
;
Structure prediction by ZEFSAII (Michael W. Deem and Ramdas Pophale) SiO2 
 PCOD9491927
Probable space group: C M M M
;
_chemical_formula_sum "Si O2"
_cell_formula_units_Z 72
_cell_length_a 8.692025
_cell_length_b 29.491728
_cell_length_c 15.760556
_cell_angle_alpha 90.000000
_cell_angle_beta 90.000000
_cell_angle_gamma 90.000000
_cell_volume 4040.105639
_symmetry_space_group_name_H-M "C M M M"
_symmetry_group_IT_number 65
_symmetry_cell_setting 'orthorhombic'
loop_
_space_group_symop_operation_xyz
x,y,z
-x,-y,z
x,-y,-z
-x,y,-z
-x,-y,-z
x,y,-z
-x,y,z
x,-y,z
1/2+x,1/2+y,z
1/2-x,1/2-y,z
1/2+x,1/2-y,-z
1/2-x,1/2+y,-z
1/2-x,1/2-y,-z
1/2+x,1/2+y,-z
1/2-x,1/2+y,z
1/2+x,1/2-y,z
loop_
_atom_site_type_symbol
_atom_site_label
_atom_site_fract_x
_atom_site_fract_y
_atom_site_fract_z
Si Si1 0.674278 0.554998 0.500000
Si Si2 0.313167 0.552389 0.313947
Si Si3 0.815295 0.199080 0.403215
Si Si4 0.316058 0.699858 0.098160
Si Si5 0.317017 0.859465 0.751665
O O1 0.661884 0.500000 0.500000
O O2 0.500000 0.573913 0.500000
O O3 0.744369 0.565717 0.590994
O O4 0.500000 0.554614 0.315546
O O5 0.271954 0.500000 0.297276
O O6 0.245927 0.589369 0.251561
O O7 0.776870 0.184269 0.500000
O O8 0.750000 0.250000 0.392491
O O9 0.748534 0.167087 0.330479
O O10 0.000000 0.200140 0.395902
O O11 0.500000 0.700674 0.108500
O O12 0.250000 0.750000 0.114252
O O13 0.242849 0.665863 0.164980
O O14 0.281071 0.688280 0.000000
O O15 0.500000 0.858839 0.748743
#
# Coordination Sequence:
#
# PCOD9491927 Si02
#       5
#     8  16  16  16  16
#     4   7  12  26  49  73  96 129 176 227 273 313
#     4   9  18  34  55  78 106 143 189 236 279 324
#     4  10  21  37  55  75 105 145 187 229 271 320
#     4  10  21  39  63  88 113 141 178 225 276 330
#     4  12  24  35  53  81 115 149 182 223 272 332
#
# _framework density 17.821315999999999
#
# number of rings (size 3 to 8) (size 9 to 14) (size 15 to 20)
#    0.000    2.111    0.000    5.333    1.556    3.111 
#    0.000    0.000    0.000    2.667    0.000    4.667 
#    0.000    0.000    0.000    0.000    0.000    0.000 
#
# Total GULP energy -200990.777495 kJ/mol
# GULP energy per Si atom -5583.077153 kJ/mol
# Density = 1.778075 g / cm^3
# Si number density = 17.821316 Si / 1000 Ang^3
#
#
#
# Elastic Constant Matrix: (Units=GPa)
#
#
# Indices 1 2 3 4 5 6 
#
# 1 75.2917 55.9083 55.4204 0.0000 0.0000 0.0000
# 2 55.9083 123.5639 93.0738 0.0000 0.0000 0.0000
# 3 55.4204 93.0738 105.4116 0.0000 0.0000 0.0000
# 4 0.0000 0.0000 0.0000 37.4293 0.0000 0.0000
# 5 0.0000 0.0000 0.0000 0.0000 19.8751 0.0000
# 6 0.0000 0.0000 0.0000 0.0000 0.0000 26.7373
#
#
#
# Elastic Compliance Matrix: (Units=1/GPa)
#
#
# Indices 1 2 3 4 5 6 
#
# 1 0.022233 -0.003747 -0.008381 0.000000 0.000000 0.000000
# 2 -0.003747 0.024795 -0.019923 0.000000 0.000000 0.000000
# 3 -0.008381 -0.019923 0.031484 0.000000 0.000000 0.000000
# 4 0.000000 0.000000 0.000000 0.026717 0.000000 0.000000
# 5 0.000000 0.000000 0.000000 0.000000 0.050314 0.000000
# 6 0.000000 0.000000 0.000000 0.000000 0.000000 0.037401
#
#
# Mechanical properties :
#
#
# Convention : Reuss Voigt Hill
#
# Bulk Modulus (GPa) = 69.39288 79.23023 74.31156
# Shear Modulus (GPa) = 19.09491 23.46597 21.28044
#
# Velocity S-wave (km/s) = 3.27687 3.63262 3.45932
# Velocity P-wave (km/s) = 7.30342 7.88348 7.59898
#
# Compressibility (1/GPa) = 0.01441070
#
# Stress axis : x y z
#
# Youngs Moduli (GPa) = 44.97886 40.32991 31.76197
#
# Poissons Ratio (x) = 0.15111 0.26618
# Poissons Ratio (y) = 0.16853 0.63281
# Poissons Ratio (z) = 0.37695 0.80351
#
# Static dielectric constant tensor:
#      x y z
#    x 1.600930 0.000000 0.000000 
#    y 0.000000 1.608540 0.000000 
#    z 0.000000 0.000000 1.612150 
# 
# From -- ./inp_files/36579.got.cif
#   From: 2010.05.17/outbox.cif.g08.bks.cpg/sg65_19_cif.got.tgz:36579.got - 2010.06.03 17:01:31.
