data_PCOD9491824
_publ_section_title
;
Structure prediction by ZEFSAII (Michael W. Deem and Ramdas Pophale) SiO2 
 PCOD9491824
Probable space group: C M M M
;
_chemical_formula_sum "Si O2"
_cell_formula_units_Z 108
_cell_length_a 14.452039
_cell_length_b 27.312839
_cell_length_c 15.183509
_cell_angle_alpha 90.000000
_cell_angle_beta 90.000000
_cell_angle_gamma 90.000000
_cell_volume 5993.329029
_symmetry_space_group_name_H-M "C M M M"
_symmetry_group_IT_number 65
_symmetry_cell_setting 'orthorhombic'
loop_
_space_group_symop_operation_xyz
x,y,z
-x,-y,z
x,-y,-z
-x,y,-z
-x,-y,-z
x,y,-z
-x,y,z
x,-y,z
1/2+x,1/2+y,z
1/2-x,1/2-y,z
1/2+x,1/2-y,-z
1/2-x,1/2+y,-z
1/2-x,1/2-y,-z
1/2+x,1/2+y,-z
1/2-x,1/2+y,z
1/2+x,1/2-y,z
loop_
_atom_site_type_symbol
_atom_site_label
_atom_site_fract_x
_atom_site_fract_y
_atom_site_fract_z
Si Si1 0.111924 0.944023 0.000000
Si Si2 0.337396 0.777452 0.644760
Si Si3 0.394429 0.941247 0.400322
Si Si4 0.389817 0.737086 0.834645
Si Si5 0.783366 0.379726 0.267197
Si Si6 0.887918 0.342315 0.900122
Si Si7 0.500000 0.784266 0.500000
Si Si8 0.888690 0.126523 0.161790
O O1 0.135455 0.912038 0.914318
O O2 0.000000 0.946899 0.000000
O O3 0.147304 0.000000 0.000000
O O4 0.250000 0.750000 0.604535
O O5 0.365199 0.746619 0.732546
O O6 0.305438 0.830005 0.680609
O O7 0.419813 0.783229 0.577218
O O8 0.370776 0.924686 0.500000
O O9 0.500000 0.923996 0.382700
O O10 0.325882 0.921859 0.327048
O O11 0.395609 0.000000 0.400757
O O12 0.500000 0.737353 0.843599
O O13 0.357601 0.785446 0.886096
O O14 0.361599 0.682595 0.863393
O O15 0.837262 0.373860 0.174305
O O16 0.675287 0.385091 0.245388
O O17 0.000000 0.344489 0.887210
O O18 0.867773 0.357407 0.000000
O O19 0.000000 0.125150 0.176803
#
# Coordination Sequence:
#
# PCOD9491824 Si02
#       8
#     8  16  16  16  16  16   4  16
#     4   9  20  38  58  83 109 139 197 252 292 351
#     4  11  22  38  52  84 115 155 200 238 287 350
#     4   9  20  39  64  91 115 141 184 243 300 354
#     4   9  17  34  53  72 111 149 191 234 274 334
#     4  11  22  34  60  84 115 152 196 243 288 357
#     4   9  19  32  50  81 117 154 189 230 282 342
#     4  12  26  36  60  78 119 164 195 252 300 342
#     4  10  21  36  57  80 111 155 191 244 298 335
#
# _framework density 18.020036000000001
#
# number of rings (size 3 to 8) (size 9 to 14) (size 15 to 20)
#    0.000    2.148    2.222    1.111    5.185    0.593 
#    0.000    0.741    0.000    0.444    0.000    3.111 
#    0.000    0.000    0.000    0.000    0.000    0.000 
#
# Total GULP energy -300695.681409 kJ/mol
# GULP energy per Si atom -5568.438545 kJ/mol
# Density = 1.797902 g / cm^3
# Si number density = 18.020036 Si / 1000 Ang^3
#
#
#
# Elastic Constant Matrix: (Units=GPa)
#
#
# Indices 1 2 3 4 5 6 
#
# 1 99.8850 24.2502 54.0603 0.0000 0.0000 0.0000
# 2 24.2502 66.5096 36.7653 0.0000 0.0000 0.0000
# 3 54.0603 36.7653 101.6007 0.0000 0.0000 0.0000
# 4 0.0000 0.0000 0.0000 24.1968 0.0000 0.0000
# 5 0.0000 0.0000 0.0000 0.0000 -62.2095 0.0000
# 6 0.0000 0.0000 0.0000 0.0000 0.0000 18.9731
#
#
#
# Elastic Compliance Matrix: (Units=1/GPa)
#
#
# Indices 1 2 3 4 5 6 
#
# 1 0.014143 -0.001246 -0.007074 0.000000 0.000000 0.000000
# 2 -0.001246 0.018905 -0.006178 0.000000 0.000000 0.000000
# 3 -0.007074 -0.006178 0.015842 0.000000 0.000000 0.000000
# 4 0.000000 0.000000 0.000000 0.041328 0.000000 0.000000
# 5 0.000000 0.000000 0.000000 0.000000 -0.016075 0.000000
# 6 0.000000 0.000000 0.000000 0.000000 0.000000 0.052706
#
#
# Mechanical properties :
#
#
# Convention : Reuss Voigt Hill
#
# Bulk Modulus (GPa) = 50.26839 55.34963 52.80901
# Shear Modulus (GPa) = 30.77368 6.38672 18.58020
#
# Velocity S-wave (km/s) = 4.13697 1.88466 3.21454
# Velocity P-wave (km/s) = 7.12571 5.95971 6.56864
#
# Compressibility (1/GPa) = 0.01989322
#
# Stress axis : x y z
#
# Youngs Moduli (GPa) = 70.70724 52.89665 63.12292
#
# Poissons Ratio (x) = 0.06591 0.44655
# Poissons Ratio (y) = 0.08811 0.38997
# Poissons Ratio (z) = 0.50020 0.32679
#
# Static dielectric constant tensor:
#      x y z
#    x 1.646440 0.000000 0.000000 
#    y 0.000000 1.638100 0.000000 
#    z 0.000000 0.000000 1.614150 
# 
# From -- ./inp_files/40895.got.cif
#   From: 2010.05.17/outbox.cif.g08.bks.cpg/sg65_21_cif.got.tgz:40895.got - 2010.06.03 17:01:31.
