data_PCOD9491066
_publ_section_title
;
Structure prediction by ZEFSAII (Michael W. Deem and Ramdas Pophale) SiO2 
 PCOD9491066
Probable space group: C M M M
;
_chemical_formula_sum "Si O2"
_cell_formula_units_Z 66
_cell_length_a 9.633139
_cell_length_b 27.528582
_cell_length_c 13.746275
_cell_angle_alpha 90.000000
_cell_angle_beta 90.000000
_cell_angle_gamma 90.000000
_cell_volume 3645.328712
_symmetry_space_group_name_H-M "C M M M"
_symmetry_group_IT_number 65
_symmetry_cell_setting 'orthorhombic'
loop_
_space_group_symop_operation_xyz
x,y,z
-x,-y,z
x,-y,-z
-x,y,-z
-x,-y,-z
x,y,-z
-x,y,z
x,-y,z
1/2+x,1/2+y,z
1/2-x,1/2-y,z
1/2+x,1/2-y,-z
1/2-x,1/2+y,-z
1/2-x,1/2-y,-z
1/2+x,1/2+y,-z
1/2-x,1/2+y,z
1/2+x,1/2-y,z
loop_
_atom_site_type_symbol
_atom_site_label
_atom_site_fract_x
_atom_site_fract_y
_atom_site_fract_z
Si Si1 0.000000 0.698220 0.613396
Si Si2 0.250000 0.250000 0.269405
Si Si3 0.500000 0.914381 0.665368
Si Si4 0.211890 0.056730 0.272718
Si Si5 0.000000 0.500000 0.500000
Si Si6 0.500000 0.619117 0.387859
Si Si7 0.000000 0.811499 0.792453
Si Si8 0.500000 0.586190 0.887321
O O1 0.140226 0.719002 0.665121
O O2 0.000000 0.712095 0.500000
O O3 0.000000 0.639859 0.622891
O O4 0.143226 0.218280 0.204896
O O5 0.364526 0.922477 0.729794
O O6 0.500000 0.956744 0.584343
O O7 0.130778 0.086280 0.356545
O O8 0.130245 0.065386 0.172815
O O9 0.210719 0.000000 0.296716
O O10 0.500000 0.631875 0.500000
O O11 0.500000 0.664841 0.316242
O O12 0.000000 0.856089 0.866846
O O13 0.500000 0.574419 0.000000
#
# Coordination Sequence:
#
# PCOD9491066 Si02
#       8
#     8   8   8  16   2   8   8   8
#     4  11  21  33  52  79 111 157 200 237 277 331
#     4  10  21  36  55  76 112 144 186 238 298 344
#     4  12  23  37  56  85 125 163 203 235 281 337
#     4  10  21  36  54  82 114 150 192 242 281 336
#     4  12  24  36  56  86 126 180 200 222 280 342
#     4  10  21  32  51  76 114 154 197 231 278 326
#     4   9  20  38  54  80 106 140 178 232 286 349
#     4  10  21  41  65  83 105 142 191 242 305 358
#
# _framework density 18.105363000000001
#
# number of rings (size 3 to 8) (size 9 to 14) (size 15 to 20)
#    0.000    1.939    1.818    4.727    1.697    6.788 
#    0.000    1.212    0.000    1.455    0.000    0.000 
#    0.000    0.000    0.000    0.000    0.000    0.000 
#
# Total GULP energy -183857.489933 kJ/mol
# GULP energy per Si atom -5571.439089 kJ/mol
# Density = 1.806415 g / cm^3
# Si number density = 18.105363 Si / 1000 Ang^3
#
#
#
# Elastic Constant Matrix: (Units=GPa)
#
#
# Indices 1 2 3 4 5 6 
#
# 1 146.8870 21.1903 10.6061 0.0000 0.0000 0.0000
# 2 21.1903 77.3417 -21.4293 0.0000 0.0000 0.0000
# 3 10.6061 -21.4293 61.3058 0.0000 0.0000 0.0000
# 4 0.0000 0.0000 0.0000 9.1082 0.0000 0.0000
# 5 0.0000 0.0000 0.0000 0.0000 -0.9614 0.0000
# 6 0.0000 0.0000 0.0000 0.0000 0.0000 28.6880
#
#
#
# Elastic Compliance Matrix: (Units=1/GPa)
#
#
# Indices 1 2 3 4 5 6 
#
# 1 0.007343 -0.002617 -0.002185 0.000000 0.000000 0.000000
# 2 -0.002617 0.015249 0.005783 0.000000 0.000000 0.000000
# 3 -0.002185 0.005783 0.018711 0.000000 0.000000 0.000000
# 4 0.000000 0.000000 0.000000 0.109791 0.000000 0.000000
# 5 0.000000 0.000000 0.000000 0.000000 -1.040142 0.000000
# 6 0.000000 0.000000 0.000000 0.000000 0.000000 0.034858
#
#
# Mechanical properties :
#
#
# Convention : Reuss Voigt Hill
#
# Bulk Modulus (GPa) = 23.11373 34.02985 28.57179
# Shear Modulus (GPa) = -5.94016 25.71145 9.88564
#
# Velocity S-wave (km/s) = -1.81329 3.77251 2.33921
# Velocity P-wave (km/s) = 2.89999 6.14915 4.80739
#
# Compressibility (1/GPa) = 0.04326434
#
# Stress axis : x y z
#
# Youngs Moduli (GPa) = 136.17764 65.57756 53.44388
#
# Poissons Ratio (x) = 0.17165 0.11679
# Poissons Ratio (y) = 0.35644 -0.30907
# Poissons Ratio (z) = 0.29759 -0.37924
#
# Static dielectric constant tensor:
#      x y z
#    x 1.683290 0.000000 0.000000 
#    y 0.000000 1.650200 0.000000 
#    z 0.000000 0.000000 1.571600 
# 
# From -- ./inp_files/36497.got.cif
#   From: 2010.05.17/outbox.cif.g08.bks.cpg/sg65_19_cif.got.tgz:36497.got - 2010.06.03 17:01:31.
