data_PCOD9491536
_publ_section_title
;
Structure prediction by ZEFSAII (Michael W. Deem and Ramdas Pophale) SiO2 
 PCOD9491536
Probable space group: C M M M
;
_chemical_formula_sum "Si O2"
_cell_formula_units_Z 88
_cell_length_a 18.693014
_cell_length_b 9.265111
_cell_length_c 29.204849
_cell_angle_alpha 90.000000
_cell_angle_beta 90.000000
_cell_angle_gamma 90.000000
_cell_volume 5058.071021
_symmetry_space_group_name_H-M "C M M M"
_symmetry_group_IT_number 65
_symmetry_cell_setting 'orthorhombic'
loop_
_space_group_symop_operation_xyz
x,y,z
-x,-y,z
x,-y,-z
-x,y,-z
-x,-y,-z
x,y,-z
-x,y,z
x,-y,z
1/2+x,1/2+y,z
1/2-x,1/2-y,z
1/2+x,1/2-y,-z
1/2-x,1/2+y,-z
1/2-x,1/2-y,-z
1/2+x,1/2+y,-z
1/2-x,1/2+y,z
1/2+x,1/2-y,z
loop_
_atom_site_type_symbol
_atom_site_label
_atom_site_fract_x
_atom_site_fract_y
_atom_site_fract_z
Si Si1 0.673860 0.673624 0.719507
Si Si2 0.087253 0.332097 0.900563
Si Si3 0.416738 0.176028 0.000000
Si Si4 0.083545 0.826694 0.808618
Si Si5 0.674858 0.829040 0.446232
Si Si6 0.583975 0.671634 0.628541
O O1 0.682892 0.500000 0.720708
O O2 0.750000 0.750000 0.717294
O O3 0.630758 0.716973 0.765187
O O4 0.627256 0.707990 0.674604
O O5 0.106833 0.500000 0.894910
O O6 0.113776 0.279672 0.950584
O O7 0.109005 0.242421 0.856244
O O8 0.000000 0.326615 0.902468
O O9 0.500000 0.221448 0.000000
O O10 0.416560 0.000000 0.000000
O O11 0.000000 0.786150 0.801455
O O12 0.085986 0.000000 0.812264
O O13 0.658320 0.806367 0.500000
O O14 0.750000 0.750000 0.436493
O O15 0.615779 0.760784 0.413496
O O16 0.682211 0.000000 0.438393
O O17 0.500000 0.698628 0.635003
O O18 0.593390 0.500000 0.619958
#
# Coordination Sequence:
#
# PCOD9491536 Si02
#       6
#    16  16   8  16  16  16
#     4  10  21  36  53  73  98 129 165 204 247 296
#     4   8  13  22  38  61  89 121 156 192 231 279
#     4   7  10  18  33  55  86 121 152 185 229 279
#     4   9  17  30  47  67  94 126 157 193 241 292
#     4  10  21  37  57  81 110 143 177 213 253 297
#     4  10  21  37  57  80 106 137 172 210 254 304
#
# _framework density 17.397936999999999
#
# number of rings (size 3 to 8) (size 9 to 14) (size 15 to 20)
#    0.000    2.818    0.000    2.727    0.000    6.909 
#    0.000    2.273    0.000    6.000    0.000    0.636 
#    0.000    0.000    0.000    0.000    0.000    0.000 
#
# Total GULP energy -245226.139100 kJ/mol
# GULP energy per Si atom -5573.321343 kJ/mol
# Density = 1.735834 g / cm^3
# Si number density = 17.397937 Si / 1000 Ang^3
#
#
#
# Elastic Constant Matrix: (Units=GPa)
#
#
# Indices 1 2 3 4 5 6 
#
# 1 88.6869 45.8788 80.7288 0.0000 0.0000 0.0000
# 2 45.8788 36.6345 63.2679 0.0000 0.0000 0.0000
# 3 80.7288 63.2679 137.4150 0.0000 0.0000 0.0000
# 4 0.0000 0.0000 0.0000 54.1947 0.0000 0.0000
# 5 0.0000 0.0000 0.0000 0.0000 -16.5308 0.0000
# 6 0.0000 0.0000 0.0000 0.0000 0.0000 24.6786
#
#
#
# Elastic Compliance Matrix: (Units=1/GPa)
#
#
# Indices 1 2 3 4 5 6 
#
# 1 0.032101 -0.037256 -0.001706 0.000000 0.000000 0.000000
# 2 -0.037256 0.176483 -0.059368 0.000000 0.000000 0.000000
# 3 -0.001706 -0.059368 0.035613 0.000000 0.000000 0.000000
# 4 0.000000 0.000000 0.000000 0.018452 0.000000 0.000000
# 5 0.000000 0.000000 0.000000 0.000000 -0.060493 0.000000
# 6 0.000000 0.000000 0.000000 0.000000 0.000000 0.040521
#
#
# Mechanical properties :
#
#
# Convention : Reuss Voigt Hill
#
# Bulk Modulus (GPa) = 21.03586 71.38750 46.21168
# Shear Modulus (GPa) = 10.98461 17.32590 14.15525
#
# Velocity S-wave (km/s) = 2.51544 3.15915 2.85549
# Velocity P-wave (km/s) = 4.53364 7.37755 6.12299
#
# Compressibility (1/GPa) = 0.04753786
#
# Stress axis : x y z
#
# Youngs Moduli (GPa) = 31.15162 5.66627 28.07928
#
# Poissons Ratio (x) = 0.21110 0.04790
# Poissons Ratio (y) = 1.16057 1.66702
# Poissons Ratio (z) = 0.05314 0.33640
#
# Static dielectric constant tensor:
#      x y z
#    x 1.569180 0.000000 0.000000 
#    y 0.000000 1.579370 0.000000 
#    z 0.000000 0.000000 1.606380 
# 
# From -- ./inp_files/77796.got.cif
#   From: 2010.05.17/outbox.cif.g08.bks.cpg/sg65_39_cif.got.tgz:77796.got - 2010.06.03 17:01:31.
