data_PCOD9491939
_publ_section_title
;
Structure prediction by ZEFSAII (Michael W. Deem and Ramdas Pophale) SiO2 
 PCOD9491939
Probable space group: C M M M
;
_chemical_formula_sum "Si O2"
_cell_formula_units_Z 72
_cell_length_a 18.444599
_cell_length_b 8.421734
_cell_length_c 24.423454
_cell_angle_alpha 90.000000
_cell_angle_beta 90.000000
_cell_angle_gamma 90.000000
_cell_volume 3793.829598
_symmetry_space_group_name_H-M "C M M M"
_symmetry_group_IT_number 65
_symmetry_cell_setting 'orthorhombic'
loop_
_space_group_symop_operation_xyz
x,y,z
-x,-y,z
x,-y,-z
-x,y,-z
-x,-y,-z
x,y,-z
-x,y,z
x,-y,z
1/2+x,1/2+y,z
1/2-x,1/2-y,z
1/2+x,1/2-y,-z
1/2-x,1/2+y,-z
1/2-x,1/2-y,-z
1/2+x,1/2+y,-z
1/2-x,1/2+y,z
1/2+x,1/2-y,z
loop_
_atom_site_type_symbol
_atom_site_label
_atom_site_fract_x
_atom_site_fract_y
_atom_site_fract_z
Si Si1 0.416482 0.807608 0.213251
Si Si2 0.083611 0.309461 0.000000
Si Si3 0.666621 0.191975 0.441178
Si Si4 0.667120 0.807795 0.321658
Si Si5 0.832134 0.811122 0.106676
O O1 0.500000 0.756350 0.209467
O O2 0.380083 0.753982 0.270163
O O3 0.371085 0.747961 0.161700
O O4 0.415332 0.000000 0.212605
O O5 0.124385 0.250536 0.945990
O O6 0.084188 0.500000 0.000000
O O7 0.000000 0.255278 0.000000
O O8 0.634453 0.244776 0.500000
O O9 0.750000 0.250000 0.441256
O O10 0.637670 0.243402 0.381691
O O11 0.665741 0.000000 0.441321
O O12 0.750000 0.750000 0.316103
O O13 0.667975 0.000000 0.321082
O O14 0.750000 0.750000 0.104939
O O15 0.831573 0.000000 0.105948
#
# Coordination Sequence:
#
# PCOD9491939 Si02
#       5
#    16   8  16  16  16
#     4  10  21  37  55  76 106 143 181 222 271 324
#     4  11  24  43  66  91 121 153 182 215 260 311
#     4   8  13  22  38  62  92 124 161 208 260 312
#     4   9  17  29  47  71  98 131 171 216 266 318
#     4  12  25  41  62  87 115 145 182 225 267 313
#
# _framework density 18.978183999999999
#
# number of rings (size 3 to 8) (size 9 to 14) (size 15 to 20)
#    0.000    2.111    0.000    4.000    0.000    6.667 
#    0.000    0.000    0.000    0.667    0.000    4.667 
#    0.000    0.000    0.000   38.000    0.000   19.111 
#
# Total GULP energy -200834.415133 kJ/mol
# GULP energy per Si atom -5578.733754 kJ/mol
# Density = 1.893499 g / cm^3
# Si number density = 18.978184 Si / 1000 Ang^3
#
#
#
# Elastic Constant Matrix: (Units=GPa)
#
#
# Indices 1 2 3 4 5 6 
#
# 1 134.2322 26.5582 106.3532 0.0000 0.0000 0.0000
# 2 26.5582 30.2629 33.9593 0.0000 0.0000 0.0000
# 3 106.3532 33.9593 242.8571 0.0000 0.0000 0.0000
# 4 0.0000 0.0000 0.0000 33.8828 0.0000 0.0000
# 5 0.0000 0.0000 0.0000 0.0000 -22.0632 0.0000
# 6 0.0000 0.0000 0.0000 0.0000 0.0000 20.1445
#
#
#
# Elastic Compliance Matrix: (Units=1/GPa)
#
#
# Indices 1 2 3 4 5 6 
#
# 1 0.012150 -0.005565 -0.004543 0.000000 0.000000 0.000000
# 2 -0.005565 0.041743 -0.003400 0.000000 0.000000 0.000000
# 3 -0.004543 -0.003400 0.006582 0.000000 0.000000 0.000000
# 4 0.000000 0.000000 0.000000 0.029514 0.000000 0.000000
# 5 0.000000 0.000000 0.000000 0.000000 -0.045324 0.000000
# 6 0.000000 0.000000 0.000000 0.000000 0.000000 0.049641
#
#
# Mechanical properties :
#
#
# Convention : Reuss Voigt Hill
#
# Bulk Modulus (GPa) = 29.88656 82.34376 56.11516
# Shear Modulus (GPa) = 37.74316 22.42491 30.08403
#
# Velocity S-wave (km/s) = 4.46440 3.44119 3.98576
# Velocity P-wave (km/s) = 6.50819 7.69882 7.12841
#
# Compressibility (1/GPa) = 0.03345986
#
# Stress axis : x y z
#
# Youngs Moduli (GPa) = 82.30455 23.95624 151.92078
#
# Poissons Ratio (x) = 0.13332 0.69011
# Poissons Ratio (y) = 0.45804 0.51651
# Poissons Ratio (z) = 0.37388 0.08145
#
# Static dielectric constant tensor:
#      x y z
#    x 1.630580 0.000000 0.000000 
#    y 0.000000 1.650720 0.000000 
#    z 0.000000 0.000000 1.698210 
# 
# From -- ./inp_files/64314.got.cif
#   From: 2010.05.17/outbox.cif.g08.bks.cpg/sg65_33_cif.got.tgz:64314.got - 2010.06.03 17:01:31.
