data_PCOD9491503
_publ_section_title
;
Structure prediction by ZEFSAII (Michael W. Deem and Ramdas Pophale) SiO2 
 PCOD9491503
Probable space group: C M M M
;
_chemical_formula_sum "Si O2"
_cell_formula_units_Z 72
_cell_length_a 8.821324
_cell_length_b 20.361964
_cell_length_c 23.449856
_cell_angle_alpha 90.000000
_cell_angle_beta 90.000000
_cell_angle_gamma 90.000000
_cell_volume 4212.050981
_symmetry_space_group_name_H-M "C M M M"
_symmetry_group_IT_number 65
_symmetry_cell_setting 'orthorhombic'
loop_
_space_group_symop_operation_xyz
x,y,z
-x,-y,z
x,-y,-z
-x,y,-z
-x,-y,-z
x,y,-z
-x,y,z
x,-y,z
1/2+x,1/2+y,z
1/2-x,1/2-y,z
1/2+x,1/2-y,-z
1/2-x,1/2+y,-z
1/2-x,1/2-y,-z
1/2+x,1/2+y,-z
1/2-x,1/2+y,z
1/2+x,1/2-y,z
loop_
_atom_site_type_symbol
_atom_site_label
_atom_site_fract_x
_atom_site_fract_y
_atom_site_fract_z
Si Si1 0.319019 0.678980 0.153081
Si Si2 0.181709 0.821484 0.285422
Si Si3 0.182558 0.576210 0.934575
Si Si4 0.825001 0.579705 0.500000
Si Si5 0.315942 0.923077 0.374747
O O1 0.500000 0.682446 0.149230
O O2 0.250000 0.750000 0.138759
O O3 0.278557 0.664532 0.219164
O O4 0.256650 0.624297 0.110654
O O5 0.250000 0.750000 0.299482
O O6 0.248391 0.876549 0.326785
O O7 0.000000 0.819179 0.290144
O O8 0.223376 0.500000 0.924245
O O9 0.000000 0.581022 0.930839
O O10 0.225436 0.592387 0.000000
O O11 0.827960 0.500000 0.500000
O O12 0.760233 0.598032 0.561725
O O13 0.000000 0.602078 0.500000
O O14 0.500000 0.919237 0.374547
O O15 0.276871 0.000000 0.366114
#
# Coordination Sequence:
#
# PCOD9491503 Si02
#       5
#    16  16  16   8  16
#     4  10  21  36  54  75 100 133 171 210 251 296
#     4  10  21  36  52  72 101 134 169 210 253 297
#     4   9  19  36  56  78 105 135 166 203 247 294
#     4   7  12  26  48  73 100 129 163 203 244 291
#     4   9  17  31  53  78 102 131 167 205 248 299
#
# _framework density 17.093809
#
# number of rings (size 3 to 8) (size 9 to 14) (size 15 to 20)
#    0.000    2.778    0.000    3.333    0.000    5.333 
#    0.000    6.667    0.000    2.000    0.000    0.000 
#    0.000    0.000    0.000    0.000    0.000    0.000 
#
# Total GULP energy -200665.307874 kJ/mol
# GULP energy per Si atom -5574.036330 kJ/mol
# Density = 1.705490 g / cm^3
# Si number density = 17.093809 Si / 1000 Ang^3
#
#
#
# Elastic Constant Matrix: (Units=GPa)
#
#
# Indices 1 2 3 4 5 6 
#
# 1 32.3876 46.6187 50.4283 0.0000 0.0000 0.0000
# 2 46.6187 119.1243 116.1189 0.0000 0.0000 0.0000
# 3 50.4283 116.1189 145.5604 0.0000 0.0000 0.0000
# 4 0.0000 0.0000 0.0000 169.9841 0.0000 0.0000
# 5 0.0000 0.0000 0.0000 0.0000 27.9413 0.0000
# 6 0.0000 0.0000 0.0000 0.0000 0.0000 33.3027
#
#
#
# Elastic Compliance Matrix: (Units=1/GPa)
#
#
# Indices 1 2 3 4 5 6 
#
# 1 0.074763 -0.018034 -0.011515 0.000000 0.000000 0.000000
# 2 -0.018034 0.042097 -0.027335 0.000000 0.000000 0.000000
# 3 -0.011515 -0.027335 0.032665 0.000000 0.000000 0.000000
# 4 0.000000 0.000000 0.000000 0.005883 0.000000 0.000000
# 5 0.000000 0.000000 0.000000 0.000000 0.035789 0.000000
# 6 0.000000 0.000000 0.000000 0.000000 0.000000 0.030028
#
#
# Mechanical properties :
#
#
# Convention : Reuss Voigt Hill
#
# Bulk Modulus (GPa) = 27.96553 80.37826 54.17190
# Shear Modulus (GPa) = 14.41290 51.83938 33.12614
#
# Velocity S-wave (km/s) = 2.90688 5.51292 4.40694
# Velocity P-wave (km/s) = 5.25948 9.36199 7.59306
#
# Compressibility (1/GPa) = 0.03575830
#
# Stress axis : x y z
#
# Youngs Moduli (GPa) = 13.37569 23.75445 30.61349
#
# Poissons Ratio (x) = 0.42838 0.35251
# Poissons Ratio (y) = 0.24121 0.83682
# Poissons Ratio (z) = 0.15402 0.64933
#
# Static dielectric constant tensor:
#      x y z
#    x 1.575780 0.000000 0.000000 
#    y 0.000000 1.541200 0.000000 
#    z 0.000000 0.000000 1.590090 
# 
# From -- ./inp_files/59216.got.cif
#   From: 2010.05.17/outbox.cif.g08.bks.cpg/sg65_30_cif.got.tgz:59216.got - 2010.06.03 17:01:31.
