data_PCOD9491110
_publ_section_title
;
Structure prediction by ZEFSAII (Michael W. Deem and Ramdas Pophale) SiO2 
 PCOD9491110
Probable space group: C M M M
;
_chemical_formula_sum "Si O2"
_cell_formula_units_Z 96
_cell_length_a 16.768444
_cell_length_b 14.701378
_cell_length_c 19.604202
_cell_angle_alpha 90.000000
_cell_angle_beta 90.000000
_cell_angle_gamma 90.000000
_cell_volume 4832.812855
_symmetry_space_group_name_H-M "C M M M"
_symmetry_group_IT_number 65
_symmetry_cell_setting 'orthorhombic'
loop_
_space_group_symop_operation_xyz
x,y,z
-x,-y,z
x,-y,-z
-x,y,-z
-x,-y,-z
x,y,-z
-x,y,z
x,-y,z
1/2+x,1/2+y,z
1/2-x,1/2-y,z
1/2+x,1/2-y,-z
1/2-x,1/2+y,-z
1/2-x,1/2-y,-z
1/2+x,1/2+y,-z
1/2-x,1/2+y,z
1/2+x,1/2-y,z
loop_
_atom_site_type_symbol
_atom_site_label
_atom_site_fract_x
_atom_site_fract_y
_atom_site_fract_z
Si Si1 0.087436 0.890304 0.201853
Si Si2 0.911268 0.389330 0.919874
Si Si3 0.117407 0.899017 0.362467
Si Si4 0.091164 0.293817 0.575571
Si Si5 0.238205 0.394692 0.834210
Si Si6 0.283571 0.148170 0.318640
O O1 0.092890 0.877429 0.283848
O O2 0.170906 0.855986 0.169292
O O3 0.000000 0.856553 0.178517
O O4 0.087825 0.000000 0.192632
O O5 0.911162 0.500000 0.914324
O O6 0.832868 0.355301 0.880241
O O7 0.000000 0.359590 0.895695
O O8 0.905020 0.367274 0.000000
O O9 0.093159 0.814467 0.408600
O O10 0.213073 0.900828 0.358937
O O11 0.088713 0.000000 0.380503
O O12 0.125473 0.309266 0.500000
O O13 0.139695 0.343180 0.634716
O O14 0.000000 0.323357 0.576358
O O15 0.247673 0.500000 0.855340
O O16 0.207458 0.392311 0.756216
O O17 0.250000 0.250000 0.308183
#
# Coordination Sequence:
#
# PCOD9491110 Si02
#       6
#    16  16  16  16  16  16
#     4   8  13  22  38  61  88 113 138 179 233 276
#     4   8  14  25  42  66  94 119 145 185 236 278
#     4   9  17  30  49  70  88 111 152 203 245 280
#     4  10  21  34  46  63  91 126 157 189 238 295
#     4   9  16  27  46  70  91 116 156 196 227 270
#     4   9  18  31  47  66  92 121 152 189 234 284
#
# _framework density 19.864208000000001
#
# number of rings (size 3 to 8) (size 9 to 14) (size 15 to 20)
#    0.000    3.167    0.000    2.500    0.000    5.000 
#    0.000    0.833    0.000    4.000    0.000    8.167 
#    0.000    0.000    0.000    0.000    0.000    0.000 
#
# Total GULP energy -267271.230082 kJ/mol
# GULP energy per Si atom -5568.150627 kJ/mol
# Density = 1.981900 g / cm^3
# Si number density = 19.864208 Si / 1000 Ang^3
#
#
#
# Elastic Constant Matrix: (Units=GPa)
#
#
# Indices 1 2 3 4 5 6 
#
# 1 174.8068 10.9658 64.3999 0.0000 0.0000 0.0000
# 2 10.9658 34.6642 -4.4014 0.0000 0.0000 0.0000
# 3 64.3999 -4.4014 44.9007 0.0000 0.0000 0.0000
# 4 0.0000 0.0000 0.0000 24.8403 0.0000 0.0000
# 5 0.0000 0.0000 0.0000 0.0000 22.6845 0.0000
# 6 0.0000 0.0000 0.0000 0.0000 0.0000 -10.7556
#
#
#
# Elastic Compliance Matrix: (Units=1/GPa)
#
#
# Indices 1 2 3 4 5 6 
#
# 1 0.013565 -0.006847 -0.020127 0.000000 0.000000 0.000000
# 2 -0.006847 0.032668 0.013022 0.000000 0.000000 0.000000
# 3 -0.020127 0.013022 0.052416 0.000000 0.000000 0.000000
# 4 0.000000 0.000000 0.000000 0.040257 0.000000 0.000000
# 5 0.000000 0.000000 0.000000 0.000000 0.044083 0.000000
# 6 0.000000 0.000000 0.000000 0.000000 0.000000 -0.092975
#
#
# Mechanical properties :
#
#
# Convention : Reuss Voigt Hill
#
# Bulk Modulus (GPa) = 14.13522 44.03340 29.08431
# Shear Modulus (GPa) = 35.33607 19.58100 27.45854
#
# Velocity S-wave (km/s) = 4.22225 3.14306 3.72198
# Velocity P-wave (km/s) = 5.55889 5.94871 5.75710
#
# Compressibility (1/GPa) = 0.07074525
#
# Stress axis : x y z
#
# Youngs Moduli (GPa) = 73.71860 30.61138 19.07822
#
# Poissons Ratio (x) = 0.20959 0.38399
# Poissons Ratio (y) = 0.50474 -0.24844
# Poissons Ratio (z) = 1.48375 -0.39863
#
# Static dielectric constant tensor:
#      x y z
#    x 1.765900 0.000000 0.000000 
#    y 0.000000 1.733620 0.000000 
#    z 0.000000 0.000000 1.673580 
# 
# From -- ./inp_files/63881.got.cif
#   From: 2010.05.17/outbox.cif.g08.bks.cpg/sg65_32_cif.got.tgz:63881.got - 2010.06.03 17:01:31.
