data_PCOD9491460
_publ_section_title
;
Structure prediction by ZEFSAII (Michael W. Deem and Ramdas Pophale) SiO2 
 PCOD9491460
Probable space group: C M M M
;
_chemical_formula_sum "Si O2"
_cell_formula_units_Z 88
_cell_length_a 11.760625
_cell_length_b 18.510805
_cell_length_c 22.413536
_cell_angle_alpha 90.000000
_cell_angle_beta 90.000000
_cell_angle_gamma 90.000000
_cell_volume 4879.396216
_symmetry_space_group_name_H-M "C M M M"
_symmetry_group_IT_number 65
_symmetry_cell_setting 'orthorhombic'
loop_
_space_group_symop_operation_xyz
x,y,z
-x,-y,z
x,-y,-z
-x,y,-z
-x,-y,-z
x,y,-z
-x,y,z
x,-y,z
1/2+x,1/2+y,z
1/2-x,1/2-y,z
1/2+x,1/2-y,-z
1/2-x,1/2+y,-z
1/2-x,1/2-y,-z
1/2+x,1/2+y,-z
1/2-x,1/2+y,z
1/2+x,1/2-y,z
loop_
_atom_site_type_symbol
_atom_site_label
_atom_site_fract_x
_atom_site_fract_y
_atom_site_fract_z
Si Si1 0.129801 0.412142 0.567672
Si Si2 0.500000 0.584792 0.928583
Si Si3 0.375528 0.283456 0.734565
Si Si4 0.871146 0.583810 0.200711
Si Si5 0.307745 0.320242 0.867033
Si Si6 0.773230 0.915872 0.319450
O O1 0.158592 0.389946 0.500000
O O2 0.128483 0.500000 0.568615
O O3 0.217897 0.390662 0.618507
O O4 0.000000 0.388916 0.580651
O O5 0.500000 0.500000 0.908233
O O6 0.607894 0.630055 0.904614
O O7 0.500000 0.584163 0.000000
O O8 0.500000 0.250607 0.719264
O O9 0.250000 0.250000 0.718646
O O10 0.369143 0.292347 0.806289
O O11 0.368778 0.361992 0.703867
O O12 0.866107 0.500000 0.183399
O O13 0.792583 0.629850 0.158057
O O14 0.823157 0.588006 0.267921
O O15 0.000000 0.608788 0.198661
O O16 0.250000 0.250000 0.896901
O O17 0.808125 0.000000 0.324036
#
# Coordination Sequence:
#
# PCOD9491460 Si02
#       6
#    16   8  16  16  16  16
#     4   8  13  22  39  66 102 142 182 226 276 328
#     4  11  24  42  62  84 115 153 190 230 275 324
#     4  10  21  36  54  80 110 145 174 216 275 333
#     4   9  17  29  48  77 110 140 172 219 280 337
#     4  10  21  35  59  82 109 143 184 226 272 328
#     4   9  17  28  46  75 106 137 177 224 273 330
#
# _framework density 18.035018000000001
#
# number of rings (size 3 to 8) (size 9 to 14) (size 15 to 20)
#    0.000    2.636    0.909    1.636    1.273    8.727 
#    0.000    0.000    0.000    1.091    0.000    5.091 
#    0.000    0.000    0.000    0.000    0.000    0.000 
#
# Total GULP energy -245046.632458 kJ/mol
# GULP energy per Si atom -5569.241647 kJ/mol
# Density = 1.799397 g / cm^3
# Si number density = 18.035018 Si / 1000 Ang^3
#
#
#
# Elastic Constant Matrix: (Units=GPa)
#
#
# Indices 1 2 3 4 5 6 
#
# 1 122.1816 53.8203 25.3886 0.0000 0.0000 0.0000
# 2 53.8203 90.4643 34.3712 0.0000 0.0000 0.0000
# 3 25.3886 34.3712 54.6602 0.0000 0.0000 0.0000
# 4 0.0000 0.0000 0.0000 15.5205 0.0000 0.0000
# 5 0.0000 0.0000 0.0000 0.0000 -34.9387 0.0000
# 6 0.0000 0.0000 0.0000 0.0000 0.0000 17.9920
#
#
#
# Elastic Compliance Matrix: (Units=1/GPa)
#
#
# Indices 1 2 3 4 5 6 
#
# 1 0.011164 -0.006138 -0.001326 0.000000 0.000000 0.000000
# 2 -0.006138 0.017899 -0.008404 0.000000 0.000000 0.000000
# 3 -0.001326 -0.008404 0.024195 0.000000 0.000000 0.000000
# 4 0.000000 0.000000 0.000000 0.064431 0.000000 0.000000
# 5 0.000000 0.000000 0.000000 0.000000 -0.028622 0.000000
# 6 0.000000 0.000000 0.000000 0.000000 0.000000 0.055580
#
#
# Mechanical properties :
#
#
# Convention : Reuss Voigt Hill
#
# Bulk Modulus (GPa) = 46.46348 54.94069 50.70208
# Shear Modulus (GPa) = 27.23949 9.96317 18.60133
#
# Velocity S-wave (km/s) = 3.89056 2.35294 3.21503
# Velocity P-wave (km/s) = 6.78239 6.15721 6.47735
#
# Compressibility (1/GPa) = 0.02152228
#
# Stress axis : x y z
#
# Youngs Moduli (GPa) = 89.57542 55.86944 41.33049
#
# Poissons Ratio (x) = 0.34293 0.05479
# Poissons Ratio (y) = 0.54982 0.34734
# Poissons Ratio (z) = 0.11875 0.46953
#
# Static dielectric constant tensor:
#      x y z
#    x 1.631600 0.000000 0.000000 
#    y 0.000000 1.683710 0.000000 
#    z 0.000000 0.000000 1.592710 
# 
# From -- ./inp_files/61465.got.cif
#   From: 2010.05.17/outbox.cif.g08.bks.cpg/sg65_31_cif.got.tgz:61465.got - 2010.06.03 17:01:31.
