data_PCOD9491350
_publ_section_title
;
Structure prediction by ZEFSAII (Michael W. Deem and Ramdas Pophale) SiO2 
 PCOD9491350
Probable space group: C M M M
;
_chemical_formula_sum "Si O2"
_cell_formula_units_Z 96
_cell_length_a 8.307067
_cell_length_b 19.829573
_cell_length_c 31.839024
_cell_angle_alpha 90.000000
_cell_angle_beta 90.000000
_cell_angle_gamma 90.000000
_cell_volume 5244.702061
_symmetry_space_group_name_H-M "C M M M"
_symmetry_group_IT_number 65
_symmetry_cell_setting 'orthorhombic'
loop_
_space_group_symop_operation_xyz
x,y,z
-x,-y,z
x,-y,-z
-x,y,-z
-x,-y,-z
x,y,-z
-x,y,z
x,-y,z
1/2+x,1/2+y,z
1/2-x,1/2-y,z
1/2+x,1/2-y,-z
1/2-x,1/2+y,-z
1/2-x,1/2-y,-z
1/2+x,1/2+y,-z
1/2-x,1/2+y,z
1/2+x,1/2-y,z
loop_
_atom_site_type_symbol
_atom_site_label
_atom_site_fract_x
_atom_site_fract_y
_atom_site_fract_z
Si Si1 0.694615 0.577734 0.863597
Si Si2 0.192972 0.325535 0.305276
Si Si3 0.694472 0.324848 0.548047
Si Si4 0.692334 0.174914 0.209516
Si Si5 0.305604 0.577097 0.621592
Si Si6 0.808594 0.918304 0.045146
O O1 0.500000 0.577321 0.865479
O O2 0.747425 0.500000 0.858394
O O3 0.747055 0.622562 0.824771
O O4 0.754590 0.603983 0.909329
O O5 0.250000 0.250000 0.316659
O O6 0.248552 0.339233 0.257335
O O7 0.256509 0.380582 0.337612
O O8 0.000000 0.326166 0.306041
O O9 0.749049 0.336596 0.500000
O O10 0.500000 0.325339 0.548013
O O11 0.750000 0.250000 0.560770
O O12 0.751084 0.381052 0.580800
O O13 0.500000 0.173863 0.209887
O O14 0.750000 0.250000 0.198697
O O15 0.500000 0.575284 0.619903
O O16 0.247151 0.500000 0.622383
O O17 0.000000 0.903261 0.044382
O O18 0.795630 0.000000 0.045807
O O19 0.740153 0.895096 0.000000
#
# Coordination Sequence:
#
# PCOD9491350 Si02
#       6
#    16  16  16  16  16  16
#     4   9  17  29  48  75 103 130 161 199 244 292
#     4  10  21  37  56  75  96 127 167 208 250 297
#     4   9  18  33  53  76 102 134 172 210 246 288
#     4  10  21  36  53  72  96 128 165 205 249 297
#     4  10  21  35  52  77 107 137 168 204 248 294
#     4   7  10  19  38  65  95 125 158 195 234 280
#
# _framework density 18.304186000000001
#
# number of rings (size 3 to 8) (size 9 to 14) (size 15 to 20)
#    0.000    2.833    0.000    3.000    0.000    5.667 
#    0.000    5.000    0.000    1.000    0.000    5.833 
#    0.000    0.000    0.000    0.000    0.000    0.000 
#
# Total GULP energy -267497.726936 kJ/mol
# GULP energy per Si atom -5572.869311 kJ/mol
# Density = 1.826253 g / cm^3
# Si number density = 18.304186 Si / 1000 Ang^3
#
#
#
# Elastic Constant Matrix: (Units=GPa)
#
#
# Indices 1 2 3 4 5 6 
#
# 1 9.5023 15.7201 17.4258 0.0000 0.0000 0.0000
# 2 15.7201 131.3655 116.7279 0.0000 0.0000 0.0000
# 3 17.4258 116.7279 155.6654 0.0000 0.0000 0.0000
# 4 0.0000 0.0000 0.0000 361.0413 0.0000 0.0000
# 5 0.0000 0.0000 0.0000 0.0000 -2.7503 0.0000
# 6 0.0000 0.0000 0.0000 0.0000 0.0000 23.3343
#
#
#
# Elastic Compliance Matrix: (Units=1/GPa)
#
#
# Indices 1 2 3 4 5 6 
#
# 1 0.135300 -0.008189 -0.009005 0.000000 0.000000 0.000000
# 2 -0.008189 0.023308 -0.016561 0.000000 0.000000 0.000000
# 3 -0.009005 -0.016561 0.019851 0.000000 0.000000 0.000000
# 4 0.000000 0.000000 0.000000 0.002770 0.000000 0.000000
# 5 0.000000 0.000000 0.000000 0.000000 -0.363595 0.000000
# 6 0.000000 0.000000 0.000000 0.000000 0.000000 0.042855
#
#
# Mechanical properties :
#
#
# Convention : Reuss Voigt Hill
#
# Bulk Modulus (GPa) = 9.01324 66.25345 37.63335
# Shear Modulus (GPa) = -142.79187 86.10235 -28.34476
#
# Velocity S-wave (km/s) = -8.84194 6.86599 -3.93942
# Velocity P-wave (km/s) = 9.96519 9.95641 0.29567
#
# Compressibility (1/GPa) = 0.11094789
#
# Stress axis : x y z
#
# Youngs Moduli (GPa) = 7.39097 42.90329 50.37567
#
# Poissons Ratio (x) = 0.35134 0.45365
# Poissons Ratio (y) = 0.06053 0.83429
# Poissons Ratio (z) = 0.06656 0.71053
#
# Static dielectric constant tensor:
#      x y z
#    x 1.643140 0.000000 0.000000 
#    y 0.000000 1.621060 0.000000 
#    z 0.000000 0.000000 1.670760 
# 
# From -- ./inp_files/73205.got.cif
#   From: 2010.05.17/outbox.cif.g08.bks.cpg/sg65_37_cif.got.tgz:73205.got - 2010.06.03 17:01:31.
