data_PCOD9491780
_publ_section_title
;
Structure prediction by ZEFSAII (Michael W. Deem and Ramdas Pophale) SiO2 
 PCOD9491780
Probable space group: C M M M
;
_chemical_formula_sum "Si O2"
_cell_formula_units_Z 72
_cell_length_a 27.497169
_cell_length_b 9.880708
_cell_length_c 14.246426
_cell_angle_alpha 90.000000
_cell_angle_beta 90.000000
_cell_angle_gamma 90.000000
_cell_volume 3870.632817
_symmetry_space_group_name_H-M "C M M M"
_symmetry_group_IT_number 65
_symmetry_cell_setting 'orthorhombic'
loop_
_space_group_symop_operation_xyz
x,y,z
-x,-y,z
x,-y,-z
-x,y,-z
-x,-y,-z
x,y,-z
-x,y,z
x,-y,z
1/2+x,1/2+y,z
1/2-x,1/2-y,z
1/2+x,1/2-y,-z
1/2-x,1/2+y,-z
1/2-x,1/2-y,-z
1/2+x,1/2+y,-z
1/2-x,1/2+y,z
1/2+x,1/2-y,z
loop_
_atom_site_type_symbol
_atom_site_label
_atom_site_fract_x
_atom_site_fract_y
_atom_site_fract_z
Si Si1 0.441199 0.154956 0.000000
Si Si2 0.207682 0.000000 0.611730
Si Si3 0.354878 0.270268 0.709938
Si Si4 0.557896 0.343961 0.177524
Si Si5 0.798649 0.160726 0.894501
Si Si6 0.322202 0.000000 0.613499
O O1 0.429436 0.240827 0.906705
O O2 0.500000 0.145870 0.000000
O O3 0.422026 0.000000 0.000000
O O4 0.177998 0.873257 0.650663
O O5 0.207096 0.000000 0.500000
O O6 0.264545 0.000000 0.639940
O O7 0.410398 0.311561 0.730234
O O8 0.332226 0.280128 0.813886
O O9 0.347660 0.128936 0.659400
O O10 0.500000 0.334129 0.194050
O O11 0.568741 0.500000 0.149289
O O12 0.750000 0.250000 0.892119
O O13 0.789768 0.000000 0.876829
O O14 0.819064 0.171569 0.000000
O O15 0.325252 0.000000 0.500000
#
# Coordination Sequence:
#
# PCOD9491780 Si02
#       6
#     8   8  16  16  16   8
#     4   9  19  35  59  91 126 165 212 262 306 352
#     4  11  22  42  68  92 119 154 206 266 319 373
#     4  12  23  39  63  93 122 165 206 255 313 376
#     4  10  21  39  62  90 126 168 213 259 304 361
#     4  10  21  36  55  84 124 164 201 241 294 366
#     4  11  26  44  66  94 123 156 204 266 327 383
#
# _framework density 18.601609
#
# number of rings (size 3 to 8) (size 9 to 14) (size 15 to 20)
#    0.000    1.444    2.222    3.000    4.667    3.111 
#    0.000    0.000    0.000    4.000    0.000    0.000 
#    0.000    0.000    0.000    0.000    0.000    0.000 
#
# Total GULP energy -200977.193336 kJ/mol
# GULP energy per Si atom -5582.699815 kJ/mol
# Density = 1.855927 g / cm^3
# Si number density = 18.601609 Si / 1000 Ang^3
#
#
#
# Elastic Constant Matrix: (Units=GPa)
#
#
# Indices 1 2 3 4 5 6 
#
# 1 76.3525 41.6062 39.9446 0.0000 0.0000 0.0000
# 2 41.6062 154.7433 50.4476 0.0000 0.0000 0.0000
# 3 39.9446 50.4476 84.5193 0.0000 0.0000 0.0000
# 4 0.0000 0.0000 0.0000 41.5102 0.0000 0.0000
# 5 0.0000 0.0000 0.0000 0.0000 37.5643 0.0000
# 6 0.0000 0.0000 0.0000 0.0000 0.0000 21.2019
#
#
#
# Elastic Compliance Matrix: (Units=1/GPa)
#
#
# Indices 1 2 3 4 5 6 
#
# 1 0.018201 -0.002594 -0.007053 0.000000 0.000000 0.000000
# 2 -0.002594 0.008393 -0.003784 0.000000 0.000000 0.000000
# 3 -0.007053 -0.003784 0.017424 0.000000 0.000000 0.000000
# 4 0.000000 0.000000 0.000000 0.024090 0.000000 0.000000
# 5 0.000000 0.000000 0.000000 0.000000 0.026621 0.000000
# 6 0.000000 0.000000 0.000000 0.000000 0.000000 0.047166
#
#
# Mechanical properties :
#
#
# Convention : Reuss Voigt Hill
#
# Bulk Modulus (GPa) = 58.29224 64.40133 61.34679
# Shear Modulus (GPa) = 28.65722 32.29641 30.47681
#
# Velocity S-wave (km/s) = 3.92928 4.17131 4.05210
# Velocity P-wave (km/s) = 7.21047 7.60896 7.41239
#
# Compressibility (1/GPa) = 0.01715494
#
# Stress axis : x y z
#
# Youngs Moduli (GPa) = 54.94229 119.14180 57.39343
#
# Poissons Ratio (x) = 0.30908 0.40482
# Poissons Ratio (y) = 0.14253 0.21716
# Poissons Ratio (z) = 0.38754 0.45080
#
# Static dielectric constant tensor:
#      x y z
#    x 1.684120 0.000000 0.000000 
#    y 0.000000 2.174470 0.000000 
#    z 0.000000 0.000000 1.631510 
# 
# From -- ./inp_files/46522.got.cif
#   From: 2010.05.17/outbox.cif.g08.bks.cpg/sg65_24_cif.got.tgz:46522.got - 2010.06.03 17:01:31.
