data_PCOD9491326
_publ_section_title
;
Structure prediction by ZEFSAII (Michael W. Deem and Ramdas Pophale) SiO2 
 PCOD9491326
Probable space group: C M M M
;
_chemical_formula_sum "Si O2"
_cell_formula_units_Z 88
_cell_length_a 14.414906
_cell_length_b 16.126952
_cell_length_c 20.127237
_cell_angle_alpha 90.000000
_cell_angle_beta 90.000000
_cell_angle_gamma 90.000000
_cell_volume 4678.948537
_symmetry_space_group_name_H-M "C M M M"
_symmetry_group_IT_number 65
_symmetry_cell_setting 'orthorhombic'
loop_
_space_group_symop_operation_xyz
x,y,z
-x,-y,z
x,-y,-z
-x,y,-z
-x,-y,-z
x,y,-z
-x,y,z
x,-y,z
1/2+x,1/2+y,z
1/2-x,1/2-y,z
1/2+x,1/2-y,-z
1/2-x,1/2+y,-z
1/2-x,1/2-y,-z
1/2+x,1/2+y,-z
1/2-x,1/2+y,z
1/2+x,1/2-y,z
loop_
_atom_site_type_symbol
_atom_site_label
_atom_site_fract_x
_atom_site_fract_y
_atom_site_fract_z
Si Si1 0.000000 0.595898 0.920355
Si Si2 0.895305 0.600481 0.690315
Si Si3 0.293276 0.157794 0.075537
Si Si4 0.762027 0.348664 0.424529
Si Si5 0.602623 0.400464 0.325934
Si Si6 0.734654 0.401198 0.213120
O O1 0.902808 0.643462 0.905929
O O2 0.000000 0.500000 0.892912
O O3 0.000000 0.588300 0.000000
O O4 0.895864 0.500000 0.691299
O O5 0.849349 0.627845 0.621147
O O6 0.827238 0.629653 0.749175
O O7 0.000000 0.629920 0.698377
O O8 0.250000 0.250000 0.073521
O O9 0.237380 0.116787 0.135644
O O10 0.282813 0.123882 0.000000
O O11 0.769502 0.379499 0.500000
O O12 0.750000 0.250000 0.426038
O O13 0.672491 0.382654 0.385786
O O14 0.500000 0.366304 0.336409
O O15 0.596266 0.500000 0.320801
O O16 0.649471 0.368904 0.257600
O O17 0.734656 0.500000 0.220369
#
# Coordination Sequence:
#
# PCOD9491326 Si02
#       6
#     8  16  16  16  16  16
#     4   9  18  34  58  84 107 143 194 236 277 336
#     4   9  19  35  55  79 105 137 177 220 269 324
#     4  10  21  36  53  81 118 150 184 234 291 338
#     4  10  21  35  51  76 110 142 175 217 264 318
#     4   9  19  37  58  78 102 136 179 225 268 315
#     4   9  18  33  55  80 105 137 180 226 274 331
#
# _framework density 18.807645000000001
#
# number of rings (size 3 to 8) (size 9 to 14) (size 15 to 20)
#    0.000    2.636    0.000    2.182    1.273    6.909 
#    1.636    3.636    0.000    0.000    0.000    2.545 
#    0.000    0.000    0.000    0.000    0.000    0.000 
#
# Total GULP energy -245065.467444 kJ/mol
# GULP energy per Si atom -5569.669715 kJ/mol
# Density = 1.876484 g / cm^3
# Si number density = 18.807645 Si / 1000 Ang^3
#
#
#
# Elastic Constant Matrix: (Units=GPa)
#
#
# Indices 1 2 3 4 5 6 
#
# 1 77.1575 25.6641 11.2219 0.0000 0.0000 0.0000
# 2 25.6641 26.3741 2.9801 0.0000 0.0000 0.0000
# 3 11.2219 2.9801 106.2753 0.0000 0.0000 0.0000
# 4 0.0000 0.0000 0.0000 25.5413 0.0000 0.0000
# 5 0.0000 0.0000 0.0000 0.0000 13.8072 0.0000
# 6 0.0000 0.0000 0.0000 0.0000 0.0000 12.3547
#
#
#
# Elastic Compliance Matrix: (Units=1/GPa)
#
#
# Indices 1 2 3 4 5 6 
#
# 1 0.019406 -0.018711 -0.001524 0.000000 0.000000 0.000000
# 2 -0.018711 0.056078 0.000403 0.000000 0.000000 0.000000
# 3 -0.001524 0.000403 0.009559 0.000000 0.000000 0.000000
# 4 0.000000 0.000000 0.000000 0.039152 0.000000 0.000000
# 5 0.000000 0.000000 0.000000 0.000000 0.072426 0.000000
# 6 0.000000 0.000000 0.000000 0.000000 0.000000 0.080941
#
#
# Mechanical properties :
#
#
# Convention : Reuss Voigt Hill
#
# Bulk Modulus (GPa) = 22.03700 32.17099 27.10400
# Shear Modulus (GPa) = 15.04425 21.67004 18.35715
#
# Velocity S-wave (km/s) = 2.83132 3.39808 3.12756
# Velocity P-wave (km/s) = 4.73614 5.70424 5.24258
#
# Compressibility (1/GPa) = 0.04537824
#
# Stress axis : x y z
#
# Youngs Moduli (GPa) = 51.53055 17.83233 104.61145
#
# Poissons Ratio (x) = 0.33367 0.15947
# Poissons Ratio (y) = 0.96420 -0.04219
# Poissons Ratio (z) = 0.07856 -0.00719
#
# Static dielectric constant tensor:
#      x y z
#    x 1.638700 0.000000 0.000000 
#    y 0.000000 1.668950 0.000000 
#    z 0.000000 0.000000 1.654140 
# 
# From -- ./inp_files/53044.got.cif
#   From: 2010.05.17/outbox.cif.g08.bks.cpg/sg65_27_cif.got.tgz:53044.got - 2010.06.03 17:01:31.
