data_PCOD9491977
_publ_section_title
;
Structure prediction by ZEFSAII (Michael W. Deem and Ramdas Pophale) SiO2 
 PCOD9491977
Probable space group: C M M M
;
_chemical_formula_sum "Si O2"
_cell_formula_units_Z 96
_cell_length_a 23.242459
_cell_length_b 13.900927
_cell_length_c 15.339550
_cell_angle_alpha 90.000000
_cell_angle_beta 90.000000
_cell_angle_gamma 90.000000
_cell_volume 4956.081683
_symmetry_space_group_name_H-M "C M M M"
_symmetry_group_IT_number 65
_symmetry_cell_setting 'orthorhombic'
loop_
_space_group_symop_operation_xyz
x,y,z
-x,-y,z
x,-y,-z
-x,y,-z
-x,-y,-z
x,y,-z
-x,y,z
x,-y,z
1/2+x,1/2+y,z
1/2-x,1/2-y,z
1/2+x,1/2-y,-z
1/2-x,1/2+y,-z
1/2-x,1/2-y,-z
1/2+x,1/2+y,-z
1/2-x,1/2+y,z
1/2+x,1/2-y,z
loop_
_atom_site_type_symbol
_atom_site_label
_atom_site_fract_x
_atom_site_fract_y
_atom_site_fract_z
Si Si1 0.932912 0.205483 0.250000
Si Si2 0.145717 0.884277 0.397510
Si Si3 0.276080 0.883202 0.401357
Si Si4 0.864939 0.385675 0.750000
Si Si5 0.223920 0.383202 0.098643
Si Si6 0.854283 0.884277 0.102490
O O1 0.900400 0.162299 0.333993
O O2 0.920619 0.319473 0.250000
O O3 0.900400 0.162299 0.166007
O O4 0.000000 0.182952 0.250000
O O5 0.136113 0.864189 0.500000
O O6 0.211408 0.852631 0.376046
O O7 0.143460 0.000000 0.386433
O O8 0.288297 0.850712 0.500000
O O9 0.325494 0.860286 0.333291
O O10 0.273446 0.000000 0.403368
O O11 0.875955 0.500000 0.750000
O O12 0.825494 0.360286 0.833291
O O13 0.226554 0.500000 0.096632
O O14 0.288592 0.352631 0.123954
O O15 0.211703 0.350712 0.000000
O O16 0.856540 0.000000 0.113567
O O17 0.863887 0.864189 0.000000
#
# Coordination Sequence:
#
# PCOD9491977 Si02
#       6
#    16  16  16  16  16  16
#     4  12  26  38  51  76 108 147 197 233 250 295
#     4   9  19  37  60  86 115 140 164 209 275 337
#     4   8  15  31  57  86 110 132 165 214 275 338
#     4  10  21  37  56  77 106 144 182 226 276 314
#     4   8  15  31  57  86 110 132 165 214 275 338
#     4   9  19  37  60  86 115 140 164 209 275 337
#
# _framework density 19.370141
#
# number of rings (size 3 to 8) (size 9 to 14) (size 15 to 20)
#    0.000    2.667    0.000    3.500    0.000    9.000 
#    0.000    5.000    0.000    0.000    0.000    7.000 
#    0.000    0.000    0.000    0.000    0.000    0.000 
#
# Total GULP energy -268196.479167 kJ/mol
# GULP energy per Si atom -5587.426649 kJ/mol
# Density = 1.932605 g / cm^3
# Si number density = 19.370141 Si / 1000 Ang^3
#
#
#
# Elastic Constant Matrix: (Units=GPa)
#
#
# Indices 1 2 3 4 5 6 
#
# 1 81.4126 7.0414 33.7574 0.0000 0.0000 0.0000
# 2 7.0414 67.2359 14.9826 0.0000 0.0000 0.0000
# 3 33.7574 14.9826 56.8039 0.0000 0.0000 0.0000
# 4 0.0000 0.0000 0.0000 3.1203 0.0000 0.0000
# 5 0.0000 0.0000 0.0000 0.0000 -15.9828 0.0000
# 6 0.0000 0.0000 0.0000 0.0000 0.0000 24.0997
#
#
#
# Elastic Compliance Matrix: (Units=1/GPa)
#
#
# Indices 1 2 3 4 5 6 
#
# 1 0.016314 0.000480 -0.009822 0.000000 0.000000 0.000000
# 2 0.000480 0.015816 -0.004457 0.000000 0.000000 0.000000
# 3 -0.009822 -0.004457 0.024617 0.000000 0.000000 0.000000
# 4 0.000000 0.000000 0.000000 0.320479 0.000000 0.000000
# 5 0.000000 0.000000 0.000000 0.000000 -0.062567 0.000000
# 6 0.000000 0.000000 0.000000 0.000000 0.000000 0.041494
#
#
# Mechanical properties :
#
#
# Convention : Reuss Voigt Hill
#
# Bulk Modulus (GPa) = 34.30565 35.22390 34.76478
# Shear Modulus (GPa) = 12.70754 12.22550 12.46652
#
# Velocity S-wave (km/s) = 2.56410 2.51500 2.53967
# Velocity P-wave (km/s) = 5.14929 5.16311 5.15621
#
# Compressibility (1/GPa) = 0.02914972
#
# Stress axis : x y z
#
# Youngs Moduli (GPa) = 61.29639 63.22753 40.62247
#
# Poissons Ratio (x) = -0.03036 0.39899
# Poissons Ratio (y) = -0.02943 0.18105
# Poissons Ratio (z) = 0.60204 0.28180
#
# Static dielectric constant tensor:
#      x y z
#    x 1.609650 0.000000 0.000000 
#    y 0.000000 1.747750 0.000000 
#    z 0.000000 0.000000 1.663870 
# 
# From -- ./inp_files/40309.got.cif
#   From: 2010.05.17/outbox.cif.g08.bks.cpg/sg65_21_cif.got.tgz:40309.got - 2010.06.03 17:01:31.
