data_PCOD9491590
_publ_section_title
;
Structure prediction by ZEFSAII (Michael W. Deem and Ramdas Pophale) SiO2 
 PCOD9491590
Probable space group: C M M M
;
_chemical_formula_sum "Si O2"
_cell_formula_units_Z 80
_cell_length_a 18.479596
_cell_length_b 8.354703
_cell_length_c 26.870747
_cell_angle_alpha 90.000000
_cell_angle_beta 90.000000
_cell_angle_gamma 90.000000
_cell_volume 4148.615907
_symmetry_space_group_name_H-M "C M M M"
_symmetry_group_IT_number 65
_symmetry_cell_setting 'orthorhombic'
loop_
_space_group_symop_operation_xyz
x,y,z
-x,-y,z
x,-y,-z
-x,y,-z
-x,-y,-z
x,y,-z
-x,y,z
x,-y,z
1/2+x,1/2+y,z
1/2-x,1/2-y,z
1/2+x,1/2-y,-z
1/2-x,1/2+y,-z
1/2-x,1/2-y,-z
1/2+x,1/2+y,-z
1/2-x,1/2+y,z
1/2+x,1/2-y,z
loop_
_atom_site_type_symbol
_atom_site_label
_atom_site_fract_x
_atom_site_fract_y
_atom_site_fract_z
Si Si1 0.082971 0.193669 0.706613
Si Si2 0.416650 0.806368 0.902548
Si Si3 0.166949 0.193828 0.608501
Si Si4 0.332394 0.690260 0.000000
Si Si5 0.832295 0.691848 0.196303
Si Si6 0.833222 0.806865 0.500000
O O1 0.120022 0.249311 0.655267
O O2 0.128807 0.249013 0.753844
O O3 0.000000 0.248469 0.710379
O O4 0.082895 0.000000 0.705958
O O5 0.500000 0.751809 0.903497
O O6 0.373848 0.750744 0.951076
O O7 0.376216 0.751936 0.852427
O O8 0.416994 0.000000 0.902389
O O9 0.250000 0.250000 0.613570
O O10 0.137762 0.246201 0.553951
O O11 0.167168 0.000000 0.608987
O O12 0.250000 0.750000 0.000000
O O13 0.332175 0.500000 0.000000
O O14 0.832695 0.500000 0.196328
O O15 0.750000 0.750000 0.194308
O O16 0.750000 0.750000 0.500000
O O17 0.835444 0.000000 0.500000
#
# Coordination Sequence:
#
# PCOD9491590 Si02
#       6
#    16  16  16   8  16   8
#     4  10  21  36  53  76 108 143 179 223 274 325
#     4  10  22  41  63  87 117 150 183 224 274 325
#     4   9  17  30  49  73 100 133 174 219 267 319
#     4  12  25  40  61  89 119 153 193 232 271 318
#     4  11  23  39  60  85 111 143 184 226 271 324
#     4   8  14  26  45  69  97 129 169 216 263 314
#
# _framework density 19.283539999999999
#
# number of rings (size 3 to 8) (size 9 to 14) (size 15 to 20)
#    0.000    2.000    0.000    3.600    0.000    8.400 
#    0.000    0.500    0.000    3.000    0.000    0.000 
#    0.000    9.600    0.000    0.000    0.000    0.000 
#
# Total GULP energy -223344.774266 kJ/mol
# GULP energy per Si atom -5583.619357 kJ/mol
# Density = 1.923965 g / cm^3
# Si number density = 19.283540 Si / 1000 Ang^3
#
#
#
# Elastic Constant Matrix: (Units=GPa)
#
#
# Indices 1 2 3 4 5 6 
#
# 1 174.0371 21.4232 121.1281 0.0000 0.0000 0.0000
# 2 21.4232 14.8465 24.4872 0.0000 0.0000 0.0000
# 3 121.1281 24.4872 234.5809 0.0000 0.0000 0.0000
# 4 0.0000 0.0000 0.0000 27.2434 0.0000 0.0000
# 5 0.0000 0.0000 0.0000 0.0000 -99.7419 0.0000
# 6 0.0000 0.0000 0.0000 0.0000 0.0000 18.5831
#
#
#
# Elastic Compliance Matrix: (Units=1/GPa)
#
#
# Indices 1 2 3 4 5 6 
#
# 1 0.009504 -0.006789 -0.004199 0.000000 0.000000 0.000000
# 2 -0.006789 0.086214 -0.005494 0.000000 0.000000 0.000000
# 3 -0.004199 -0.005494 0.007005 0.000000 0.000000 0.000000
# 4 0.000000 0.000000 0.000000 0.036706 0.000000 0.000000
# 5 0.000000 0.000000 0.000000 0.000000 -0.010026 0.000000
# 6 0.000000 0.000000 0.000000 0.000000 0.000000 0.053812
#
#
# Mechanical properties :
#
#
# Convention : Reuss Voigt Hill
#
# Bulk Modulus (GPa) = 14.33512 84.17128 49.25320
# Shear Modulus (GPa) = 20.88287 6.31197 13.59742
#
# Velocity S-wave (km/s) = 3.29437 1.81117 2.65831
# Velocity P-wave (km/s) = 4.68194 6.93670 5.91770
#
# Compressibility (1/GPa) = 0.06975875
#
# Stress axis : x y z
#
# Youngs Moduli (GPa) = 105.22065 11.59911 142.76494
#
# Poissons Ratio (x) = 0.07874 0.59944
# Poissons Ratio (y) = 0.71430 0.78439
# Poissons Ratio (z) = 0.44180 0.06373
#
# Static dielectric constant tensor:
#      x y z
#    x 1.705550 0.000000 0.000000 
#    y 0.000000 1.665800 0.000000 
#    z 0.000000 0.000000 1.679230 
# 
# From -- ./inp_files/75084.got.cif
#   From: 2010.05.17/outbox.cif.g08.bks.cpg/sg65_38_cif.got.tgz:75084.got - 2010.06.03 17:01:31.
