data_PCOD9491897
_publ_section_title
;
Structure prediction by ZEFSAII (Michael W. Deem and Ramdas Pophale) SiO2 
 PCOD9491897
Probable space group: C M M M
;
_chemical_formula_sum "Si O2"
_cell_formula_units_Z 88
_cell_length_a 8.186226
_cell_length_b 28.660719
_cell_length_c 24.159477
_cell_angle_alpha 90.000000
_cell_angle_beta 90.000000
_cell_angle_gamma 90.000000
_cell_volume 5668.371945
_symmetry_space_group_name_H-M "C M M M"
_symmetry_group_IT_number 65
_symmetry_cell_setting 'orthorhombic'
loop_
_space_group_symop_operation_xyz
x,y,z
-x,-y,z
x,-y,-z
-x,y,-z
-x,-y,-z
x,y,-z
-x,y,z
x,-y,z
1/2+x,1/2+y,z
1/2-x,1/2-y,z
1/2+x,1/2-y,-z
1/2-x,1/2+y,-z
1/2-x,1/2-y,-z
1/2+x,1/2+y,-z
1/2-x,1/2+y,z
1/2+x,1/2-y,z
loop_
_atom_site_type_symbol
_atom_site_label
_atom_site_fract_x
_atom_site_fract_y
_atom_site_fract_z
Si Si1 0.683488 0.055977 0.367561
Si Si2 0.300807 0.446337 0.242167
Si Si3 0.694183 0.196852 0.938060
Si Si4 0.182874 0.121565 0.147793
Si Si5 0.685414 0.055428 0.935864
Si Si6 0.500000 0.556936 0.564458
O O1 0.500000 0.074124 0.378960
O O2 0.730929 0.062098 0.303266
O O3 0.834478 0.073266 0.404890
O O4 0.677132 0.000000 0.376337
O O5 0.500000 0.445366 0.243899
O O6 0.255662 0.500000 0.225355
O O7 0.242776 0.405551 0.200660
O O8 0.500000 0.195773 0.941044
O O9 0.750000 0.250000 0.929650
O O10 0.742892 0.164325 0.886658
O O11 0.756840 0.182204 0.000000
O O12 0.187112 0.080564 0.102375
O O13 0.000000 0.135271 0.163308
O O14 0.500000 0.070158 0.920167
O O15 0.694247 0.000000 0.930756
O O16 0.707244 0.067297 0.000000
O O17 0.500000 0.500000 0.567918
O O18 0.500000 0.569497 0.500000
#
# Coordination Sequence:
#
# PCOD9491897 Si02
#       6
#    16  16  16  16  16   8
#     4   9  16  26  41  59  81 115 155 192 231 270
#     4   9  17  30  44  59  87 122 152 187 226 263
#     4  10  21  37  54  68  84 107 137 180 231 280
#     4  11  21  30  45  68  88 109 141 179 218 272
#     4   9  18  31  43  56  80 112 141 174 218 261
#     4   9  16  26  40  58  84 116 151 197 237 261
#
# _framework density 15.524741000000001
#
# number of rings (size 3 to 8) (size 9 to 14) (size 15 to 20)
#    0.000    2.455    0.909    2.727    0.000    6.545 
#    0.000    4.545    0.000    0.000    0.000    0.000 
#    0.000    0.000    0.000    0.000    0.000    0.909 
#
# Total GULP energy -244963.250704 kJ/mol
# GULP energy per Si atom -5567.346607 kJ/mol
# Density = 1.548941 g / cm^3
# Si number density = 15.524741 Si / 1000 Ang^3
#
#
#
# Elastic Constant Matrix: (Units=GPa)
#
#
# Indices 1 2 3 4 5 6 
#
# 1 65.4743 22.3138 47.3596 0.0000 0.0000 0.0000
# 2 22.3138 51.4284 40.0837 0.0000 0.0000 0.0000
# 3 47.3596 40.0837 85.2296 0.0000 0.0000 0.0000
# 4 0.0000 0.0000 0.0000 49.3017 0.0000 0.0000
# 5 0.0000 0.0000 0.0000 0.0000 7.7266 0.0000
# 6 0.0000 0.0000 0.0000 0.0000 0.0000 17.0544
#
#
#
# Elastic Compliance Matrix: (Units=1/GPa)
#
#
# Indices 1 2 3 4 5 6 
#
# 1 0.025538 -0.000032 -0.014176 0.000000 0.000000 0.000000
# 2 -0.000032 0.030697 -0.014419 0.000000 0.000000 0.000000
# 3 -0.014176 -0.014419 0.026391 0.000000 0.000000 0.000000
# 4 0.000000 0.000000 0.000000 0.020283 0.000000 0.000000
# 5 0.000000 0.000000 0.000000 0.000000 0.129424 0.000000
# 6 0.000000 0.000000 0.000000 0.000000 0.000000 0.058636
#
#
# Mechanical properties :
#
#
# Convention : Reuss Voigt Hill
#
# Bulk Modulus (GPa) = 39.41233 46.84962 43.13098
# Shear Modulus (GPa) = 14.01822 20.97488 17.49655
#
# Velocity S-wave (km/s) = 3.00819 3.67967 3.36074
# Velocity P-wave (km/s) = 6.12434 6.94954 6.54995
#
# Compressibility (1/GPa) = 0.02537277
#
# Stress axis : x y z
#
# Youngs Moduli (GPa) = 39.15796 32.57684 37.89123
#
# Poissons Ratio (x) = 0.00103 0.53713
# Poissons Ratio (y) = 0.00124 0.54636
# Poissons Ratio (z) = 0.55509 0.46973
#
# Static dielectric constant tensor:
#      x y z
#    x 1.587130 0.000000 0.000000 
#    y 0.000000 1.508030 0.000000 
#    z 0.000000 0.000000 1.522060 
# 
# From -- ./inp_files/60142.got.cif
#   From: 2010.05.17/outbox.cif.g08.bks.cpg/sg65_31_cif.got.tgz:60142.got - 2010.06.03 17:01:31.
