data_PCOD9491352
_publ_section_title
;
Structure prediction by ZEFSAII (Michael W. Deem and Ramdas Pophale) SiO2 
 PCOD9491352
Probable space group: C M M M
;
_chemical_formula_sum "Si O2"
_cell_formula_units_Z 88
_cell_length_a 8.530361
_cell_length_b 19.851613
_cell_length_c 28.818976
_cell_angle_alpha 90.000000
_cell_angle_beta 90.000000
_cell_angle_gamma 90.000000
_cell_volume 4880.246472
_symmetry_space_group_name_H-M "C M M M"
_symmetry_group_IT_number 65
_symmetry_cell_setting 'orthorhombic'
loop_
_space_group_symop_operation_xyz
x,y,z
-x,-y,z
x,-y,-z
-x,y,-z
-x,-y,-z
x,y,-z
-x,y,z
x,-y,z
1/2+x,1/2+y,z
1/2-x,1/2-y,z
1/2+x,1/2-y,-z
1/2-x,1/2+y,-z
1/2-x,1/2-y,-z
1/2+x,1/2+y,-z
1/2-x,1/2+y,z
1/2+x,1/2-y,z
loop_
_atom_site_type_symbol
_atom_site_label
_atom_site_fract_x
_atom_site_fract_y
_atom_site_fract_z
Si Si1 0.689939 0.078082 0.101088
Si Si2 0.689681 0.922510 0.365424
Si Si3 0.689263 0.176261 0.446754
Si Si4 0.317625 0.918016 0.000000
Si Si5 0.812470 0.175796 0.820099
Si Si6 0.812024 0.824636 0.286558
O O1 0.500000 0.079835 0.099804
O O2 0.748994 0.122851 0.143054
O O3 0.736349 0.000000 0.107149
O O4 0.749092 0.102067 0.050110
O O5 0.500000 0.922838 0.365197
O O6 0.741077 0.881250 0.411154
O O7 0.747369 0.880486 0.321270
O O8 0.743204 0.000000 0.365270
O O9 0.740188 0.164200 0.500000
O O10 0.500000 0.178003 0.446329
O O11 0.750000 0.250000 0.432501
O O12 0.500000 0.896935 0.000000
O O13 0.316901 0.000000 0.000000
O O14 0.750000 0.250000 0.831671
O O15 0.763600 0.161335 0.766819
O O16 0.000000 0.176145 0.821357
O O17 0.750000 0.750000 0.298867
O O18 0.000000 0.823603 0.288787
#
# Coordination Sequence:
#
# PCOD9491352 Si02
#       6
#    16  16  16   8  16  16
#     4   9  17  31  53  78 103 133 168 206 249 298
#     4  10  21  35  52  77 107 137 170 209 252 299
#     4   9  18  33  53  76 102 134 172 211 250 295
#     4   7  12  26  48  73 100 131 167 203 242 293
#     4  10  21  36  53  74 101 132 168 210 255 303
#     4  10  21  37  56  75  98 132 171 211 255 303
#
# _framework density 18.031876
#
# number of rings (size 3 to 8) (size 9 to 14) (size 15 to 20)
#    0.000    2.636    0.000    2.727    0.000    6.182 
#    0.000    6.364    0.000    1.636    0.000    3.818 
#    0.000    0.000    0.000    0.000    0.000    0.000 
#
# Total GULP energy -245366.166870 kJ/mol
# GULP energy per Si atom -5576.503793 kJ/mol
# Density = 1.799083 g / cm^3
# Si number density = 18.031876 Si / 1000 Ang^3
#
#
#
# Elastic Constant Matrix: (Units=GPa)
#
#
# Indices 1 2 3 4 5 6 
#
# 1 12.0293 26.8090 26.2460 0.0000 0.0000 0.0000
# 2 26.8090 151.8284 120.2106 0.0000 0.0000 0.0000
# 3 26.2460 120.2106 143.6013 0.0000 0.0000 0.0000
# 4 0.0000 0.0000 0.0000 35.2443 0.0000 0.0000
# 5 0.0000 0.0000 0.0000 0.0000 18.5564 0.0000
# 6 0.0000 0.0000 0.0000 0.0000 0.0000 27.4842
#
#
#
# Elastic Compliance Matrix: (Units=1/GPa)
#
#
# Indices 1 2 3 4 5 6 
#
# 1 0.147599 -0.013948 -0.015301 0.000000 0.000000 0.000000
# 2 -0.013948 0.020850 -0.014904 0.000000 0.000000 0.000000
# 3 -0.015301 -0.014904 0.022237 0.000000 0.000000 0.000000
# 4 0.000000 0.000000 0.000000 0.028373 0.000000 0.000000
# 5 0.000000 0.000000 0.000000 0.000000 0.053890 0.000000
# 6 0.000000 0.000000 0.000000 0.000000 0.000000 0.036384
#
#
# Mechanical properties :
#
#
# Convention : Reuss Voigt Hill
#
# Bulk Modulus (GPa) = 9.76753 72.66555 41.21654
# Shear Modulus (GPa) = 11.58034 25.20323 18.39178
#
# Velocity S-wave (km/s) = 2.53695 3.74264 3.19715
# Velocity P-wave (km/s) = 3.74300 7.68521 6.04452
#
# Compressibility (1/GPa) = 0.10237998
#
# Stress axis : x y z
#
# Youngs Moduli (GPa) = 6.77510 47.96202 44.97012
#
# Poissons Ratio (x) = 0.66896 0.68808
# Poissons Ratio (y) = 0.09450 0.67026
# Poissons Ratio (z) = 0.10367 0.71485
#
# Static dielectric constant tensor:
#      x y z
#    x 1.620390 0.000000 0.000000 
#    y 0.000000 1.581360 0.000000 
#    z 0.000000 0.000000 1.639310 
# 
# From -- ./inp_files/76616.got.cif
#   From: 2010.05.17/outbox.cif.g08.bks.cpg/sg65_39_cif.got.tgz:76616.got - 2010.06.03 17:01:31.
