data_PCOD9491171
_publ_section_title
;
Structure prediction by ZEFSAII (Michael W. Deem and Ramdas Pophale) SiO2 
 PCOD9491171
Probable space group: C M M M
;
_chemical_formula_sum "Si O2"
_cell_formula_units_Z 88
_cell_length_a 19.448343
_cell_length_b 17.516182
_cell_length_c 14.131347
_cell_angle_alpha 90.000000
_cell_angle_beta 90.000000
_cell_angle_gamma 90.000000
_cell_volume 4813.994781
_symmetry_space_group_name_H-M "C M M M"
_symmetry_group_IT_number 65
_symmetry_cell_setting 'orthorhombic'
loop_
_space_group_symop_operation_xyz
x,y,z
-x,-y,z
x,-y,-z
-x,y,-z
-x,-y,-z
x,y,-z
-x,y,z
x,-y,z
1/2+x,1/2+y,z
1/2-x,1/2-y,z
1/2+x,1/2-y,-z
1/2-x,1/2+y,-z
1/2-x,1/2-y,-z
1/2+x,1/2+y,-z
1/2-x,1/2+y,z
1/2+x,1/2-y,z
loop_
_atom_site_type_symbol
_atom_site_label
_atom_site_fract_x
_atom_site_fract_y
_atom_site_fract_z
Si Si1 0.205509 0.908410 0.783045
Si Si2 0.339256 0.908000 0.108049
Si Si3 0.796200 0.591755 0.395589
Si Si4 0.916797 0.086736 0.500000
Si Si5 0.579434 0.845178 0.286009
Si Si6 0.920338 0.163052 0.700270
O O1 0.259855 0.889789 0.865471
O O2 0.245327 0.882921 0.687474
O O3 0.131653 0.869677 0.778216
O O4 0.196903 0.000000 0.780885
O O5 0.388199 0.868973 0.185048
O O6 0.346200 0.000000 0.119231
O O7 0.354802 0.887861 0.000000
O O8 0.778061 0.619995 0.500000
O O9 0.793723 0.500000 0.395965
O O10 0.872191 0.616684 0.364621
O O11 0.899190 0.129259 0.597431
O O12 0.000000 0.082498 0.500000
O O13 0.888781 0.000000 0.500000
O O14 0.500000 0.868816 0.292059
O O15 0.583287 0.754256 0.299543
O O16 0.000000 0.140732 0.716573
#
# Coordination Sequence:
#
# PCOD9491171 Si02
#       6
#    16  16  16   8  16  16
#     4   9  18  34  55  77 104 136 175 223 270 316
#     4   9  19  37  60  83 104 133 179 228 272 322
#     4   9  19  33  49  72 101 138 181 217 258 317
#     4   9  18  32  50  73 101 141 190 225 253 295
#     4  10  21  35  51  75 111 142 172 219 272 321
#     4  10  21  34  50  77 111 143 179 221 265 314
#
# _framework density 18.280037
#
# number of rings (size 3 to 8) (size 9 to 14) (size 15 to 20)
#    0.000    2.636    0.000    2.182    2.545    6.182 
#    0.000    4.545    0.000    1.636    0.000    2.545 
#    0.000    0.000    0.000    0.000    0.000    0.000 
#
# Total GULP energy -245385.169011 kJ/mol
# GULP energy per Si atom -5576.935659 kJ/mol
# Density = 1.823843 g / cm^3
# Si number density = 18.280037 Si / 1000 Ang^3
#
#
#
# Elastic Constant Matrix: (Units=GPa)
#
#
# Indices 1 2 3 4 5 6 
#
# 1 71.0847 11.2719 -3.9279 0.0000 0.0000 0.0000
# 2 11.2719 22.4462 21.4252 0.0000 0.0000 0.0000
# 3 -3.9279 21.4252 60.2017 0.0000 0.0000 0.0000
# 4 0.0000 0.0000 0.0000 18.7501 0.0000 0.0000
# 5 0.0000 0.0000 0.0000 0.0000 17.6610 0.0000
# 6 0.0000 0.0000 0.0000 0.0000 0.0000 27.4829
#
#
#
# Elastic Compliance Matrix: (Units=1/GPa)
#
#
# Indices 1 2 3 4 5 6 
#
# 1 0.016667 -0.014248 0.006158 0.000000 0.000000 0.000000
# 2 -0.014248 0.079651 -0.029277 0.000000 0.000000 0.000000
# 3 0.006158 -0.029277 0.027432 0.000000 0.000000 0.000000
# 4 0.000000 0.000000 0.000000 0.053333 0.000000 0.000000
# 5 0.000000 0.000000 0.000000 0.000000 0.056622 0.000000
# 6 0.000000 0.000000 0.000000 0.000000 0.000000 0.036386
#
#
# Mechanical properties :
#
#
# Convention : Reuss Voigt Hill
#
# Bulk Modulus (GPa) = 20.40095 23.47455 21.93775
# Shear Modulus (GPa) = 13.84416 21.10970 17.47693
#
# Velocity S-wave (km/s) = 2.75496 3.40191 3.09539
# Velocity P-wave (km/s) = 4.61565 5.31979 4.98018
#
# Compressibility (1/GPa) = 0.04901733
#
# Stress axis : x y z
#
# Youngs Moduli (GPa) = 59.99780 12.55479 36.45390
#
# Poissons Ratio (x) = 0.17888 -0.22449
# Poissons Ratio (y) = 0.85484 1.06725
# Poissons Ratio (z) = -0.36948 0.36756
#
# Static dielectric constant tensor:
#      x y z
#    x 1.650920 0.000000 0.000000 
#    y 0.000000 1.615470 0.000000 
#    z 0.000000 0.000000 1.619520 
# 
# From -- ./inp_files/40214.got.cif
#   From: 2010.05.17/outbox.cif.g08.bks.cpg/sg65_21_cif.got.tgz:40214.got - 2010.06.03 17:01:31.
