data_PCOD9491772
_publ_section_title
;
Structure prediction by ZEFSAII (Michael W. Deem and Ramdas Pophale) SiO2 
 PCOD9491772
Probable space group: C M M M
;
_chemical_formula_sum "Si O2"
_cell_formula_units_Z 104
_cell_length_a 29.297405
_cell_length_b 10.523819
_cell_length_c 18.449012
_cell_angle_alpha 90.000000
_cell_angle_beta 90.000000
_cell_angle_gamma 90.000000
_cell_volume 5688.210217
_symmetry_space_group_name_H-M "C M M M"
_symmetry_group_IT_number 65
_symmetry_cell_setting 'orthorhombic'
loop_
_space_group_symop_operation_xyz
x,y,z
-x,-y,z
x,-y,-z
-x,y,-z
-x,-y,-z
x,y,-z
-x,y,z
x,-y,z
1/2+x,1/2+y,z
1/2-x,1/2-y,z
1/2+x,1/2-y,-z
1/2-x,1/2+y,-z
1/2-x,1/2-y,-z
1/2+x,1/2+y,-z
1/2-x,1/2+y,z
1/2+x,1/2-y,z
loop_
_atom_site_type_symbol
_atom_site_label
_atom_site_fract_x
_atom_site_fract_y
_atom_site_fract_z
Si Si1 0.877751 0.353857 0.416176
Si Si2 0.114256 0.264419 0.914670
Si Si3 0.945825 0.150708 0.355889
Si Si4 0.949514 0.148344 0.191995
Si Si5 0.949398 0.500000 0.912671
Si Si6 0.210524 0.648570 0.145503
Si Si7 0.211478 0.353655 0.681158
O O1 0.862957 0.348098 0.500000
O O2 0.893969 0.500000 0.402698
O O3 0.915688 0.246595 0.402670
O O4 0.834663 0.331275 0.363611
O O5 0.091998 0.159843 0.863640
O O6 0.080368 0.379181 0.894121
O O7 0.164846 0.307408 0.894877
O O8 0.110760 0.236665 0.000000
O O9 0.939434 0.198323 0.272469
O O10 0.000000 0.158533 0.371545
O O11 0.933054 0.000000 0.363040
O O12 0.000000 0.194887 0.165967
O O13 0.955080 0.000000 0.205110
O O14 0.000000 0.500000 0.881795
O O15 0.952885 0.500000 0.000000
O O16 0.221099 0.500000 0.128227
O O17 0.250000 0.750000 0.127541
O O18 0.202716 0.655890 0.232313
O O19 0.226380 0.500000 0.667121
O O20 0.250000 0.250000 0.662935
#
# Coordination Sequence:
#
# PCOD9491772 Si02
#       7
#    16  16  16  16   8  16  16
#     4  10  21  36  55  83 118 149 178 221 276 330
#     4  11  21  34  54  79 109 144 183 228 284 340
#     4   9  19  37  58  79 108 148 192 232 269 320
#     4   9  19  36  56  79 109 144 183 230 282 335
#     4   9  18  32  50  74 106 140 175 219 274 332
#     4  10  21  38  58  79 106 144 190 238 283 334
#     4   9  19  36  57  80 106 141 183 228 276 329
#
# _framework density 18.283431
#
# number of rings (size 3 to 8) (size 9 to 14) (size 15 to 20)
#    0.000    2.385    0.769    2.308    0.000    4.000 
#    1.385    5.385    0.000    0.000    0.000    0.000 
#    0.000    0.000    0.000    0.000    0.000    0.000 
#
# Total GULP energy -289625.728848 kJ/mol
# GULP energy per Si atom -5569.725555 kJ/mol
# Density = 1.824182 g / cm^3
# Si number density = 18.283431 Si / 1000 Ang^3
#
#
#
# Elastic Constant Matrix: (Units=GPa)
#
#
# Indices 1 2 3 4 5 6 
#
# 1 70.6938 21.7639 14.0299 0.0000 0.0000 0.0000
# 2 21.7639 52.2562 10.0888 0.0000 0.0000 0.0000
# 3 14.0299 10.0888 20.1768 0.0000 0.0000 0.0000
# 4 0.0000 0.0000 0.0000 15.6043 0.0000 0.0000
# 5 0.0000 0.0000 0.0000 0.0000 5.8022 0.0000
# 6 0.0000 0.0000 0.0000 0.0000 0.0000 66.2344
#
#
#
# Elastic Compliance Matrix: (Units=1/GPa)
#
#
# Indices 1 2 3 4 5 6 
#
# 1 0.017752 -0.005546 -0.009571 0.000000 0.000000 0.000000
# 2 -0.005546 0.022914 -0.007601 0.000000 0.000000 0.000000
# 3 -0.009571 -0.007601 0.060018 0.000000 0.000000 0.000000
# 4 0.000000 0.000000 0.000000 0.064085 0.000000 0.000000
# 5 0.000000 0.000000 0.000000 0.000000 0.172348 0.000000
# 6 0.000000 0.000000 0.000000 0.000000 0.000000 0.015098
#
#
# Mechanical properties :
#
#
# Convention : Reuss Voigt Hill
#
# Bulk Modulus (GPa) = 18.10017 26.09909 22.09963
# Shear Modulus (GPa) = 12.01732 24.01112 18.01422
#
# Velocity S-wave (km/s) = 2.56653 3.62784 3.14232
# Velocity P-wave (km/s) = 4.32481 5.64394 5.02782
#
# Compressibility (1/GPa) = 0.05524809
#
# Stress axis : x y z
#
# Youngs Moduli (GPa) = 56.33066 43.64199 16.66170
#
# Poissons Ratio (x) = 0.24203 0.15947
# Poissons Ratio (y) = 0.31239 0.12665
# Poissons Ratio (z) = 0.53915 0.33173
#
# Static dielectric constant tensor:
#      x y z
#    x 1.613840 0.000000 0.000000 
#    y 0.000000 2.791070 0.000000 
#    z 0.000000 0.000000 1.625250 
# 
# From -- ./inp_files/57542.got.cif
#   From: 2010.05.17/outbox.cif.g08.bks.cpg/sg65_29_cif.got.tgz:57542.got - 2010.06.03 17:01:31.
