data_PCOD9491776
_publ_section_title
;
Structure prediction by ZEFSAII (Michael W. Deem and Ramdas Pophale) SiO2 
 PCOD9491776
Probable space group: C M M M
;
_chemical_formula_sum "Si O2"
_cell_formula_units_Z 104
_cell_length_a 20.343910
_cell_length_b 26.283473
_cell_length_c 8.977101
_cell_angle_alpha 90.000000
_cell_angle_beta 90.000000
_cell_angle_gamma 90.000000
_cell_volume 4800.133190
_symmetry_space_group_name_H-M "C M M M"
_symmetry_group_IT_number 65
_symmetry_cell_setting 'orthorhombic'
loop_
_space_group_symop_operation_xyz
x,y,z
-x,-y,z
x,-y,-z
-x,y,-z
-x,-y,-z
x,y,-z
-x,y,z
x,-y,z
1/2+x,1/2+y,z
1/2-x,1/2-y,z
1/2+x,1/2-y,-z
1/2-x,1/2+y,-z
1/2-x,1/2-y,-z
1/2+x,1/2+y,-z
1/2-x,1/2+y,z
1/2+x,1/2-y,z
loop_
_atom_site_type_symbol
_atom_site_label
_atom_site_fract_x
_atom_site_fract_y
_atom_site_fract_z
Si Si1 0.919272 0.000000 0.829230
Si Si2 0.379577 0.296243 0.824189
Si Si3 0.290729 0.943854 0.320502
Si Si4 0.754145 0.166446 0.326385
Si Si5 0.427636 0.087864 0.821824
Si Si6 0.399083 0.193434 0.673357
Si Si7 0.078266 0.101347 0.332175
O O1 0.896549 0.050360 0.744931
O O2 0.000000 0.000000 0.829071
O O3 0.898354 0.000000 0.000000
O O4 0.303574 0.302007 0.774676
O O5 0.412417 0.248341 0.742639
O O6 0.408642 0.348950 0.764000
O O7 0.386174 0.291126 0.000000
O O8 0.295991 0.941592 0.500000
O O9 0.249447 0.893287 0.279794
O O10 0.364148 0.937399 0.254045
O O11 0.265285 0.000000 0.278425
O O12 0.774245 0.171244 0.500000
O O13 0.679746 0.185817 0.318681
O O14 0.500000 0.066311 0.783803
O O15 0.426948 0.146288 0.765877
O O16 0.419996 0.085716 0.000000
O O17 0.418425 0.190457 0.500000
O O18 0.104381 0.106450 0.500000
O O19 0.000000 0.095551 0.342651
#
# Coordination Sequence:
#
# PCOD9491776 Si02
#       7
#     8  16  16  16  16  16  16
#     4   9  17  33  57  81 107 137 169 213 268 319
#     4  12  24  36  55  84 115 146 182 229 282 335
#     4   9  19  37  60  84 112 150 193 237 284 331
#     4   9  19  37  58  80 109 144 187 233 277 333
#     4  10  21  36  55  83 118 153 189 231 283 340
#     4  10  21  38  60  81 107 146 188 232 279 332
#     4  10  21  38  59  81 107 144 187 225 267 324
#
# _framework density 21.666067000000002
#
# number of rings (size 3 to 8) (size 9 to 14) (size 15 to 20)
#    0.000    2.077    0.000    4.385    0.000    9.231 
#    1.385    1.538    0.000    0.000    0.000    0.000 
#    0.000    0.000    0.000    0.000    0.000    0.000 
#
# Total GULP energy -290673.733851 kJ/mol
# GULP energy per Si atom -5589.879497 kJ/mol
# Density = 2.161675 g / cm^3
# Si number density = 21.666067 Si / 1000 Ang^3
#
#
#
# Elastic Constant Matrix: (Units=GPa)
#
#
# Indices 1 2 3 4 5 6 
#
# 1 40.7889 -4.5212 7.7733 0.0000 0.0000 0.0000
# 2 -4.5212 122.6725 10.4117 0.0000 0.0000 0.0000
# 3 7.7733 10.4117 51.7034 0.0000 0.0000 0.0000
# 4 0.0000 0.0000 0.0000 12.6969 0.0000 0.0000
# 5 0.0000 0.0000 0.0000 0.0000 11.9148 0.0000
# 6 0.0000 0.0000 0.0000 0.0000 0.0000 1.0207
#
#
#
# Elastic Compliance Matrix: (Units=1/GPa)
#
#
# Indices 1 2 3 4 5 6 
#
# 1 0.025437 0.001284 -0.004083 0.000000 0.000000 0.000000
# 2 0.001284 0.008358 -0.001876 0.000000 0.000000 0.000000
# 3 -0.004083 -0.001876 0.020333 0.000000 0.000000 0.000000
# 4 0.000000 0.000000 0.000000 0.078760 0.000000 0.000000
# 5 0.000000 0.000000 0.000000 0.000000 0.083929 0.000000
# 6 0.000000 0.000000 0.000000 0.000000 0.000000 0.979710
#
#
# Mechanical properties :
#
#
# Convention : Reuss Voigt Hill
#
# Bulk Modulus (GPa) = 22.33245 26.94362 24.63803
# Shear Modulus (GPa) = 4.09566 18.55986 11.32776
#
# Velocity S-wave (km/s) = 1.37639 2.93000 2.28904
# Velocity P-wave (km/s) = 3.58551 4.88973 4.28750
#
# Compressibility (1/GPa) = 0.04477790
#
# Stress axis : x y z
#
# Youngs Moduli (GPa) = 39.31295 119.64083 49.18180
#
# Poissons Ratio (x) = -0.15362 0.20080
# Poissons Ratio (y) = -0.05048 0.09227
# Poissons Ratio (z) = 0.16051 0.22447
#
# Static dielectric constant tensor:
#      x y z
#    x 1.847920 0.000000 0.000000 
#    y 0.000000 1.795860 0.000000 
#    z 0.000000 0.000000 1.725290 
# 
# From -- ./inp_files/12421.got.cif
#   From: 2010.05.17/outbox.cif.g08.bks.cpg/sg65_7_cif.got.tgz:12421.got - 2010.06.03 17:01:31.
