data_PCOD9491872
_publ_section_title
;
Structure prediction by ZEFSAII (Michael W. Deem and Ramdas Pophale) SiO2 
 PCOD9491872
Probable space group: C M M M
;
_chemical_formula_sum "Si O2"
_cell_formula_units_Z 50
_cell_length_a 16.930284
_cell_length_b 14.958315
_cell_length_c 9.264174
_cell_angle_alpha 90.000000
_cell_angle_beta 90.000000
_cell_angle_gamma 90.000000
_cell_volume 2346.138365
_symmetry_space_group_name_H-M "C M M M"
_symmetry_group_IT_number 65
_symmetry_cell_setting 'orthorhombic'
loop_
_space_group_symop_operation_xyz
x,y,z
-x,-y,z
x,-y,-z
-x,y,-z
-x,-y,-z
x,y,-z
-x,y,z
x,-y,z
1/2+x,1/2+y,z
1/2-x,1/2-y,z
1/2+x,1/2-y,-z
1/2-x,1/2+y,-z
1/2-x,1/2-y,-z
1/2+x,1/2+y,-z
1/2-x,1/2+y,z
1/2+x,1/2-y,z
loop_
_atom_site_type_symbol
_atom_site_label
_atom_site_fract_x
_atom_site_fract_y
_atom_site_fract_z
Si Si1 0.833827 0.500000 0.659774
Si Si2 0.093718 0.174239 0.661991
Si Si3 0.000000 0.500000 0.500000
Si Si4 0.903316 0.000000 0.835069
Si Si5 0.823016 0.319213 0.168915
O O1 0.795447 0.500000 0.500000
O O2 0.928193 0.500000 0.623361
O O3 0.811966 0.588110 0.748747
O O4 0.127441 0.179185 0.500000
O O5 0.122580 0.088540 0.751242
O O6 0.109101 0.264290 0.749190
O O7 0.000000 0.162114 0.649084
O O8 0.000000 0.000000 0.839367
O O9 0.875186 0.000000 0.000000
O O10 0.750000 0.250000 0.180579
O O11 0.839119 0.333638 0.000000
#
# Coordination Sequence:
#
# PCOD9491872 Si02
#       5
#     8  16   2   8  16
#     4  10  23  44  70  95 134 168 218 272 336 387
#     4  10  21  36  59  87 121 160 209 263 324 391
#     4   8  24  44  70 104 136 162 220 288 328 396
#     4   9  17  32  53  83 117 152 194 244 299 364
#     4  11  25  43  63  92 128 169 216 268 328 395
#
# _framework density 21.311616000000001
#
# number of rings (size 3 to 8) (size 9 to 14) (size 15 to 20)
#    0.480    1.440    0.000    2.880    2.240    7.680 
#    0.000    2.400    0.000    0.000    0.000    0.000 
#    0.000    0.000    0.000    0.000    0.000    0.000 
#
# Total GULP energy -139398.501566 kJ/mol
# GULP energy per Si atom -5575.940063 kJ/mol
# Density = 2.126311 g / cm^3
# Si number density = 21.311616 Si / 1000 Ang^3
#
#
#
# Elastic Constant Matrix: (Units=GPa)
#
#
# Indices 1 2 3 4 5 6 
#
# 1 48.2825 8.3145 26.0312 0.0000 0.0000 0.0000
# 2 8.3145 207.6715 127.7206 0.0000 0.0000 0.0000
# 3 26.0312 127.7206 237.1214 0.0000 0.0000 0.0000
# 4 0.0000 0.0000 0.0000 49.2548 0.0000 0.0000
# 5 0.0000 0.0000 0.0000 0.0000 18.4473 0.0000
# 6 0.0000 0.0000 0.0000 0.0000 0.0000 7.2735
#
#
#
# Elastic Compliance Matrix: (Units=1/GPa)
#
#
# Indices 1 2 3 4 5 6 
#
# 1 0.022129 0.000909 -0.002919 0.000000 0.000000 0.000000
# 2 0.000909 0.007238 -0.003998 0.000000 0.000000 0.000000
# 3 -0.002919 -0.003998 0.006691 0.000000 0.000000 0.000000
# 4 0.000000 0.000000 0.000000 0.020303 0.000000 0.000000
# 5 0.000000 0.000000 0.000000 0.000000 0.054209 0.000000
# 6 0.000000 0.000000 0.000000 0.000000 0.000000 0.137486
#
#
# Mechanical properties :
#
#
# Convention : Reuss Voigt Hill
#
# Bulk Modulus (GPa) = 41.59449 90.80088 66.19768
# Shear Modulus (GPa) = 18.65079 37.06238 27.85659
#
# Velocity S-wave (km/s) = 2.96150 4.17474 3.61932
# Velocity P-wave (km/s) = 5.59049 8.12014 6.97102
#
# Compressibility (1/GPa) = 0.02404165
#
# Stress axis : x y z
#
# Youngs Moduli (GPa) = 45.19029 138.16050 149.44650
#
# Poissons Ratio (x) = -0.12563 0.43624
# Poissons Ratio (y) = -0.04109 0.59755
# Poissons Ratio (z) = 0.13191 0.55242
#
# Static dielectric constant tensor:
#      x y z
#    x 1.836030 0.000000 0.000000 
#    y 0.000000 1.743530 0.000000 
#    z 0.000000 0.000000 1.744370 
# 
# From -- ./inp_files/8215.got.cif
#   From: 2010.05.17/outbox.cif.g08.bks.cpg/sg65_5_cif.got.tgz:8215.got - 2010.06.03 17:01:31.
