data_PCOD9491891
_publ_section_title
;
Structure prediction by ZEFSAII (Michael W. Deem and Ramdas Pophale) SiO2 
 PCOD9491891
Probable space group: C M M M
;
_chemical_formula_sum "Si O2"
_cell_formula_units_Z 72
_cell_length_a 16.765155
_cell_length_b 15.460138
_cell_length_c 13.988436
_cell_angle_alpha 90.000000
_cell_angle_beta 90.000000
_cell_angle_gamma 90.000000
_cell_volume 3625.685247
_symmetry_space_group_name_H-M "C M M M"
_symmetry_group_IT_number 65
_symmetry_cell_setting 'orthorhombic'
loop_
_space_group_symop_operation_xyz
x,y,z
-x,-y,z
x,-y,-z
-x,y,-z
-x,-y,-z
x,y,-z
-x,y,z
x,-y,z
1/2+x,1/2+y,z
1/2-x,1/2-y,z
1/2+x,1/2-y,-z
1/2-x,1/2+y,-z
1/2-x,1/2-y,-z
1/2+x,1/2+y,-z
1/2-x,1/2+y,z
1/2+x,1/2-y,z
loop_
_atom_site_type_symbol
_atom_site_label
_atom_site_fract_x
_atom_site_fract_y
_atom_site_fract_z
Si Si1 0.500000 0.393858 0.111781
Si Si2 0.830130 0.606073 0.893494
Si Si3 0.912917 0.396335 0.702128
Si Si4 0.665833 0.603342 0.199436
Si Si5 0.251442 0.352987 0.394551
O O1 0.500000 0.500000 0.114911
O O2 0.419362 0.363458 0.164163
O O3 0.500000 0.370065 0.000000
O O4 0.830584 0.500000 0.893201
O O5 0.887919 0.634760 0.808127
O O6 0.740815 0.634416 0.863995
O O7 0.851308 0.634403 0.000000
O O8 0.918024 0.500000 0.707800
O O9 0.838492 0.378765 0.633792
O O10 0.000000 0.362694 0.673116
O O11 0.663983 0.500000 0.186857
O O12 0.689738 0.620032 0.309196
O O13 0.272515 0.386493 0.500000
O O14 0.250000 0.250000 0.397043
#
# Coordination Sequence:
#
# PCOD9491891 Si02
#       5
#     8  16  16  16  16
#     4   9  16  28  51  81 107 131 165 206 246 296
#     4   8  13  23  43  72 104 133 160 196 245 299
#     4   9  18  32  52  79 104 129 166 213 260 301
#     4   9  17  30  50  77 103 131 169 212 254 292
#     4  10  21  37  53  71  96 134 176 209 257 315
#
# _framework density 19.858315000000001
#
# number of rings (size 3 to 8) (size 9 to 14) (size 15 to 20)
#    0.000    3.000    0.000    2.667    0.000    5.333 
#    2.000    3.889    0.000   18.667    0.000    0.000 
#    0.000    0.000    0.000    0.000    0.000    0.000 
#
# Total GULP energy -200698.177014 kJ/mol
# GULP energy per Si atom -5574.949362 kJ/mol
# Density = 1.981312 g / cm^3
# Si number density = 19.858315 Si / 1000 Ang^3
#
#
#
# Elastic Constant Matrix: (Units=GPa)
#
#
# Indices 1 2 3 4 5 6 
#
# 1 129.1793 13.5995 41.5936 0.0000 0.0000 0.0000
# 2 13.5995 17.8536 -2.5233 0.0000 0.0000 0.0000
# 3 41.5936 -2.5233 100.1068 0.0000 0.0000 0.0000
# 4 0.0000 0.0000 0.0000 -50.3249 0.0000 0.0000
# 5 0.0000 0.0000 0.0000 0.0000 5.6814 0.0000
# 6 0.0000 0.0000 0.0000 0.0000 0.0000 -5.9952
#
#
#
# Elastic Compliance Matrix: (Units=1/GPa)
#
#
# Indices 1 2 3 4 5 6 
#
# 1 0.010016 -0.008247 -0.004370 0.000000 0.000000 0.000000
# 2 -0.008247 0.063002 0.005015 0.000000 0.000000 0.000000
# 3 -0.004370 0.005015 0.011931 0.000000 0.000000 0.000000
# 4 0.000000 0.000000 0.000000 -0.019871 0.000000 0.000000
# 5 0.000000 0.000000 0.000000 0.000000 0.176012 0.000000
# 6 0.000000 0.000000 0.000000 0.000000 0.000000 -0.166801
#
#
# Mechanical properties :
#
#
# Convention : Reuss Voigt Hill
#
# Bulk Modulus (GPa) = 14.33791 39.16436 26.75114
# Shear Modulus (GPa) = 44.34879 2.83694 23.59286
#
# Velocity S-wave (km/s) = 4.73087 1.19653 3.45056
# Velocity P-wave (km/s) = 6.08911 4.65549 5.41991
#
# Compressibility (1/GPa) = 0.06974518
#
# Stress axis : x y z
#
# Youngs Moduli (GPa) = 99.83671 15.87256 83.81338
#
# Poissons Ratio (x) = 0.13090 0.36623
# Poissons Ratio (y) = 0.82338 -0.42030
# Poissons Ratio (z) = 0.43625 -0.07960
#
# Static dielectric constant tensor:
#      x y z
#    x 1.672610 0.000000 0.000000 
#    y 0.000000 1.351760 0.000000 
#    z 0.000000 0.000000 1.701180 
# 
# From -- ./inp_files/39821.got.cif
#   From: 2010.05.17/outbox.cif.g08.bks.cpg/sg65_20_cif.got.tgz:39821.got - 2010.06.03 17:01:31.
