data_PCOD9491354
_publ_section_title
;
Structure prediction by ZEFSAII (Michael W. Deem and Ramdas Pophale) SiO2 
 PCOD9491354
Probable space group: C M M M
;
_chemical_formula_sum "Si O2"
_cell_formula_units_Z 80
_cell_length_a 19.776778
_cell_length_b 9.076413
_cell_length_c 25.487108
_cell_angle_alpha 90.000000
_cell_angle_beta 90.000000
_cell_angle_gamma 90.000000
_cell_volume 4574.992083
_symmetry_space_group_name_H-M "C M M M"
_symmetry_group_IT_number 65
_symmetry_cell_setting 'orthorhombic'
loop_
_space_group_symop_operation_xyz
x,y,z
-x,-y,z
x,-y,-z
-x,y,-z
-x,-y,-z
x,y,-z
-x,y,z
x,-y,z
1/2+x,1/2+y,z
1/2-x,1/2-y,z
1/2+x,1/2-y,-z
1/2-x,1/2+y,-z
1/2-x,1/2-y,-z
1/2+x,1/2+y,-z
1/2-x,1/2+y,z
1/2+x,1/2-y,z
loop_
_atom_site_type_symbol
_atom_site_label
_atom_site_fract_x
_atom_site_fract_y
_atom_site_fract_z
Si Si1 0.321523 0.325108 0.358681
Si Si2 0.580042 0.175851 0.440269
Si Si3 0.578925 0.822361 0.153249
Si Si4 0.177726 0.175784 0.235602
Si Si5 0.820867 0.676794 0.060564
O O1 0.316044 0.500000 0.365070
O O2 0.250000 0.250000 0.371088
O O3 0.377744 0.260360 0.396891
O O4 0.336123 0.295076 0.297219
O O5 0.599573 0.216990 0.500000
O O6 0.500000 0.203523 0.434683
O O7 0.590410 0.000000 0.434862
O O8 0.500000 0.781796 0.151599
O O9 0.619486 0.744715 0.199943
O O10 0.618747 0.783675 0.099750
O O11 0.582975 0.000000 0.159552
O O12 0.250000 0.250000 0.222711
O O13 0.182396 0.000000 0.227903
O O14 0.812870 0.500000 0.062250
O O15 0.750000 0.750000 0.076804
O O16 0.834356 0.719168 0.000000
#
# Coordination Sequence:
#
# PCOD9491354 Si02
#       5
#    16  16  16  16  16
#     4  10  21  36  55  79 105 135 173 216 261 308
#     4   9  19  36  56  78 106 140 175 211 255 307
#     4  10  21  35  52  77 107 139 175 213 257 309
#     4  10  21  37  56  77 103 136 174 216 261 309
#     4   9  18  33  53  76 102 134 173 215 257 304
#
# _framework density 17.486369
#
# number of rings (size 3 to 8) (size 9 to 14) (size 15 to 20)
#    0.000    2.400    0.000    2.400    0.000    7.600 
#    0.000    7.000    0.000    0.000    0.000    4.200 
#    0.000    0.000    0.000    0.000    0.000    0.000 
#
# Total GULP energy -223251.728713 kJ/mol
# GULP energy per Si atom -5581.293218 kJ/mol
# Density = 1.744657 g / cm^3
# Si number density = 17.486369 Si / 1000 Ang^3
#
#
#
# Elastic Constant Matrix: (Units=GPa)
#
#
# Indices 1 2 3 4 5 6 
#
# 1 152.0280 64.5945 104.0177 0.0000 0.0000 0.0000
# 2 64.5945 42.6002 60.6884 0.0000 0.0000 0.0000
# 3 104.0177 60.6884 111.0912 0.0000 0.0000 0.0000
# 4 0.0000 0.0000 0.0000 30.5014 0.0000 0.0000
# 5 0.0000 0.0000 0.0000 0.0000 105.4962 0.0000
# 6 0.0000 0.0000 0.0000 0.0000 0.0000 33.8851
#
#
#
# Elastic Compliance Matrix: (Units=1/GPa)
#
#
# Indices 1 2 3 4 5 6 
#
# 1 0.020729 -0.017051 -0.010094 0.000000 0.000000 0.000000
# 2 -0.017051 0.119885 -0.049527 0.000000 0.000000 0.000000
# 3 -0.010094 -0.049527 0.045510 0.000000 0.000000 0.000000
# 4 0.000000 0.000000 0.000000 0.032785 0.000000 0.000000
# 5 0.000000 0.000000 0.000000 0.000000 0.009479 0.000000
# 6 0.000000 0.000000 0.000000 0.000000 0.000000 0.029511
#
#
# Mechanical properties :
#
#
# Convention : Reuss Voigt Hill
#
# Bulk Modulus (GPa) = 30.50760 84.92453 57.71606
# Shear Modulus (GPa) = 11.84357 39.07112 25.45735
#
# Velocity S-wave (km/s) = 2.60533 4.73205 3.81969
# Velocity P-wave (km/s) = 5.15118 8.86160 7.24785
#
# Compressibility (1/GPa) = 0.03277872
#
# Stress axis : x y z
#
# Youngs Moduli (GPa) = 48.24191 8.34134 21.97334
#
# Poissons Ratio (x) = 0.14223 0.22181
# Poissons Ratio (y) = 0.82256 1.08828
# Poissons Ratio (z) = 0.48697 0.41312
#
# Static dielectric constant tensor:
#      x y z
#    x 1.558710 0.000000 0.000000 
#    y 0.000000 1.581100 0.000000 
#    z 0.000000 0.000000 1.595540 
# 
# From -- ./inp_files/72753.got.cif
#   From: 2010.05.17/outbox.cif.g08.bks.cpg/sg65_37_cif.got.tgz:72753.got - 2010.06.03 17:01:31.
