data_PCOD9491742
_publ_section_title
;
Structure prediction by ZEFSAII (Michael W. Deem and Ramdas Pophale) SiO2 
 PCOD9491742
Probable space group: C M M M
;
_chemical_formula_sum "Si O2"
_cell_formula_units_Z 64
_cell_length_a 7.709332
_cell_length_b 19.070516
_cell_length_c 22.413040
_cell_angle_alpha 90.000000
_cell_angle_beta 90.000000
_cell_angle_gamma 90.000000
_cell_volume 3295.186192
_symmetry_space_group_name_H-M "C M M M"
_symmetry_group_IT_number 65
_symmetry_cell_setting 'orthorhombic'
loop_
_space_group_symop_operation_xyz
x,y,z
-x,-y,z
x,-y,-z
-x,y,-z
-x,-y,-z
x,y,-z
-x,y,z
x,-y,z
1/2+x,1/2+y,z
1/2-x,1/2-y,z
1/2+x,1/2-y,-z
1/2-x,1/2+y,-z
1/2-x,1/2-y,-z
1/2+x,1/2+y,-z
1/2-x,1/2+y,z
1/2+x,1/2-y,z
loop_
_atom_site_type_symbol
_atom_site_label
_atom_site_fract_x
_atom_site_fract_y
_atom_site_fract_z
Si Si1 0.290855 0.831837 0.000000
Si Si2 0.794584 0.421193 0.111655
Si Si3 0.708112 0.331430 0.638396
Si Si4 0.500000 0.082638 0.428741
Si Si5 0.705574 0.669904 0.223740
O O1 0.250000 0.750000 0.000000
O O2 0.224360 0.871696 0.059004
O O3 0.500000 0.836152 0.000000
O O4 0.721739 0.500000 0.110778
O O5 0.774257 0.383969 0.175240
O O6 0.000000 0.427003 0.100731
O O7 0.500000 0.342907 0.632263
O O8 0.750000 0.250000 0.624557
O O9 0.829325 0.380479 0.598591
O O10 0.761645 0.342059 0.707913
O O11 0.500000 0.091011 0.500000
O O12 0.500000 0.000000 0.414598
O O13 0.500000 0.663676 0.223638
O O14 0.750000 0.750000 0.207193
#
# Coordination Sequence:
#
# PCOD9491742 Si02
#       5
#     8  16  16   8  16
#     4  10  21  37  55  77 107 144 195 244 294 352
#     4  10  21  36  55  80 112 152 192 237 295 356
#     4  10  21  41  67  96 128 166 216 267 314 371
#     4  11  26  44  64  96 135 172 212 260 318 382
#     4  10  21  36  59  87 117 150 193 245 294 352
#
# _framework density 19.422270999999999
#
# number of rings (size 3 to 8) (size 9 to 14) (size 15 to 20)
#    0.000    1.875    1.250    1.875    3.500    7.500 
#    0.000    3.750    0.000    2.250    0.000    0.000 
#    0.000    0.000    0.000    0.000    0.000    0.000 
#
# Total GULP energy -178692.498456 kJ/mol
# GULP energy per Si atom -5584.140577 kJ/mol
# Density = 1.937807 g / cm^3
# Si number density = 19.422271 Si / 1000 Ang^3
#
#
#
# Elastic Constant Matrix: (Units=GPa)
#
#
# Indices 1 2 3 4 5 6 
#
# 1 78.1287 47.7295 41.0888 0.0000 0.0000 0.0000
# 2 47.7295 188.9761 114.2662 0.0000 0.0000 0.0000
# 3 41.0888 114.2662 107.6116 0.0000 0.0000 0.0000
# 4 0.0000 0.0000 0.0000 78.9513 0.0000 0.0000
# 5 0.0000 0.0000 0.0000 0.0000 -68.6396 0.0000
# 6 0.0000 0.0000 0.0000 0.0000 0.0000 25.0068
#
#
#
# Elastic Compliance Matrix: (Units=1/GPa)
#
#
# Indices 1 2 3 4 5 6 
#
# 1 0.016079 -0.000975 -0.005105 0.000000 0.000000 0.000000
# 2 -0.000975 0.014842 -0.015388 0.000000 0.000000 0.000000
# 3 -0.005105 -0.015388 0.027581 0.000000 0.000000 0.000000
# 4 0.000000 0.000000 0.000000 0.012666 0.000000 0.000000
# 5 0.000000 0.000000 0.000000 0.000000 -0.014569 0.000000
# 6 0.000000 0.000000 0.000000 0.000000 0.000000 0.039989
#
#
# Mechanical properties :
#
#
# Convention : Reuss Voigt Hill
#
# Bulk Modulus (GPa) = 64.23217 86.76504 75.49860
# Shear Modulus (GPa) = 34.55097 18.50582 26.52839
#
# Velocity S-wave (km/s) = 4.22232 3.09012 3.69978
# Velocity P-wave (km/s) = 7.54413 7.58299 7.56358
#
# Compressibility (1/GPa) = 0.01556852
#
# Stress axis : x y z
#
# Youngs Moduli (GPa) = 62.19150 67.37457 36.25620
#
# Poissons Ratio (x) = 0.06566 0.18508
# Poissons Ratio (y) = 0.06061 0.55791
# Poissons Ratio (z) = 0.31747 1.03677
#
# Static dielectric constant tensor:
#      x y z
#    x 1.691780 0.000000 0.000000 
#    y 0.000000 1.654280 0.000000 
#    z 0.000000 0.000000 1.683070 
# 
# From -- ./inp_files/58811.got.cif
#   From: 2010.05.17/outbox.cif.g08.bks.cpg/sg65_30_cif.got.tgz:58811.got - 2010.06.03 17:01:31.
