data_PCOD9491337
_publ_section_title
;
Structure prediction by ZEFSAII (Michael W. Deem and Ramdas Pophale) SiO2 
 PCOD9491337
Probable space group: C M M M
;
_chemical_formula_sum "Si O2"
_cell_formula_units_Z 80
_cell_length_a 14.774937
_cell_length_b 31.772048
_cell_length_c 7.565293
_cell_angle_alpha 90.000000
_cell_angle_beta 90.000000
_cell_angle_gamma 90.000000
_cell_volume 3551.375550
_symmetry_space_group_name_H-M "C M M M"
_symmetry_group_IT_number 65
_symmetry_cell_setting 'orthorhombic'
loop_
_space_group_symop_operation_xyz
x,y,z
-x,-y,z
x,-y,-z
-x,y,-z
-x,-y,-z
x,y,-z
-x,y,z
x,-y,z
1/2+x,1/2+y,z
1/2-x,1/2-y,z
1/2+x,1/2-y,-z
1/2-x,1/2+y,-z
1/2-x,1/2-y,-z
1/2+x,1/2+y,-z
1/2-x,1/2+y,z
1/2+x,1/2-y,z
loop_
_atom_site_type_symbol
_atom_site_label
_atom_site_fract_x
_atom_site_fract_y
_atom_site_fract_z
Si Si1 0.103446 0.138806 0.791570
Si Si2 0.893912 0.954418 0.712462
Si Si3 0.756153 0.703281 0.706013
Si Si4 0.395375 0.864192 0.282812
Si Si5 0.610159 0.044894 0.707161
O O1 0.141937 0.091460 0.764240
O O2 0.165386 0.175486 0.714305
O O3 0.000000 0.139511 0.721486
O O4 0.099859 0.145967 0.000000
O O5 0.890862 0.955152 0.500000
O O6 0.000000 0.954007 0.767333
O O7 0.856354 0.000000 0.773201
O O8 0.780634 0.708888 0.500000
O O9 0.750000 0.750000 0.783553
O O10 0.833597 0.673385 0.783243
O O11 0.391815 0.865701 0.500000
O O12 0.500000 0.858550 0.235007
O O13 0.362271 0.910075 0.219187
O O14 0.637207 0.044145 0.500000
O O15 0.500000 0.045726 0.709846
O O16 0.638102 0.000000 0.785574
#
# Coordination Sequence:
#
# PCOD9491337 Si02
#       5
#    16  16  16  16  16
#     4  10  21  36  54  76 104 141 181 219 262 314
#     4   8  14  27  50  79 108 137 170 211 259 309
#     4  10  21  35  52  75 101 131 170 219 271 315
#     4   8  14  26  44  66  93 123 156 197 247 305
#     4   7   9  15  31  56  85 116 146 177 220 277
#
# _framework density 22.526482999999999
#
# number of rings (size 3 to 8) (size 9 to 14) (size 15 to 20)
#    0.000    3.400    0.000    3.000    0.000    2.800 
#    0.000    5.000    0.000    4.200    0.000    0.000 
#    0.000    0.000    0.000    6.800    0.000    6.800 
#
# Total GULP energy -222990.345770 kJ/mol
# GULP energy per Si atom -5574.758644 kJ/mol
# Density = 2.247521 g / cm^3
# Si number density = 22.526483 Si / 1000 Ang^3
#
#
#
# Elastic Constant Matrix: (Units=GPa)
#
#
# Indices 1 2 3 4 5 6 
#
# 1 94.4636 76.8699 -6.8911 0.0000 0.0000 0.0000
# 2 76.8699 275.6368 4.3744 0.0000 0.0000 0.0000
# 3 -6.8911 4.3744 50.9227 0.0000 0.0000 0.0000
# 4 0.0000 0.0000 0.0000 10.6400 0.0000 0.0000
# 5 0.0000 0.0000 0.0000 0.0000 -8.2148 0.0000
# 6 0.0000 0.0000 0.0000 0.0000 0.0000 32.7355
#
#
#
# Elastic Compliance Matrix: (Units=1/GPa)
#
#
# Indices 1 2 3 4 5 6 
#
# 1 0.013941 -0.003923 0.002224 0.000000 0.000000 0.000000
# 2 -0.003923 0.004737 -0.000938 0.000000 0.000000 0.000000
# 3 0.002224 -0.000938 0.020019 0.000000 0.000000 0.000000
# 4 0.000000 0.000000 0.000000 0.093985 0.000000 0.000000
# 5 0.000000 0.000000 0.000000 0.000000 -0.121731 0.000000
# 6 0.000000 0.000000 0.000000 0.000000 0.000000 0.030548
#
#
# Mechanical properties :
#
#
# Convention : Reuss Voigt Hill
#
# Bulk Modulus (GPa) = 29.92043 63.30326 46.61184
# Shear Modulus (GPa) = 86.33484 30.14346 58.23915
#
# Velocity S-wave (km/s) = 6.19751 3.66202 5.09016
# Velocity P-wave (km/s) = 8.03264 6.78552 7.43527
#
# Compressibility (1/GPa) = 0.03342198
#
# Stress axis : x y z
#
# Youngs Moduli (GPa) = 71.73229 211.10758 49.95236
#
# Poissons Ratio (x) = 0.82819 -0.11107
# Poissons Ratio (y) = 0.28141 0.04685
# Poissons Ratio (z) = -0.15950 0.19798
#
# Static dielectric constant tensor:
#      x y z
#    x 1.860320 0.000000 0.000000 
#    y 0.000000 1.865170 0.000000 
#    z 0.000000 0.000000 1.821920 
# 
# From -- ./inp_files/9870.got.cif
#   From: 2010.05.17/outbox.cif.g08.bks.cpg/sg65_5_cif.got.tgz:9870.got - 2010.06.03 17:01:31.
