data_PCOD9491485
_publ_section_title
;
Structure prediction by ZEFSAII (Michael W. Deem and Ramdas Pophale) SiO2 
 PCOD9491485
Probable space group: C M M M
;
_chemical_formula_sum "Si O2"
_cell_formula_units_Z 80
_cell_length_a 7.744803
_cell_length_b 20.223797
_cell_length_c 26.978131
_cell_angle_alpha 90.000000
_cell_angle_beta 90.000000
_cell_angle_gamma 90.000000
_cell_volume 4225.566413
_symmetry_space_group_name_H-M "C M M M"
_symmetry_group_IT_number 65
_symmetry_cell_setting 'orthorhombic'
loop_
_space_group_symop_operation_xyz
x,y,z
-x,-y,z
x,-y,-z
-x,y,-z
-x,-y,-z
x,y,-z
-x,y,z
x,-y,z
1/2+x,1/2+y,z
1/2-x,1/2-y,z
1/2+x,1/2-y,-z
1/2-x,1/2+y,-z
1/2-x,1/2-y,-z
1/2+x,1/2+y,-z
1/2-x,1/2+y,z
1/2+x,1/2-y,z
loop_
_atom_site_type_symbol
_atom_site_label
_atom_site_fract_x
_atom_site_fract_y
_atom_site_fract_z
Si Si1 0.199672 0.580473 0.250355
Si Si2 0.292271 0.173946 0.944110
Si Si3 0.293191 0.074858 0.357401
Si Si4 0.294851 0.674321 0.555486
Si Si5 0.787919 0.576567 0.858021
O O1 0.198414 0.500000 0.250738
O O2 0.276445 0.599233 0.303782
O O3 0.274134 0.598786 0.196741
O O4 0.000000 0.603058 0.249764
O O5 0.500000 0.167870 0.945367
O O6 0.250000 0.250000 0.932390
O O7 0.229038 0.123897 0.902113
O O8 0.227616 0.160038 0.000000
O O9 0.500000 0.070259 0.351244
O O10 0.261762 0.123568 0.402602
O O11 0.229080 0.000000 0.367058
O O12 0.223622 0.660574 0.500000
O O13 0.500000 0.669681 0.552713
O O14 0.250000 0.750000 0.568032
O O15 0.738731 0.500000 0.865948
O O16 0.000000 0.577538 0.856695
#
# Coordination Sequence:
#
# PCOD9491485 Si02
#       5
#    16  16  16  16  16
#     4   7  11  22  41  65  91 117 144 176 218 264
#     4   9  17  28  42  61  86 116 147 180 221 266
#     4   9  17  30  50  74  97 122 153 187 223 269
#     4  10  21  36  52  69  92 123 156 190 230 274
#     4   8  13  23  42  66  88 111 144 186 224 256
#
# _framework density 18.932373999999999
#
# number of rings (size 3 to 8) (size 9 to 14) (size 15 to 20)
#    0.000    3.400    0.000    3.000    0.000    2.400 
#    0.000    5.000    0.000    4.200    0.000    5.600 
#    0.000    0.000    0.000    0.000    0.000    0.000 
#
# Total GULP energy -222694.760822 kJ/mol
# GULP energy per Si atom -5567.369021 kJ/mol
# Density = 1.888928 g / cm^3
# Si number density = 18.932374 Si / 1000 Ang^3
#
#
#
# Elastic Constant Matrix: (Units=GPa)
#
#
# Indices 1 2 3 4 5 6 
#
# 1 28.8576 2.8237 9.8824 0.0000 0.0000 0.0000
# 2 2.8237 95.2951 124.9861 0.0000 0.0000 0.0000
# 3 9.8824 124.9861 216.4184 0.0000 0.0000 0.0000
# 4 0.0000 0.0000 0.0000 -39.3311 0.0000 0.0000
# 5 0.0000 0.0000 0.0000 0.0000 -2.9755 0.0000
# 6 0.0000 0.0000 0.0000 0.0000 0.0000 17.6858
#
#
#
# Elastic Compliance Matrix: (Units=1/GPa)
#
#
# Indices 1 2 3 4 5 6 
#
# 1 0.035655 0.004448 -0.004197 0.000000 0.000000 0.000000
# 2 0.004448 0.043821 -0.025510 0.000000 0.000000 0.000000
# 3 -0.004197 -0.025510 0.019545 0.000000 0.000000 0.000000
# 4 0.000000 0.000000 0.000000 -0.025425 0.000000 0.000000
# 5 0.000000 0.000000 0.000000 0.000000 -0.336073 0.000000
# 6 0.000000 0.000000 0.000000 0.000000 0.000000 0.056542
#
#
# Mechanical properties :
#
#
# Convention : Reuss Voigt Hill
#
# Bulk Modulus (GPa) = 20.61761 68.43949 44.52855
# Shear Modulus (GPa) = -35.90697 8.60110 -13.65294
#
# Velocity S-wave (km/s) = -4.35971 2.13376 -2.68832
# Velocity P-wave (km/s) = 3.79855 6.50373 3.73293
#
# Compressibility (1/GPa) = 0.04850223
#
# Stress axis : x y z
#
# Youngs Moduli (GPa) = 28.04662 22.82030 51.16363
#
# Poissons Ratio (x) = -0.10151 0.21474
# Poissons Ratio (y) = -0.12476 1.30521
# Poissons Ratio (z) = 0.11772 0.58216
#
# Static dielectric constant tensor:
#      x y z
#    x 1.773640 0.000000 0.000000 
#    y 0.000000 1.525070 0.000000 
#    z 0.000000 0.000000 1.720120 
# 
# From -- ./inp_files/72794.got.cif
#   From: 2010.05.17/outbox.cif.g08.bks.cpg/sg65_37_cif.got.tgz:72794.got - 2010.06.03 17:01:31.
