data_PCOD9491197
_publ_section_title
;
Structure prediction by ZEFSAII (Michael W. Deem and Ramdas Pophale) SiO2 
 PCOD9491197
Probable space group: C M M M
;
_chemical_formula_sum "Si O2"
_cell_formula_units_Z 72
_cell_length_a 18.503133
_cell_length_b 9.316260
_cell_length_c 25.166127
_cell_angle_alpha 90.000000
_cell_angle_beta 90.000000
_cell_angle_gamma 90.000000
_cell_volume 4338.136918
_symmetry_space_group_name_H-M "C M M M"
_symmetry_group_IT_number 65
_symmetry_cell_setting 'orthorhombic'
loop_
_space_group_symop_operation_xyz
x,y,z
-x,-y,z
x,-y,-z
-x,y,-z
-x,-y,-z
x,y,-z
-x,y,z
x,-y,z
1/2+x,1/2+y,z
1/2-x,1/2-y,z
1/2+x,1/2-y,-z
1/2-x,1/2+y,-z
1/2-x,1/2-y,-z
1/2+x,1/2+y,-z
1/2-x,1/2+y,z
1/2+x,1/2-y,z
loop_
_atom_site_type_symbol
_atom_site_label
_atom_site_fract_x
_atom_site_fract_y
_atom_site_fract_z
Si Si1 0.826599 0.829737 0.060211
Si Si2 0.177903 0.837201 0.358057
Si Si3 0.414745 0.172005 0.729289
Si Si4 0.585568 0.500000 0.436954
Si Si5 0.413220 0.833892 0.851138
O O1 0.750000 0.750000 0.064686
O O2 0.878049 0.766511 0.105138
O O3 0.817039 0.000000 0.066490
O O4 0.854270 0.803336 0.000000
O O5 0.250000 0.750000 0.371223
O O6 0.133812 0.756672 0.312274
O O7 0.197381 0.000000 0.340472
O O8 0.125241 0.865838 0.408356
O O9 0.500000 0.206580 0.722349
O O10 0.394115 0.205331 0.790360
O O11 0.407335 0.000000 0.722447
O O12 0.500000 0.500000 0.425578
O O13 0.595930 0.500000 0.500000
O O14 0.500000 0.828264 0.854407
O O15 0.391304 0.000000 0.860052
#
# Coordination Sequence:
#
# PCOD9491197 Si02
#       5
#    16  16  16   8  16
#     4  10  21  36  53  73  99 134 176 222 274 328
#     4  10  21  34  55  83 114 147 187 226 276 327
#     4   9  18  34  56  79 109 145 182 226 273 329
#     4   9  20  38  60  84 113 151 192 232 275 328
#     4   9  19  35  54  78 105 138 177 218 270 324
#
# _framework density 16.596986000000001
#
# number of rings (size 3 to 8) (size 9 to 14) (size 15 to 20)
#    0.667    1.889    0.000    3.333    0.000    4.444 
#    0.000    4.444    0.000    0.000    0.000    4.667 
#    0.000    0.000    0.000    0.000    0.000    0.000 
#
# Total GULP energy -200562.537742 kJ/mol
# GULP energy per Si atom -5571.181604 kJ/mol
# Density = 1.655921 g / cm^3
# Si number density = 16.596986 Si / 1000 Ang^3
#
#
#
# Elastic Constant Matrix: (Units=GPa)
#
#
# Indices 1 2 3 4 5 6 
#
# 1 87.4431 55.1469 79.2210 0.0000 0.0000 0.0000
# 2 55.1469 76.7105 72.6448 0.0000 0.0000 0.0000
# 3 79.2210 72.6448 135.2988 0.0000 0.0000 0.0000
# 4 0.0000 0.0000 0.0000 25.6229 0.0000 0.0000
# 5 0.0000 0.0000 0.0000 0.0000 -332.3089 0.0000
# 6 0.0000 0.0000 0.0000 0.0000 0.0000 32.5238
#
#
#
# Elastic Compliance Matrix: (Units=1/GPa)
#
#
# Indices 1 2 3 4 5 6 
#
# 1 0.027145 -0.009079 -0.011019 0.000000 0.000000 0.000000
# 2 -0.009079 0.029558 -0.010554 0.000000 0.000000 0.000000
# 3 -0.011019 -0.010554 0.019510 0.000000 0.000000 0.000000
# 4 0.000000 0.000000 0.000000 0.039028 0.000000 0.000000
# 5 0.000000 0.000000 0.000000 0.000000 -0.003009 0.000000
# 6 0.000000 0.000000 0.000000 0.000000 0.000000 0.030747
#
#
# Mechanical properties :
#
#
# Convention : Reuss Voigt Hill
#
# Bulk Modulus (GPa) = 67.08046 79.27533 73.17790
# Shear Modulus (GPa) = 23.89460 -48.66981 -12.38760
#
# Velocity S-wave (km/s) = 3.79845 -5.42108 -2.73495
# Velocity P-wave (km/s) = 7.72933 2.94693 5.84923
#
# Compressibility (1/GPa) = 0.01490747
#
# Stress axis : x y z
#
# Youngs Moduli (GPa) = 36.83902 33.83211 51.25602
#
# Poissons Ratio (x) = 0.30717 0.56481
# Poissons Ratio (y) = 0.33447 0.54096
# Poissons Ratio (z) = 0.40594 0.35707
#
# Static dielectric constant tensor:
#      x y z
#    x 1.545470 0.000000 0.000000 
#    y 0.000000 1.548460 0.000000 
#    z 0.000000 0.000000 1.542090 
# 
# From -- ./inp_files/70753.got.cif
#   From: 2010.05.17/outbox.cif.g08.bks.cpg/sg65_36_cif.got.tgz:70753.got - 2010.06.03 17:01:31.
