data_PCOD9491616
_publ_section_title
;
Structure prediction by ZEFSAII (Michael W. Deem and Ramdas Pophale) SiO2 
 PCOD9491616
Probable space group: C M M M
;
_chemical_formula_sum "Si O2"
_cell_formula_units_Z 104
_cell_length_a 26.116120
_cell_length_b 20.267625
_cell_length_c 9.343988
_cell_angle_alpha 90.000000
_cell_angle_beta 90.000000
_cell_angle_gamma 90.000000
_cell_volume 4945.882422
_symmetry_space_group_name_H-M "C M M M"
_symmetry_group_IT_number 65
_symmetry_cell_setting 'orthorhombic'
loop_
_space_group_symop_operation_xyz
x,y,z
-x,-y,z
x,-y,-z
-x,y,-z
-x,-y,-z
x,y,-z
-x,y,z
x,-y,z
1/2+x,1/2+y,z
1/2-x,1/2-y,z
1/2+x,1/2-y,-z
1/2-x,1/2+y,-z
1/2-x,1/2-y,-z
1/2+x,1/2+y,-z
1/2-x,1/2+y,z
1/2+x,1/2-y,z
loop_
_atom_site_type_symbol
_atom_site_label
_atom_site_fract_x
_atom_site_fract_y
_atom_site_fract_z
Si Si1 0.707714 0.627988 0.328886
Si Si2 0.340419 0.255403 0.165382
Si Si3 0.091018 0.428626 0.330249
Si Si4 0.692886 0.102964 0.835473
Si Si5 0.442381 0.781271 0.671559
Si Si6 0.500000 0.418893 0.160790
Si Si7 0.095799 0.078597 0.658782
O O1 0.715090 0.632358 0.500000
O O2 0.697155 0.698553 0.256328
O O3 0.755548 0.593203 0.254247
O O4 0.653918 0.591796 0.299005
O O5 0.318541 0.181470 0.164546
O O6 0.395833 0.252033 0.242664
O O7 0.344261 0.277940 0.000000
O O8 0.102385 0.425798 0.500000
O O9 0.065429 0.500000 0.302986
O O10 0.143629 0.426831 0.242189
O O11 0.061704 0.360496 0.298168
O O12 0.697879 0.081611 0.000000
O O13 0.434876 0.772883 0.500000
O O14 0.500000 0.759308 0.707962
O O15 0.500000 0.500000 0.159860
O O16 0.551308 0.396745 0.239477
O O17 0.500000 0.395652 0.000000
O O18 0.088200 0.106933 0.500000
O O19 0.089302 0.000000 0.650677
#
# Coordination Sequence:
#
# PCOD9491616 Si02
#       7
#    16  16  16  16  16   8  16
#     4  11  22  35  55  82 106 135 177 222 267 319
#     4  10  21  37  55  76 105 141 180 221 269 323
#     4   9  18  33  54  81 112 146 184 224 269 323
#     4  10  21  36  54  76 106 143 179 220 269 319
#     4   9  18  34  56  81 110 144 182 227 275 321
#     4   9  17  31  53  77  99 127 163 201 242 291
#     4   9  19  36  55  75 102 135 168 205 254 310
#
# _framework density 21.027591999999999
#
# number of rings (size 3 to 8) (size 9 to 14) (size 15 to 20)
#    0.000    2.385    0.000    2.077    0.000    7.385 
#    1.385    3.077    0.000    0.000    0.000    4.308 
#    0.000    0.000    0.000    0.000    0.000    0.000 
#
# Total GULP energy -290408.242838 kJ/mol
# GULP energy per Si atom -5584.773901 kJ/mol
# Density = 2.097973 g / cm^3
# Si number density = 21.027592 Si / 1000 Ang^3
#
#
#
# Elastic Constant Matrix: (Units=GPa)
#
#
# Indices 1 2 3 4 5 6 
#
# 1 134.2270 -3.3117 69.3848 0.0000 0.0000 0.0000
# 2 -3.3117 45.8683 -1.4578 0.0000 0.0000 0.0000
# 3 69.3848 -1.4578 70.2549 0.0000 0.0000 0.0000
# 4 0.0000 0.0000 0.0000 11.7646 0.0000 0.0000
# 5 0.0000 0.0000 0.0000 0.0000 -6.9968 0.0000
# 6 0.0000 0.0000 0.0000 0.0000 0.0000 11.8384
#
#
#
# Elastic Compliance Matrix: (Units=1/GPa)
#
#
# Indices 1 2 3 4 5 6 
#
# 1 0.015238 0.000622 -0.015036 0.000000 0.000000 0.000000
# 2 0.000622 0.021841 -0.000161 0.000000 0.000000 0.000000
# 3 -0.015036 -0.000161 0.029081 0.000000 0.000000 0.000000
# 4 0.000000 0.000000 0.000000 0.085001 0.000000 0.000000
# 5 0.000000 0.000000 0.000000 0.000000 -0.142922 0.000000
# 6 0.000000 0.000000 0.000000 0.000000 0.000000 0.084471
#
#
# Mechanical properties :
#
#
# Convention : Reuss Voigt Hill
#
# Bulk Modulus (GPa) = 27.02034 42.17565 34.59800
# Shear Modulus (GPa) = 37.25857 15.70357 26.48107
#
# Velocity S-wave (km/s) = 4.21395 2.73574 3.55258
# Velocity P-wave (km/s) = 6.04602 5.48451 5.77210
#
# Compressibility (1/GPa) = 0.03700915
#
# Stress axis : x y z
#
# Youngs Moduli (GPa) = 65.62511 45.78469 34.38700
#
# Poissons Ratio (x) = -0.02849 0.51706
# Poissons Ratio (y) = -0.04084 0.00555
# Poissons Ratio (z) = 0.98677 0.00739
#
# Static dielectric constant tensor:
#      x y z
#    x 1.724170 0.000000 0.000000 
#    y 0.000000 1.819910 0.000000 
#    z 0.000000 0.000000 1.721720 
# 
# From -- ./inp_files/16438.got.cif
#   From: 2010.05.17/outbox.cif.g08.bks.cpg/sg65_9_cif.got.tgz:16438.got - 2010.06.03 17:01:31.
