data_PCOD9491598
_publ_section_title
;
Structure prediction by ZEFSAII (Michael W. Deem and Ramdas Pophale) SiO2 
 PCOD9491598
Probable space group: C M M M
;
_chemical_formula_sum "Si O2"
_cell_formula_units_Z 104
_cell_length_a 32.688344
_cell_length_b 9.691780
_cell_length_c 17.095167
_cell_angle_alpha 90.000000
_cell_angle_beta 90.000000
_cell_angle_gamma 90.000000
_cell_volume 5415.889746
_symmetry_space_group_name_H-M "C M M M"
_symmetry_group_IT_number 65
_symmetry_cell_setting 'orthorhombic'
loop_
_space_group_symop_operation_xyz
x,y,z
-x,-y,z
x,-y,-z
-x,y,-z
-x,-y,-z
x,y,-z
-x,y,z
x,-y,z
1/2+x,1/2+y,z
1/2-x,1/2-y,z
1/2+x,1/2-y,-z
1/2-x,1/2+y,-z
1/2-x,1/2-y,-z
1/2+x,1/2+y,-z
1/2-x,1/2+y,z
1/2+x,1/2-y,z
loop_
_atom_site_type_symbol
_atom_site_label
_atom_site_fract_x
_atom_site_fract_y
_atom_site_fract_z
Si Si1 0.209541 0.334458 0.821860
Si Si2 0.125238 0.660466 0.092303
Si Si3 0.000000 0.657020 0.592853
Si Si4 0.214795 0.344964 0.362710
Si Si5 0.047151 0.161547 0.857838
Si Si6 0.567331 0.660323 0.325750
Si Si7 0.624083 0.158720 0.411390
O O1 0.214992 0.500000 0.834827
O O2 0.250000 0.250000 0.848402
O O3 0.166504 0.293936 0.862371
O O4 0.205973 0.310506 0.728533
O O5 0.117569 0.500000 0.114751
O O6 0.084224 0.748486 0.108024
O O7 0.133944 0.665306 0.000000
O O8 0.962105 0.743985 0.623563
O O9 0.000000 0.500000 0.623013
O O10 0.000000 0.651552 0.500000
O O11 0.230614 0.500000 0.362795
O O12 0.250000 0.250000 0.394676
O O13 0.172842 0.339727 0.408905
O O14 0.053530 0.168395 0.764008
O O15 0.000000 0.204266 0.876193
O O16 0.051167 0.000000 0.880751
O O17 0.566229 0.500000 0.348671
O O18 0.609897 0.732617 0.346395
O O19 0.610072 0.191375 0.500000
O O20 0.610945 0.000000 0.393536
#
# Coordination Sequence:
#
# PCOD9491598 Si02
#       7
#    16  16   8  16  16  16  16
#     4   9  18  34  56  82 114 149 187 231 279 333
#     4  10  22  39  59  87 120 151 188 234 281 336
#     4  11  23  37  55  81 112 145 180 221 273 332
#     4   9  18  33  53  76 105 143 187 233 279 328
#     4  10  22  41  61  83 113 148 191 239 287 342
#     4  11  22  38  58  81 110 143 184 233 279 329
#     4  10  21  36  53  77 111 149 189 233 283 340
#
# _framework density 19.202755
#
# number of rings (size 3 to 8) (size 9 to 14) (size 15 to 20)
#    0.000    2.077    0.769    2.077    0.000    8.000 
#    0.000    4.615    0.000    0.000    0.000    0.000 
#    0.000    0.000    0.000    0.000    0.000    0.000 
#
# Total GULP energy -290022.788265 kJ/mol
# GULP energy per Si atom -5577.361313 kJ/mol
# Density = 1.915905 g / cm^3
# Si number density = 19.202755 Si / 1000 Ang^3
#
#
#
# Elastic Constant Matrix: (Units=GPa)
#
#
# Indices 1 2 3 4 5 6 
#
# 1 114.9786 53.1838 21.5240 0.0000 0.0000 0.0000
# 2 53.1838 72.6950 23.9615 0.0000 0.0000 0.0000
# 3 21.5240 23.9615 34.1958 0.0000 0.0000 0.0000
# 4 0.0000 0.0000 0.0000 21.2965 0.0000 0.0000
# 5 0.0000 0.0000 0.0000 0.0000 16.0154 0.0000
# 6 0.0000 0.0000 0.0000 0.0000 0.0000 38.5334
#
#
#
# Elastic Compliance Matrix: (Units=1/GPa)
#
#
# Indices 1 2 3 4 5 6 
#
# 1 0.013252 -0.009032 -0.002012 0.000000 0.000000 0.000000
# 2 -0.009032 0.024043 -0.011162 0.000000 0.000000 0.000000
# 3 -0.002012 -0.011162 0.038332 0.000000 0.000000 0.000000
# 4 0.000000 0.000000 0.000000 0.046956 0.000000 0.000000
# 5 0.000000 0.000000 0.000000 0.000000 0.062440 0.000000
# 6 0.000000 0.000000 0.000000 0.000000 0.000000 0.025952
#
#
# Mechanical properties :
#
#
# Convention : Reuss Voigt Hill
#
# Bulk Modulus (GPa) = 32.03761 46.57867 39.30814
# Shear Modulus (GPa) = 18.81177 23.38240 21.09709
#
# Velocity S-wave (km/s) = 3.13331 3.49328 3.31818
# Velocity P-wave (km/s) = 5.45988 6.37021 5.93253
#
# Compressibility (1/GPa) = 0.03121331
#
# Stress axis : x y z
#
# Youngs Moduli (GPa) = 75.46264 41.59227 26.08807
#
# Poissons Ratio (x) = 0.37564 0.05250
# Poissons Ratio (y) = 0.68154 0.29121
# Poissons Ratio (z) = 0.15187 0.46427
#
# Static dielectric constant tensor:
#      x y z
#    x 1.880210 0.000000 0.000000 
#    y 0.000000 1.656540 0.000000 
#    z 0.000000 0.000000 1.662290 
# 
# From -- ./inp_files/66410.got.cif
#   From: 2010.05.17/outbox.cif.g08.bks.cpg/sg65_34_cif.got.tgz:66410.got - 2010.06.03 17:01:31.
