data_PCOD9491073
_publ_section_title
;
Structure prediction by ZEFSAII (Michael W. Deem and Ramdas Pophale) SiO2 
 PCOD9491073
Probable space group: C M M M
;
_chemical_formula_sum "Si O2"
_cell_formula_units_Z 128
_cell_length_a 15.065305
_cell_length_b 22.554739
_cell_length_c 18.368282
_cell_angle_alpha 90.000000
_cell_angle_beta 90.000000
_cell_angle_gamma 90.000000
_cell_volume 6241.432422
_symmetry_space_group_name_H-M "C M M M"
_symmetry_group_IT_number 65
_symmetry_cell_setting 'orthorhombic'
loop_
_space_group_symop_operation_xyz
x,y,z
-x,-y,z
x,-y,-z
-x,y,-z
-x,-y,-z
x,y,-z
-x,y,z
x,-y,z
1/2+x,1/2+y,z
1/2-x,1/2-y,z
1/2+x,1/2-y,-z
1/2-x,1/2+y,-z
1/2-x,1/2-y,-z
1/2+x,1/2+y,-z
1/2-x,1/2+y,z
1/2+x,1/2-y,z
loop_
_atom_site_type_symbol
_atom_site_label
_atom_site_fract_x
_atom_site_fract_y
_atom_site_fract_z
Si Si1 0.897764 0.698677 0.421210
Si Si2 0.349472 0.431595 0.582511
Si Si3 0.594636 0.429306 0.119663
Si Si4 0.843783 0.384177 0.232294
Si Si5 0.849988 0.741508 0.732173
Si Si6 0.866526 0.872487 0.268812
Si Si7 0.637960 0.065388 0.616348
Si Si8 0.790765 0.571492 0.920604
O O1 0.861766 0.715673 0.500000
O O2 0.846702 0.726422 0.353704
O O3 0.897585 0.626963 0.415589
O O4 0.000000 0.718022 0.415363
O O5 0.367250 0.410448 0.500000
O O6 0.379747 0.500000 0.587970
O O7 0.386662 0.393995 0.649707
O O8 0.242718 0.433048 0.595604
O O9 0.500000 0.406554 0.090602
O O10 0.595085 0.500000 0.109266
O O11 0.597738 0.414390 0.205418
O O12 0.687959 0.407393 0.087483
O O13 0.887768 0.319260 0.235424
O O14 0.740490 0.375408 0.257042
O O15 0.877594 0.426643 0.296629
O O16 0.842688 0.408005 0.150835
O O17 0.750000 0.750000 0.760913
O O18 0.895151 0.804666 0.742788
O O19 0.605789 0.000000 0.593571
O O20 0.789239 0.500000 0.918790
O O21 0.824825 0.590150 0.000000
#
# Coordination Sequence:
#
# PCOD9491073 Si02
#       8
#    16  16  16  16  16  16  16  16
#     4  10  21  33  42  59  90 119 144 184 232 266
#     4   9  16  25  40  64  88 106 133 182 237 275
#     4   9  17  28  42  61  86 116 147 177 211 258
#     4   8  15  28  43  63  90 110 134 178 219 251
#     4   9  18  31  48  65  82 112 155 192 221 260
#     4   9  16  27  44  61  79 108 148 185 219 259
#     4   9  16  27  44  62  81 111 145 171 205 260
#     4   9  16  26  44  70  95 116 137 167 216 271
#
# _framework density 20.508112000000001
#
# number of rings (size 3 to 8) (size 9 to 14) (size 15 to 20)
#    0.000    3.000    0.000    1.875    0.000    5.500 
#    0.000    1.875    0.000    9.750    0.000    1.750 
#    0.000    8.000    0.000   27.500    0.000    0.000 
#
# Total GULP energy -356521.614884 kJ/mol
# GULP energy per Si atom -5570.650233 kJ/mol
# Density = 2.046143 g / cm^3
# Si number density = 20.508112 Si / 1000 Ang^3
#
#
#
# Elastic Constant Matrix: (Units=GPa)
#
#
# Indices 1 2 3 4 5 6 
#
# 1 28.7372 -2.8714 -8.5577 0.0000 0.0000 0.0000
# 2 -2.8714 30.3135 4.7781 0.0000 0.0000 0.0000
# 3 -8.5577 4.7781 136.0055 0.0000 0.0000 0.0000
# 4 0.0000 0.0000 0.0000 8.6705 0.0000 0.0000
# 5 0.0000 0.0000 0.0000 0.0000 53.2693 0.0000
# 6 0.0000 0.0000 0.0000 0.0000 0.0000 -4.7422
#
#
#
# Elastic Compliance Matrix: (Units=1/GPa)
#
#
# Indices 1 2 3 4 5 6 
#
# 1 0.035740 0.003048 0.002142 0.000000 0.000000 0.000000
# 2 0.003048 0.033432 -0.000983 0.000000 0.000000 0.000000
# 3 0.002142 -0.000983 0.007522 0.000000 0.000000 0.000000
# 4 0.000000 0.000000 0.000000 0.115334 0.000000 0.000000
# 5 0.000000 0.000000 0.000000 0.000000 0.018773 0.000000
# 6 0.000000 0.000000 0.000000 0.000000 0.000000 -0.210871
#
#
# Mechanical properties :
#
#
# Convention : Reuss Voigt Hill
#
# Bulk Modulus (GPa) = 11.74974 20.19492 15.97233
# Shear Modulus (GPa) = 251.43006 24.88665 138.15835
#
# Velocity S-wave (km/s) = 11.08451 3.48732 8.21668
# Velocity P-wave (km/s) = 13.02166 5.10723 9.89059
#
# Compressibility (1/GPa) = 0.08510825
#
# Stress axis : x y z
#
# Youngs Moduli (GPa) = 27.97951 29.91127 132.94453
#
# Poissons Ratio (x) = -0.09116 -0.28474
# Poissons Ratio (y) = -0.08528 0.13065
# Poissons Ratio (z) = -0.05993 0.02940
#
# Static dielectric constant tensor:
#      x y z
#    x 1.823340 0.000000 0.000000 
#    y 0.000000 1.731970 0.000000 
#    z 0.000000 0.000000 1.727760 
# 
# From -- ./inp_files/55143.got.cif
#   From: 2010.05.17/outbox.cif.g08.bks.cpg/sg65_28_cif.got.tgz:55143.got - 2010.06.03 17:01:31.
