data_PCOD9491848
_publ_section_title
;
Structure prediction by ZEFSAII (Michael W. Deem and Ramdas Pophale) SiO2 
 PCOD9491848
Probable space group: C M M M
;
_chemical_formula_sum "Si O2"
_cell_formula_units_Z 104
_cell_length_a 8.284731
_cell_length_b 22.862274
_cell_length_c 27.192583
_cell_angle_alpha 90.000000
_cell_angle_beta 90.000000
_cell_angle_gamma 90.000000
_cell_volume 5150.487054
_symmetry_space_group_name_H-M "C M M M"
_symmetry_group_IT_number 65
_symmetry_cell_setting 'orthorhombic'
loop_
_space_group_symop_operation_xyz
x,y,z
-x,-y,z
x,-y,-z
-x,y,-z
-x,-y,-z
x,y,-z
-x,y,z
x,-y,z
1/2+x,1/2+y,z
1/2-x,1/2-y,z
1/2+x,1/2-y,-z
1/2-x,1/2+y,-z
1/2-x,1/2-y,-z
1/2+x,1/2+y,-z
1/2-x,1/2+y,z
1/2+x,1/2-y,z
loop_
_atom_site_type_symbol
_atom_site_label
_atom_site_fract_x
_atom_site_fract_y
_atom_site_fract_z
Si Si1 0.179401 0.500000 0.881016
Si Si2 0.194125 0.684222 0.807974
Si Si3 0.807202 0.315795 0.000000
Si Si4 0.810677 0.391501 0.279878
Si Si5 0.689501 0.617145 0.904784
Si Si6 0.694875 0.314550 0.557437
Si Si7 0.186388 0.000000 0.777879
Si Si8 0.808158 0.068273 0.614679
O O1 0.210250 0.441945 0.910859
O O2 0.304243 0.500000 0.836174
O O3 0.000000 0.500000 0.859638
O O4 0.250000 0.750000 0.816043
O O5 0.245902 0.663083 0.753272
O O6 0.264979 0.645530 0.852209
O O7 0.000000 0.679308 0.809877
O O8 0.750000 0.250000 0.000000
O O9 0.736302 0.342965 0.950344
O O10 0.000000 0.320972 0.000000
O O11 0.779589 0.444500 0.242721
O O12 0.722414 0.410198 0.329655
O O13 0.000000 0.384921 0.291244
O O14 0.500000 0.605056 0.905179
O O15 0.742692 0.316596 0.500000
O O16 0.500000 0.314643 0.560589
O O17 0.750000 0.250000 0.576831
O O18 0.752697 0.375685 0.582521
O O19 0.000000 0.000000 0.761214
O O20 0.000000 0.064669 0.605657
O O21 0.746864 0.000000 0.608272
#
# Coordination Sequence:
#
# PCOD9491848 Si02
#       8
#     8  16   8  16  16  16   8  16
#     4  12  24  41  65  96 128 161 202 248 303 362
#     4  11  24  41  61  87 121 160 204 252 301 361
#     4  12  26  47  70  93 124 162 202 250 306 366
#     4  11  23  38  59  86 121 161 201 246 301 361
#     4  12  25  43  67  95 124 159 203 251 305 365
#     4   9  19  37  60  85 116 158 206 256 311 372
#     4  12  22  36  61  89 119 159 202 244 292 353
#     4  10  21  36  57  87 121 157 203 256 311 372
#
# _framework density 20.192266
#
# number of rings (size 3 to 8) (size 9 to 14) (size 15 to 20)
#    0.000    1.077    2.308    4.846    0.000    3.692 
#    0.000    6.154    0.000    0.000    0.000    3.231 
#    0.000    0.000    0.000    0.000    0.000    0.000 
#
# Total GULP energy -290222.917533 kJ/mol
# GULP energy per Si atom -5581.209953 kJ/mol
# Density = 2.014631 g / cm^3
# Si number density = 20.192266 Si / 1000 Ang^3
#
#
#
# Elastic Constant Matrix: (Units=GPa)
#
#
# Indices 1 2 3 4 5 6 
#
# 1 48.3949 8.5974 3.4781 0.0000 0.0000 0.0000
# 2 8.5974 158.9681 56.9416 0.0000 0.0000 0.0000
# 3 3.4781 56.9416 79.9074 0.0000 0.0000 0.0000
# 4 0.0000 0.0000 0.0000 185.0197 0.0000 0.0000
# 5 0.0000 0.0000 0.0000 0.0000 23.5139 0.0000
# 6 0.0000 0.0000 0.0000 0.0000 0.0000 24.1891
#
#
#
# Elastic Compliance Matrix: (Units=1/GPa)
#
#
# Indices 1 2 3 4 5 6 
#
# 1 0.020865 -0.001078 -0.000140 0.000000 0.000000 0.000000
# 2 -0.001078 0.008502 -0.006012 0.000000 0.000000 0.000000
# 3 -0.000140 -0.006012 0.016805 0.000000 0.000000 0.000000
# 4 0.000000 0.000000 0.000000 0.005405 0.000000 0.000000
# 5 0.000000 0.000000 0.000000 0.000000 0.042528 0.000000
# 6 0.000000 0.000000 0.000000 0.000000 0.000000 0.041341
#
#
# Mechanical properties :
#
#
# Convention : Reuss Voigt Hill
#
# Bulk Modulus (GPa) = 31.53381 47.25608 39.39494
# Shear Modulus (GPa) = 31.15735 61.09477 46.12606
#
# Velocity S-wave (km/s) = 3.93241 5.50656 4.78466
# Velocity P-wave (km/s) = 6.02239 7.99271 7.07646
#
# Compressibility (1/GPa) = 0.03171200
#
# Stress axis : x y z
#
# Youngs Moduli (GPa) = 47.92729 117.61564 59.50786
#
# Poissons Ratio (x) = 0.12683 0.00832
# Poissons Ratio (y) = 0.05168 0.35775
# Poissons Ratio (z) = 0.00670 0.70707
#
# Static dielectric constant tensor:
#      x y z
#    x 1.708650 0.000000 0.000000 
#    y 0.000000 1.818020 0.000000 
#    z 0.000000 0.000000 1.628740 
# 
# From -- ./inp_files/73384.got.cif
#   From: 2010.05.17/outbox.cif.g08.bks.cpg/sg65_37_cif.got.tgz:73384.got - 2010.06.03 17:01:31.
