data_PCOD9491215
_publ_section_title
;
Structure prediction by ZEFSAII (Michael W. Deem and Ramdas Pophale) SiO2 
 PCOD9491215
Probable space group: C M M M
;
_chemical_formula_sum "Si O2"
_cell_formula_units_Z 88
_cell_length_a 14.341129
_cell_length_b 22.048727
_cell_length_c 15.594013
_cell_angle_alpha 90.000000
_cell_angle_beta 90.000000
_cell_angle_gamma 90.000000
_cell_volume 4930.883645
_symmetry_space_group_name_H-M "C M M M"
_symmetry_group_IT_number 65
_symmetry_cell_setting 'orthorhombic'
loop_
_space_group_symop_operation_xyz
x,y,z
-x,-y,z
x,-y,-z
-x,y,-z
-x,-y,-z
x,y,-z
-x,y,z
x,-y,z
1/2+x,1/2+y,z
1/2-x,1/2-y,z
1/2+x,1/2-y,-z
1/2-x,1/2+y,-z
1/2-x,1/2-y,-z
1/2+x,1/2+y,-z
1/2-x,1/2+y,z
1/2+x,1/2-y,z
loop_
_atom_site_type_symbol
_atom_site_label
_atom_site_fract_x
_atom_site_fract_y
_atom_site_fract_z
Si Si1 0.112252 0.699548 0.406538
Si Si2 0.205617 0.612766 0.168594
Si Si3 0.611842 0.067226 0.335934
Si Si4 0.389507 0.068350 0.000000
Si Si5 0.391045 0.766547 0.222169
Si Si6 0.106509 0.148399 0.898081
O O1 0.148620 0.717953 0.500000
O O2 0.136589 0.628656 0.387624
O O3 0.133511 0.740788 0.323238
O O4 0.000000 0.700601 0.411519
O O5 0.168526 0.573166 0.247417
O O6 0.146676 0.599256 0.084749
O O7 0.179064 0.681701 0.191903
O O8 0.313376 0.606755 0.142604
O O9 0.500000 0.070730 0.319155
O O10 0.628742 0.000000 0.374369
O O11 0.500000 0.067883 0.000000
O O12 0.353287 0.000000 0.000000
O O13 0.500000 0.788472 0.219909
O O14 0.388056 0.709686 0.158776
O O15 0.000000 0.125776 0.891152
O O16 0.125057 0.159010 0.000000
#
# Coordination Sequence:
#
# PCOD9491215 Si02
#       6
#    16  16  16   8  16  16
#     4   8  14  26  45  71 102 132 158 185 226 286
#     4  11  19  31  48  66  93 127 159 197 236 283
#     4   9  17  29  46  70  99 128 158 193 235 286
#     4  11  22  32  46  71  97 121 150 186 232 287
#     4   9  18  30  47  72  99 126 158 196 238 283
#     4  10  21  35  49  67  91 122 169 215 241 274
#
# _framework density 17.846699999999998
#
# number of rings (size 3 to 8) (size 9 to 14) (size 15 to 20)
#    0.000    2.455    0.909    3.818    1.273    2.545 
#    0.000    1.818    0.000   11.455    0.000    0.000 
#    0.000    0.000    0.000    6.545    0.000    0.727 
#
# Total GULP energy -244984.658071 kJ/mol
# GULP energy per Si atom -5567.833138 kJ/mol
# Density = 1.780608 g / cm^3
# Si number density = 17.846700 Si / 1000 Ang^3
#
#
#
# Elastic Constant Matrix: (Units=GPa)
#
#
# Indices 1 2 3 4 5 6 
#
# 1 72.0810 0.5960 18.4169 0.0000 0.0000 0.0000
# 2 0.5960 10.5301 3.5725 0.0000 0.0000 0.0000
# 3 18.4169 3.5725 109.0511 0.0000 0.0000 0.0000
# 4 0.0000 0.0000 0.0000 22.7762 0.0000 0.0000
# 5 0.0000 0.0000 0.0000 0.0000 -18.1981 0.0000
# 6 0.0000 0.0000 0.0000 0.0000 0.0000 -114.7799
#
#
#
# Elastic Compliance Matrix: (Units=1/GPa)
#
#
# Indices 1 2 3 4 5 6 
#
# 1 0.014499 0.000010 -0.002449 0.000000 0.000000 0.000000
# 2 0.000010 0.096033 -0.003148 0.000000 0.000000 0.000000
# 3 -0.002449 -0.003148 0.009687 0.000000 0.000000 0.000000
# 4 0.000000 0.000000 0.000000 0.043905 0.000000 0.000000
# 5 0.000000 0.000000 0.000000 0.000000 -0.054951 0.000000
# 6 0.000000 0.000000 0.000000 0.000000 0.000000 -0.008712
#
#
# Mechanical properties :
#
#
# Convention : Reuss Voigt Hill
#
# Bulk Modulus (GPa) = 9.17049 26.31478 17.74264
# Shear Modulus (GPa) = 33.78784 -10.76858 11.50963
#
# Velocity S-wave (km/s) = 4.35584 -2.45907 2.54228
# Velocity P-wave (km/s) = 5.51792 2.59118 4.31055
#
# Compressibility (1/GPa) = 0.10904538
#
# Stress axis : x y z
#
# Youngs Moduli (GPa) = 68.97065 10.41311 103.23411
#
# Poissons Ratio (x) = -0.00011 0.25282
# Poissons Ratio (y) = -0.00070 0.32495
# Poissons Ratio (z) = 0.16891 0.03278
#
# Static dielectric constant tensor:
#      x y z
#    x 1.634580 0.000000 0.000000 
#    y 0.000000 1.635450 0.000000 
#    z 0.000000 0.000000 1.626360 
# 
# From -- ./inp_files/40237.got.cif
#   From: 2010.05.17/outbox.cif.g08.bks.cpg/sg65_21_cif.got.tgz:40237.got - 2010.06.03 17:01:31.
