data_PCOD9491956
_publ_section_title
;
Structure prediction by ZEFSAII (Michael W. Deem and Ramdas Pophale) SiO2 
 PCOD9491956
Probable space group: C M M M
;
_chemical_formula_sum "Si O2"
_cell_formula_units_Z 72
_cell_length_a 14.261904
_cell_length_b 29.381697
_cell_length_c 8.781910
_cell_angle_alpha 90.000000
_cell_angle_beta 90.000000
_cell_angle_gamma 90.000000
_cell_volume 3679.962275
_symmetry_space_group_name_H-M "C M M M"
_symmetry_group_IT_number 65
_symmetry_cell_setting 'orthorhombic'
loop_
_space_group_symop_operation_xyz
x,y,z
-x,-y,z
x,-y,-z
-x,y,-z
-x,-y,-z
x,y,-z
-x,y,z
x,-y,z
1/2+x,1/2+y,z
1/2-x,1/2-y,z
1/2+x,1/2-y,-z
1/2-x,1/2+y,-z
1/2-x,1/2-y,-z
1/2+x,1/2+y,-z
1/2-x,1/2+y,z
1/2+x,1/2-y,z
loop_
_atom_site_type_symbol
_atom_site_label
_atom_site_fract_x
_atom_site_fract_y
_atom_site_fract_z
Si Si1 0.285283 0.913137 0.817724
Si Si2 0.391011 0.373820 0.319168
Si Si3 0.385845 0.277578 0.825445
Si Si4 0.390596 0.000000 0.317415
Si Si5 0.891891 0.321734 0.185373
O O1 0.178570 0.908308 0.763405
O O2 0.338909 0.955552 0.746391
O O3 0.334981 0.865972 0.767708
O O4 0.290068 0.915942 0.000000
O O5 0.382570 0.378377 0.500000
O O6 0.500000 0.380384 0.276150
O O7 0.364460 0.322340 0.269809
O O8 0.500000 0.274132 0.830478
O O9 0.354384 0.227995 0.767338
O O10 0.353019 0.284548 0.000000
O O11 0.500000 0.000000 0.271059
O O12 0.386259 0.000000 0.500000
O O13 0.000000 0.326566 0.234576
O O14 0.891795 0.320212 0.000000
#
# Coordination Sequence:
#
# PCOD9491956 Si02
#       5
#    16  16  16   8  16
#     4  11  22  37  61  88 112 144 191 241 284 333
#     4  10  21  37  55  78 114 156 193 233 283 337
#     4   8  14  28  51  77 108 148 191 232 275 327
#     4  11  25  45  66  89 120 151 177 216 276 341
#     4   8  15  29  51  81 114 146 184 232 282 331
#
# _framework density 19.565417
#
# number of rings (size 3 to 8) (size 9 to 14) (size 15 to 20)
#    0.000    2.556    0.000    3.667    0.000    4.000 
#    0.000    7.222    0.000    8.667    0.000    0.000 
#    0.000    0.000    0.000    0.000    0.000    0.000 
#
# Total GULP energy -201025.602954 kJ/mol
# GULP energy per Si atom -5584.044527 kJ/mol
# Density = 1.952089 g / cm^3
# Si number density = 19.565417 Si / 1000 Ang^3
#
#
#
# Elastic Constant Matrix: (Units=GPa)
#
#
# Indices 1 2 3 4 5 6 
#
# 1 118.7848 85.3742 42.1341 0.0000 0.0000 0.0000
# 2 85.3742 128.7185 42.5709 0.0000 0.0000 0.0000
# 3 42.1341 42.5709 42.4446 0.0000 0.0000 0.0000
# 4 0.0000 0.0000 0.0000 90.3583 0.0000 0.0000
# 5 0.0000 0.0000 0.0000 0.0000 19.0614 0.0000
# 6 0.0000 0.0000 0.0000 0.0000 0.0000 32.9530
#
#
#
# Elastic Compliance Matrix: (Units=1/GPa)
#
#
# Indices 1 2 3 4 5 6 
#
# 1 0.018067 -0.009055 -0.008853 0.000000 0.000000 0.000000
# 2 -0.009055 0.016164 -0.007223 0.000000 0.000000 0.000000
# 3 -0.008853 -0.007223 0.039592 0.000000 0.000000 0.000000
# 4 0.000000 0.000000 0.000000 0.011067 0.000000 0.000000
# 5 0.000000 0.000000 0.000000 0.000000 0.052462 0.000000
# 6 0.000000 0.000000 0.000000 0.000000 0.000000 0.030346
#
#
# Mechanical properties :
#
#
# Convention : Reuss Voigt Hill
#
# Bulk Modulus (GPa) = 42.44185 70.01182 56.22683
# Shear Modulus (GPa) = 22.14216 36.46578 29.30397
#
# Velocity S-wave (km/s) = 3.36772 4.32184 3.87427
# Velocity P-wave (km/s) = 6.07136 7.79523 6.98667
#
# Compressibility (1/GPa) = 0.02356165
#
# Stress axis : x y z
#
# Youngs Moduli (GPa) = 55.34925 61.86671 25.25753
#
# Poissons Ratio (x) = 0.56023 0.22359
# Poissons Ratio (y) = 0.50121 0.18243
# Poissons Ratio (z) = 0.48998 0.44684
#
# Static dielectric constant tensor:
#      x y z
#    x 1.725700 0.000000 0.000000 
#    y 0.000000 1.669600 0.000000 
#    z 0.000000 0.000000 1.655050 
# 
# From -- ./inp_files/7318.got.cif
#   From: 2010.05.17/outbox.cif.g08.bks.cpg/sg65_4_cif.got.tgz:7318.got - 2010.06.03 17:01:31.
