data_PCOD9491916
_publ_section_title
;
Structure prediction by ZEFSAII (Michael W. Deem and Ramdas Pophale) SiO2 
 PCOD9491916
Probable space group: C M M M
;
_chemical_formula_sum "Si O2"
_cell_formula_units_Z 80
_cell_length_a 9.133830
_cell_length_b 25.970088
_cell_length_c 22.607976
_cell_angle_alpha 90.000000
_cell_angle_beta 90.000000
_cell_angle_gamma 90.000000
_cell_volume 5362.755895
_symmetry_space_group_name_H-M "C M M M"
_symmetry_group_IT_number 65
_symmetry_cell_setting 'orthorhombic'
loop_
_space_group_symop_operation_xyz
x,y,z
-x,-y,z
x,-y,-z
-x,y,-z
-x,-y,-z
x,y,-z
-x,y,z
x,-y,z
1/2+x,1/2+y,z
1/2-x,1/2-y,z
1/2+x,1/2-y,-z
1/2-x,1/2+y,-z
1/2-x,1/2-y,-z
1/2+x,1/2+y,-z
1/2-x,1/2+y,z
1/2+x,1/2-y,z
loop_
_atom_site_type_symbol
_atom_site_label
_atom_site_fract_x
_atom_site_fract_y
_atom_site_fract_z
Si Si1 0.676113 0.598422 0.131082
Si Si2 0.174165 0.939459 0.739150
Si Si3 0.831232 0.562693 0.619215
Si Si4 0.831306 0.937220 0.500000
Si Si5 0.173417 0.304613 0.070520
Si Si6 0.826817 0.500000 0.929056
O O1 0.500000 0.597860 0.123162
O O2 0.707288 0.590723 0.200791
O O3 0.746686 0.650109 0.105662
O O4 0.748223 0.550171 0.097371
O O5 0.256526 0.921116 0.680496
O O6 0.000000 0.937000 0.728512
O O7 0.210666 0.000000 0.749234
O O8 0.825595 0.500000 0.619172
O O9 0.748126 0.579797 0.560045
O O10 0.000000 0.578069 0.617111
O O11 0.000000 0.921644 0.500000
O O12 0.827359 0.000000 0.500000
O O13 0.250000 0.250000 0.082974
O O14 0.000000 0.302858 0.083667
O O15 0.188856 0.314476 0.000000
O O16 0.000000 0.500000 0.914039
O O17 0.814412 0.500000 0.000000
#
# Coordination Sequence:
#
# PCOD9491916 Si02
#       6
#    16  16  16   8  16   8
#     4  11  21  34  51  71  94 123 156 193 235 282
#     4   9  17  30  43  59  86 119 153 185 223 274
#     4   9  16  24  36  55  78 107 146 189 226 261
#     4   9  15  23  35  51  73 107 146 185 226 263
#     4  10  21  37  55  74  94 118 151 192 238 287
#     4  11  23  35  47  67  95 124 155 192 233 279
#
# _framework density 14.917702999999999
#
# number of rings (size 3 to 8) (size 9 to 14) (size 15 to 20)
#    0.000    2.200    1.000    3.000    0.000    9.600 
#    0.000    0.000    0.000    0.000    0.000    0.000 
#    0.000    0.000    0.000    0.900    0.000   12.100 
#
# Total GULP energy -223095.115930 kJ/mol
# GULP energy per Si atom -5577.377898 kJ/mol
# Density = 1.488375 g / cm^3
# Si number density = 14.917703 Si / 1000 Ang^3
#
#
#
# Elastic Constant Matrix: (Units=GPa)
#
#
# Indices 1 2 3 4 5 6 
#
# 1 121.5197 57.5726 98.3599 0.0000 0.0000 0.0000
# 2 57.5726 76.9614 64.2497 0.0000 0.0000 0.0000
# 3 98.3599 64.2497 134.1667 0.0000 0.0000 0.0000
# 4 0.0000 0.0000 0.0000 5.2988 0.0000 0.0000
# 5 0.0000 0.0000 0.0000 0.0000 24.4226 0.0000
# 6 0.0000 0.0000 0.0000 0.0000 0.0000 20.1402
#
#
#
# Elastic Compliance Matrix: (Units=1/GPa)
#
#
# Indices 1 2 3 4 5 6 
#
# 1 0.021260 -0.004819 -0.013278 0.000000 0.000000 0.000000
# 2 -0.004819 0.022740 -0.007357 0.000000 0.000000 0.000000
# 3 -0.013278 -0.007357 0.020711 0.000000 0.000000 0.000000
# 4 0.000000 0.000000 0.000000 0.188723 0.000000 0.000000
# 5 0.000000 0.000000 0.000000 0.000000 0.040946 0.000000
# 6 0.000000 0.000000 0.000000 0.000000 0.000000 0.049652
#
#
# Mechanical properties :
#
#
# Convention : Reuss Voigt Hill
#
# Bulk Modulus (GPa) = 72.44902 85.89026 79.16964
# Shear Modulus (GPa) = 12.51436 17.47004 14.99220
#
# Velocity S-wave (km/s) = 2.89951 3.42584 3.17360
# Velocity P-wave (km/s) = 7.73827 8.56443 8.16181
#
# Compressibility (1/GPa) = 0.01380281
#
# Stress axis : x y z
#
# Youngs Moduli (GPa) = 47.03730 43.97495 48.28309
#
# Poissons Ratio (x) = 0.21190 0.64112
# Poissons Ratio (y) = 0.22666 0.35523
# Poissons Ratio (z) = 0.62458 0.32353
#
# Static dielectric constant tensor:
#      x y z
#    x 1.498250 0.000000 0.000000 
#    y 0.000000 1.459050 0.000000 
#    z 0.000000 0.000000 1.491260 
# 
# From -- ./inp_files/59659.got.cif
#   From: 2010.05.17/outbox.cif.g08.bks.cpg/sg65_30_cif.got.tgz:59659.got - 2010.06.03 17:01:31.
