data_PCOD9491721
_publ_section_title
;
Structure prediction by ZEFSAII (Michael W. Deem and Ramdas Pophale) SiO2 
 PCOD9491721
Probable space group: C M M M
;
_chemical_formula_sum "Si O2"
_cell_formula_units_Z 88
_cell_length_a 18.786340
_cell_length_b 8.012683
_cell_length_c 29.977404
_cell_angle_alpha 90.000000
_cell_angle_beta 90.000000
_cell_angle_gamma 90.000000
_cell_volume 4512.468262
_symmetry_space_group_name_H-M "C M M M"
_symmetry_group_IT_number 65
_symmetry_cell_setting 'orthorhombic'
loop_
_space_group_symop_operation_xyz
x,y,z
-x,-y,z
x,-y,-z
-x,y,-z
-x,-y,-z
x,y,-z
-x,y,z
x,-y,z
1/2+x,1/2+y,z
1/2-x,1/2-y,z
1/2+x,1/2-y,-z
1/2-x,1/2+y,-z
1/2-x,1/2-y,-z
1/2+x,1/2+y,-z
1/2-x,1/2+y,z
1/2+x,1/2-y,z
loop_
_atom_site_type_symbol
_atom_site_label
_atom_site_fract_x
_atom_site_fract_y
_atom_site_fract_z
Si Si1 0.667986 0.699323 0.722173
Si Si2 0.083286 0.298744 0.904070
Si Si3 0.413849 0.200139 0.000000
Si Si4 0.081885 0.799509 0.807864
Si Si5 0.668229 0.798452 0.449974
Si Si6 0.580638 0.798921 0.634962
O O1 0.664600 0.500000 0.723347
O O2 0.750000 0.750000 0.721106
O O3 0.628290 0.764309 0.766606
O O4 0.627058 0.756563 0.678031
O O5 0.084770 0.500000 0.904953
O O6 0.112896 0.236735 0.951861
O O7 0.113143 0.242810 0.856598
O O8 0.000000 0.246317 0.903115
O O9 0.500000 0.222948 0.000000
O O10 0.402422 0.000000 0.000000
O O11 0.000000 0.736288 0.804980
O O12 0.078726 0.000000 0.804967
O O13 0.649346 0.739342 0.500000
O O14 0.750000 0.750000 0.441326
O O15 0.618272 0.736459 0.410230
O O16 0.664421 0.000000 0.450385
O O17 0.500000 0.735992 0.639523
O O18 0.577785 0.000000 0.631839
#
# Coordination Sequence:
#
# PCOD9491721 Si02
#       6
#    16  16   8  16  16  16
#     4  11  23  38  55  74  99 132 169 210 257 306
#     4   8  13  22  39  63  91 124 159 194 233 281
#     4   7  10  18  33  57  90 123 154 189 231 279
#     4   9  18  32  48  68  96 127 158 196 246 299
#     4   9  18  33  53  77 106 140 175 210 249 293
#     4  10  21  36  55  80 107 135 170 211 253 300
#
# _framework density 19.501522999999999
#
# number of rings (size 3 to 8) (size 9 to 14) (size 15 to 20)
#    0.000    2.818    0.000    2.727    0.000    5.091 
#    0.000    4.091    0.000    2.727    0.000    4.455 
#    0.000    0.000    0.000    0.000    0.000    0.000 
#
# Total GULP energy -245219.683388 kJ/mol
# GULP energy per Si atom -5573.174622 kJ/mol
# Density = 1.945714 g / cm^3
# Si number density = 19.501523 Si / 1000 Ang^3
#
#
#
# Elastic Constant Matrix: (Units=GPa)
#
#
# Indices 1 2 3 4 5 6 
#
# 1 98.0659 5.7477 104.5376 0.0000 0.0000 0.0000
# 2 5.7477 12.6444 12.4020 0.0000 0.0000 0.0000
# 3 104.5376 12.4020 227.9406 0.0000 0.0000 0.0000
# 4 0.0000 0.0000 0.0000 28.8254 0.0000 0.0000
# 5 0.0000 0.0000 0.0000 0.0000 -4.2681 0.0000
# 6 0.0000 0.0000 0.0000 0.0000 0.0000 11.5695
#
#
#
# Elastic Compliance Matrix: (Units=1/GPa)
#
#
# Indices 1 2 3 4 5 6 
#
# 1 0.019951 -0.000100 -0.009144 0.000000 0.000000 0.000000
# 2 -0.000100 0.083545 -0.004500 0.000000 0.000000 0.000000
# 3 -0.009144 -0.004500 0.008826 0.000000 0.000000 0.000000
# 4 0.000000 0.000000 0.000000 0.034692 0.000000 0.000000
# 5 0.000000 0.000000 0.000000 0.000000 -0.234298 0.000000
# 6 0.000000 0.000000 0.000000 0.000000 0.000000 0.086434
#
#
# Mechanical properties :
#
#
# Convention : Reuss Voigt Hill
#
# Bulk Modulus (GPa) = 11.78777 64.89174 38.33976
# Shear Modulus (GPa) = 91.04893 21.62293 56.33593
#
# Velocity S-wave (km/s) = 6.84028 3.33345 5.38058
# Velocity P-wave (km/s) = 8.27307 6.93998 7.63567
#
# Compressibility (1/GPa) = 0.08483365
#
# Stress axis : x y z
#
# Youngs Moduli (GPa) = 50.12276 11.96957 113.30480
#
# Poissons Ratio (x) = 0.00120 1.03611
# Poissons Ratio (y) = 0.00501 0.50985
# Poissons Ratio (z) = 0.45835 0.05386
#
# Static dielectric constant tensor:
#      x y z
#    x 1.642700 0.000000 0.000000 
#    y 0.000000 1.697310 0.000000 
#    z 0.000000 0.000000 1.728140 
# 
# From -- ./inp_files/77797.got.cif
#   From: 2010.05.17/outbox.cif.g08.bks.cpg/sg65_39_cif.got.tgz:77797.got - 2010.06.03 17:01:31.
