data_PCOD9491020
_publ_section_title
;
Structure prediction by ZEFSAII (Michael W. Deem and Ramdas Pophale) SiO2 
 PCOD9491020
Probable space group: C M M M
;
_chemical_formula_sum "Si O2"
_cell_formula_units_Z 56
_cell_length_a 26.318867
_cell_length_b 7.381598
_cell_length_c 13.327073
_cell_angle_alpha 90.000000
_cell_angle_beta 90.000000
_cell_angle_gamma 90.000000
_cell_volume 2589.121052
_symmetry_space_group_name_H-M "C M M M"
_symmetry_group_IT_number 65
_symmetry_cell_setting 'orthorhombic'
loop_
_space_group_symop_operation_xyz
x,y,z
-x,-y,z
x,-y,-z
-x,y,-z
-x,-y,-z
x,y,-z
-x,y,z
x,-y,z
1/2+x,1/2+y,z
1/2-x,1/2-y,z
1/2+x,1/2-y,-z
1/2-x,1/2+y,-z
1/2-x,1/2-y,-z
1/2+x,1/2+y,-z
1/2-x,1/2+y,z
1/2+x,1/2-y,z
loop_
_atom_site_type_symbol
_atom_site_label
_atom_site_fract_x
_atom_site_fract_y
_atom_site_fract_z
Si Si1 0.385990 0.720399 0.889923
Si Si2 0.416518 0.000000 0.500000
Si Si3 0.693642 0.715404 0.276606
Si Si4 0.000000 0.782584 0.165266
Si Si5 0.830521 0.218497 0.500000
Si Si6 0.500000 0.000000 0.664947
O O1 0.384709 0.500000 0.887203
O O2 0.350855 0.784498 0.797335
O O3 0.445689 0.770036 0.882431
O O4 0.366802 0.776675 0.000000
O O5 0.384188 0.817352 0.500000
O O6 0.450955 0.000000 0.403106
O O7 0.686377 0.500000 0.282162
O O8 0.750000 0.750000 0.235248
O O9 0.692611 0.780140 0.392824
O O10 0.000000 0.680175 0.269765
O O11 0.000000 0.000000 0.172570
O O12 0.832369 0.000000 0.500000
#
# Coordination Sequence:
#
# PCOD9491020 Si02
#       6
#    16   4  16   8   8   4
#     4   9  18  35  60  87 115 155 201 242 295 358
#     4  11  24  38  60  86 124 166 188 249 310 346
#     4  10  21  36  57  85 118 154 196 248 296 354
#     4  10  20  39  65  85 117 158 197 247 301 346
#     4  10  22  40  61  87 115 152 206 247 292 355
#     4  11  24  38  55  94 126 150 207 245 290 370
#
# _framework density 21.628961
#
# number of rings (size 3 to 8) (size 9 to 14) (size 15 to 20)
#    0.000    2.143    0.000    2.571    2.000    5.714 
#    2.571    2.857    0.000    0.000    0.000    0.000 
#    0.000    0.000    0.000    0.000    0.000    0.000 
#
# Total GULP energy -156197.131879 kJ/mol
# GULP energy per Si atom -5578.468996 kJ/mol
# Density = 2.157973 g / cm^3
# Si number density = 21.628961 Si / 1000 Ang^3
#
#
#
# Elastic Constant Matrix: (Units=GPa)
#
#
# Indices 1 2 3 4 5 6 
#
# 1 146.4221 3.7937 84.0193 0.0000 0.0000 0.0000
# 2 3.7937 59.9948 9.6171 0.0000 0.0000 0.0000
# 3 84.0193 9.6171 160.8507 0.0000 0.0000 0.0000
# 4 0.0000 0.0000 0.0000 46.4687 0.0000 0.0000
# 5 0.0000 0.0000 0.0000 0.0000 20.6332 0.0000
# 6 0.0000 0.0000 0.0000 0.0000 0.0000 23.1852
#
#
#
# Elastic Compliance Matrix: (Units=1/GPa)
#
#
# Indices 1 2 3 4 5 6 
#
# 1 0.009755 0.000202 -0.005108 0.000000 0.000000 0.000000
# 2 0.000202 0.016834 -0.001112 0.000000 0.000000 0.000000
# 3 -0.005108 -0.001112 0.008951 0.000000 0.000000 0.000000
# 4 0.000000 0.000000 0.000000 0.021520 0.000000 0.000000
# 5 0.000000 0.000000 0.000000 0.000000 0.048466 0.000000
# 6 0.000000 0.000000 0.000000 0.000000 0.000000 0.043131
#
#
# Mechanical properties :
#
#
# Convention : Reuss Voigt Hill
#
# Bulk Modulus (GPa) = 42.54446 62.45864 52.50155
# Shear Modulus (GPa) = 29.66889 36.04660 32.85775
#
# Velocity S-wave (km/s) = 3.70769 4.08682 3.90186
# Velocity P-wave (km/s) = 6.16783 7.15608 6.68025
#
# Compressibility (1/GPa) = 0.02350483
#
# Stress axis : x y z
#
# Youngs Moduli (GPa) = 102.50967 59.40502 111.71490
#
# Poissons Ratio (x) = -0.01199 0.57060
# Poissons Ratio (y) = -0.02069 0.12422
# Poissons Ratio (z) = 0.52358 0.06605
#
# Static dielectric constant tensor:
#      x y z
#    x 1.766040 0.000000 0.000000 
#    y 0.000000 2.553460 0.000000 
#    z 0.000000 0.000000 1.794990 
# 
# From -- ./inp_files/43628.got.cif
#   From: 2010.05.17/outbox.cif.g08.bks.cpg/sg65_22_cif.got.tgz:43628.got - 2010.06.03 17:01:31.
