data_PCOD9491651
_publ_section_title
;
Structure prediction by ZEFSAII (Michael W. Deem and Ramdas Pophale) SiO2 
 PCOD9491651
Probable space group: C M M M
;
_chemical_formula_sum "Si O2"
_cell_formula_units_Z 80
_cell_length_a 9.063132
_cell_length_b 19.369621
_cell_length_c 25.584667
_cell_angle_alpha 90.000000
_cell_angle_beta 90.000000
_cell_angle_gamma 90.000000
_cell_volume 4491.373758
_symmetry_space_group_name_H-M "C M M M"
_symmetry_group_IT_number 65
_symmetry_cell_setting 'orthorhombic'
loop_
_space_group_symop_operation_xyz
x,y,z
-x,-y,z
x,-y,-z
-x,y,-z
-x,-y,-z
x,y,-z
-x,y,z
x,-y,z
1/2+x,1/2+y,z
1/2-x,1/2-y,z
1/2+x,1/2-y,-z
1/2-x,1/2+y,-z
1/2-x,1/2-y,-z
1/2+x,1/2+y,-z
1/2-x,1/2+y,z
1/2+x,1/2-y,z
loop_
_atom_site_type_symbol
_atom_site_label
_atom_site_fract_x
_atom_site_fract_y
_atom_site_fract_z
Si Si1 0.323379 0.081412 0.733837
Si Si2 0.824115 0.825171 0.353771
Si Si3 0.174275 0.419936 0.437743
Si Si4 0.675663 0.324545 0.940814
Si Si5 0.174474 0.418362 0.855063
O O1 0.500000 0.090452 0.726227
O O2 0.234916 0.130017 0.695000
O O3 0.289522 0.097351 0.794513
O O4 0.291973 0.000000 0.724751
O O5 0.750000 0.750000 0.353150
O O6 0.770421 0.867358 0.404652
O O7 0.000000 0.818987 0.352579
O O8 0.193924 0.411662 0.500000
O O9 0.208598 0.500000 0.424604
O O10 0.000000 0.409353 0.426180
O O11 0.500000 0.317534 0.937021
O O12 0.750000 0.250000 0.934107
O O13 0.735126 0.375222 0.896713
O O14 0.711567 0.348859 0.000000
O O15 0.198343 0.500000 0.862386
O O16 0.000000 0.404805 0.862042
#
# Coordination Sequence:
#
# PCOD9491651 Si02
#       5
#    16  16  16  16  16
#     4   9  19  38  61  82 108 142 179 221 270 325
#     4  12  25  38  55  81 113 148 185 226 272 320
#     4   9  19  38  63  87 112 145 182 220 268 325
#     4  10  21  36  54  77 107 144 183 223 269 321
#     4   9  19  36  58  83 109 140 178 220 269 323
#
# _framework density 17.811923
#
# number of rings (size 3 to 8) (size 9 to 14) (size 15 to 20)
#    0.000    2.200    0.000    4.800    0.000    7.600 
#    0.000    5.000    0.000    0.000    0.000    0.000 
#    0.000    0.000    0.000    0.000    0.000    0.000 
#
# Total GULP energy -223380.545982 kJ/mol
# GULP energy per Si atom -5584.513650 kJ/mol
# Density = 1.777138 g / cm^3
# Si number density = 17.811923 Si / 1000 Ang^3
#
#
#
# Elastic Constant Matrix: (Units=GPa)
#
#
# Indices 1 2 3 4 5 6 
#
# 1 105.4373 86.7543 84.0708 0.0000 0.0000 0.0000
# 2 86.7543 105.2928 85.1242 0.0000 0.0000 0.0000
# 3 84.0708 85.1242 109.8223 0.0000 0.0000 0.0000
# 4 0.0000 0.0000 0.0000 65.7214 0.0000 0.0000
# 5 0.0000 0.0000 0.0000 0.0000 36.8751 0.0000
# 6 0.0000 0.0000 0.0000 0.0000 0.0000 36.1466
#
#
#
# Elastic Compliance Matrix: (Units=1/GPa)
#
#
# Indices 1 2 3 4 5 6 
#
# 1 0.034220 -0.018794 -0.011629 0.000000 0.000000 0.000000
# 2 -0.018794 0.035759 -0.013330 0.000000 0.000000 0.000000
# 3 -0.011629 -0.013330 0.028340 0.000000 0.000000 0.000000
# 4 0.000000 0.000000 0.000000 0.015216 0.000000 0.000000
# 5 0.000000 0.000000 0.000000 0.000000 0.027119 0.000000
# 6 0.000000 0.000000 0.000000 0.000000 0.000000 0.027665
#
#
# Mechanical properties :
#
#
# Convention : Reuss Voigt Hill
#
# Bulk Modulus (GPa) = 92.47646 92.49458 92.48552
# Shear Modulus (GPa) = 19.27308 32.05548 25.66428
#
# Velocity S-wave (km/s) = 3.29299 4.24685 3.79997
# Velocity P-wave (km/s) = 8.15410 8.72289 8.44329
#
# Compressibility (1/GPa) = 0.01081356
#
# Stress axis : x y z
#
# Youngs Moduli (GPa) = 29.22234 27.96505 35.28572
#
# Poissons Ratio (x) = 0.52557 0.41034
# Poissons Ratio (y) = 0.54920 0.47036
# Poissons Ratio (z) = 0.33983 0.37278
#
# Static dielectric constant tensor:
#      x y z
#    x 1.588690 0.000000 0.000000 
#    y 0.000000 1.576130 0.000000 
#    z 0.000000 0.000000 1.607170 
# 
# From -- ./inp_files/72771.got.cif
#   From: 2010.05.17/outbox.cif.g08.bks.cpg/sg65_37_cif.got.tgz:72771.got - 2010.06.03 17:01:31.
