data_PCOD9491465
_publ_section_title
;
Structure prediction by ZEFSAII (Michael W. Deem and Ramdas Pophale) SiO2 
 PCOD9491465
Probable space group: C M M M
;
_chemical_formula_sum "Si O2"
_cell_formula_units_Z 88
_cell_length_a 20.599255
_cell_length_b 30.973614
_cell_length_c 8.628325
_cell_angle_alpha 90.000000
_cell_angle_beta 90.000000
_cell_angle_gamma 90.000000
_cell_volume 5505.159304
_symmetry_space_group_name_H-M "C M M M"
_symmetry_group_IT_number 65
_symmetry_cell_setting 'orthorhombic'
loop_
_space_group_symop_operation_xyz
x,y,z
-x,-y,z
x,-y,-z
-x,y,-z
-x,-y,-z
x,y,-z
-x,y,z
x,-y,z
1/2+x,1/2+y,z
1/2-x,1/2-y,z
1/2+x,1/2-y,-z
1/2-x,1/2+y,-z
1/2-x,1/2-y,-z
1/2+x,1/2+y,-z
1/2-x,1/2+y,z
1/2+x,1/2-y,z
loop_
_atom_site_type_symbol
_atom_site_label
_atom_site_fract_x
_atom_site_fract_y
_atom_site_fract_z
Si Si1 0.500000 0.947630 0.823269
Si Si2 0.788350 0.206064 0.314854
Si Si3 0.071977 0.774995 0.813993
Si Si4 0.569424 0.172589 0.186900
Si Si5 0.798295 0.369715 0.186221
Si Si6 0.859460 0.449786 0.685176
O O1 0.431290 0.936295 0.745736
O O2 0.500000 0.000000 0.824846
O O3 0.500000 0.931625 0.000000
O O4 0.783036 0.205180 0.500000
O O5 0.750000 0.250000 0.260521
O O6 0.863543 0.207449 0.265394
O O7 0.756050 0.162949 0.246286
O O8 0.072332 0.723604 0.783247
O O9 0.000000 0.791203 0.766147
O O10 0.077135 0.780720 0.000000
O O11 0.500000 0.155944 0.245499
O O12 0.634066 0.150936 0.246329
O O13 0.569649 0.167650 0.000000
O O14 0.804440 0.418544 0.245990
O O15 0.797008 0.369733 0.000000
O O16 0.859398 0.447084 0.500000
O O17 0.849990 0.500000 0.730041
#
# Coordination Sequence:
#
# PCOD9491465 Si02
#       6
#     8  16  16  16  16  16
#     4   9  17  31  51  71  91 123 169 213 251 295
#     4  11  22  34  48  70 104 137 166 203 247 300
#     4   9  17  32  53  72  93 126 168 209 247 291
#     4   8  15  27  43  66  93 122 161 207 249 287
#     4  11  21  32  52  73  94 128 170 214 252 297
#     4  10  21  36  50  67  96 129 162 207 262 309
#
# _framework density 15.985004999999999
#
# number of rings (size 3 to 8) (size 9 to 14) (size 15 to 20)
#    0.000    2.273    1.818    3.000    1.273    3.273 
#    0.000    0.000    0.000    0.000    0.000    0.000 
#    0.000    0.727    0.000    7.636    0.000    3.273 
#
# Total GULP energy -245313.545390 kJ/mol
# GULP energy per Si atom -5575.307850 kJ/mol
# Density = 1.594862 g / cm^3
# Si number density = 15.985005 Si / 1000 Ang^3
#
#
#
# Elastic Constant Matrix: (Units=GPa)
#
#
# Indices 1 2 3 4 5 6 
#
# 1 104.8026 56.8649 30.7673 0.0000 0.0000 0.0000
# 2 56.8649 88.9295 34.9159 0.0000 0.0000 0.0000
# 3 30.7673 34.9159 45.4171 0.0000 0.0000 0.0000
# 4 0.0000 0.0000 0.0000 18.2356 0.0000 0.0000
# 5 0.0000 0.0000 0.0000 0.0000 21.3768 0.0000
# 6 0.0000 0.0000 0.0000 0.0000 0.0000 27.0744
#
#
#
# Elastic Compliance Matrix: (Units=1/GPa)
#
#
# Indices 1 2 3 4 5 6 
#
# 1 0.015107 -0.008081 -0.004022 0.000000 0.000000 0.000000
# 2 -0.008081 0.020429 -0.010231 0.000000 0.000000 0.000000
# 3 -0.004022 -0.010231 0.032608 0.000000 0.000000 0.000000
# 4 0.000000 0.000000 0.000000 0.054838 0.000000 0.000000
# 5 0.000000 0.000000 0.000000 0.000000 0.046780 0.000000
# 6 0.000000 0.000000 0.000000 0.000000 0.000000 0.036935
#
#
# Mechanical properties :
#
#
# Convention : Reuss Voigt Hill
#
# Bulk Modulus (GPa) = 42.59535 53.80505 48.20020
# Shear Modulus (GPa) = 19.29084 21.11077 20.20080
#
# Velocity S-wave (km/s) = 3.47768 3.63803 3.55876
# Velocity P-wave (km/s) = 6.54451 7.16797 6.86332
#
# Compressibility (1/GPa) = 0.02347674
#
# Stress axis : x y z
#
# Youngs Moduli (GPa) = 66.19410 48.94944 30.66721
#
# Poissons Ratio (x) = 0.39556 0.12333
# Poissons Ratio (y) = 0.53492 0.31376
# Poissons Ratio (z) = 0.26620 0.50081
#
# Static dielectric constant tensor:
#      x y z
#    x 1.537660 0.000000 0.000000 
#    y 0.000000 1.567640 0.000000 
#    z 0.000000 0.000000 1.536420 
# 
# From -- ./inp_files/10151.got.cif
#   From: 2010.05.17/outbox.cif.g08.bks.cpg/sg65_6_cif.got.tgz:10151.got - 2010.06.03 17:01:31.
