data_PCOD9491357
_publ_section_title
;
Structure prediction by ZEFSAII (Michael W. Deem and Ramdas Pophale) SiO2 
 PCOD9491357
Probable space group: C M M M
;
_chemical_formula_sum "Si O2"
_cell_formula_units_Z 96
_cell_length_a 21.010077
_cell_length_b 25.302094
_cell_length_c 7.461727
_cell_angle_alpha 90.000000
_cell_angle_beta 90.000000
_cell_angle_gamma 90.000000
_cell_volume 3966.646188
_symmetry_space_group_name_H-M "C M M M"
_symmetry_group_IT_number 65
_symmetry_cell_setting 'orthorhombic'
loop_
_space_group_symop_operation_xyz
x,y,z
-x,-y,z
x,-y,-z
-x,y,-z
-x,-y,-z
x,y,-z
-x,y,z
x,-y,z
1/2+x,1/2+y,z
1/2-x,1/2-y,z
1/2+x,1/2-y,-z
1/2-x,1/2+y,-z
1/2-x,1/2-y,-z
1/2+x,1/2+y,-z
1/2-x,1/2+y,z
1/2+x,1/2-y,z
loop_
_atom_site_type_symbol
_atom_site_label
_atom_site_fract_x
_atom_site_fract_y
_atom_site_fract_z
Si Si1 0.069236 0.668816 0.717945
Si Si2 0.676672 0.748890 0.281339
Si Si3 0.068132 0.826433 0.294574
Si Si4 0.759449 0.063228 0.699800
Si Si5 0.120883 0.560119 0.280650
Si Si6 0.098824 0.940903 0.796898
O O1 0.070001 0.669963 0.500000
O O2 0.130792 0.702472 0.773244
O O3 0.075371 0.607541 0.771760
O O4 0.000000 0.689449 0.775010
O O5 0.680824 0.749130 0.500000
O O6 0.750000 0.750000 0.218199
O O7 0.633506 0.698603 0.222911
O O8 0.065760 0.807599 0.500000
O O9 0.071368 0.889746 0.295845
O O10 0.000000 0.811923 0.210372
O O11 0.766809 0.086896 0.500000
O O12 0.691669 0.078494 0.777689
O O13 0.825336 0.069403 0.798764
O O14 0.752144 0.000000 0.681521
O O15 0.122923 0.558434 0.500000
O O16 0.106984 0.500000 0.221957
O O17 0.088530 0.000000 0.720043
O O18 0.075467 0.941547 0.000000
#
# Coordination Sequence:
#
# PCOD9491357 Si02
#       6
#    16  16  16  16  16  16
#     4   9  16  25  39  63  99 137 168 204 253 306
#     4   9  18  31  49  73  99 131 174 220 261 302
#     4  10  21  36  55  79 107 139 176 218 261 309
#     4   8  14  26  45  69  99 135 173 212 250 294
#     4   8  14  23  38  65  99 133 168 205 248 301
#     4  10  21  35  52  77 108 140 174 214 264 318
#
# _framework density 24.201806000000001
#
# number of rings (size 3 to 8) (size 9 to 14) (size 15 to 20)
#    0.000    3.000    0.000    2.000    2.333    4.000 
#    0.000    3.333    0.000    0.500    0.000    0.000 
#    0.000    0.667    0.000    6.500    0.000    6.667 
#
# Total GULP energy -267662.366281 kJ/mol
# GULP energy per Si atom -5576.299298 kJ/mol
# Density = 2.414672 g / cm^3
# Si number density = 24.201806 Si / 1000 Ang^3
#
#
#
# Elastic Constant Matrix: (Units=GPa)
#
#
# Indices 1 2 3 4 5 6 
#
# 1 222.4468 83.8939 7.7357 0.0000 0.0000 0.0000
# 2 83.8939 154.1545 0.8385 0.0000 0.0000 0.0000
# 3 7.7357 0.8385 66.7388 0.0000 0.0000 0.0000
# 4 0.0000 0.0000 0.0000 -38.7653 0.0000 0.0000
# 5 0.0000 0.0000 0.0000 0.0000 11.6769 0.0000
# 6 0.0000 0.0000 0.0000 0.0000 0.0000 105.1297
#
#
#
# Elastic Compliance Matrix: (Units=1/GPa)
#
#
# Indices 1 2 3 4 5 6 
#
# 1 0.005682 -0.003089 -0.000620 0.000000 0.000000 0.000000
# 2 -0.003089 0.008167 0.000255 0.000000 0.000000 0.000000
# 3 -0.000620 0.000255 0.015052 0.000000 0.000000 0.000000
# 4 0.000000 0.000000 0.000000 -0.025796 0.000000 0.000000
# 5 0.000000 0.000000 0.000000 0.000000 0.085639 0.000000
# 6 0.000000 0.000000 0.000000 0.000000 0.000000 0.009512
#
#
# Mechanical properties :
#
#
# Convention : Reuss Voigt Hill
#
# Bulk Modulus (GPa) = 45.46581 69.80849 57.63715
# Shear Modulus (GPa) = 44.44692 38.99972 41.72332
#
# Velocity S-wave (km/s) = 4.29010 4.01863 4.15658
# Velocity P-wave (km/s) = 6.58535 7.10207 6.84859
#
# Compressibility (1/GPa) = 0.02199455
#
# Stress axis : x y z
#
# Youngs Moduli (GPa) = 175.99606 122.44963 66.43449
#
# Poissons Ratio (x) = 0.37823 0.04118
# Poissons Ratio (y) = 0.54363 -0.01697
# Poissons Ratio (z) = 0.10908 -0.03128
#
# Static dielectric constant tensor:
#      x y z
#    x 1.956090 0.000000 0.000000 
#    y 0.000000 1.920460 0.000000 
#    z 0.000000 0.000000 1.899790 
# 
# From -- ./inp_files/12280.got.cif
#   From: 2010.05.17/outbox.cif.g08.bks.cpg/sg65_7_cif.got.tgz:12280.got - 2010.06.03 17:01:31.
