data_PCOD9491564
_publ_section_title
;
Structure prediction by ZEFSAII (Michael W. Deem and Ramdas Pophale) SiO2 
 PCOD9491564
Probable space group: C M M M
;
_chemical_formula_sum "Si O2"
_cell_formula_units_Z 96
_cell_length_a 20.654609
_cell_length_b 30.053164
_cell_length_c 8.010676
_cell_angle_alpha 90.000000
_cell_angle_beta 90.000000
_cell_angle_gamma 90.000000
_cell_volume 4972.517794
_symmetry_space_group_name_H-M "C M M M"
_symmetry_group_IT_number 65
_symmetry_cell_setting 'orthorhombic'
loop_
_space_group_symop_operation_xyz
x,y,z
-x,-y,z
x,-y,-z
-x,y,-z
-x,-y,-z
x,y,-z
-x,y,z
x,-y,z
1/2+x,1/2+y,z
1/2-x,1/2-y,z
1/2+x,1/2-y,-z
1/2-x,1/2+y,-z
1/2-x,1/2-y,-z
1/2+x,1/2+y,-z
1/2-x,1/2+y,z
1/2+x,1/2-y,z
loop_
_atom_site_type_symbol
_atom_site_label
_atom_site_fract_x
_atom_site_fract_y
_atom_site_fract_z
Si Si1 0.426221 0.628836 0.299654
Si Si2 0.695643 0.807035 0.202608
Si Si3 0.331678 0.449476 0.301374
Si Si4 0.154422 0.785380 0.200505
Si Si5 0.929629 0.553269 0.305145
Si Si6 0.199426 0.594362 0.192856
O O1 0.428713 0.624227 0.500000
O O2 0.500000 0.627098 0.235857
O O3 0.381286 0.588182 0.234822
O O4 0.392854 0.676449 0.265106
O O5 0.771194 0.798083 0.239283
O O6 0.651220 0.765928 0.261766
O O7 0.684556 0.856709 0.264969
O O8 0.689336 0.806839 0.000000
O O9 0.342701 0.452193 0.500000
O O10 0.338553 0.500000 0.233797
O O11 0.258913 0.431305 0.276156
O O12 0.147750 0.785356 0.000000
O O13 0.922312 0.566192 0.500000
O O14 0.931208 0.500000 0.300874
O O15 0.867480 0.568586 0.206135
O O16 0.000000 0.569682 0.245085
O O17 0.218978 0.599856 0.000000
#
# Coordination Sequence:
#
# PCOD9491564 Si02
#       6
#    16  16  16  16  16  16
#     4  10  21  36  53  76 107 139 176 225 271 309
#     4   8  16  30  52  78 103 130 164 207 252 303
#     4  10  21  36  53  74 103 141 182 219 261 318
#     4   9  16  33  56  75  98 133 172 206 248 309
#     4   9  19  36  54  71  98 139 179 209 246 306
#     4  11  20  32  53  82 109 133 166 218 268 304
#
# _framework density 19.306114999999998
#
# number of rings (size 3 to 8) (size 9 to 14) (size 15 to 20)
#    0.000    2.500    1.667    2.500    0.000    3.667 
#    0.000    6.667    0.000    5.000    0.000    2.333 
#    0.000    0.000    0.000    0.000    0.000    0.000 
#
# Total GULP energy -267412.614617 kJ/mol
# GULP energy per Si atom -5571.096138 kJ/mol
# Density = 1.926217 g / cm^3
# Si number density = 19.306115 Si / 1000 Ang^3
#
#
#
# Elastic Constant Matrix: (Units=GPa)
#
#
# Indices 1 2 3 4 5 6 
#
# 1 120.5493 71.3174 5.8142 0.0000 0.0000 0.0000
# 2 71.3174 140.6150 11.0850 0.0000 0.0000 0.0000
# 3 5.8142 11.0850 12.5573 0.0000 0.0000 0.0000
# 4 0.0000 0.0000 0.0000 27.3781 0.0000 0.0000
# 5 0.0000 0.0000 0.0000 0.0000 -2.8783 0.0000
# 6 0.0000 0.0000 0.0000 0.0000 0.0000 23.5406
#
#
#
# Elastic Compliance Matrix: (Units=1/GPa)
#
#
# Indices 1 2 3 4 5 6 
#
# 1 0.011852 -0.005996 -0.000195 0.000000 0.000000 0.000000
# 2 -0.005996 0.010677 -0.006649 0.000000 0.000000 0.000000
# 3 -0.000195 -0.006649 0.085594 0.000000 0.000000 0.000000
# 4 0.000000 0.000000 0.000000 0.036525 0.000000 0.000000
# 5 0.000000 0.000000 0.000000 0.000000 -0.347423 0.000000
# 6 0.000000 0.000000 0.000000 0.000000 0.000000 0.042480
#
#
# Mechanical properties :
#
#
# Convention : Reuss Voigt Hill
#
# Bulk Modulus (GPa) = 12.12941 50.01721 31.07331
# Shear Modulus (GPa) = -46.67029 21.97508 -12.34760
#
# Velocity S-wave (km/s) = -4.92202 3.37745 -2.53171
# Velocity P-wave (km/s) = 5.09955 6.41664 2.75389
#
# Compressibility (1/GPa) = 0.08244422
#
# Stress axis : x y z
#
# Youngs Moduli (GPa) = 84.37527 93.66233 11.68301
#
# Poissons Ratio (x) = 0.56157 0.00228
# Poissons Ratio (y) = 0.50589 0.07768
# Poissons Ratio (z) = 0.01644 0.62274
#
# Static dielectric constant tensor:
#      x y z
#    x 1.660950 0.000000 0.000000 
#    y 0.000000 1.723990 0.000000 
#    z 0.000000 0.000000 1.714590 
# 
# From -- ./inp_files/12273.got.cif
#   From: 2010.05.17/outbox.cif.g08.bks.cpg/sg65_7_cif.got.tgz:12273.got - 2010.06.03 17:01:31.
