data_PCOD9491196
_publ_section_title
;
Structure prediction by ZEFSAII (Michael W. Deem and Ramdas Pophale) SiO2 
 PCOD9491196
Probable space group: C M M M
;
_chemical_formula_sum "Si O2"
_cell_formula_units_Z 88
_cell_length_a 17.380485
_cell_length_b 12.313320
_cell_length_c 23.431939
_cell_angle_alpha 90.000000
_cell_angle_beta 90.000000
_cell_angle_gamma 90.000000
_cell_volume 5014.703794
_symmetry_space_group_name_H-M "C M M M"
_symmetry_group_IT_number 65
_symmetry_cell_setting 'orthorhombic'
loop_
_space_group_symop_operation_xyz
x,y,z
-x,-y,z
x,-y,-z
-x,y,-z
-x,-y,-z
x,y,-z
-x,y,z
x,-y,z
1/2+x,1/2+y,z
1/2-x,1/2-y,z
1/2+x,1/2-y,-z
1/2-x,1/2+y,-z
1/2-x,1/2-y,-z
1/2+x,1/2+y,-z
1/2-x,1/2+y,z
1/2+x,1/2-y,z
loop_
_atom_site_type_symbol
_atom_site_label
_atom_site_fract_x
_atom_site_fract_y
_atom_site_fract_z
Si Si1 0.700658 0.866141 0.000000
Si Si2 0.841474 0.769672 0.794868
Si Si3 0.159197 0.230004 0.661995
Si Si4 0.087068 0.372438 0.892952
Si Si5 0.411721 0.500000 0.340178
Si Si6 0.907537 0.625840 0.437419
Si Si7 0.588463 0.500000 0.202379
O O1 0.750000 0.750000 0.000000
O O2 0.647066 0.856858 0.055798
O O3 0.728514 0.000000 0.000000
O O4 0.750000 0.750000 0.799215
O O5 0.864475 0.753698 0.728356
O O6 0.885577 0.690550 0.837160
O O7 0.865323 0.891512 0.812841
O O8 0.250000 0.250000 0.660285
O O9 0.121684 0.310004 0.616828
O O10 0.133788 0.108817 0.644524
O O11 0.085928 0.500000 0.880188
O O12 0.000000 0.339601 0.909354
O O13 0.500000 0.500000 0.361549
O O14 0.415672 0.500000 0.271256
O O15 0.881641 0.667704 0.500000
O O16 0.884161 0.500000 0.433477
O O17 0.000000 0.629297 0.437262
O O18 0.500000 0.500000 0.181102
#
# Coordination Sequence:
#
# PCOD9491196 Si02
#       7
#     8  16  16  16   8  16   8
#     4  10  21  41  65  87 117 156 196 238 293 347
#     4  10  21  35  54  83 115 147 189 234 279 338
#     4  10  21  34  55  81 111 146 184 233 284 332
#     4  10  21  37  59  86 116 150 191 235 283 339
#     4   9  18  34  53  76 107 146 185 222 275 346
#     4   9  19  36  56  77 104 141 182 225 279 343
#     4   9  18  34  54  74 109 155 187 220 283 345
#
# _framework density 17.548393999999998
#
# number of rings (size 3 to 8) (size 9 to 14) (size 15 to 20)
#    0.000    2.364    0.000    2.455    2.545    4.364 
#    1.636    2.273    0.000    2.182    0.000    0.000 
#    0.000    0.000    0.000    0.000    0.000    0.000 
#
# Total GULP energy -245044.845272 kJ/mol
# GULP energy per Si atom -5569.201029 kJ/mol
# Density = 1.750845 g / cm^3
# Si number density = 17.548394 Si / 1000 Ang^3
#
#
#
# Elastic Constant Matrix: (Units=GPa)
#
#
# Indices 1 2 3 4 5 6 
#
# 1 82.0371 71.9903 37.4503 0.0000 0.0000 0.0000
# 2 71.9903 119.5883 73.1474 0.0000 0.0000 0.0000
# 3 37.4503 73.1474 94.1892 0.0000 0.0000 0.0000
# 4 0.0000 0.0000 0.0000 2.9490 0.0000 0.0000
# 5 0.0000 0.0000 0.0000 0.0000 642.6036 0.0000
# 6 0.0000 0.0000 0.0000 0.0000 0.0000 33.1794
#
#
#
# Elastic Compliance Matrix: (Units=1/GPa)
#
#
# Indices 1 2 3 4 5 6 
#
# 1 0.026439 -0.018069 0.003520 0.000000 0.000000 0.000000
# 2 -0.018069 0.028277 -0.014775 0.000000 0.000000 0.000000
# 3 0.003520 -0.014775 0.020692 0.000000 0.000000 0.000000
# 4 0.000000 0.000000 0.000000 0.339094 0.000000 0.000000
# 5 0.000000 0.000000 0.000000 0.000000 0.001556 0.000000
# 6 0.000000 0.000000 0.000000 0.000000 0.000000 0.030139
#
#
# Mechanical properties :
#
#
# Convention : Reuss Voigt Hill
#
# Bulk Modulus (GPa) = 59.66960 73.44340 66.55650
# Shear Modulus (GPa) = 9.79564 143.29485 76.54525
#
# Velocity S-wave (km/s) = 2.36520 9.04623 6.61167
# Velocity P-wave (km/s) = 6.44481 12.29045 9.81302
#
# Compressibility (1/GPa) = 0.01675895
#
# Stress axis : x y z
#
# Youngs Moduli (GPa) = 37.82348 35.36493 48.32798
#
# Poissons Ratio (x) = 0.63900 -0.17011
# Poissons Ratio (y) = 0.68342 0.71407
# Poissons Ratio (z) = -0.13314 0.52253
#
# Static dielectric constant tensor:
#      x y z
#    x 1.598960 0.000000 0.000000 
#    y 0.000000 1.612820 0.000000 
#    z 0.000000 0.000000 1.580220 
# 
# From -- ./inp_files/63648.got.cif
#   From: 2010.05.17/outbox.cif.g08.bks.cpg/sg65_32_cif.got.tgz:63648.got - 2010.06.03 17:01:31.
