data_PCOD9491421
_publ_section_title
;
Structure prediction by ZEFSAII (Michael W. Deem and Ramdas Pophale) SiO2 
 PCOD9491421
Probable space group: C M M M
;
_chemical_formula_sum "Si O2"
_cell_formula_units_Z 90
_cell_length_a 8.238293
_cell_length_b 22.737702
_cell_length_c 24.489805
_cell_angle_alpha 90.000000
_cell_angle_beta 90.000000
_cell_angle_gamma 90.000000
_cell_volume 4587.426629
_symmetry_space_group_name_H-M "C M M M"
_symmetry_group_IT_number 65
_symmetry_cell_setting 'orthorhombic'
loop_
_space_group_symop_operation_xyz
x,y,z
-x,-y,z
x,-y,-z
-x,y,-z
-x,-y,-z
x,y,-z
-x,y,z
x,-y,z
1/2+x,1/2+y,z
1/2-x,1/2-y,z
1/2+x,1/2-y,-z
1/2-x,1/2+y,-z
1/2-x,1/2-y,-z
1/2+x,1/2+y,-z
1/2-x,1/2+y,z
1/2+x,1/2-y,z
loop_
_atom_site_type_symbol
_atom_site_label
_atom_site_fract_x
_atom_site_fract_y
_atom_site_fract_z
Si Si1 0.698843 0.500000 0.908396
Si Si2 0.312587 0.188286 0.743730
Si Si3 0.194154 0.683357 0.941083
Si Si4 0.195270 0.565569 0.436836
Si Si5 0.688298 0.315806 0.377769
Si Si6 0.000000 0.500000 0.000000
Si Si7 0.314171 0.384101 0.161295
O O1 0.500000 0.500000 0.926179
O O2 0.720726 0.445071 0.868143
O O3 0.848418 0.500000 0.952391
O O4 0.500000 0.195284 0.729355
O O5 0.250000 0.250000 0.768618
O O6 0.218982 0.178905 0.687260
O O7 0.289853 0.137076 0.787589
O O8 0.250000 0.750000 0.945739
O O9 0.285219 0.659233 0.889218
O O10 0.000000 0.678792 0.933859
O O11 0.232470 0.653543 0.000000
O O12 0.249308 0.570534 0.500000
O O13 0.250656 0.500000 0.416586
O O14 0.241265 0.625223 0.405380
O O15 0.000000 0.563596 0.436567
O O16 0.500000 0.315949 0.389861
O O17 0.750000 0.250000 0.393710
O O18 0.500000 0.382443 0.179630
#
# Coordination Sequence:
#
# PCOD9491421 Si02
#       7
#     8  16  16  16  16   2  16
#     4  10  27  45  65  94 121 159 203 254 308 370
#     4  11  22  39  64  90 119 157 201 247 308 371
#     4  10  21  35  54  81 110 142 182 227 284 346
#     4   9  19  38  63  91 127 170 216 265 318 378
#     4  11  22  38  61  91 127 166 213 265 321 381
#     4  12  26  44  76  82 128 156 214 248 310 384
#     4  11  23  41  60  83 117 149 191 243 296 356
#
# _framework density 19.618842999999998
#
# number of rings (size 3 to 8) (size 9 to 14) (size 15 to 20)
#    0.000    1.600    0.000    6.533    3.733    2.133 
#    1.600    0.889    0.000    0.000    0.000    0.000 
#    0.000    0.000    0.000    0.000    0.000    0.000 
#
# Total GULP energy -250567.938499 kJ/mol
# GULP energy per Si atom -5568.176411 kJ/mol
# Density = 1.957419 g / cm^3
# Si number density = 19.618843 Si / 1000 Ang^3
#
#
#
# Elastic Constant Matrix: (Units=GPa)
#
#
# Indices 1 2 3 4 5 6 
#
# 1 64.4206 29.9903 12.9240 0.0000 0.0000 0.0000
# 2 29.9903 139.8286 61.2632 0.0000 0.0000 0.0000
# 3 12.9240 61.2632 62.5028 0.0000 0.0000 0.0000
# 4 0.0000 0.0000 0.0000 5.6395 0.0000 0.0000
# 5 0.0000 0.0000 0.0000 0.0000 35.1769 0.0000
# 6 0.0000 0.0000 0.0000 0.0000 0.0000 21.4862
#
#
#
# Elastic Compliance Matrix: (Units=1/GPa)
#
#
# Indices 1 2 3 4 5 6 
#
# 1 0.017245 -0.003744 0.000104 0.000000 0.000000 0.000000
# 2 -0.003744 0.013347 -0.012308 0.000000 0.000000 0.000000
# 3 0.000104 -0.012308 0.028042 0.000000 0.000000 0.000000
# 4 0.000000 0.000000 0.000000 0.177321 0.000000 0.000000
# 5 0.000000 0.000000 0.000000 0.000000 0.028428 0.000000
# 6 0.000000 0.000000 0.000000 0.000000 0.000000 0.046541
#
#
# Mechanical properties :
#
#
# Convention : Reuss Voigt Hill
#
# Bulk Modulus (GPa) = 37.40059 52.78965 45.09512
# Shear Modulus (GPa) = 14.21528 23.29882 18.75705
#
# Velocity S-wave (km/s) = 2.69471 3.44986 3.09540
# Velocity P-wave (km/s) = 5.36535 6.54482 5.98422
#
# Compressibility (1/GPa) = 0.02673754
#
# Stress axis : x y z
#
# Youngs Moduli (GPa) = 57.98697 74.92093 35.66079
#
# Poissons Ratio (x) = 0.28054 -0.00372
# Poissons Ratio (y) = 0.21713 0.43893
# Poissons Ratio (z) = -0.00605 0.92216
#
# Static dielectric constant tensor:
#      x y z
#    x 1.713430 0.000000 0.000000 
#    y 0.000000 1.702950 0.000000 
#    z 0.000000 0.000000 1.661110 
# 
# From -- ./inp_files/67693.got.cif
#   From: 2010.05.17/outbox.cif.g08.bks.cpg/sg65_34_cif.got.tgz:67693.got - 2010.06.03 17:01:31.
