data_PCOD9491700
_publ_section_title
;
Structure prediction by ZEFSAII (Michael W. Deem and Ramdas Pophale) SiO2 
 PCOD9491700
Probable space group: C M M M
;
_chemical_formula_sum "Si O2"
_cell_formula_units_Z 120
_cell_length_a 28.017027
_cell_length_b 28.544184
_cell_length_c 7.694621
_cell_angle_alpha 90.000000
_cell_angle_beta 90.000000
_cell_angle_gamma 90.000000
_cell_volume 6153.566727
_symmetry_space_group_name_H-M "C M M M"
_symmetry_group_IT_number 65
_symmetry_cell_setting 'orthorhombic'
loop_
_space_group_symop_operation_xyz
x,y,z
-x,-y,z
x,-y,-z
-x,y,-z
-x,-y,-z
x,y,-z
-x,y,z
x,-y,z
1/2+x,1/2+y,z
1/2-x,1/2-y,z
1/2+x,1/2-y,-z
1/2-x,1/2+y,-z
1/2-x,1/2-y,-z
1/2+x,1/2+y,-z
1/2-x,1/2+y,z
1/2+x,1/2-y,z
loop_
_atom_site_type_symbol
_atom_site_label
_atom_site_fract_x
_atom_site_fract_y
_atom_site_fract_z
Si Si1 0.947357 0.815030 0.792964
Si Si2 0.100615 0.718450 0.710528
Si Si3 0.907070 0.613503 0.707885
Si Si4 0.000000 0.553209 0.207293
Si Si5 0.851088 0.861220 0.791365
Si Si6 0.709912 0.553094 0.791316
Si Si7 0.198257 0.764978 0.290659
Si Si8 0.318145 0.053552 0.709485
O O1 0.933599 0.760634 0.766966
O O2 0.903044 0.845568 0.722582
O O3 0.000000 0.824851 0.721270
O O4 0.948898 0.823087 0.000000
O O5 0.099958 0.718690 0.500000
O O6 0.087435 0.666628 0.773337
O O7 0.154135 0.732601 0.768569
O O8 0.901313 0.617423 0.500000
O O9 0.952995 0.581597 0.739695
O O10 0.859551 0.587655 0.775499
O O11 0.000000 0.500000 0.277327
O O12 0.000000 0.550482 0.000000
O O13 0.827723 0.908964 0.723779
O O14 0.815858 0.817871 0.755505
O O15 0.855222 0.865487 0.000000
O O16 0.703925 0.500000 0.723817
O O17 0.764339 0.568133 0.754168
O O18 0.704975 0.551221 0.000000
O O19 0.199360 0.761583 0.500000
O O20 0.250000 0.750000 0.223900
O O21 0.321443 0.052371 0.500000
O O22 0.325058 0.000000 0.772641
#
# Coordination Sequence:
#
# PCOD9491700 Si02
#       8
#    16  16  16   8  16  16  16  16
#     4   9  18  33  52  71  95 128 164 203 244 290
#     4   9  19  33  48  73 101 126 159 197 241 289
#     4  10  21  36  55  75  97 127 163 206 253 300
#     4  11  25  41  55  73  97 127 167 215 260 301
#     4   9  18  32  49  71  98 130 166 200 242 295
#     4   9  18  32  50  73 102 134 165 200 244 292
#     4   9  18  31  49  72 100 131 160 195 238 285
#     4   9  18  32  51  74  97 125 163 204 245 292
#
# _framework density 19.500886000000001
#
# number of rings (size 3 to 8) (size 9 to 14) (size 15 to 20)
#    0.000    2.733    0.000    0.600    2.800    3.200 
#    0.000    1.333    0.000    0.400    0.000    2.800 
#    0.000    0.000    0.000   10.000    0.000   10.400 
#
# Total GULP energy -334732.892221 kJ/mol
# GULP energy per Si atom -5578.881537 kJ/mol
# Density = 1.945650 g / cm^3
# Si number density = 19.500886 Si / 1000 Ang^3
#
#
#
# Elastic Constant Matrix: (Units=GPa)
#
#
# Indices 1 2 3 4 5 6 
#
# 1 166.2701 95.6016 -1.3558 0.0000 0.0000 0.0000
# 2 95.6016 131.0519 -3.1191 0.0000 0.0000 0.0000
# 3 -1.3558 -3.1191 29.5015 0.0000 0.0000 0.0000
# 4 0.0000 0.0000 0.0000 3.6076 0.0000 0.0000
# 5 0.0000 0.0000 0.0000 0.0000 15.9597 0.0000
# 6 0.0000 0.0000 0.0000 0.0000 0.0000 16.4759
#
#
#
# Elastic Compliance Matrix: (Units=1/GPa)
#
#
# Indices 1 2 3 4 5 6 
#
# 1 0.010363 -0.007567 -0.000324 0.000000 0.000000 0.000000
# 2 -0.007567 0.013176 0.001045 0.000000 0.000000 0.000000
# 3 -0.000324 0.001045 0.033992 0.000000 0.000000 0.000000
# 4 0.000000 0.000000 0.000000 0.277195 0.000000 0.000000
# 5 0.000000 0.000000 0.000000 0.000000 0.062658 0.000000
# 6 0.000000 0.000000 0.000000 0.000000 0.000000 0.060695
#
#
# Mechanical properties :
#
#
# Convention : Reuss Voigt Hill
#
# Bulk Modulus (GPa) = 22.81075 56.56410 39.68743
# Shear Modulus (GPa) = 10.27997 22.92175 16.60086
#
# Velocity S-wave (km/s) = 2.29847 3.43216 2.92085
# Velocity P-wave (km/s) = 4.33205 6.69143 5.63657
#
# Compressibility (1/GPa) = 0.04383898
#
# Stress axis : x y z
#
# Youngs Moduli (GPa) = 96.50060 75.89755 29.41854
#
# Poissons Ratio (x) = 0.57433 0.00953
# Poissons Ratio (y) = 0.73024 -0.03075
# Poissons Ratio (z) = 0.03125 -0.07933
#
# Static dielectric constant tensor:
#      x y z
#    x 1.713760 0.000000 0.000000 
#    y 0.000000 1.678890 0.000000 
#    z 0.000000 0.000000 1.732950 
# 
# From -- ./inp_files/17108.got.cif
#   From: 2010.05.17/outbox.cif.g08.bks.cpg/sg65_9_cif.got.tgz:17108.got - 2010.06.03 17:01:31.
