data_PCOD9491626
_publ_section_title
;
Structure prediction by ZEFSAII (Michael W. Deem and Ramdas Pophale) SiO2 
 PCOD9491626
Probable space group: C M M M
;
_chemical_formula_sum "Si O2"
_cell_formula_units_Z 96
_cell_length_a 7.541951
_cell_length_b 26.256653
_cell_length_c 19.417860
_cell_angle_alpha 90.000000
_cell_angle_beta 90.000000
_cell_angle_gamma 90.000000
_cell_volume 3845.248724
_symmetry_space_group_name_H-M "C M M M"
_symmetry_group_IT_number 65
_symmetry_cell_setting 'orthorhombic'
loop_
_space_group_symop_operation_xyz
x,y,z
-x,-y,z
x,-y,-z
-x,y,-z
-x,-y,-z
x,y,-z
-x,y,z
x,-y,z
1/2+x,1/2+y,z
1/2-x,1/2-y,z
1/2+x,1/2-y,-z
1/2-x,1/2+y,-z
1/2-x,1/2-y,-z
1/2+x,1/2+y,-z
1/2-x,1/2+y,z
1/2+x,1/2-y,z
loop_
_atom_site_type_symbol
_atom_site_label
_atom_site_fract_x
_atom_site_fract_y
_atom_site_fract_z
Si Si1 0.709106 0.304954 0.420107
Si Si2 0.215180 0.915624 0.273915
Si Si3 0.783004 0.079479 0.421902
Si Si4 0.795015 0.834041 0.925902
Si Si5 0.787898 0.193352 0.778510
Si Si6 0.707749 0.944773 0.119186
O O1 0.753704 0.298640 0.500000
O O2 0.500000 0.310689 0.410006
O O3 0.750000 0.250000 0.387992
O O4 0.776785 0.361985 0.409945
O O5 0.270044 0.941286 0.346419
O O6 0.271833 0.855797 0.264982
O O7 0.273876 0.940357 0.202183
O O8 0.000000 0.916470 0.273886
O O9 0.725988 0.063530 0.500000
O O10 0.000000 0.076279 0.424689
O O11 0.713577 0.811921 0.856133
O O12 0.792975 0.894996 0.914054
O O13 0.000000 0.817535 0.927627
O O14 0.714235 0.821524 0.000000
O O15 0.750000 0.250000 0.754290
O O16 0.000000 0.187952 0.781495
O O17 0.500000 0.942466 0.102071
O O18 0.777898 0.000000 0.097682
#
# Coordination Sequence:
#
# PCOD9491626 Si02
#       6
#    16  16  16  16  16  16
#     4   8  13  21  33  51  78 111 145 182 227 279
#     4   9  18  33  52  73  98 130 171 215 254 300
#     4   8  14  26  45  67  90 119 157 204 257 303
#     4   9  19  36  56  79 107 136 169 208 245 288
#     4   9  18  31  47  70 101 138 177 211 243 283
#     4  10  21  36  54  77 104 132 163 202 250 304
#
# _framework density 24.965873999999999
#
# number of rings (size 3 to 8) (size 9 to 14) (size 15 to 20)
#    0.000    3.167    0.000    2.500    0.000    5.667 
#    0.000    2.500    0.000    2.000    0.000    3.500 
#    0.000    0.000    0.000    0.000    0.000    0.000 
#
# Total GULP energy -267391.853430 kJ/mol
# GULP energy per Si atom -5570.663613 kJ/mol
# Density = 2.490905 g / cm^3
# Si number density = 24.965874 Si / 1000 Ang^3
#
#
#
# Elastic Constant Matrix: (Units=GPa)
#
#
# Indices 1 2 3 4 5 6 
#
# 1 60.7818 -10.3318 -1.1147 0.0000 0.0000 0.0000
# 2 -10.3318 103.1351 1.7150 0.0000 0.0000 0.0000
# 3 -1.1147 1.7150 186.3241 0.0000 0.0000 0.0000
# 4 0.0000 0.0000 0.0000 -24.0901 0.0000 0.0000
# 5 0.0000 0.0000 0.0000 0.0000 -9.5945 0.0000
# 6 0.0000 0.0000 0.0000 0.0000 0.0000 1.3680
#
#
#
# Elastic Compliance Matrix: (Units=1/GPa)
#
#
# Indices 1 2 3 4 5 6 
#
# 1 0.016739 0.001675 0.000085 0.000000 0.000000 0.000000
# 2 0.001675 0.009865 -0.000081 0.000000 0.000000 0.000000
# 3 0.000085 -0.000081 0.005368 0.000000 0.000000 0.000000
# 4 0.000000 0.000000 0.000000 -0.041511 0.000000 0.000000
# 5 0.000000 0.000000 0.000000 0.000000 -0.104226 0.000000
# 6 0.000000 0.000000 0.000000 0.000000 0.000000 0.731012
#
#
# Mechanical properties :
#
#
# Convention : Reuss Voigt Hill
#
# Bulk Modulus (GPa) = 28.30393 36.75313 32.52853
# Shear Modulus (GPa) = 7.99149 17.53482 12.76315
#
# Velocity S-wave (km/s) = 1.79107 2.65307 2.26348
# Velocity P-wave (km/s) = 3.95460 4.91308 4.45966
#
# Compressibility (1/GPa) = 0.03533078
#
# Stress axis : x y z
#
# Youngs Moduli (GPa) = 59.74206 101.36637 186.28068
#
# Poissons Ratio (x) = -0.16983 -0.01578
# Poissons Ratio (y) = -0.10009 0.01505
# Poissons Ratio (z) = -0.00506 0.00819
#
# Static dielectric constant tensor:
#      x y z
#    x 1.926430 0.000000 0.000000 
#    y 0.000000 1.973380 0.000000 
#    z 0.000000 0.000000 2.025730 
# 
# From -- ./inp_files/60283.got.cif
#   From: 2010.05.17/outbox.cif.g08.bks.cpg/sg65_31_cif.got.tgz:60283.got - 2010.06.03 17:01:31.
