data_PCOD9491047
_publ_section_title
;
Structure prediction by ZEFSAII (Michael W. Deem and Ramdas Pophale) SiO2 
 PCOD9491047
Probable space group: C M M M
;
_chemical_formula_sum "Si O2"
_cell_formula_units_Z 88
_cell_length_a 21.129534
_cell_length_b 19.757930
_cell_length_c 11.394679
_cell_angle_alpha 90.000000
_cell_angle_beta 90.000000
_cell_angle_gamma 90.000000
_cell_volume 4757.003343
_symmetry_space_group_name_H-M "C M M M"
_symmetry_group_IT_number 65
_symmetry_cell_setting 'orthorhombic'
loop_
_space_group_symop_operation_xyz
x,y,z
-x,-y,z
x,-y,-z
-x,y,-z
-x,-y,-z
x,y,-z
-x,y,z
x,-y,z
1/2+x,1/2+y,z
1/2-x,1/2-y,z
1/2+x,1/2-y,-z
1/2-x,1/2+y,-z
1/2-x,1/2-y,-z
1/2+x,1/2+y,-z
1/2-x,1/2+y,z
1/2+x,1/2-y,z
loop_
_atom_site_type_symbol
_atom_site_label
_atom_site_fract_x
_atom_site_fract_y
_atom_site_fract_z
Si Si1 0.927836 0.285916 0.240708
Si Si2 0.119518 0.423787 0.139052
Si Si3 0.572630 0.175685 0.500000
Si Si4 0.500000 0.421983 0.857628
Si Si5 0.871777 0.156437 0.859891
Si Si6 0.693132 0.080853 0.500000
Si Si7 0.744446 0.421022 0.252078
O O1 0.915544 0.363289 0.204236
O O2 0.919743 0.281938 0.380724
O O3 0.882147 0.234439 0.174536
O O4 0.000000 0.268470 0.209270
O O5 0.100644 0.500000 0.176813
O O6 0.193720 0.416576 0.169527
O O7 0.109281 0.418251 0.000000
O O8 0.500000 0.149411 0.500000
O O9 0.626102 0.118437 0.500000
O O10 0.500000 0.500000 0.817946
O O11 0.564147 0.383349 0.822818
O O12 0.500000 0.422354 0.000000
O O13 0.811829 0.124392 0.795756
O O14 0.864621 0.149602 0.000000
O O15 0.731641 0.098113 0.382185
O O16 0.683128 0.000000 0.500000
O O17 0.724591 0.500000 0.253948
#
# Coordination Sequence:
#
# PCOD9491047 Si02
#       7
#    16  16   8   8  16   8  16
#     4  11  23  40  60  87 122 159 203 255 306 360
#     4  10  21  37  58  85 120 160 198 245 306 371
#     4  10  22  40  63  87 116 162 209 256 309 349
#     4   9  18  34  58  87 116 154 205 251 295 352
#     4  11  22  37  60  89 123 164 201 249 309 364
#     4  10  20  40  65  90 121 159 206 258 304 354
#     4  10  21  38  61  89 122 157 200 252 304 360
#
# _framework density 18.499040999999998
#
# number of rings (size 3 to 8) (size 9 to 14) (size 15 to 20)
#    0.000    1.727    2.727    1.636    0.000    4.909 
#    0.000    5.455    0.000    0.000    0.000    3.182 
#    0.000    0.000    0.000    0.000    0.000    0.000 
#
# Total GULP energy -245676.457221 kJ/mol
# GULP energy per Si atom -5583.555846 kJ/mol
# Density = 1.845694 g / cm^3
# Si number density = 18.499041 Si / 1000 Ang^3
#
#
#
# Elastic Constant Matrix: (Units=GPa)
#
#
# Indices 1 2 3 4 5 6 
#
# 1 75.6700 32.4351 31.1989 0.0000 0.0000 0.0000
# 2 32.4351 75.3049 20.1516 0.0000 0.0000 0.0000
# 3 31.1989 20.1516 66.1225 0.0000 0.0000 0.0000
# 4 0.0000 0.0000 0.0000 17.4755 0.0000 0.0000
# 5 0.0000 0.0000 0.0000 0.0000 21.9131 0.0000
# 6 0.0000 0.0000 0.0000 0.0000 0.0000 38.3913
#
#
#
# Elastic Compliance Matrix: (Units=1/GPa)
#
#
# Indices 1 2 3 4 5 6 
#
# 1 0.018744 -0.006214 -0.006951 0.000000 0.000000 0.000000
# 2 -0.006214 0.016518 -0.002102 0.000000 0.000000 0.000000
# 3 -0.006951 -0.002102 0.019044 0.000000 0.000000 0.000000
# 4 0.000000 0.000000 0.000000 0.057223 0.000000 0.000000
# 5 0.000000 0.000000 0.000000 0.000000 0.045635 0.000000
# 6 0.000000 0.000000 0.000000 0.000000 0.000000 0.026048
#
#
# Mechanical properties :
#
#
# Convention : Reuss Voigt Hill
#
# Bulk Modulus (GPa) = 42.06400 42.74096 42.40248
# Shear Modulus (GPa) = 22.55616 24.44345 23.49981
#
# Velocity S-wave (km/s) = 3.49566 3.63896 3.56803
# Velocity P-wave (km/s) = 6.25145 6.38832 6.32026
#
# Compressibility (1/GPa) = 0.02377330
#
# Stress axis : x y z
#
# Youngs Moduli (GPa) = 53.34930 60.53924 52.51084
#
# Poissons Ratio (x) = 0.37616 0.36498
# Poissons Ratio (y) = 0.33149 0.11040
# Poissons Ratio (z) = 0.37081 0.12727
#
# Static dielectric constant tensor:
#      x y z
#    x 1.615670 0.000000 0.000000 
#    y 0.000000 1.634700 0.000000 
#    z 0.000000 0.000000 1.629320 
# 
# From -- ./inp_files/28745.got.cif
#   From: 2010.05.17/outbox.cif.g08.bks.cpg/sg65_15_cif.got.tgz:28745.got - 2010.06.03 17:01:31.
