data_PCOD9491385
_publ_section_title
;
Structure prediction by ZEFSAII (Michael W. Deem and Ramdas Pophale) SiO2 
 PCOD9491385
Probable space group: C M M M
;
_chemical_formula_sum "Si O2"
_cell_formula_units_Z 88
_cell_length_a 15.535390
_cell_length_b 7.428323
_cell_length_c 34.331770
_cell_angle_alpha 90.000000
_cell_angle_beta 90.000000
_cell_angle_gamma 90.000000
_cell_volume 3961.951312
_symmetry_space_group_name_H-M "C M M M"
_symmetry_group_IT_number 65
_symmetry_cell_setting 'orthorhombic'
loop_
_space_group_symop_operation_xyz
x,y,z
-x,-y,z
x,-y,-z
-x,y,-z
-x,-y,-z
x,y,-z
-x,y,z
x,-y,z
1/2+x,1/2+y,z
1/2-x,1/2-y,z
1/2+x,1/2-y,-z
1/2-x,1/2+y,-z
1/2-x,1/2-y,-z
1/2+x,1/2+y,-z
1/2-x,1/2+y,z
1/2+x,1/2-y,z
loop_
_atom_site_type_symbol
_atom_site_label
_atom_site_fract_x
_atom_site_fract_y
_atom_site_fract_z
Si Si1 0.000000 0.214258 0.441905
Si Si2 0.351928 0.784037 0.706070
Si Si3 0.851542 0.715302 0.958264
Si Si4 0.898668 0.297294 0.125509
Si Si5 0.500000 0.784002 0.649507
Si Si6 0.648974 0.214440 0.209139
Si Si7 0.353073 0.715451 0.500000
O O1 0.000000 0.246043 0.396108
O O2 0.912204 0.279768 0.463357
O O3 0.000000 0.000000 0.447552
O O4 0.250000 0.750000 0.700194
O O5 0.414730 0.717903 0.672135
O O6 0.382931 0.717746 0.748872
O O7 0.359356 0.000000 0.707716
O O8 0.869488 0.500000 0.957441
O O9 0.750000 0.750000 0.959909
O O10 0.878209 0.788809 0.916179
O O11 0.887524 0.781820 0.000000
O O12 0.857780 0.500000 0.125239
O O13 0.876395 0.210709 0.166945
O O14 0.000000 0.316795 0.126014
O O15 0.500000 0.000000 0.652998
O O16 0.750000 0.250000 0.211804
O O17 0.628961 0.000000 0.207607
O O18 0.356691 0.500000 0.500000
O O19 0.250000 0.750000 0.500000
#
# Coordination Sequence:
#
# PCOD9491385 Si02
#       7
#     8  16  16  16   8  16   8
#     4   9  20  38  56  80 114 148 182 219 267 320
#     4   9  19  34  51  73 101 134 173 216 262 310
#     4   9  17  29  45  64  86 113 144 180 224 276
#     4   9  17  27  43  68  90 112 147 188 231 280
#     4  10  21  35  53  78 108 142 179 222 264 309
#     4   9  17  30  49  68  89 119 156 198 240 286
#     4   9  19  37  60  84 112 147 185 225 268 312
#
# _framework density 22.211278
#
# number of rings (size 3 to 8) (size 9 to 14) (size 15 to 20)
#    0.000    2.909    0.000    1.091    1.273    2.545 
#    0.000    6.364    0.000    2.182    0.000    2.545 
#    0.000    0.000    0.000    0.000    0.000    0.000 
#
# Total GULP energy -245010.113194 kJ/mol
# GULP energy per Si atom -5568.411664 kJ/mol
# Density = 2.216072 g / cm^3
# Si number density = 22.211278 Si / 1000 Ang^3
#
#
#
# Elastic Constant Matrix: (Units=GPa)
#
#
# Indices 1 2 3 4 5 6 
#
# 1 113.1130 -0.4278 101.5990 0.0000 0.0000 0.0000
# 2 -0.4278 75.6561 10.8287 0.0000 0.0000 0.0000
# 3 101.5990 10.8287 278.0435 0.0000 0.0000 0.0000
# 4 0.0000 0.0000 0.0000 16.4012 0.0000 0.0000
# 5 0.0000 0.0000 0.0000 0.0000 36.4046 0.0000
# 6 0.0000 0.0000 0.0000 0.0000 0.0000 14.4870
#
#
#
# Elastic Compliance Matrix: (Units=1/GPa)
#
#
# Indices 1 2 3 4 5 6 
#
# 1 0.013204 0.000770 -0.004855 0.000000 0.000000 0.000000
# 2 0.000770 0.013337 -0.000801 0.000000 0.000000 0.000000
# 3 -0.004855 -0.000801 0.005402 0.000000 0.000000 0.000000
# 4 0.000000 0.000000 0.000000 0.060971 0.000000 0.000000
# 5 0.000000 0.000000 0.000000 0.000000 0.027469 0.000000
# 6 0.000000 0.000000 0.000000 0.000000 0.000000 0.069028
#
#
# Mechanical properties :
#
#
# Convention : Reuss Voigt Hill
#
# Bulk Modulus (GPa) = 45.10441 76.75693 60.93067
# Shear Modulus (GPa) = 24.20453 37.11273 30.65863
#
# Velocity S-wave (km/s) = 3.30470 4.09209 3.71929
# Velocity P-wave (km/s) = 5.90868 7.54716 6.77761
#
# Compressibility (1/GPa) = 0.02217078
#
# Stress axis : x y z
#
# Youngs Moduli (GPa) = 75.73247 74.98141 185.12457
#
# Poissons Ratio (x) = -0.05770 0.89877
# Poissons Ratio (y) = -0.05828 0.14821
# Poissons Ratio (z) = 0.36768 0.06003
#
# Static dielectric constant tensor:
#      x y z
#    x 1.779300 0.000000 0.000000 
#    y 0.000000 2.052350 0.000000 
#    z 0.000000 0.000000 1.891880 
# 
# From -- ./inp_files/77312.got.cif
#   From: 2010.05.17/outbox.cif.g08.bks.cpg/sg65_39_cif.got.tgz:77312.got - 2010.06.03 17:01:31.
