data_PCOD9491696
_publ_section_title
;
Structure prediction by ZEFSAII (Michael W. Deem and Ramdas Pophale) SiO2 
 PCOD9491696
Probable space group: C M M M
;
_chemical_formula_sum "Si O2"
_cell_formula_units_Z 56
_cell_length_a 7.857077
_cell_length_b 28.658857
_cell_length_c 11.120700
_cell_angle_alpha 90.000000
_cell_angle_beta 90.000000
_cell_angle_gamma 90.000000
_cell_volume 2504.101912
_symmetry_space_group_name_H-M "C M M M"
_symmetry_group_IT_number 65
_symmetry_cell_setting 'orthorhombic'
loop_
_space_group_symop_operation_xyz
x,y,z
-x,-y,z
x,-y,-z
-x,y,-z
-x,-y,-z
x,y,-z
-x,y,z
x,-y,z
1/2+x,1/2+y,z
1/2-x,1/2-y,z
1/2+x,1/2-y,-z
1/2-x,1/2+y,-z
1/2-x,1/2-y,-z
1/2+x,1/2+y,-z
1/2-x,1/2+y,z
1/2+x,1/2-y,z
loop_
_atom_site_type_symbol
_atom_site_label
_atom_site_fract_x
_atom_site_fract_y
_atom_site_fract_z
Si Si1 0.693090 0.056551 0.000000
Si Si2 0.199572 0.053185 0.266445
Si Si3 0.294512 0.804584 0.131070
Si Si4 0.300598 0.853138 0.630144
O O1 0.776748 0.068292 0.873025
O O2 0.500000 0.074614 0.000000
O O3 0.689112 0.000000 0.000000
O O4 0.287134 0.091552 0.348250
O O5 0.000000 0.052913 0.294018
O O6 0.264550 0.000000 0.278776
O O7 0.500000 0.809571 0.130969
O O8 0.250000 0.750000 0.136897
O O9 0.225613 0.829224 0.250719
O O10 0.233679 0.822397 0.000000
O O11 0.225357 0.840703 0.500000
O O12 0.500000 0.840535 0.626847
#
# Coordination Sequence:
#
# PCOD9491696 Si02
#       4
#     8  16  16  16
#     4   9  17  31  53  79 106 141 186 233 283 335
#     4  10  21  36  54  80 115 152 193 241 289 337
#     4   9  19  37  60  85 112 143 182 232 288 344
#     4  10  22  38  56  82 115 152 195 239 284 339
#
# _framework density 22.363306000000001
#
# number of rings (size 3 to 8) (size 9 to 14) (size 15 to 20)
#    0.000    2.429    0.000    1.286    2.000    6.286 
#    0.000    2.857    0.000    0.000    0.000    0.000 
#    0.000    0.000    0.000    0.000    0.000    0.000 
#
# Total GULP energy -156317.653636 kJ/mol
# GULP energy per Si atom -5582.773344 kJ/mol
# Density = 2.231241 g / cm^3
# Si number density = 22.363306 Si / 1000 Ang^3
#
#
#
# Elastic Constant Matrix: (Units=GPa)
#
#
# Indices 1 2 3 4 5 6 
#
# 1 27.4074 -10.1115 5.9037 0.0000 0.0000 0.0000
# 2 -10.1115 67.5131 71.0345 0.0000 0.0000 0.0000
# 3 5.9037 71.0345 211.6159 0.0000 0.0000 0.0000
# 4 0.0000 0.0000 0.0000 1.0785 0.0000 0.0000
# 5 0.0000 0.0000 0.0000 0.0000 8.0451 0.0000
# 6 0.0000 0.0000 0.0000 0.0000 0.0000 20.9545
#
#
#
# Elastic Compliance Matrix: (Units=1/GPa)
#
#
# Indices 1 2 3 4 5 6 
#
# 1 0.041852 0.011590 -0.005058 0.000000 0.000000 0.000000
# 2 0.011590 0.026110 -0.009088 0.000000 0.000000 0.000000
# 3 -0.005058 -0.009088 0.007917 0.000000 0.000000 0.000000
# 4 0.000000 0.000000 0.000000 0.927184 0.000000 0.000000
# 5 0.000000 0.000000 0.000000 0.000000 0.124300 0.000000
# 6 0.000000 0.000000 0.000000 0.000000 0.000000 0.047722
#
#
# Mechanical properties :
#
#
# Convention : Reuss Voigt Hill
#
# Bulk Modulus (GPa) = 14.13078 48.90996 31.52037
# Shear Modulus (GPa) = 4.15356 21.99627 13.07492
#
# Velocity S-wave (km/s) = 1.36431 3.13962 2.42060
# Velocity P-wave (km/s) = 2.96888 5.92124 4.68377
#
# Compressibility (1/GPa) = 0.07076752
#
# Stress axis : x y z
#
# Youngs Moduli (GPa) = 23.89368 38.30020 126.30755
#
# Poissons Ratio (x) = -0.44391 0.63888
# Poissons Ratio (y) = -0.27693 1.14785
# Poissons Ratio (z) = 0.12086 0.34806
#
# Static dielectric constant tensor:
#      x y z
#    x 1.797140 0.000000 0.000000 
#    y 0.000000 1.826310 0.000000 
#    z 0.000000 0.000000 1.864610 
# 
# From -- ./inp_files/20450.got.cif
#   From: 2010.05.17/outbox.cif.g08.bks.cpg/sg65_11_cif.got.tgz:20450.got - 2010.06.03 17:01:31.
