data_PCOD9491767
_publ_section_title
;
Structure prediction by ZEFSAII (Michael W. Deem and Ramdas Pophale) SiO2 
 PCOD9491767
Probable space group: C M M M
;
_chemical_formula_sum "Si O2"
_cell_formula_units_Z 88
_cell_length_a 20.699414
_cell_length_b 23.309377
_cell_length_c 8.898769
_cell_angle_alpha 90.000000
_cell_angle_beta 90.000000
_cell_angle_gamma 90.000000
_cell_volume 4293.571011
_symmetry_space_group_name_H-M "C M M M"
_symmetry_group_IT_number 65
_symmetry_cell_setting 'orthorhombic'
loop_
_space_group_symop_operation_xyz
x,y,z
-x,-y,z
x,-y,-z
-x,y,-z
-x,-y,-z
x,y,-z
-x,y,z
x,-y,z
1/2+x,1/2+y,z
1/2-x,1/2-y,z
1/2+x,1/2-y,-z
1/2-x,1/2+y,-z
1/2-x,1/2-y,-z
1/2+x,1/2+y,-z
1/2-x,1/2+y,z
1/2+x,1/2-y,z
loop_
_atom_site_type_symbol
_atom_site_label
_atom_site_fract_x
_atom_site_fract_y
_atom_site_fract_z
Si Si1 0.000000 0.931964 0.817154
Si Si2 0.396068 0.335645 0.820592
Si Si3 0.883088 0.280045 0.678273
Si Si4 0.255256 0.329290 0.324900
Si Si5 0.793279 0.563331 0.828254
Si Si6 0.569753 0.894008 0.173191
O O1 0.061953 0.891683 0.772627
O O2 0.000000 0.000000 0.768178
O O3 0.000000 0.934149 0.000000
O O4 0.417506 0.274223 0.754350
O O5 0.321878 0.333619 0.765829
O O6 0.399219 0.334126 0.000000
O O7 0.884260 0.273082 0.500000
O O8 0.806312 0.289343 0.721898
O O9 0.916899 0.338794 0.725622
O O10 0.268451 0.318094 0.500000
O O11 0.228668 0.393077 0.297464
O O12 0.766161 0.500000 0.811519
O O13 0.870566 0.563459 0.816195
O O14 0.777772 0.583596 0.000000
O O15 0.500000 0.919589 0.205286
O O16 0.570325 0.873293 0.000000
#
# Coordination Sequence:
#
# PCOD9491767 Si02
#       6
#     8  16  16  16  16  16
#     4   9  22  44  63  83 113 147 186 233 284 341
#     4  11  22  37  62  88 110 142 184 229 282 340
#     4  10  21  36  55  82 117 151 184 226 280 342
#     4  10  21  37  56  82 116 150 185 230 284 338
#     4   9  18  33  53  78 108 145 190 234 277 327
#     4   9  18  32  51  77 111 148 187 232 276 323
#
# _framework density 20.495761000000002
#
# number of rings (size 3 to 8) (size 9 to 14) (size 15 to 20)
#    0.000    2.273    0.000    2.182    1.273    6.182 
#    0.000    5.000    0.000    3.818    0.000    5.091 
#    0.000    0.000    0.000    0.000    0.000    0.000 
#
# Total GULP energy -245084.911914 kJ/mol
# GULP energy per Si atom -5570.111634 kJ/mol
# Density = 2.044911 g / cm^3
# Si number density = 20.495761 Si / 1000 Ang^3
#
#
#
# Elastic Constant Matrix: (Units=GPa)
#
#
# Indices 1 2 3 4 5 6 
#
# 1 64.0311 25.2602 23.3542 0.0000 0.0000 0.0000
# 2 25.2602 126.0838 39.7024 0.0000 0.0000 0.0000
# 3 23.3542 39.7024 46.6376 0.0000 0.0000 0.0000
# 4 0.0000 0.0000 0.0000 -3.8753 0.0000 0.0000
# 5 0.0000 0.0000 0.0000 0.0000 9.1486 0.0000
# 6 0.0000 0.0000 0.0000 0.0000 0.0000 10.1522
#
#
#
# Elastic Compliance Matrix: (Units=1/GPa)
#
#
# Indices 1 2 3 4 5 6 
#
# 1 0.019222 -0.001120 -0.008672 0.000000 0.000000 0.000000
# 2 -0.001120 0.010901 -0.008719 0.000000 0.000000 0.000000
# 3 -0.008672 -0.008719 0.033207 0.000000 0.000000 0.000000
# 4 0.000000 0.000000 0.000000 -0.258041 0.000000 0.000000
# 5 0.000000 0.000000 0.000000 0.000000 0.109307 0.000000
# 6 0.000000 0.000000 0.000000 0.000000 0.000000 0.098501
#
#
# Mechanical properties :
#
#
# Convention : Reuss Voigt Hill
#
# Bulk Modulus (GPa) = 38.01178 45.93180 41.97179
# Shear Modulus (GPa) = 84.90558 12.98081 48.94319
#
# Velocity S-wave (km/s) = 6.44328 2.51936 4.89198
# Velocity P-wave (km/s) = 8.59889 5.56075 7.24095
#
# Compressibility (1/GPa) = 0.02630764
#
# Stress axis : x y z
#
# Youngs Moduli (GPa) = 52.02278 91.73251 30.11407
#
# Poissons Ratio (x) = 0.10277 0.26115
# Poissons Ratio (y) = 0.05829 0.26257
# Poissons Ratio (z) = 0.45114 0.79983
#
# Static dielectric constant tensor:
#      x y z
#    x 1.800830 0.000000 0.000000 
#    y 0.000000 1.760830 0.000000 
#    z 0.000000 0.000000 1.707200 
# 
# From -- ./inp_files/11736.got.cif
#   From: 2010.05.17/outbox.cif.g08.bks.cpg/sg65_6_cif.got.tgz:11736.got - 2010.06.03 17:01:31.
