data_PCOD9491949
_publ_section_title
;
Structure prediction by ZEFSAII (Michael W. Deem and Ramdas Pophale) SiO2 
 PCOD9491949
Probable space group: C M M M
;
_chemical_formula_sum "Si O2"
_cell_formula_units_Z 72
_cell_length_a 8.572460
_cell_length_b 26.659861
_cell_length_c 14.678472
_cell_angle_alpha 90.000000
_cell_angle_beta 90.000000
_cell_angle_gamma 90.000000
_cell_volume 3354.626681
_symmetry_space_group_name_H-M "C M M M"
_symmetry_group_IT_number 65
_symmetry_cell_setting 'orthorhombic'
loop_
_space_group_symop_operation_xyz
x,y,z
-x,-y,z
x,-y,-z
-x,y,-z
-x,-y,-z
x,y,-z
-x,y,z
x,-y,z
1/2+x,1/2+y,z
1/2-x,1/2-y,z
1/2+x,1/2-y,-z
1/2-x,1/2+y,-z
1/2-x,1/2-y,-z
1/2+x,1/2+y,-z
1/2-x,1/2+y,z
1/2+x,1/2-y,z
loop_
_atom_site_type_symbol
_atom_site_label
_atom_site_fract_x
_atom_site_fract_y
_atom_site_fract_z
Si Si1 0.189325 0.500000 0.605140
Si Si2 0.186729 0.805963 0.393734
Si Si3 0.825640 0.700744 0.107928
Si Si4 0.318110 0.405130 0.102343
Si Si5 0.315330 0.902873 0.707461
O O1 0.222904 0.500000 0.500000
O O2 0.248790 0.551641 0.647135
O O3 0.000000 0.500000 0.617980
O O4 0.232295 0.817504 0.500000
O O5 0.250000 0.750000 0.373579
O O6 0.245396 0.849748 0.325950
O O7 0.000000 0.804524 0.389222
O O8 0.750000 0.750000 0.150199
O O9 0.707350 0.654753 0.110631
O O10 0.000000 0.688928 0.143879
O O11 0.845946 0.710114 0.000000
O O12 0.500000 0.417998 0.110584
O O13 0.221341 0.421214 0.189709
O O14 0.264951 0.419712 0.000000
O O15 0.500000 0.898445 0.695807
#
# Coordination Sequence:
#
# PCOD9491949 Si02
#       5
#     8  16  16  16  16
#     4   9  20  40  66  95 124 154 191 239 298 361
#     4  10  21  38  61  91 127 164 202 247 302 365
#     4   9  16  27  45  70 101 140 188 239 289 341
#     4  10  21  37  55  77 111 154 198 246 298 352
#     4  11  22  38  63  92 122 158 202 251 301 357
#
# _framework density 21.462896000000001
#
# number of rings (size 3 to 8) (size 9 to 14) (size 15 to 20)
#    0.000    2.111    0.000    3.333    0.000    7.111 
#    0.000    7.222    0.000    7.333    0.000    0.000 
#    0.000    0.000    0.000    0.000    0.000    0.000 
#
# Total GULP energy -200800.438935 kJ/mol
# GULP energy per Si atom -5577.789970 kJ/mol
# Density = 2.141404 g / cm^3
# Si number density = 21.462896 Si / 1000 Ang^3
#
#
#
# Elastic Constant Matrix: (Units=GPa)
#
#
# Indices 1 2 3 4 5 6 
#
# 1 49.2846 9.1735 1.9903 0.0000 0.0000 0.0000
# 2 9.1735 77.1603 41.3328 0.0000 0.0000 0.0000
# 3 1.9903 41.3328 72.4111 0.0000 0.0000 0.0000
# 4 0.0000 0.0000 0.0000 3.8914 0.0000 0.0000
# 5 0.0000 0.0000 0.0000 0.0000 27.9410 0.0000
# 6 0.0000 0.0000 0.0000 0.0000 0.0000 9.0418
#
#
#
# Elastic Compliance Matrix: (Units=1/GPa)
#
#
# Indices 1 2 3 4 5 6 
#
# 1 0.020823 -0.003124 0.001211 0.000000 0.000000 0.000000
# 2 -0.003124 0.019137 -0.010838 0.000000 0.000000 0.000000
# 3 0.001211 -0.010838 0.019963 0.000000 0.000000 0.000000
# 4 0.000000 0.000000 0.000000 0.256977 0.000000 0.000000
# 5 0.000000 0.000000 0.000000 0.000000 0.035790 0.000000
# 6 0.000000 0.000000 0.000000 0.000000 0.000000 0.110598
#
#
# Mechanical properties :
#
#
# Convention : Reuss Voigt Hill
#
# Bulk Modulus (GPa) = 29.05202 33.76100 31.40651
# Shear Modulus (GPa) = 9.99474 17.93212 13.96343
#
# Velocity S-wave (km/s) = 2.16029 2.89363 2.55342
# Velocity P-wave (km/s) = 4.44835 5.18924 4.83301
#
# Compressibility (1/GPa) = 0.03442102
#
# Stress axis : x y z
#
# Youngs Moduli (GPa) = 48.02390 52.25503 50.09281
#
# Poissons Ratio (x) = 0.16326 -0.06066
# Poissons Ratio (y) = 0.15004 0.54289
# Poissons Ratio (z) = -0.05816 0.56632
#
# Static dielectric constant tensor:
#      x y z
#    x 1.768070 0.000000 0.000000 
#    y 0.000000 1.783030 0.000000 
#    z 0.000000 0.000000 1.844430 
# 
# From -- ./inp_files/36517.got.cif
#   From: 2010.05.17/outbox.cif.g08.bks.cpg/sg65_19_cif.got.tgz:36517.got - 2010.06.03 17:01:31.
