data_PCOD9491270
_publ_section_title
;
Structure prediction by ZEFSAII (Michael W. Deem and Ramdas Pophale) SiO2 
 PCOD9491270
Probable space group: C M M M
;
_chemical_formula_sum "Si O2"
_cell_formula_units_Z 80
_cell_length_a 14.524800
_cell_length_b 9.829030
_cell_length_c 27.144524
_cell_angle_alpha 90.000000
_cell_angle_beta 90.000000
_cell_angle_gamma 90.000000
_cell_volume 3875.279688
_symmetry_space_group_name_H-M "C M M M"
_symmetry_group_IT_number 65
_symmetry_cell_setting 'orthorhombic'
loop_
_space_group_symop_operation_xyz
x,y,z
-x,-y,z
x,-y,-z
-x,y,-z
-x,-y,-z
x,y,-z
-x,y,z
x,-y,z
1/2+x,1/2+y,z
1/2-x,1/2-y,z
1/2+x,1/2-y,-z
1/2-x,1/2+y,-z
1/2-x,1/2-y,-z
1/2+x,1/2+y,-z
1/2-x,1/2+y,z
1/2+x,1/2-y,z
loop_
_atom_site_type_symbol
_atom_site_label
_atom_site_fract_x
_atom_site_fract_y
_atom_site_fract_z
Si Si1 0.392522 0.151417 0.890125
Si Si2 0.112303 0.660998 0.500000
Si Si3 0.112666 0.342650 0.713674
Si Si4 0.660417 0.839766 0.000000
Si Si5 0.391209 0.835022 0.605804
Si Si6 0.112735 0.845476 0.195270
O O1 0.500000 0.139550 0.877315
O O2 0.356376 0.267278 0.854047
O O3 0.351186 0.000000 0.882989
O O4 0.388171 0.186897 0.947910
O O5 0.134513 0.500000 0.500000
O O6 0.144267 0.717608 0.552936
O O7 0.000000 0.668671 0.500000
O O8 0.140968 0.500000 0.721551
O O9 0.144109 0.293029 0.659486
O O10 0.140146 0.243901 0.757631
O O11 0.000000 0.344443 0.712815
O O12 0.750000 0.750000 0.000000
O O13 0.681342 0.000000 0.000000
O O14 0.500000 0.803171 0.605927
O O15 0.383877 0.000000 0.605293
O O16 0.000000 0.850839 0.195271
O O17 0.145974 0.000000 0.197538
#
# Coordination Sequence:
#
# PCOD9491270 Si02
#       6
#    16   8  16   8  16  16
#     4   9  17  31  50  68  86 111 143 174 202 238
#     4   7   8  10  16  28  47  69  97 139 186 225
#     4   8  12  18  28  42  61  86 115 148 190 239
#     4  10  21  35  51  71  93 116 140 168 204 244
#     4   7   9  12  19  32  50  73 103 141 185 229
#     4   9  16  24  35  54  77  98 123 159 203 244
#
# _framework density 20.64367
#
# number of rings (size 3 to 8) (size 9 to 14) (size 15 to 20)
#    0.000    3.700    0.000    3.300    0.000    4.400 
#    0.000    0.000    0.000    3.000    0.000    0.700 
#    0.000    5.600    0.000    0.000    0.000    0.000 
#
# Total GULP energy -222672.278521 kJ/mol
# GULP energy per Si atom -5566.806963 kJ/mol
# Density = 2.059668 g / cm^3
# Si number density = 20.643670 Si / 1000 Ang^3
#
#
#
# Elastic Constant Matrix: (Units=GPa)
#
#
# Indices 1 2 3 4 5 6 
#
# 1 46.5974 11.3253 0.0147 0.0000 0.0000 0.0000
# 2 11.3253 85.1216 111.9086 0.0000 0.0000 0.0000
# 3 0.0147 111.9086 219.8506 0.0000 0.0000 0.0000
# 4 0.0000 0.0000 0.0000 -30.9841 0.0000 0.0000
# 5 0.0000 0.0000 0.0000 0.0000 -30.7557 0.0000
# 6 0.0000 0.0000 0.0000 0.0000 0.0000 1.5272
#
#
#
# Elastic Compliance Matrix: (Units=1/GPa)
#
#
# Indices 1 2 3 4 5 6 
#
# 1 0.023782 -0.009559 0.004864 0.000000 0.000000 0.000000
# 2 -0.009559 0.039356 -0.020033 0.000000 0.000000 0.000000
# 3 0.004864 -0.020033 0.014745 0.000000 0.000000 0.000000
# 4 0.000000 0.000000 0.000000 -0.032275 0.000000 0.000000
# 5 0.000000 0.000000 0.000000 0.000000 -0.032514 0.000000
# 6 0.000000 0.000000 0.000000 0.000000 0.000000 0.654778
#
#
# Mechanical properties :
#
#
# Convention : Reuss Voigt Hill
#
# Bulk Modulus (GPa) = 35.17559 66.45188 50.81373
# Shear Modulus (GPa) = 6.87943 3.17889 5.02916
#
# Velocity S-wave (km/s) = 1.82748 1.24227 1.56252
# Velocity P-wave (km/s) = 4.63997 5.85811 5.28426
#
# Compressibility (1/GPa) = 0.02842881
#
# Stress axis : x y z
#
# Youngs Moduli (GPa) = 42.04831 25.40881 67.81845
#
# Poissons Ratio (x) = 0.24289 -0.32988
# Poissons Ratio (y) = 0.40194 1.35858
# Poissons Ratio (z) = -0.20453 0.50901
#
# Static dielectric constant tensor:
#      x y z
#    x 1.749740 0.000000 0.000000 
#    y 0.000000 1.695130 0.000000 
#    z 0.000000 0.000000 1.807540 
# 
# From -- ./inp_files/75292.got.cif
#   From: 2010.05.17/outbox.cif.g08.bks.cpg/sg65_38_cif.got.tgz:75292.got - 2010.06.03 17:01:31.
