data_PCOD9491773
_publ_section_title
;
Structure prediction by ZEFSAII (Michael W. Deem and Ramdas Pophale) SiO2 
 PCOD9491773
Probable space group: C M M M
;
_chemical_formula_sum "Si O2"
_cell_formula_units_Z 104
_cell_length_a 20.633496
_cell_length_b 26.491257
_cell_length_c 8.723916
_cell_angle_alpha 90.000000
_cell_angle_beta 90.000000
_cell_angle_gamma 90.000000
_cell_volume 4768.555693
_symmetry_space_group_name_H-M "C M M M"
_symmetry_group_IT_number 65
_symmetry_cell_setting 'orthorhombic'
loop_
_space_group_symop_operation_xyz
x,y,z
-x,-y,z
x,-y,-z
-x,y,-z
-x,-y,-z
x,y,-z
-x,y,z
x,-y,z
1/2+x,1/2+y,z
1/2-x,1/2-y,z
1/2+x,1/2-y,-z
1/2-x,1/2+y,-z
1/2-x,1/2-y,-z
1/2+x,1/2+y,-z
1/2-x,1/2+y,z
1/2+x,1/2-y,z
loop_
_atom_site_type_symbol
_atom_site_label
_atom_site_fract_x
_atom_site_fract_y
_atom_site_fract_z
Si Si1 0.077445 0.392297 0.324462
Si Si2 0.709617 0.444203 0.314968
Si Si3 0.748234 0.164787 0.680155
Si Si4 0.876333 0.291806 0.822203
Si Si5 0.428805 0.414528 0.817937
Si Si6 0.925213 0.500000 0.312722
Si Si7 0.100859 0.809720 0.322555
O O1 0.099678 0.383010 0.500000
O O2 0.092910 0.345519 0.219003
O O3 0.104599 0.446348 0.269757
O O4 0.000000 0.398003 0.331979
O O5 0.710812 0.442664 0.500000
O O6 0.732409 0.500000 0.265892
O O7 0.748647 0.393900 0.265764
O O8 0.634761 0.437256 0.262629
O O9 0.731268 0.166639 0.500000
O O10 0.697692 0.198955 0.769856
O O11 0.821496 0.183928 0.692171
O O12 0.911523 0.246989 0.731048
O O13 0.879663 0.279887 0.000000
O O14 0.500000 0.434221 0.770105
O O15 0.427552 0.354898 0.777719
O O16 0.422433 0.421825 0.000000
O O17 0.926428 0.500000 0.500000
O O18 0.000000 0.500000 0.258482
O O19 0.082951 0.817268 0.500000
#
# Coordination Sequence:
#
# PCOD9491773 Si02
#       7
#    16  16  16  16  16   8  16
#     4   9  18  35  58  80 103 135 177 222 266 313
#     4   9  19  37  60  84 111 147 191 237 280 320
#     4   9  19  37  58  79 105 138 183 231 273 320
#     4  12  24  35  52  81 114 145 177 217 271 334
#     4  10  21  36  55  83 118 152 185 224 277 338
#     4   7  12  28  55  79  95 121 167 215 254 295
#     4  10  21  38  60  80 103 140 185 232 275 318
#
# _framework density 21.809539999999998
#
# number of rings (size 3 to 8) (size 9 to 14) (size 15 to 20)
#    0.000    2.385    0.000    4.615    0.000    7.692 
#    1.385    1.923    0.000    1.385    0.000    0.000 
#    0.000    0.000    0.000    0.000    0.000    0.000 
#
# Total GULP energy -290352.042749 kJ/mol
# GULP energy per Si atom -5583.693130 kJ/mol
# Density = 2.175990 g / cm^3
# Si number density = 21.809540 Si / 1000 Ang^3
#
#
#
# Elastic Constant Matrix: (Units=GPa)
#
#
# Indices 1 2 3 4 5 6 
#
# 1 40.4277 -6.4522 -4.0334 0.0000 0.0000 0.0000
# 2 -6.4522 111.6948 -2.1884 0.0000 0.0000 0.0000
# 3 -4.0334 -2.1884 18.2113 0.0000 0.0000 0.0000
# 4 0.0000 0.0000 0.0000 -5.5885 0.0000 0.0000
# 5 0.0000 0.0000 0.0000 0.0000 20.8044 0.0000
# 6 0.0000 0.0000 0.0000 0.0000 0.0000 23.8943
#
#
#
# Elastic Compliance Matrix: (Units=1/GPa)
#
#
# Indices 1 2 3 4 5 6 
#
# 1 0.025574 0.001592 0.005855 0.000000 0.000000 0.000000
# 2 0.001592 0.009073 0.001443 0.000000 0.000000 0.000000
# 3 0.005855 0.001443 0.056381 0.000000 0.000000 0.000000
# 4 0.000000 0.000000 0.000000 -0.178940 0.000000 0.000000
# 5 0.000000 0.000000 0.000000 0.000000 0.048067 0.000000
# 6 0.000000 0.000000 0.000000 0.000000 0.000000 0.041851
#
#
# Mechanical properties :
#
#
# Convention : Reuss Voigt Hill
#
# Bulk Modulus (GPa) = 9.19046 16.10955 12.65001
# Shear Modulus (GPa) = 243.97042 20.02258 131.99650
#
# Velocity S-wave (km/s) = 10.58806 3.03325 7.78805
# Velocity P-wave (km/s) = 12.39754 4.43508 9.31045
#
# Compressibility (1/GPa) = 0.10880848
#
# Stress axis : x y z
#
# Youngs Moduli (GPa) = 39.10260 110.21470 17.73646
#
# Poissons Ratio (x) = -0.17546 -0.10385
# Poissons Ratio (y) = -0.06225 -0.02559
# Poissons Ratio (z) = -0.22896 -0.15903
#
# Static dielectric constant tensor:
#      x y z
#    x 1.845750 0.000000 0.000000 
#    y 0.000000 1.847070 0.000000 
#    z 0.000000 0.000000 1.735070 
# 
# From -- ./inp_files/12430.got.cif
#   From: 2010.05.17/outbox.cif.g08.bks.cpg/sg65_7_cif.got.tgz:12430.got - 2010.06.03 17:01:31.
