data_PCOD9491624
_publ_section_title
;
Structure prediction by ZEFSAII (Michael W. Deem and Ramdas Pophale) SiO2 
 PCOD9491624
Probable space group: C M M M
;
_chemical_formula_sum "Si O2"
_cell_formula_units_Z 72
_cell_length_a 7.730785
_cell_length_b 18.945574
_cell_length_c 24.219496
_cell_angle_alpha 90.000000
_cell_angle_beta 90.000000
_cell_angle_gamma 90.000000
_cell_volume 3547.288120
_symmetry_space_group_name_H-M "C M M M"
_symmetry_group_IT_number 65
_symmetry_cell_setting 'orthorhombic'
loop_
_space_group_symop_operation_xyz
x,y,z
-x,-y,z
x,-y,-z
-x,y,-z
-x,-y,-z
x,y,-z
-x,y,z
x,-y,z
1/2+x,1/2+y,z
1/2-x,1/2-y,z
1/2+x,1/2-y,-z
1/2-x,1/2+y,-z
1/2-x,1/2-y,-z
1/2+x,1/2+y,-z
1/2-x,1/2+y,z
1/2+x,1/2-y,z
loop_
_atom_site_type_symbol
_atom_site_label
_atom_site_fract_x
_atom_site_fract_y
_atom_site_fract_z
Si Si1 0.706897 0.420501 0.834648
Si Si2 0.799053 0.414151 0.500000
Si Si3 0.708392 0.331641 0.938000
Si Si4 0.705532 0.167831 0.273718
Si Si5 0.787752 0.582088 0.620453
O O1 0.500000 0.425328 0.841306
O O2 0.775271 0.500000 0.828061
O O3 0.775427 0.381547 0.889401
O O4 0.737291 0.373659 0.780709
O O5 0.797921 0.500000 0.500000
O O6 0.725314 0.393736 0.440333
O O7 0.000000 0.391672 0.500000
O O8 0.500000 0.337751 0.939235
O O9 0.750000 0.250000 0.925968
O O10 0.772613 0.347928 0.000000
O O11 0.500000 0.161822 0.275906
O O12 0.750000 0.250000 0.271119
O O13 0.773510 0.130131 0.329201
O O14 0.739340 0.500000 0.629127
O O15 0.000000 0.583266 0.618790
#
# Coordination Sequence:
#
# PCOD9491624 Si02
#       5
#    16   8  16  16  16
#     4  10  21  36  54  77 103 131 166 208 253 299
#     4   7  10  20  41  68  95 121 154 199 246 291
#     4   9  18  33  53  76 102 133 167 202 242 290
#     4  11  22  35  51  72 101 135 171 209 251 299
#     4   8  14  26  46  71  96 124 161 204 248 294
#
# _framework density 20.297194999999999
#
# number of rings (size 3 to 8) (size 9 to 14) (size 15 to 20)
#    0.000    2.778    0.000    3.333    0.000    4.444 
#    0.000    2.778    0.000    0.000    0.000    7.000 
#    0.000   12.444    0.000    0.000    0.000    0.000 
#
# Total GULP energy -200814.949622 kJ/mol
# GULP energy per Si atom -5578.193045 kJ/mol
# Density = 2.025100 g / cm^3
# Si number density = 20.297195 Si / 1000 Ang^3
#
#
#
# Elastic Constant Matrix: (Units=GPa)
#
#
# Indices 1 2 3 4 5 6 
#
# 1 32.6680 1.9425 6.6585 0.0000 0.0000 0.0000
# 2 1.9425 149.7063 134.4911 0.0000 0.0000 0.0000
# 3 6.6585 134.4911 218.8488 0.0000 0.0000 0.0000
# 4 0.0000 0.0000 0.0000 -218.3032 0.0000 0.0000
# 5 0.0000 0.0000 0.0000 0.0000 24.2424 0.0000
# 6 0.0000 0.0000 0.0000 0.0000 0.0000 3.0416
#
#
#
# Elastic Compliance Matrix: (Units=1/GPa)
#
#
# Indices 1 2 3 4 5 6 
#
# 1 0.030867 0.000989 -0.001547 0.000000 0.000000 0.000000
# 2 0.000989 0.014945 -0.009214 0.000000 0.000000 0.000000
# 3 -0.001547 -0.009214 0.010279 0.000000 0.000000 0.000000
# 4 0.000000 0.000000 0.000000 -0.004581 0.000000 0.000000
# 5 0.000000 0.000000 0.000000 0.000000 0.041250 0.000000
# 6 0.000000 0.000000 0.000000 0.000000 0.000000 0.328771
#
#
# Mechanical properties :
#
#
# Convention : Reuss Voigt Hill
#
# Bulk Modulus (GPa) = 27.36192 76.37860 51.87026
# Shear Modulus (GPa) = 11.03126 -20.99510 -4.98192
#
# Velocity S-wave (km/s) = 2.33381 -3.21967 -1.56838
# Velocity P-wave (km/s) = 4.55765 4.88775 4.72558
#
# Compressibility (1/GPa) = 0.03654714
#
# Stress axis : x y z
#
# Youngs Moduli (GPa) = 32.39655 66.91407 97.28706
#
# Poissons Ratio (x) = -0.06621 0.15052
# Poissons Ratio (y) = -0.03205 0.89641
# Poissons Ratio (z) = 0.05012 0.61655
#
# Static dielectric constant tensor:
#      x y z
#    x 1.511770 0.000000 0.000000 
#    y 0.000000 1.670300 0.000000 
#    z 0.000000 0.000000 1.747370 
# 
# From -- ./inp_files/59202.got.cif
#   From: 2010.05.17/outbox.cif.g08.bks.cpg/sg65_30_cif.got.tgz:59202.got - 2010.06.03 17:01:31.
