data_PCOD9491583
_publ_section_title
;
Structure prediction by ZEFSAII (Michael W. Deem and Ramdas Pophale) SiO2 
 PCOD9491583
Probable space group: C M M M
;
_chemical_formula_sum "Si O2"
_cell_formula_units_Z 104
_cell_length_a 18.713389
_cell_length_b 7.570035
_cell_length_c 35.503236
_cell_angle_alpha 90.000000
_cell_angle_beta 90.000000
_cell_angle_gamma 90.000000
_cell_volume 5029.424259
_symmetry_space_group_name_H-M "C M M M"
_symmetry_group_IT_number 65
_symmetry_cell_setting 'orthorhombic'
loop_
_space_group_symop_operation_xyz
x,y,z
-x,-y,z
x,-y,-z
-x,y,-z
-x,-y,-z
x,y,-z
-x,y,z
x,-y,z
1/2+x,1/2+y,z
1/2-x,1/2-y,z
1/2+x,1/2-y,-z
1/2-x,1/2+y,-z
1/2-x,1/2-y,-z
1/2+x,1/2+y,-z
1/2-x,1/2+y,z
1/2+x,1/2-y,z
loop_
_atom_site_type_symbol
_atom_site_label
_atom_site_fract_x
_atom_site_fract_y
_atom_site_fract_z
Si Si1 0.166308 0.288148 0.804667
Si Si2 0.419576 0.789748 0.350644
Si Si3 0.166054 0.712486 0.721317
Si Si4 0.582921 0.716669 0.500000
Si Si5 0.833915 0.209195 0.426066
Si Si6 0.083395 0.284045 0.122178
Si Si7 0.414325 0.786931 0.040475
O O1 0.156415 0.500000 0.804133
O O2 0.250000 0.250000 0.808895
O O3 0.144997 0.221479 0.763040
O O4 0.124573 0.219927 0.841020
O O5 0.500000 0.719451 0.355844
O O6 0.380455 0.718120 0.313369
O O7 0.371428 0.765319 0.387472
O O8 0.425370 0.000000 0.345274
O O9 0.158907 0.500000 0.722043
O O10 0.250000 0.750000 0.715471
O O11 0.583795 0.500000 0.500000
O O12 0.500000 0.769821 0.500000
O O13 0.624347 0.779175 0.537304
O O14 0.750000 0.250000 0.426868
O O15 0.840812 0.000000 0.427589
O O16 0.086391 0.500000 0.121866
O O17 0.112390 0.223830 0.081236
O O18 0.000000 0.236444 0.124842
O O19 0.500000 0.754657 0.040788
O O20 0.405747 0.000000 0.040085
O O21 0.386523 0.719915 0.000000
#
# Coordination Sequence:
#
# PCOD9491583 Si02
#       7
#    16  16  16   8  16  16  16
#     4   9  17  29  45  64  87 117 151 185 224 272
#     4  10  21  36  53  76 105 132 161 201 248 294
#     4   9  18  32  49  68  91 122 157 192 231 276
#     4   9  19  36  57  81 108 137 170 209 250 290
#     4  11  22  37  58  81 107 139 174 208 243 287
#     4   8  13  21  36  59  82 105 140 184 223 262
#     4   7   9  14  26  47  76 105 131 167 218 266
#
# _framework density 20.678311000000001
#
# number of rings (size 3 to 8) (size 9 to 14) (size 15 to 20)
#    0.000    3.000    0.000    3.000    0.000    3.385 
#    0.000    4.231    0.000    3.692    0.000    4.308 
#    0.000    0.000    0.000    3.846    0.000    3.077 
#
# Total GULP energy -289918.442486 kJ/mol
# GULP energy per Si atom -5575.354663 kJ/mol
# Density = 2.063125 g / cm^3
# Si number density = 20.678311 Si / 1000 Ang^3
#
#
#
# Elastic Constant Matrix: (Units=GPa)
#
#
# Indices 1 2 3 4 5 6 
#
# 1 110.7878 -0.2261 116.8889 0.0000 0.0000 0.0000
# 2 -0.2261 48.0014 7.8033 0.0000 0.0000 0.0000
# 3 116.8889 7.8033 263.6141 0.0000 0.0000 0.0000
# 4 0.0000 0.0000 0.0000 -2.8596 0.0000 0.0000
# 5 0.0000 0.0000 0.0000 0.0000 18.4189 0.0000
# 6 0.0000 0.0000 0.0000 0.0000 0.0000 2.7397
#
#
#
# Elastic Compliance Matrix: (Units=1/GPa)
#
#
# Indices 1 2 3 4 5 6 
#
# 1 0.017043 0.001315 -0.007596 0.000000 0.000000 0.000000
# 2 0.001315 0.021035 -0.001206 0.000000 0.000000 0.000000
# 3 -0.007596 -0.001206 0.007197 0.000000 0.000000 0.000000
# 4 0.000000 0.000000 0.000000 -0.349703 0.000000 0.000000
# 5 0.000000 0.000000 0.000000 0.000000 0.054292 0.000000
# 6 0.000000 0.000000 0.000000 0.000000 0.000000 0.365002
#
#
# Mechanical properties :
#
#
# Convention : Reuss Voigt Hill
#
# Bulk Modulus (GPa) = 33.00104 74.59281 53.79693
# Shear Modulus (GPa) = 35.72920 23.52229 29.62575
#
# Velocity S-wave (km/s) = 4.16126 3.37639 3.78920
# Velocity P-wave (km/s) = 6.25156 7.16598 6.72434
#
# Compressibility (1/GPa) = 0.03030208
#
# Stress axis : x y z
#
# Youngs Moduli (GPa) = 58.67381 47.53994 138.94092
#
# Poissons Ratio (x) = -0.06252 1.05541
# Poissons Ratio (y) = -0.07716 0.16754
# Poissons Ratio (z) = 0.44569 0.05732
#
# Static dielectric constant tensor:
#      x y z
#    x 1.683050 0.000000 0.000000 
#    y 0.000000 1.791640 0.000000 
#    z 0.000000 0.000000 1.784210 
# 
# From -- ./inp_files/78223.got.cif
#   From: 2010.05.17/outbox.cif.g08.bks.cpg/sg65_40_cif.got.tgz:78223.got - 2010.06.03 17:01:31.
