data_PCOD9491603
_publ_section_title
;
Structure prediction by ZEFSAII (Michael W. Deem and Ramdas Pophale) SiO2 
 PCOD9491603
Probable space group: C M M M
;
_chemical_formula_sum "Si O2"
_cell_formula_units_Z 72
_cell_length_a 19.694006
_cell_length_b 8.681190
_cell_length_c 23.971385
_cell_angle_alpha 90.000000
_cell_angle_beta 90.000000
_cell_angle_gamma 90.000000
_cell_volume 4098.325558
_symmetry_space_group_name_H-M "C M M M"
_symmetry_group_IT_number 65
_symmetry_cell_setting 'orthorhombic'
loop_
_space_group_symop_operation_xyz
x,y,z
-x,-y,z
x,-y,-z
-x,y,-z
-x,-y,-z
x,y,-z
-x,y,z
x,-y,z
1/2+x,1/2+y,z
1/2-x,1/2-y,z
1/2+x,1/2-y,-z
1/2-x,1/2+y,-z
1/2-x,1/2-y,-z
1/2+x,1/2+y,-z
1/2-x,1/2+y,z
1/2+x,1/2-y,z
loop_
_atom_site_type_symbol
_atom_site_label
_atom_site_fract_x
_atom_site_fract_y
_atom_site_fract_z
Si Si1 0.579507 0.313677 0.681732
Si Si2 0.324834 0.815167 0.905185
Si Si3 0.921000 0.815116 0.000000
Si Si4 0.917956 0.183905 0.440059
Si Si5 0.175752 0.684045 0.776293
O O1 0.500000 0.272521 0.687045
O O2 0.583407 0.500000 0.682003
O O3 0.605158 0.257964 0.620493
O O4 0.622211 0.248102 0.732422
O O5 0.250000 0.750000 0.919130
O O6 0.380859 0.748083 0.946420
O O7 0.339544 0.772901 0.840668
O O8 0.323055 0.000000 0.909897
O O9 0.000000 0.767862 0.000000
O O10 0.918043 0.000000 0.000000
O O11 0.893486 0.247632 0.500000
O O12 0.000000 0.200093 0.439552
O O13 0.904699 0.000000 0.440736
O O14 0.177557 0.500000 0.773361
O O15 0.250000 0.750000 0.763109
#
# Coordination Sequence:
#
# PCOD9491603 Si02
#       5
#    16  16   8  16  16
#     4   9  17  29  48  75 104 133 165 205 254 303
#     4  10  21  38  59  79 101 133 172 210 248 295
#     4  11  24  39  56  81 111 139 166 201 246 291
#     4   7  10  19  38  65  95 126 162 202 243 292
#     4  10  21  36  54  75 100 133 171 210 251 296
#
# _framework density 17.568151
#
# number of rings (size 3 to 8) (size 9 to 14) (size 15 to 20)
#    0.000    2.778    0.000    4.000    0.000    4.889 
#    0.000    4.444    0.000    1.333    0.000    3.111 
#    0.000    0.000    0.000    0.000    0.000    0.000 
#
# Total GULP energy -200586.236954 kJ/mol
# GULP energy per Si atom -5571.839915 kJ/mol
# Density = 1.752817 g / cm^3
# Si number density = 17.568151 Si / 1000 Ang^3
#
#
#
# Elastic Constant Matrix: (Units=GPa)
#
#
# Indices 1 2 3 4 5 6 
#
# 1 101.3558 36.4653 105.8604 0.0000 0.0000 0.0000
# 2 36.4653 28.2570 44.0932 0.0000 0.0000 0.0000
# 3 105.8604 44.0932 162.4082 0.0000 0.0000 0.0000
# 4 0.0000 0.0000 0.0000 -3.8247 0.0000 0.0000
# 5 0.0000 0.0000 0.0000 0.0000 100.7624 0.0000
# 6 0.0000 0.0000 0.0000 0.0000 0.0000 26.7679
#
#
#
# Elastic Compliance Matrix: (Units=1/GPa)
#
#
# Indices 1 2 3 4 5 6 
#
# 1 0.034855 -0.016532 -0.018231 0.000000 0.000000 0.000000
# 2 -0.016532 0.069244 -0.008024 0.000000 0.000000 0.000000
# 3 -0.018231 -0.008024 0.020219 0.000000 0.000000 0.000000
# 4 0.000000 0.000000 0.000000 -0.261459 0.000000 0.000000
# 5 0.000000 0.000000 0.000000 0.000000 0.009924 0.000000
# 6 0.000000 0.000000 0.000000 0.000000 0.000000 0.037358
#
#
# Mechanical properties :
#
#
# Convention : Reuss Voigt Hill
#
# Bulk Modulus (GPa) = 25.80969 73.87321 49.84145
# Shear Modulus (GPa) = 579.44066 31.78128 305.61097
#
# Velocity S-wave (km/s) = 18.18077 4.25788 13.20360
# Velocity P-wave (km/s) = 21.34113 8.14331 16.15174
#
# Compressibility (1/GPa) = 0.03874514
#
# Stress axis : x y z
#
# Youngs Moduli (GPa) = 28.69040 14.44165 49.45910
#
# Poissons Ratio (x) = 0.23875 0.90167
# Poissons Ratio (y) = 0.47431 0.39684
# Poissons Ratio (z) = 0.52304 0.11588
#
# Static dielectric constant tensor:
#      x y z
#    x 1.560220 0.000000 0.000000 
#    y 0.000000 1.593580 0.000000 
#    z 0.000000 0.000000 1.641350 
# 
# From -- ./inp_files/70327.got.cif
#   From: 2010.05.17/outbox.cif.g08.bks.cpg/sg65_36_cif.got.tgz:70327.got - 2010.06.03 17:01:31.
