data_PCOD9491378
_publ_section_title
;
Structure prediction by ZEFSAII (Michael W. Deem and Ramdas Pophale) SiO2 
 PCOD9491378
Probable space group: C M M M
;
_chemical_formula_sum "Si O2"
_cell_formula_units_Z 72
_cell_length_a 9.660597
_cell_length_b 26.697802
_cell_length_c 15.732266
_cell_angle_alpha 90.000000
_cell_angle_beta 90.000000
_cell_angle_gamma 90.000000
_cell_volume 4057.614223
_symmetry_space_group_name_H-M "C M M M"
_symmetry_group_IT_number 65
_symmetry_cell_setting 'orthorhombic'
loop_
_space_group_symop_operation_xyz
x,y,z
-x,-y,z
x,-y,-z
-x,y,-z
-x,-y,-z
x,y,-z
-x,y,z
x,-y,z
1/2+x,1/2+y,z
1/2-x,1/2-y,z
1/2+x,1/2-y,-z
1/2-x,1/2+y,-z
1/2-x,1/2-y,-z
1/2+x,1/2+y,-z
1/2-x,1/2+y,z
1/2+x,1/2-y,z
loop_
_atom_site_type_symbol
_atom_site_label
_atom_site_fract_x
_atom_site_fract_y
_atom_site_fract_z
Si Si1 0.165516 0.500000 0.397310
Si Si2 0.664906 0.403850 0.330405
Si Si3 0.846737 0.558860 0.000000
Si Si4 0.161011 0.112988 0.130026
Si Si5 0.338228 0.700388 0.000000
Si Si6 0.657339 0.295988 0.397976
O O1 0.179716 0.500000 0.500000
O O2 0.243148 0.549197 0.360094
O O3 0.000000 0.500000 0.377749
O O4 0.500000 0.413415 0.347581
O O5 0.679448 0.391910 0.230348
O O6 0.706153 0.351940 0.376156
O O7 0.761662 0.575605 0.081908
O O8 0.857893 0.500000 0.000000
O O9 0.000000 0.581784 0.000000
O O10 0.188580 0.166064 0.083500
O O11 0.000000 0.101308 0.111160
O O12 0.250000 0.750000 0.000000
O O13 0.500000 0.712889 0.000000
O O14 0.653027 0.292091 0.500000
O O15 0.500000 0.291454 0.365049
O O16 0.750000 0.250000 0.365737
#
# Coordination Sequence:
#
# PCOD9491378 Si02
#       6
#     8  16   8  16   8  16
#     4  11  25  41  57  82 117 154 189 235 296 349
#     4  10  21  38  60  84 111 148 195 238 279 336
#     4  10  21  35  53  77 106 138 172 216 268 319
#     4   9  20  37  55  79 108 141 183 225 267 322
#     4   9  18  34  54  78 111 148 184 224 271 330
#     4   9  18  33  54  80 110 144 183 228 278 333
#
# _framework density 17.744418
#
# number of rings (size 3 to 8) (size 9 to 14) (size 15 to 20)
#    0.000    2.444    0.000    2.000    1.556    7.111 
#    0.000    2.222    0.000    0.000    0.000    0.000 
#    0.000    0.000    0.000    0.000    0.000    0.000 
#
# Total GULP energy -200653.704777 kJ/mol
# GULP energy per Si atom -5573.714022 kJ/mol
# Density = 1.770403 g / cm^3
# Si number density = 17.744418 Si / 1000 Ang^3
#
#
#
# Elastic Constant Matrix: (Units=GPa)
#
#
# Indices 1 2 3 4 5 6 
#
# 1 92.1586 94.5442 42.7688 0.0000 0.0000 0.0000
# 2 94.5442 162.3217 39.0601 0.0000 0.0000 0.0000
# 3 42.7688 39.0601 60.9306 0.0000 0.0000 0.0000
# 4 0.0000 0.0000 0.0000 -8.2369 0.0000 0.0000
# 5 0.0000 0.0000 0.0000 0.0000 -25.0119 0.0000
# 6 0.0000 0.0000 0.0000 0.0000 0.0000 37.0691
#
#
#
# Elastic Compliance Matrix: (Units=1/GPa)
#
#
# Indices 1 2 3 4 5 6 
#
# 1 0.034112 -0.016680 -0.013252 0.000000 0.000000 0.000000
# 2 -0.016680 0.015440 0.001810 0.000000 0.000000 0.000000
# 3 -0.013252 0.001810 0.024553 0.000000 0.000000 0.000000
# 4 0.000000 0.000000 0.000000 -0.121405 0.000000 0.000000
# 5 0.000000 0.000000 0.000000 0.000000 -0.039981 0.000000
# 6 0.000000 0.000000 0.000000 0.000000 0.000000 0.026977
#
#
# Mechanical properties :
#
#
# Convention : Reuss Voigt Hill
#
# Bulk Modulus (GPa) = 55.98157 74.23968 65.11062
# Shear Modulus (GPa) = 2639.35406 10.03325 1324.69365
#
# Velocity S-wave (km/s) = 38.60903 2.38046 27.35255
# Velocity P-wave (km/s) = 44.93506 7.03453 32.16088
#
# Compressibility (1/GPa) = 0.01786302
#
# Stress axis : x y z
#
# Youngs Moduli (GPa) = 29.31496 64.76571 40.72749
#
# Poissons Ratio (x) = 1.08029 0.53970
# Poissons Ratio (y) = 0.48897 -0.07372
# Poissons Ratio (z) = 0.38847 -0.11722
#
# Static dielectric constant tensor:
#      x y z
#    x 1.626670 0.000000 0.000000 
#    y 0.000000 1.590170 0.000000 
#    z 0.000000 0.000000 1.629830 
# 
# From -- ./inp_files/36687.got.cif
#   From: 2010.05.17/outbox.cif.g08.bks.cpg/sg65_19_cif.got.tgz:36687.got - 2010.06.03 17:01:31.
