data_PCOD9491750
_publ_section_title
;
Structure prediction by ZEFSAII (Michael W. Deem and Ramdas Pophale) SiO2 
 PCOD9491750
Probable space group: C M M M
;
_chemical_formula_sum "Si O2"
_cell_formula_units_Z 80
_cell_length_a 18.971570
_cell_length_b 25.756900
_cell_length_c 7.787299
_cell_angle_alpha 90.000000
_cell_angle_beta 90.000000
_cell_angle_gamma 90.000000
_cell_volume 3805.254556
_symmetry_space_group_name_H-M "C M M M"
_symmetry_group_IT_number 65
_symmetry_cell_setting 'orthorhombic'
loop_
_space_group_symop_operation_xyz
x,y,z
-x,-y,z
x,-y,-z
-x,y,-z
-x,-y,-z
x,y,-z
-x,y,z
x,-y,z
1/2+x,1/2+y,z
1/2-x,1/2-y,z
1/2+x,1/2-y,-z
1/2-x,1/2+y,-z
1/2-x,1/2-y,-z
1/2+x,1/2+y,-z
1/2-x,1/2+y,z
1/2+x,1/2-y,z
loop_
_atom_site_type_symbol
_atom_site_label
_atom_site_fract_x
_atom_site_fract_y
_atom_site_fract_z
Si Si1 0.919969 0.559605 0.209923
Si Si2 0.920228 0.739694 0.699967
Si Si3 0.081989 0.941379 0.292263
Si Si4 0.337587 0.660786 0.200265
Si Si5 0.181287 0.649080 0.799611
O O1 0.906091 0.500000 0.260135
O O2 0.862525 0.600540 0.273600
O O3 0.000000 0.573457 0.262941
O O4 0.919826 0.561026 0.000000
O O5 0.922142 0.725193 0.500000
O O6 0.888377 0.797174 0.714250
O O7 0.868201 0.699207 0.788545
O O8 0.000000 0.737826 0.768612
O O9 0.085476 0.938873 0.500000
O O10 0.129980 0.896330 0.218056
O O11 0.000000 0.933336 0.244026
O O12 0.102131 0.000000 0.240568
O O13 0.258421 0.660447 0.274624
O O14 0.334448 0.675802 0.000000
O O15 0.193965 0.636618 0.000000
#
# Coordination Sequence:
#
# PCOD9491750 Si02
#       5
#    16  16  16  16  16
#     4   8  14  27  50  78 105 136 174 212 253 305
#     4  11  24  40  58  79 104 139 183 227 273 328
#     4   9  19  37  59  81 108 146 190 230 269 319
#     4  11  23  36  54  83 114 143 179 224 275 329
#     4  10  21  36  55  81 112 143 177 221 271 322
#
# _framework density 21.023561999999998
#
# number of rings (size 3 to 8) (size 9 to 14) (size 15 to 20)
#    0.000    2.200    0.000    4.200    0.000   10.400 
#    0.000    3.000    0.000    0.600    0.000    2.800 
#    0.000    0.000    0.000    0.000    0.000    0.000 
#
# Total GULP energy -223433.319597 kJ/mol
# GULP energy per Si atom -5585.832990 kJ/mol
# Density = 2.097571 g / cm^3
# Si number density = 21.023562 Si / 1000 Ang^3
#
#
#
# Elastic Constant Matrix: (Units=GPa)
#
#
# Indices 1 2 3 4 5 6 
#
# 1 130.0354 55.9575 -4.4076 0.0000 0.0000 0.0000
# 2 55.9575 84.6888 -15.2514 0.0000 0.0000 0.0000
# 3 -4.4076 -15.2514 29.0752 0.0000 0.0000 0.0000
# 4 0.0000 0.0000 0.0000 -40.2458 0.0000 0.0000
# 5 0.0000 0.0000 0.0000 0.0000 9.9455 0.0000
# 6 0.0000 0.0000 0.0000 0.0000 0.0000 -167.7550
#
#
#
# Elastic Compliance Matrix: (Units=1/GPa)
#
#
# Indices 1 2 3 4 5 6 
#
# 1 0.010888 -0.007617 -0.002345 0.000000 0.000000 0.000000
# 2 -0.007617 0.018368 0.008480 0.000000 0.000000 0.000000
# 3 -0.002345 0.008480 0.038486 0.000000 0.000000 0.000000
# 4 0.000000 0.000000 0.000000 -0.024847 0.000000 0.000000
# 5 0.000000 0.000000 0.000000 0.000000 0.100548 0.000000
# 6 0.000000 0.000000 0.000000 0.000000 0.000000 -0.005961
#
#
# Mechanical properties :
#
#
# Convention : Reuss Voigt Hill
#
# Bulk Modulus (GPa) = 15.43685 35.15515 25.29600
# Shear Modulus (GPa) = 30.85690 -25.77765 2.53962
#
# Velocity S-wave (km/s) = 3.83525 -3.50541 1.10028
# Velocity P-wave (km/s) = 5.19334 0.61170 3.69763
#
# Compressibility (1/GPa) = 0.06478007
#
# Stress axis : x y z
#
# Youngs Moduli (GPa) = 91.84108 54.44320 25.98324
#
# Poissons Ratio (x) = 0.41468 0.06092
# Poissons Ratio (y) = 0.69952 -0.22034
# Poissons Ratio (z) = 0.21534 -0.46169
#
# Static dielectric constant tensor:
#      x y z
#    x 1.752120 0.000000 0.000000 
#    y 0.000000 1.717430 0.000000 
#    z 0.000000 0.000000 1.819080 
# 
# From -- ./inp_files/9615.got.cif
#   From: 2010.05.17/outbox.cif.g08.bks.cpg/sg65_5_cif.got.tgz:9615.got - 2010.06.03 17:01:31.
