data_PCOD9491852
_publ_section_title
;
Structure prediction by ZEFSAII (Michael W. Deem and Ramdas Pophale) SiO2 
 PCOD9491852
Probable space group: C M M M
;
_chemical_formula_sum "Si O2"
_cell_formula_units_Z 96
_cell_length_a 14.544733
_cell_length_b 14.546720
_cell_length_c 24.550811
_cell_angle_alpha 90.000000
_cell_angle_beta 90.000000
_cell_angle_gamma 90.000000
_cell_volume 5194.415379
_symmetry_space_group_name_H-M "C M M M"
_symmetry_group_IT_number 65
_symmetry_cell_setting 'orthorhombic'
loop_
_space_group_symop_operation_xyz
x,y,z
-x,-y,z
x,-y,-z
-x,y,-z
-x,-y,-z
x,y,-z
-x,y,z
x,-y,z
1/2+x,1/2+y,z
1/2-x,1/2-y,z
1/2+x,1/2-y,-z
1/2-x,1/2+y,-z
1/2-x,1/2-y,-z
1/2+x,1/2+y,-z
1/2-x,1/2+y,z
1/2+x,1/2-y,z
loop_
_atom_site_type_symbol
_atom_site_label
_atom_site_fract_x
_atom_site_fract_y
_atom_site_fract_z
Si Si1 0.604411 0.861785 0.000000
Si Si2 0.893076 0.250000 0.389399
Si Si3 0.750000 0.606990 0.565441
Si Si4 0.604411 0.361785 0.000000
Si Si5 0.893072 0.250000 0.741483
Si Si6 0.750000 0.138672 0.089441
Si Si7 0.750000 0.395945 0.784036
O O1 0.604121 0.750000 0.000000
O O2 0.661974 0.889014 0.053351
O O3 0.500000 0.893206 0.000000
O O4 0.838213 0.338224 0.411917
O O5 0.838213 0.161776 0.411918
O O6 0.886997 0.250000 0.323941
O O7 0.000000 0.250000 0.405215
O O8 0.750000 0.613458 0.500000
O O9 0.750000 0.500000 0.581034
O O10 0.661974 0.389014 0.946649
O O11 0.500000 0.393206 0.000000
O O12 0.838196 0.338201 0.763956
O O13 0.838195 0.161799 0.763956
O O14 0.000000 0.250000 0.757462
O O15 0.750000 0.250000 0.092793
O O16 0.750000 0.103652 0.150476
O O17 0.750000 0.500000 0.763354
#
# Coordination Sequence:
#
# PCOD9491852 Si02
#       7
#     8  16  16   8  16  16  16
#     4   8  15  27  48  74 102 138 175 215 268 329
#     4  10  21  38  60  83 112 153 196 236 279 330
#     4  10  21  36  57  88 122 153 188 231 279 332
#     4   8  15  27  48  74 102 138 175 215 268 329
#     4  10  23  41  59  83 113 148 192 239 284 331
#     4   9  16  31  50  76 106 136 179 222 269 333
#     4  11  22  38  60  84 112 147 186 234 288 338
#
# _framework density 18.481387000000002
#
# number of rings (size 3 to 8) (size 9 to 14) (size 15 to 20)
#    0.000    2.333    1.667    4.000    0.000    6.667 
#    0.000    6.667    0.000    1.000    0.000    0.000 
#    0.000    0.000    0.000    0.000    0.000    0.000 
#
# Total GULP energy -267994.356598 kJ/mol
# GULP energy per Si atom -5583.215762 kJ/mol
# Density = 1.843932 g / cm^3
# Si number density = 18.481387 Si / 1000 Ang^3
#
#
#
# Elastic Constant Matrix: (Units=GPa)
#
#
# Indices 1 2 3 4 5 6 
#
# 1 202.9742 80.5022 63.5170 0.0000 0.0000 0.0000
# 2 80.5022 166.6812 42.5582 0.0000 0.0000 0.0000
# 3 63.5170 42.5582 86.7126 0.0000 0.0000 0.0000
# 4 0.0000 0.0000 0.0000 -46.4470 0.0000 0.0000
# 5 0.0000 0.0000 0.0000 0.0000 43.7882 0.0000
# 6 0.0000 0.0000 0.0000 0.0000 0.0000 -4.0307
#
#
#
# Elastic Compliance Matrix: (Units=1/GPa)
#
#
# Indices 1 2 3 4 5 6 
#
# 1 0.007155 -0.002421 -0.004053 0.000000 0.000000 0.000000
# 2 -0.002421 0.007678 -0.001995 0.000000 0.000000 0.000000
# 3 -0.004053 -0.001995 0.015480 0.000000 0.000000 0.000000
# 4 0.000000 0.000000 0.000000 -0.021530 0.000000 0.000000
# 5 0.000000 0.000000 0.000000 0.000000 0.022837 0.000000
# 6 0.000000 0.000000 0.000000 0.000000 0.000000 -0.248096
#
#
# Mechanical properties :
#
#
# Convention : Reuss Voigt Hill
#
# Bulk Modulus (GPa) = 74.76256 92.16920 83.46588
# Shear Modulus (GPa) = -25.63072 16.64812 -4.49130
#
# Velocity S-wave (km/s) = -3.72807 3.00460 -1.56059
# Velocity P-wave (km/s) = 4.69141 7.87505 6.48174
#
# Compressibility (1/GPa) = 0.01337568
#
# Stress axis : x y z
#
# Youngs Moduli (GPa) = 139.75814 130.24046 64.59799
#
# Poissons Ratio (x) = 0.31530 0.26182
# Poissons Ratio (y) = 0.33834 0.12888
# Poissons Ratio (z) = 0.56644 0.25984
#
# Static dielectric constant tensor:
#      x y z
#    x 1.616130 0.000000 0.000000 
#    y 0.000000 1.664020 0.000000 
#    z 0.000000 0.000000 1.615710 
# 
# From -- ./inp_files/69918.got.cif
#   From: 2010.05.17/outbox.cif.g08.bks.cpg/sg65_35_cif.got.tgz:69918.got - 2010.06.03 17:01:31.
