data_PCOD9491847
_publ_section_title
;
Structure prediction by ZEFSAII (Michael W. Deem and Ramdas Pophale) SiO2 
 PCOD9491847
Probable space group: C M M M
;
_chemical_formula_sum "Si O2"
_cell_formula_units_Z 112
_cell_length_a 16.309923
_cell_length_b 13.998557
_cell_length_c 23.760401
_cell_angle_alpha 90.000000
_cell_angle_beta 90.000000
_cell_angle_gamma 90.000000
_cell_volume 5424.865144
_symmetry_space_group_name_H-M "C M M M"
_symmetry_group_IT_number 65
_symmetry_cell_setting 'orthorhombic'
loop_
_space_group_symop_operation_xyz
x,y,z
-x,-y,z
x,-y,-z
-x,y,-z
-x,-y,-z
x,y,-z
-x,y,z
x,-y,z
1/2+x,1/2+y,z
1/2-x,1/2-y,z
1/2+x,1/2-y,-z
1/2-x,1/2+y,-z
1/2-x,1/2-y,-z
1/2+x,1/2+y,-z
1/2-x,1/2+y,z
1/2+x,1/2-y,z
loop_
_atom_site_type_symbol
_atom_site_label
_atom_site_fract_x
_atom_site_fract_y
_atom_site_fract_z
Si Si1 0.403900 0.103448 0.381903
Si Si2 0.343649 0.213757 0.938100
Si Si3 0.218947 0.389662 0.831734
Si Si4 0.596332 0.394125 0.329843
Si Si5 0.093648 0.888117 0.871453
Si Si6 0.657494 0.712293 0.562074
Si Si7 0.163200 0.714987 0.721113
O O1 0.500000 0.095571 0.374059
O O2 0.390811 0.190395 0.424368
O O3 0.368341 0.136038 0.321988
O O4 0.370291 0.000000 0.399805
O O5 0.250000 0.250000 0.943020
O O6 0.331400 0.137418 0.888167
O O7 0.397151 0.304627 0.917968
O O8 0.369573 0.179095 0.000000
O O9 0.208198 0.500000 0.818374
O O10 0.318255 0.374409 0.838766
O O11 0.180924 0.327103 0.781934
O O12 0.500000 0.397498 0.341744
O O13 0.623940 0.500000 0.311493
O O14 0.639701 0.360735 0.387450
O O15 0.609557 0.310618 0.284212
O O16 0.000000 0.878502 0.846573
O O17 0.098051 0.000000 0.890664
O O18 0.637887 0.674252 0.500000
O O19 0.750000 0.750000 0.562854
O O20 0.250000 0.750000 0.697885
#
# Coordination Sequence:
#
# PCOD9491847 Si02
#       7
#    16  16  16  16  16  16  16
#     4  10  21  37  58  83 112 150 194 238 284 332
#     4   9  18  34  56  84 118 154 192 233 281 340
#     4  10  21  38  60  86 114 148 193 240 287 342
#     4  10  22  40  62  88 118 152 189 234 291 349
#     4   9  18  34  57  85 117 151 187 231 285 342
#     4  10  21  36  57  87 120 155 195 236 278 330
#     4  11  21  36  59  83 112 150 191 236 284 340
#
# _framework density 20.645675000000001
#
# number of rings (size 3 to 8) (size 9 to 14) (size 15 to 20)
#    0.000    2.143    0.000    5.143    0.000    5.429 
#    0.000   12.857    0.000    9.000    0.000    1.000 
#    0.000    0.000    0.000    0.000    0.000    0.000 
#
# Total GULP energy -312018.871879 kJ/mol
# GULP energy per Si atom -5571.765569 kJ/mol
# Density = 2.059868 g / cm^3
# Si number density = 20.645675 Si / 1000 Ang^3
#
#
#
# Elastic Constant Matrix: (Units=GPa)
#
#
# Indices 1 2 3 4 5 6 
#
# 1 72.3513 28.2956 31.4869 0.0000 0.0000 0.0000
# 2 28.2956 102.4926 37.8766 0.0000 0.0000 0.0000
# 3 31.4869 37.8766 114.1146 0.0000 0.0000 0.0000
# 4 0.0000 0.0000 0.0000 3.4490 0.0000 0.0000
# 5 0.0000 0.0000 0.0000 0.0000 7.5867 0.0000
# 6 0.0000 0.0000 0.0000 0.0000 0.0000 44.3166
#
#
#
# Elastic Compliance Matrix: (Units=1/GPa)
#
#
# Indices 1 2 3 4 5 6 
#
# 1 0.016633 -0.003301 -0.003494 0.000000 0.000000 0.000000
# 2 -0.003301 0.011776 -0.002998 0.000000 0.000000 0.000000
# 3 -0.003494 -0.002998 0.010722 0.000000 0.000000 0.000000
# 4 0.000000 0.000000 0.000000 0.289936 0.000000 0.000000
# 5 0.000000 0.000000 0.000000 0.000000 0.131810 0.000000
# 6 0.000000 0.000000 0.000000 0.000000 0.000000 0.022565
#
#
# Mechanical properties :
#
#
# Convention : Reuss Voigt Hill
#
# Bulk Modulus (GPa) = 51.16115 53.80849 52.48482
# Shear Modulus (GPa) = 9.81273 23.82376 16.81825
#
# Velocity S-wave (km/s) = 2.18249 3.40065 2.85724
# Velocity P-wave (km/s) = 5.58438 6.44505 6.03009
#
# Compressibility (1/GPa) = 0.01954608
#
# Stress axis : x y z
#
# Youngs Moduli (GPa) = 60.12211 84.91896 93.26452
#
# Poissons Ratio (x) = 0.28030 0.32585
# Poissons Ratio (y) = 0.19845 0.27960
# Poissons Ratio (z) = 0.21006 0.25458
#
# Static dielectric constant tensor:
#      x y z
#    x 1.768890 0.000000 0.000000 
#    y 0.000000 1.815210 0.000000 
#    z 0.000000 0.000000 1.775310 
# 
# From -- ./inp_files/70024.got.cif
#   From: 2010.05.17/outbox.cif.g08.bks.cpg/sg65_36_cif.got.tgz:70024.got - 2010.06.03 17:01:31.
