data_PCOD9491796
_publ_section_title
;
Structure prediction by ZEFSAII (Michael W. Deem and Ramdas Pophale) SiO2 
 PCOD9491796
Probable space group: C M M M
;
_chemical_formula_sum "Si O2"
_cell_formula_units_Z 72
_cell_length_a 10.609837
_cell_length_b 14.458972
_cell_length_c 24.238959
_cell_angle_alpha 90.000000
_cell_angle_beta 90.000000
_cell_angle_gamma 90.000000
_cell_volume 3718.434130
_symmetry_space_group_name_H-M "C M M M"
_symmetry_group_IT_number 65
_symmetry_cell_setting 'orthorhombic'
loop_
_space_group_symop_operation_xyz
x,y,z
-x,-y,z
x,-y,-z
-x,y,-z
-x,-y,-z
x,y,-z
-x,y,z
x,-y,z
1/2+x,1/2+y,z
1/2-x,1/2-y,z
1/2+x,1/2-y,-z
1/2-x,1/2+y,-z
1/2-x,1/2-y,-z
1/2+x,1/2+y,-z
1/2-x,1/2+y,z
1/2+x,1/2-y,z
loop_
_atom_site_type_symbol
_atom_site_label
_atom_site_fract_x
_atom_site_fract_y
_atom_site_fract_z
Si Si1 0.140935 0.612325 0.936916
Si Si2 0.851225 0.332456 0.439466
Si Si3 0.250000 0.250000 0.238612
Si Si4 0.149452 0.402425 0.320001
Si Si5 0.855579 0.890130 0.849230
O O1 0.138272 0.500000 0.938251
O O2 0.253363 0.635871 0.895840
O O3 0.000000 0.642544 0.918782
O O4 0.160917 0.643543 0.000000
O O5 0.842242 0.379004 0.500000
O O6 0.750000 0.250000 0.440236
O O7 0.818105 0.387656 0.384224
O O8 0.000000 0.303536 0.434205
O O9 0.180831 0.319344 0.279907
O O10 0.167472 0.182056 0.200196
O O11 0.205439 0.500000 0.300456
O O12 0.000000 0.408970 0.319056
O O13 0.000000 0.882802 0.868610
O O14 0.835309 0.000000 0.834899
#
# Coordination Sequence:
#
# PCOD9491796 Si02
#       5
#    16  16   8  16  16
#     4   8  15  31  57  87 116 146 182 226 279 339
#     4   9  17  32  56  85 115 146 182 228 283 341
#     4  12  22  38  56  76 110 156 192 236 284 334
#     4  10  21  36  56  83 111 146 193 238 282 336
#     4  10  22  38  57  84 115 148 189 235 284 335
#
# _framework density 19.36299
#
# number of rings (size 3 to 8) (size 9 to 14) (size 15 to 20)
#    0.000    2.444    1.111    2.000    0.000    2.667 
#    0.000    7.222    0.000    2.000    0.000    3.111 
#    0.000    0.000    0.000    0.000    0.000    0.000 
#
# Total GULP energy -200448.344055 kJ/mol
# GULP energy per Si atom -5568.009557 kJ/mol
# Density = 1.931892 g / cm^3
# Si number density = 19.362990 Si / 1000 Ang^3
#
#
#
# Elastic Constant Matrix: (Units=GPa)
#
#
# Indices 1 2 3 4 5 6 
#
# 1 93.8262 42.2008 69.3090 0.0000 0.0000 0.0000
# 2 42.2008 103.6517 56.1688 0.0000 0.0000 0.0000
# 3 69.3090 56.1688 129.2108 0.0000 0.0000 0.0000
# 4 0.0000 0.0000 0.0000 52.4511 0.0000 0.0000
# 5 0.0000 0.0000 0.0000 0.0000 64.4136 0.0000
# 6 0.0000 0.0000 0.0000 0.0000 0.0000 14.6589
#
#
#
# Elastic Compliance Matrix: (Units=1/GPa)
#
#
# Indices 1 2 3 4 5 6 
#
# 1 0.018245 -0.002780 -0.008578 0.000000 0.000000 0.000000
# 2 -0.002780 0.013044 -0.004179 0.000000 0.000000 0.000000
# 3 -0.008578 -0.004179 0.014158 0.000000 0.000000 0.000000
# 4 0.000000 0.000000 0.000000 0.019065 0.000000 0.000000
# 5 0.000000 0.000000 0.000000 0.000000 0.015525 0.000000
# 6 0.000000 0.000000 0.000000 0.000000 0.000000 0.068218
#
#
# Mechanical properties :
#
#
# Convention : Reuss Voigt Hill
#
# Bulk Modulus (GPa) = 69.57983 73.56066 71.57025
# Shear Modulus (GPa) = 27.15614 36.90537 32.03076
#
# Velocity S-wave (km/s) = 3.74903 4.37048 4.07163
# Velocity P-wave (km/s) = 7.39951 7.97126 7.69070
#
# Compressibility (1/GPa) = 0.01437198
#
# Stress axis : x y z
#
# Youngs Moduli (GPa) = 54.80945 76.66225 70.63373
#
# Poissons Ratio (x) = 0.21310 0.60592
# Poissons Ratio (y) = 0.15235 0.29521
# Poissons Ratio (z) = 0.47017 0.32040
#
# Static dielectric constant tensor:
#      x y z
#    x 1.661800 0.000000 0.000000 
#    y 0.000000 1.715590 0.000000 
#    z 0.000000 0.000000 1.694320 
# 
# From -- ./inp_files/66974.got.cif
#   From: 2010.05.17/outbox.cif.g08.bks.cpg/sg65_34_cif.got.tgz:66974.got - 2010.06.03 17:01:31.
