data_PCOD9491388
_publ_section_title
;
Structure prediction by ZEFSAII (Michael W. Deem and Ramdas Pophale) SiO2 
 PCOD9491388
Probable space group: C M M M
;
_chemical_formula_sum "Si O2"
_cell_formula_units_Z 88
_cell_length_a 19.664181
_cell_length_b 9.066750
_cell_length_c 28.474536
_cell_angle_alpha 90.000000
_cell_angle_beta 90.000000
_cell_angle_gamma 90.000000
_cell_volume 5076.731091
_symmetry_space_group_name_H-M "C M M M"
_symmetry_group_IT_number 65
_symmetry_cell_setting 'orthorhombic'
loop_
_space_group_symop_operation_xyz
x,y,z
-x,-y,z
x,-y,-z
-x,y,-z
-x,-y,-z
x,y,-z
-x,y,z
x,-y,z
1/2+x,1/2+y,z
1/2-x,1/2-y,z
1/2+x,1/2-y,-z
1/2-x,1/2+y,-z
1/2-x,1/2-y,-z
1/2+x,1/2+y,-z
1/2-x,1/2+y,z
1/2+x,1/2-y,z
loop_
_atom_site_type_symbol
_atom_site_label
_atom_site_fract_x
_atom_site_fract_y
_atom_site_fract_z
Si Si1 0.323124 0.324516 0.371030
Si Si2 0.676533 0.676124 0.262617
Si Si3 0.920953 0.177036 0.086794
Si Si4 0.175772 0.822067 0.000000
Si Si5 0.919593 0.676245 0.553608
Si Si6 0.580618 0.174189 0.186675
O O1 0.316973 0.500000 0.376182
O O2 0.250000 0.250000 0.378865
O O3 0.343257 0.293302 0.316873
O O4 0.376285 0.260373 0.407875
O O5 0.681474 0.500000 0.256764
O O6 0.750000 0.750000 0.254946
O O7 0.623563 0.743997 0.226291
O O8 0.904750 0.257934 0.135448
O O9 0.000000 0.209934 0.074146
O O10 0.916685 0.000000 0.093545
O O11 0.869007 0.218696 0.045647
O O12 0.250000 0.750000 0.000000
O O13 0.182719 0.000000 0.000000
O O14 0.900469 0.716643 0.500000
O O15 0.909676 0.500000 0.558484
O O16 0.000000 0.705216 0.559056
O O17 0.500000 0.194301 0.195009
O O18 0.595424 0.000000 0.187003
#
# Coordination Sequence:
#
# PCOD9491388 Si02
#       6
#    16  16  16   8  16  16
#     4  10  21  36  55  79 106 138 177 219 263 313
#     4  10  21  37  56  78 106 140 177 218 265 315
#     4   9  18  35  57  77 101 137 179 219 258 304
#     4  10  21  35  53  79 107 136 172 214 262 314
#     4   9  19  36  56  78 106 140 176 215 262 314
#     4  10  21  36  55  81 110 140 177 218 261 313
#
# _framework density 17.333988999999999
#
# number of rings (size 3 to 8) (size 9 to 14) (size 15 to 20)
#    0.000    2.364    0.000    2.455    0.000    7.636 
#    0.000    6.364    0.000    2.727    0.000    0.000 
#    0.000    0.000    0.000    0.000    0.000    0.000 
#
# Total GULP energy -245586.352292 kJ/mol
# GULP energy per Si atom -5581.508007 kJ/mol
# Density = 1.729454 g / cm^3
# Si number density = 17.333989 Si / 1000 Ang^3
#
#
#
# Elastic Constant Matrix: (Units=GPa)
#
#
# Indices 1 2 3 4 5 6 
#
# 1 102.9165 72.0045 116.0756 0.0000 0.0000 0.0000
# 2 72.0045 76.4742 93.3410 0.0000 0.0000 0.0000
# 3 116.0756 93.3410 168.1563 0.0000 0.0000 0.0000
# 4 0.0000 0.0000 0.0000 27.9155 0.0000 0.0000
# 5 0.0000 0.0000 0.0000 0.0000 58.3975 0.0000
# 6 0.0000 0.0000 0.0000 0.0000 0.0000 35.5577
#
#
#
# Elastic Compliance Matrix: (Units=1/GPa)
#
#
# Indices 1 2 3 4 5 6 
#
# 1 0.048861 -0.015003 -0.025400 0.000000 0.000000 0.000000
# 2 -0.015003 0.045155 -0.014708 0.000000 0.000000 0.000000
# 3 -0.025400 -0.014708 0.031644 0.000000 0.000000 0.000000
# 4 0.000000 0.000000 0.000000 0.035822 0.000000 0.000000
# 5 0.000000 0.000000 0.000000 0.000000 0.017124 0.000000
# 6 0.000000 0.000000 0.000000 0.000000 0.000000 0.028123
#
#
# Mechanical properties :
#
#
# Convention : Reuss Voigt Hill
#
# Bulk Modulus (GPa) = 64.77778 101.15436 82.96607
# Shear Modulus (GPa) = 15.52316 28.78254 22.15285
#
# Velocity S-wave (km/s) = 2.99579 4.07930 3.57879
# Velocity P-wave (km/s) = 7.02978 8.98167 8.06499
#
# Compressibility (1/GPa) = 0.01543739
#
# Stress axis : x y z
#
# Youngs Moduli (GPa) = 20.46612 22.14596 31.60116
#
# Poissons Ratio (x) = 0.33226 0.80267
# Poissons Ratio (y) = 0.30706 0.46480
# Poissons Ratio (z) = 0.51984 0.32573
#
# Static dielectric constant tensor:
#      x y z
#    x 1.559670 0.000000 0.000000 
#    y 0.000000 1.575060 0.000000 
#    z 0.000000 0.000000 1.569500 
# 
# From -- ./inp_files/67477.got.cif
#   From: 2010.05.17/outbox.cif.g08.bks.cpg/sg65_34_cif.got.tgz:67477.got - 2010.06.03 17:01:31.
