data_PCOD9491404
_publ_section_title
;
Structure prediction by ZEFSAII (Michael W. Deem and Ramdas Pophale) SiO2 
 PCOD9491404
Probable space group: C M M M
;
_chemical_formula_sum "Si O2"
_cell_formula_units_Z 72
_cell_length_a 8.737148
_cell_length_b 16.510233
_cell_length_c 26.052728
_cell_angle_alpha 90.000000
_cell_angle_beta 90.000000
_cell_angle_gamma 90.000000
_cell_volume 3758.167218
_symmetry_space_group_name_H-M "C M M M"
_symmetry_group_IT_number 65
_symmetry_cell_setting 'orthorhombic'
loop_
_space_group_symop_operation_xyz
x,y,z
-x,-y,z
x,-y,-z
-x,y,-z
-x,-y,-z
x,y,-z
-x,y,z
x,-y,z
1/2+x,1/2+y,z
1/2-x,1/2-y,z
1/2+x,1/2-y,-z
1/2-x,1/2+y,-z
1/2-x,1/2-y,-z
1/2+x,1/2+y,-z
1/2-x,1/2+y,z
1/2+x,1/2-y,z
loop_
_atom_site_type_symbol
_atom_site_label
_atom_site_fract_x
_atom_site_fract_y
_atom_site_fract_z
Si Si1 0.328359 0.595394 0.657848
Si Si2 0.184702 0.839442 0.234273
Si Si3 0.817688 0.339936 0.555355
Si Si4 0.818236 0.500000 0.938770
Si Si5 0.815020 0.157635 0.118198
O O1 0.500000 0.632110 0.653826
O O2 0.342019 0.500000 0.657609
O O3 0.261882 0.617847 0.713587
O O4 0.237442 0.619695 0.607466
O O5 0.250000 0.750000 0.237829
O O6 0.227444 0.867479 0.177005
O O7 0.000000 0.841057 0.235193
O O8 0.770594 0.377793 0.500000
O O9 0.750000 0.250000 0.555764
O O10 0.000000 0.336446 0.555947
O O11 0.746640 0.583724 0.916474
O O12 0.000000 0.500000 0.927612
O O13 0.796681 0.500000 0.000000
O O14 0.750000 0.250000 0.108916
O O15 0.000000 0.162316 0.114075
#
# Coordination Sequence:
#
# PCOD9491404 Si02
#       5
#    16  16  16   8  16
#     4  10  21  35  53  79 112 146 180 223 277 336
#     4   9  19  35  57  83 113 147 185 231 283 337
#     4  10  21  37  56  76 101 136 181 231 280 333
#     4  11  25  43  63  91 127 165 208 257 304 355
#     4  10  21  39  65  93 125 164 206 253 306 364
#
# _framework density 19.158275
#
# number of rings (size 3 to 8) (size 9 to 14) (size 15 to 20)
#    0.000    2.111    0.000    2.333    1.556    7.111 
#    0.000    2.222    0.000    0.000    0.000    0.000 
#    0.000    0.000    0.000    0.000    0.000    0.000 
#
# Total GULP energy -200539.330933 kJ/mol
# GULP energy per Si atom -5570.536970 kJ/mol
# Density = 1.911467 g / cm^3
# Si number density = 19.158275 Si / 1000 Ang^3
#
#
#
# Elastic Constant Matrix: (Units=GPa)
#
#
# Indices 1 2 3 4 5 6 
#
# 1 54.9166 35.6868 64.5271 0.0000 0.0000 0.0000
# 2 35.6868 80.8815 85.9520 0.0000 0.0000 0.0000
# 3 64.5271 85.9520 168.4031 0.0000 0.0000 0.0000
# 4 0.0000 0.0000 0.0000 4.5782 0.0000 0.0000
# 5 0.0000 0.0000 0.0000 0.0000 29.3064 0.0000
# 6 0.0000 0.0000 0.0000 0.0000 0.0000 27.7154
#
#
#
# Elastic Compliance Matrix: (Units=1/GPa)
#
#
# Indices 1 2 3 4 5 6 
#
# 1 0.033348 -0.002480 -0.011512 0.000000 0.000000 0.000000
# 2 -0.002480 0.027203 -0.012934 0.000000 0.000000 0.000000
# 3 -0.011512 -0.012934 0.016951 0.000000 0.000000 0.000000
# 4 0.000000 0.000000 0.000000 0.218425 0.000000 0.000000
# 5 0.000000 0.000000 0.000000 0.000000 0.034122 0.000000
# 6 0.000000 0.000000 0.000000 0.000000 0.000000 0.036081
#
#
# Mechanical properties :
#
#
# Convention : Reuss Voigt Hill
#
# Bulk Modulus (GPa) = 42.28478 75.17034 58.72756
# Shear Modulus (GPa) = 11.68594 20.18902 15.93748
#
# Velocity S-wave (km/s) = 2.47243 3.24975 2.88737
# Velocity P-wave (km/s) = 5.50180 7.30773 6.46810
#
# Compressibility (1/GPa) = 0.02364917
#
# Stress axis : x y z
#
# Youngs Moduli (GPa) = 29.98699 36.76114 58.99501
#
# Poissons Ratio (x) = 0.09117 0.67916
# Poissons Ratio (y) = 0.07437 0.76303
# Poissons Ratio (z) = 0.34521 0.47546
#
# Static dielectric constant tensor:
#      x y z
#    x 1.686060 0.000000 0.000000 
#    y 0.000000 1.626230 0.000000 
#    z 0.000000 0.000000 1.737400 
# 
# From -- ./inp_files/72480.got.cif
#   From: 2010.05.17/outbox.cif.g08.bks.cpg/sg65_37_cif.got.tgz:72480.got - 2010.06.03 17:01:31.
