data_PCOD9491934
_publ_section_title
;
Structure prediction by ZEFSAII (Michael W. Deem and Ramdas Pophale) SiO2 
 PCOD9491934
Probable space group: C M M M
;
_chemical_formula_sum "Si O2"
_cell_formula_units_Z 72
_cell_length_a 8.505350
_cell_length_b 22.652546
_cell_length_c 19.231818
_cell_angle_alpha 90.000000
_cell_angle_beta 90.000000
_cell_angle_gamma 90.000000
_cell_volume 3705.352682
_symmetry_space_group_name_H-M "C M M M"
_symmetry_group_IT_number 65
_symmetry_cell_setting 'orthorhombic'
loop_
_space_group_symop_operation_xyz
x,y,z
-x,-y,z
x,-y,-z
-x,y,-z
-x,-y,-z
x,y,-z
-x,y,z
x,-y,z
1/2+x,1/2+y,z
1/2-x,1/2-y,z
1/2+x,1/2-y,-z
1/2-x,1/2+y,-z
1/2-x,1/2-y,-z
1/2+x,1/2+y,-z
1/2-x,1/2+y,z
1/2+x,1/2-y,z
loop_
_atom_site_type_symbol
_atom_site_label
_atom_site_fract_x
_atom_site_fract_y
_atom_site_fract_z
Si Si1 0.191967 0.932454 0.663646
Si Si2 0.812813 0.500000 0.922464
Si Si3 0.687054 0.402294 0.179641
Si Si4 0.689717 0.314127 0.581312
Si Si5 0.688285 0.815966 0.076132
O O1 0.241216 0.919248 0.743197
O O2 0.242203 0.874981 0.618957
O O3 0.000000 0.933023 0.661154
O O4 0.241261 0.000000 0.644169
O O5 0.757809 0.554723 0.877586
O O6 0.000000 0.500000 0.926590
O O7 0.747056 0.500000 0.000000
O O8 0.500000 0.407686 0.180359
O O9 0.737828 0.340769 0.146817
O O10 0.735339 0.317872 0.500000
O O11 0.500000 0.312683 0.585601
O O12 0.750000 0.250000 0.607927
O O13 0.500000 0.819114 0.080836
O O14 0.750000 0.750000 0.071282
O O15 0.731098 0.844394 0.000000
#
# Coordination Sequence:
#
# PCOD9491934 Si02
#       5
#    16   8  16  16  16
#     4   9  18  34  55  81 113 145 184 233 279 327
#     4  11  23  37  53  75 104 139 182 230 273 321
#     4  11  21  35  55  78 106 141 178 224 279 333
#     4   9  18  34  58  85 113 147 185 227 275 330
#     4  10  21  37  55  76 104 138 179 229 279 331
#
# _framework density 19.431348
#
# number of rings (size 3 to 8) (size 9 to 14) (size 15 to 20)
#    0.000    2.111    1.111    2.333    0.000    6.222 
#    0.000    6.667    0.000    0.000    0.000    3.111 
#    0.000    0.000    0.000    0.000    0.000    0.000 
#
# Total GULP energy -200534.244676 kJ/mol
# GULP energy per Si atom -5570.395685 kJ/mol
# Density = 1.938712 g / cm^3
# Si number density = 19.431348 Si / 1000 Ang^3
#
#
#
# Elastic Constant Matrix: (Units=GPa)
#
#
# Indices 1 2 3 4 5 6 
#
# 1 18.9520 8.4176 16.7938 0.0000 0.0000 0.0000
# 2 8.4176 154.2082 77.6075 0.0000 0.0000 0.0000
# 3 16.7938 77.6075 100.6790 0.0000 0.0000 0.0000
# 4 0.0000 0.0000 0.0000-2790.8257 0.0000 0.0000
# 5 0.0000 0.0000 0.0000 0.0000 9.4779 0.0000
# 6 0.0000 0.0000 0.0000 0.0000 0.0000 -7.5233
#
#
#
# Elastic Compliance Matrix: (Units=1/GPa)
#
#
# Indices 1 2 3 4 5 6 
#
# 1 0.062761 0.003011 -0.012790 0.000000 0.000000 0.000000
# 2 0.003011 0.010739 -0.008780 0.000000 0.000000 0.000000
# 3 -0.012790 -0.008780 0.018834 0.000000 0.000000 0.000000
# 4 0.000000 0.000000 0.000000 -0.000358 0.000000 0.000000
# 5 0.000000 0.000000 0.000000 0.000000 0.105509 0.000000
# 6 0.000000 0.000000 0.000000 0.000000 0.000000 -0.132921
#
#
# Mechanical properties :
#
#
# Convention : Reuss Voigt Hill
#
# Bulk Modulus (GPa) = 18.11086 53.27523 35.69305
# Shear Modulus (GPa) = 41.63622 -546.37286 -252.36832
#
# Velocity S-wave (km/s) = 4.63399 -16.78665 -11.40872
# Velocity P-wave (km/s) = 6.16218 18.66133 12.45538
#
# Compressibility (1/GPa) = 0.05521548
#
# Stress axis : x y z
#
# Youngs Moduli (GPa) = 15.93356 93.11582 53.09467
#
# Poissons Ratio (x) = -0.28034 0.67906
# Poissons Ratio (y) = -0.04797 0.46620
# Poissons Ratio (z) = 0.20378 0.81760
#
# Static dielectric constant tensor:
#      x y z
#    x 1.667640 0.000000 0.000000 
#    y 0.000000 1.657550 0.000000 
#    z 0.000000 0.000000 1.679550 
# 
# From -- ./inp_files/49487.got.cif
#   From: 2010.05.17/outbox.cif.g08.bks.cpg/sg65_25_cif.got.tgz:49487.got - 2010.06.03 17:01:31.
