data_PCOD9491922
_publ_section_title
;
Structure prediction by ZEFSAII (Michael W. Deem and Ramdas Pophale) SiO2 
 PCOD9491922
Probable space group: C M M M
;
_chemical_formula_sum "Si O2"
_cell_formula_units_Z 56
_cell_length_a 14.962285
_cell_length_b 10.744695
_cell_length_c 17.330765
_cell_angle_alpha 90.000000
_cell_angle_beta 90.000000
_cell_angle_gamma 90.000000
_cell_volume 2786.183708
_symmetry_space_group_name_H-M "C M M M"
_symmetry_group_IT_number 65
_symmetry_cell_setting 'orthorhombic'
loop_
_space_group_symop_operation_xyz
x,y,z
-x,-y,z
x,-y,-z
-x,y,-z
-x,-y,-z
x,y,-z
-x,y,z
x,-y,z
1/2+x,1/2+y,z
1/2-x,1/2-y,z
1/2+x,1/2-y,-z
1/2-x,1/2+y,-z
1/2-x,1/2-y,-z
1/2+x,1/2+y,-z
1/2-x,1/2+y,z
1/2+x,1/2-y,z
loop_
_atom_site_type_symbol
_atom_site_label
_atom_site_fract_x
_atom_site_fract_y
_atom_site_fract_z
Si Si1 0.393495 0.138958 0.169960
Si Si2 0.324069 0.854750 0.000000
Si Si3 0.391058 0.000000 0.411220
Si Si4 0.890881 0.752037 0.323448
Si Si5 0.390547 0.500000 0.410614
O O1 0.500000 0.133125 0.179289
O O2 0.375629 0.164101 0.080403
O O3 0.361755 0.235963 0.234441
O O4 0.357810 0.000000 0.187480
O O5 0.250000 0.750000 0.000000
O O6 0.293836 0.000000 0.000000
O O7 0.364170 0.873599 0.368142
O O8 0.500000 0.000000 0.410629
O O9 0.362194 0.000000 0.500000
O O10 0.860250 0.876174 0.366218
O O11 0.000000 0.756587 0.325155
O O12 0.500000 0.500000 0.410299
O O13 0.363304 0.500000 0.500000
#
# Coordination Sequence:
#
# PCOD9491922 Si02
#       5
#    16   8   8  16   8
#     4   9  16  30  53  76  97 127 168 206 242 286
#     4  10  21  37  55  75 101 128 160 202 248 300
#     4   9  14  20  34  57  87 122 154 191 237 279
#     4   9  15  24  38  60  91 124 160 197 233 282
#     4   9  16  24  34  55  93 136 164 185 231 291
#
# _framework density 20.099177000000001
#
# number of rings (size 3 to 8) (size 9 to 14) (size 15 to 20)
#    0.000    2.857    1.429    1.286    0.000    5.143 
#    2.571    0.000    0.000    0.857    0.000    0.000 
#    0.000    6.857    0.000    0.000    0.000    0.000 
#
# Total GULP energy -156121.803047 kJ/mol
# GULP energy per Si atom -5575.778680 kJ/mol
# Density = 2.005343 g / cm^3
# Si number density = 20.099177 Si / 1000 Ang^3
#
#
#
# Elastic Constant Matrix: (Units=GPa)
#
#
# Indices 1 2 3 4 5 6 
#
# 1 32.9807 10.0696 4.0745 0.0000 0.0000 0.0000
# 2 10.0696 158.0543 111.8133 0.0000 0.0000 0.0000
# 3 4.0745 111.8133 204.1858 0.0000 0.0000 0.0000
# 4 0.0000 0.0000 0.0000 35.4549 0.0000 0.0000
# 5 0.0000 0.0000 0.0000 0.0000 -30.7661 0.0000
# 6 0.0000 0.0000 0.0000 0.0000 0.0000 3.7097
#
#
#
# Elastic Compliance Matrix: (Units=1/GPa)
#
#
# Indices 1 2 3 4 5 6 
#
# 1 0.030994 -0.002509 0.000756 0.000000 0.000000 0.000000
# 2 -0.002509 0.010531 -0.005717 0.000000 0.000000 0.000000
# 3 0.000756 -0.005717 0.008013 0.000000 0.000000 0.000000
# 4 0.000000 0.000000 0.000000 0.028205 0.000000 0.000000
# 5 0.000000 0.000000 0.000000 0.000000 -0.032503 0.000000
# 6 0.000000 0.000000 0.000000 0.000000 0.000000 0.269562
#
#
# Mechanical properties :
#
#
# Convention : Reuss Voigt Hill
#
# Bulk Modulus (GPa) = 28.90437 71.90395 50.40416
# Shear Modulus (GPa) = 14.65100 19.63060 17.14080
#
# Velocity S-wave (km/s) = 2.70281 3.12859 2.92346
# Velocity P-wave (km/s) = 4.91450 6.99307 6.04381
#
# Compressibility (1/GPa) = 0.03459684
#
# Stress axis : x y z
#
# Youngs Moduli (GPa) = 32.26482 94.95725 124.79763
#
# Poissons Ratio (x) = 0.23825 -0.09428
# Poissons Ratio (y) = 0.08095 0.71344
# Poissons Ratio (z) = -0.02438 0.54285
#
# Static dielectric constant tensor:
#      x y z
#    x 1.732560 0.000000 0.000000 
#    y 0.000000 1.671290 0.000000 
#    z 0.000000 0.000000 1.775510 
# 
# From -- ./inp_files/37667.got.cif
#   From: 2010.05.17/outbox.cif.g08.bks.cpg/sg65_19_cif.got.tgz:37667.got - 2010.06.03 17:01:31.
