data_PCOD9491784
_publ_section_title
;
Structure prediction by ZEFSAII (Michael W. Deem and Ramdas Pophale) SiO2 
 PCOD9491784
Probable space group: C M M M
;
_chemical_formula_sum "Si O2"
_cell_formula_units_Z 120
_cell_length_a 27.775087
_cell_length_b 28.716947
_cell_length_c 7.651409
_cell_angle_alpha 90.000000
_cell_angle_beta 90.000000
_cell_angle_gamma 90.000000
_cell_volume 6102.883955
_symmetry_space_group_name_H-M "C M M M"
_symmetry_group_IT_number 65
_symmetry_cell_setting 'orthorhombic'
loop_
_space_group_symop_operation_xyz
x,y,z
-x,-y,z
x,-y,-z
-x,y,-z
-x,-y,-z
x,y,-z
-x,y,z
x,-y,z
1/2+x,1/2+y,z
1/2-x,1/2-y,z
1/2+x,1/2-y,-z
1/2-x,1/2+y,-z
1/2-x,1/2-y,-z
1/2+x,1/2+y,-z
1/2-x,1/2+y,z
1/2+x,1/2-y,z
loop_
_atom_site_type_symbol
_atom_site_label
_atom_site_fract_x
_atom_site_fract_y
_atom_site_fract_z
Si Si1 0.303594 0.237292 0.712054
Si Si2 0.098450 0.783314 0.206026
Si Si3 0.791930 0.447558 0.291229
Si Si4 0.317955 0.553188 0.788945
Si Si5 0.946120 0.686852 0.788937
Si Si6 0.000000 0.947004 0.291194
Si Si7 0.093264 0.113655 0.791304
Si Si8 0.651214 0.859570 0.291392
O O1 0.304097 0.237487 0.500000
O O2 0.250000 0.250000 0.769996
O O3 0.344861 0.272871 0.772233
O O4 0.320330 0.186156 0.774261
O O5 0.071111 0.737791 0.277959
O O6 0.086383 0.834090 0.279715
O O7 0.086753 0.784184 0.000000
O O8 0.799084 0.450341 0.500000
O O9 0.798602 0.500000 0.219937
O O10 0.736328 0.433835 0.261255
O O11 0.827014 0.407560 0.221151
O O12 0.326710 0.500000 0.728186
O O13 0.358967 0.587930 0.722781
O O14 0.320254 0.552566 0.000000
O O15 0.904846 0.650212 0.741071
O O16 0.000000 0.676260 0.728168
O O17 0.946794 0.688909 0.000000
O O18 0.952701 0.918820 0.236450
O O19 0.000000 0.949268 0.500000
O O20 0.000000 0.000000 0.222480
O O21 0.100013 0.118593 0.000000
O O22 0.658385 0.860166 0.500000
#
# Coordination Sequence:
#
# PCOD9491784 Si02
#       8
#    16  16  16  16  16   8  16  16
#     4   9  18  31  47  69 101 138 168 199 244 296
#     4   9  19  33  50  75 101 129 166 207 250 296
#     4   9  18  32  51  75 102 133 167 204 247 293
#     4   9  18  32  49  72 100 129 165 206 247 295
#     4   9  18  33  53  74  99 129 162 206 252 298
#     4  11  25  41  55  75 101 131 173 223 270 313
#     4  10  21  36  56  77  99 132 171 213 262 312
#     4   9  18  32  49  72 100 131 167 203 244 299
#
# _framework density 19.662834
#
# number of rings (size 3 to 8) (size 9 to 14) (size 15 to 20)
#    0.000    2.733    0.000    0.600    2.800    3.200 
#    0.000    1.333    0.000    0.400    0.000    2.800 
#    0.000    0.000    0.000    0.000    0.000    0.000 
#
# Total GULP energy -334753.117319 kJ/mol
# GULP energy per Si atom -5579.218622 kJ/mol
# Density = 1.961808 g / cm^3
# Si number density = 19.662834 Si / 1000 Ang^3
#
#
#
# Elastic Constant Matrix: (Units=GPa)
#
#
# Indices 1 2 3 4 5 6 
#
# 1 133.8281 92.0494 -14.5541 0.0000 0.0000 0.0000
# 2 92.0494 141.2088 1.3181 0.0000 0.0000 0.0000
# 3 -14.5541 1.3181 32.9963 0.0000 0.0000 0.0000
# 4 0.0000 0.0000 0.0000 -7.3770 0.0000 0.0000
# 5 0.0000 0.0000 0.0000 0.0000 25.3232 0.0000
# 6 0.0000 0.0000 0.0000 0.0000 0.0000 21.8286
#
#
#
# Elastic Compliance Matrix: (Units=1/GPa)
#
#
# Indices 1 2 3 4 5 6 
#
# 1 0.015010 -0.009850 0.007014 0.000000 0.000000 0.000000
# 2 -0.009850 0.013548 -0.004886 0.000000 0.000000 0.000000
# 3 0.007014 -0.004886 0.033595 0.000000 0.000000 0.000000
# 4 0.000000 0.000000 0.000000 -0.135556 0.000000 0.000000
# 5 0.000000 0.000000 0.000000 0.000000 0.039489 0.000000
# 6 0.000000 0.000000 0.000000 0.000000 0.000000 0.045811
#
#
# Mechanical properties :
#
#
# Convention : Reuss Voigt Hill
#
# Bulk Modulus (GPa) = 21.40858 51.74000 36.57429
# Shear Modulus (GPa) = 116.51620 23.23629 69.87625
#
# Velocity S-wave (km/s) = 7.70621 3.44137 5.96778
# Velocity P-wave (km/s) = 9.49170 6.49318 8.13185
#
# Compressibility (1/GPa) = 0.04671025
#
# Stress axis : x y z
#
# Youngs Moduli (GPa) = 66.62158 73.81018 29.76593
#
# Poissons Ratio (x) = 0.72704 -0.20878
# Poissons Ratio (y) = 0.65623 0.14543
# Poissons Ratio (z) = -0.46730 0.36063
#
# Static dielectric constant tensor:
#      x y z
#    x 1.660500 0.000000 0.000000 
#    y 0.000000 1.708440 0.000000 
#    z 0.000000 0.000000 1.733900 
# 
# From -- ./inp_files/17068.got.cif
#   From: 2010.05.17/outbox.cif.g08.bks.cpg/sg65_9_cif.got.tgz:17068.got - 2010.06.03 17:01:31.
