data_PCOD9491405
_publ_section_title
;
Structure prediction by ZEFSAII (Michael W. Deem and Ramdas Pophale) SiO2 
 PCOD9491405
Probable space group: C M M M
;
_chemical_formula_sum "Si O2"
_cell_formula_units_Z 112
_cell_length_a 16.850804
_cell_length_b 14.973227
_cell_length_c 22.449741
_cell_angle_alpha 90.000000
_cell_angle_beta 90.000000
_cell_angle_gamma 90.000000
_cell_volume 5664.314658
_symmetry_space_group_name_H-M "C M M M"
_symmetry_group_IT_number 65
_symmetry_cell_setting 'orthorhombic'
loop_
_space_group_symop_operation_xyz
x,y,z
-x,-y,z
x,-y,-z
-x,y,-z
-x,-y,-z
x,y,-z
-x,y,z
x,-y,z
1/2+x,1/2+y,z
1/2-x,1/2-y,z
1/2+x,1/2-y,-z
1/2-x,1/2+y,-z
1/2-x,1/2-y,-z
1/2+x,1/2+y,-z
1/2-x,1/2+y,z
1/2+x,1/2-y,z
loop_
_atom_site_type_symbol
_atom_site_label
_atom_site_fract_x
_atom_site_fract_y
_atom_site_fract_z
Si Si1 0.085304 0.629364 0.068562
Si Si2 0.831807 0.396228 0.662750
Si Si3 0.094870 0.259785 0.431543
Si Si4 0.641784 0.603669 0.654514
Si Si5 0.587069 0.311816 0.122588
Si Si6 0.590793 0.244860 0.255906
Si Si7 0.238409 0.102836 0.932404
O O1 0.082624 0.735698 0.072732
O O2 0.172141 0.607360 0.093434
O O3 0.000000 0.599317 0.094998
O O4 0.086710 0.599526 0.000000
O O5 0.858720 0.500000 0.665006
O O6 0.867189 0.338967 0.607792
O O7 0.737009 0.396843 0.657085
O O8 0.856278 0.336142 0.719662
O O9 0.121492 0.263426 0.500000
O O10 0.115974 0.164552 0.401513
O O11 0.000000 0.269581 0.429656
O O12 0.614497 0.500000 0.653729
O O13 0.612016 0.662651 0.710459
O O14 0.500000 0.359066 0.123052
O O15 0.594995 0.262366 0.185900
O O16 0.668763 0.360419 0.108563
O O17 0.500000 0.222654 0.271869
O O18 0.219906 0.000000 0.939266
O O19 0.238762 0.142751 0.000000
#
# Coordination Sequence:
#
# PCOD9491405 Si02
#       7
#    16  16  16  16  16  16  16
#     4   9  18  34  56  79 104 138 180 225 274 330
#     4  10  21  37  58  83 111 144 180 223 279 335
#     4  10  21  36  56  83 112 144 184 227 270 322
#     4  10  21  36  55  80 110 146 186 227 273 324
#     4  10  21  36  54  78 107 141 184 229 273 327
#     4  10  21  37  57  80 108 144 186 231 276 325
#     4  10  21  35  53  80 111 143 179 222 278 338
#
# _framework density 19.772912999999999
#
# number of rings (size 3 to 8) (size 9 to 14) (size 15 to 20)
#    0.000    2.143    0.000    4.286    0.000    9.429 
#    0.000    8.571    0.000    2.571    0.000    0.000 
#    0.000    0.000    0.000    0.000    0.000    0.000 
#
# Total GULP energy -311998.022759 kJ/mol
# GULP energy per Si atom -5571.393264 kJ/mol
# Density = 1.972791 g / cm^3
# Si number density = 19.772913 Si / 1000 Ang^3
#
#
#
# Elastic Constant Matrix: (Units=GPa)
#
#
# Indices 1 2 3 4 5 6 
#
# 1 115.3160 22.6565 33.6551 0.0000 0.0000 0.0000
# 2 22.6565 94.3389 20.4728 0.0000 0.0000 0.0000
# 3 33.6551 20.4728 73.0796 0.0000 0.0000 0.0000
# 4 0.0000 0.0000 0.0000 6.6737 0.0000 0.0000
# 5 0.0000 0.0000 0.0000 0.0000 15.4425 0.0000
# 6 0.0000 0.0000 0.0000 0.0000 0.0000 413.1048
#
#
#
# Elastic Compliance Matrix: (Units=1/GPa)
#
#
# Indices 1 2 3 4 5 6 
#
# 1 0.010221 -0.001526 -0.004279 0.000000 0.000000 0.000000
# 2 -0.001526 0.011514 -0.002523 0.000000 0.000000 0.000000
# 3 -0.004279 -0.002523 0.016361 0.000000 0.000000 0.000000
# 4 0.000000 0.000000 0.000000 0.149841 0.000000 0.000000
# 5 0.000000 0.000000 0.000000 0.000000 0.064756 0.000000
# 6 0.000000 0.000000 0.000000 0.000000 0.000000 0.002421
#
#
# Mechanical properties :
#
#
# Convention : Reuss Voigt Hill
#
# Bulk Modulus (GPa) = 46.64276 48.47816 47.56046
# Shear Modulus (GPa) = 17.92647 100.77421 59.35034
#
# Velocity S-wave (km/s) = 3.01428 7.14678 5.48463
# Velocity P-wave (km/s) = 5.97954 9.62666 8.01335
#
# Compressibility (1/GPa) = 0.02143956
#
# Stress axis : x y z
#
# Youngs Moduli (GPa) = 97.84194 86.85044 61.12003
#
# Poissons Ratio (x) = 0.13253 0.26156
# Poissons Ratio (y) = 0.14930 0.15420
# Poissons Ratio (z) = 0.41870 0.21911
#
# Static dielectric constant tensor:
#      x y z
#    x 1.741440 0.000000 0.000000 
#    y 0.000000 1.691950 0.000000 
#    z 0.000000 0.000000 1.713500 
# 
# From -- ./inp_files/70054.got.cif
#   From: 2010.05.17/outbox.cif.g08.bks.cpg/sg65_36_cif.got.tgz:70054.got - 2010.06.03 17:01:31.
