data_PCOD9491567
_publ_section_title
;
Structure prediction by ZEFSAII (Michael W. Deem and Ramdas Pophale) SiO2 
 PCOD9491567
Probable space group: C M M M
;
_chemical_formula_sum "Si O2"
_cell_formula_units_Z 104
_cell_length_a 21.010644
_cell_length_b 8.900192
_cell_length_c 30.509074
_cell_angle_alpha 90.000000
_cell_angle_beta 90.000000
_cell_angle_gamma 90.000000
_cell_volume 5705.159179
_symmetry_space_group_name_H-M "C M M M"
_symmetry_group_IT_number 65
_symmetry_cell_setting 'orthorhombic'
loop_
_space_group_symop_operation_xyz
x,y,z
-x,-y,z
x,-y,-z
-x,y,-z
-x,-y,-z
x,y,-z
-x,y,z
x,-y,z
1/2+x,1/2+y,z
1/2-x,1/2-y,z
1/2+x,1/2-y,-z
1/2-x,1/2+y,-z
1/2-x,1/2-y,-z
1/2+x,1/2+y,-z
1/2-x,1/2+y,z
1/2+x,1/2-y,z
loop_
_atom_site_type_symbol
_atom_site_label
_atom_site_fract_x
_atom_site_fract_y
_atom_site_fract_z
Si Si1 0.425571 0.682197 0.886959
Si Si2 0.500000 0.169630 0.447257
Si Si3 0.077053 0.828565 0.211012
Si Si4 0.633752 0.320588 0.551125
Si Si5 0.318089 0.179309 0.948105
Si Si6 0.427378 0.180446 0.698071
Si Si7 0.814055 0.679850 0.365037
O O1 0.500000 0.724962 0.894172
O O2 0.423294 0.500000 0.888452
O O3 0.405308 0.727642 0.837415
O O4 0.376606 0.751272 0.921271
O O5 0.500000 0.155590 0.500000
O O6 0.436585 0.260265 0.436903
O O7 0.500000 0.000000 0.428289
O O8 0.093648 0.733329 0.253628
O O9 0.000000 0.833060 0.209871
O O10 0.099736 0.000000 0.216370
O O11 0.646006 0.282503 0.500000
O O12 0.637008 0.500000 0.555446
O O13 0.678617 0.239579 0.585594
O O14 0.250000 0.250000 0.934890
O O15 0.315986 0.000000 0.942073
O O16 0.326457 0.210543 0.000000
O O17 0.500000 0.234650 0.689783
O O18 0.376002 0.229679 0.662342
O O19 0.429144 0.000000 0.697263
O O20 0.810852 0.500000 0.364919
O O21 0.750000 0.750000 0.345736
#
# Coordination Sequence:
#
# PCOD9491567 Si02
#       7
#    16   8  16  16  16  16  16
#     4   9  18  33  54  81 112 144 180 224 274 327
#     4   9  17  31  53  81 111 141 173 213 261 307
#     4   8  15  30  53  81 110 139 173 216 266 321
#     4  10  21  37  57  82 111 142 180 224 268 318
#     4  10  21  36  53  74 104 144 189 234 279 329
#     4   9  19  36  58  83 108 138 178 222 268 321
#     4  11  24  40  58  80 111 146 181 223 272 326
#
# _framework density 18.229113999999999
#
# number of rings (size 3 to 8) (size 9 to 14) (size 15 to 20)
#    0.000    2.538    0.000    2.538    1.077    5.538 
#    0.000    3.846    0.000    1.846    0.000    0.000 
#    0.000    0.000    0.000    0.000    0.000    0.000 
#
# Total GULP energy -289975.983115 kJ/mol
# GULP energy per Si atom -5576.461214 kJ/mol
# Density = 1.818762 g / cm^3
# Si number density = 18.229114 Si / 1000 Ang^3
#
#
#
# Elastic Constant Matrix: (Units=GPa)
#
#
# Indices 1 2 3 4 5 6 
#
# 1 116.2116 38.2546 72.2371 0.0000 0.0000 0.0000
# 2 38.2546 40.3158 40.1058 0.0000 0.0000 0.0000
# 3 72.2371 40.1058 104.2802 0.0000 0.0000 0.0000
# 4 0.0000 0.0000 0.0000 28.7188 0.0000 0.0000
# 5 0.0000 0.0000 0.0000 0.0000 4.5127 0.0000
# 6 0.0000 0.0000 0.0000 0.0000 0.0000 29.4909
#
#
#
# Elastic Compliance Matrix: (Units=1/GPa)
#
#
# Indices 1 2 3 4 5 6 
#
# 1 0.016190 -0.006812 -0.008596 0.000000 0.000000 0.000000
# 2 -0.006812 0.043041 -0.011835 0.000000 0.000000 0.000000
# 3 -0.008596 -0.011835 0.020095 0.000000 0.000000 0.000000
# 4 0.000000 0.000000 0.000000 0.034820 0.000000 0.000000
# 5 0.000000 0.000000 0.000000 0.000000 0.221597 0.000000
# 6 0.000000 0.000000 0.000000 0.000000 0.000000 0.033909
#
#
# Mechanical properties :
#
#
# Convention : Reuss Voigt Hill
#
# Bulk Modulus (GPa) = 40.25367 62.44474 51.34920
# Shear Modulus (GPa) = 11.56289 19.89180 15.72735
#
# Velocity S-wave (km/s) = 2.52128 3.30693 2.94046
# Velocity P-wave (km/s) = 5.53225 6.99363 6.30542
#
# Compressibility (1/GPa) = 0.02484246
#
# Stress axis : x y z
#
# Youngs Moduli (GPa) = 61.76529 23.23383 49.76240
#
# Poissons Ratio (x) = 0.15826 0.42774
# Poissons Ratio (y) = 0.42073 0.58892
# Poissons Ratio (z) = 0.53091 0.27496
#
# Static dielectric constant tensor:
#      x y z
#    x 1.695070 0.000000 0.000000 
#    y 0.000000 1.614380 0.000000 
#    z 0.000000 0.000000 1.635440 
# 
# From -- ./inp_files/75500.got.cif
#   From: 2010.05.17/outbox.cif.g08.bks.cpg/sg65_38_cif.got.tgz:75500.got - 2010.06.03 17:01:31.
