data_PCOD9491105
_publ_section_title
;
Structure prediction by ZEFSAII (Michael W. Deem and Ramdas Pophale) SiO2 
 PCOD9491105
Probable space group: C M M M
;
_chemical_formula_sum "Si O2"
_cell_formula_units_Z 80
_cell_length_a 22.768425
_cell_length_b 13.618502
_cell_length_c 13.417050
_cell_angle_alpha 90.000000
_cell_angle_beta 90.000000
_cell_angle_gamma 90.000000
_cell_volume 4160.249400
_symmetry_space_group_name_H-M "C M M M"
_symmetry_group_IT_number 65
_symmetry_cell_setting 'orthorhombic'
loop_
_space_group_symop_operation_xyz
x,y,z
-x,-y,z
x,-y,-z
-x,y,-z
-x,-y,-z
x,y,-z
-x,y,z
x,-y,z
1/2+x,1/2+y,z
1/2-x,1/2-y,z
1/2+x,1/2-y,-z
1/2-x,1/2+y,-z
1/2-x,1/2-y,-z
1/2+x,1/2+y,-z
1/2-x,1/2+y,z
1/2+x,1/2-y,z
loop_
_atom_site_type_symbol
_atom_site_label
_atom_site_fract_x
_atom_site_fract_y
_atom_site_fract_z
Si Si1 0.784201 0.619009 0.110762
Si Si2 0.066625 0.804921 0.284714
Si Si3 0.688942 0.810100 0.500000
Si Si4 0.850616 0.118148 0.111977
Si Si5 0.068107 0.815816 0.500000
Si Si6 0.638453 0.885940 0.697454
O O1 0.781999 0.500000 0.108837
O O2 0.716931 0.651567 0.125307
O O3 0.826080 0.641600 0.202573
O O4 0.804159 0.649839 0.000000
O O5 0.109104 0.844140 0.200109
O O6 0.070736 0.863092 0.390105
O O7 0.085779 0.692546 0.309313
O O8 0.000000 0.808402 0.249822
O O9 0.750000 0.750000 0.500000
O O10 0.629714 0.743836 0.500000
O O11 0.680849 0.871314 0.601770
O O12 0.850482 0.000000 0.115252
O O13 0.870018 0.146208 0.000000
O O14 0.000000 0.771721 0.500000
O O15 0.620128 0.000000 0.701867
#
# Coordination Sequence:
#
# PCOD9491105 Si02
#       6
#    16  16   8  16   8  16
#     4   8  16  32  53  78 107 140 180 222 273 342
#     4  10  21  36  56  79 107 147 194 237 277 328
#     4  10  21  33  56  86 117 144 189 242 290 329
#     4   9  19  36  57  82 112 145 184 233 289 348
#     4   8  18  37  53  73 110 151 185 221 271 341
#     4  10  21  36  56  81 115 152 187 229 283 342
#
# _framework density 19.229616
#
# number of rings (size 3 to 8) (size 9 to 14) (size 15 to 20)
#    0.000    2.800    0.000    1.500    5.600    2.000 
#    0.000    3.500    0.000    7.800    0.000    4.200 
#    0.000    0.000    0.000    0.000    0.000    0.000 
#
# Total GULP energy -222740.216953 kJ/mol
# GULP energy per Si atom -5568.505424 kJ/mol
# Density = 1.918585 g / cm^3
# Si number density = 19.229616 Si / 1000 Ang^3
#
#
#
# Elastic Constant Matrix: (Units=GPa)
#
#
# Indices 1 2 3 4 5 6 
#
# 1 79.1393 11.7847 45.5373 0.0000 0.0000 0.0000
# 2 11.7847 53.3550 11.4255 0.0000 0.0000 0.0000
# 3 45.5373 11.4255 122.0152 0.0000 0.0000 0.0000
# 4 0.0000 0.0000 0.0000 27.9029 0.0000 0.0000
# 5 0.0000 0.0000 0.0000 0.0000 31.6341 0.0000
# 6 0.0000 0.0000 0.0000 0.0000 0.0000 16.8784
#
#
#
# Elastic Compliance Matrix: (Units=1/GPa)
#
#
# Indices 1 2 3 4 5 6 
#
# 1 0.016377 -0.002356 -0.005891 0.000000 0.000000 0.000000
# 2 -0.002356 0.019465 -0.000944 0.000000 0.000000 0.000000
# 3 -0.005891 -0.000944 0.010483 0.000000 0.000000 0.000000
# 4 0.000000 0.000000 0.000000 0.035839 0.000000 0.000000
# 5 0.000000 0.000000 0.000000 0.000000 0.031611 0.000000
# 6 0.000000 0.000000 0.000000 0.000000 0.000000 0.059247
#
#
# Mechanical properties :
#
#
# Convention : Reuss Voigt Hill
#
# Bulk Modulus (GPa) = 35.78693 43.55606 39.67149
# Shear Modulus (GPa) = 24.91071 27.66721 26.28896
#
# Velocity S-wave (km/s) = 3.60312 3.79724 3.70145
# Velocity P-wave (km/s) = 5.99672 6.47496 6.24042
#
# Compressibility (1/GPa) = 0.02794316
#
# Stress axis : x y z
#
# Youngs Moduli (GPa) = 61.06258 51.37503 95.39467
#
# Poissons Ratio (x) = 0.12102 0.56200
# Poissons Ratio (y) = 0.14384 0.09001
# Poissons Ratio (z) = 0.35974 0.04847
#
# Static dielectric constant tensor:
#      x y z
#    x 1.627000 0.000000 0.000000 
#    y 0.000000 1.737790 0.000000 
#    z 0.000000 0.000000 1.689580 
# 
# From -- ./inp_files/24657.got.cif
#   From: 2010.05.17/outbox.cif.g08.bks.cpg/sg65_13_cif.got.tgz:24657.got - 2010.06.03 17:01:31.
