data_PCOD9491560
_publ_section_title
;
Structure prediction by ZEFSAII (Michael W. Deem and Ramdas Pophale) SiO2 
 PCOD9491560
Probable space group: C M M M
;
_chemical_formula_sum "Si O2"
_cell_formula_units_Z 96
_cell_length_a 8.451789
_cell_length_b 19.263299
_cell_length_c 31.768055
_cell_angle_alpha 90.000000
_cell_angle_beta 90.000000
_cell_angle_gamma 90.000000
_cell_volume 5172.136023
_symmetry_space_group_name_H-M "C M M M"
_symmetry_group_IT_number 65
_symmetry_cell_setting 'orthorhombic'
loop_
_space_group_symop_operation_xyz
x,y,z
-x,-y,z
x,-y,-z
-x,y,-z
-x,-y,-z
x,y,-z
-x,y,z
x,-y,z
1/2+x,1/2+y,z
1/2-x,1/2-y,z
1/2+x,1/2-y,-z
1/2-x,1/2+y,-z
1/2-x,1/2-y,-z
1/2+x,1/2+y,-z
1/2-x,1/2+y,z
1/2+x,1/2-y,z
loop_
_atom_site_type_symbol
_atom_site_label
_atom_site_fract_x
_atom_site_fract_y
_atom_site_fract_z
Si Si1 0.807194 0.580258 0.217555
Si Si2 0.810019 0.671323 0.703540
Si Si3 0.690599 0.919856 0.123076
Si Si4 0.191065 0.826934 0.452023
Si Si5 0.189054 0.171663 0.046606
Si Si6 0.308330 0.579923 0.625624
O O1 0.758700 0.500000 0.225297
O O2 0.754121 0.632096 0.253994
O O3 0.757086 0.600965 0.170299
O O4 0.000000 0.580119 0.217831
O O5 0.750000 0.750000 0.701337
O O6 0.752353 0.626189 0.664067
O O7 0.000000 0.672252 0.703602
O O8 0.500000 0.917161 0.122772
O O9 0.752378 0.873913 0.085209
O O10 0.738168 0.000000 0.117206
O O11 0.244040 0.841315 0.500000
O O12 0.250000 0.750000 0.440311
O O13 0.242633 0.883444 0.417911
O O14 0.000000 0.825836 0.452060
O O15 0.250000 0.250000 0.051288
O O16 0.000000 0.172364 0.046920
O O17 0.241974 0.146532 0.000000
O O18 0.500000 0.580171 0.626458
O O19 0.255315 0.500000 0.628671
#
# Coordination Sequence:
#
# PCOD9491560 Si02
#       6
#    16  16  16  16  16  16
#     4   8  16  33  55  77 102 134 171 210 254 305
#     4  11  22  36  55  78 106 139 175 214 258 309
#     4   9  18  34  56  80 106 136 170 209 254 306
#     4   9  18  33  53  76 103 137 174 212 257 307
#     4  10  21  36  53  74 103 138 175 216 260 306
#     4  10  21  36  54  78 107 137 173 218 263 308
#
# _framework density 18.560995999999999
#
# number of rings (size 3 to 8) (size 9 to 14) (size 15 to 20)
#    0.000    2.500    0.000    3.000    0.000    5.667 
#    0.000    6.667    0.000    2.000    0.000    3.500 
#    0.000    0.000    0.000    0.000    0.000    0.000 
#
# Total GULP energy -267813.283983 kJ/mol
# GULP energy per Si atom -5579.443416 kJ/mol
# Density = 1.851875 g / cm^3
# Si number density = 18.560996 Si / 1000 Ang^3
#
#
#
# Elastic Constant Matrix: (Units=GPa)
#
#
# Indices 1 2 3 4 5 6 
#
# 1 10.9309 24.7454 27.5086 0.0000 0.0000 0.0000
# 2 24.7454 152.3490 129.5303 0.0000 0.0000 0.0000
# 3 27.5086 129.5303 179.3501 0.0000 0.0000 0.0000
# 4 0.0000 0.0000 0.0000 68.3031 0.0000 0.0000
# 5 0.0000 0.0000 0.0000 0.0000 21.6807 0.0000
# 6 0.0000 0.0000 0.0000 0.0000 0.0000 20.2443
#
#
#
# Elastic Compliance Matrix: (Units=1/GPa)
#
#
# Indices 1 2 3 4 5 6 
#
# 1 0.158555 -0.013154 -0.014819 0.000000 0.000000 0.000000
# 2 -0.013154 0.018098 -0.011053 0.000000 0.000000 0.000000
# 3 -0.014819 -0.011053 0.015832 0.000000 0.000000 0.000000
# 4 0.000000 0.000000 0.000000 0.014641 0.000000 0.000000
# 5 0.000000 0.000000 0.000000 0.000000 0.046124 0.000000
# 6 0.000000 0.000000 0.000000 0.000000 0.000000 0.049397
#
#
# Mechanical properties :
#
#
# Convention : Reuss Voigt Hill
#
# Bulk Modulus (GPa) = 8.73882 78.46652 43.60267
# Shear Modulus (GPa) = 11.93766 32.76867 22.35317
#
# Velocity S-wave (km/s) = 2.53881 4.20629 3.47408
# Velocity P-wave (km/s) = 3.64862 8.12141 6.29562
#
# Compressibility (1/GPa) = 0.11443194
#
# Stress axis : x y z
#
# Youngs Moduli (GPa) = 6.30697 55.25406 63.16508
#
# Poissons Ratio (x) = 0.72682 0.93603
# Poissons Ratio (y) = 0.08296 0.69818
# Poissons Ratio (z) = 0.09346 0.61074
#
# Static dielectric constant tensor:
#      x y z
#    x 1.642130 0.000000 0.000000 
#    y 0.000000 1.607930 0.000000 
#    z 0.000000 0.000000 1.649290 
# 
# From -- ./inp_files/73097.got.cif
#   From: 2010.05.17/outbox.cif.g08.bks.cpg/sg65_37_cif.got.tgz:73097.got - 2010.06.03 17:01:31.
