data_PCOD9491873
_publ_section_title
;
Structure prediction by ZEFSAII (Michael W. Deem and Ramdas Pophale) SiO2 
 PCOD9491873
Probable space group: C M M M
;
_chemical_formula_sum "Si O2"
_cell_formula_units_Z 72
_cell_length_a 18.082313
_cell_length_b 22.909202
_cell_length_c 8.224105
_cell_angle_alpha 90.000000
_cell_angle_beta 90.000000
_cell_angle_gamma 90.000000
_cell_volume 3406.846690
_symmetry_space_group_name_H-M "C M M M"
_symmetry_group_IT_number 65
_symmetry_cell_setting 'orthorhombic'
loop_
_space_group_symop_operation_xyz
x,y,z
-x,-y,z
x,-y,-z
-x,y,-z
-x,-y,-z
x,y,-z
-x,y,z
x,-y,z
1/2+x,1/2+y,z
1/2-x,1/2-y,z
1/2+x,1/2-y,-z
1/2-x,1/2+y,-z
1/2-x,1/2-y,-z
1/2+x,1/2+y,-z
1/2-x,1/2+y,z
1/2+x,1/2-y,z
loop_
_atom_site_type_symbol
_atom_site_label
_atom_site_fract_x
_atom_site_fract_y
_atom_site_fract_z
Si Si1 0.580485 0.259410 0.193044
Si Si2 0.644827 0.624998 0.695283
Si Si3 0.584258 0.934755 0.698343
Si Si4 0.414043 0.500000 0.194865
Si Si5 0.806751 0.665294 0.304202
O O1 0.500000 0.237461 0.255569
O O2 0.588022 0.327310 0.237196
O O3 0.651595 0.224977 0.260303
O O4 0.581210 0.252549 0.000000
O O5 0.643614 0.627138 0.500000
O O6 0.625862 0.559264 0.747141
O O7 0.724997 0.648629 0.753734
O O8 0.584574 0.933475 0.500000
O O9 0.500000 0.924831 0.750470
O O10 0.638728 0.885357 0.756835
O O11 0.606823 0.000000 0.746911
O O12 0.500000 0.500000 0.251469
O O13 0.414274 0.500000 0.000000
O O14 0.803465 0.663808 0.500000
#
# Coordination Sequence:
#
# PCOD9491873 Si02
#       5
#    16  16  16   8  16
#     4  11  24  41  61  86 120 163 207 251 304 367
#     4  11  24  40  63  94 124 156 201 256 310 362
#     4   8  14  26  48  78 111 149 191 235 286 343
#     4  11  25  45  67  91 122 163 208 249 299 364
#     4  10  21  36  59  89 122 156 198 250 304 360
#
# _framework density 21.133911999999999
#
# number of rings (size 3 to 8) (size 9 to 14) (size 15 to 20)
#    0.000    1.889    0.000    4.333    1.556   10.667 
#    0.000    0.000    0.000    0.000    0.000    3.111 
#    0.000    0.000    0.000    0.000    0.000    0.000 
#
# Total GULP energy -201060.775328 kJ/mol
# GULP energy per Si atom -5585.021537 kJ/mol
# Density = 2.108581 g / cm^3
# Si number density = 21.133912 Si / 1000 Ang^3
#
#
#
# Elastic Constant Matrix: (Units=GPa)
#
#
# Indices 1 2 3 4 5 6 
#
# 1 115.3027 68.8909 13.6993 0.0000 0.0000 0.0000
# 2 68.8909 120.6172 -7.1290 0.0000 0.0000 0.0000
# 3 13.6993 -7.1290 17.6254 0.0000 0.0000 0.0000
# 4 0.0000 0.0000 0.0000 -127.9462 0.0000 0.0000
# 5 0.0000 0.0000 0.0000 0.0000 18.1905 0.0000
# 6 0.0000 0.0000 0.0000 0.0000 0.0000 -4.0701
#
#
#
# Elastic Compliance Matrix: (Units=1/GPa)
#
#
# Indices 1 2 3 4 5 6 
#
# 1 0.017361 -0.010976 -0.017934 0.000000 0.000000 0.000000
# 2 -0.010976 0.015433 0.014773 0.000000 0.000000 0.000000
# 3 -0.017934 0.014773 0.076650 0.000000 0.000000 0.000000
# 4 0.000000 0.000000 0.000000 -0.007816 0.000000 0.000000
# 5 0.000000 0.000000 0.000000 0.000000 0.054974 0.000000
# 6 0.000000 0.000000 0.000000 0.000000 0.000000 -0.245693
#
#
# Mechanical properties :
#
#
# Convention : Reuss Voigt Hill
#
# Bulk Modulus (GPa) = 12.31954 44.94087 28.63021
# Shear Modulus (GPa) = -148.10182 -10.89289 -79.49735
#
# Velocity S-wave (km/s) = -8.38033 -2.27275 -6.13984
# Velocity P-wave (km/s) = 9.37006 3.79786 6.05699
#
# Compressibility (1/GPa) = 0.08117186
#
# Stress axis : x y z
#
# Youngs Moduli (GPa) = 57.59882 64.79694 13.04624
#
# Poissons Ratio (x) = 0.71121 0.23397
# Poissons Ratio (y) = 0.63220 -0.19273
# Poissons Ratio (z) = 1.03295 -0.95726
#
# Static dielectric constant tensor:
#      x y z
#    x 1.791780 0.000000 0.000000 
#    y 0.000000 1.749680 0.000000 
#    z 0.000000 0.000000 1.735640 
# 
# From -- ./inp_files/9268.got.cif
#   From: 2010.05.17/outbox.cif.g08.bks.cpg/sg65_5_cif.got.tgz:9268.got - 2010.06.03 17:01:31.
