data_PCOD9491819
_publ_section_title
;
Structure prediction by ZEFSAII (Michael W. Deem and Ramdas Pophale) SiO2 
 PCOD9491819
Probable space group: C M M M
;
_chemical_formula_sum "Si O2"
_cell_formula_units_Z 72
_cell_length_a 13.809811
_cell_length_b 14.680429
_cell_length_c 19.443133
_cell_angle_alpha 90.000000
_cell_angle_beta 90.000000
_cell_angle_gamma 90.000000
_cell_volume 3941.783151
_symmetry_space_group_name_H-M "C M M M"
_symmetry_group_IT_number 65
_symmetry_cell_setting 'orthorhombic'
loop_
_space_group_symop_operation_xyz
x,y,z
-x,-y,z
x,-y,-z
-x,y,-z
-x,-y,-z
x,y,-z
-x,y,z
x,-y,z
1/2+x,1/2+y,z
1/2-x,1/2-y,z
1/2+x,1/2-y,-z
1/2-x,1/2+y,-z
1/2-x,1/2-y,-z
1/2+x,1/2+y,-z
1/2-x,1/2+y,z
1/2+x,1/2-y,z
loop_
_atom_site_type_symbol
_atom_site_label
_atom_site_fract_x
_atom_site_fract_y
_atom_site_fract_z
Si Si1 0.387277 0.000000 0.582204
Si Si2 0.766597 0.357811 0.921618
Si Si3 0.113611 0.000000 0.130057
Si Si4 0.266163 0.148741 0.662130
Si Si5 0.113787 0.000000 0.295839
Si Si6 0.610786 0.107205 0.210231
O O1 0.334344 0.912096 0.613700
O O2 0.500000 0.000000 0.602416
O O3 0.380412 0.000000 0.500000
O O4 0.750000 0.250000 0.918132
O O5 0.670497 0.413030 0.899866
O O6 0.847877 0.382775 0.866174
O O7 0.792116 0.382047 0.000000
O O8 0.124270 0.000000 0.212850
O O9 0.000000 0.000000 0.113153
O O10 0.250000 0.250000 0.634972
O O11 0.321192 0.157288 0.735366
O O12 0.169884 0.088758 0.675526
O O13 0.000000 0.000000 0.312303
O O14 0.500000 0.137760 0.214715
O O15 0.615488 0.000000 0.228720
#
# Coordination Sequence:
#
# PCOD9491819 Si02
#       6
#     8  16   8  16   8  16
#     4  10  22  42  66  94 128 162 196 236 283 343
#     4  11  23  39  56  79 113 152 197 249 304 359
#     4  11  22  39  59  79 110 151 197 244 299 358
#     4  11  21  38  63  90 122 156 197 241 292 340
#     4  10  21  36  56  86 118 149 192 244 294 347
#     4  11  21  36  59  85 114 152 196 244 301 356
#
# _framework density 18.265844999999999
#
# number of rings (size 3 to 8) (size 9 to 14) (size 15 to 20)
#    0.000    1.222    5.556    1.667    0.000    4.444 
#    0.000    3.333    0.000    5.333    0.000    0.000 
#    0.000    0.000    0.000    0.000    0.000    0.000 
#
# Total GULP energy -201130.691467 kJ/mol
# GULP energy per Si atom -5586.963652 kJ/mol
# Density = 1.822427 g / cm^3
# Si number density = 18.265845 Si / 1000 Ang^3
#
#
#
# Elastic Constant Matrix: (Units=GPa)
#
#
# Indices 1 2 3 4 5 6 
#
# 1 143.4387 59.7094 42.6657 0.0000 0.0000 0.0000
# 2 59.7094 138.0988 32.9890 0.0000 0.0000 0.0000
# 3 42.6657 32.9890 74.3871 0.0000 0.0000 0.0000
# 4 0.0000 0.0000 0.0000 17.4715 0.0000 0.0000
# 5 0.0000 0.0000 0.0000 0.0000 19.2691 0.0000
# 6 0.0000 0.0000 0.0000 0.0000 0.0000 4.8525
#
#
#
# Elastic Compliance Matrix: (Units=1/GPa)
#
#
# Indices 1 2 3 4 5 6 
#
# 1 0.009479 -0.003132 -0.004048 0.000000 0.000000 0.000000
# 2 -0.003132 0.009134 -0.002254 0.000000 0.000000 0.000000
# 3 -0.004048 -0.002254 0.016765 0.000000 0.000000 0.000000
# 4 0.000000 0.000000 0.000000 0.057236 0.000000 0.000000
# 5 0.000000 0.000000 0.000000 0.000000 0.051897 0.000000
# 6 0.000000 0.000000 0.000000 0.000000 0.000000 0.206077
#
#
# Mechanical properties :
#
#
# Convention : Reuss Voigt Hill
#
# Bulk Modulus (GPa) = 60.57114 69.62808 65.09961
# Shear Modulus (GPa) = 13.33477 23.02266 18.17871
#
# Velocity S-wave (km/s) = 2.70485 3.55409 3.15815
# Velocity P-wave (km/s) = 6.55651 7.41917 7.00114
#
# Compressibility (1/GPa) = 0.01650951
#
# Stress axis : x y z
#
# Youngs Moduli (GPa) = 105.49275 109.48467 59.64832
#
# Poissons Ratio (x) = 0.34285 0.24147
# Poissons Ratio (y) = 0.33035 0.13448
# Poissons Ratio (z) = 0.42706 0.24683
#
# Static dielectric constant tensor:
#      x y z
#    x 1.615840 0.000000 0.000000 
#    y 0.000000 1.682420 0.000000 
#    z 0.000000 0.000000 1.620590 
# 
# From -- ./inp_files/52765.got.cif
#   From: 2010.05.17/outbox.cif.g08.bks.cpg/sg65_27_cif.got.tgz:52765.got - 2010.06.03 17:01:31.
