data_PCOD9491529
_publ_section_title
;
Structure prediction by ZEFSAII (Michael W. Deem and Ramdas Pophale) SiO2 
 PCOD9491529
Probable space group: C M M M
;
_chemical_formula_sum "Si O2"
_cell_formula_units_Z 96
_cell_length_a 20.294513
_cell_length_b 28.168305
_cell_length_c 7.655577
_cell_angle_alpha 90.000000
_cell_angle_beta 90.000000
_cell_angle_gamma 90.000000
_cell_volume 4376.402704
_symmetry_space_group_name_H-M "C M M M"
_symmetry_group_IT_number 65
_symmetry_cell_setting 'orthorhombic'
loop_
_space_group_symop_operation_xyz
x,y,z
-x,-y,z
x,-y,-z
-x,y,-z
-x,-y,-z
x,y,-z
-x,y,z
x,-y,z
1/2+x,1/2+y,z
1/2-x,1/2-y,z
1/2+x,1/2-y,-z
1/2-x,1/2+y,-z
1/2-x,1/2-y,-z
1/2+x,1/2+y,-z
1/2-x,1/2+y,z
1/2+x,1/2-y,z
loop_
_atom_site_type_symbol
_atom_site_label
_atom_site_fract_x
_atom_site_fract_y
_atom_site_fract_z
Si Si1 0.073590 0.746359 0.206608
Si Si2 0.289406 0.398952 0.204828
Si Si3 0.203461 0.206702 0.785764
Si Si4 0.073567 0.944876 0.710901
Si Si5 0.338346 0.948093 0.703791
Si Si6 0.423712 0.139343 0.288942
O O1 0.129714 0.780886 0.275245
O O2 0.096128 0.691769 0.227539
O O3 0.000000 0.750772 0.282291
O O4 0.068909 0.755324 0.000000
O O5 0.276965 0.345745 0.273503
O O6 0.365181 0.413793 0.228020
O O7 0.238830 0.435792 0.288049
O O8 0.274516 0.399226 0.000000
O O9 0.250000 0.250000 0.731305
O O10 0.203874 0.206050 0.000000
O O11 0.073970 0.944251 0.500000
O O12 0.000000 0.929618 0.768241
O O13 0.082589 0.000000 0.765290
O O14 0.357317 0.950430 0.500000
O O15 0.378445 0.903379 0.777929
O O16 0.351229 0.000000 0.781740
O O17 0.420991 0.140460 0.500000
O O18 0.500000 0.132092 0.237325
#
# Coordination Sequence:
#
# PCOD9491529 Si02
#       6
#    16  16  16  16  16  16
#     4   9  17  31  52  74  97 129 165 199 244 304
#     4  11  22  34  53  80 105 131 169 217 259 294
#     4   9  18  32  49  70  98 132 168 205 247 298
#     4   9  19  37  58  77 102 139 175 204 245 306
#     4  10  21  36  53  73 101 138 173 205 250 309
#     4   9  18  33  53  77 103 130 166 213 256 294
#
# _framework density 21.935825000000001
#
# number of rings (size 3 to 8) (size 9 to 14) (size 15 to 20)
#    0.000    2.500    0.000    2.500    0.000    6.000 
#    0.000    5.833    0.000    6.500    0.000    3.500 
#    0.000    0.000    0.000    0.000    0.000    0.000 
#
# Total GULP energy -268043.307539 kJ/mol
# GULP energy per Si atom -5584.235574 kJ/mol
# Density = 2.188590 g / cm^3
# Si number density = 21.935825 Si / 1000 Ang^3
#
#
#
# Elastic Constant Matrix: (Units=GPa)
#
#
# Indices 1 2 3 4 5 6 
#
# 1 35.9770 -1.9154 -5.4704 0.0000 0.0000 0.0000
# 2 -1.9154 44.1846 -1.8025 0.0000 0.0000 0.0000
# 3 -5.4704 -1.8025 42.8595 0.0000 0.0000 0.0000
# 4 0.0000 0.0000 0.0000 15.4896 0.0000 0.0000
# 5 0.0000 0.0000 0.0000 0.0000 7.4680 0.0000
# 6 0.0000 0.0000 0.0000 0.0000 0.0000 37.9392
#
#
#
# Elastic Compliance Matrix: (Units=1/GPa)
#
#
# Indices 1 2 3 4 5 6 
#
# 1 0.028430 0.001383 0.003687 0.000000 0.000000 0.000000
# 2 0.001383 0.022738 0.001133 0.000000 0.000000 0.000000
# 3 0.003687 0.001133 0.023850 0.000000 0.000000 0.000000
# 4 0.000000 0.000000 0.000000 0.064559 0.000000 0.000000
# 5 0.000000 0.000000 0.000000 0.000000 0.133905 0.000000
# 6 0.000000 0.000000 0.000000 0.000000 0.000000 0.026358
#
#
# Mechanical properties :
#
#
# Convention : Reuss Voigt Hill
#
# Bulk Modulus (GPa) = 11.43859 11.62716 11.53287
# Shear Modulus (GPa) = 15.79396 20.99332 18.39364
#
# Velocity S-wave (km/s) = 2.68621 3.09695 2.89886
# Velocity P-wave (km/s) = 3.85316 4.25443 4.05876
#
# Compressibility (1/GPa) = 0.08742339
#
# Stress axis : x y z
#
# Youngs Moduli (GPa) = 35.17442 43.97829 41.92822
#
# Poissons Ratio (x) = -0.06081 -0.15458
# Poissons Ratio (y) = -0.04864 -0.04750
# Poissons Ratio (z) = -0.12968 -0.04982
#
# Static dielectric constant tensor:
#      x y z
#    x 1.806440 0.000000 0.000000 
#    y 0.000000 1.777700 0.000000 
#    z 0.000000 0.000000 1.828490 
# 
# From -- ./inp_files/12220.got.cif
#   From: 2010.05.17/outbox.cif.g08.bks.cpg/sg65_7_cif.got.tgz:12220.got - 2010.06.03 17:01:31.
