data_PCOD9491516
_publ_section_title
;
Structure prediction by ZEFSAII (Michael W. Deem and Ramdas Pophale) SiO2 
 PCOD9491516
Probable space group: C M M M
;
_chemical_formula_sum "Si O2"
_cell_formula_units_Z 88
_cell_length_a 14.353218
_cell_length_b 28.596979
_cell_length_c 11.926953
_cell_angle_alpha 90.000000
_cell_angle_beta 90.000000
_cell_angle_gamma 90.000000
_cell_volume 4895.521310
_symmetry_space_group_name_H-M "C M M M"
_symmetry_group_IT_number 65
_symmetry_cell_setting 'orthorhombic'
loop_
_space_group_symop_operation_xyz
x,y,z
-x,-y,z
x,-y,-z
-x,y,-z
-x,-y,-z
x,y,-z
-x,y,z
x,-y,z
1/2+x,1/2+y,z
1/2-x,1/2-y,z
1/2+x,1/2-y,-z
1/2-x,1/2+y,-z
1/2-x,1/2-y,-z
1/2+x,1/2+y,-z
1/2-x,1/2+y,z
1/2+x,1/2-y,z
loop_
_atom_site_type_symbol
_atom_site_label
_atom_site_fract_x
_atom_site_fract_y
_atom_site_fract_z
Si Si1 0.211751 0.635555 0.770312
Si Si2 0.605221 0.305177 0.775330
Si Si3 0.500000 0.443321 0.373005
Si Si4 0.706803 0.445232 0.635371
Si Si5 0.362042 0.248898 0.000000
Si Si6 0.606869 0.138800 0.000000
Si Si7 0.387819 0.216723 0.629173
O O1 0.314950 0.656618 0.788921
O O2 0.222569 0.589765 0.694184
O O3 0.156502 0.676527 0.705520
O O4 0.161523 0.624974 0.887481
O O5 0.500000 0.322654 0.753042
O O6 0.604510 0.275067 0.889221
O O7 0.633250 0.268097 0.678737
O O8 0.500000 0.500000 0.380678
O O9 0.500000 0.424277 0.500000
O O10 0.398661 0.432165 0.325028
O O11 0.708979 0.440314 0.500000
O O12 0.722934 0.500000 0.660290
O O13 0.250000 0.250000 0.000000
O O14 0.392779 0.195414 0.000000
O O15 0.500000 0.122536 0.000000
O O16 0.358132 0.212524 0.500000
O O17 0.500000 0.212197 0.634448
#
# Coordination Sequence:
#
# PCOD9491516 Si02
#       7
#    16  16   8  16   8   8  16
#     4  12  22  35  58  83 110 145 190 238 281 331
#     4  11  22  34  52  80 114 148 182 225 276 330
#     4   7  12  28  54  81 109 143 179 214 259 323
#     4   9  19  36  59  86 115 148 186 228 277 335
#     4  12  18  37  57  76 106 147 191 231 269 314
#     4  12  24  39  59  82 106 146 199 242 283 336
#     4  10  21  36  52  75 111 151 187 227 280 338
#
# _framework density 17.975615000000001
#
# number of rings (size 3 to 8) (size 9 to 14) (size 15 to 20)
#    0.000    1.545    3.636    3.545    1.273    2.182 
#    0.000    0.455    0.000    2.727    0.000    8.273 
#    0.000    0.000    0.000    0.000    0.000    0.000 
#
# Total GULP energy -245608.447256 kJ/mol
# GULP energy per Si atom -5582.010165 kJ/mol
# Density = 1.793470 g / cm^3
# Si number density = 17.975615 Si / 1000 Ang^3
#
#
#
# Elastic Constant Matrix: (Units=GPa)
#
#
# Indices 1 2 3 4 5 6 
#
# 1 100.6060 35.3669 35.7861 0.0000 0.0000 0.0000
# 2 35.3669 57.6886 26.0977 0.0000 0.0000 0.0000
# 3 35.7861 26.0977 90.5645 0.0000 0.0000 0.0000
# 4 0.0000 0.0000 0.0000 24.9217 0.0000 0.0000
# 5 0.0000 0.0000 0.0000 0.0000 28.8516 0.0000
# 6 0.0000 0.0000 0.0000 0.0000 0.0000 22.1603
#
#
#
# Elastic Compliance Matrix: (Units=1/GPa)
#
#
# Indices 1 2 3 4 5 6 
#
# 1 0.013522 -0.006753 -0.003397 0.000000 0.000000 0.000000
# 2 -0.006753 0.023306 -0.004047 0.000000 0.000000 0.000000
# 3 -0.003397 -0.004047 0.013551 0.000000 0.000000 0.000000
# 4 0.000000 0.000000 0.000000 0.040126 0.000000 0.000000
# 5 0.000000 0.000000 0.000000 0.000000 0.034660 0.000000
# 6 0.000000 0.000000 0.000000 0.000000 0.000000 0.045126
#
#
# Mechanical properties :
#
#
# Convention : Reuss Voigt Hill
#
# Bulk Modulus (GPa) = 45.49005 49.26227 47.37616
# Shear Modulus (GPa) = 24.27032 25.29394 24.78213
#
# Velocity S-wave (km/s) = 3.67847 3.75524 3.71705
# Velocity P-wave (km/s) = 6.58809 6.80198 6.69589
#
# Compressibility (1/GPa) = 0.02198283
#
# Stress axis : x y z
#
# Youngs Moduli (GPa) = 73.95273 42.90817 73.79756
#
# Poissons Ratio (x) = 0.28976 0.25070
# Poissons Ratio (y) = 0.49941 0.29869
# Poissons Ratio (z) = 0.25123 0.17367
#
# Static dielectric constant tensor:
#      x y z
#    x 1.656300 0.000000 0.000000 
#    y 0.000000 1.583180 0.000000 
#    z 0.000000 0.000000 1.612940 
# 
# From -- ./inp_files/25204.got.cif
#   From: 2010.05.17/outbox.cif.g08.bks.cpg/sg65_13_cif.got.tgz:25204.got - 2010.06.03 17:01:31.
