data_PCOD9491062
_publ_section_title
;
Structure prediction by ZEFSAII (Michael W. Deem and Ramdas Pophale) SiO2 
 PCOD9491062
Probable space group: C M M M
;
_chemical_formula_sum "Si O2"
_cell_formula_units_Z 56
_cell_length_a 21.240930
_cell_length_b 10.388723
_cell_length_c 13.587575
_cell_angle_alpha 90.000000
_cell_angle_beta 90.000000
_cell_angle_gamma 90.000000
_cell_volume 2998.317700
_symmetry_space_group_name_H-M "C M M M"
_symmetry_group_IT_number 65
_symmetry_cell_setting 'orthorhombic'
loop_
_space_group_symop_operation_xyz
x,y,z
-x,-y,z
x,-y,-z
-x,y,-z
-x,-y,-z
x,y,-z
-x,y,z
x,-y,z
1/2+x,1/2+y,z
1/2-x,1/2-y,z
1/2+x,1/2-y,-z
1/2-x,1/2+y,-z
1/2-x,1/2-y,-z
1/2+x,1/2+y,-z
1/2-x,1/2+y,z
1/2+x,1/2-y,z
loop_
_atom_site_type_symbol
_atom_site_label
_atom_site_fract_x
_atom_site_fract_y
_atom_site_fract_z
Si Si1 0.905130 0.000000 0.386795
Si Si2 0.607327 0.750253 0.257959
Si Si3 0.750000 0.250000 0.265928
Si Si4 0.000000 0.655134 0.883643
Si Si5 0.754824 0.000000 0.608269
Si Si6 0.575397 0.000000 0.383306
O O1 0.917023 0.872450 0.321502
O O2 0.930220 0.000000 0.500000
O O3 0.829979 0.000000 0.398957
O O4 0.679836 0.729680 0.220474
O O5 0.560841 0.783671 0.168857
O O6 0.602126 0.872919 0.330823
O O7 0.738819 0.126581 0.333073
O O8 0.000000 0.500000 0.867803
O O9 0.000000 0.677928 0.000000
O O10 0.727161 0.000000 0.500000
O O11 0.500000 0.000000 0.368460
O O12 0.586295 0.000000 0.500000
#
# Coordination Sequence:
#
# PCOD9491062 Si02
#       6
#     8  16   8   8   8   8
#     4   9  20  34  54  85 128 165 190 226 284 351
#     4  11  20  40  57  90 121 159 200 247 293 355
#     4  10  21  30  57  82 118 154 196 242 294 340
#     4  11  24  45  70  89 109 149 203 259 316 361
#     4   9  17  30  46  77 117 161 202 228 269 336
#     4  11  21  35  59  88 122 164 211 253 289 340
#
# _framework density 18.677140000000001
#
# number of rings (size 3 to 8) (size 9 to 14) (size 15 to 20)
#    0.000    1.714    2.857    2.143    0.000    5.143 
#    0.000    2.857    0.000    0.000    0.000    0.000 
#    0.000    0.000    0.000    0.000    0.000    0.000 
#
# Total GULP energy -156055.043133 kJ/mol
# GULP energy per Si atom -5573.394398 kJ/mol
# Density = 1.863463 g / cm^3
# Si number density = 18.677140 Si / 1000 Ang^3
#
#
#
# Elastic Constant Matrix: (Units=GPa)
#
#
# Indices 1 2 3 4 5 6 
#
# 1 173.7407 26.5058 60.4785 0.0000 0.0000 0.0000
# 2 26.5058 153.3110 54.8713 0.0000 0.0000 0.0000
# 3 60.4785 54.8713 131.5200 0.0000 0.0000 0.0000
# 4 0.0000 0.0000 0.0000 20.6663 0.0000 0.0000
# 5 0.0000 0.0000 0.0000 0.0000 15.1950 0.0000
# 6 0.0000 0.0000 0.0000 0.0000 0.0000 19.7737
#
#
#
# Elastic Compliance Matrix: (Units=1/GPa)
#
#
# Indices 1 2 3 4 5 6 
#
# 1 0.006853 -0.000067 -0.003123 0.000000 0.000000 0.000000
# 2 -0.000067 0.007668 -0.003169 0.000000 0.000000 0.000000
# 3 -0.003123 -0.003169 0.010362 0.000000 0.000000 0.000000
# 4 0.000000 0.000000 0.000000 0.048388 0.000000 0.000000
# 5 0.000000 0.000000 0.000000 0.000000 0.065811 0.000000
# 6 0.000000 0.000000 0.000000 0.000000 0.000000 0.050572
#
#
# Mechanical properties :
#
#
# Convention : Reuss Voigt Hill
#
# Bulk Modulus (GPa) = 82.20085 82.47587 82.33836
# Shear Modulus (GPa) = 24.22163 32.24142 28.23153
#
# Velocity S-wave (km/s) = 3.60510 4.15932 3.89209
# Velocity P-wave (km/s) = 7.83811 8.20495 8.02363
#
# Compressibility (1/GPa) = 0.01216532
#
# Stress axis : x y z
#
# Youngs Moduli (GPa) = 145.91763 130.40708 96.50988
#
# Poissons Ratio (x) = 0.00873 0.30144
# Poissons Ratio (y) = 0.00977 0.30579
# Poissons Ratio (z) = 0.45577 0.41320
#
# Static dielectric constant tensor:
#      x y z
#    x 1.715200 0.000000 0.000000 
#    y 0.000000 1.644420 0.000000 
#    z 0.000000 0.000000 1.604960 
# 
# From -- ./inp_files/35610.got.cif
#   From: 2010.05.17/outbox.cif.g08.bks.cpg/sg65_18_cif.got.tgz:35610.got - 2010.06.03 17:01:31.
