data_PCOD9491484
_publ_section_title
;
Structure prediction by ZEFSAII (Michael W. Deem and Ramdas Pophale) SiO2 
 PCOD9491484
Probable space group: C M M M
;
_chemical_formula_sum "Si O2"
_cell_formula_units_Z 80
_cell_length_a 27.086302
_cell_length_b 17.740822
_cell_length_c 8.758206
_cell_angle_alpha 90.000000
_cell_angle_beta 90.000000
_cell_angle_gamma 90.000000
_cell_volume 4208.609302
_symmetry_space_group_name_H-M "C M M M"
_symmetry_group_IT_number 65
_symmetry_cell_setting 'orthorhombic'
loop_
_space_group_symop_operation_xyz
x,y,z
-x,-y,z
x,-y,-z
-x,y,-z
-x,-y,-z
x,y,-z
-x,y,z
x,-y,z
1/2+x,1/2+y,z
1/2-x,1/2-y,z
1/2+x,1/2-y,-z
1/2-x,1/2+y,-z
1/2-x,1/2-y,-z
1/2+x,1/2+y,-z
1/2-x,1/2+y,z
1/2+x,1/2-y,z
loop_
_atom_site_type_symbol
_atom_site_label
_atom_site_fract_x
_atom_site_fract_y
_atom_site_fract_z
Si Si1 0.159593 0.799386 0.814115
Si Si2 0.257273 0.416579 0.818522
Si Si3 0.947325 0.195806 0.819148
Si Si4 0.554201 0.878778 0.820267
Si Si5 0.656649 0.131302 0.680884
O O1 0.204738 0.852242 0.767212
O O2 0.105951 0.830466 0.761707
O O3 0.163458 0.715049 0.751278
O O4 0.159257 0.795569 0.000000
O O5 0.279017 0.500000 0.797376
O O6 0.204984 0.412025 0.735876
O O7 0.248664 0.405769 0.000000
O O8 0.946314 0.287162 0.807444
O O9 0.000000 0.170136 0.752229
O O10 0.948445 0.178559 0.000000
O O11 0.500000 0.904854 0.764416
O O12 0.604632 0.902318 0.739601
O O13 0.557387 0.896876 0.000000
O O14 0.654761 0.136185 0.500000
#
# Coordination Sequence:
#
# PCOD9491484 Si02
#       5
#    16  16  16  16  16
#     4   9  17  31  51  72  95 126 166 207 243 285
#     4  10  21  36  52  68  90 126 171 214 252 291
#     4   7  10  19  39  67  94 118 146 183 229 278
#     4   8  14  27  48  72  98 128 160 194 234 281
#     4  11  21  31  48  75 104 130 158 197 245 296
#
# _framework density 19.008655000000001
#
# number of rings (size 3 to 8) (size 9 to 14) (size 15 to 20)
#    0.000    3.000    0.000    4.800    0.000    4.000 
#    0.000    0.000    0.000    1.200    0.000    8.400 
#    0.000    0.000    0.000   11.800    0.000   14.600 
#
# Total GULP energy -222786.870134 kJ/mol
# GULP energy per Si atom -5569.671753 kJ/mol
# Density = 1.896539 g / cm^3
# Si number density = 19.008655 Si / 1000 Ang^3
#
#
#
# Elastic Constant Matrix: (Units=GPa)
#
#
# Indices 1 2 3 4 5 6 
#
# 1 151.7402 40.4892 30.6097 0.0000 0.0000 0.0000
# 2 40.4892 45.0524 16.5305 0.0000 0.0000 0.0000
# 3 30.6097 16.5305 25.2234 0.0000 0.0000 0.0000
# 4 0.0000 0.0000 0.0000 -9.5517 0.0000 0.0000
# 5 0.0000 0.0000 0.0000 0.0000 0.7244 0.0000
# 6 0.0000 0.0000 0.0000 0.0000 0.0000 -14.1367
#
#
#
# Elastic Compliance Matrix: (Units=1/GPa)
#
#
# Indices 1 2 3 4 5 6 
#
# 1 0.009766 -0.005830 -0.008030 0.000000 0.000000 0.000000
# 2 -0.005830 0.032704 -0.014358 0.000000 0.000000 0.000000
# 3 -0.008030 -0.014358 0.058801 0.000000 0.000000 0.000000
# 4 0.000000 0.000000 0.000000 -0.104693 0.000000 0.000000
# 5 0.000000 0.000000 0.000000 0.000000 1.380417 0.000000
# 6 0.000000 0.000000 0.000000 0.000000 0.000000 -0.070738
#
#
# Mechanical properties :
#
#
# Convention : Reuss Voigt Hill
#
# Bulk Modulus (GPa) = 22.30467 44.14163 33.22315
# Shear Modulus (GPa) = 3.62940 4.36631 3.99785
#
# Velocity S-wave (km/s) = 1.38329 1.51723 1.45181
# Velocity P-wave (km/s) = 3.78295 5.13241 4.50846
#
# Compressibility (1/GPa) = 0.04483367
#
# Stress axis : x y z
#
# Youngs Moduli (GPa) = 102.39800 30.57706 17.00663
#
# Poissons Ratio (x) = 0.17827 0.13657
# Poissons Ratio (y) = 0.59700 0.24418
# Poissons Ratio (z) = 0.82229 0.43902
#
# Static dielectric constant tensor:
#      x y z
#    x 1.722740 0.000000 0.000000 
#    y 0.000000 1.640680 0.000000 
#    z 0.000000 0.000000 1.633520 
# 
# From -- ./inp_files/9653.got.cif
#   From: 2010.05.17/outbox.cif.g08.bks.cpg/sg65_5_cif.got.tgz:9653.got - 2010.06.03 17:01:31.
