data_PCOD9491862
_publ_section_title
;
Structure prediction by ZEFSAII (Michael W. Deem and Ramdas Pophale) SiO2 
 PCOD9491862
Probable space group: C M M M
;
_chemical_formula_sum "Si O2"
_cell_formula_units_Z 58
_cell_length_a 16.494294
_cell_length_b 18.588711
_cell_length_c 9.669422
_cell_angle_alpha 90.000000
_cell_angle_beta 90.000000
_cell_angle_gamma 90.000000
_cell_volume 2964.718895
_symmetry_space_group_name_H-M "C M M M"
_symmetry_group_IT_number 65
_symmetry_cell_setting 'orthorhombic'
loop_
_space_group_symop_operation_xyz
x,y,z
-x,-y,z
x,-y,-z
-x,y,-z
-x,-y,-z
x,y,-z
-x,y,z
x,-y,z
1/2+x,1/2+y,z
1/2-x,1/2-y,z
1/2+x,1/2-y,-z
1/2-x,1/2+y,-z
1/2-x,1/2-y,-z
1/2+x,1/2+y,-z
1/2-x,1/2+y,z
1/2+x,1/2-y,z
loop_
_atom_site_type_symbol
_atom_site_label
_atom_site_fract_x
_atom_site_fract_y
_atom_site_fract_z
Si Si1 0.000000 0.579429 0.286784
Si Si2 0.325338 0.584839 0.337523
Si Si3 0.595030 0.297683 0.162480
Si Si4 0.340521 0.171286 0.657484
Si Si5 0.000000 0.500000 0.000000
O O1 0.920268 0.622484 0.328270
O O2 0.000000 0.500000 0.350671
O O3 0.000000 0.562066 0.122902
O O4 0.346499 0.593717 0.500000
O O5 0.321606 0.500000 0.308041
O O6 0.386308 0.627779 0.239727
O O7 0.237644 0.621929 0.316406
O O8 0.500000 0.279059 0.178908
O O9 0.648210 0.236803 0.237523
O O10 0.613160 0.302212 0.000000
O O11 0.335425 0.199354 0.500000
#
# Coordination Sequence:
#
# PCOD9491862 Si02
#       5
#     8  16  16  16   2
#     4  10  21  36  58  87 130 167 205 243 301 365
#     4  10  23  43  64  91 125 160 204 260 313 367
#     4  11  25  42  63  90 125 164 208 257 308 369
#     4  11  22  38  64  94 124 160 206 254 307 369
#     4   8  24  36  50  92 132 176 198 252 304 360
#
# _framework density 19.563403999999998
#
# number of rings (size 3 to 8) (size 9 to 14) (size 15 to 20)
#    0.414    1.103    1.379    2.897    1.931    9.379 
#    0.000    2.759    0.000    0.000    0.000    0.000 
#    0.000    0.000    0.000    0.000    0.000    0.000 
#
# Total GULP energy -161802.014431 kJ/mol
# GULP energy per Si atom -5579.379808 kJ/mol
# Density = 1.951888 g / cm^3
# Si number density = 19.563404 Si / 1000 Ang^3
#
#
#
# Elastic Constant Matrix: (Units=GPa)
#
#
# Indices 1 2 3 4 5 6 
#
# 1 34.8219 18.4152 30.9678 0.0000 0.0000 0.0000
# 2 18.4152 136.1339 74.0823 0.0000 0.0000 0.0000
# 3 30.9678 74.0823 131.0539 0.0000 0.0000 0.0000
# 4 0.0000 0.0000 0.0000 27.3863 0.0000 0.0000
# 5 0.0000 0.0000 0.0000 0.0000 22.2773 0.0000
# 6 0.0000 0.0000 0.0000 0.0000 0.0000 22.9818
#
#
#
# Elastic Compliance Matrix: (Units=1/GPa)
#
#
# Indices 1 2 3 4 5 6 
#
# 1 0.036370 -0.000351 -0.008396 0.000000 0.000000 0.000000
# 2 -0.000351 0.010613 -0.005916 0.000000 0.000000 0.000000
# 3 -0.008396 -0.005916 0.012959 0.000000 0.000000 0.000000
# 4 0.000000 0.000000 0.000000 0.036515 0.000000 0.000000
# 5 0.000000 0.000000 0.000000 0.000000 0.044889 0.000000
# 6 0.000000 0.000000 0.000000 0.000000 0.000000 0.043513
#
#
# Mechanical properties :
#
#
# Convention : Reuss Voigt Hill
#
# Bulk Modulus (GPa) = 32.66348 60.99336 46.82842
# Shear Modulus (GPa) = 22.28283 26.43203 24.35743
#
# Velocity S-wave (km/s) = 3.37858 3.67971 3.53236
# Velocity P-wave (km/s) = 5.65263 7.02130 6.37381
#
# Compressibility (1/GPa) = 0.03061523
#
# Stress axis : x y z
#
# Youngs Moduli (GPa) = 27.49546 94.22652 77.16842
#
# Poissons Ratio (x) = 0.03307 0.64788
# Poissons Ratio (y) = 0.00965 0.45655
# Poissons Ratio (z) = 0.23084 0.55747
#
# Static dielectric constant tensor:
#      x y z
#    x 1.673660 0.000000 0.000000 
#    y 0.000000 1.683280 0.000000 
#    z 0.000000 0.000000 1.666670 
# 
# From -- ./inp_files/8573.got.cif
#   From: 2010.05.17/outbox.cif.g08.bks.cpg/sg65_5_cif.got.tgz:8573.got - 2010.06.03 17:01:31.
