data_PCOD9491546
_publ_section_title
;
Structure prediction by ZEFSAII (Michael W. Deem and Ramdas Pophale) SiO2 
 PCOD9491546
Probable space group: C M M M
;
_chemical_formula_sum "Si O2"
_cell_formula_units_Z 104
_cell_length_a 9.037986
_cell_length_b 29.686025
_cell_length_c 23.413150
_cell_angle_alpha 90.000000
_cell_angle_beta 90.000000
_cell_angle_gamma 90.000000
_cell_volume 6281.792123
_symmetry_space_group_name_H-M "C M M M"
_symmetry_group_IT_number 65
_symmetry_cell_setting 'orthorhombic'
loop_
_space_group_symop_operation_xyz
x,y,z
-x,-y,z
x,-y,-z
-x,y,-z
-x,-y,-z
x,y,-z
-x,y,z
x,-y,z
1/2+x,1/2+y,z
1/2-x,1/2-y,z
1/2+x,1/2-y,-z
1/2-x,1/2+y,-z
1/2-x,1/2-y,-z
1/2+x,1/2+y,-z
1/2-x,1/2+y,z
1/2+x,1/2-y,z
loop_
_atom_site_type_symbol
_atom_site_label
_atom_site_fract_x
_atom_site_fract_y
_atom_site_fract_z
Si Si1 0.321465 0.395622 0.107598
Si Si2 0.670172 0.554005 0.332303
Si Si3 0.822670 0.203211 0.932900
Si Si4 0.168320 0.705748 0.430604
Si Si5 0.322635 0.946194 0.000000
Si Si6 0.679467 0.105626 0.433568
Si Si7 0.323336 0.946333 0.786802
O O1 0.500000 0.399245 0.105501
O O2 0.282093 0.342749 0.099699
O O3 0.257780 0.417374 0.165036
O O4 0.250429 0.423182 0.055179
O O5 0.500000 0.569462 0.328338
O O6 0.669686 0.500000 0.334828
O O7 0.747625 0.572461 0.388886
O O8 0.760873 0.566379 0.275456
O O9 0.750000 0.250000 0.913094
O O10 0.000000 0.207873 0.930113
O O11 0.782279 0.196988 0.000000
O O12 0.166408 0.707524 0.500000
O O13 0.250000 0.750000 0.409577
O O14 0.229846 0.656407 0.417567
O O15 0.000000 0.707333 0.410748
O O16 0.500000 0.939069 0.000000
O O17 0.296557 0.000000 0.000000
O O18 0.717825 0.096889 0.500000
O O19 0.500000 0.104433 0.430160
O O20 0.500000 0.940014 0.789400
O O21 0.294048 0.000000 0.795764
#
# Coordination Sequence:
#
# PCOD9491546 Si02
#       7
#    16  16  16  16   8  16  16
#     4  11  21  35  54  78 107 137 171 212 260 307
#     4  10  21  36  53  74 100 132 172 215 258 304
#     4   9  18  33  51  75 105 137 174 212 253 304
#     4   8  14  25  42  66  96 128 161 196 237 290
#     4  11  23  35  48  73 108 141 174 211 252 301
#     4   9  18  32  50  74 104 136 169 207 255 309
#     4  10  21  37  56  77 101 133 174 213 252 308
#
# _framework density 16.555785
#
# number of rings (size 3 to 8) (size 9 to 14) (size 15 to 20)
#    0.000    2.385    0.769    3.000    0.000    6.769 
#    0.000    3.077    0.000    0.923    0.000    6.462 
#    0.000    0.000    0.000    0.000    0.000    0.000 
#
# Total GULP energy -289884.909285 kJ/mol
# GULP energy per Si atom -5574.709794 kJ/mol
# Density = 1.651810 g / cm^3
# Si number density = 16.555785 Si / 1000 Ang^3
#
#
#
# Elastic Constant Matrix: (Units=GPa)
#
#
# Indices 1 2 3 4 5 6 
#
# 1 66.8964 55.1441 48.9626 0.0000 0.0000 0.0000
# 2 55.1441 92.9327 61.5346 0.0000 0.0000 0.0000
# 3 48.9626 61.5346 102.5937 0.0000 0.0000 0.0000
# 4 0.0000 0.0000 0.0000 -2.9405 0.0000 0.0000
# 5 0.0000 0.0000 0.0000 0.0000 26.3627 0.0000
# 6 0.0000 0.0000 0.0000 0.0000 0.0000 31.2974
#
#
#
# Elastic Compliance Matrix: (Units=1/GPa)
#
#
# Indices 1 2 3 4 5 6 
#
# 1 0.031576 -0.014528 -0.006356 0.000000 0.000000 0.000000
# 2 -0.014528 0.024534 -0.007781 0.000000 0.000000 0.000000
# 3 -0.006356 -0.007781 0.017448 0.000000 0.000000 0.000000
# 4 0.000000 0.000000 0.000000 -0.340078 0.000000 0.000000
# 5 0.000000 0.000000 0.000000 0.000000 0.037932 0.000000
# 6 0.000000 0.000000 0.000000 0.000000 0.000000 0.031952
#
#
# Mechanical properties :
#
#
# Convention : Reuss Voigt Hill
#
# Bulk Modulus (GPa) = 61.62698 65.96727 63.79713
# Shear Modulus (GPa) = -37.34215 17.39602 -9.97306
#
# Velocity S-wave (km/s) = -4.75440 3.24505 -2.45703
# Velocity P-wave (km/s) = 2.67686 7.34659 5.52892
#
# Compressibility (1/GPa) = 0.01622666
#
# Stress axis : x y z
#
# Youngs Moduli (GPa) = 31.66925 40.76050 57.31403
#
# Poissons Ratio (x) = 0.59218 0.36428
# Poissons Ratio (y) = 0.46010 0.44598
# Poissons Ratio (z) = 0.20129 0.31717
#
# Static dielectric constant tensor:
#      x y z
#    x 1.568240 0.000000 0.000000 
#    y 0.000000 1.564300 0.000000 
#    z 0.000000 0.000000 1.527210 
# 
# From -- ./inp_files/60861.got.cif
#   From: 2010.05.17/outbox.cif.g08.bks.cpg/sg65_31_cif.got.tgz:60861.got - 2010.06.03 17:01:31.
