data_PCOD9491304
_publ_section_title
;
Structure prediction by ZEFSAII (Michael W. Deem and Ramdas Pophale) SiO2 
 PCOD9491304
Probable space group: C M M M
;
_chemical_formula_sum "Si O2"
_cell_formula_units_Z 88
_cell_length_a 19.857102
_cell_length_b 7.681367
_cell_length_c 29.103306
_cell_angle_alpha 90.000000
_cell_angle_beta 90.000000
_cell_angle_gamma 90.000000
_cell_volume 4439.118184
_symmetry_space_group_name_H-M "C M M M"
_symmetry_group_IT_number 65
_symmetry_cell_setting 'orthorhombic'
loop_
_space_group_symop_operation_xyz
x,y,z
-x,-y,z
x,-y,-z
-x,y,-z
-x,-y,-z
x,y,-z
-x,y,z
x,-y,z
1/2+x,1/2+y,z
1/2-x,1/2-y,z
1/2+x,1/2-y,-z
1/2-x,1/2+y,-z
1/2-x,1/2-y,-z
1/2+x,1/2+y,-z
1/2-x,1/2+y,z
1/2+x,1/2-y,z
loop_
_atom_site_type_symbol
_atom_site_label
_atom_site_fract_x
_atom_site_fract_y
_atom_site_fract_z
Si Si1 0.174069 0.792937 0.552075
Si Si2 0.827585 0.709726 0.285919
Si Si3 0.081908 0.296923 0.000000
Si Si4 0.578094 0.213701 0.899839
Si Si5 0.672513 0.209107 0.182254
Si Si6 0.424014 0.207056 0.633912
O O1 0.166512 0.722616 0.500000
O O2 0.250000 0.750000 0.567942
O O3 0.117939 0.730861 0.587303
O O4 0.168923 0.000000 0.549935
O O5 0.832993 0.500000 0.284932
O O6 0.750000 0.750000 0.297635
O O7 0.841159 0.774597 0.234050
O O8 0.879208 0.777964 0.323982
O O9 0.102133 0.224159 0.049676
O O10 0.102087 0.500000 0.000000
O O11 0.000000 0.292881 0.000000
O O12 0.500000 0.262819 0.893640
O O13 0.623511 0.273972 0.857640
O O14 0.579576 0.000000 0.900981
O O15 0.750000 0.250000 0.171561
O O16 0.665157 0.000000 0.183629
O O17 0.500000 0.277658 0.631606
O O18 0.429314 0.000000 0.641261
#
# Coordination Sequence:
#
# PCOD9491304 Si02
#       6
#    16  16   8  16  16  16
#     4  10  21  37  57  79 102 130 165 201 235 277
#     4   9  18  32  49  68  91 122 158 193 230 276
#     4   7  10  18  33  56  85 111 140 183 228 266
#     4   8  13  22  39  62  85 112 148 188 227 267
#     4   9  17  29  45  65  90 119 150 187 231 277
#     4  10  21  35  51  74 103 131 159 196 242 286
#
# _framework density 19.823755999999999
#
# number of rings (size 3 to 8) (size 9 to 14) (size 15 to 20)
#    0.000    3.000    0.000    2.182    0.000    4.727 
#    0.000    5.909    0.000    0.545    0.000    5.091 
#    0.000    2.182    0.000    0.000    0.000    0.000 
#
# Total GULP energy -245316.915095 kJ/mol
# GULP energy per Si atom -5575.384434 kJ/mol
# Density = 1.977864 g / cm^3
# Si number density = 19.823756 Si / 1000 Ang^3
#
#
#
# Elastic Constant Matrix: (Units=GPa)
#
#
# Indices 1 2 3 4 5 6 
#
# 1 147.7844 2.7172 128.2698 0.0000 0.0000 0.0000
# 2 2.7172 35.6347 4.6875 0.0000 0.0000 0.0000
# 3 128.2698 4.6875 165.2316 0.0000 0.0000 0.0000
# 4 0.0000 0.0000 0.0000 -23.1544 0.0000 0.0000
# 5 0.0000 0.0000 0.0000 0.0000 43.5301 0.0000
# 6 0.0000 0.0000 0.0000 0.0000 0.0000 18.8810
#
#
#
# Elastic Compliance Matrix: (Units=1/GPa)
#
#
# Indices 1 2 3 4 5 6 
#
# 1 0.020754 0.000539 -0.016126 0.000000 0.000000 0.000000
# 2 0.000539 0.028182 -0.001218 0.000000 0.000000 0.000000
# 3 -0.016126 -0.001218 0.018606 0.000000 0.000000 0.000000
# 4 0.000000 0.000000 0.000000 -0.043188 0.000000 0.000000
# 5 0.000000 0.000000 0.000000 0.000000 0.022973 0.000000
# 6 0.000000 0.000000 0.000000 0.000000 0.000000 0.052963
#
#
# Mechanical properties :
#
#
# Convention : Reuss Voigt Hill
#
# Bulk Modulus (GPa) = 29.47225 68.88885 49.18055
# Shear Modulus (GPa) = 34.43308 22.04976 28.24142
#
# Velocity S-wave (km/s) = 4.17221 3.33872 3.77852
# Velocity P-wave (km/s) = 6.17326 7.04903 6.62563
#
# Compressibility (1/GPa) = 0.03393022
#
# Stress axis : x y z
#
# Youngs Moduli (GPa) = 48.18429 35.48406 53.74718
#
# Poissons Ratio (x) = -0.01912 0.86675
# Poissons Ratio (y) = -0.02596 0.06545
# Poissons Ratio (z) = 0.77704 0.04321
#
# Static dielectric constant tensor:
#      x y z
#    x 1.137460 0.000000 0.000000 
#    y 0.000000 1.744500 0.000000 
#    z 0.000000 0.000000 1.731090 
# 
# From -- ./inp_files/77985.got.cif
#   From: 2010.05.17/outbox.cif.g08.bks.cpg/sg65_39_cif.got.tgz:77985.got - 2010.06.03 17:01:31.
