data_PCOD9491255
_publ_section_title
;
Structure prediction by ZEFSAII (Michael W. Deem and Ramdas Pophale) SiO2 
 PCOD9491255
Probable space group: C M M M
;
_chemical_formula_sum "Si O2"
_cell_formula_units_Z 72
_cell_length_a 22.459027
_cell_length_b 22.218957
_cell_length_c 7.950026
_cell_angle_alpha 90.000000
_cell_angle_beta 90.000000
_cell_angle_gamma 90.000000
_cell_volume 3967.191408
_symmetry_space_group_name_H-M "C M M M"
_symmetry_group_IT_number 65
_symmetry_cell_setting 'orthorhombic'
loop_
_space_group_symop_operation_xyz
x,y,z
-x,-y,z
x,-y,-z
-x,y,-z
-x,-y,-z
x,y,-z
-x,y,z
x,-y,z
1/2+x,1/2+y,z
1/2-x,1/2-y,z
1/2+x,1/2-y,-z
1/2-x,1/2+y,-z
1/2-x,1/2-y,-z
1/2+x,1/2+y,-z
1/2-x,1/2+y,z
1/2+x,1/2-y,z
loop_
_atom_site_type_symbol
_atom_site_label
_atom_site_fract_x
_atom_site_fract_y
_atom_site_fract_z
Si Si1 0.073019 0.430749 0.500000
Si Si2 0.341357 0.566797 0.500000
Si Si3 0.612998 0.721609 0.810058
Si Si4 0.801075 0.199287 0.500000
Si Si5 0.929191 0.355827 0.184652
Si Si6 0.067635 0.908820 0.195333
O O1 0.090207 0.500000 0.500000
O O2 0.094728 0.396034 0.664949
O O3 0.000000 0.428561 0.500000
O O4 0.313472 0.500000 0.500000
O O5 0.297535 0.625374 0.500000
O O6 0.384683 0.571193 0.335352
O O7 0.661421 0.712977 0.667273
O O8 0.581475 0.785394 0.784293
O O9 0.570183 0.664036 0.799247
O O10 0.638157 0.721622 0.000000
O O11 0.750000 0.250000 0.500000
O O12 0.000000 0.365548 0.179132
O O13 0.904579 0.370993 0.000000
O O14 0.000000 0.928341 0.232918
O O15 0.081500 0.925769 0.000000
#
# Coordination Sequence:
#
# PCOD9491255 Si02
#       6
#     8   8  16   8  16  16
#     4   9  17  26  35  53  84 121 158 189 219 265
#     4  10  21  35  50  72 101 132 170 212 249 290
#     4   9  17  30  49  73  98 122 154 198 242 285
#     4  10  21  36  54  72  91 121 163 208 256 300
#     4   9  16  26  43  66  91 120 151 185 229 282
#     4   9  17  29  47  74 109 144 169 189 223 280
#
# _framework density 18.148859000000002
#
# number of rings (size 3 to 8) (size 9 to 14) (size 15 to 20)
#    0.000    2.778    0.000    1.667    0.000    4.889 
#    0.000    6.667    0.000    2.667    0.000    0.000 
#    0.000    0.000    0.000    0.000    0.000    0.000 
#
# Total GULP energy -200420.138130 kJ/mol
# GULP energy per Si atom -5567.226059 kJ/mol
# Density = 1.810755 g / cm^3
# Si number density = 18.148859 Si / 1000 Ang^3
#
#
#
# Elastic Constant Matrix: (Units=GPa)
#
#
# Indices 1 2 3 4 5 6 
#
# 1 32.0759 15.2893 16.7861 0.0000 0.0000 0.0000
# 2 15.2893 129.4528 71.2335 0.0000 0.0000 0.0000
# 3 16.7861 71.2335 101.4095 0.0000 0.0000 0.0000
# 4 0.0000 0.0000 0.0000 2.0728 0.0000 0.0000
# 5 0.0000 0.0000 0.0000 0.0000 885.7604 0.0000
# 6 0.0000 0.0000 0.0000 0.0000 0.0000 3.3787
#
#
#
# Elastic Compliance Matrix: (Units=1/GPa)
#
#
# Indices 1 2 3 4 5 6 
#
# 1 0.034313 -0.001511 -0.004618 0.000000 0.000000 0.000000
# 2 -0.001511 0.012658 -0.008642 0.000000 0.000000 0.000000
# 3 -0.004618 -0.008642 0.016696 0.000000 0.000000 0.000000
# 4 0.000000 0.000000 0.000000 0.482437 0.000000 0.000000
# 5 0.000000 0.000000 0.000000 0.000000 0.001129 0.000000
# 6 0.000000 0.000000 0.000000 0.000000 0.000000 0.295972
#
#
# Mechanical properties :
#
#
# Convention : Reuss Voigt Hill
#
# Bulk Modulus (GPa) = 29.30399 52.17289 40.73844
# Shear Modulus (GPa) = 5.65532 188.88435 97.26984
#
# Velocity S-wave (km/s) = 1.76716 10.21279 7.32884
# Velocity P-wave (km/s) = 4.51058 12.95676 9.70111
#
# Compressibility (1/GPa) = 0.03412505
#
# Stress axis : x y z
#
# Youngs Moduli (GPa) = 29.14330 78.99831 59.89621
#
# Poissons Ratio (x) = 0.11940 0.27660
# Poissons Ratio (y) = 0.04405 0.51760
# Poissons Ratio (z) = 0.13459 0.68267
#
# Static dielectric constant tensor:
#      x y z
#    x 1.598740 0.000000 0.000000 
#    y 0.000000 1.646350 0.000000 
#    z 0.000000 0.000000 1.645150 
# 
# From -- ./inp_files/13791.got.cif
#   From: 2010.05.17/outbox.cif.g08.bks.cpg/sg65_7_cif.got.tgz:13791.got - 2010.06.03 17:01:31.
