data_PCOD9491627
_publ_section_title
;
Structure prediction by ZEFSAII (Michael W. Deem and Ramdas Pophale) SiO2 
 PCOD9491627
Probable space group: C M M M
;
_chemical_formula_sum "Si O2"
_cell_formula_units_Z 64
_cell_length_a 41.295206
_cell_length_b 9.210664
_cell_length_c 10.007386
_cell_angle_alpha 90.000000
_cell_angle_beta 90.000000
_cell_angle_gamma 90.000000
_cell_volume 3806.371984
_symmetry_space_group_name_H-M "C M M M"
_symmetry_group_IT_number 65
_symmetry_cell_setting 'orthorhombic'
loop_
_space_group_symop_operation_xyz
x,y,z
-x,-y,z
x,-y,-z
-x,y,-z
-x,-y,-z
x,y,-z
-x,y,z
x,-y,z
1/2+x,1/2+y,z
1/2-x,1/2-y,z
1/2+x,1/2-y,-z
1/2-x,1/2+y,-z
1/2-x,1/2-y,-z
1/2+x,1/2+y,-z
1/2-x,1/2+y,z
1/2+x,1/2-y,z
loop_
_atom_site_type_symbol
_atom_site_label
_atom_site_fract_x
_atom_site_fract_y
_atom_site_fract_z
Si Si1 0.088659 0.674269 0.155113
Si Si2 0.462968 0.325602 0.343795
Si Si3 0.284166 0.327439 0.342643
Si Si4 0.336400 0.173538 0.842341
O O1 0.085765 0.500000 0.165751
O O2 0.063282 0.750400 0.251162
O O3 0.126079 0.711040 0.186737
O O4 0.082813 0.713475 0.000000
O O5 0.457895 0.289181 0.500000
O O6 0.500000 0.284285 0.308668
O O7 0.460630 0.500000 0.331772
O O8 0.291344 0.302372 0.500000
O O9 0.281338 0.500000 0.321788
O O10 0.250000 0.250000 0.313209
O O11 0.311876 0.260020 0.250409
O O12 0.332573 0.000000 0.822084
O O13 0.330716 0.202074 0.000000
#
# Coordination Sequence:
#
# PCOD9491627 Si02
#       4
#    16  16  16  16
#     4   9  19  35  53  75 103 133 167 208 252 299
#     4   9  19  35  52  72 101 135 170 209 252 299
#     4  10  21  36  54  77 104 134 169 208 250 297
#     4   9  19  36  55  75 102 135 169 206 250 300
#
# _framework density 16.81391
#
# number of rings (size 3 to 8) (size 9 to 14) (size 15 to 20)
#    0.000    2.750    0.000    3.000    0.000    6.500 
#    0.000   11.250    0.000    0.000    0.000    0.000 
#    0.000    0.000    0.000    0.000    0.000    0.000 
#
# Total GULP energy -178488.467887 kJ/mol
# GULP energy per Si atom -5577.764621 kJ/mol
# Density = 1.677564 g / cm^3
# Si number density = 16.813910 Si / 1000 Ang^3
#
#
#
# Elastic Constant Matrix: (Units=GPa)
#
#
# Indices 1 2 3 4 5 6 
#
# 1 178.4629 88.0268 129.1037 0.0000 0.0000 0.0000
# 2 88.0268 60.5709 71.7454 0.0000 0.0000 0.0000
# 3 129.1037 71.7454 107.5191 0.0000 0.0000 0.0000
# 4 0.0000 0.0000 0.0000 36.4466 0.0000 0.0000
# 5 0.0000 0.0000 0.0000 0.0000 42.6871 0.0000
# 6 0.0000 0.0000 0.0000 0.0000 0.0000 39.6674
#
#
#
# Elastic Compliance Matrix: (Units=1/GPa)
#
#
# Indices 1 2 3 4 5 6 
#
# 1 0.043172 -0.006387 -0.047576 0.000000 0.000000 0.000000
# 2 -0.006387 0.079706 -0.045517 0.000000 0.000000 0.000000
# 3 -0.047576 -0.045517 0.096801 0.000000 0.000000 0.000000
# 4 0.000000 0.000000 0.000000 0.027437 0.000000 0.000000
# 5 0.000000 0.000000 0.000000 0.000000 0.023426 0.000000
# 6 0.000000 0.000000 0.000000 0.000000 0.000000 0.025210
#
#
# Mechanical properties :
#
#
# Convention : Reuss Voigt Hill
#
# Bulk Modulus (GPa) = 48.26860 102.70054 75.48457
# Shear Modulus (GPa) = 9.96774 27.60536 18.78655
#
# Velocity S-wave (km/s) = 2.43745 4.05633 3.34626
# Velocity P-wave (km/s) = 6.05734 9.11876 7.74090
#
# Compressibility (1/GPa) = 0.02071740
#
# Stress axis : x y z
#
# Youngs Moduli (GPa) = 23.16342 12.54611 10.33050
#
# Poissons Ratio (x) = 0.08013 0.49149
# Poissons Ratio (y) = 0.14795 0.47021
# Poissons Ratio (z) = 1.10203 0.57106
#
# Static dielectric constant tensor:
#      x y z
#    x 1.543710 0.000000 0.000000 
#    y 0.000000 1.554580 0.000000 
#    z 0.000000 0.000000 1.548330 
# 
# From -- ./inp_files/20920.got.cif
#   From: 2010.05.17/outbox.cif.g08.bks.cpg/sg65_11_cif.got.tgz:20920.got - 2010.06.03 17:01:31.
