data_PCOD9491620
_publ_section_title
;
Structure prediction by ZEFSAII (Michael W. Deem and Ramdas Pophale) SiO2 
 PCOD9491620
Probable space group: C M M M
;
_chemical_formula_sum "Si O2"
_cell_formula_units_Z 116
_cell_length_a 8.409849
_cell_length_b 30.518084
_cell_length_c 26.187277
_cell_angle_alpha 90.000000
_cell_angle_beta 90.000000
_cell_angle_gamma 90.000000
_cell_volume 6721.029540
_symmetry_space_group_name_H-M "C M M M"
_symmetry_group_IT_number 65
_symmetry_cell_setting 'orthorhombic'
loop_
_space_group_symop_operation_xyz
x,y,z
-x,-y,z
x,-y,-z
-x,y,-z
-x,-y,-z
x,y,-z
-x,y,z
x,-y,z
1/2+x,1/2+y,z
1/2-x,1/2-y,z
1/2+x,1/2-y,-z
1/2-x,1/2+y,-z
1/2-x,1/2-y,-z
1/2+x,1/2+y,-z
1/2-x,1/2+y,z
1/2+x,1/2-y,z
loop_
_atom_site_type_symbol
_atom_site_label
_atom_site_fract_x
_atom_site_fract_y
_atom_site_fract_z
Si Si1 0.190852 0.295834 0.838321
Si Si2 0.191183 0.070565 0.916055
Si Si3 0.309173 0.800199 0.444561
Si Si4 0.692823 0.832661 0.056751
Si Si5 0.216785 0.500000 0.000000
Si Si6 0.191477 0.049528 0.201193
Si Si7 0.188504 0.800346 0.335280
Si Si8 0.690194 0.863219 0.245927
O O1 0.250000 0.250000 0.816718
O O2 0.245041 0.302176 0.896535
O O3 0.246583 0.336299 0.804128
O O4 0.000000 0.295606 0.837482
O O5 0.236042 0.119659 0.931588
O O6 0.237762 0.061198 0.857368
O O7 0.000000 0.063511 0.921037
O O8 0.274176 0.037863 0.955318
O O9 0.264106 0.819963 0.500000
O O10 0.500000 0.800589 0.440892
O O11 0.250000 0.750000 0.446111
O O12 0.238300 0.817144 0.391684
O O13 0.500000 0.835918 0.058233
O O14 0.739745 0.818162 0.000000
O O15 0.250539 0.087298 0.239079
O O16 0.000000 0.049773 0.202143
O O17 0.245906 0.000000 0.212857
O O18 0.250000 0.750000 0.328563
O O19 0.253171 0.834256 0.293555
O O20 0.000000 0.798242 0.331802
O O21 0.500000 0.863811 0.246150
#
# Coordination Sequence:
#
# PCOD9491620 Si02
#       8
#    16  16  16  16   4  16  16  16
#     4  10  22  37  53  73  95 125 162 205 254 304
#     4  11  20  32  52  75  99 126 155 192 241 305
#     4   9  16  27  45  71 106 148 190 228 266 308
#     4  10  21  37  52  69  96 123 152 197 249 301
#     4  12  21  32  53  82 107 124 157 202 249 312
#     4  10  21  36  54  77 102 130 164 206 258 316
#     4  11  21  33  51  77 110 147 188 229 269 313
#     4  11  22  37  55  75 102 136 175 218 264 313
#
# _framework density 17.259259
#
# number of rings (size 3 to 8) (size 9 to 14) (size 15 to 20)
#    0.000    1.655    2.759    3.931    0.000    4.138 
#    0.000    0.690    0.000    0.000    0.000    0.000 
#    0.000    0.552    0.000    5.793    0.000    2.483 
#
# Total GULP energy -323152.529209 kJ/mol
# GULP energy per Si atom -5571.595331 kJ/mol
# Density = 1.721998 g / cm^3
# Si number density = 17.259259 Si / 1000 Ang^3
#
#
#
# Elastic Constant Matrix: (Units=GPa)
#
#
# Indices 1 2 3 4 5 6 
#
# 1 27.7359 12.8797 21.7741 0.0000 0.0000 0.0000
# 2 12.8797 85.2133 47.1711 0.0000 0.0000 0.0000
# 3 21.7741 47.1711 121.5543 0.0000 0.0000 0.0000
# 4 0.0000 0.0000 0.0000 -3.2682 0.0000 0.0000
# 5 0.0000 0.0000 0.0000 0.0000 12.0634 0.0000
# 6 0.0000 0.0000 0.0000 0.0000 0.0000 -16.1327
#
#
#
# Elastic Compliance Matrix: (Units=1/GPa)
#
#
# Indices 1 2 3 4 5 6 
#
# 1 0.042477 -0.002812 -0.006518 0.000000 0.000000 0.000000
# 2 -0.002812 0.015132 -0.005368 0.000000 0.000000 0.000000
# 3 -0.006518 -0.005368 0.011478 0.000000 0.000000 0.000000
# 4 0.000000 0.000000 0.000000 -0.305981 0.000000 0.000000
# 5 0.000000 0.000000 0.000000 0.000000 0.082896 0.000000
# 6 0.000000 0.000000 0.000000 0.000000 0.000000 -0.061986
#
#
# Mechanical properties :
#
#
# Convention : Reuss Voigt Hill
#
# Bulk Modulus (GPa) = 25.19534 44.23926 34.71730
# Shear Modulus (GPa) = -28.84204 8.71108 -10.06548
#
# Velocity S-wave (km/s) = -4.09235 2.24903 -2.41756
# Velocity P-wave (km/s) = 2.77487 5.69491 3.51654
#
# Compressibility (1/GPa) = 0.03968988
#
# Stress axis : x y z
#
# Youngs Moduli (GPa) = 23.54219 66.08442 87.12635
#
# Poissons Ratio (x) = 0.18586 0.56785
# Poissons Ratio (y) = 0.06621 0.46774
# Poissons Ratio (z) = 0.15344 0.35477
#
# Static dielectric constant tensor:
#      x y z
#    x 1.603380 0.000000 0.000000 
#    y 0.000000 1.565460 0.000000 
#    z 0.000000 0.000000 1.615450 
# 
# From -- ./inp_files/73974.got.cif
#   From: 2010.05.17/outbox.cif.g08.bks.cpg/sg65_37_cif.got.tgz:73974.got - 2010.06.03 17:01:31.
