data_PCOD9491808
_publ_section_title
;
Structure prediction by ZEFSAII (Michael W. Deem and Ramdas Pophale) SiO2 
 PCOD9491808
Probable space group: C M M M
;
_chemical_formula_sum "Si O2"
_cell_formula_units_Z 62
_cell_length_a 19.206920
_cell_length_b 9.905385
_cell_length_c 17.674596
_cell_angle_alpha 90.000000
_cell_angle_beta 90.000000
_cell_angle_gamma 90.000000
_cell_volume 3362.626129
_symmetry_space_group_name_H-M "C M M M"
_symmetry_group_IT_number 65
_symmetry_cell_setting 'orthorhombic'
loop_
_space_group_symop_operation_xyz
x,y,z
-x,-y,z
x,-y,-z
-x,y,-z
-x,-y,-z
x,y,-z
-x,y,z
x,-y,z
1/2+x,1/2+y,z
1/2-x,1/2-y,z
1/2+x,1/2-y,-z
1/2-x,1/2+y,-z
1/2-x,1/2-y,-z
1/2+x,1/2+y,-z
1/2-x,1/2+y,z
1/2+x,1/2-y,z
loop_
_atom_site_type_symbol
_atom_site_label
_atom_site_fract_x
_atom_site_fract_y
_atom_site_fract_z
Si Si1 0.115972 0.000000 0.089163
Si Si2 0.671273 0.274644 0.639630
Si Si3 0.295292 0.500000 0.237599
Si Si4 0.576985 0.285752 0.500000
Si Si5 0.000000 0.500000 0.182948
Si Si6 0.138535 0.500000 0.281600
Si Si7 0.000000 0.500000 0.500000
Si Si8 0.000000 0.226501 0.911684
O O1 0.066819 0.130677 0.101769
O O2 0.174268 0.000000 0.153456
O O3 0.137390 0.000000 0.000000
O O4 0.750000 0.250000 0.610690
O O5 0.679554 0.372887 0.711905
O O6 0.621274 0.324605 0.573615
O O7 0.640879 0.133404 0.668094
O O8 0.211442 0.500000 0.235918
O O9 0.500000 0.346838 0.500000
O O10 0.559946 0.123177 0.500000
O O11 0.930423 0.500000 0.232506
O O12 0.000000 0.637449 0.135189
O O13 0.000000 0.261201 0.000000
#
# Coordination Sequence:
#
# PCOD9491808 Si02
#       8
#     8  16   8   8   4   8   2   8
#     4   9  18  38  62  81 112 151 193 230 277 344
#     4  10  21  38  58  81 115 155 190 235 284 337
#     4  10  21  40  57  85 115 147 193 241 280 337
#     4  10  21  36  56  84 115 148 190 241 273 336
#     4  12  21  33  58  83 113 146 178 238 291 335
#     4  10  23  35  58  83 114 147 195 232 277 343
#     4   8  20  34  56  82 122 144 184 246 262 328
#     4   9  19  35  55  85 112 145 185 229 282 341
#
# _framework density 18.43797
#
# number of rings (size 3 to 8) (size 9 to 14) (size 15 to 20)
#    0.387    1.806    0.000    3.677    1.806    0.516 
#    4.645    5.806    0.000   10.065    0.000    0.000 
#    0.000    0.000    0.000    0.000    0.000    0.000 
#
# Total GULP energy -172664.196068 kJ/mol
# GULP energy per Si atom -5569.812776 kJ/mol
# Density = 1.839600 g / cm^3
# Si number density = 18.437970 Si / 1000 Ang^3
#
#
#
# Elastic Constant Matrix: (Units=GPa)
#
#
# Indices 1 2 3 4 5 6 
#
# 1 133.8142 38.7870 108.4341 0.0000 0.0000 0.0000
# 2 38.7870 110.9578 41.2467 0.0000 0.0000 0.0000
# 3 108.4341 41.2467 124.0261 0.0000 0.0000 0.0000
# 4 0.0000 0.0000 0.0000 -11.4322 0.0000 0.0000
# 5 0.0000 0.0000 0.0000 0.0000 -93.0530 0.0000
# 6 0.0000 0.0000 0.0000 0.0000 0.0000 8.1967
#
#
#
# Elastic Compliance Matrix: (Units=1/GPa)
#
#
# Indices 1 2 3 4 5 6 
#
# 1 0.025684 -0.000720 -0.022215 0.000000 0.000000 0.000000
# 2 -0.000720 0.010304 -0.002797 0.000000 0.000000 0.000000
# 3 -0.022215 -0.002797 0.028416 0.000000 0.000000 0.000000
# 4 0.000000 0.000000 0.000000 -0.087472 0.000000 0.000000
# 5 0.000000 0.000000 0.000000 0.000000 -0.010747 0.000000
# 6 0.000000 0.000000 0.000000 0.000000 0.000000 0.122000
#
#
# Mechanical properties :
#
#
# Convention : Reuss Voigt Hill
#
# Bulk Modulus (GPa) = 77.29159 82.85932 80.07545
# Shear Modulus (GPa) = 34.73142 -7.23568 13.74787
#
# Velocity S-wave (km/s) = 4.34486 -1.98314 2.73358
# Velocity P-wave (km/s) = 8.19641 6.30819 7.31350
#
# Compressibility (1/GPa) = 0.01293802
#
# Stress axis : x y z
#
# Youngs Moduli (GPa) = 38.93550 97.05020 35.19198
#
# Poissons Ratio (x) = 0.06987 0.78180
# Poissons Ratio (y) = 0.02803 0.09844
# Poissons Ratio (z) = 0.86496 0.27148
#
# Static dielectric constant tensor:
#      x y z
#    x 1.630610 0.000000 0.000000 
#    y 0.000000 1.636670 0.000000 
#    z 0.000000 0.000000 1.606960 
# 
# From -- ./inp_files/42006.got.cif
#   From: 2010.05.17/outbox.cif.g08.bks.cpg/sg65_22_cif.got.tgz:42006.got - 2010.06.03 17:01:31.
