data_PCOD9491792
_publ_section_title
;
Structure prediction by ZEFSAII (Michael W. Deem and Ramdas Pophale) SiO2 
 PCOD9491792
Probable space group: C M M M
;
_chemical_formula_sum "Si O2"
_cell_formula_units_Z 104
_cell_length_a 9.955519
_cell_length_b 18.377341
_cell_length_c 30.079372
_cell_angle_alpha 90.000000
_cell_angle_beta 90.000000
_cell_angle_gamma 90.000000
_cell_volume 5503.200606
_symmetry_space_group_name_H-M "C M M M"
_symmetry_group_IT_number 65
_symmetry_cell_setting 'orthorhombic'
loop_
_space_group_symop_operation_xyz
x,y,z
-x,-y,z
x,-y,-z
-x,y,-z
-x,-y,-z
x,y,-z
-x,y,z
x,-y,z
1/2+x,1/2+y,z
1/2-x,1/2-y,z
1/2+x,1/2-y,-z
1/2-x,1/2+y,-z
1/2-x,1/2-y,-z
1/2+x,1/2+y,-z
1/2-x,1/2+y,z
1/2+x,1/2-y,z
loop_
_atom_site_type_symbol
_atom_site_label
_atom_site_fract_x
_atom_site_fract_y
_atom_site_fract_z
Si Si1 0.654166 0.411455 0.211268
Si Si2 0.846142 0.086607 0.553004
Si Si3 0.500000 0.579847 0.946843
Si Si4 0.646004 0.914622 0.865324
Si Si5 0.654390 0.913571 0.707894
Si Si6 0.771090 0.335998 0.051146
Si Si7 0.159913 0.322389 0.617252
O O1 0.500000 0.386514 0.211556
O O2 0.653349 0.500000 0.210684
O O3 0.737354 0.389151 0.167673
O O4 0.738868 0.390377 0.254792
O O5 0.835407 0.098370 0.500000
O O6 0.732505 0.130306 0.579038
O O7 0.000000 0.107106 0.566296
O O8 0.832228 0.000000 0.561033
O O9 0.500000 0.500000 0.925622
O O10 0.631095 0.625207 0.937539
O O11 0.500000 0.571324 0.000000
O O12 0.500000 0.910880 0.842484
O O13 0.639759 0.867951 0.909984
O O14 0.668611 0.000000 0.876708
O O15 0.500000 0.904745 0.723674
O O16 0.669691 0.868245 0.662878
O O17 0.673750 0.000000 0.699115
O O18 0.750000 0.250000 0.053171
O O19 0.810673 0.353972 0.000000
O O20 0.250000 0.250000 0.621319
O O21 0.000000 0.309087 0.608830
#
# Coordination Sequence:
#
# PCOD9491792 Si02
#       7
#    16  16   8  16  16  16  16
#     4   9  18  33  56  85 112 140 179 227 276 330
#     4   9  19  37  60  85 114 150 194 245 298 350
#     4   9  18  34  56  80 105 139 185 231 274 324
#     4  10  21  36  56  82 112 144 178 222 275 331
#     4   9  18  35  59  84 111 143 183 232 285 341
#     4  10  22  37  56  80 110 146 184 228 281 336
#     4  11  23  37  55  82 117 157 197 239 290 346
#
# _framework density 18.898092999999999
#
# number of rings (size 3 to 8) (size 9 to 14) (size 15 to 20)
#    0.000    2.385    0.000    2.308    2.154    5.846 
#    0.000    3.846    0.000    0.000    0.000    0.000 
#    0.000    0.000    0.000    0.000    0.000    0.000 
#
# Total GULP energy -289951.291859 kJ/mol
# GULP energy per Si atom -5575.986382 kJ/mol
# Density = 1.885508 g / cm^3
# Si number density = 18.898093 Si / 1000 Ang^3
#
#
#
# Elastic Constant Matrix: (Units=GPa)
#
#
# Indices 1 2 3 4 5 6 
#
# 1 175.3143 58.7126 77.9514 0.0000 0.0000 0.0000
# 2 58.7126 68.7708 44.1689 0.0000 0.0000 0.0000
# 3 77.9514 44.1689 99.5159 0.0000 0.0000 0.0000
# 4 0.0000 0.0000 0.0000 10.3999 0.0000 0.0000
# 5 0.0000 0.0000 0.0000 0.0000 34.9629 0.0000
# 6 0.0000 0.0000 0.0000 0.0000 0.0000 28.8067
#
#
#
# Elastic Compliance Matrix: (Units=1/GPa)
#
#
# Indices 1 2 3 4 5 6 
#
# 1 0.009763 -0.004788 -0.005522 0.000000 0.000000 0.000000
# 2 -0.004788 0.022687 -0.006319 0.000000 0.000000 0.000000
# 3 -0.005522 -0.006319 0.017179 0.000000 0.000000 0.000000
# 4 0.000000 0.000000 0.000000 0.096155 0.000000 0.000000
# 5 0.000000 0.000000 0.000000 0.000000 0.028602 0.000000
# 6 0.000000 0.000000 0.000000 0.000000 0.000000 0.034714
#
#
# Mechanical properties :
#
#
# Convention : Reuss Voigt Hill
#
# Bulk Modulus (GPa) = 61.08548 78.36296 69.72422
# Shear Modulus (GPa) = 20.17630 25.68512 22.93071
#
# Velocity S-wave (km/s) = 3.27102 3.69065 3.48715
# Velocity P-wave (km/s) = 6.83080 7.72769 7.29305
#
# Compressibility (1/GPa) = 0.01637050
#
# Stress axis : x y z
#
# Youngs Moduli (GPa) = 102.42700 44.07729 58.21180
#
# Poissons Ratio (x) = 0.21106 0.32145
# Poissons Ratio (y) = 0.49047 0.36782
# Poissons Ratio (z) = 0.56562 0.27851
#
# Static dielectric constant tensor:
#      x y z
#    x 1.778320 0.000000 0.000000 
#    y 0.000000 1.634900 0.000000 
#    z 0.000000 0.000000 1.639150 
# 
# From -- ./inp_files/76870.got.cif
#   From: 2010.05.17/outbox.cif.g08.bks.cpg/sg65_39_cif.got.tgz:76870.got - 2010.06.03 17:01:31.
