data_PCOD9491058
_publ_section_title
;
Structure prediction by ZEFSAII (Michael W. Deem and Ramdas Pophale) SiO2 
 PCOD9491058
Probable space group: C M M M
;
_chemical_formula_sum "Si O2"
_cell_formula_units_Z 66
_cell_length_a 8.056370
_cell_length_b 15.797768
_cell_length_c 28.021172
_cell_angle_alpha 90.000000
_cell_angle_beta 90.000000
_cell_angle_gamma 90.000000
_cell_volume 3566.329214
_symmetry_space_group_name_H-M "C M M M"
_symmetry_group_IT_number 65
_symmetry_cell_setting 'orthorhombic'
loop_
_space_group_symop_operation_xyz
x,y,z
-x,-y,z
x,-y,-z
-x,y,-z
-x,-y,-z
x,y,-z
-x,y,z
x,-y,z
1/2+x,1/2+y,z
1/2-x,1/2-y,z
1/2+x,1/2-y,-z
1/2-x,1/2+y,-z
1/2-x,1/2-y,-z
1/2+x,1/2+y,-z
1/2-x,1/2+y,z
1/2+x,1/2-y,z
loop_
_atom_site_type_symbol
_atom_site_label
_atom_site_fract_x
_atom_site_fract_y
_atom_site_fract_z
Si Si1 0.000000 0.000000 0.000000
Si Si2 0.798099 0.000000 0.225009
Si Si3 0.695309 0.157559 0.602789
Si Si4 0.500000 0.405542 0.901368
Si Si5 0.302630 0.403989 0.500000
Si Si6 0.197244 0.342906 0.159397
Si Si7 0.803659 0.000000 0.333471
O O1 0.000000 0.926937 0.042689
O O2 0.732875 0.083179 0.197500
O O3 0.736196 0.000000 0.279654
O O4 0.000000 0.000000 0.225590
O O5 0.500000 0.154402 0.602369
O O6 0.750000 0.250000 0.619339
O O7 0.753484 0.141875 0.548592
O O8 0.756517 0.082650 0.636550
O O9 0.500000 0.500000 0.878518
O O10 0.669301 0.361297 0.883253
O O11 0.232965 0.500000 0.500000
O O12 0.500000 0.409832 0.500000
O O13 0.250000 0.250000 0.177789
O O14 0.000000 0.344010 0.146658
O O15 0.000000 0.000000 0.329410
#
# Coordination Sequence:
#
# PCOD9491058 Si02
#       7
#     2   8  16   8   8  16   8
#     4   8  20  40  70  84 140 180 208 280 318 382
#     4  11  22  42  63  93 125 161 209 263 318 380
#     4  12  25  42  64  89 121 157 200 247 304 366
#     4  10  20  42  64  93 133 169 221 262 329 360
#     4  11  22  39  66  90 117 151 199 245 300 366
#     4  12  22  38  67  95 128 170 219 271 319 375
#     4  11  25  43  65  88 126 161 198 251 313 371
#
# _framework density 18.506423999999999
#
# number of rings (size 3 to 8) (size 9 to 14) (size 15 to 20)
#    0.364    0.364    4.848    3.636    0.000    3.394 
#    0.000    1.818    0.000    0.000    0.000    0.000 
#    0.000    0.000    0.000    0.000    0.000    0.000 
#
# Total GULP energy -183920.488350 kJ/mol
# GULP energy per Si atom -5573.348132 kJ/mol
# Density = 1.846430 g / cm^3
# Si number density = 18.506424 Si / 1000 Ang^3
#
#
#
# Elastic Constant Matrix: (Units=GPa)
#
#
# Indices 1 2 3 4 5 6 
#
# 1 140.2360 42.7715 45.8865 0.0000 0.0000 0.0000
# 2 42.7715 170.2883 71.2696 0.0000 0.0000 0.0000
# 3 45.8865 71.2696 159.4872 0.0000 0.0000 0.0000
# 4 0.0000 0.0000 0.0000 -34.2888 0.0000 0.0000
# 5 0.0000 0.0000 0.0000 0.0000 4.4516 0.0000
# 6 0.0000 0.0000 0.0000 0.0000 0.0000 34.9909
#
#
#
# Elastic Compliance Matrix: (Units=1/GPa)
#
#
# Indices 1 2 3 4 5 6 
#
# 1 0.008100 -0.001303 -0.001748 0.000000 0.000000 0.000000
# 2 -0.001303 0.007433 -0.002947 0.000000 0.000000 0.000000
# 3 -0.001748 -0.002947 0.008090 0.000000 0.000000 0.000000
# 4 0.000000 0.000000 0.000000 -0.029164 0.000000 0.000000
# 5 0.000000 0.000000 0.000000 0.000000 0.224638 0.000000
# 6 0.000000 0.000000 0.000000 0.000000 0.000000 0.028579
#
#
# Mechanical properties :
#
#
# Convention : Reuss Voigt Hill
#
# Bulk Modulus (GPa) = 86.00428 87.76298 86.88363
# Shear Modulus (GPa) = 18.97191 21.70299 20.33745
#
# Velocity S-wave (km/s) = 3.20527 3.42823 3.31862
# Velocity P-wave (km/s) = 7.76350 7.94961 7.85710
#
# Compressibility (1/GPa) = 0.01162733
#
# Stress axis : x y z
#
# Youngs Moduli (GPa) = 123.45259 134.53745 123.61104
#
# Poissons Ratio (x) = 0.17528 0.21612
# Poissons Ratio (y) = 0.16084 0.36424
# Poissons Ratio (z) = 0.21584 0.39644
#
# Static dielectric constant tensor:
#      x y z
#    x 1.643070 0.000000 0.000000 
#    y 0.000000 1.691880 0.000000 
#    z 0.000000 0.000000 1.528690 
# 
# From -- ./inp_files/72451.got.cif
#   From: 2010.05.17/outbox.cif.g08.bks.cpg/sg65_37_cif.got.tgz:72451.got - 2010.06.03 17:01:31.
