data_PCOD9491147
_publ_section_title
;
Structure prediction by ZEFSAII (Michael W. Deem and Ramdas Pophale) SiO2 
 PCOD9491147
Probable space group: C M M M
;
_chemical_formula_sum "Si O2"
_cell_formula_units_Z 104
_cell_length_a 20.792913
_cell_length_b 7.441829
_cell_length_c 31.876981
_cell_angle_alpha 90.000000
_cell_angle_beta 90.000000
_cell_angle_gamma 90.000000
_cell_volume 4932.558066
_symmetry_space_group_name_H-M "C M M M"
_symmetry_group_IT_number 65
_symmetry_cell_setting 'orthorhombic'
loop_
_space_group_symop_operation_xyz
x,y,z
-x,-y,z
x,-y,-z
-x,y,-z
-x,-y,-z
x,y,-z
-x,y,z
x,-y,z
1/2+x,1/2+y,z
1/2-x,1/2-y,z
1/2+x,1/2-y,-z
1/2-x,1/2+y,-z
1/2-x,1/2-y,-z
1/2+x,1/2+y,-z
1/2-x,1/2+y,z
1/2+x,1/2-y,z
loop_
_atom_site_type_symbol
_atom_site_label
_atom_site_fract_x
_atom_site_fract_y
_atom_site_fract_z
Si Si1 0.823690 0.785017 0.547608
Si Si2 0.500000 0.201892 0.949488
Si Si3 0.574453 0.279527 0.383639
Si Si4 0.073987 0.779530 0.199632
Si Si5 0.856494 0.793365 0.047047
Si Si6 0.820034 0.214933 0.134558
Si Si7 0.078092 0.206853 0.708360
O O1 0.831873 0.715367 0.500000
O O2 0.750000 0.750000 0.560557
O O3 0.876577 0.719094 0.580515
O O4 0.831367 0.000000 0.545779
O O5 0.567877 0.291876 0.940079
O O6 0.500000 0.000000 0.932453
O O7 0.500000 0.193218 0.000000
O O8 0.500000 0.227607 0.391132
O O9 0.574777 0.500000 0.382531
O O10 0.595449 0.216525 0.337077
O O11 0.122670 0.718758 0.163893
O O12 0.095203 0.716714 0.246145
O O13 0.000000 0.726635 0.191888
O O14 0.074316 0.000000 0.200650
O O15 0.822421 0.709076 0.087163
O O16 0.835857 0.000000 0.043420
O O17 0.849612 0.713948 0.000000
O O18 0.750000 0.250000 0.153057
O O19 0.828590 0.000000 0.131139
O O20 0.000000 0.204459 0.708362
O O21 0.100539 0.000000 0.708404
#
# Coordination Sequence:
#
# PCOD9491147 Si02
#       7
#    16   8  16  16  16  16  16
#     4   9  17  28  41  58  84 118 150 180 216 261
#     4   9  17  29  47  73  99 119 143 183 229 263
#     4   8  13  22  39  63  87 109 139 184 229 261
#     4   8  14  26  46  68  87 113 150 184 216 262
#     4   9  18  32  49  68  91 122 156 186 220 264
#     4  10  21  34  49  68  94 123 151 187 226 266
#     4   7  10  19  37  62  88 109 135 178 225 262
#
# _framework density 21.084395000000001
#
# number of rings (size 3 to 8) (size 9 to 14) (size 15 to 20)
#    0.000    3.462    0.000    2.077    1.077    2.154 
#    0.000    2.308    0.000    0.462    0.000    2.154 
#    0.000    3.692    0.000    0.000    0.000    0.000 
#
# Total GULP energy -289706.615066 kJ/mol
# GULP energy per Si atom -5571.281059 kJ/mol
# Density = 2.103641 g / cm^3
# Si number density = 21.084395 Si / 1000 Ang^3
#
#
#
# Elastic Constant Matrix: (Units=GPa)
#
#
# Indices 1 2 3 4 5 6 
#
# 1 110.2266 -1.7726 98.6485 0.0000 0.0000 0.0000
# 2 -1.7726 67.7645 11.3094 0.0000 0.0000 0.0000
# 3 98.6485 11.3094 173.4664 0.0000 0.0000 0.0000
# 4 0.0000 0.0000 0.0000 -9.5573 0.0000 0.0000
# 5 0.0000 0.0000 0.0000 0.0000 -24.5642 0.0000
# 6 0.0000 0.0000 0.0000 0.0000 0.0000 6.3580
#
#
#
# Elastic Compliance Matrix: (Units=1/GPa)
#
#
# Indices 1 2 3 4 5 6 
#
# 1 0.018825 0.002304 -0.010856 0.000000 0.000000 0.000000
# 2 0.002304 0.015201 -0.002301 0.000000 0.000000 0.000000
# 3 -0.010856 -0.002301 0.012088 0.000000 0.000000 0.000000
# 4 0.000000 0.000000 0.000000 -0.104632 0.000000 0.000000
# 5 0.000000 0.000000 0.000000 0.000000 -0.040710 0.000000
# 6 0.000000 0.000000 0.000000 0.000000 0.000000 0.157281
#
#
# Mechanical properties :
#
#
# Convention : Reuss Voigt Hill
#
# Bulk Modulus (GPa) = 40.96922 63.09198 52.03060
# Shear Modulus (GPa) = 56.88525 10.66543 33.77534
#
# Velocity S-wave (km/s) = 5.19984 2.25154 4.00673
# Velocity P-wave (km/s) = 7.45147 6.06199 6.79235
#
# Compressibility (1/GPa) = 0.02440857
#
# Stress axis : x y z
#
# Youngs Moduli (GPa) = 53.12204 65.78357 82.72469
#
# Poissons Ratio (x) = -0.15157 0.89802
# Poissons Ratio (y) = -0.12240 0.19038
# Poissons Ratio (z) = 0.57667 0.15140
#
# Static dielectric constant tensor:
#      x y z
#    x 1.723360 0.000000 0.000000 
#    y 0.000000 1.814180 0.000000 
#    z 0.000000 0.000000 1.799880 
# 
# From -- ./inp_files/78258.got.cif
#   From: 2010.05.17/outbox.cif.g08.bks.cpg/sg65_40_cif.got.tgz:78258.got - 2010.06.03 17:01:31.
