data_PCOD9491317
_publ_section_title
;
Structure prediction by ZEFSAII (Michael W. Deem and Ramdas Pophale) SiO2 
 PCOD9491317
Probable space group: C M M M
;
_chemical_formula_sum "Si O2"
_cell_formula_units_Z 72
_cell_length_a 27.378656
_cell_length_b 9.077047
_cell_length_c 16.148306
_cell_angle_alpha 90.000000
_cell_angle_beta 90.000000
_cell_angle_gamma 90.000000
_cell_volume 4013.134171
_symmetry_space_group_name_H-M "C M M M"
_symmetry_group_IT_number 65
_symmetry_cell_setting 'orthorhombic'
loop_
_space_group_symop_operation_xyz
x,y,z
-x,-y,z
x,-y,-z
-x,y,-z
-x,-y,-z
x,y,-z
-x,y,z
x,-y,z
1/2+x,1/2+y,z
1/2-x,1/2-y,z
1/2+x,1/2-y,-z
1/2-x,1/2+y,-z
1/2-x,1/2-y,-z
1/2+x,1/2+y,-z
1/2-x,1/2+y,z
1/2+x,1/2-y,z
loop_
_atom_site_type_symbol
_atom_site_label
_atom_site_fract_x
_atom_site_fract_y
_atom_site_fract_z
Si Si1 0.348310 0.324592 0.594436
Si Si2 0.799958 0.675670 0.750479
Si Si3 0.401446 0.825540 0.162095
Si Si4 0.943279 0.824108 0.000000
Si Si5 0.944115 0.676206 0.341218
O O1 0.333464 0.294858 0.500000
O O2 0.346871 0.500000 0.608678
O O3 0.315068 0.242678 0.661654
O O4 0.403250 0.264620 0.608941
O O5 0.794668 0.500000 0.743605
O O6 0.750000 0.750000 0.778784
O O7 0.845836 0.706155 0.810462
O O8 0.418197 0.737596 0.082420
O O9 0.433870 0.793933 0.243864
O O10 0.405600 0.000000 0.145425
O O11 0.000000 0.777606 0.000000
O O12 0.941157 0.000000 0.000000
O O13 0.936512 0.500000 0.353187
O O14 0.000000 0.711351 0.362489
#
# Coordination Sequence:
#
# PCOD9491317 Si02
#       5
#    16  16  16   8  16
#     4  10  21  35  51  75 107 141 178 220 265 314
#     4  10  21  38  60  82 104 135 175 218 267 318
#     4   9  19  36  56  78 105 138 176 215 257 311
#     4  11  23  35  52  83 116 143 174 213 256 301
#     4   9  18  33  53  76 103 139 181 222 267 317
#
# _framework density 17.941089999999999
#
# number of rings (size 3 to 8) (size 9 to 14) (size 15 to 20)
#    0.000    2.333    0.000    3.667    0.000    9.333 
#    0.000    2.778    0.000    0.000    0.000    0.000 
#    0.000    0.000    0.000    0.000    0.000    0.000 
#
# Total GULP energy -200988.764683 kJ/mol
# GULP energy per Si atom -5583.021241 kJ/mol
# Density = 1.790025 g / cm^3
# Si number density = 17.941090 Si / 1000 Ang^3
#
#
#
# Elastic Constant Matrix: (Units=GPa)
#
#
# Indices 1 2 3 4 5 6 
#
# 1 81.7496 40.5557 21.8873 0.0000 0.0000 0.0000
# 2 40.5557 55.9344 48.6071 0.0000 0.0000 0.0000
# 3 21.8873 48.6071 82.1312 0.0000 0.0000 0.0000
# 4 0.0000 0.0000 0.0000 25.2122 0.0000 0.0000
# 5 0.0000 0.0000 0.0000 0.0000 3.0734 0.0000
# 6 0.0000 0.0000 0.0000 0.0000 0.0000 32.2690
#
#
#
# Elastic Compliance Matrix: (Units=1/GPa)
#
#
# Indices 1 2 3 4 5 6 
#
# 1 0.020889 -0.021223 0.006994 0.000000 0.000000 0.000000
# 2 -0.021223 0.058371 -0.028890 0.000000 0.000000 0.000000
# 3 0.006994 -0.028890 0.027409 0.000000 0.000000 0.000000
# 4 0.000000 0.000000 0.000000 0.039663 0.000000 0.000000
# 5 0.000000 0.000000 0.000000 0.000000 0.325373 0.000000
# 6 0.000000 0.000000 0.000000 0.000000 0.000000 0.030990
#
#
# Mechanical properties :
#
#
# Convention : Reuss Voigt Hill
#
# Bulk Modulus (GPa) = 48.94465 49.10173 49.02319
# Shear Modulus (GPa) = 8.39289 19.36193 13.87741
#
# Velocity S-wave (km/s) = 2.16522 3.28867 2.78420
# Velocity P-wave (km/s) = 5.79576 6.46902 6.14162
#
# Compressibility (1/GPa) = 0.02043124
#
# Stress axis : x y z
#
# Youngs Moduli (GPa) = 47.87285 17.13179 36.48381
#
# Poissons Ratio (x) = 0.36359 -0.25515
# Poissons Ratio (y) = 1.01600 1.05400
# Poissons Ratio (z) = -0.33480 0.49493
#
# Static dielectric constant tensor:
#      x y z
#    x 1.611950 0.000000 0.000000 
#    y 0.000000 1.594960 0.000000 
#    z 0.000000 0.000000 1.590100 
# 
# From -- ./inp_files/36531.got.cif
#   From: 2010.05.17/outbox.cif.g08.bks.cpg/sg65_19_cif.got.tgz:36531.got - 2010.06.03 17:01:31.
