data_PCOD9491453
_publ_section_title
;
Structure prediction by ZEFSAII (Michael W. Deem and Ramdas Pophale) SiO2 
 PCOD9491453
Probable space group: C M M M
;
_chemical_formula_sum "Si O2"
_cell_formula_units_Z 50
_cell_length_a 18.937615
_cell_length_b 15.300942
_cell_length_c 7.447155
_cell_angle_alpha 90.000000
_cell_angle_beta 90.000000
_cell_angle_gamma 90.000000
_cell_volume 2157.912571
_symmetry_space_group_name_H-M "C M M M"
_symmetry_group_IT_number 65
_symmetry_cell_setting 'orthorhombic'
loop_
_space_group_symop_operation_xyz
x,y,z
-x,-y,z
x,-y,-z
-x,y,-z
-x,-y,-z
x,y,-z
-x,y,z
x,-y,z
1/2+x,1/2+y,z
1/2-x,1/2-y,z
1/2+x,1/2-y,-z
1/2-x,1/2+y,-z
1/2-x,1/2-y,-z
1/2+x,1/2+y,-z
1/2-x,1/2+y,z
1/2+x,1/2-y,z
loop_
_atom_site_type_symbol
_atom_site_label
_atom_site_fract_x
_atom_site_fract_y
_atom_site_fract_z
Si Si1 0.081342 0.000000 0.214015
Si Si2 0.866633 0.500000 0.222767
Si Si3 0.302611 0.180886 0.798789
Si Si4 0.580744 0.690536 0.290101
Si Si5 0.000000 0.500000 0.500000
O O1 0.112529 0.907031 0.270883
O O2 0.000000 0.000000 0.284706
O O3 0.079509 0.000000 0.000000
O O4 0.821904 0.413725 0.272259
O O5 0.937746 0.500000 0.340345
O O6 0.877676 0.500000 0.000000
O O7 0.250000 0.250000 0.706848
O O8 0.375058 0.235386 0.804878
O O9 0.273924 0.165450 0.000000
O O10 0.579255 0.712602 0.500000
O O11 0.500000 0.686782 0.223566
#
# Coordination Sequence:
#
# PCOD9491453 Si02
#       5
#     8   8  16  16   2
#     4   9  17  32  53  81 115 154 198 246 304 373
#     4  10  25  46  70 104 144 183 236 298 353 416
#     4  10  23  43  65  92 129 174 222 278 346 415
#     4  10  21  35  57  88 124 162 211 270 333 402
#     4  12  26  44  76 106 140 186 240 288 360 430
#
# _framework density 23.170541
#
# number of rings (size 3 to 8) (size 9 to 14) (size 15 to 20)
#    0.000    2.080    0.000    1.680    4.480    5.760 
#    0.000    3.200    0.000    0.000    0.000    0.000 
#    0.000    0.000    0.000    0.000    0.000    0.000 
#
# Total GULP energy -139247.673708 kJ/mol
# GULP energy per Si atom -5569.906948 kJ/mol
# Density = 2.311780 g / cm^3
# Si number density = 23.170541 Si / 1000 Ang^3
#
#
#
# Elastic Constant Matrix: (Units=GPa)
#
#
# Indices 1 2 3 4 5 6 
#
# 1 81.7062 71.4752 14.5258 0.0000 0.0000 0.0000
# 2 71.4752 217.5768 9.0503 0.0000 0.0000 0.0000
# 3 14.5258 9.0503 115.7016 0.0000 0.0000 0.0000
# 4 0.0000 0.0000 0.0000 16.0564 0.0000 0.0000
# 5 0.0000 0.0000 0.0000 0.0000 33.1120 0.0000
# 6 0.0000 0.0000 0.0000 0.0000 0.0000 4.3098
#
#
#
# Elastic Compliance Matrix: (Units=1/GPa)
#
#
# Indices 1 2 3 4 5 6 
#
# 1 0.017523 -0.005683 -0.001755 0.000000 0.000000 0.000000
# 2 -0.005683 0.006454 0.000209 0.000000 0.000000 0.000000
# 3 -0.001755 0.000209 0.008847 0.000000 0.000000 0.000000
# 4 0.000000 0.000000 0.000000 0.062281 0.000000 0.000000
# 5 0.000000 0.000000 0.000000 0.000000 0.030201 0.000000
# 6 0.000000 0.000000 0.000000 0.000000 0.000000 0.232029
#
#
# Mechanical properties :
#
#
# Convention : Reuss Voigt Hill
#
# Bulk Modulus (GPa) = 54.45413 67.23192 60.84303
# Shear Modulus (GPa) = 13.23046 32.02452 22.62749
#
# Velocity S-wave (km/s) = 2.39216 3.72172 3.12839
# Velocity P-wave (km/s) = 5.58412 6.89546 6.27414
#
# Compressibility (1/GPa) = 0.01836408
#
# Stress axis : x y z
#
# Youngs Moduli (GPa) = 57.06892 154.93328 113.03294
#
# Poissons Ratio (x) = 0.88053 0.19841
# Poissons Ratio (y) = 0.32434 -0.02358
# Poissons Ratio (z) = 0.10018 -0.03233
#
# Static dielectric constant tensor:
#      x y z
#    x 1.898550 0.000000 0.000000 
#    y 0.000000 1.912790 0.000000 
#    z 0.000000 0.000000 1.875950 
# 
# From -- ./inp_files/8208.got.cif
#   From: 2010.05.17/outbox.cif.g08.bks.cpg/sg65_5_cif.got.tgz:8208.got - 2010.06.03 17:01:31.
