data_PCOD9491781
_publ_section_title
;
Structure prediction by ZEFSAII (Michael W. Deem and Ramdas Pophale) SiO2 
 PCOD9491781
Probable space group: C M M M
;
_chemical_formula_sum "Si O2"
_cell_formula_units_Z 90
_cell_length_a 24.712223
_cell_length_b 21.983316
_cell_length_c 9.156647
_cell_angle_alpha 90.000000
_cell_angle_beta 90.000000
_cell_angle_gamma 90.000000
_cell_volume 4974.408983
_symmetry_space_group_name_H-M "C M M M"
_symmetry_group_IT_number 65
_symmetry_cell_setting 'orthorhombic'
loop_
_space_group_symop_operation_xyz
x,y,z
-x,-y,z
x,-y,-z
-x,y,-z
-x,-y,-z
x,y,-z
-x,y,z
x,-y,z
1/2+x,1/2+y,z
1/2-x,1/2-y,z
1/2+x,1/2-y,-z
1/2-x,1/2+y,-z
1/2-x,1/2-y,-z
1/2+x,1/2+y,-z
1/2-x,1/2+y,z
1/2+x,1/2-y,z
loop_
_atom_site_type_symbol
_atom_site_label
_atom_site_fract_x
_atom_site_fract_y
_atom_site_fract_z
Si Si1 0.500000 0.500000 0.500000
Si Si2 0.610270 0.145057 0.328043
Si Si3 0.387532 0.500000 0.662421
Si Si4 0.500000 0.856116 0.167218
Si Si5 0.795742 0.571131 0.826142
Si Si6 0.389265 0.709423 0.672581
Si Si7 0.828110 0.891909 0.825507
Si Si8 0.000000 0.208167 0.831616
O O1 0.451206 0.500000 0.625479
O O2 0.605927 0.133382 0.500000
O O3 0.554757 0.125533 0.249065
O O4 0.661210 0.111083 0.260005
O O5 0.616183 0.218030 0.308544
O O6 0.361095 0.500000 0.500000
O O7 0.367042 0.441413 0.750369
O O8 0.500000 0.782067 0.166706
O O9 0.500000 0.876900 0.000000
O O10 0.802190 0.500000 0.790936
O O11 0.733937 0.590145 0.795973
O O12 0.804605 0.578800 0.000000
O O13 0.389680 0.695841 0.500000
O O14 0.342948 0.672610 0.755112
O O15 0.446187 0.689836 0.745165
O O16 0.836073 0.891357 0.000000
O O17 0.000000 0.187499 0.000000
#
# Coordination Sequence:
#
# PCOD9491781 Si02
#       8
#     2  16   8   8  16  16  16   8
#     4   8  24  40  62  88 120 152 202 250 302 360
#     4  10  21  37  59  89 124 154 195 243 296 356
#     4  10  21  41  61  83 117 155 195 246 300 354
#     4   9  17  33  59  85 117 158 190 232 292 349
#     4  10  22  41  62  84 113 153 201 249 296 354
#     4  10  21  36  55  85 121 157 191 241 300 356
#     4  11  22  39  62  86 116 156 205 250 294 352
#     4   9  17  32  54  82 112 151 200 236 282 352
#
# _framework density 18.092601999999999
#
# number of rings (size 3 to 8) (size 9 to 14) (size 15 to 20)
#    0.267    1.778    0.889    2.400    0.000    7.467 
#    0.000    5.778    0.000    2.667    0.000    0.000 
#    0.000    0.000    0.000    0.000    0.000    0.000 
#
# Total GULP energy -250909.572633 kJ/mol
# GULP energy per Si atom -5575.768281 kJ/mol
# Density = 1.805142 g / cm^3
# Si number density = 18.092602 Si / 1000 Ang^3
#
#
#
# Elastic Constant Matrix: (Units=GPa)
#
#
# Indices 1 2 3 4 5 6 
#
# 1 138.7713 63.0987 99.2180 0.0000 0.0000 0.0000
# 2 63.0987 50.7759 67.3706 0.0000 0.0000 0.0000
# 3 99.2180 67.3706 134.8240 0.0000 0.0000 0.0000
# 4 0.0000 0.0000 0.0000 30.1390 0.0000 0.0000
# 5 0.0000 0.0000 0.0000 0.0000 82.1374 0.0000
# 6 0.0000 0.0000 0.0000 0.0000 0.0000 3.1433
#
#
#
# Elastic Compliance Matrix: (Units=1/GPa)
#
#
# Indices 1 2 3 4 5 6 
#
# 1 0.018158 -0.014347 -0.006193 0.000000 0.000000 0.000000
# 2 -0.014347 0.069777 -0.024309 0.000000 0.000000 0.000000
# 3 -0.006193 -0.024309 0.024122 0.000000 0.000000 0.000000
# 4 0.000000 0.000000 0.000000 0.033180 0.000000 0.000000
# 5 0.000000 0.000000 0.000000 0.000000 0.012175 0.000000
# 6 0.000000 0.000000 0.000000 0.000000 0.000000 0.318135
#
#
# Mechanical properties :
#
#
# Convention : Reuss Voigt Hill
#
# Bulk Modulus (GPa) = 44.72698 87.08287 65.90493
# Shear Modulus (GPa) = 8.73063 29.39621 19.06342
#
# Velocity S-wave (km/s) = 2.19909 4.03521 3.24953
# Velocity P-wave (km/s) = 5.58774 8.36342 7.11230
#
# Compressibility (1/GPa) = 0.02235787
#
# Stress axis : x y z
#
# Youngs Moduli (GPa) = 55.07343 14.33143 41.45627
#
# Poissons Ratio (x) = 0.20561 0.25675
# Poissons Ratio (y) = 0.79013 1.00776
# Poissons Ratio (z) = 0.34109 0.34838
#
# Static dielectric constant tensor:
#      x y z
#    x 1.591740 0.000000 0.000000 
#    y 0.000000 1.629960 0.000000 
#    z 0.000000 0.000000 1.604840 
# 
# From -- ./inp_files/14132.got.cif
#   From: 2010.05.17/outbox.cif.g08.bks.cpg/sg65_8_cif.got.tgz:14132.got - 2010.06.03 17:01:31.
