data_PCOD9491064
_publ_section_title
;
Structure prediction by ZEFSAII (Michael W. Deem and Ramdas Pophale) SiO2 
 PCOD9491064
Probable space group: C M M M
;
_chemical_formula_sum "Si O2"
_cell_formula_units_Z 92
_cell_length_a 21.302859
_cell_length_b 15.491895
_cell_length_c 13.827951
_cell_angle_alpha 90.000000
_cell_angle_beta 90.000000
_cell_angle_gamma 90.000000
_cell_volume 4563.523272
_symmetry_space_group_name_H-M "C M M M"
_symmetry_group_IT_number 65
_symmetry_cell_setting 'orthorhombic'
loop_
_space_group_symop_operation_xyz
x,y,z
-x,-y,z
x,-y,-z
-x,y,-z
-x,-y,-z
x,y,-z
-x,y,z
x,-y,z
1/2+x,1/2+y,z
1/2-x,1/2-y,z
1/2+x,1/2-y,-z
1/2-x,1/2+y,-z
1/2-x,1/2-y,-z
1/2+x,1/2+y,-z
1/2-x,1/2+y,z
1/2+x,1/2-y,z
loop_
_atom_site_type_symbol
_atom_site_label
_atom_site_fract_x
_atom_site_fract_y
_atom_site_fract_z
Si Si1 0.124072 0.399086 0.779295
Si Si2 0.500000 0.273364 0.000000
Si Si3 0.107607 0.367191 0.000000
Si Si4 0.232969 0.101929 0.794306
Si Si5 0.500000 0.595071 0.826317
Si Si6 0.386745 0.600638 0.673439
Si Si7 0.743765 0.351138 0.000000
Si Si8 0.425242 0.782684 0.395909
O O1 0.123117 0.500000 0.748849
O O2 0.094893 0.398246 0.888452
O O3 0.196223 0.364143 0.785682
O O4 0.094212 0.337984 0.698002
O O5 0.435479 0.218165 0.000000
O O6 0.500000 0.331378 0.904982
O O7 0.183580 0.381403 0.000000
O O8 0.181147 0.125217 0.716780
O O9 0.239764 0.000000 0.787747
O O10 0.210173 0.121489 0.902468
O O11 0.500000 0.500000 0.872038
O O12 0.438816 0.600871 0.758283
O O13 0.385407 0.500000 0.636816
O O14 0.405252 0.682208 0.609250
O O15 0.750000 0.250000 0.000000
O O16 0.402240 0.818614 0.500000
O O17 0.500000 0.783941 0.396279
#
# Coordination Sequence:
#
# PCOD9491064 Si02
#       8
#    16   4   8  16   8  16   8  16
#     4  10  22  43  65  91 126 162 206 260 307 361
#     4  12  23  34  49  78 126 160 202 256 296 360
#     4  10  23  37  59  89 120 165 202 249 308 360
#     4   9  20  37  60  86 121 162 203 251 304 361
#     4  10  21  34  53  81 119 165 202 242 301 360
#     4  10  21  39  63  90 120 157 200 251 307 366
#     4  10  21  31  52  85 118 162 207 245 290 363
#     4  11  25  43  65  91 121 163 210 254 307 371
#
# _framework density 20.159863000000001
#
# number of rings (size 3 to 8) (size 9 to 14) (size 15 to 20)
#    0.000    1.913    0.870    1.696    8.522    3.130 
#    0.000    6.522    0.000    3.130    0.000    0.000 
#    0.000    0.000    0.000    0.000    0.000    0.000 
#
# Total GULP energy -256070.881984 kJ/mol
# GULP energy per Si atom -5566.758304 kJ/mol
# Density = 2.011398 g / cm^3
# Si number density = 20.159863 Si / 1000 Ang^3
#
#
#
# Elastic Constant Matrix: (Units=GPa)
#
#
# Indices 1 2 3 4 5 6 
#
# 1 45.4501 21.7475 28.0486 0.0000 0.0000 0.0000
# 2 21.7475 71.2172 53.0358 0.0000 0.0000 0.0000
# 3 28.0486 53.0358 117.7532 0.0000 0.0000 0.0000
# 4 0.0000 0.0000 0.0000 -46.5006 0.0000 0.0000
# 5 0.0000 0.0000 0.0000 0.0000 12.2634 0.0000
# 6 0.0000 0.0000 0.0000 0.0000 0.0000 35.3116
#
#
#
# Elastic Compliance Matrix: (Units=1/GPa)
#
#
# Indices 1 2 3 4 5 6 
#
# 1 0.027017 -0.005203 -0.004092 0.000000 0.000000 0.000000
# 2 -0.005203 0.022130 -0.008728 0.000000 0.000000 0.000000
# 3 -0.004092 -0.008728 0.013398 0.000000 0.000000 0.000000
# 4 0.000000 0.000000 0.000000 -0.021505 0.000000 0.000000
# 5 0.000000 0.000000 0.000000 0.000000 0.081543 0.000000
# 6 0.000000 0.000000 0.000000 0.000000 0.000000 0.028319
#
#
# Mechanical properties :
#
#
# Convention : Reuss Voigt Hill
#
# Bulk Modulus (GPa) = 37.73663 48.89826 43.31744
# Shear Modulus (GPa) = 25.53863 8.98745 17.26304
#
# Velocity S-wave (km/s) = 3.56308 2.11371 2.92945
# Velocity P-wave (km/s) = 5.97384 5.50136 5.74246
#
# Compressibility (1/GPa) = 0.02649945
#
# Stress axis : x y z
#
# Youngs Moduli (GPa) = 37.01375 45.18718 74.63696
#
# Poissons Ratio (x) = 0.23510 0.30542
# Poissons Ratio (y) = 0.19257 0.65144
# Poissons Ratio (z) = 0.15146 0.39440
#
# Static dielectric constant tensor:
#      x y z
#    x 1.739080 0.000000 0.000000 
#    y 0.000000 1.715910 0.000000 
#    z 0.000000 0.000000 1.759870 
# 
# From -- ./inp_files/44213.got.cif
#   From: 2010.05.17/outbox.cif.g08.bks.cpg/sg65_23_cif.got.tgz:44213.got - 2010.06.03 17:01:31.
