data_PCOD9491519
_publ_section_title
;
Structure prediction by ZEFSAII (Michael W. Deem and Ramdas Pophale) SiO2 
 PCOD9491519
Probable space group: C M M M
;
_chemical_formula_sum "Si O2"
_cell_formula_units_Z 88
_cell_length_a 14.407882
_cell_length_b 8.404465
_cell_length_c 31.501314
_cell_angle_alpha 90.000000
_cell_angle_beta 90.000000
_cell_angle_gamma 90.000000
_cell_volume 3814.511123
_symmetry_space_group_name_H-M "C M M M"
_symmetry_group_IT_number 65
_symmetry_cell_setting 'orthorhombic'
loop_
_space_group_symop_operation_xyz
x,y,z
-x,-y,z
x,-y,-z
-x,y,-z
-x,-y,-z
x,y,-z
-x,y,z
x,-y,z
1/2+x,1/2+y,z
1/2-x,1/2-y,z
1/2+x,1/2-y,-z
1/2-x,1/2+y,-z
1/2-x,1/2-y,-z
1/2+x,1/2+y,-z
1/2-x,1/2+y,z
1/2+x,1/2-y,z
loop_
_atom_site_type_symbol
_atom_site_label
_atom_site_fract_x
_atom_site_fract_y
_atom_site_fract_z
Si Si1 0.113435 0.175453 0.095965
Si Si2 0.854696 0.310767 0.454742
Si Si3 0.386765 0.179755 0.817142
Si Si4 0.612108 0.311239 0.727786
Si Si5 0.886427 0.500000 0.950756
Si Si6 0.890844 0.176442 0.636963
O O1 0.140288 0.202181 0.145164
O O2 0.143805 0.334452 0.071178
O O3 0.000000 0.175126 0.093987
O O4 0.143941 0.000000 0.080970
O O5 0.896868 0.252873 0.500000
O O6 0.860165 0.500000 0.455513
O O7 0.750000 0.250000 0.456000
O O8 0.886498 0.258505 0.408417
O O9 0.500000 0.181499 0.816723
O O10 0.353990 0.226916 0.770262
O O11 0.358630 0.000000 0.827577
O O12 0.500000 0.295399 0.729963
O O13 0.632544 0.500000 0.729003
O O14 0.643248 0.248344 0.681333
O O15 0.000000 0.500000 0.948123
O O16 0.860368 0.500000 0.000000
O O17 0.000000 0.157823 0.644600
O O18 0.848000 0.000000 0.632255
#
# Coordination Sequence:
#
# PCOD9491519 Si02
#       6
#    16  16  16  16   8  16
#     4   9  15  22  31  41  55  78 109 148 196 249
#     4  10  21  36  53  71  91 118 154 193 230 273
#     4   9  14  20  31  47  67  90 119 154 192 242
#     4   8  14  24  37  55  79 106 132 158 198 254
#     4   9  16  24  30  38  54  74 106 154 201 249
#     4   9  18  32  49  70  97 124 149 182 227 279
#
# _framework density 23.069800000000001
#
# number of rings (size 3 to 8) (size 9 to 14) (size 15 to 20)
#    0.000    3.000    0.909    2.182    0.000    5.091 
#    0.000    5.455    0.000    0.000    0.000    0.000 
#    0.000    0.000    0.000    0.000    0.000    0.000 
#
# Total GULP energy -245298.048602 kJ/mol
# GULP energy per Si atom -5574.955650 kJ/mol
# Density = 2.301729 g / cm^3
# Si number density = 23.069800 Si / 1000 Ang^3
#
#
#
# Elastic Constant Matrix: (Units=GPa)
#
#
# Indices 1 2 3 4 5 6 
#
# 1 57.1061 4.7192 -3.0279 0.0000 0.0000 0.0000
# 2 4.7192 124.3664 90.7265 0.0000 0.0000 0.0000
# 3 -3.0279 90.7265 187.7861 0.0000 0.0000 0.0000
# 4 0.0000 0.0000 0.0000 33.7069 0.0000 0.0000
# 5 0.0000 0.0000 0.0000 0.0000 63.2504 0.0000
# 6 0.0000 0.0000 0.0000 0.0000 0.0000 11.3976
#
#
#
# Elastic Compliance Matrix: (Units=1/GPa)
#
#
# Indices 1 2 3 4 5 6 
#
# 1 0.017673 -0.001357 0.000940 0.000000 0.000000 0.000000
# 2 -0.001357 0.012521 -0.006071 0.000000 0.000000 0.000000
# 3 0.000940 -0.006071 0.008274 0.000000 0.000000 0.000000
# 4 0.000000 0.000000 0.000000 0.029667 0.000000 0.000000
# 5 0.000000 0.000000 0.000000 0.000000 0.015810 0.000000
# 6 0.000000 0.000000 0.000000 0.000000 0.000000 0.087737
#
#
# Mechanical properties :
#
#
# Convention : Reuss Voigt Hill
#
# Bulk Modulus (GPa) = 39.22649 61.56604 50.39627
# Shear Modulus (GPa) = 25.88574 40.12705 33.00640
#
# Velocity S-wave (km/s) = 3.35335 4.17511 3.78659
# Velocity P-wave (km/s) = 5.65982 7.07014 6.40392
#
# Compressibility (1/GPa) = 0.02549297
#
# Stress axis : x y z
#
# Youngs Moduli (GPa) = 56.58276 79.86316 120.86471
#
# Poissons Ratio (x) = 0.10835 -0.11366
# Poissons Ratio (y) = 0.07676 0.73382
# Poissons Ratio (z) = -0.05321 0.48488
#
# Static dielectric constant tensor:
#      x y z
#    x 2.226010 0.000000 0.000000 
#    y 0.000000 1.833000 0.000000 
#    z 0.000000 0.000000 1.899510 
# 
# From -- ./inp_files/77817.got.cif
#   From: 2010.05.17/outbox.cif.g08.bks.cpg/sg65_39_cif.got.tgz:77817.got - 2010.06.03 17:01:31.
