data_PCOD9491031
_publ_section_title
;
Structure prediction by ZEFSAII (Michael W. Deem and Ramdas Pophale) SiO2 
 PCOD9491031
Probable space group: C M M M
;
_chemical_formula_sum "Si O2"
_cell_formula_units_Z 72
_cell_length_a 16.464021
_cell_length_b 17.179172
_cell_length_c 12.219879
_cell_angle_alpha 90.000000
_cell_angle_beta 90.000000
_cell_angle_gamma 90.000000
_cell_volume 3456.249174
_symmetry_space_group_name_H-M "C M M M"
_symmetry_group_IT_number 65
_symmetry_cell_setting 'orthorhombic'
loop_
_space_group_symop_operation_xyz
x,y,z
-x,-y,z
x,-y,-z
-x,y,-z
-x,-y,-z
x,y,-z
-x,y,z
x,-y,z
1/2+x,1/2+y,z
1/2-x,1/2-y,z
1/2+x,1/2-y,-z
1/2-x,1/2+y,-z
1/2-x,1/2-y,-z
1/2+x,1/2+y,-z
1/2-x,1/2+y,z
1/2+x,1/2-y,z
loop_
_atom_site_type_symbol
_atom_site_label
_atom_site_fract_x
_atom_site_fract_y
_atom_site_fract_z
Si Si1 0.864103 0.906661 0.739173
Si Si2 0.872382 0.090580 0.500000
Si Si3 0.824920 0.408522 0.500000
Si Si4 0.407040 0.267944 0.126543
Si Si5 0.096617 0.500000 0.875442
Si Si6 0.826033 0.638295 0.739040
O O1 0.896627 0.878981 0.619411
O O2 0.903946 0.857189 0.834923
O O3 0.768321 0.886096 0.743054
O O4 0.873700 0.000000 0.747049
O O5 0.773758 0.093123 0.500000
O O6 0.896315 0.000000 0.500000
O O7 0.848130 0.500000 0.500000
O O8 0.851764 0.368133 0.387899
O O9 0.500000 0.239340 0.137353
O O10 0.348373 0.219857 0.206312
O O11 0.382728 0.259292 0.000000
O O12 0.127244 0.425253 0.810639
O O13 0.000000 0.500000 0.878821
O O14 0.127917 0.500000 0.000000
#
# Coordination Sequence:
#
# PCOD9491031 Si02
#       6
#    16   8   8  16   8  16
#     4  10  20  39  66  94 117 153 202 252 300 355
#     4   7  14  31  59  89 120 146 181 238 303 359
#     4   9  16  33  60  92 126 155 189 243 306 359
#     4  11  26  44  58  80 123 168 203 248 305 360
#     4  11  22  35  55  83 120 163 197 234 291 352
#     4  11  20  39  63  90 121 156 199 246 297 360
#
# _framework density 20.831831000000001
#
# number of rings (size 3 to 8) (size 9 to 14) (size 15 to 20)
#    0.000    1.889    2.222    3.333    0.000    6.222 
#    0.000    8.889    0.000    2.000    0.000    0.000 
#    0.000    0.000    0.000    0.000    0.000    0.000 
#
# Total GULP energy -201004.988239 kJ/mol
# GULP energy per Si atom -5583.471896 kJ/mol
# Density = 2.078442 g / cm^3
# Si number density = 20.831831 Si / 1000 Ang^3
#
#
#
# Elastic Constant Matrix: (Units=GPa)
#
#
# Indices 1 2 3 4 5 6 
#
# 1 44.3681 13.3374 31.8782 0.0000 0.0000 0.0000
# 2 13.3374 92.9219 48.5277 0.0000 0.0000 0.0000
# 3 31.8782 48.5277 169.5042 0.0000 0.0000 0.0000
# 4 0.0000 0.0000 0.0000 44.8390 0.0000 0.0000
# 5 0.0000 0.0000 0.0000 0.0000 30.9390 0.0000
# 6 0.0000 0.0000 0.0000 0.0000 0.0000 20.4181
#
#
#
# Elastic Compliance Matrix: (Units=1/GPa)
#
#
# Indices 1 2 3 4 5 6 
#
# 1 0.026213 -0.001397 -0.004530 0.000000 0.000000 0.000000
# 2 -0.001397 0.012728 -0.003381 0.000000 0.000000 0.000000
# 3 -0.004530 -0.003381 0.007720 0.000000 0.000000 0.000000
# 4 0.000000 0.000000 0.000000 0.022302 0.000000 0.000000
# 5 0.000000 0.000000 0.000000 0.000000 0.032322 0.000000
# 6 0.000000 0.000000 0.000000 0.000000 0.000000 0.048976
#
#
# Mechanical properties :
#
#
# Convention : Reuss Voigt Hill
#
# Bulk Modulus (GPa) = 35.65702 54.92008 45.28855
# Shear Modulus (GPa) = 28.05443 33.44262 30.74853
#
# Velocity S-wave (km/s) = 3.67374 4.01104 3.84609
# Velocity P-wave (km/s) = 5.92865 6.91896 6.44286
#
# Compressibility (1/GPa) = 0.02804497
#
# Stress axis : x y z
#
# Youngs Moduli (GPa) = 38.14845 78.56672 129.54157
#
# Poissons Ratio (x) = 0.10974 0.58682
# Poissons Ratio (y) = 0.05328 0.43801
# Poissons Ratio (z) = 0.17281 0.26565
#
# Static dielectric constant tensor:
#      x y z
#    x 1.753930 0.000000 0.000000 
#    y 0.000000 1.767980 0.000000 
#    z 0.000000 0.000000 1.750010 
# 
# From -- ./inp_files/26391.got.cif
#   From: 2010.05.17/outbox.cif.g08.bks.cpg/sg65_14_cif.got.tgz:26391.got - 2010.06.03 17:01:31.
