data_PCOD9491665
_publ_section_title
;
Structure prediction by ZEFSAII (Michael W. Deem and Ramdas Pophale) SiO2 
 PCOD9491665
Probable space group: C M M M
;
_chemical_formula_sum "Si O2"
_cell_formula_units_Z 64
_cell_length_a 8.949056
_cell_length_b 15.503048
_cell_length_c 23.538346
_cell_angle_alpha 90.000000
_cell_angle_beta 90.000000
_cell_angle_gamma 90.000000
_cell_volume 3265.654685
_symmetry_space_group_name_H-M "C M M M"
_symmetry_group_IT_number 65
_symmetry_cell_setting 'orthorhombic'
loop_
_space_group_symop_operation_xyz
x,y,z
-x,-y,z
x,-y,-z
-x,y,-z
-x,-y,-z
x,y,-z
-x,y,z
x,-y,z
1/2+x,1/2+y,z
1/2-x,1/2-y,z
1/2+x,1/2-y,-z
1/2-x,1/2+y,-z
1/2-x,1/2-y,-z
1/2+x,1/2+y,-z
1/2-x,1/2+y,z
1/2+x,1/2-y,z
loop_
_atom_site_type_symbol
_atom_site_label
_atom_site_fract_x
_atom_site_fract_y
_atom_site_fract_z
Si Si1 0.832211 0.102395 0.621502
Si Si2 0.322424 0.500000 0.067674
Si Si3 0.679994 0.846150 0.138182
Si Si4 0.322774 0.843649 0.734796
Si Si5 0.683157 0.599898 0.500000
O O1 0.737878 0.113104 0.678076
O O2 0.771509 0.138082 0.561196
O O3 0.000000 0.137579 0.631152
O O4 0.845771 0.000000 0.612317
O O5 0.500000 0.500000 0.079470
O O6 0.248270 0.414907 0.094927
O O7 0.300872 0.500000 0.000000
O O8 0.500000 0.840490 0.132320
O O9 0.750000 0.750000 0.131912
O O10 0.713904 0.879631 0.202533
O O11 0.500000 0.838333 0.731485
O O12 0.250000 0.750000 0.734549
O O13 0.734443 0.500000 0.500000
O O14 0.500000 0.600138 0.500000
#
# Coordination Sequence:
#
# PCOD9491665 Si02
#       5
#    16   8  16  16   8
#     4   9  17  30  51  77 103 138 180 225 278 334
#     4  11  25  43  65  95 127 160 201 244 287 347
#     4  10  22  41  64  90 123 163 202 247 299 351
#     4  10  21  36  54  78 109 142 182 230 279 334
#     4   7  12  26  46  69 100 135 177 223 270 331
#
# _framework density 19.597909000000001
#
# number of rings (size 3 to 8) (size 9 to 14) (size 15 to 20)
#    0.000    2.500    0.000    3.375    1.750    5.000 
#    0.000    1.250    0.000    2.250    0.000    0.000 
#    0.000    0.000    0.000    0.000    0.000    0.000 
#
# Total GULP energy -178300.257927 kJ/mol
# GULP energy per Si atom -5571.883060 kJ/mol
# Density = 1.955330 g / cm^3
# Si number density = 19.597909 Si / 1000 Ang^3
#
#
#
# Elastic Constant Matrix: (Units=GPa)
#
#
# Indices 1 2 3 4 5 6 
#
# 1 78.8797 33.0554 83.8053 0.0000 0.0000 0.0000
# 2 33.0554 64.8769 61.9495 0.0000 0.0000 0.0000
# 3 83.8053 61.9495 175.2552 0.0000 0.0000 0.0000
# 4 0.0000 0.0000 0.0000 101.0703 0.0000 0.0000
# 5 0.0000 0.0000 0.0000 0.0000 83.9300 0.0000
# 6 0.0000 0.0000 0.0000 0.0000 0.0000 23.8042
#
#
#
# Elastic Compliance Matrix: (Units=1/GPa)
#
#
# Indices 1 2 3 4 5 6 
#
# 1 0.025953 -0.002072 -0.011678 0.000000 0.000000 0.000000
# 2 -0.002072 0.023433 -0.007292 0.000000 0.000000 0.000000
# 3 -0.011678 -0.007292 0.013868 0.000000 0.000000 0.000000
# 4 0.000000 0.000000 0.000000 0.009894 0.000000 0.000000
# 5 0.000000 0.000000 0.000000 0.000000 0.011915 0.000000
# 6 0.000000 0.000000 0.000000 0.000000 0.000000 0.042009
#
#
# Mechanical properties :
#
#
# Convention : Reuss Voigt Hill
#
# Bulk Modulus (GPa) = 47.23898 75.18138 61.21018
# Shear Modulus (GPa) = 28.37469 51.10767 39.74118
#
# Velocity S-wave (km/s) = 3.80918 5.11221 4.50803
# Velocity P-wave (km/s) = 6.59567 8.56105 7.64181
#
# Compressibility (1/GPa) = 0.02116896
#
# Stress axis : x y z
#
# Youngs Moduli (GPa) = 38.53077 42.67543 72.10886
#
# Poissons Ratio (x) = 0.08844 0.84209
# Poissons Ratio (y) = 0.07985 0.52582
# Poissons Ratio (z) = 0.44997 0.31119
#
# Static dielectric constant tensor:
#      x y z
#    x 1.677580 0.000000 0.000000 
#    y 0.000000 1.688860 0.000000 
#    z 0.000000 0.000000 1.756860 
# 
# From -- ./inp_files/66746.got.cif
#   From: 2010.05.17/outbox.cif.g08.bks.cpg/sg65_34_cif.got.tgz:66746.got - 2010.06.03 17:01:31.
