data_PCOD9491580
_publ_section_title
;
Structure prediction by ZEFSAII (Michael W. Deem and Ramdas Pophale) SiO2 
 PCOD9491580
Probable space group: C M M M
;
_chemical_formula_sum "Si O2"
_cell_formula_units_Z 80
_cell_length_a 14.803451
_cell_length_b 18.858648
_cell_length_c 14.058946
_cell_angle_alpha 90.000000
_cell_angle_beta 90.000000
_cell_angle_gamma 90.000000
_cell_volume 3924.879138
_symmetry_space_group_name_H-M "C M M M"
_symmetry_group_IT_number 65
_symmetry_cell_setting 'orthorhombic'
loop_
_space_group_symop_operation_xyz
x,y,z
-x,-y,z
x,-y,-z
-x,y,-z
-x,-y,-z
x,y,-z
-x,y,z
x,-y,z
1/2+x,1/2+y,z
1/2-x,1/2-y,z
1/2+x,1/2-y,-z
1/2-x,1/2+y,-z
1/2-x,1/2-y,-z
1/2+x,1/2+y,-z
1/2-x,1/2+y,z
1/2+x,1/2-y,z
loop_
_atom_site_type_symbol
_atom_site_label
_atom_site_fract_x
_atom_site_fract_y
_atom_site_fract_z
Si Si1 0.098419 0.417141 0.615746
Si Si2 0.100680 0.859538 0.780703
Si Si3 0.724769 0.331993 0.387705
Si Si4 0.274183 0.920171 0.885396
Si Si5 0.354268 0.223492 0.108200
O O1 0.097746 0.412712 0.500000
O O2 0.104831 0.500000 0.640056
O O3 0.187885 0.376271 0.645309
O O4 0.000000 0.389775 0.648182
O O5 0.139151 0.853508 0.674368
O O6 0.177381 0.901740 0.839179
O O7 0.099564 0.779890 0.823814
O O8 0.000000 0.889501 0.786431
O O9 0.710140 0.342846 0.500000
O O10 0.750000 0.250000 0.371983
O O11 0.345849 0.858305 0.861104
O O12 0.301675 0.000000 0.860175
O O13 0.263877 0.915910 0.000000
O O14 0.250000 0.250000 0.105660
O O15 0.389227 0.227786 0.000000
#
# Coordination Sequence:
#
# PCOD9491580 Si02
#       5
#    16  16  16  16  16
#     4   8  15  31  56  81 100 122 162 221 284 335
#     4  11  22  34  51  77 111 151 190 223 259 315
#     4  10  21  36  53  75 107 146 185 228 276 321
#     4   9  18  34  57  82 106 135 176 228 281 328
#     4   8  15  31  54  77 102 135 176 221 270 320
#
# _framework density 20.382792999999999
#
# number of rings (size 3 to 8) (size 9 to 14) (size 15 to 20)
#    0.000    2.800    0.000    4.200    0.000    4.000 
#    0.000    3.000    0.000    0.600    0.000    7.000 
#    0.000    0.000    0.000    2.200    0.000    0.400 
#
# Total GULP energy -223204.523476 kJ/mol
# GULP energy per Si atom -5580.113087 kJ/mol
# Density = 2.033640 g / cm^3
# Si number density = 20.382793 Si / 1000 Ang^3
#
#
#
# Elastic Constant Matrix: (Units=GPa)
#
#
# Indices 1 2 3 4 5 6 
#
# 1 68.3954 6.7972 9.8686 0.0000 0.0000 0.0000
# 2 6.7972 93.6412 4.8231 0.0000 0.0000 0.0000
# 3 9.8686 4.8231 67.0583 0.0000 0.0000 0.0000
# 4 0.0000 0.0000 0.0000 -17.3281 0.0000 0.0000
# 5 0.0000 0.0000 0.0000 0.0000 -18.0937 0.0000
# 6 0.0000 0.0000 0.0000 0.0000 0.0000 12.7886
#
#
#
# Elastic Compliance Matrix: (Units=1/GPa)
#
#
# Indices 1 2 3 4 5 6 
#
# 1 0.015027 -0.000981 -0.002141 0.000000 0.000000 0.000000
# 2 -0.000981 0.010783 -0.000631 0.000000 0.000000 0.000000
# 3 -0.002141 -0.000631 0.015273 0.000000 0.000000 0.000000
# 4 0.000000 0.000000 0.000000 -0.057710 0.000000 0.000000
# 5 0.000000 0.000000 0.000000 0.000000 -0.055268 0.000000
# 6 0.000000 0.000000 0.000000 0.000000 0.000000 0.078195
#
#
# Mechanical properties :
#
#
# Convention : Reuss Voigt Hill
#
# Bulk Modulus (GPa) = 29.78192 30.23030 30.00611
# Shear Modulus (GPa) = 200.01654 9.31376 104.66515
#
# Velocity S-wave (km/s) = 9.91681 2.13994 7.17365
# Velocity P-wave (km/s) = 12.07341 4.57922 9.13062
#
# Compressibility (1/GPa) = 0.03357742
#
# Stress axis : x y z
#
# Youngs Moduli (GPa) = 66.54584 92.74076 65.47555
#
# Poissons Ratio (x) = 0.09093 0.14018
# Poissons Ratio (y) = 0.06525 0.04133
# Poissons Ratio (z) = 0.14247 0.05854
#
# Static dielectric constant tensor:
#      x y z
#    x 1.710580 0.000000 0.000000 
#    y 0.000000 1.737620 0.000000 
#    z 0.000000 0.000000 1.752900 
# 
# From -- ./inp_files/40040.got.cif
#   From: 2010.05.17/outbox.cif.g08.bks.cpg/sg65_21_cif.got.tgz:40040.got - 2010.06.03 17:01:31.
