data_PCOD9491370
_publ_section_title
;
Structure prediction by ZEFSAII (Michael W. Deem and Ramdas Pophale) SiO2 
 PCOD9491370
Probable space group: C M M M
;
_chemical_formula_sum "Si O2"
_cell_formula_units_Z 112
_cell_length_a 11.742989
_cell_length_b 37.174323
_cell_length_c 14.188957
_cell_angle_alpha 90.000000
_cell_angle_beta 90.000000
_cell_angle_gamma 90.000000
_cell_volume 6194.014173
_symmetry_space_group_name_H-M "C M M M"
_symmetry_group_IT_number 65
_symmetry_cell_setting 'orthorhombic'
loop_
_space_group_symop_operation_xyz
x,y,z
-x,-y,z
x,-y,-z
-x,y,-z
-x,-y,-z
x,y,-z
-x,y,z
x,-y,z
1/2+x,1/2+y,z
1/2-x,1/2-y,z
1/2+x,1/2-y,-z
1/2-x,1/2+y,-z
1/2-x,1/2-y,-z
1/2+x,1/2+y,-z
1/2-x,1/2+y,z
1/2+x,1/2-y,z
loop_
_atom_site_type_symbol
_atom_site_label
_atom_site_fract_x
_atom_site_fract_y
_atom_site_fract_z
Si Si1 0.136820 0.040810 0.393366
Si Si2 0.369823 0.773140 0.310620
Si Si3 0.365352 0.851606 0.606022
Si Si4 0.363020 0.958918 0.891108
Si Si5 0.311793 0.211711 0.896952
Si Si6 0.127901 0.148560 0.107169
Si Si7 0.258083 0.404067 0.751931
O O1 0.174692 0.049435 0.500000
O O2 0.180989 0.068840 0.318749
O O3 0.000000 0.040945 0.393203
O O4 0.174328 0.000000 0.371867
O O5 0.500000 0.758306 0.333239
O O6 0.250000 0.750000 0.319729
O O7 0.352361 0.809274 0.371308
O O8 0.376993 0.785575 0.201223
O O9 0.321842 0.859248 0.500000
O O10 0.500000 0.859167 0.607227
O O11 0.308621 0.875551 0.686952
O O12 0.500000 0.958524 0.888650
O O13 0.317500 0.928615 0.821290
O O14 0.326590 0.000000 0.866688
O O15 0.328444 0.952117 0.000000
O O16 0.250000 0.250000 0.903539
O O17 0.218112 0.180597 0.884942
O O18 0.132049 0.294387 0.000000
O O19 0.156649 0.118272 0.182313
O O20 0.000000 0.162668 0.120840
O O21 0.135824 0.134377 0.000000
#
# Coordination Sequence:
#
# PCOD9491370 Si02
#       7
#    16  16  16  16  16  16  16
#     4   9  19  35  53  76 107 141 179 226 278 329
#     4  10  21  39  60  86 113 150 193 237 287 340
#     4  10  22  39  56  78 112 147 183 235 296 344
#     4   9  19  35  54  78 108 141 178 223 274 329
#     4   9  18  34  54  79 108 146 186 224 269 326
#     4  10  21  35  52  79 116 151 183 225 280 336
#     4  12  19  33  56  82 105 141 188 226 273 334
#
# _framework density 18.081973999999999
#
# number of rings (size 3 to 8) (size 9 to 14) (size 15 to 20)
#    0.000    2.143    1.429    3.000    0.000    2.857 
#    0.000    2.857    0.000    1.714    0.000   12.000 
#    0.000    0.000    0.000    0.000    0.000    0.000 
#
# Total GULP energy -311899.756129 kJ/mol
# GULP energy per Si atom -5569.638502 kJ/mol
# Density = 1.804082 g / cm^3
# Si number density = 18.081974 Si / 1000 Ang^3
#
#
#
# Elastic Constant Matrix: (Units=GPa)
#
#
# Indices 1 2 3 4 5 6 
#
# 1 76.4441 37.2007 30.7544 0.0000 0.0000 0.0000
# 2 37.2007 78.7654 48.1162 0.0000 0.0000 0.0000
# 3 30.7544 48.1162 89.1220 0.0000 0.0000 0.0000
# 4 0.0000 0.0000 0.0000 40.6827 0.0000 0.0000
# 5 0.0000 0.0000 0.0000 0.0000 24.2015 0.0000
# 6 0.0000 0.0000 0.0000 0.0000 0.0000 19.7558
#
#
#
# Elastic Compliance Matrix: (Units=1/GPa)
#
#
# Indices 1 2 3 4 5 6 
#
# 1 0.017303 -0.006751 -0.002326 0.000000 0.000000 0.000000
# 2 -0.006751 0.021578 -0.009320 0.000000 0.000000 0.000000
# 3 -0.002326 -0.009320 0.017055 0.000000 0.000000 0.000000
# 4 0.000000 0.000000 0.000000 0.024580 0.000000 0.000000
# 5 0.000000 0.000000 0.000000 0.000000 0.041320 0.000000
# 6 0.000000 0.000000 0.000000 0.000000 0.000000 0.050618
#
#
# Mechanical properties :
#
#
# Convention : Reuss Voigt Hill
#
# Bulk Modulus (GPa) = 52.24298 52.94156 52.59227
# Shear Modulus (GPa) = 23.18804 25.47867 24.33336
#
# Velocity S-wave (km/s) = 3.58492 3.75782 3.67239
# Velocity P-wave (km/s) = 6.78901 6.94050 6.86517
#
# Compressibility (1/GPa) = 0.01914133
#
# Stress axis : x y z
#
# Youngs Moduli (GPa) = 57.79503 46.34374 58.63374
#
# Poissons Ratio (x) = 0.31287 0.13638
# Poissons Ratio (y) = 0.39018 0.54647
# Poissons Ratio (z) = 0.13443 0.43193
#
# Static dielectric constant tensor:
#      x y z
#    x 1.611630 0.000000 0.000000 
#    y 0.000000 1.605790 0.000000 
#    z 0.000000 0.000000 1.640680 
# 
# From -- ./inp_files/39006.got.cif
#   From: 2010.05.17/outbox.cif.g08.bks.cpg/sg65_20_cif.got.tgz:39006.got - 2010.06.03 17:01:31.
