data_PCOD9492943
_publ_section_title
;
Structure prediction by ZEFSAII (Michael W. Deem and Ramdas Pophale) SiO2 
 PCOD9492943
Probable space group: C M M M
;
_chemical_formula_sum "Si O2"
_cell_formula_units_Z 88
_cell_length_a 24.103280
_cell_length_b 8.543972
_cell_length_c 23.291508
_cell_angle_alpha 90.000000
_cell_angle_beta 90.000000
_cell_angle_gamma 90.000000
_cell_volume 4796.600738
_symmetry_space_group_name_H-M "C M M M"
_symmetry_group_IT_number 65
_symmetry_cell_setting 'orthorhombic'
loop_
_space_group_symop_operation_xyz
x,y,z
-x,-y,z
x,-y,-z
-x,y,-z
-x,-y,-z
x,y,-z
-x,y,z
x,-y,z
1/2+x,1/2+y,z
1/2-x,1/2-y,z
1/2+x,1/2-y,-z
1/2-x,1/2+y,-z
1/2-x,1/2-y,-z
1/2+x,1/2+y,-z
1/2-x,1/2+y,z
1/2+x,1/2-y,z
loop_
_atom_site_type_symbol
_atom_site_label
_atom_site_fract_x
_atom_site_fract_y
_atom_site_fract_z
Si Si1 0.886625 0.187457 0.322451
Si Si2 0.312087 0.812390 0.776432
Si Si3 0.935993 0.688694 0.433909
Si Si4 0.188003 0.311126 0.000000
Si Si5 0.000000 0.187265 0.870668
Si Si6 0.619378 0.811132 0.888614
Si Si7 0.000000 0.809950 0.261785
O O1 0.837302 0.255141 0.283945
O O2 0.893726 0.241599 0.387904
O O3 0.944031 0.243119 0.292550
O O4 0.884068 0.000000 0.320072
O O5 0.250000 0.750000 0.785205
O O6 0.352342 0.758237 0.828665
O O7 0.311006 0.000000 0.777226
O O8 0.924146 0.731777 0.500000
O O9 0.934987 0.500000 0.430126
O O10 0.000000 0.739185 0.421500
O O11 0.250000 0.250000 0.000000
O O12 0.156405 0.259952 0.942447
O O13 0.188643 0.500000 0.000000
O O14 0.942833 0.250052 0.896040
O O15 0.000000 0.239438 0.804052
O O16 0.000000 0.000000 0.872674
O O17 0.617961 0.000000 0.887505
O O18 0.000000 0.000000 0.263366
#
# Coordination Sequence:
#
# PCOD9492943 Si02
#       7
#    16  16  16   8   8  16   8
#     4  11  20  34  55  81 113 147 185 230 278 328
#     4  11  23  38  57  82 109 143 186 231 280 332
#     4   9  18  32  50  77 114 151 186 225 271 326
#     4  10  22  41  62  83 111 148 192 238 281 330
#     4  11  21  36  58  84 117 150 184 226 278 335
#     4  10  22  39  59  84 114 148 185 228 282 338
#     4   9  18  31  49  79 113 145 178 220 275 324
#
# _framework density 18.346326000000001
#
# number of rings (size 3 to 8) (size 9 to 14) (size 15 to 20)
#    0.000    1.818    2.727    2.455    0.000    2.182 
#    0.000    2.727    0.000    0.545    0.000    0.000 
#    0.000    0.000    0.000    0.000    0.000    0.000 
#
# Total GULP energy -245676.597660 kJ/mol
# GULP energy per Si atom -5583.559038 kJ/mol
# Density = 1.830457 g / cm^3
# Si number density = 18.346326 Si / 1000 Ang^3
#
#
#
# Elastic Constant Matrix: (Units=GPa)
#
#
# Indices 1 2 3 4 5 6 
#
# 1 136.0855 26.5537 61.9873 0.0000 0.0000 0.0000
# 2 26.5537 30.9618 28.5408 0.0000 0.0000 0.0000
# 3 61.9873 28.5408 121.9903 0.0000 0.0000 0.0000
# 4 0.0000 0.0000 0.0000 14.2697 0.0000 0.0000
# 5 0.0000 0.0000 0.0000 0.0000 20.9574 0.0000
# 6 0.0000 0.0000 0.0000 0.0000 0.0000 29.9504
#
#
#
# Elastic Compliance Matrix: (Units=1/GPa)
#
#
# Indices 1 2 3 4 5 6 
#
# 1 0.010141 -0.005033 -0.003976 0.000000 0.000000 0.000000
# 2 -0.005033 0.043676 -0.007661 0.000000 0.000000 0.000000
# 3 -0.003976 -0.007661 0.012010 0.000000 0.000000 0.000000
# 4 0.000000 0.000000 0.000000 0.070079 0.000000 0.000000
# 5 0.000000 0.000000 0.000000 0.000000 0.047716 0.000000
# 6 0.000000 0.000000 0.000000 0.000000 0.000000 0.033389
#
#
# Mechanical properties :
#
#
# Convention : Reuss Voigt Hill
#
# Bulk Modulus (GPa) = 30.78027 58.13347 44.45687
# Shear Modulus (GPa) = 19.14396 24.49920 21.82158
#
# Velocity S-wave (km/s) = 3.23379 3.65824 3.45255
# Velocity P-wave (km/s) = 5.54590 7.04267 6.33862
#
# Compressibility (1/GPa) = 0.03248835
#
# Stress axis : x y z
#
# Youngs Moduli (GPa) = 98.60730 22.89579 83.26433
#
# Poissons Ratio (x) = 0.11523 0.33103
# Poissons Ratio (y) = 0.49625 0.63790
# Poissons Ratio (z) = 0.39203 0.17541
#
# Static dielectric constant tensor:
#      x y z
#    x 1.607670 0.000000 0.000000 
#    y 0.000000 1.618020 0.000000 
#    z 0.000000 0.000000 1.639830 
# 
# From -- ./inp_files/65235.got.cif
#   From: 2010.05.17/outbox.cif.g08.bks.cpg/sg65_33_cif.got.tgz:65235.got - 2010.06.03 17:01:31.
