data_PCOD9492217
_publ_section_title
;
Structure prediction by ZEFSAII (Michael W. Deem and Ramdas Pophale) SiO2 
 PCOD9492217
Probable space group: C M M M
;
_chemical_formula_sum "Si O2"
_cell_formula_units_Z 116
_cell_length_a 25.533170
_cell_length_b 26.740206
_cell_length_c 8.952724
_cell_angle_alpha 90.000000
_cell_angle_beta 90.000000
_cell_angle_gamma 90.000000
_cell_volume 6112.581764
_symmetry_space_group_name_H-M "C M M M"
_symmetry_group_IT_number 65
_symmetry_cell_setting 'orthorhombic'
loop_
_space_group_symop_operation_xyz
x,y,z
-x,-y,z
x,-y,-z
-x,y,-z
-x,-y,-z
x,y,-z
-x,y,z
x,-y,z
1/2+x,1/2+y,z
1/2-x,1/2-y,z
1/2+x,1/2-y,-z
1/2-x,1/2+y,-z
1/2-x,1/2-y,-z
1/2+x,1/2+y,-z
1/2-x,1/2+y,z
1/2+x,1/2-y,z
loop_
_atom_site_type_symbol
_atom_site_label
_atom_site_fract_x
_atom_site_fract_y
_atom_site_fract_z
Si Si1 0.847721 0.500000 0.500000
Si Si2 0.733742 0.389142 0.824668
Si Si3 0.588316 0.741039 0.323578
Si Si4 0.941435 0.344369 0.178273
Si Si5 0.655913 0.896212 0.664835
Si Si6 0.694871 0.723268 0.173404
Si Si7 0.560550 0.635697 0.824374
Si Si8 0.859798 0.942256 0.678028
O O1 0.847234 0.544895 0.627488
O O2 0.791487 0.385491 0.756334
O O3 0.704777 0.335726 0.809175
O O4 0.697891 0.428679 0.737929
O O5 0.736465 0.401004 0.000000
O O6 0.579674 0.742731 0.500000
O O7 0.562839 0.788524 0.243686
O O8 0.649805 0.741974 0.281848
O O9 0.568051 0.688821 0.256245
O O10 0.895408 0.376510 0.252120
O O11 0.000000 0.363960 0.211241
O O12 0.934643 0.342737 0.000000
O O13 0.659062 0.871182 0.500000
O O14 0.750000 0.750000 0.199379
O O15 0.679471 0.733052 0.000000
O O16 0.500000 0.620179 0.809260
O O17 0.599044 0.594830 0.754589
O O18 0.572639 0.641824 0.000000
O O19 0.860951 0.935003 0.500000
O O20 0.871935 0.000000 0.711191
#
# Coordination Sequence:
#
# PCOD9492217 Si02
#       8
#     4  16  16  16  16  16  16  16
#     4   8  24  44  67  98 130 172 207 264 328 386
#     4  11  22  37  63  95 130 172 215 262 317 381
#     4  12  24  38  62  95 130 169 214 260 317 383
#     4  11  24  43  67  95 129 170 217 269 322 384
#     4  10  22  42  66  94 130 167 210 263 320 382
#     4  10  21  37  58  87 128 171 209 255 310 375
#     4  11  24  43  65  90 125 167 214 269 322 378
#     4  11  25  42  63  91 125 167 215 270 325 380
#
# _framework density 18.977252
#
# number of rings (size 3 to 8) (size 9 to 14) (size 15 to 20)
#    0.414    0.828    1.379    4.552    0.966    7.172 
#    0.000    3.103    0.000    0.828    0.000    0.000 
#    0.000    0.000    0.000    0.000    0.000    0.000 
#
# Total GULP energy -323661.367159 kJ/mol
# GULP energy per Si atom -5580.368399 kJ/mol
# Density = 1.893406 g / cm^3
# Si number density = 18.977252 Si / 1000 Ang^3
#
#
#
# Elastic Constant Matrix: (Units=GPa)
#
#
# Indices 1 2 3 4 5 6 
#
# 1 99.2973 8.0705 33.7900 0.0000 0.0000 0.0000
# 2 8.0705 32.9560 11.5045 0.0000 0.0000 0.0000
# 3 33.7900 11.5045 76.6623 0.0000 0.0000 0.0000
# 4 0.0000 0.0000 0.0000 -0.8733 0.0000 0.0000
# 5 0.0000 0.0000 0.0000 0.0000 96.3078 0.0000
# 6 0.0000 0.0000 0.0000 0.0000 0.0000 -5.4054
#
#
#
# Elastic Compliance Matrix: (Units=1/GPa)
#
#
# Indices 1 2 3 4 5 6 
#
# 1 0.011888 -0.001142 -0.005069 0.000000 0.000000 0.000000
# 2 -0.001142 0.032131 -0.004318 0.000000 0.000000 0.000000
# 3 -0.005069 -0.004318 0.015926 0.000000 0.000000 0.000000
# 4 0.000000 0.000000 0.000000 -1.145078 0.000000 0.000000
# 5 0.000000 0.000000 0.000000 0.000000 0.010383 0.000000
# 6 0.000000 0.000000 0.000000 0.000000 0.000000 -0.185001
#
#
# Mechanical properties :
#
#
# Convention : Reuss Voigt Hill
#
# Bulk Modulus (GPa) = 25.71528 35.07174 30.39351
# Shear Modulus (GPa) = -4.07920 28.37586 12.14833
#
# Velocity S-wave (km/s) = -1.46772 3.87105 2.53287
# Velocity P-wave (km/s) = 3.27227 6.20492 4.96028
#
# Compressibility (1/GPa) = 0.03888738
#
# Stress axis : x y z
#
# Youngs Moduli (GPa) = 84.11575 31.12297 62.78912
#
# Poissons Ratio (x) = 0.03554 0.31825
# Poissons Ratio (y) = 0.09605 0.27115
# Poissons Ratio (z) = 0.42635 0.13440
#
# Static dielectric constant tensor:
#      x y z
#    x 1.659630 0.000000 0.000000 
#    y 0.000000 1.639010 0.000000 
#    z 0.000000 0.000000 1.644860 
# 
# From -- ./inp_files/14870.got.cif
#   From: 2010.05.17/outbox.cif.g08.bks.cpg/sg65_8_cif.got.tgz:14870.got - 2010.06.03 17:01:31.
