data_PCOD9492177
_publ_section_title
;
Structure prediction by ZEFSAII (Michael W. Deem and Ramdas Pophale) SiO2 
 PCOD9492177
Probable space group: C M M M
;
_chemical_formula_sum "Si O2"
_cell_formula_units_Z 64
_cell_length_a 19.014526
_cell_length_b 8.957372
_cell_length_c 20.585533
_cell_angle_alpha 90.000000
_cell_angle_beta 90.000000
_cell_angle_gamma 90.000000
_cell_volume 3506.131743
_symmetry_space_group_name_H-M "C M M M"
_symmetry_group_IT_number 65
_symmetry_cell_setting 'orthorhombic'
loop_
_space_group_symop_operation_xyz
x,y,z
-x,-y,z
x,-y,-z
-x,y,-z
-x,-y,-z
x,y,-z
-x,y,z
x,-y,z
1/2+x,1/2+y,z
1/2-x,1/2-y,z
1/2+x,1/2-y,-z
1/2-x,1/2+y,-z
1/2-x,1/2-y,-z
1/2+x,1/2+y,-z
1/2-x,1/2+y,z
1/2+x,1/2-y,z
loop_
_atom_site_type_symbol
_atom_site_label
_atom_site_fract_x
_atom_site_fract_y
_atom_site_fract_z
Si Si1 0.825498 0.678117 0.924152
Si Si2 0.418447 0.320417 0.185550
Si Si3 0.418102 0.820924 0.575643
Si Si4 0.173171 0.178789 0.311927
O O1 0.821072 0.500000 0.916947
O O2 0.750000 0.750000 0.907615
O O3 0.883876 0.744341 0.876871
O O4 0.839964 0.712206 0.000000
O O5 0.500000 0.278773 0.193525
O O6 0.414691 0.500000 0.178297
O O7 0.373415 0.279517 0.249087
O O8 0.404094 0.785259 0.500000
O O9 0.500000 0.783560 0.589076
O O10 0.366948 0.737762 0.624542
O O11 0.410635 0.000000 0.583078
O O12 0.250000 0.250000 0.307118
O O13 0.178890 0.000000 0.314103
#
# Coordination Sequence:
#
# PCOD9492177 Si02
#       4
#    16  16  16  16
#     4  10  21  37  58  84 113 146 185 227 272 325
#     4  10  22  39  58  82 112 145 183 228 277 329
#     4   9  19  37  60  85 113 145 182 225 274 328
#     4  11  23  38  57  82 112 146 186 230 275 326
#
# _framework density 18.253734999999999
#
# number of rings (size 3 to 8) (size 9 to 14) (size 15 to 20)
#    0.000    2.000    0.000    3.750    0.000    9.000 
#    0.000    3.750    0.000    0.000    0.000    0.000 
#    0.000    0.000    0.000    0.000    0.000    0.000 
#
# Total GULP energy -178798.506183 kJ/mol
# GULP energy per Si atom -5587.453318 kJ/mol
# Density = 1.821219 g / cm^3
# Si number density = 18.253735 Si / 1000 Ang^3
#
#
#
# Elastic Constant Matrix: (Units=GPa)
#
#
# Indices 1 2 3 4 5 6 
#
# 1 184.9699 69.6998 114.8393 0.0000 0.0000 0.0000
# 2 69.6998 41.1016 55.5919 0.0000 0.0000 0.0000
# 3 114.8393 55.5919 112.6474 0.0000 0.0000 0.0000
# 4 0.0000 0.0000 0.0000 35.0254 0.0000 0.0000
# 5 0.0000 0.0000 0.0000 0.0000 41.9564 0.0000
# 6 0.0000 0.0000 0.0000 0.0000 0.0000 25.5193
#
#
#
# Elastic Compliance Matrix: (Units=1/GPa)
#
#
# Indices 1 2 3 4 5 6 
#
# 1 0.018024 -0.017180 -0.009897 0.000000 0.000000 0.000000
# 2 -0.017180 0.089544 -0.026676 0.000000 0.000000 0.000000
# 3 -0.009897 -0.026676 0.032132 0.000000 0.000000 0.000000
# 4 0.000000 0.000000 0.000000 0.028551 0.000000 0.000000
# 5 0.000000 0.000000 0.000000 0.000000 0.023834 0.000000
# 6 0.000000 0.000000 0.000000 0.000000 0.000000 0.039186
#
#
# Mechanical properties :
#
#
# Convention : Reuss Voigt Hill
#
# Bulk Modulus (GPa) = 31.06145 90.99787 61.02966
# Shear Modulus (GPa) = 14.30580 27.07276 20.68928
#
# Velocity S-wave (km/s) = 2.80254 3.85533 3.37029
# Velocity P-wave (km/s) = 5.24649 8.35332 6.97509
#
# Compressibility (1/GPa) = 0.03219425
#
# Stress axis : x y z
#
# Youngs Moduli (GPa) = 55.48035 11.16768 31.12190
#
# Poissons Ratio (x) = 0.19186 0.30801
# Poissons Ratio (y) = 0.95313 0.83022
# Poissons Ratio (z) = 0.54909 0.29791
#
# Static dielectric constant tensor:
#      x y z
#    x 1.596880 0.000000 0.000000 
#    y 0.000000 1.609780 0.000000 
#    z 0.000000 0.000000 1.607400 
# 
# From -- ./inp_files/49033.got.cif
#   From: 2010.05.17/outbox.cif.g08.bks.cpg/sg65_25_cif.got.tgz:49033.got - 2010.06.03 17:01:31.
