data_PCOD9492478
_publ_section_title
;
Structure prediction by ZEFSAII (Michael W. Deem and Ramdas Pophale) SiO2 
 PCOD9492478
Probable space group: C M M M
;
_chemical_formula_sum "Si O2"
_cell_formula_units_Z 80
_cell_length_a 18.717941
_cell_length_b 8.670242
_cell_length_c 27.173890
_cell_angle_alpha 90.000000
_cell_angle_beta 90.000000
_cell_angle_gamma 90.000000
_cell_volume 4410.025560
_symmetry_space_group_name_H-M "C M M M"
_symmetry_group_IT_number 65
_symmetry_cell_setting 'orthorhombic'
loop_
_space_group_symop_operation_xyz
x,y,z
-x,-y,z
x,-y,-z
-x,y,-z
-x,-y,-z
x,y,-z
-x,y,z
x,-y,z
1/2+x,1/2+y,z
1/2-x,1/2-y,z
1/2+x,1/2-y,-z
1/2-x,1/2+y,-z
1/2-x,1/2-y,-z
1/2+x,1/2+y,-z
1/2-x,1/2+y,z
1/2+x,1/2-y,z
loop_
_atom_site_type_symbol
_atom_site_label
_atom_site_fract_x
_atom_site_fract_y
_atom_site_fract_z
Si Si1 0.168817 0.685531 0.659523
Si Si2 0.168971 0.686226 0.447041
Si Si3 0.830380 0.816503 0.238766
Si Si4 0.916201 0.684007 0.853144
Si Si5 0.329406 0.684715 0.056590
O O1 0.170343 0.500000 0.663268
O O2 0.250000 0.750000 0.658458
O O3 0.136574 0.730266 0.606098
O O4 0.137596 0.754052 0.709649
O O5 0.136418 0.733794 0.500000
O O6 0.172290 0.500000 0.446826
O O7 0.250000 0.750000 0.447181
O O8 0.750000 0.750000 0.233944
O O9 0.875759 0.761460 0.192438
O O10 0.826068 0.000000 0.240667
O O11 0.906804 0.500000 0.849987
O O12 0.882275 0.743982 0.903751
O O13 0.000000 0.719825 0.851386
O O14 0.328007 0.500000 0.061537
O O15 0.250000 0.750000 0.065508
O O16 0.348766 0.722725 0.000000
#
# Coordination Sequence:
#
# PCOD9492478 Si02
#       5
#    16  16  16  16  16
#     4   9  15  24  39  60  88 121 161 205 248 297
#     4   8  13  20  31  50  79 116 154 193 240 293
#     4  11  21  34  53  74 100 133 172 215 257 305
#     4  11  24  40  57  78 106 138 172 212 258 306
#     4  10  21  38  61  87 114 143 175 210 247 292
#
# _framework density 18.140484000000001
#
# number of rings (size 3 to 8) (size 9 to 14) (size 15 to 20)
#    0.000    2.200    0.000    5.400    0.000    4.000 
#    0.000    2.000    0.000    0.000    0.000    0.000 
#    0.000    0.800    0.000    9.200    0.000    6.000 
#
# Total GULP energy -222969.851186 kJ/mol
# GULP energy per Si atom -5574.246280 kJ/mol
# Density = 1.809920 g / cm^3
# Si number density = 18.140484 Si / 1000 Ang^3
#
#
#
# Elastic Constant Matrix: (Units=GPa)
#
#
# Indices 1 2 3 4 5 6 
#
# 1 43.4948 43.3257 70.0535 0.0000 0.0000 0.0000
# 2 43.3257 81.4075 73.5394 0.0000 0.0000 0.0000
# 3 70.0535 73.5394 186.8458 0.0000 0.0000 0.0000
# 4 0.0000 0.0000 0.0000 16.5036 0.0000 0.0000
# 5 0.0000 0.0000 0.0000 0.0000 -6.4047 0.0000
# 6 0.0000 0.0000 0.0000 0.0000 0.0000 17.3745
#
#
#
# Elastic Compliance Matrix: (Units=1/GPa)
#
#
# Indices 1 2 3 4 5 6 
#
# 1 0.080005 -0.024024 -0.020541 0.000000 0.000000 0.000000
# 2 -0.024024 0.026275 -0.001334 0.000000 0.000000 0.000000
# 3 -0.020541 -0.001334 0.013578 0.000000 0.000000 0.000000
# 4 0.000000 0.000000 0.000000 0.060593 0.000000 0.000000
# 5 0.000000 0.000000 0.000000 0.000000 -0.156134 0.000000
# 6 0.000000 0.000000 0.000000 0.000000 0.000000 0.057556
#
#
# Mechanical properties :
#
#
# Convention : Reuss Voigt Hill
#
# Bulk Modulus (GPa) = 35.63697 76.17615 55.90656
# Shear Modulus (GPa) = 27.31910 13.81664 20.56787
#
# Velocity S-wave (km/s) = 3.88490 2.76279 3.37086
# Velocity P-wave (km/s) = 6.30959 7.22917 6.78497
#
# Compressibility (1/GPa) = 0.02806075
#
# Stress axis : x y z
#
# Youngs Moduli (GPa) = 12.49926 38.05937 73.64701
#
# Poissons Ratio (x) = 0.91433 1.51275
# Poissons Ratio (y) = 0.30028 0.09825
# Poissons Ratio (z) = 0.25674 0.05078
#
# Static dielectric constant tensor:
#      x y z
#    x 1.578870 0.000000 0.000000 
#    y 0.000000 1.609330 0.000000 
#    z 0.000000 0.000000 1.689630 
# 
# From -- ./inp_files/72747.got.cif
#   From: 2010.05.17/outbox.cif.g08.bks.cpg/sg65_37_cif.got.tgz:72747.got - 2010.06.03 17:01:31.
