data_PCOD9492733
_publ_section_title
;
Structure prediction by ZEFSAII (Michael W. Deem and Ramdas Pophale) SiO2 
 PCOD9492733
Probable space group: C M M M
;
_chemical_formula_sum "Si O2"
_cell_formula_units_Z 72
_cell_length_a 29.802995
_cell_length_b 15.029572
_cell_length_c 8.146275
_cell_angle_alpha 90.000000
_cell_angle_beta 90.000000
_cell_angle_gamma 90.000000
_cell_volume 3648.930487
_symmetry_space_group_name_H-M "C M M M"
_symmetry_group_IT_number 65
_symmetry_cell_setting 'orthorhombic'
loop_
_space_group_symop_operation_xyz
x,y,z
-x,-y,z
x,-y,-z
-x,y,-z
-x,-y,-z
x,y,-z
-x,y,z
x,-y,z
1/2+x,1/2+y,z
1/2-x,1/2-y,z
1/2+x,1/2-y,-z
1/2-x,1/2+y,-z
1/2-x,1/2-y,-z
1/2+x,1/2+y,-z
1/2-x,1/2+y,z
1/2+x,1/2-y,z
loop_
_atom_site_type_symbol
_atom_site_label
_atom_site_fract_x
_atom_site_fract_y
_atom_site_fract_z
Si Si1 0.703707 0.198720 0.194884
Si Si2 0.628415 0.328825 0.308078
Si Si3 0.054469 0.400350 0.500000
Si Si4 0.818797 0.000000 0.809953
Si Si5 0.553365 0.215963 0.815598
Si Si6 0.279908 0.000000 0.688641
O O1 0.750000 0.250000 0.242249
O O2 0.662915 0.247034 0.285142
O O3 0.705628 0.093635 0.231376
O O4 0.698000 0.212135 0.000000
O O5 0.619977 0.344097 0.500000
O O6 0.652397 0.413376 0.229384
O O7 0.582788 0.303015 0.216227
O O8 0.072370 0.500000 0.500000
O O9 0.066662 0.349491 0.333066
O O10 0.000000 0.404180 0.500000
O O11 0.774112 0.000000 0.701990
O O12 0.804455 0.000000 0.000000
O O13 0.500000 0.231802 0.803061
O O14 0.562360 0.181363 0.000000
O O15 0.294289 0.000000 0.500000
#
# Coordination Sequence:
#
# PCOD9492733 Si02
#       6
#    16  16   8   8  16   8
#     4  11  23  40  63  88 122 163 204 253 310 372
#     4  12  24  41  65  94 125 163 210 262 317 377
#     4   9  18  36  62  91 122 159 207 261 313 371
#     4  12  24  40  63  91 124 163 211 258 312 382
#     4  10  21  40  65  92 127 170 212 261 321 380
#     4  12  24  40  62  91 124 163 210 260 316 375
#
# _framework density 19.731808999999998
#
# number of rings (size 3 to 8) (size 9 to 14) (size 15 to 20)
#    0.000    1.000    3.333    4.667    0.000    1.333 
#    2.000    2.778    0.000    3.333    0.000    0.000 
#    0.000    0.000    0.000    0.000    0.000    0.000 
#
# Total GULP energy -201220.895598 kJ/mol
# GULP energy per Si atom -5589.469322 kJ/mol
# Density = 1.968690 g / cm^3
# Si number density = 19.731809 Si / 1000 Ang^3
#
#
#
# Elastic Constant Matrix: (Units=GPa)
#
#
# Indices 1 2 3 4 5 6 
#
# 1 44.5531 21.3073 14.3300 0.0000 0.0000 0.0000
# 2 21.3073 110.0864 3.0056 0.0000 0.0000 0.0000
# 3 14.3300 3.0056 100.4101 0.0000 0.0000 0.0000
# 4 0.0000 0.0000 0.0000 -25.5544 0.0000 0.0000
# 5 0.0000 0.0000 0.0000 0.0000 25.0785 0.0000
# 6 0.0000 0.0000 0.0000 0.0000 0.0000 -8.2321
#
#
#
# Elastic Compliance Matrix: (Units=1/GPa)
#
#
# Indices 1 2 3 4 5 6 
#
# 1 0.025944 -0.004924 -0.003555 0.000000 0.000000 0.000000
# 2 -0.004924 0.010026 0.000403 0.000000 0.000000 0.000000
# 3 -0.003555 0.000403 0.010454 0.000000 0.000000 0.000000
# 4 0.000000 0.000000 0.000000 -0.039132 0.000000 0.000000
# 5 0.000000 0.000000 0.000000 0.000000 0.039875 0.000000
# 6 0.000000 0.000000 0.000000 0.000000 0.000000 -0.121475
#
#
# Mechanical properties :
#
#
# Convention : Reuss Voigt Hill
#
# Bulk Modulus (GPa) = 33.03557 36.92614 34.98086
# Shear Modulus (GPa) = -104.02625 12.68550 -45.67037
#
# Velocity S-wave (km/s) = -7.26874 2.53829 -4.81620
# Velocity P-wave (km/s) = 7.32580 5.22926 3.62782
#
# Compressibility (1/GPa) = 0.03027040
#
# Stress axis : x y z
#
# Youngs Moduli (GPa) = 38.54506 99.74180 95.65281
#
# Poissons Ratio (x) = 0.49116 0.34006
# Poissons Ratio (y) = 0.18981 -0.03852
# Poissons Ratio (z) = 0.13703 -0.04016
#
# Static dielectric constant tensor:
#      x y z
#    x 1.690840 0.000000 0.000000 
#    y 0.000000 1.684300 0.000000 
#    z 0.000000 0.000000 1.687420 
# 
# From -- ./inp_files/15829.got.cif
#   From: 2010.05.17/outbox.cif.g08.bks.cpg/sg65_8_cif.got.tgz:15829.got - 2010.06.03 17:01:31.
