data_PCOD9492465
_publ_section_title
;
Structure prediction by ZEFSAII (Michael W. Deem and Ramdas Pophale) SiO2 
 PCOD9492465
Probable space group: C M M M
;
_chemical_formula_sum "Si O2"
_cell_formula_units_Z 90
_cell_length_a 17.979404
_cell_length_b 21.415557
_cell_length_c 11.425554
_cell_angle_alpha 90.000000
_cell_angle_beta 90.000000
_cell_angle_gamma 90.000000
_cell_volume 4399.283329
_symmetry_space_group_name_H-M "C M M M"
_symmetry_group_IT_number 65
_symmetry_cell_setting 'orthorhombic'
loop_
_space_group_symop_operation_xyz
x,y,z
-x,-y,z
x,-y,-z
-x,y,-z
-x,-y,-z
x,y,-z
-x,y,z
x,-y,z
1/2+x,1/2+y,z
1/2-x,1/2-y,z
1/2+x,1/2-y,-z
1/2-x,1/2+y,-z
1/2-x,1/2-y,-z
1/2+x,1/2+y,-z
1/2-x,1/2+y,z
1/2+x,1/2-y,z
loop_
_atom_site_type_symbol
_atom_site_label
_atom_site_fract_x
_atom_site_fract_y
_atom_site_fract_z
Si Si1 0.651576 0.866721 0.733610
Si Si2 0.417273 0.000000 0.245746
Si Si3 0.329328 0.573857 0.500000
Si Si4 0.914736 0.926279 0.255749
Si Si5 0.804521 0.839989 0.863837
Si Si6 0.000000 0.500000 0.000000
Si Si7 0.206634 0.683593 0.500000
Si Si8 0.418608 0.237904 0.140301
O O1 0.732237 0.859440 0.792871
O O2 0.656848 0.827791 0.614179
O O3 0.593285 0.832353 0.818001
O O4 0.627782 0.938096 0.719844
O O5 0.500000 0.000000 0.301704
O O6 0.435928 0.000000 0.106116
O O7 0.305883 0.500000 0.500000
O O8 0.377531 0.584345 0.617220
O O9 0.264384 0.625057 0.500000
O O10 0.867044 0.891906 0.157714
O O11 0.000000 0.905672 0.256561
O O12 0.912974 0.000000 0.235142
O O13 0.847014 0.777756 0.819951
O O14 0.785191 0.832433 0.000000
O O15 0.250000 0.750000 0.500000
O O16 0.500000 0.260447 0.180195
O O17 0.417832 0.241490 0.000000
#
# Coordination Sequence:
#
# PCOD9492465 Si02
#       8
#    16   8   8  16  16   2   8  16
#     4  12  25  42  69  96 131 175 225 281 345 398
#     4  10  26  45  72 106 138 183 228 290 339 417
#     4  10  21  40  68  89 121 171 223 273 331 398
#     4  10  21  38  60  88 123 166 215 263 318 387
#     4  11  23  37  60  95 130 165 216 267 336 409
#     4   8  24  48  76 106 152 172 250 280 356 408
#     4  12  26  43  67  98 140 172 226 293 349 410
#     4  10  22  41  65  90 126 173 217 270 337 411
#
# _framework density 20.457878000000001
#
# number of rings (size 3 to 8) (size 9 to 14) (size 15 to 20)
#    0.267    1.067    1.778    3.467    4.978    3.911 
#    0.000    3.111    0.000    0.000    0.000    0.000 
#    0.000    0.000    0.000    0.000    0.000    0.000 
#
# Total GULP energy -251046.903692 kJ/mol
# GULP energy per Si atom -5578.820082 kJ/mol
# Density = 2.041132 g / cm^3
# Si number density = 20.457878 Si / 1000 Ang^3
#
#
#
# Elastic Constant Matrix: (Units=GPa)
#
#
# Indices 1 2 3 4 5 6 
#
# 1 92.8341 36.5739 4.2119 0.0000 0.0000 0.0000
# 2 36.5739 106.7494 10.6978 0.0000 0.0000 0.0000
# 3 4.2119 10.6978 37.4219 0.0000 0.0000 0.0000
# 4 0.0000 0.0000 0.0000 25.2421 0.0000 0.0000
# 5 0.0000 0.0000 0.0000 0.0000 9.8697 0.0000
# 6 0.0000 0.0000 0.0000 0.0000 0.0000 26.5134
#
#
#
# Elastic Compliance Matrix: (Units=1/GPa)
#
#
# Indices 1 2 3 4 5 6 
#
# 1 0.012454 -0.004248 -0.000187 0.000000 0.000000 0.000000
# 2 -0.004248 0.011093 -0.002693 0.000000 0.000000 0.000000
# 3 -0.000187 -0.002693 0.027513 0.000000 0.000000 0.000000
# 4 0.000000 0.000000 0.000000 0.039616 0.000000 0.000000
# 5 0.000000 0.000000 0.000000 0.000000 0.101320 0.000000
# 6 0.000000 0.000000 0.000000 0.000000 0.000000 0.037717
#
#
# Mechanical properties :
#
#
# Convention : Reuss Voigt Hill
#
# Bulk Modulus (GPa) = 27.17140 37.77473 32.47306
# Shear Modulus (GPa) = 19.51305 24.69315 22.10310
#
# Velocity S-wave (km/s) = 3.09174 3.47799 3.29054
# Velocity P-wave (km/s) = 5.10447 5.88501 5.50858
#
# Compressibility (1/GPa) = 0.03680340
#
# Stress axis : x y z
#
# Youngs Moduli (GPa) = 80.29508 90.14607 36.34611
#
# Poissons Ratio (x) = 0.38296 0.00681
# Poissons Ratio (y) = 0.34111 0.09788
# Poissons Ratio (z) = 0.01504 0.24277
#
# Static dielectric constant tensor:
#      x y z
#    x 1.735080 0.000000 0.000000 
#    y 0.000000 1.763380 0.000000 
#    z 0.000000 0.000000 1.738770 
# 
# From -- ./inp_files/26887.got.cif
#   From: 2010.05.17/outbox.cif.g08.bks.cpg/sg65_14_cif.got.tgz:26887.got - 2010.06.03 17:01:31.
