data_PCOD9492741
_publ_section_title
;
Structure prediction by ZEFSAII (Michael W. Deem and Ramdas Pophale) SiO2 
 PCOD9492741
Probable space group: C M M M
;
_chemical_formula_sum "Si O2"
_cell_formula_units_Z 64
_cell_length_a 22.406943
_cell_length_b 16.894084
_cell_length_c 8.834954
_cell_angle_alpha 90.000000
_cell_angle_beta 90.000000
_cell_angle_gamma 90.000000
_cell_volume 3344.425694
_symmetry_space_group_name_H-M "C M M M"
_symmetry_group_IT_number 65
_symmetry_cell_setting 'orthorhombic'
loop_
_space_group_symop_operation_xyz
x,y,z
-x,-y,z
x,-y,-z
-x,y,-z
-x,-y,-z
x,y,-z
-x,y,z
x,-y,z
1/2+x,1/2+y,z
1/2-x,1/2-y,z
1/2+x,1/2-y,-z
1/2-x,1/2+y,-z
1/2-x,1/2-y,-z
1/2+x,1/2+y,-z
1/2-x,1/2+y,z
1/2+x,1/2-y,z
loop_
_atom_site_type_symbol
_atom_site_label
_atom_site_fract_x
_atom_site_fract_y
_atom_site_fract_z
Si Si1 0.071224 0.000000 0.179097
Si Si2 0.614164 0.180354 0.818608
Si Si3 0.361082 0.649429 0.680270
Si Si4 0.000000 0.406804 0.318899
Si Si5 0.238666 0.593883 0.819498
O O1 0.100152 0.077294 0.253806
O O2 0.000000 0.000000 0.198016
O O3 0.085125 0.000000 0.000000
O O4 0.617881 0.268048 0.751051
O O5 0.558450 0.133857 0.749994
O O6 0.675737 0.134477 0.782998
O O7 0.608569 0.184272 0.000000
O O8 0.365821 0.651597 0.500000
O O9 0.293022 0.633020 0.730389
O O10 0.000000 0.500000 0.283000
O O11 0.000000 0.397504 0.500000
O O12 0.236701 0.500000 0.788269
O O13 0.249345 0.603956 0.000000
#
# Coordination Sequence:
#
# PCOD9492741 Si02
#       5
#     8  16  16   8  16
#     4  11  25  45  69  93 125 170 219 266 316 384
#     4  11  24  42  67  95 127 172 220 266 314 379
#     4  12  25  41  64  97 133 169 210 265 327 383
#     4  11  25  45  67  96 133 170 209 267 329 381
#     4  10  21  40  66  94 127 169 217 266 316 377
#
# _framework density 19.136320000000001
#
# number of rings (size 3 to 8) (size 9 to 14) (size 15 to 20)
#    0.000    1.000    1.250    5.250    1.750    8.000 
#    0.000    0.000    0.000    0.000    0.000    0.000 
#    0.000    0.000    0.000    0.000    0.000    0.000 
#
# Total GULP energy -179130.279788 kJ/mol
# GULP energy per Si atom -5597.821243 kJ/mol
# Density = 1.909277 g / cm^3
# Si number density = 19.136320 Si / 1000 Ang^3
#
#
#
# Elastic Constant Matrix: (Units=GPa)
#
#
# Indices 1 2 3 4 5 6 
#
# 1 160.1717 107.4281 99.3720 0.0000 0.0000 0.0000
# 2 107.4281 189.3787 101.3262 0.0000 0.0000 0.0000
# 3 99.3720 101.3262 114.7360 0.0000 0.0000 0.0000
# 4 0.0000 0.0000 0.0000 30.2487 0.0000 0.0000
# 5 0.0000 0.0000 0.0000 0.0000 -128.0244 0.0000
# 6 0.0000 0.0000 0.0000 0.0000 0.0000 561.7251
#
#
#
# Elastic Compliance Matrix: (Units=1/GPa)
#
#
# Indices 1 2 3 4 5 6 
#
# 1 0.014238 -0.002804 -0.009856 0.000000 0.000000 0.000000
# 2 -0.002804 0.010563 -0.006900 0.000000 0.000000 0.000000
# 3 -0.009856 -0.006900 0.023345 0.000000 0.000000 0.000000
# 4 0.000000 0.000000 0.000000 0.033059 0.000000 0.000000
# 5 0.000000 0.000000 0.000000 0.000000 -0.007811 0.000000
# 6 0.000000 0.000000 0.000000 0.000000 0.000000 0.001780
#
#
# Mechanical properties :
#
#
# Convention : Reuss Voigt Hill
#
# Bulk Modulus (GPa) = 110.77265 120.05988 115.41627
# Shear Modulus (GPa) = 42.62501 103.20055 72.91278
#
# Velocity S-wave (km/s) = 4.72470 7.35161 6.17936
# Velocity P-wave (km/s) = 9.36885 11.61624 10.55255
#
# Compressibility (1/GPa) = 0.00902750
#
# Stress axis : x y z
#
# Youngs Moduli (GPa) = 70.23320 94.67393 42.83562
#
# Poissons Ratio (x) = 0.26543 0.42218
# Poissons Ratio (y) = 0.19691 0.29556
# Poissons Ratio (z) = 0.69220 0.65324
#
# Static dielectric constant tensor:
#      x y z
#    x 1.633600 0.000000 0.000000 
#    y 0.000000 1.629750 0.000000 
#    z 0.000000 0.000000 1.638770 
# 
# From -- ./inp_files/13349.got.cif
#   From: 2010.05.17/outbox.cif.g08.bks.cpg/sg65_7_cif.got.tgz:13349.got - 2010.06.03 17:01:31.
