data_PCOD9492462
_publ_section_title
;
Structure prediction by ZEFSAII (Michael W. Deem and Ramdas Pophale) SiO2 
 PCOD9492462
Probable space group: C M M M
;
_chemical_formula_sum "Si O2"
_cell_formula_units_Z 88
_cell_length_a 19.262886
_cell_length_b 10.043512
_cell_length_c 23.647049
_cell_angle_alpha 90.000000
_cell_angle_beta 90.000000
_cell_angle_gamma 90.000000
_cell_volume 4574.924260
_symmetry_space_group_name_H-M "C M M M"
_symmetry_group_IT_number 65
_symmetry_cell_setting 'orthorhombic'
loop_
_space_group_symop_operation_xyz
x,y,z
-x,-y,z
x,-y,-z
-x,y,-z
-x,-y,-z
x,y,-z
-x,y,z
x,-y,z
1/2+x,1/2+y,z
1/2-x,1/2-y,z
1/2+x,1/2-y,-z
1/2-x,1/2+y,-z
1/2-x,1/2-y,-z
1/2+x,1/2+y,-z
1/2-x,1/2+y,z
1/2+x,1/2-y,z
loop_
_atom_site_type_symbol
_atom_site_label
_atom_site_fract_x
_atom_site_fract_y
_atom_site_fract_z
Si Si1 0.917492 0.763121 0.862372
Si Si2 0.683004 0.343325 0.368154
Si Si3 0.183148 0.156827 0.766653
Si Si4 0.583505 0.000000 0.934758
Si Si5 0.802941 0.856367 0.934725
Si Si6 0.582943 0.849566 0.432861
O O1 0.880893 0.782790 0.801997
O O2 0.900919 0.626379 0.895603
O O3 0.875059 0.861356 0.902588
O O4 0.000000 0.781345 0.859529
O O5 0.691824 0.500000 0.383902
O O6 0.750000 0.250000 0.379568
O O7 0.670431 0.339739 0.300615
O O8 0.621258 0.268214 0.400376
O O9 0.250000 0.250000 0.777536
O O10 0.194137 0.000000 0.782248
O O11 0.500000 0.000000 0.941005
O O12 0.611155 0.000000 0.000000
O O13 0.750000 0.750000 0.910018
O O14 0.768248 0.000000 0.932612
O O15 0.816388 0.821858 0.000000
O O16 0.597030 0.839880 0.500000
O O17 0.500000 0.841090 0.425266
O O18 0.604650 0.000000 0.414398
#
# Coordination Sequence:
#
# PCOD9492462 Si02
#       6
#    16  16  16   8  16  16
#     4  11  23  38  59  86 115 148 187 233 289 350
#     4  10  21  38  60  88 120 158 206 256 306 358
#     4  10  23  41  63  87 117 158 199 245 298 354
#     4   9  20  38  58  84 116 148 182 230 290 347
#     4  10  22  38  58  83 109 143 183 224 276 337
#     4   9  19  37  60  88 124 166 208 251 304 361
#
# _framework density 19.235291
#
# number of rings (size 3 to 8) (size 9 to 14) (size 15 to 20)
#    0.000    2.091    0.000    2.727    2.545    5.091 
#    0.000    3.636    0.000    0.000    0.000    0.000 
#    0.000    0.000    0.000    0.000    0.000    0.000 
#
# Total GULP energy -245321.141727 kJ/mol
# GULP energy per Si atom -5575.480494 kJ/mol
# Density = 1.919151 g / cm^3
# Si number density = 19.235291 Si / 1000 Ang^3
#
#
#
# Elastic Constant Matrix: (Units=GPa)
#
#
# Indices 1 2 3 4 5 6 
#
# 1 112.9068 68.5537 47.1829 0.0000 0.0000 0.0000
# 2 68.5537 176.7646 58.2020 0.0000 0.0000 0.0000
# 3 47.1829 58.2020 63.1825 0.0000 0.0000 0.0000
# 4 0.0000 0.0000 0.0000 24.5628 0.0000 0.0000
# 5 0.0000 0.0000 0.0000 0.0000 37.8392 0.0000
# 6 0.0000 0.0000 0.0000 0.0000 0.0000 29.9229
#
#
#
# Elastic Compliance Matrix: (Units=1/GPa)
#
#
# Indices 1 2 3 4 5 6 
#
# 1 0.013782 -0.002808 -0.007705 0.000000 0.000000 0.000000
# 2 -0.002808 0.008692 -0.005910 0.000000 0.000000 0.000000
# 3 -0.007705 -0.005910 0.027026 0.000000 0.000000 0.000000
# 4 0.000000 0.000000 0.000000 0.040712 0.000000 0.000000
# 5 0.000000 0.000000 0.000000 0.000000 0.026428 0.000000
# 6 0.000000 0.000000 0.000000 0.000000 0.000000 0.033419
#
#
# Mechanical properties :
#
#
# Convention : Reuss Voigt Hill
#
# Bulk Modulus (GPa) = 60.04987 77.85902 68.95445
# Shear Modulus (GPa) = 26.53143 30.39266 28.46205
#
# Velocity S-wave (km/s) = 3.71794 3.97929 3.85083
# Velocity P-wave (km/s) = 7.05103 7.85354 7.46308
#
# Compressibility (1/GPa) = 0.01665282
#
# Stress axis : x y z
#
# Youngs Moduli (GPa) = 72.56028 115.04566 37.00203
#
# Poissons Ratio (x) = 0.32303 0.28511
# Poissons Ratio (y) = 0.20374 0.21869
# Poissons Ratio (z) = 0.55909 0.67995
#
# Static dielectric constant tensor:
#      x y z
#    x 1.660750 0.000000 0.000000 
#    y 0.000000 1.912030 0.000000 
#    z 0.000000 0.000000 1.673250 
# 
# From -- ./inp_files/70939.got.cif
#   From: 2010.05.17/outbox.cif.g08.bks.cpg/sg65_36_cif.got.tgz:70939.got - 2010.06.03 17:01:31.
