data_PCOD9492307
_publ_section_title
;
Structure prediction by ZEFSAII (Michael W. Deem and Ramdas Pophale) SiO2 
 PCOD9492307
Probable space group: C M M M
;
_chemical_formula_sum "Si O2"
_cell_formula_units_Z 32
_cell_length_a 5.274917
_cell_length_b 42.379329
_cell_length_c 7.312203
_cell_angle_alpha 90.000000
_cell_angle_beta 90.000000
_cell_angle_gamma 90.000000
_cell_volume 1634.624283
_symmetry_space_group_name_H-M "C M M M"
_symmetry_group_IT_number 65
_symmetry_cell_setting 'orthorhombic'
loop_
_space_group_symop_operation_xyz
x,y,z
-x,-y,z
x,-y,-z
-x,y,-z
-x,-y,-z
x,y,-z
-x,y,z
x,-y,z
1/2+x,1/2+y,z
1/2-x,1/2-y,z
1/2+x,1/2-y,-z
1/2-x,1/2+y,-z
1/2-x,1/2-y,-z
1/2+x,1/2+y,-z
1/2-x,1/2+y,z
1/2+x,1/2-y,z
loop_
_atom_site_type_symbol
_atom_site_label
_atom_site_fract_x
_atom_site_fract_y
_atom_site_fract_z
Si Si1 0.500000 0.368867 0.000000
Si Si2 0.000000 0.924975 0.720545
Si Si3 0.500000 0.963893 0.721788
Si Si4 0.500000 0.826122 0.000000
Si Si5 0.000000 0.270219 0.717965
O O1 0.500000 0.391959 0.175087
O O2 0.750109 0.347510 0.000000
O O3 0.248639 0.944892 0.773628
O O4 0.000000 0.920913 0.500000
O O5 0.500000 0.965084 0.500000
O O6 0.500000 0.000000 0.785994
O O7 0.500000 0.802759 0.826584
O O8 0.750000 0.250000 0.764225
O O9 0.000000 0.275647 0.500000
#
# Coordination Sequence:
#
# PCOD9492307 Si02
#       5
#     4   8   8   4   8
#     4  12  26  39  55  82 114 156 199 222 261 332
#     4  10  21  38  56  77 112 148 183 235 284 329
#     4   9  17  33  59  84 105 138 184 236 296 346
#     4  12  24  39  60  84 117 154 189 228 265 322
#     4  10  21  39  64  92 118 144 180 229 282 327
#
# _framework density 19.576363000000001
#
# number of rings (size 3 to 8) (size 9 to 14) (size 15 to 20)
#    0.000    1.750    0.000    4.500    0.000    5.000 
#    0.000    3.750    0.000    0.000    0.000    0.000 
#    0.000    0.000    0.000    0.000    0.000    0.000 
#
# Total GULP energy -89489.455323 kJ/mol
# GULP energy per Si atom -5593.090958 kJ/mol
# Density = 1.953181 g / cm^3
# Si number density = 19.576363 Si / 1000 Ang^3
#
#
#
# Elastic Constant Matrix: (Units=GPa)
#
#
# Indices 1 2 3 4 5 6 
#
# 1 244.2294 138.0661 52.4198 0.0000 0.0000 0.0000
# 2 138.0661 208.8857 71.5162 0.0000 0.0000 0.0000
# 3 52.4198 71.5162 99.7688 0.0000 0.0000 0.0000
# 4 0.0000 0.0000 0.0000 1065.5241 0.0000 0.0000
# 5 0.0000 0.0000 0.0000 0.0000 -8.1348 0.0000
# 6 0.0000 0.0000 0.0000 0.0000 0.0000 50.4438
#
#
#
# Elastic Compliance Matrix: (Units=1/GPa)
#
#
# Indices 1 2 3 4 5 6 
#
# 1 0.006552 -0.004177 -0.000448 0.000000 0.000000 0.000000
# 2 -0.004177 0.009008 -0.004262 0.000000 0.000000 0.000000
# 3 -0.000448 -0.004262 0.013314 0.000000 0.000000 0.000000
# 4 0.000000 0.000000 0.000000 0.000939 0.000000 0.000000
# 5 0.000000 0.000000 0.000000 0.000000 -0.122929 0.000000
# 6 0.000000 0.000000 0.000000 0.000000 0.000000 0.019824
#
#
# Mechanical properties :
#
#
# Convention : Reuss Voigt Hill
#
# Bulk Modulus (GPa) = 90.10259 119.65424 104.87841
# Shear Modulus (GPa) = -96.49151 240.95873 72.23361
#
# Velocity S-wave (km/s) = -7.02829 11.10647 6.08099
# Velocity P-wave (km/s) = 4.44255 15.02419 10.14864
#
# Compressibility (1/GPa) = 0.01109846
#
# Stress axis : x y z
#
# Youngs Moduli (GPa) = 152.62018 111.01813 75.11041
#
# Poissons Ratio (x) = 0.46376 0.03367
# Poissons Ratio (y) = 0.63754 0.32012
# Poissons Ratio (z) = 0.06841 0.47315
#
# Static dielectric constant tensor:
#      x y z
#    x 1.653150 0.000000 0.000000 
#    y 0.000000 1.623380 0.000000 
#    z 0.000000 0.000000 1.713130 
# 
# From -- ./inp_files/1910.got.cif
#   From: 2010.05.17/outbox.cif.g08.bks.cpg/sg65_1_cif.got.tgz:1910.got - 2010.06.03 17:01:31.
