data_PCOD9492493
_publ_section_title
;
Structure prediction by ZEFSAII (Michael W. Deem and Ramdas Pophale) SiO2 
 PCOD9492493
Probable space group: C M M M
;
_chemical_formula_sum "Si O2"
_cell_formula_units_Z 72
_cell_length_a 25.671817
_cell_length_b 9.875352
_cell_length_c 14.296993
_cell_angle_alpha 90.000000
_cell_angle_beta 90.000000
_cell_angle_gamma 90.000000
_cell_volume 3624.548350
_symmetry_space_group_name_H-M "C M M M"
_symmetry_group_IT_number 65
_symmetry_cell_setting 'orthorhombic'
loop_
_space_group_symop_operation_xyz
x,y,z
-x,-y,z
x,-y,-z
-x,y,-z
-x,-y,-z
x,y,-z
-x,y,z
x,-y,z
1/2+x,1/2+y,z
1/2-x,1/2-y,z
1/2+x,1/2-y,-z
1/2-x,1/2+y,-z
1/2-x,1/2-y,-z
1/2+x,1/2+y,-z
1/2-x,1/2+y,z
1/2+x,1/2-y,z
loop_
_atom_site_type_symbol
_atom_site_label
_atom_site_fract_x
_atom_site_fract_y
_atom_site_fract_z
Si Si1 0.390800 0.347006 0.603500
Si Si2 0.000000 0.653122 0.888899
Si Si3 0.299999 0.658016 0.889008
Si Si4 0.413057 0.343895 0.808111
Si Si5 0.793527 0.348587 0.389216
O O1 0.415292 0.334355 0.500000
O O2 0.366878 0.500000 0.606507
O O3 0.424222 0.338042 0.697000
O O4 0.347452 0.231940 0.612992
O O5 0.050152 0.737791 0.857694
O O6 0.000000 0.500000 0.850611
O O7 0.000000 0.645426 0.000000
O O8 0.286962 0.500000 0.874187
O O9 0.250000 0.750000 0.868728
O O10 0.352324 0.686806 0.830116
O O11 0.312545 0.675429 0.000000
O O12 0.421949 0.500000 0.839147
O O13 0.781115 0.363099 0.500000
O O14 0.795285 0.500000 0.349178
O O15 0.750000 0.250000 0.347499
#
# Coordination Sequence:
#
# PCOD9492493 Si02
#       5
#    16   8  16  16  16
#     4   9  18  33  52  76 108 144 185 234 283 334
#     4  11  25  43  64  91 118 144 181 235 294 343
#     4   9  18  33  54  81 112 146 185 230 283 343
#     4  10  21  38  61  87 115 152 195 235 282 342
#     4   9  16  26  42  65  96 139 189 237 284 331
#
# _framework density 19.864543999999999
#
# number of rings (size 3 to 8) (size 9 to 14) (size 15 to 20)
#    0.000    2.556    0.000    1.667    0.000    7.111 
#    0.000    5.000    0.000    3.333    0.000    0.000 
#    0.000    0.000    0.000    0.000    0.000    0.000 
#
# Total GULP energy -200751.733066 kJ/mol
# GULP energy per Si atom -5576.437030 kJ/mol
# Density = 1.981933 g / cm^3
# Si number density = 19.864544 Si / 1000 Ang^3
#
#
#
# Elastic Constant Matrix: (Units=GPa)
#
#
# Indices 1 2 3 4 5 6 
#
# 1 66.9415 54.9215 29.2450 0.0000 0.0000 0.0000
# 2 54.9215 135.1531 40.2774 0.0000 0.0000 0.0000
# 3 29.2450 40.2774 98.2335 0.0000 0.0000 0.0000
# 4 0.0000 0.0000 0.0000 16.2763 0.0000 0.0000
# 5 0.0000 0.0000 0.0000 0.0000 -5.8828 0.0000
# 6 0.0000 0.0000 0.0000 0.0000 0.0000 15.8149
#
#
#
# Elastic Compliance Matrix: (Units=1/GPa)
#
#
# Indices 1 2 3 4 5 6 
#
# 1 0.023419 -0.008474 -0.003497 0.000000 0.000000 0.000000
# 2 -0.008474 0.011496 -0.002190 0.000000 0.000000 0.000000
# 3 -0.003497 -0.002190 0.012119 0.000000 0.000000 0.000000
# 4 0.000000 0.000000 0.000000 0.061439 0.000000 0.000000
# 5 0.000000 0.000000 0.000000 0.000000 -0.169986 0.000000
# 6 0.000000 0.000000 0.000000 0.000000 0.000000 0.063232
#
#
# Mechanical properties :
#
#
# Convention : Reuss Voigt Hill
#
# Bulk Modulus (GPa) = 53.44968 61.02400 57.23684
# Shear Modulus (GPa) = 137.82183 16.96729 77.39456
#
# Velocity S-wave (km/s) = 8.33855 2.92575 6.24866
# Velocity P-wave (km/s) = 10.93956 6.49616 8.99651
#
# Compressibility (1/GPa) = 0.01870919
#
# Stress axis : x y z
#
# Youngs Moduli (GPa) = 42.70021 86.99048 82.51400
#
# Poissons Ratio (x) = 0.73719 0.28859
# Poissons Ratio (y) = 0.36186 0.18074
# Poissons Ratio (z) = 0.14934 0.19055
#
# Static dielectric constant tensor:
#      x y z
#    x 1.689850 0.000000 0.000000 
#    y 0.000000 1.694980 0.000000 
#    z 0.000000 0.000000 1.748640 
# 
# From -- ./inp_files/46492.got.cif
#   From: 2010.05.17/outbox.cif.g08.bks.cpg/sg65_24_cif.got.tgz:46492.got - 2010.06.03 17:01:31.
