data_PCOD9492620
_publ_section_title
;
Structure prediction by ZEFSAII (Michael W. Deem and Ramdas Pophale) SiO2 
 PCOD9492620
Probable space group: C M M M
;
_chemical_formula_sum "Si O2"
_cell_formula_units_Z 88
_cell_length_a 31.423377
_cell_length_b 7.943704
_cell_length_c 17.865526
_cell_angle_alpha 90.000000
_cell_angle_beta 90.000000
_cell_angle_gamma 90.000000
_cell_volume 4459.556969
_symmetry_space_group_name_H-M "C M M M"
_symmetry_group_IT_number 65
_symmetry_cell_setting 'orthorhombic'
loop_
_space_group_symop_operation_xyz
x,y,z
-x,-y,z
x,-y,-z
-x,y,-z
-x,-y,-z
x,y,-z
-x,y,z
x,-y,z
1/2+x,1/2+y,z
1/2-x,1/2-y,z
1/2+x,1/2-y,-z
1/2-x,1/2+y,-z
1/2-x,1/2-y,-z
1/2+x,1/2+y,-z
1/2-x,1/2+y,z
1/2+x,1/2-y,z
loop_
_atom_site_type_symbol
_atom_site_label
_atom_site_fract_x
_atom_site_fract_y
_atom_site_fract_z
Si Si1 0.294958 0.200531 0.798971
Si Si2 0.616348 0.308044 0.206385
Si Si3 0.610197 0.806302 0.628377
Si Si4 0.451590 0.500000 0.410969
Si Si5 0.049117 0.703517 0.084406
Si Si6 0.795633 0.701747 0.626449
O O1 0.250000 0.250000 0.833914
O O2 0.338118 0.273612 0.831935
O O3 0.294176 0.266273 0.712555
O O4 0.298006 0.000000 0.797210
O O5 0.614563 0.500000 0.232378
O O6 0.613741 0.195505 0.280970
O O7 0.579286 0.273182 0.148161
O O8 0.574690 0.668457 0.609717
O O9 0.657197 0.750720 0.597999
O O10 0.601657 0.000000 0.604355
O O11 0.500000 0.500000 0.379497
O O12 0.454770 0.500000 0.500000
O O13 0.051005 0.500000 0.086825
O O14 0.000000 0.752580 0.096354
O O15 0.061338 0.755844 0.000000
O O16 0.796439 0.500000 0.627911
O O17 0.750000 0.750000 0.591430
#
# Coordination Sequence:
#
# PCOD9492620 Si02
#       6
#    16  16  16   8  16  16
#     4   9  16  27  44  72 110 146 184 229 278 330
#     4  11  20  32  54  84 118 150 188 238 285 333
#     4  10  21  39  61  90 121 152 193 246 296 342
#     4  11  26  46  66  88 113 151 201 245 295 357
#     4   9  19  36  55  75 104 146 191 233 286 350
#     4   8  15  25  47  82 115 149 183 222 280 340
#
# _framework density 19.732901999999999
#
# number of rings (size 3 to 8) (size 9 to 14) (size 15 to 20)
#    0.000    2.455    0.909    3.818    1.273    4.364 
#    0.000    1.818    0.000    1.091    0.000    0.000 
#    0.000    0.000    0.000    0.000    0.000    0.000 
#
# Total GULP energy -245248.440388 kJ/mol
# GULP energy per Si atom -5573.828191 kJ/mol
# Density = 1.968799 g / cm^3
# Si number density = 19.732902 Si / 1000 Ang^3
#
#
#
# Elastic Constant Matrix: (Units=GPa)
#
#
# Indices 1 2 3 4 5 6 
#
# 1 158.6954 51.8825 31.3681 0.0000 0.0000 0.0000
# 2 51.8825 83.4796 6.0467 0.0000 0.0000 0.0000
# 3 31.3681 6.0467 39.3153 0.0000 0.0000 0.0000
# 4 0.0000 0.0000 0.0000 27.4584 0.0000 0.0000
# 5 0.0000 0.0000 0.0000 0.0000 557.2802 0.0000
# 6 0.0000 0.0000 0.0000 0.0000 0.0000 34.5897
#
#
#
# Elastic Compliance Matrix: (Units=1/GPa)
#
#
# Indices 1 2 3 4 5 6 
#
# 1 0.009360 -0.005336 -0.006647 0.000000 0.000000 0.000000
# 2 -0.005336 0.015155 0.001926 0.000000 0.000000 0.000000
# 3 -0.006647 0.001926 0.030443 0.000000 0.000000 0.000000
# 4 0.000000 0.000000 0.000000 0.036419 0.000000 0.000000
# 5 0.000000 0.000000 0.000000 0.000000 0.001794 0.000000
# 6 0.000000 0.000000 0.000000 0.000000 0.000000 0.028910
#
#
# Mechanical properties :
#
#
# Convention : Reuss Voigt Hill
#
# Bulk Modulus (GPa) = 28.69875 51.12054 39.90965
# Shear Modulus (GPa) = 32.50782 136.67850 84.59316
#
# Velocity S-wave (km/s) = 4.06321 8.33154 6.55455
# Velocity P-wave (km/s) = 6.04881 10.88647 8.80634
#
# Compressibility (1/GPa) = 0.03484472
#
# Stress axis : x y z
#
# Youngs Moduli (GPa) = 106.84207 65.98267 32.84871
#
# Poissons Ratio (x) = 0.35205 0.21835
# Poissons Ratio (y) = 0.57006 -0.06327
# Poissons Ratio (z) = 0.71019 -0.12709
#
# Static dielectric constant tensor:
#      x y z
#    x 1.751990 0.000000 0.000000 
#    y 0.000000 1.701730 0.000000 
#    z 0.000000 0.000000 1.685310 
# 
# From -- ./inp_files/58008.got.cif
#   From: 2010.05.17/outbox.cif.g08.bks.cpg/sg65_30_cif.got.tgz:58008.got - 2010.06.03 17:01:31.
