data_PCOD9492000
_publ_section_title
;
Structure prediction by ZEFSAII (Michael W. Deem and Ramdas Pophale) SiO2 
 PCOD9492000
Probable space group: C M M M
;
_chemical_formula_sum "Si O2"
_cell_formula_units_Z 96
_cell_length_a 20.356522
_cell_length_b 8.700473
_cell_length_c 30.829946
_cell_angle_alpha 90.000000
_cell_angle_beta 90.000000
_cell_angle_gamma 90.000000
_cell_volume 5460.333974
_symmetry_space_group_name_H-M "C M M M"
_symmetry_group_IT_number 65
_symmetry_cell_setting 'orthorhombic'
loop_
_space_group_symop_operation_xyz
x,y,z
-x,-y,z
x,-y,-z
-x,y,-z
-x,-y,-z
x,y,-z
-x,y,z
x,-y,z
1/2+x,1/2+y,z
1/2-x,1/2-y,z
1/2+x,1/2-y,-z
1/2-x,1/2+y,-z
1/2-x,1/2-y,-z
1/2+x,1/2+y,-z
1/2-x,1/2+y,z
1/2+x,1/2-y,z
loop_
_atom_site_type_symbol
_atom_site_label
_atom_site_fract_x
_atom_site_fract_y
_atom_site_fract_z
Si Si1 0.576729 0.816252 0.717796
Si Si2 0.321937 0.683456 0.213235
Si Si3 0.821482 0.317012 0.118232
Si Si4 0.423525 0.684666 0.949650
Si Si5 0.822060 0.185578 0.450515
Si Si6 0.923956 0.814658 0.623136
O O1 0.500000 0.775881 0.725628
O O2 0.624372 0.738201 0.752340
O O3 0.592969 0.760568 0.669189
O O4 0.583099 0.000000 0.720560
O O5 0.318461 0.500000 0.211698
O O6 0.250000 0.750000 0.224619
O O7 0.338241 0.747582 0.165395
O O8 0.817140 0.500000 0.121715
O O9 0.750000 0.250000 0.106212
O O10 0.874973 0.267592 0.083071
O O11 0.500000 0.722209 0.941079
O O12 0.416458 0.500000 0.945126
O O13 0.409678 0.723126 0.000000
O O14 0.838619 0.232442 0.500000
O O15 0.750000 0.250000 0.440306
O O16 0.875579 0.234888 0.415256
O O17 0.819418 0.000000 0.449744
O O18 0.000000 0.777153 0.613169
O O19 0.919453 0.000000 0.627517
#
# Coordination Sequence:
#
# PCOD9492000 Si02
#       6
#    16  16  16  16  16  16
#     4  10  21  37  56  79 108 140 176 218 263 313
#     4  11  22  38  59  81 108 140 177 220 266 317
#     4  11  22  37  57  81 111 144 180 222 267 317
#     4   9  19  37  59  82 110 144 182 224 269 317
#     4   9  18  32  50  73 101 133 169 211 258 308
#     4   9  18  33  52  74 101 134 173 215 259 308
#
# _framework density 17.581343
#
# number of rings (size 3 to 8) (size 9 to 14) (size 15 to 20)
#    0.000    2.167    0.000    5.000    0.000    4.333 
#    0.000    4.167    0.000    0.000    0.000    4.667 
#    0.000    0.000    0.000    0.000    0.000    0.000 
#
# Total GULP energy -267985.559312 kJ/mol
# GULP energy per Si atom -5583.032486 kJ/mol
# Density = 1.754133 g / cm^3
# Si number density = 17.581343 Si / 1000 Ang^3
#
#
#
# Elastic Constant Matrix: (Units=GPa)
#
#
# Indices 1 2 3 4 5 6 
#
# 1 125.9969 68.8630 125.6410 0.0000 0.0000 0.0000
# 2 68.8630 90.8701 73.1666 0.0000 0.0000 0.0000
# 3 125.6410 73.1666 142.7048 0.0000 0.0000 0.0000
# 4 0.0000 0.0000 0.0000 27.8198 0.0000 0.0000
# 5 0.0000 0.0000 0.0000 0.0000 43.9522 0.0000
# 6 0.0000 0.0000 0.0000 0.0000 0.0000 28.8810
#
#
#
# Elastic Compliance Matrix: (Units=1/GPa)
#
#
# Indices 1 2 3 4 5 6 
#
# 1 0.066626 -0.005551 -0.055814 0.000000 0.000000 0.000000
# 2 -0.005551 0.019204 -0.004959 0.000000 0.000000 0.000000
# 3 -0.055814 -0.004959 0.058690 0.000000 0.000000 0.000000
# 4 0.000000 0.000000 0.000000 0.035946 0.000000 0.000000
# 5 0.000000 0.000000 0.000000 0.000000 0.022752 0.000000
# 6 0.000000 0.000000 0.000000 0.000000 0.000000 0.034625
#
#
# Mechanical properties :
#
#
# Convention : Reuss Voigt Hill
#
# Bulk Modulus (GPa) = 84.22274 99.43476 91.82875
# Shear Modulus (GPa) = 13.35298 26.25735 19.80517
#
# Velocity S-wave (km/s) = 2.75889 3.86875 3.35996
# Velocity P-wave (km/s) = 7.62609 8.75420 8.20955
#
# Compressibility (1/GPa) = 0.01187328
#
# Stress axis : x y z
#
# Youngs Moduli (GPa) = 15.00906 52.07175 17.03870
#
# Poissons Ratio (x) = 0.28904 0.95099
# Poissons Ratio (y) = 0.08331 0.08450
# Poissons Ratio (z) = 0.83771 0.25824
#
# Static dielectric constant tensor:
#      x y z
#    x 1.576690 0.000000 0.000000 
#    y 0.000000 1.591360 0.000000 
#    z 0.000000 0.000000 1.575280 
# 
# From -- ./inp_files/73065.got.cif
#   From: 2010.05.17/outbox.cif.g08.bks.cpg/sg65_37_cif.got.tgz:73065.got - 2010.06.03 17:01:31.
