data_PCOD9492315
_publ_section_title
;
Structure prediction by ZEFSAII (Michael W. Deem and Ramdas Pophale) SiO2 
 PCOD9492315
Probable space group: C M M M
;
_chemical_formula_sum "Si O2"
_cell_formula_units_Z 96
_cell_length_a 9.085949
_cell_length_b 29.503918
_cell_length_c 20.800219
_cell_angle_alpha 90.000000
_cell_angle_beta 90.000000
_cell_angle_gamma 90.000000
_cell_volume 5575.937468
_symmetry_space_group_name_H-M "C M M M"
_symmetry_group_IT_number 65
_symmetry_cell_setting 'orthorhombic'
loop_
_space_group_symop_operation_xyz
x,y,z
-x,-y,z
x,-y,-z
-x,y,-z
-x,-y,-z
x,y,-z
-x,y,z
x,-y,z
1/2+x,1/2+y,z
1/2-x,1/2-y,z
1/2+x,1/2-y,-z
1/2-x,1/2+y,-z
1/2-x,1/2-y,-z
1/2+x,1/2+y,-z
1/2-x,1/2+y,z
1/2+x,1/2-y,z
loop_
_atom_site_type_symbol
_atom_site_label
_atom_site_fract_x
_atom_site_fract_y
_atom_site_fract_z
Si Si1 0.175107 0.946159 0.808492
Si Si2 0.323268 0.105447 0.689383
Si Si3 0.176793 0.396365 0.927390
Si Si4 0.675703 0.446924 0.575079
Si Si5 0.824262 0.296214 0.887022
Si Si6 0.824125 0.296165 0.735308
O O1 0.253505 0.922421 0.748266
O O2 0.240477 0.924795 0.873435
O O3 0.000000 0.938347 0.805054
O O4 0.201307 0.000000 0.806833
O O5 0.500000 0.102475 0.692820
O O6 0.263595 0.084479 0.623612
O O7 0.280818 0.158095 0.698857
O O8 0.217533 0.343219 0.920532
O O9 0.000000 0.399190 0.916387
O O10 0.207493 0.411722 0.000000
O O11 0.707850 0.438102 0.500000
O O12 0.500000 0.441157 0.584496
O O13 0.708904 0.500000 0.587886
O O14 0.750000 0.250000 0.910631
O O15 0.787025 0.301636 0.811151
O O16 0.000000 0.291208 0.892613
O O17 0.750000 0.250000 0.712020
O O18 0.000000 0.291510 0.731427
#
# Coordination Sequence:
#
# PCOD9492315 Si02
#       6
#    16  16  16  16  16  16
#     4  11  24  39  55  77 105 138 179 225 270 319
#     4  11  21  35  57  85 113 141 178 224 268 313
#     4  10  21  38  57  76 103 139 177 220 272 327
#     4   9  19  36  56  81 116 153 185 218 261 315
#     4   9  17  32  51  75 105 135 170 214 265 320
#     4   9  18  32  51  77 108 138 172 217 266 315
#
# _framework density 17.216836000000001
#
# number of rings (size 3 to 8) (size 9 to 14) (size 15 to 20)
#    0.000    2.167    1.667    2.000    0.000    7.000 
#    0.000    2.500    0.000    0.500    0.000    0.000 
#    0.000    0.000    0.000    0.000    0.000    0.000 
#
# Total GULP energy -267934.648812 kJ/mol
# GULP energy per Si atom -5581.971850 kJ/mol
# Density = 1.717765 g / cm^3
# Si number density = 17.216836 Si / 1000 Ang^3
#
#
#
# Elastic Constant Matrix: (Units=GPa)
#
#
# Indices 1 2 3 4 5 6 
#
# 1 45.7402 63.2074 50.4494 0.0000 0.0000 0.0000
# 2 63.2074 129.0159 74.8327 0.0000 0.0000 0.0000
# 3 50.4494 74.8327 91.0757 0.0000 0.0000 0.0000
# 4 0.0000 0.0000 0.0000 452.4481 0.0000 0.0000
# 5 0.0000 0.0000 0.0000 0.0000 24.4345 0.0000
# 6 0.0000 0.0000 0.0000 0.0000 0.0000 35.1570
#
#
#
# Elastic Compliance Matrix: (Units=1/GPa)
#
#
# Indices 1 2 3 4 5 6 
#
# 1 0.092713 -0.029869 -0.026815 0.000000 0.000000 0.000000
# 2 -0.029869 0.024431 -0.003529 0.000000 0.000000 0.000000
# 3 -0.026815 -0.003529 0.028733 0.000000 0.000000 0.000000
# 4 0.000000 0.000000 0.000000 0.002210 0.000000 0.000000
# 5 0.000000 0.000000 0.000000 0.000000 0.040926 0.000000
# 6 0.000000 0.000000 0.000000 0.000000 0.000000 0.028444
#
#
# Mechanical properties :
#
#
# Convention : Reuss Voigt Hill
#
# Bulk Modulus (GPa) = 39.28887 71.42344 55.35616
# Shear Modulus (GPa) = 14.43568 107.56407 60.99988
#
# Velocity S-wave (km/s) = 2.89876 7.91276 5.95880
# Velocity P-wave (km/s) = 5.83724 11.18289 8.91993
#
# Compressibility (1/GPa) = 0.02545250
#
# Stress axis : x y z
#
# Youngs Moduli (GPa) = 10.78601 40.93169 34.80365
#
# Poissons Ratio (x) = 1.22257 0.93324
# Poissons Ratio (y) = 0.32216 0.12281
# Poissons Ratio (z) = 0.28922 0.14444
#
# Static dielectric constant tensor:
#      x y z
#    x 1.574230 0.000000 0.000000 
#    y 0.000000 1.574460 0.000000 
#    z 0.000000 0.000000 1.570510 
# 
# From -- ./inp_files/60249.got.cif
#   From: 2010.05.17/outbox.cif.g08.bks.cpg/sg65_31_cif.got.tgz:60249.got - 2010.06.03 17:01:31.
