data_PCOD9492786
_publ_section_title
;
Structure prediction by ZEFSAII (Michael W. Deem and Ramdas Pophale) SiO2 
 PCOD9492786
Probable space group: C M M M
;
_chemical_formula_sum "Si O2"
_cell_formula_units_Z 84
_cell_length_a 26.090297
_cell_length_b 14.241525
_cell_length_c 13.160541
_cell_angle_alpha 90.000000
_cell_angle_beta 90.000000
_cell_angle_gamma 90.000000
_cell_volume 4890.004536
_symmetry_space_group_name_H-M "C M M M"
_symmetry_group_IT_number 65
_symmetry_cell_setting 'orthorhombic'
loop_
_space_group_symop_operation_xyz
x,y,z
-x,-y,z
x,-y,-z
-x,y,-z
-x,-y,-z
x,y,-z
-x,y,z
x,-y,z
1/2+x,1/2+y,z
1/2-x,1/2-y,z
1/2+x,1/2-y,-z
1/2-x,1/2+y,-z
1/2-x,1/2-y,-z
1/2+x,1/2+y,-z
1/2-x,1/2+y,z
1/2+x,1/2-y,z
loop_
_atom_site_type_symbol
_atom_site_label
_atom_site_fract_x
_atom_site_fract_y
_atom_site_fract_z
Si Si1 0.820540 0.000000 0.387061
Si Si2 0.730907 0.000000 0.223997
Si Si3 0.500000 0.610374 0.623659
Si Si4 0.307343 0.789598 0.000000
Si Si5 0.223793 0.500000 0.000000
Si Si6 0.388592 0.313829 0.617917
Si Si7 0.943760 0.387824 0.114556
Si Si8 0.155772 0.320736 0.783825
O O1 0.857442 0.910787 0.379295
O O2 0.796793 0.000000 0.500000
O O3 0.776483 0.000000 0.303511
O O4 0.696180 0.094473 0.233683
O O5 0.751988 0.000000 0.107666
O O6 0.500000 0.500000 0.656265
O O7 0.500000 0.608191 0.500000
O O8 0.552948 0.663060 0.653215
O O9 0.250000 0.750000 0.000000
O O10 0.329269 0.765351 0.888314
O O11 0.309039 0.904338 0.000000
O O12 0.391113 0.281902 0.500000
O O13 0.355556 0.244264 0.687847
O O14 0.946084 0.500000 0.108324
O O15 0.899169 0.363731 0.189885
O O16 0.000000 0.352835 0.144380
O O17 0.932498 0.352954 0.000000
#
# Coordination Sequence:
#
# PCOD9492786 Si02
#       8
#     8   8   8   8   4  16  16  16
#     4  10  22  41  58  77 104 140 190 235 275 325
#     4  10  22  36  56  79 110 155 180 221 270 324
#     4   9  16  36  64  84 104 137 182 236 283 323
#     4  10  22  36  53  80 108 150 189 225 271 326
#     4   8  20  36  56  70 107 141 190 224 260 316
#     4  10  22  37  58  85 110 139 184 234 278 326
#     4   9  17  31  53  79 107 141 183 223 263 314
#     4  11  21  35  56  80 116 146 182 224 273 331
#
# _framework density 17.177897999999999
#
# number of rings (size 3 to 8) (size 9 to 14) (size 15 to 20)
#    0.000    2.190    2.857    0.571    6.667    0.762 
#    0.000    1.905    0.000    0.000    0.000    4.000 
#    0.000    0.000    0.000    0.000    0.000    0.000 
#
# Total GULP energy -233835.916633 kJ/mol
# GULP energy per Si atom -5567.521825 kJ/mol
# Density = 1.713880 g / cm^3
# Si number density = 17.177898 Si / 1000 Ang^3
#
#
#
# Elastic Constant Matrix: (Units=GPa)
#
#
# Indices 1 2 3 4 5 6 
#
# 1 90.5379 21.0933 54.9202 0.0000 0.0000 0.0000
# 2 21.0933 52.8608 38.3474 0.0000 0.0000 0.0000
# 3 54.9202 38.3474 108.5495 0.0000 0.0000 0.0000
# 4 0.0000 0.0000 0.0000 3.6195 0.0000 0.0000
# 5 0.0000 0.0000 0.0000 0.0000 26.8105 0.0000
# 6 0.0000 0.0000 0.0000 0.0000 0.0000 118.8343
#
#
#
# Elastic Compliance Matrix: (Units=1/GPa)
#
#
# Indices 1 2 3 4 5 6 
#
# 1 0.015954 -0.000686 -0.007830 0.000000 0.000000 0.000000
# 2 -0.000686 0.025466 -0.008649 0.000000 0.000000 0.000000
# 3 -0.007830 -0.008649 0.016229 0.000000 0.000000 0.000000
# 4 0.000000 0.000000 0.000000 0.276282 0.000000 0.000000
# 5 0.000000 0.000000 0.000000 0.000000 0.037299 0.000000
# 6 0.000000 0.000000 0.000000 0.000000 0.000000 0.008415
#
#
# Mechanical properties :
#
#
# Convention : Reuss Voigt Hill
#
# Bulk Modulus (GPa) = 42.88287 53.40777 48.14532
# Shear Modulus (GPa) = 11.85541 39.02534 25.44038
#
# Velocity S-wave (km/s) = 2.62993 4.77155 3.85254
# Velocity P-wave (km/s) = 5.85151 7.84317 6.91938
#
# Compressibility (1/GPa) = 0.02331934
#
# Stress axis : x y z
#
# Youngs Moduli (GPa) = 62.67850 39.26822 61.61743
#
# Poissons Ratio (x) = 0.02696 0.48244
# Poissons Ratio (y) = 0.04303 0.53293
# Poissons Ratio (z) = 0.49075 0.33963
#
# Static dielectric constant tensor:
#      x y z
#    x 1.594980 0.000000 0.000000 
#    y 0.000000 1.647400 0.000000 
#    z 0.000000 0.000000 1.616180 
# 
# From -- ./inp_files/30618.got.cif
#   From: 2010.05.17/outbox.cif.g08.bks.cpg/sg65_16_cif.got.tgz:30618.got - 2010.06.03 17:01:31.
