data_PCOD9492415
_publ_section_title
;
Structure prediction by ZEFSAII (Michael W. Deem and Ramdas Pophale) SiO2 
 PCOD9492415
Probable space group: C M M M
;
_chemical_formula_sum "Si O2"
_cell_formula_units_Z 104
_cell_length_a 8.775369
_cell_length_b 24.934309
_cell_length_c 25.156744
_cell_angle_alpha 90.000000
_cell_angle_beta 90.000000
_cell_angle_gamma 90.000000
_cell_volume 5504.490860
_symmetry_space_group_name_H-M "C M M M"
_symmetry_group_IT_number 65
_symmetry_cell_setting 'orthorhombic'
loop_
_space_group_symop_operation_xyz
x,y,z
-x,-y,z
x,-y,-z
-x,y,-z
-x,-y,-z
x,y,-z
-x,y,z
x,-y,z
1/2+x,1/2+y,z
1/2-x,1/2-y,z
1/2+x,1/2-y,-z
1/2-x,1/2+y,-z
1/2-x,1/2-y,-z
1/2+x,1/2+y,-z
1/2-x,1/2+y,z
1/2+x,1/2-y,z
loop_
_atom_site_type_symbol
_atom_site_label
_atom_site_fract_x
_atom_site_fract_y
_atom_site_fract_z
Si Si1 0.183331 0.883998 0.441245
Si Si2 0.818941 0.098947 0.127912
Si Si3 0.817302 0.500000 0.937780
Si Si4 0.315152 0.689959 0.341289
Si Si5 0.674198 0.000000 0.294167
Si Si6 0.677889 0.808651 0.061309
Si Si7 0.683589 0.391774 0.749875
Si Si8 0.174351 0.500000 0.421098
O O1 0.224865 0.862543 0.500000
O O2 0.233559 0.846148 0.392346
O O3 0.245789 0.944558 0.437357
O O4 0.000000 0.886974 0.438090
O O5 0.740875 0.051131 0.095253
O O6 0.776104 0.152568 0.097183
O O7 0.766308 0.106739 0.188772
O O8 0.000000 0.089307 0.128444
O O9 0.000000 0.500000 0.938475
O O10 0.765840 0.500000 0.000000
O O11 0.500000 0.692799 0.341933
O O12 0.250000 0.750000 0.343175
O O13 0.267456 0.657658 0.287816
O O14 0.758505 0.053159 0.275241
O O15 0.673379 0.000000 0.357466
O O16 0.500000 0.000000 0.274514
O O17 0.500000 0.808081 0.076985
O O18 0.750000 0.750000 0.063587
O O19 0.684593 0.827225 0.000000
O O20 0.500000 0.391223 0.749500
O O21 0.000000 0.500000 0.439708
#
# Coordination Sequence:
#
# PCOD9492415 Si02
#       8
#    16  16   8  16   8  16  16   8
#     4  10  21  38  61  87 115 154 199 237 285 352
#     4  11  23  38  59  88 118 150 195 242 290 349
#     4  11  24  41  60  85 121 162 199 236 289 354
#     4  10  22  40  60  82 113 152 195 241 288 343
#     4  11  22  35  58  88 113 143 187 233 281 336
#     4  10  21  38  60  85 114 150 191 236 288 342
#     4  10  22  40  60  83 114 154 192 233 289 347
#     4  11  22  35  56  89 122 148 183 234 290 339
#
# _framework density 18.893663
#
# number of rings (size 3 to 8) (size 9 to 14) (size 15 to 20)
#    0.000    1.615    1.538    2.769    0.000   10.462 
#    0.000    1.538    0.000    0.000    0.000    0.000 
#    0.000    0.000    0.000    0.000    0.000    0.000 
#
# Total GULP energy -290353.373201 kJ/mol
# GULP energy per Si atom -5583.718715 kJ/mol
# Density = 1.885066 g / cm^3
# Si number density = 18.893663 Si / 1000 Ang^3
#
#
#
# Elastic Constant Matrix: (Units=GPa)
#
#
# Indices 1 2 3 4 5 6 
#
# 1 17.0495 16.3803 36.1117 0.0000 0.0000 0.0000
# 2 16.3803 125.1868 87.6391 0.0000 0.0000 0.0000
# 3 36.1117 87.6391 165.0472 0.0000 0.0000 0.0000
# 4 0.0000 0.0000 0.0000 -92.1840 0.0000 0.0000
# 5 0.0000 0.0000 0.0000 0.0000 17.0556 0.0000
# 6 0.0000 0.0000 0.0000 0.0000 0.0000 36.4710
#
#
#
# Elastic Compliance Matrix: (Units=1/GPa)
#
#
# Indices 1 2 3 4 5 6 
#
# 1 0.110508 0.003927 -0.026264 0.000000 0.000000 0.000000
# 2 0.003927 0.012854 -0.007685 0.000000 0.000000 0.000000
# 3 -0.026264 -0.007685 0.015886 0.000000 0.000000 0.000000
# 4 0.000000 0.000000 0.000000 -0.010848 0.000000 0.000000
# 5 0.000000 0.000000 0.000000 0.000000 0.058632 0.000000
# 6 0.000000 0.000000 0.000000 0.000000 0.000000 0.027419
#
#
# Mechanical properties :
#
#
# Convention : Reuss Voigt Hill
#
# Bulk Modulus (GPa) = 12.62554 65.28287 38.95420
# Shear Modulus (GPa) = 16.61708 3.41201 10.01454
#
# Velocity S-wave (km/s) = 2.96886 1.34530 2.30477
# Velocity P-wave (km/s) = 4.29524 6.08612 5.26735
#
# Compressibility (1/GPa) = 0.07920456
#
# Stress axis : x y z
#
# Youngs Moduli (GPa) = 9.04912 77.79713 62.94945
#
# Poissons Ratio (x) = -0.30550 1.65330
# Poissons Ratio (y) = -0.03553 0.48374
# Poissons Ratio (z) = 0.23766 0.59784
#
# Static dielectric constant tensor:
#      x y z
#    x 1.643090 0.000000 0.000000 
#    y 0.000000 1.641370 0.000000 
#    z 0.000000 0.000000 1.690790 
# 
# From -- ./inp_files/60490.got.cif
#   From: 2010.05.17/outbox.cif.g08.bks.cpg/sg65_31_cif.got.tgz:60490.got - 2010.06.03 17:01:31.
