data_PCOD9492038
_publ_section_title
;
Structure prediction by ZEFSAII (Michael W. Deem and Ramdas Pophale) SiO2 
 PCOD9492038
Probable space group: C M M M
;
_chemical_formula_sum "Si O2"
_cell_formula_units_Z 104
_cell_length_a 26.352344
_cell_length_b 20.760578
_cell_length_c 8.530071
_cell_angle_alpha 90.000000
_cell_angle_beta 90.000000
_cell_angle_gamma 90.000000
_cell_volume 4666.715631
_symmetry_space_group_name_H-M "C M M M"
_symmetry_group_IT_number 65
_symmetry_cell_setting 'orthorhombic'
loop_
_space_group_symop_operation_xyz
x,y,z
-x,-y,z
x,-y,-z
-x,y,-z
-x,-y,-z
x,y,-z
-x,y,z
x,-y,z
1/2+x,1/2+y,z
1/2-x,1/2-y,z
1/2+x,1/2-y,-z
1/2-x,1/2+y,-z
1/2-x,1/2-y,-z
1/2+x,1/2+y,-z
1/2-x,1/2+y,z
1/2+x,1/2-y,z
loop_
_atom_site_type_symbol
_atom_site_label
_atom_site_fract_x
_atom_site_fract_y
_atom_site_fract_z
Si Si1 0.290334 0.376932 0.180172
Si Si2 0.391991 0.423084 0.320898
Si Si3 0.443389 0.786094 0.809898
Si Si4 0.687796 0.897246 0.682778
Si Si5 0.917369 0.430785 0.185764
Si Si6 0.000000 0.074488 0.691654
Si Si7 0.163519 0.248678 0.685034
O O1 0.344515 0.408622 0.214079
O O2 0.245709 0.411603 0.275724
O O3 0.301531 0.303740 0.232180
O O4 0.275996 0.379580 0.000000
O O5 0.382543 0.400162 0.500000
O O6 0.397950 0.500000 0.330414
O O7 0.446076 0.396397 0.261649
O O8 0.500000 0.763583 0.765846
O O9 0.437951 0.861598 0.756678
O O10 0.395109 0.748416 0.741187
O O11 0.439430 0.784965 0.000000
O O12 0.677774 0.909870 0.500000
O O13 0.642993 0.928509 0.782215
O O14 0.682555 0.820857 0.714451
O O15 0.936369 0.500000 0.248971
O O16 0.927318 0.430845 0.000000
O O17 0.000000 0.073616 0.500000
O O18 0.000000 0.000000 0.746048
O O19 0.166012 0.237422 0.500000
#
# Coordination Sequence:
#
# PCOD9492038 Si02
#       7
#    16  16  16  16  16   8  16
#     4  12  24  36  54  81 110 141 177 220 272 329
#     4   9  18  35  58  81 106 137 174 216 261 311
#     4   9  18  34  56  82 114 149 184 227 277 325
#     4  10  21  37  57  78 104 140 181 228 275 321
#     4   9  18  33  54  82 115 150 187 225 270 327
#     4   7  12  28  55  79  97 125 165 205 246 293
#     4  10  21  38  58  79 104 138 183 228 273 325
#
# _framework density 22.285481000000001
#
# number of rings (size 3 to 8) (size 9 to 14) (size 15 to 20)
#    0.000    2.385    0.000    3.692    0.000    5.538 
#    1.385    1.923    0.000    1.385    0.000    4.308 
#    0.000    0.000    0.000    0.000    0.000    0.000 
#
# Total GULP energy -290327.811131 kJ/mol
# GULP energy per Si atom -5583.227137 kJ/mol
# Density = 2.223476 g / cm^3
# Si number density = 22.285481 Si / 1000 Ang^3
#
#
#
# Elastic Constant Matrix: (Units=GPa)
#
#
# Indices 1 2 3 4 5 6 
#
# 1 109.1375 -6.7391 -7.1667 0.0000 0.0000 0.0000
# 2 -6.7391 42.5517 -4.9798 0.0000 0.0000 0.0000
# 3 -7.1667 -4.9798 12.1584 0.0000 0.0000 0.0000
# 4 0.0000 0.0000 0.0000 11.5881 0.0000 0.0000
# 5 0.0000 0.0000 0.0000 0.0000 24.0481 0.0000
# 6 0.0000 0.0000 0.0000 0.0000 0.0000 102.2990
#
#
#
# Elastic Compliance Matrix: (Units=1/GPa)
#
#
# Indices 1 2 3 4 5 6 
#
# 1 0.009746 0.002327 0.006698 0.000000 0.000000 0.000000
# 2 0.002327 0.025240 0.011709 0.000000 0.000000 0.000000
# 3 0.006698 0.011709 0.090992 0.000000 0.000000 0.000000
# 4 0.000000 0.000000 0.000000 0.086295 0.000000 0.000000
# 5 0.000000 0.000000 0.000000 0.000000 0.041583 0.000000
# 6 0.000000 0.000000 0.000000 0.000000 0.000000 0.009775
#
#
# Mechanical properties :
#
#
# Convention : Reuss Voigt Hill
#
# Bulk Modulus (GPa) = 5.97199 14.00849 9.99024
# Shear Modulus (GPa) = 17.98706 39.76926 28.87816
#
# Velocity S-wave (km/s) = 2.84407 4.22896 3.60367
# Velocity P-wave (km/s) = 3.67022 5.49045 4.66988
#
# Compressibility (1/GPa) = 0.16744837
#
# Stress axis : x y z
#
# Youngs Moduli (GPa) = 102.60282 39.62001 10.98997
#
# Poissons Ratio (x) = -0.09221 -0.07361
# Poissons Ratio (y) = -0.23880 -0.12869
# Poissons Ratio (z) = -0.68725 -0.46393
#
# Static dielectric constant tensor:
#      x y z
#    x 1.843350 0.000000 0.000000 
#    y 0.000000 1.892090 0.000000 
#    z 0.000000 0.000000 1.765770 
# 
# From -- ./inp_files/16434.got.cif
#   From: 2010.05.17/outbox.cif.g08.bks.cpg/sg65_9_cif.got.tgz:16434.got - 2010.06.03 17:01:31.
