data_PCOD9492900
_publ_section_title
;
Structure prediction by ZEFSAII (Michael W. Deem and Ramdas Pophale) SiO2 
 PCOD9492900
Probable space group: C M M M
;
_chemical_formula_sum "Si O2"
_cell_formula_units_Z 100
_cell_length_a 21.594851
_cell_length_b 7.440321
_cell_length_c 30.196755
_cell_angle_alpha 90.000000
_cell_angle_beta 90.000000
_cell_angle_gamma 90.000000
_cell_volume 4851.791844
_symmetry_space_group_name_H-M "C M M M"
_symmetry_group_IT_number 65
_symmetry_cell_setting 'orthorhombic'
loop_
_space_group_symop_operation_xyz
x,y,z
-x,-y,z
x,-y,-z
-x,y,-z
-x,-y,-z
x,y,-z
-x,y,z
x,-y,z
1/2+x,1/2+y,z
1/2-x,1/2-y,z
1/2+x,1/2-y,-z
1/2-x,1/2+y,-z
1/2-x,1/2-y,-z
1/2+x,1/2+y,-z
1/2-x,1/2+y,z
1/2+x,1/2-y,z
loop_
_atom_site_type_symbol
_atom_site_label
_atom_site_fract_x
_atom_site_fract_y
_atom_site_fract_z
Si Si1 0.111320 0.719304 0.638361
Si Si2 0.819797 0.784788 0.949463
Si Si3 0.500000 0.500000 0.345544
Si Si4 0.930935 0.783930 0.111855
Si Si5 0.679942 0.787072 0.724709
Si Si6 0.568512 0.785462 0.215862
Si Si7 0.177691 0.714388 0.450673
O O1 0.099731 0.500000 0.639453
O O2 0.165112 0.760492 0.674082
O O3 0.134566 0.773375 0.589506
O O4 0.053737 0.840433 0.652161
O O5 0.750000 0.750000 0.933026
O O6 0.874670 0.715859 0.918224
O O7 0.826335 0.000000 0.951508
O O8 0.824177 0.715796 0.000000
O O9 0.921624 0.743846 0.163650
O O10 0.000000 0.718353 0.099409
O O11 0.931957 0.000000 0.107586
O O12 0.750000 0.750000 0.738097
O O13 0.625474 0.711321 0.755833
O O14 0.673594 0.000000 0.727418
O O15 0.500000 0.712754 0.227866
O O16 0.565670 0.000000 0.222742
O O17 0.163633 0.786383 0.500000
O O18 0.170613 0.500000 0.452505
O O19 0.250000 0.750000 0.441431
#
# Coordination Sequence:
#
# PCOD9492900 Si02
#       7
#    16  16   4  16  16  16  16
#     4  10  23  42  60  87 125 154 198 252 294 350
#     4   9  18  32  50  72 100 135 173 215 266 323
#     4  12  26  40  65  92 112 168 206 232 299 374
#     4   9  18  33  51  75 103 133 174 222 269 317
#     4  10  22  38  59  84 114 149 186 237 290 337
#     4   9  19  36  56  77 105 145 184 220 276 337
#     4   9  18  34  60  89 119 157 197 246 304 354
#
# _framework density 20.610942000000001
#
# number of rings (size 3 to 8) (size 9 to 14) (size 15 to 20)
#    0.000    2.560    0.000    0.720    3.360    2.240 
#    0.000    5.600    0.000    1.920    0.000    4.480 
#    0.000    0.000    0.000    0.000    0.000    0.000 
#
# Total GULP energy -278394.766259 kJ/mol
# GULP energy per Si atom -5567.895325 kJ/mol
# Density = 2.056403 g / cm^3
# Si number density = 20.610942 Si / 1000 Ang^3
#
#
#
# Elastic Constant Matrix: (Units=GPa)
#
#
# Indices 1 2 3 4 5 6 
#
# 1 172.5473 14.9967 87.4147 0.0000 0.0000 0.0000
# 2 14.9967 75.2966 6.9845 0.0000 0.0000 0.0000
# 3 87.4147 6.9845 79.6090 0.0000 0.0000 0.0000
# 4 0.0000 0.0000 0.0000 15.3166 0.0000 0.0000
# 5 0.0000 0.0000 0.0000 0.0000 -47.6177 0.0000
# 6 0.0000 0.0000 0.0000 0.0000 0.0000 35.1447
#
#
#
# Elastic Compliance Matrix: (Units=1/GPa)
#
#
# Indices 1 2 3 4 5 6 
#
# 1 0.013185 -0.001294 -0.014365 0.000000 0.000000 0.000000
# 2 -0.001294 0.013517 0.000235 0.000000 0.000000 0.000000
# 3 -0.014365 0.000235 0.028314 0.000000 0.000000 0.000000
# 4 0.000000 0.000000 0.000000 0.065289 0.000000 0.000000
# 5 0.000000 0.000000 0.000000 0.000000 -0.021001 0.000000
# 6 0.000000 0.000000 0.000000 0.000000 0.000000 0.028454
#
#
# Mechanical properties :
#
#
# Convention : Reuss Voigt Hill
#
# Bulk Modulus (GPa) = 41.37611 60.69384 51.03498
# Shear Modulus (GPa) = 30.00107 15.10585 22.55346
#
# Velocity S-wave (km/s) = 3.81936 2.71016 3.31153
# Velocity P-wave (km/s) = 6.29034 6.26934 6.27985
#
# Compressibility (1/GPa) = 0.02416853
#
# Stress axis : x y z
#
# Youngs Moduli (GPa) = 75.84264 73.98258 35.31848
#
# Poissons Ratio (x) = 0.09570 0.50733
# Poissons Ratio (y) = 0.09811 -0.00828
# Poissons Ratio (z) = 1.08944 -0.01735
#
# Static dielectric constant tensor:
#      x y z
#    x 1.715570 0.000000 0.000000 
#    y 0.000000 1.798430 0.000000 
#    z 0.000000 0.000000 1.740530 
# 
# From -- ./inp_files/76936.got.cif
#   From: 2010.05.17/outbox.cif.g08.bks.cpg/sg65_39_cif.got.tgz:76936.got - 2010.06.03 17:01:31.
