data_PCOD9492749
_publ_section_title
;
Structure prediction by ZEFSAII (Michael W. Deem and Ramdas Pophale) SiO2 
 PCOD9492749
Probable space group: C M M M
;
_chemical_formula_sum "Si O2"
_cell_formula_units_Z 96
_cell_length_a 14.480188
_cell_length_b 21.237915
_cell_length_c 15.287992
_cell_angle_alpha 90.000000
_cell_angle_beta 90.000000
_cell_angle_gamma 90.000000
_cell_volume 4701.500921
_symmetry_space_group_name_H-M "C M M M"
_symmetry_group_IT_number 65
_symmetry_cell_setting 'orthorhombic'
loop_
_space_group_symop_operation_xyz
x,y,z
-x,-y,z
x,-y,-z
-x,y,-z
-x,-y,-z
x,y,-z
-x,y,z
x,-y,z
1/2+x,1/2+y,z
1/2-x,1/2-y,z
1/2+x,1/2-y,-z
1/2-x,1/2+y,-z
1/2-x,1/2-y,-z
1/2+x,1/2+y,-z
1/2-x,1/2+y,z
1/2+x,1/2-y,z
loop_
_atom_site_type_symbol
_atom_site_label
_atom_site_fract_x
_atom_site_fract_y
_atom_site_fract_z
Si Si1 0.107295 0.926377 0.648026
Si Si2 0.302078 0.070270 0.907470
Si Si3 0.101631 0.904224 0.143418
Si Si4 0.604264 0.152292 0.762555
Si Si5 0.639155 0.740821 0.899613
Si Si6 0.265574 0.174342 0.400967
O O1 0.108111 0.919549 0.753535
O O2 0.176779 0.872003 0.613723
O O3 0.000000 0.916541 0.619946
O O4 0.132034 0.000000 0.626683
O O5 0.191746 0.068011 0.901240
O O6 0.340932 0.104805 0.824349
O O7 0.339057 0.000000 0.908257
O O8 0.326784 0.102231 0.000000
O O9 0.112443 0.829894 0.125819
O O10 0.000000 0.924204 0.113070
O O11 0.500000 0.131909 0.746017
O O12 0.602707 0.214637 0.822939
O O13 0.660443 0.159707 0.673724
O O14 0.750000 0.750000 0.898308
O O15 0.608895 0.752851 0.000000
O O16 0.298241 0.162808 0.500000
O O17 0.250000 0.250000 0.393366
#
# Coordination Sequence:
#
# PCOD9492749 Si02
#       6
#    16  16  16  16  16  16
#     4  10  21  40  70 104 137 177 222 268 328 406
#     4  11  24  41  61  88 126 171 218 266 317 377
#     4  11  21  35  60  94 132 169 205 256 321 387
#     4  12  25  42  65  90 122 169 222 273 322 377
#     4  11  21  36  60  91 130 172 216 266 319 378
#     4  11  25  45  69 100 136 172 214 272 343 409
#
# _framework density 20.419011000000001
#
# number of rings (size 3 to 8) (size 9 to 14) (size 15 to 20)
#    0.000    1.000    3.333    3.500    0.000    7.667 
#    0.000    4.167    0.000    0.000    0.000    2.333 
#    0.000    0.000    0.000    0.000    0.000    0.000 
#
# Total GULP energy -268099.328522 kJ/mol
# GULP energy per Si atom -5585.402678 kJ/mol
# Density = 2.037254 g / cm^3
# Si number density = 20.419011 Si / 1000 Ang^3
#
#
#
# Elastic Constant Matrix: (Units=GPa)
#
#
# Indices 1 2 3 4 5 6 
#
# 1 131.2490 46.4328 64.5200 0.0000 0.0000 0.0000
# 2 46.4328 127.4403 44.2704 0.0000 0.0000 0.0000
# 3 64.5200 44.2704 164.2741 0.0000 0.0000 0.0000
# 4 0.0000 0.0000 0.0000 -2.9158 0.0000 0.0000
# 5 0.0000 0.0000 0.0000 0.0000 49.0931 0.0000
# 6 0.0000 0.0000 0.0000 0.0000 0.0000 -70.1245
#
#
#
# Elastic Compliance Matrix: (Units=1/GPa)
#
#
# Indices 1 2 3 4 5 6 
#
# 1 0.010142 -0.002550 -0.003296 0.000000 0.000000 0.000000
# 2 -0.002550 0.009298 -0.001504 0.000000 0.000000 0.000000
# 3 -0.003296 -0.001504 0.007787 0.000000 0.000000 0.000000
# 4 0.000000 0.000000 0.000000 -0.342960 0.000000 0.000000
# 5 0.000000 0.000000 0.000000 0.000000 0.020369 0.000000
# 6 0.000000 0.000000 0.000000 0.000000 0.000000 -0.014260
#
#
# Mechanical properties :
#
#
# Convention : Reuss Voigt Hill
#
# Bulk Modulus (GPa) = 79.82982 81.48995 80.65988
# Shear Modulus (GPa) = -17.19708 13.05991 -2.06858
#
# Velocity S-wave (km/s) = -2.90523 2.53177 -1.00760
# Velocity P-wave (km/s) = 5.28459 6.96721 6.18340
#
# Compressibility (1/GPa) = 0.01252665
#
# Stress axis : x y z
#
# Youngs Moduli (GPa) = 98.60472 107.54423 128.41450
#
# Poissons Ratio (x) = 0.27425 0.42325
# Poissons Ratio (y) = 0.25145 0.19317
# Poissons Ratio (z) = 0.32499 0.16178
#
# Static dielectric constant tensor:
#      x y z
#    x 1.727630 0.000000 0.000000 
#    y 0.000000 1.799990 0.000000 
#    z 0.000000 0.000000 1.711570 
# 
# From -- ./inp_files/40327.got.cif
#   From: 2010.05.17/outbox.cif.g08.bks.cpg/sg65_21_cif.got.tgz:40327.got - 2010.06.03 17:01:31.
