data_PCOD9492457
_publ_section_title
;
Structure prediction by ZEFSAII (Michael W. Deem and Ramdas Pophale) SiO2 
 PCOD9492457
Probable space group: C M M M
;
_chemical_formula_sum "Si O2"
_cell_formula_units_Z 48
_cell_length_a 36.318188
_cell_length_b 8.974166
_cell_length_c 7.305355
_cell_angle_alpha 90.000000
_cell_angle_beta 90.000000
_cell_angle_gamma 90.000000
_cell_volume 2381.001101
_symmetry_space_group_name_H-M "C M M M"
_symmetry_group_IT_number 65
_symmetry_cell_setting 'orthorhombic'
loop_
_space_group_symop_operation_xyz
x,y,z
-x,-y,z
x,-y,-z
-x,y,-z
-x,-y,-z
x,y,-z
-x,y,z
x,-y,z
1/2+x,1/2+y,z
1/2-x,1/2-y,z
1/2+x,1/2-y,-z
1/2-x,1/2+y,-z
1/2-x,1/2-y,-z
1/2+x,1/2+y,-z
1/2-x,1/2+y,z
1/2+x,1/2-y,z
loop_
_atom_site_type_symbol
_atom_site_label
_atom_site_fract_x
_atom_site_fract_y
_atom_site_fract_z
Si Si1 0.419905 0.172804 0.223004
Si Si2 0.655905 0.674800 0.218858
Si Si3 0.500000 0.181470 0.786110
Si Si4 0.790104 0.322900 0.500000
O O1 0.384619 0.268189 0.275492
O O2 0.460118 0.227236 0.288186
O O3 0.414889 0.000000 0.277774
O O4 0.421399 0.173433 0.000000
O O5 0.659785 0.500000 0.259189
O O6 0.686571 0.766538 0.325972
O O7 0.659140 0.695617 0.000000
O O8 0.500000 0.000000 0.778030
O O9 0.500000 0.224104 0.000000
O O10 0.787170 0.500000 0.500000
O O11 0.750000 0.250000 0.500000
#
# Coordination Sequence:
#
# PCOD9492457 Si02
#       4
#    16  16   8   8
#     4   8  13  24  45  74 108 148 193 235 276 325
#     4  10  21  38  60  87 120 155 190 231 281 338
#     4   7  10  18  37  68 105 144 188 235 275 318
#     4  12  26  44  66  89 114 145 184 232 285 342
#
# _framework density 20.159585
#
# number of rings (size 3 to 8) (size 9 to 14) (size 15 to 20)
#    0.000    2.833    0.000    4.500    0.000    2.667 
#    0.000    0.833    0.000    6.000    0.000    7.000 
#    0.000    0.000    0.000    0.000    0.000    0.000 
#
# Total GULP energy -133944.380611 kJ/mol
# GULP energy per Si atom -5581.015859 kJ/mol
# Density = 2.011370 g / cm^3
# Si number density = 20.159585 Si / 1000 Ang^3
#
#
#
# Elastic Constant Matrix: (Units=GPa)
#
#
# Indices 1 2 3 4 5 6 
#
# 1 214.3079 98.8176 49.5337 0.0000 0.0000 0.0000
# 2 98.8176 129.6250 39.4450 0.0000 0.0000 0.0000
# 3 49.5337 39.4450 86.8647 0.0000 0.0000 0.0000
# 4 0.0000 0.0000 0.0000 16.0421 0.0000 0.0000
# 5 0.0000 0.0000 0.0000 0.0000 35.2313 0.0000
# 6 0.0000 0.0000 0.0000 0.0000 0.0000 37.0938
#
#
#
# Elastic Compliance Matrix: (Units=1/GPa)
#
#
# Indices 1 2 3 4 5 6 
#
# 1 0.007467 -0.005102 -0.001941 0.000000 0.000000 0.000000
# 2 -0.005102 0.012437 -0.002738 0.000000 0.000000 0.000000
# 3 -0.001941 -0.002738 0.013863 0.000000 0.000000 0.000000
# 4 0.000000 0.000000 0.000000 0.062336 0.000000 0.000000
# 5 0.000000 0.000000 0.000000 0.000000 0.028384 0.000000
# 6 0.000000 0.000000 0.000000 0.000000 0.000000 0.026959
#
#
# Mechanical properties :
#
#
# Convention : Reuss Voigt Hill
#
# Bulk Modulus (GPa) = 70.40334 89.59893 80.00114
# Shear Modulus (GPa) = 28.45047 33.87353 31.16200
#
# Velocity S-wave (km/s) = 3.76075 4.10356 3.93589
# Velocity P-wave (km/s) = 7.33870 8.18496 7.77335
#
# Compressibility (1/GPa) = 0.01420387
#
# Stress axis : x y z
#
# Youngs Moduli (GPa) = 133.91550 80.40401 72.13571
#
# Poissons Ratio (x) = 0.41021 0.14005
# Poissons Ratio (y) = 0.68322 0.19754
# Poissons Ratio (z) = 0.25999 0.22018
#
# Static dielectric constant tensor:
#      x y z
#    x 1.708010 0.000000 0.000000 
#    y 0.000000 1.666680 0.000000 
#    z 0.000000 0.000000 1.788570 
# 
# From -- ./inp_files/17527.got.cif
#   From: 2010.05.17/outbox.cif.g08.bks.cpg/sg65_9_cif.got.tgz:17527.got - 2010.06.03 17:01:31.
