data_PCOD9492938
_publ_section_title
;
Structure prediction by ZEFSAII (Michael W. Deem and Ramdas Pophale) SiO2 
 PCOD9492938
Probable space group: C M M M
;
_chemical_formula_sum "Si O2"
_cell_formula_units_Z 64
_cell_length_a 35.418821
_cell_length_b 7.626411
_cell_length_c 10.955187
_cell_angle_alpha 90.000000
_cell_angle_beta 90.000000
_cell_angle_gamma 90.000000
_cell_volume 2959.198527
_symmetry_space_group_name_H-M "C M M M"
_symmetry_group_IT_number 65
_symmetry_cell_setting 'orthorhombic'
loop_
_space_group_symop_operation_xyz
x,y,z
-x,-y,z
x,-y,-z
-x,y,-z
-x,-y,-z
x,y,-z
-x,y,z
x,-y,z
1/2+x,1/2+y,z
1/2-x,1/2-y,z
1/2+x,1/2-y,-z
1/2-x,1/2+y,-z
1/2-x,1/2-y,-z
1/2+x,1/2+y,-z
1/2-x,1/2+y,z
1/2+x,1/2-y,z
loop_
_atom_site_type_symbol
_atom_site_label
_atom_site_fract_x
_atom_site_fract_y
_atom_site_fract_z
Si Si1 0.842441 0.795260 0.361873
Si Si2 0.576929 0.205477 0.740374
Si Si3 0.955201 0.211068 0.000000
Si Si4 0.500000 0.799859 0.643223
Si Si5 0.794370 0.789017 0.135367
O O1 0.839525 0.721270 0.500000
O O2 0.885148 0.786150 0.312264
O O3 0.816753 0.718334 0.252871
O O4 0.831965 0.000000 0.371540
O O5 0.568139 0.225478 0.882937
O O6 0.538877 0.284763 0.683184
O O7 0.579318 0.000000 0.707605
O O8 0.000000 0.267900 0.000000
O O9 0.955838 0.000000 0.000000
O O10 0.500000 0.813621 0.500000
O O11 0.500000 0.000000 0.696274
O O12 0.750000 0.750000 0.147281
O O13 0.799331 0.000000 0.133543
O O14 0.806620 0.724478 0.000000
#
# Coordination Sequence:
#
# PCOD9492938 Si02
#       5
#    16  16   8   8  16
#     4  10  22  39  58  85 121 158 196 241 295 354
#     4  11  22  37  58  84 116 151 196 247 293 345
#     4  11  23  39  59  83 114 151 194 243 301 359
#     4   9  18  33  53  76 108 149 188 235 294 341
#     4   9  19  37  60  85 115 152 192 239 293 349
#
# _framework density 21.627476999999999
#
# number of rings (size 3 to 8) (size 9 to 14) (size 15 to 20)
#    0.000    2.000    1.250    1.875    1.750    3.500 
#    0.000    0.000    0.000    3.000    0.000    0.000 
#    0.000    0.000    0.000    0.000    0.000    0.000 
#
# Total GULP energy -178540.564601 kJ/mol
# GULP energy per Si atom -5579.392644 kJ/mol
# Density = 2.157825 g / cm^3
# Si number density = 21.627477 Si / 1000 Ang^3
#
#
#
# Elastic Constant Matrix: (Units=GPa)
#
#
# Indices 1 2 3 4 5 6 
#
# 1 106.3299 -6.6456 99.0196 0.0000 0.0000 0.0000
# 2 -6.6456 51.9852 -2.4412 0.0000 0.0000 0.0000
# 3 99.0196 -2.4412 214.1729 0.0000 0.0000 0.0000
# 4 0.0000 0.0000 0.0000 -5.2054 0.0000 0.0000
# 5 0.0000 0.0000 0.0000 0.0000 46.5131 0.0000
# 6 0.0000 0.0000 0.0000 0.0000 0.0000 63.5695
#
#
#
# Elastic Compliance Matrix: (Units=1/GPa)
#
#
# Indices 1 2 3 4 5 6 
#
# 1 0.016677 0.001771 -0.007690 0.000000 0.000000 0.000000
# 2 0.001771 0.019435 -0.000597 0.000000 0.000000 0.000000
# 3 -0.007690 -0.000597 0.008218 0.000000 0.000000 0.000000
# 4 0.000000 0.000000 0.000000 -0.192109 0.000000 0.000000
# 5 0.000000 0.000000 0.000000 0.000000 0.021499 0.000000
# 6 0.000000 0.000000 0.000000 0.000000 0.000000 0.015731
#
#
# Mechanical properties :
#
#
# Convention : Reuss Voigt Hill
#
# Bulk Modulus (GPa) = 31.95288 61.37264 46.66276
# Shear Modulus (GPa) = -57.41537 39.81246 -8.80146
#
# Velocity S-wave (km/s) = -5.15801 4.29514 -2.01951
# Velocity P-wave (km/s) = 4.54611 7.28261 4.02301
#
# Compressibility (1/GPa) = 0.03129608
#
# Stress axis : x y z
#
# Youngs Moduli (GPa) = 59.96393 51.45468 121.68873
#
# Poissons Ratio (x) = -0.09111 0.93579
# Poissons Ratio (y) = -0.10618 0.07267
# Poissons Ratio (z) = 0.46112 0.03073
#
# Static dielectric constant tensor:
#      x y z
#    x 1.762940 0.000000 0.000000 
#    y 0.000000 1.827840 0.000000 
#    z 0.000000 0.000000 1.878750 
# 
# From -- ./inp_files/33257.got.cif
#   From: 2010.05.17/outbox.cif.g08.bks.cpg/sg65_17_cif.got.tgz:33257.got - 2010.06.03 17:01:31.
