data_PCOD9492489
_publ_section_title
;
Structure prediction by ZEFSAII (Michael W. Deem and Ramdas Pophale) SiO2 
 PCOD9492489
Probable space group: C M M M
;
_chemical_formula_sum "Si O2"
_cell_formula_units_Z 80
_cell_length_a 18.925225
_cell_length_b 8.501409
_cell_length_c 26.191523
_cell_angle_alpha 90.000000
_cell_angle_beta 90.000000
_cell_angle_gamma 90.000000
_cell_volume 4213.982374
_symmetry_space_group_name_H-M "C M M M"
_symmetry_group_IT_number 65
_symmetry_cell_setting 'orthorhombic'
loop_
_space_group_symop_operation_xyz
x,y,z
-x,-y,z
x,-y,-z
-x,y,-z
-x,-y,-z
x,y,-z
-x,y,z
x,-y,z
1/2+x,1/2+y,z
1/2-x,1/2-y,z
1/2+x,1/2-y,-z
1/2-x,1/2+y,-z
1/2-x,1/2-y,-z
1/2+x,1/2+y,-z
1/2-x,1/2+y,z
1/2+x,1/2-y,z
loop_
_atom_site_type_symbol
_atom_site_label
_atom_site_fract_x
_atom_site_fract_y
_atom_site_fract_z
Si Si1 0.918714 0.811562 0.348781
Si Si2 0.918998 0.692099 0.154435
Si Si3 0.329000 0.809897 0.057769
Si Si4 0.171680 0.688563 0.441065
Si Si5 0.329764 0.188568 0.746878
O O1 0.884729 0.756475 0.401886
O O2 0.871736 0.745119 0.302840
O O3 0.000000 0.758449 0.344071
O O4 0.917149 0.000000 0.346599
O O5 0.919540 0.500000 0.154467
O O6 0.882554 0.743002 0.101632
O O7 0.871997 0.742361 0.202605
O O8 0.000000 0.744491 0.158812
O O9 0.250000 0.750000 0.068642
O O10 0.327760 0.000000 0.058352
O O11 0.347983 0.759744 0.000000
O O12 0.157815 0.734629 0.500000
O O13 0.171704 0.500000 0.438014
O O14 0.250000 0.750000 0.427572
O O15 0.250000 0.250000 0.746936
O O16 0.328125 0.000000 0.746960
#
# Coordination Sequence:
#
# PCOD9492489 Si02
#       5
#    16  16  16  16  16
#     4  11  24  40  58  82 113 146 181 224 273 324
#     4   9  18  32  51  77 106 136 174 220 269 319
#     4   9  17  30  50  75 103 136 174 217 263 314
#     4  10  21  38  61  87 115 148 186 226 267 316
#     4  11  22  37  58  80 106 141 181 225 271 323
#
# _framework density 18.984418000000002
#
# number of rings (size 3 to 8) (size 9 to 14) (size 15 to 20)
#    0.000    2.000    0.000    3.600    0.000    4.400 
#    0.000    5.000    0.000    3.000    0.000    2.800 
#    0.000    0.000    0.000    0.000    0.000    0.000 
#
# Total GULP energy -223461.100911 kJ/mol
# GULP energy per Si atom -5586.527523 kJ/mol
# Density = 1.894121 g / cm^3
# Si number density = 18.984418 Si / 1000 Ang^3
#
#
#
# Elastic Constant Matrix: (Units=GPa)
#
#
# Indices 1 2 3 4 5 6 
#
# 1 196.4061 33.7281 120.6390 0.0000 0.0000 0.0000
# 2 33.7281 29.7613 28.2316 0.0000 0.0000 0.0000
# 3 120.6390 28.2316 135.7889 0.0000 0.0000 0.0000
# 4 0.0000 0.0000 0.0000 3.9317 0.0000 0.0000
# 5 0.0000 0.0000 0.0000 0.0000 -0.2822 0.0000
# 6 0.0000 0.0000 0.0000 0.0000 0.0000 23.1608
#
#
#
# Elastic Compliance Matrix: (Units=1/GPa)
#
#
# Indices 1 2 3 4 5 6 
#
# 1 0.011615 -0.004203 -0.009445 0.000000 0.000000 0.000000
# 2 -0.004203 0.043377 -0.005284 0.000000 0.000000 0.000000
# 3 -0.009445 -0.005284 0.016854 0.000000 0.000000 0.000000
# 4 0.000000 0.000000 0.000000 0.254342 0.000000 0.000000
# 5 0.000000 0.000000 0.000000 0.000000 -3.543284 0.000000
# 6 0.000000 0.000000 0.000000 0.000000 0.000000 0.043176
#
#
# Mechanical properties :
#
#
# Convention : Reuss Voigt Hill
#
# Bulk Modulus (GPa) = 29.42822 80.79485 55.11154
# Shear Modulus (GPa) = -1.60014 17.31923 7.85954
#
# Velocity S-wave (km/s) = -0.91908 3.02368 2.03691
# Velocity P-wave (km/s) = 3.79587 7.40548 5.88429
#
# Compressibility (1/GPa) = 0.03398099
#
# Stress axis : x y z
#
# Youngs Moduli (GPa) = 86.09769 23.05385 59.33248
#
# Poissons Ratio (x) = 0.09690 0.56039
# Poissons Ratio (y) = 0.36189 0.31352
# Poissons Ratio (z) = 0.81319 0.12182
#
# Static dielectric constant tensor:
#      x y z
#    x 1.618590 0.000000 0.000000 
#    y 0.000000 1.640260 0.000000 
#    z 0.000000 0.000000 1.651690 
# 
# From -- ./inp_files/72774.got.cif
#   From: 2010.05.17/outbox.cif.g08.bks.cpg/sg65_37_cif.got.tgz:72774.got - 2010.06.03 17:01:31.
