data_PCOD9492752
_publ_section_title
;
Structure prediction by ZEFSAII (Michael W. Deem and Ramdas Pophale) SiO2 
 PCOD9492752
Probable space group: C M M M
;
_chemical_formula_sum "Si O2"
_cell_formula_units_Z 64
_cell_length_a 15.208955
_cell_length_b 12.477342
_cell_length_c 17.516242
_cell_angle_alpha 90.000000
_cell_angle_beta 90.000000
_cell_angle_gamma 90.000000
_cell_volume 3324.010528
_symmetry_space_group_name_H-M "C M M M"
_symmetry_group_IT_number 65
_symmetry_cell_setting 'orthorhombic'
loop_
_space_group_symop_operation_xyz
x,y,z
-x,-y,z
x,-y,-z
-x,y,-z
-x,-y,-z
x,y,-z
-x,y,z
x,-y,z
1/2+x,1/2+y,z
1/2-x,1/2-y,z
1/2+x,1/2-y,-z
1/2-x,1/2+y,-z
1/2-x,1/2-y,-z
1/2+x,1/2+y,-z
1/2-x,1/2+y,z
1/2+x,1/2-y,z
loop_
_atom_site_type_symbol
_atom_site_label
_atom_site_fract_x
_atom_site_fract_y
_atom_site_fract_z
Si Si1 0.752289 0.500000 0.914809
Si Si2 0.405497 0.616732 0.143784
Si Si3 0.605877 0.620614 0.587050
Si Si4 0.648671 0.769854 0.726792
Si Si5 0.603087 0.000000 0.779691
O O1 0.683829 0.600317 0.904093
O O2 0.828013 0.500000 0.850912
O O3 0.788557 0.500000 0.000000
O O4 0.500000 0.624164 0.101998
O O5 0.406603 0.500000 0.185542
O O6 0.400882 0.709113 0.205083
O O7 0.635291 0.641818 0.500000
O O8 0.500000 0.617576 0.586262
O O9 0.636570 0.500000 0.608706
O O10 0.631945 0.710395 0.647218
O O11 0.750000 0.750000 0.744751
O O12 0.623017 0.893524 0.730998
O O13 0.500000 0.000000 0.802736
#
# Coordination Sequence:
#
# PCOD9492752 Si02
#       5
#     8  16  16  16   8
#     4  10  21  41  64  94 124 152 197 260 321 376
#     4   9  18  35  62  92 117 151 199 256 314 366
#     4   9  19  36  61  93 123 156 203 261 318 365
#     4  12  22  38  62  86 126 167 215 258 303 365
#     4  12  26  42  60  92 128 170 214 251 305 379
#
# _framework density 19.25385
#
# number of rings (size 3 to 8) (size 9 to 14) (size 15 to 20)
#    0.750    1.000    2.500    3.750    1.750    3.750 
#    0.000    3.125    0.000    5.250    0.000    0.000 
#    0.000    0.000    0.000    0.000    0.000    0.000 
#
# Total GULP energy -178168.241087 kJ/mol
# GULP energy per Si atom -5567.757534 kJ/mol
# Density = 1.921003 g / cm^3
# Si number density = 19.253850 Si / 1000 Ang^3
#
#
#
# Elastic Constant Matrix: (Units=GPa)
#
#
# Indices 1 2 3 4 5 6 
#
# 1 117.9717 18.8763 28.2739 0.0000 0.0000 0.0000
# 2 18.8763 139.6710 59.8643 0.0000 0.0000 0.0000
# 3 28.2739 59.8643 103.7521 0.0000 0.0000 0.0000
# 4 0.0000 0.0000 0.0000 -18.9833 0.0000 0.0000
# 5 0.0000 0.0000 0.0000 0.0000 9.6241 0.0000
# 6 0.0000 0.0000 0.0000 0.0000 0.0000 20.4326
#
#
#
# Elastic Compliance Matrix: (Units=1/GPa)
#
#
# Indices 1 2 3 4 5 6 
#
# 1 0.009074 -0.000221 -0.002345 0.000000 0.000000 0.000000
# 2 -0.000221 0.009517 -0.005431 0.000000 0.000000 0.000000
# 3 -0.002345 -0.005431 0.013411 0.000000 0.000000 0.000000
# 4 0.000000 0.000000 0.000000 -0.052678 0.000000 0.000000
# 5 0.000000 0.000000 0.000000 0.000000 0.103906 0.000000
# 6 0.000000 0.000000 0.000000 0.000000 0.000000 0.048941
#
#
# Mechanical properties :
#
#
# Convention : Reuss Voigt Hill
#
# Bulk Modulus (GPa) = 62.47049 63.93597 63.20323
# Shear Modulus (GPa) = 32.57257 19.17338 25.87297
#
# Velocity S-wave (km/s) = 4.11754 3.15909 3.66974
# Velocity P-wave (km/s) = 7.42440 6.82535 7.13117
#
# Compressibility (1/GPa) = 0.01600756
#
# Stress axis : x y z
#
# Youngs Moduli (GPa) = 110.20421 105.07017 74.56431
#
# Poissons Ratio (x) = 0.02324 0.17487
# Poissons Ratio (y) = 0.02437 0.40498
# Poissons Ratio (z) = 0.25845 0.57066
#
# Static dielectric constant tensor:
#      x y z
#    x 1.787670 0.000000 0.000000 
#    y 0.000000 1.686250 0.000000 
#    z 0.000000 0.000000 1.656570 
# 
# From -- ./inp_files/52523.got.cif
#   From: 2010.05.17/outbox.cif.g08.bks.cpg/sg65_27_cif.got.tgz:52523.got - 2010.06.03 17:01:31.
