data_PCOD9492165
_publ_section_title
;
Structure prediction by ZEFSAII (Michael W. Deem and Ramdas Pophale) SiO2 
 PCOD9492165
Probable space group: C M M M
;
_chemical_formula_sum "Si O2"
_cell_formula_units_Z 96
_cell_length_a 8.620311
_cell_length_b 19.346068
_cell_length_c 31.393559
_cell_angle_alpha 90.000000
_cell_angle_beta 90.000000
_cell_angle_gamma 90.000000
_cell_volume 5235.476296
_symmetry_space_group_name_H-M "C M M M"
_symmetry_group_IT_number 65
_symmetry_cell_setting 'orthorhombic'
loop_
_space_group_symop_operation_xyz
x,y,z
-x,-y,z
x,-y,-z
-x,y,-z
-x,-y,-z
x,y,-z
-x,y,z
x,-y,z
1/2+x,1/2+y,z
1/2-x,1/2-y,z
1/2+x,1/2-y,-z
1/2-x,1/2+y,-z
1/2-x,1/2-y,-z
1/2+x,1/2+y,-z
1/2-x,1/2+y,z
1/2+x,1/2-y,z
loop_
_atom_site_type_symbol
_atom_site_label
_atom_site_fract_x
_atom_site_fract_y
_atom_site_fract_z
Si Si1 0.185629 0.919784 0.202774
Si Si2 0.185767 0.672766 0.624276
Si Si3 0.311126 0.079260 0.048258
Si Si4 0.812869 0.079615 0.549028
Si Si5 0.187093 0.579955 0.295968
Si Si6 0.813857 0.327294 0.126788
O O1 0.241053 0.901660 0.250363
O O2 0.259012 0.870331 0.167702
O O3 0.000000 0.915638 0.200586
O O4 0.232136 0.000000 0.195082
O O5 0.250000 0.750000 0.624793
O O6 0.241188 0.631621 0.582673
O O7 0.237751 0.629911 0.666018
O O8 0.000000 0.674845 0.624603
O O9 0.500000 0.079654 0.048416
O O10 0.258727 0.131743 0.084527
O O11 0.263550 0.000000 0.057442
O O12 0.261894 0.096767 0.000000
O O13 0.768729 0.094659 0.500000
O O14 0.000000 0.083159 0.551410
O O15 0.767565 0.000000 0.558381
O O16 0.229014 0.500000 0.305520
O O17 0.000000 0.583220 0.292561
O O18 0.750000 0.250000 0.127692
O O19 0.000000 0.325293 0.126244
#
# Coordination Sequence:
#
# PCOD9492165 Si02
#       6
#    16  16  16  16  16  16
#     4  10  21  37  58  83 109 139 178 223 269 320
#     4  11  23  37  55  81 113 148 183 222 269 320
#     4   8  15  30  53  79 104 134 177 224 267 316
#     4   9  19  37  60  84 110 142 181 225 272 322
#     4   9  19  37  59  81 106 139 181 226 271 321
#     4  11  22  35  53  78 110 147 182 220 269 320
#
# _framework density 18.336441000000001
#
# number of rings (size 3 to 8) (size 9 to 14) (size 15 to 20)
#    0.000    2.333    0.000    3.500    0.000    5.667 
#    0.000    4.167    0.000    1.500    0.000    5.833 
#    0.000    0.000    0.000    0.000    0.000    0.000 
#
# Total GULP energy -267994.567318 kJ/mol
# GULP energy per Si atom -5583.220152 kJ/mol
# Density = 1.829471 g / cm^3
# Si number density = 18.336441 Si / 1000 Ang^3
#
#
#
# Elastic Constant Matrix: (Units=GPa)
#
#
# Indices 1 2 3 4 5 6 
#
# 1 30.9802 44.3715 44.4733 0.0000 0.0000 0.0000
# 2 44.3715 159.6881 141.4893 0.0000 0.0000 0.0000
# 3 44.4733 141.4893 175.1022 0.0000 0.0000 0.0000
# 4 0.0000 0.0000 0.0000 -10.1474 0.0000 0.0000
# 5 0.0000 0.0000 0.0000 0.0000 11.9977 0.0000
# 6 0.0000 0.0000 0.0000 0.0000 0.0000 16.8545
#
#
#
# Elastic Compliance Matrix: (Units=1/GPa)
#
#
# Indices 1 2 3 4 5 6 
#
# 1 0.055200 -0.010265 -0.005725 0.000000 0.000000 0.000000
# 2 -0.010265 0.023955 -0.016749 0.000000 0.000000 0.000000
# 3 -0.005725 -0.016749 0.020699 0.000000 0.000000 0.000000
# 4 0.000000 0.000000 0.000000 -0.098547 0.000000 0.000000
# 5 0.000000 0.000000 0.000000 0.000000 0.083349 0.000000
# 6 0.000000 0.000000 0.000000 0.000000 0.000000 0.059331
#
#
# Mechanical properties :
#
#
# Convention : Reuss Voigt Hill
#
# Bulk Modulus (GPa) = 29.09141 91.82654 60.45898
# Shear Modulus (GPa) = 22.63204 12.77005 17.70105
#
# Velocity S-wave (km/s) = 3.51702 2.64186 3.11038
# Velocity P-wave (km/s) = 5.69143 7.71319 6.77812
#
# Compressibility (1/GPa) = 0.03437440
#
# Stress axis : x y z
#
# Youngs Moduli (GPa) = 18.11600 41.74459 48.31084
#
# Poissons Ratio (x) = 0.42852 0.27659
# Poissons Ratio (y) = 0.18597 0.80918
# Poissons Ratio (z) = 0.10372 0.69920
#
# Static dielectric constant tensor:
#      x y z
#    x 1.616720 0.000000 0.000000 
#    y 0.000000 1.604900 0.000000 
#    z 0.000000 0.000000 1.612960 
# 
# From -- ./inp_files/73130.got.cif
#   From: 2010.05.17/outbox.cif.g08.bks.cpg/sg65_37_cif.got.tgz:73130.got - 2010.06.03 17:01:31.
