data_PCOD9492035
_publ_section_title
;
Structure prediction by ZEFSAII (Michael W. Deem and Ramdas Pophale) SiO2 
 PCOD9492035
Probable space group: C M M M
;
_chemical_formula_sum "Si O2"
_cell_formula_units_Z 80
_cell_length_a 33.324018
_cell_length_b 11.195835
_cell_length_c 12.288977
_cell_angle_alpha 90.000000
_cell_angle_beta 90.000000
_cell_angle_gamma 90.000000
_cell_volume 4584.896974
_symmetry_space_group_name_H-M "C M M M"
_symmetry_group_IT_number 65
_symmetry_cell_setting 'orthorhombic'
loop_
_space_group_symop_operation_xyz
x,y,z
-x,-y,z
x,-y,-z
-x,y,-z
-x,-y,-z
x,y,-z
-x,y,z
x,-y,z
1/2+x,1/2+y,z
1/2-x,1/2-y,z
1/2+x,1/2-y,-z
1/2-x,1/2+y,-z
1/2-x,1/2-y,-z
1/2+x,1/2+y,-z
1/2-x,1/2+y,z
1/2+x,1/2-y,z
loop_
_atom_site_type_symbol
_atom_site_label
_atom_site_fract_x
_atom_site_fract_y
_atom_site_fract_z
Si Si1 0.280910 0.636592 0.236691
Si Si2 0.637922 0.358979 0.371580
Si Si3 0.545542 0.500000 0.129184
Si Si4 0.000000 0.641609 0.872359
Si Si5 0.204818 0.205986 0.000000
Si Si6 0.918299 0.247582 0.800399
Si Si7 0.129717 0.359478 0.000000
O O1 0.264354 0.500000 0.253185
O O2 0.250000 0.750000 0.245411
O O3 0.317879 0.654965 0.319117
O O4 0.299562 0.638988 0.114451
O O5 0.638733 0.335806 0.500000
O O6 0.627014 0.500000 0.356165
O O7 0.606880 0.272102 0.309424
O O8 0.500000 0.500000 0.173679
O O9 0.569221 0.615668 0.164253
O O10 0.542728 0.500000 0.000000
O O11 0.960369 0.682271 0.808110
O O12 0.000000 0.500000 0.881391
O O13 0.000000 0.689120 0.000000
O O14 0.250000 0.250000 0.000000
O O15 0.175449 0.318280 0.000000
O O16 0.890791 0.305514 0.893106
O O17 0.124709 0.500000 0.000000
#
# Coordination Sequence:
#
# PCOD9492035 Si02
#       7
#    16  16   8   8   8  16   8
#     4  10  21  38  61  90 123 159 197 246 306 367
#     4  10  22  40  61  86 118 157 205 257 301 344
#     4  11  20  32  55  89 125 149 188 239 305 359
#     4  11  22  37  58  89 126 159 190 236 301 366
#     4  10  21  37  56  89 122 157 186 241 295 363
#     4  12  21  37  59  88 122 155 193 248 299 358
#     4  12  24  37  60  91 122 161 199 238 297 365
#
# _framework density 17.448594
#
# number of rings (size 3 to 8) (size 9 to 14) (size 15 to 20)
#    0.000    1.200    6.000    0.900    0.000    3.600 
#    1.800    0.500    0.000    7.200    0.000    0.000 
#    0.000    0.000    0.000    0.000    0.000    0.000 
#
# Total GULP energy -222998.620520 kJ/mol
# GULP energy per Si atom -5574.965513 kJ/mol
# Density = 1.740888 g / cm^3
# Si number density = 17.448594 Si / 1000 Ang^3
#
#
#
# Elastic Constant Matrix: (Units=GPa)
#
#
# Indices 1 2 3 4 5 6 
#
# 1 103.5323 52.5888 67.8690 0.0000 0.0000 0.0000
# 2 52.5888 123.4373 47.2230 0.0000 0.0000 0.0000
# 3 67.8690 47.2230 138.0790 0.0000 0.0000 0.0000
# 4 0.0000 0.0000 0.0000 1.6814 0.0000 0.0000
# 5 0.0000 0.0000 0.0000 0.0000 13.9423 0.0000
# 6 0.0000 0.0000 0.0000 0.0000 0.0000 24.5870
#
#
#
# Elastic Compliance Matrix: (Units=1/GPa)
#
#
# Indices 1 2 3 4 5 6 
#
# 1 0.016096 -0.004407 -0.006404 0.000000 0.000000 0.000000
# 2 -0.004407 0.010528 -0.001434 0.000000 0.000000 0.000000
# 3 -0.006404 -0.001434 0.010880 0.000000 0.000000 0.000000
# 4 0.000000 0.000000 0.000000 0.594725 0.000000 0.000000
# 5 0.000000 0.000000 0.000000 0.000000 0.071724 0.000000
# 6 0.000000 0.000000 0.000000 0.000000 0.000000 0.040672
#
#
# Mechanical properties :
#
#
# Convention : Reuss Voigt Hill
#
# Bulk Modulus (GPa) = 76.84853 77.82337 77.33595
# Shear Modulus (GPa) = 6.46451 21.19999 13.83225
#
# Velocity S-wave (km/s) = 1.92690 3.48946 2.81862
# Velocity P-wave (km/s) = 7.00636 7.80599 7.41696
#
# Compressibility (1/GPa) = 0.01301261
#
# Stress axis : x y z
#
# Youngs Moduli (GPa) = 62.12886 94.98817 91.90806
#
# Poissons Ratio (x) = 0.41865 0.58858
# Poissons Ratio (y) = 0.27382 0.13181
# Poissons Ratio (z) = 0.39788 0.13623
#
# Static dielectric constant tensor:
#      x y z
#    x 1.613240 0.000000 0.000000 
#    y 0.000000 1.593620 0.000000 
#    z 0.000000 0.000000 1.589720 
# 
# From -- ./inp_files/33570.got.cif
#   From: 2010.05.17/outbox.cif.g08.bks.cpg/sg65_17_cif.got.tgz:33570.got - 2010.06.03 17:01:31.
