data_PCOD9492207
_publ_section_title
;
Structure prediction by ZEFSAII (Michael W. Deem and Ramdas Pophale) SiO2 
 PCOD9492207
Probable space group: C M M M
;
_chemical_formula_sum "Si O2"
_cell_formula_units_Z 88
_cell_length_a 9.380225
_cell_length_b 19.368214
_cell_length_c 25.565271
_cell_angle_alpha 90.000000
_cell_angle_beta 90.000000
_cell_angle_gamma 90.000000
_cell_volume 4644.652550
_symmetry_space_group_name_H-M "C M M M"
_symmetry_group_IT_number 65
_symmetry_cell_setting 'orthorhombic'
loop_
_space_group_symop_operation_xyz
x,y,z
-x,-y,z
x,-y,-z
-x,y,-z
-x,-y,-z
x,y,-z
-x,y,z
x,-y,z
1/2+x,1/2+y,z
1/2-x,1/2-y,z
1/2+x,1/2-y,-z
1/2-x,1/2+y,-z
1/2-x,1/2-y,-z
1/2+x,1/2+y,-z
1/2-x,1/2+y,z
1/2+x,1/2-y,z
loop_
_atom_site_type_symbol
_atom_site_label
_atom_site_fract_x
_atom_site_fract_y
_atom_site_fract_z
Si Si1 0.167644 0.582591 0.249940
Si Si2 0.000000 0.423179 0.937924
Si Si3 0.168545 0.677829 0.437941
Si Si4 0.667608 0.582761 0.642342
Si Si5 0.277206 0.332010 0.058778
Si Si6 0.659289 0.679457 0.174193
O O1 0.175948 0.500000 0.242484
O O2 0.248936 0.599427 0.304010
O O3 0.250872 0.621941 0.204412
O O4 0.000000 0.601482 0.251896
O O5 0.863589 0.376039 0.928704
O O6 0.000000 0.500000 0.913276
O O7 0.000000 0.432976 0.000000
O O8 0.178652 0.663139 0.500000
O O9 0.250000 0.750000 0.428413
O O10 0.249838 0.620743 0.404148
O O11 0.000000 0.682320 0.424693
O O12 0.500000 0.602324 0.644864
O O13 0.673959 0.500000 0.635525
O O14 0.250000 0.250000 0.054693
O O15 0.357689 0.339576 0.113112
O O16 0.328728 0.352823 0.000000
O O17 0.500000 0.687951 0.196534
O O18 0.750000 0.750000 0.177312
#
# Coordination Sequence:
#
# PCOD9492207 Si02
#       6
#    16   8  16  16  16  16
#     4  10  22  41  64  87 114 151 195 243 297 357
#     4   9  18  34  56  84 115 149 193 241 287 347
#     4  10  21  37  58  86 122 162 203 246 292 346
#     4  10  21  38  61  88 119 154 196 246 297 352
#     4   9  20  35  57  85 116 153 194 241 295 358
#     4  11  24  39  59  86 118 152 193 244 294 351
#
# _framework density 18.946518999999999
#
# number of rings (size 3 to 8) (size 9 to 14) (size 15 to 20)
#    0.000    2.091    0.000    2.182    6.364    5.455 
#    0.000    5.455    0.000    0.000    0.000    3.818 
#    0.000    0.000    0.000    0.000    0.000    0.000 
#
# Total GULP energy -245236.784437 kJ/mol
# GULP energy per Si atom -5573.563283 kJ/mol
# Density = 1.890340 g / cm^3
# Si number density = 18.946519 Si / 1000 Ang^3
#
#
#
# Elastic Constant Matrix: (Units=GPa)
#
#
# Indices 1 2 3 4 5 6 
#
# 1 196.0857 66.3321 70.3055 0.0000 0.0000 0.0000
# 2 66.3321 66.9267 42.5448 0.0000 0.0000 0.0000
# 3 70.3055 42.5448 98.2296 0.0000 0.0000 0.0000
# 4 0.0000 0.0000 0.0000 42.4915 0.0000 0.0000
# 5 0.0000 0.0000 0.0000 0.0000 27.8194 0.0000
# 6 0.0000 0.0000 0.0000 0.0000 0.0000 55.2038
#
#
#
# Elastic Compliance Matrix: (Units=1/GPa)
#
#
# Indices 1 2 3 4 5 6 
#
# 1 0.008388 -0.006206 -0.003316 0.000000 0.000000 0.000000
# 2 -0.006206 0.025210 -0.006477 0.000000 0.000000 0.000000
# 3 -0.003316 -0.006477 0.015359 0.000000 0.000000 0.000000
# 4 0.000000 0.000000 0.000000 0.023534 0.000000 0.000000
# 5 0.000000 0.000000 0.000000 0.000000 0.035946 0.000000
# 6 0.000000 0.000000 0.000000 0.000000 0.000000 0.018115
#
#
# Mechanical properties :
#
#
# Convention : Reuss Voigt Hill
#
# Bulk Modulus (GPa) = 58.96462 79.95632 69.46047
# Shear Modulus (GPa) = 30.45042 37.24024 33.84533
#
# Velocity S-wave (km/s) = 4.01331 4.43826 4.23112
# Velocity P-wave (km/s) = 7.25705 8.27991 7.78529
#
# Compressibility (1/GPa) = 0.01695932
#
# Stress axis : x y z
#
# Youngs Moduli (GPa) = 119.21989 39.66727 65.10954
#
# Poissons Ratio (x) = 0.24616 0.21588
# Poissons Ratio (y) = 0.73983 0.42173
# Poissons Ratio (z) = 0.39529 0.25693
#
# Static dielectric constant tensor:
#      x y z
#    x 1.624690 0.000000 0.000000 
#    y 0.000000 1.639650 0.000000 
#    z 0.000000 0.000000 1.661110 
# 
# From -- ./inp_files/67482.got.cif
#   From: 2010.05.17/outbox.cif.g08.bks.cpg/sg65_34_cif.got.tgz:67482.got - 2010.06.03 17:01:31.
