data_PCOD9492619
_publ_section_title
;
Structure prediction by ZEFSAII (Michael W. Deem and Ramdas Pophale) SiO2 
 PCOD9492619
Probable space group: C M M M
;
_chemical_formula_sum "Si O2"
_cell_formula_units_Z 50
_cell_length_a 7.856126
_cell_length_b 19.393948
_cell_length_c 15.399078
_cell_angle_alpha 90.000000
_cell_angle_beta 90.000000
_cell_angle_gamma 90.000000
_cell_volume 2346.223529
_symmetry_space_group_name_H-M "C M M M"
_symmetry_group_IT_number 65
_symmetry_cell_setting 'orthorhombic'
loop_
_space_group_symop_operation_xyz
x,y,z
-x,-y,z
x,-y,-z
-x,y,-z
-x,-y,-z
x,y,-z
-x,y,z
x,-y,z
1/2+x,1/2+y,z
1/2-x,1/2-y,z
1/2+x,1/2-y,-z
1/2-x,1/2+y,-z
1/2-x,1/2-y,-z
1/2+x,1/2+y,-z
1/2-x,1/2+y,z
1/2+x,1/2-y,z
loop_
_atom_site_type_symbol
_atom_site_label
_atom_site_fract_x
_atom_site_fract_y
_atom_site_fract_z
Si Si1 0.795261 0.618442 0.000000
Si Si2 0.300516 0.826963 0.810436
Si Si3 0.205724 0.169753 0.500000
Si Si4 0.299335 0.577575 0.658875
Si Si5 0.500000 0.500000 0.000000
O O1 0.765929 0.661268 0.088067
O O2 0.653321 0.559172 0.000000
O O3 0.000000 0.597723 0.000000
O O4 0.500000 0.834563 0.796522
O O5 0.250000 0.750000 0.783685
O O6 0.216993 0.885552 0.751490
O O7 0.250000 0.250000 0.500000
O O8 0.270054 0.128570 0.415218
O O9 0.000000 0.167461 0.500000
O O10 0.500000 0.571131 0.640782
O O11 0.226860 0.500000 0.657853
#
# Coordination Sequence:
#
# PCOD9492619 Si02
#       5
#     8  16   8  16   2
#     4  10  26  44  65 100 135 170 222 273 319 388
#     4  11  24  42  64  91 128 167 213 268 318 381
#     4  10  21  39  61  89 123 162 207 262 314 380
#     4  10  22  39  63  91 124 163 210 259 320 386
#     4  12  26  40  76  94 132 178 220 260 344 386
#
# _framework density 21.310842000000001
#
# number of rings (size 3 to 8) (size 9 to 14) (size 15 to 20)
#    0.000    1.600    0.000    3.120    6.720    6.400 
#    0.000    0.000    0.000    2.880    0.000    0.000 
#    0.000    0.000    0.000    0.000    0.000    0.000 
#
# Total GULP energy -139354.224635 kJ/mol
# GULP energy per Si atom -5574.168985 kJ/mol
# Density = 2.126234 g / cm^3
# Si number density = 21.310842 Si / 1000 Ang^3
#
#
#
# Elastic Constant Matrix: (Units=GPa)
#
#
# Indices 1 2 3 4 5 6 
#
# 1 37.1908 28.5941 7.1085 0.0000 0.0000 0.0000
# 2 28.5941 201.0128 69.2608 0.0000 0.0000 0.0000
# 3 7.1085 69.2608 125.8972 0.0000 0.0000 0.0000
# 4 0.0000 0.0000 0.0000 -472.4115 0.0000 0.0000
# 5 0.0000 0.0000 0.0000 0.0000 38.7852 0.0000
# 6 0.0000 0.0000 0.0000 0.0000 0.0000 33.5408
#
#
#
# Elastic Compliance Matrix: (Units=1/GPa)
#
#
# Indices 1 2 3 4 5 6 
#
# 1 0.030258 -0.004585 0.000814 0.000000 0.000000 0.000000
# 2 -0.004585 0.006833 -0.003500 0.000000 0.000000 0.000000
# 3 0.000814 -0.003500 0.009823 0.000000 0.000000 0.000000
# 4 0.000000 0.000000 0.000000 -0.002117 0.000000 0.000000
# 5 0.000000 0.000000 0.000000 0.000000 0.025783 0.000000
# 6 0.000000 0.000000 0.000000 0.000000 0.000000 0.029814
#
#
# Mechanical properties :
#
#
# Convention : Reuss Voigt Hill
#
# Bulk Modulus (GPa) = 30.89165 63.78083 47.33624
# Shear Modulus (GPa) = 39.76885 -62.74129 -11.48622
#
# Velocity S-wave (km/s) = 4.32456 -5.43184 -2.32412
# Velocity P-wave (km/s) = 6.28196 3.05714 3.88052
#
# Compressibility (1/GPa) = 0.03237120
#
# Stress axis : x y z
#
# Youngs Moduli (GPa) = 33.04947 146.34869 101.80545
#
# Poissons Ratio (x) = 0.67094 -0.08284
# Poissons Ratio (y) = 0.15152 0.35634
# Poissons Ratio (z) = -0.02689 0.51226
#
# Static dielectric constant tensor:
#      x y z
#    x 1.784320 0.000000 0.000000 
#    y 0.000000 1.728140 0.000000 
#    z 0.000000 0.000000 1.773310 
# 
# From -- ./inp_files/35121.got.cif
#   From: 2010.05.17/outbox.cif.g08.bks.cpg/sg65_18_cif.got.tgz:35121.got - 2010.06.03 17:01:31.
