data_PCOD9492783
_publ_section_title
;
Structure prediction by ZEFSAII (Michael W. Deem and Ramdas Pophale) SiO2 
 PCOD9492783
Probable space group: C M M M
;
_chemical_formula_sum "Si O2"
_cell_formula_units_Z 56
_cell_length_a 11.408235
_cell_length_b 22.756078
_cell_length_c 10.105948
_cell_angle_alpha 90.000000
_cell_angle_beta 90.000000
_cell_angle_gamma 90.000000
_cell_volume 2623.571664
_symmetry_space_group_name_H-M "C M M M"
_symmetry_group_IT_number 65
_symmetry_cell_setting 'orthorhombic'
loop_
_space_group_symop_operation_xyz
x,y,z
-x,-y,z
x,-y,-z
-x,y,-z
-x,-y,-z
x,y,-z
-x,y,z
x,-y,z
1/2+x,1/2+y,z
1/2-x,1/2-y,z
1/2+x,1/2-y,-z
1/2-x,1/2+y,-z
1/2-x,1/2-y,-z
1/2+x,1/2+y,-z
1/2-x,1/2+y,z
1/2+x,1/2-y,z
loop_
_atom_site_type_symbol
_atom_site_label
_atom_site_fract_x
_atom_site_fract_y
_atom_site_fract_z
Si Si1 0.750000 0.750000 0.782257
Si Si2 0.360484 0.568310 0.357637
Si Si3 0.000000 0.388084 0.651280
Si Si4 0.706663 0.119543 0.850739
Si Si5 0.000000 0.754008 0.353972
O O1 0.710420 0.809481 0.854711
O O2 0.871702 0.767920 0.707311
O O3 0.314690 0.593051 0.500000
O O4 0.500000 0.570235 0.364052
O O5 0.324571 0.500000 0.352484
O O6 0.322800 0.598797 0.222951
O O7 0.889573 0.401971 0.744292
O O8 0.000000 0.411333 0.500000
O O9 0.000000 0.317087 0.639684
O O10 0.689532 0.097847 0.000000
O O11 0.000000 0.780112 0.500000
#
# Coordination Sequence:
#
# PCOD9492783 Si02
#       5
#     8  16   8  16   8
#     4  10  22  36  52  84 123 164 201 246 305 368
#     4   9  20  40  63  87 117 154 198 251 305 354
#     4   9  19  37  58  80 111 152 194 240 291 344
#     4  11  22  37  58  86 120 159 196 243 299 361
#     4   9  18  33  53  78 111 152 203 253 295 347
#
# _framework density 21.344947999999999
#
# number of rings (size 3 to 8) (size 9 to 14) (size 15 to 20)
#    0.000    2.286    0.000    3.000    2.000    4.571 
#    0.000    3.571    0.000    4.286    0.000    0.000 
#    0.000    0.000    0.000    0.000    0.000    0.000 
#
# Total GULP energy -155872.070717 kJ/mol
# GULP energy per Si atom -5566.859668 kJ/mol
# Density = 2.129637 g / cm^3
# Si number density = 21.344948 Si / 1000 Ang^3
#
#
#
# Elastic Constant Matrix: (Units=GPa)
#
#
# Indices 1 2 3 4 5 6 
#
# 1 96.3585 1.8027 59.0420 0.0000 0.0000 0.0000
# 2 1.8027 25.3845 28.1431 0.0000 0.0000 0.0000
# 3 59.0420 28.1431 209.3790 0.0000 0.0000 0.0000
# 4 0.0000 0.0000 0.0000 5.6646 0.0000 0.0000
# 5 0.0000 0.0000 0.0000 0.0000 -3.2594 0.0000
# 6 0.0000 0.0000 0.0000 0.0000 0.0000 21.6411
#
#
#
# Elastic Compliance Matrix: (Units=1/GPa)
#
#
# Indices 1 2 3 4 5 6 
#
# 1 0.012826 0.003642 -0.004106 0.000000 0.000000 0.000000
# 2 0.003642 0.047327 -0.007388 0.000000 0.000000 0.000000
# 3 -0.004106 -0.007388 0.006927 0.000000 0.000000 0.000000
# 4 0.000000 0.000000 0.000000 0.176534 0.000000 0.000000
# 5 0.000000 0.000000 0.000000 0.000000 -0.306803 0.000000
# 6 0.000000 0.000000 0.000000 0.000000 0.000000 0.046208
#
#
# Mechanical properties :
#
#
# Convention : Reuss Voigt Hill
#
# Bulk Modulus (GPa) = 19.46518 56.56642 38.01580
# Shear Modulus (GPa) = 315.47799 20.95154 168.21477
#
# Velocity S-wave (km/s) = 12.17048 3.13640 8.88700
# Velocity P-wave (km/s) = 14.37475 6.29878 11.09748
#
# Compressibility (1/GPa) = 0.05137378
#
# Stress axis : x y z
#
# Youngs Moduli (GPa) = 77.96812 21.12978 144.36339
#
# Poissons Ratio (x) = -0.07695 0.59278
# Poissons Ratio (y) = -0.28392 1.06658
# Poissons Ratio (z) = 0.32015 0.15611
#
# Static dielectric constant tensor:
#      x y z
#    x 1.918890 0.000000 0.000000 
#    y 0.000000 1.785630 0.000000 
#    z 0.000000 0.000000 1.770580 
# 
# From -- ./inp_files/4469.got.cif
#   From: 2010.05.17/outbox.cif.g08.bks.cpg/sg65_3_cif.got.tgz:4469.got - 2010.06.03 17:01:31.
