data_PCOD9492722
_publ_section_title
;
Structure prediction by ZEFSAII (Michael W. Deem and Ramdas Pophale) SiO2 
 PCOD9492722
Probable space group: C M M M
;
_chemical_formula_sum "Si O2"
_cell_formula_units_Z 72
_cell_length_a 27.252958
_cell_length_b 16.289012
_cell_length_c 8.234492
_cell_angle_alpha 90.000000
_cell_angle_beta 90.000000
_cell_angle_gamma 90.000000
_cell_volume 3655.486649
_symmetry_space_group_name_H-M "C M M M"
_symmetry_group_IT_number 65
_symmetry_cell_setting 'orthorhombic'
loop_
_space_group_symop_operation_xyz
x,y,z
-x,-y,z
x,-y,-z
-x,y,-z
-x,-y,-z
x,y,-z
-x,y,z
x,-y,z
1/2+x,1/2+y,z
1/2-x,1/2-y,z
1/2+x,1/2-y,-z
1/2-x,1/2+y,-z
1/2-x,1/2-y,-z
1/2+x,1/2+y,-z
1/2-x,1/2+y,z
1/2+x,1/2-y,z
loop_
_atom_site_type_symbol
_atom_site_label
_atom_site_fract_x
_atom_site_fract_y
_atom_site_fract_z
Si Si1 0.276584 0.402138 0.190415
Si Si2 0.617676 0.906451 0.500000
Si Si3 0.221824 0.663082 0.500000
Si Si4 0.382653 0.651371 0.811323
Si Si5 0.445630 0.500000 0.308988
Si Si6 0.055950 0.701983 0.686547
O O1 0.286434 0.500000 0.193226
O O2 0.238004 0.381047 0.331421
O O3 0.326271 0.354694 0.242693
O O4 0.263965 0.381379 0.000000
O O5 0.662840 0.842809 0.500000
O O6 0.583101 0.884310 0.345944
O O7 0.634309 0.000000 0.500000
O O8 0.250000 0.750000 0.500000
O O9 0.415410 0.580554 0.734718
O O10 0.409599 0.737151 0.784176
O O11 0.380203 0.631859 0.000000
O O12 0.500000 0.500000 0.232425
O O13 0.451041 0.500000 0.500000
O O14 0.053853 0.735889 0.500000
O O15 0.000000 0.696218 0.745726
#
# Coordination Sequence:
#
# PCOD9492722 Si02
#       6
#    16   8   8  16   8  16
#     4  10  22  39  59  88 123 163 208 248 295 360
#     4  10  21  40  64  91 115 149 209 254 302 372
#     4  12  24  39  65  93 123 162 194 253 321 374
#     4  11  21  35  55  84 122 163 205 247 297 363
#     4  11  23  33  49  79 119 165 213 255 289 348
#     4   9  20  37  59  85 115 151 196 249 307 360
#
# _framework density 19.69642
#
# number of rings (size 3 to 8) (size 9 to 14) (size 15 to 20)
#    0.667    1.000    1.111    4.000    3.111    5.333 
#    0.000    1.111    0.000    2.000    0.000    1.556 
#    0.000    0.000    0.000    0.000    0.000    0.000 
#
# Total GULP energy -200591.141479 kJ/mol
# GULP energy per Si atom -5571.976152 kJ/mol
# Density = 1.965159 g / cm^3
# Si number density = 19.696420 Si / 1000 Ang^3
#
#
#
# Elastic Constant Matrix: (Units=GPa)
#
#
# Indices 1 2 3 4 5 6 
#
# 1 92.7025 4.1082 22.7128 0.0000 0.0000 0.0000
# 2 4.1082 64.2235 -0.2256 0.0000 0.0000 0.0000
# 3 22.7128 -0.2256 45.0449 0.0000 0.0000 0.0000
# 4 0.0000 0.0000 0.0000 28.8758 0.0000 0.0000
# 5 0.0000 0.0000 0.0000 0.0000 1.8823 0.0000
# 6 0.0000 0.0000 0.0000 0.0000 0.0000 22.9543
#
#
#
# Elastic Compliance Matrix: (Units=1/GPa)
#
#
# Indices 1 2 3 4 5 6 
#
# 1 0.012350 -0.000812 -0.006231 0.000000 0.000000 0.000000
# 2 -0.000812 0.015624 0.000488 0.000000 0.000000 0.000000
# 3 -0.006231 0.000488 0.025344 0.000000 0.000000 0.000000
# 4 0.000000 0.000000 0.000000 0.034631 0.000000 0.000000
# 5 0.000000 0.000000 0.000000 0.000000 0.531254 0.000000
# 6 0.000000 0.000000 0.000000 0.000000 0.000000 0.043565
#
#
# Mechanical properties :
#
#
# Convention : Reuss Voigt Hill
#
# Bulk Modulus (GPa) = 24.87085 28.35129 26.61107
# Shear Modulus (GPa) = 7.25392 22.43417 14.84405
#
# Velocity S-wave (km/s) = 1.92116 3.37856 2.74823
# Velocity P-wave (km/s) = 4.19233 5.44472 4.85905
#
# Compressibility (1/GPa) = 0.04020771
#
# Stress axis : x y z
#
# Youngs Moduli (GPa) = 80.97258 64.00296 39.45639
#
# Poissons Ratio (x) = 0.05196 0.24586
# Poissons Ratio (y) = 0.06574 -0.01924
# Poissons Ratio (z) = 0.50455 -0.03121
#
# Static dielectric constant tensor:
#      x y z
#    x 1.770030 0.000000 0.000000 
#    y 0.000000 1.672550 0.000000 
#    z 0.000000 0.000000 1.705980 
# 
# From -- ./inp_files/13638.got.cif
#   From: 2010.05.17/outbox.cif.g08.bks.cpg/sg65_7_cif.got.tgz:13638.got - 2010.06.03 17:01:31.
