data_PCOD9492049
_publ_section_title
;
Structure prediction by ZEFSAII (Michael W. Deem and Ramdas Pophale) SiO2 
 PCOD9492049
Probable space group: C M M M
;
_chemical_formula_sum "Si O2"
_cell_formula_units_Z 64
_cell_length_a 8.611231
_cell_length_b 16.727670
_cell_length_c 22.684757
_cell_angle_alpha 90.000000
_cell_angle_beta 90.000000
_cell_angle_gamma 90.000000
_cell_volume 3267.644661
_symmetry_space_group_name_H-M "C M M M"
_symmetry_group_IT_number 65
_symmetry_cell_setting 'orthorhombic'
loop_
_space_group_symop_operation_xyz
x,y,z
-x,-y,z
x,-y,-z
-x,y,-z
-x,-y,-z
x,y,-z
-x,y,z
x,-y,z
1/2+x,1/2+y,z
1/2-x,1/2-y,z
1/2+x,1/2-y,-z
1/2-x,1/2+y,-z
1/2-x,1/2-y,-z
1/2+x,1/2+y,-z
1/2-x,1/2+y,z
1/2+x,1/2-y,z
loop_
_atom_site_type_symbol
_atom_site_label
_atom_site_fract_x
_atom_site_fract_y
_atom_site_fract_z
Si Si1 0.183211 0.662964 0.738640
Si Si2 0.685125 0.340868 0.133142
Si Si3 0.811818 0.838567 0.500000
Si Si4 0.316426 0.000000 0.929661
Si Si5 0.324356 0.593883 0.375768
O O1 0.250000 0.750000 0.724359
O O2 0.265792 0.639242 0.799564
O O3 0.224229 0.611681 0.681702
O O4 0.000000 0.665853 0.749265
O O5 0.500000 0.336344 0.128087
O O6 0.750000 0.250000 0.120223
O O7 0.746209 0.416582 0.095415
O O8 0.750000 0.750000 0.500000
O O9 0.759517 0.875552 0.562056
O O10 0.000000 0.844481 0.500000
O O11 0.500000 0.000000 0.915709
O O12 0.295952 0.000000 0.000000
O O13 0.500000 0.627752 0.366827
O O14 0.338255 0.500000 0.381966
#
# Coordination Sequence:
#
# PCOD9492049 Si02
#       5
#    16  16   8   8  16
#     4  11  22  38  60  87 120 156 201 251 306 367
#     4  11  23  42  68  97 132 173 218 268 322 379
#     4  10  21  37  57  79 107 150 195 246 300 362
#     4  11  25  45  69  99 135 174 217 264 315 377
#     4  10  21  37  57  82 114 151 196 245 303 366
#
# _framework density 19.585972999999999
#
# number of rings (size 3 to 8) (size 9 to 14) (size 15 to 20)
#    0.000    1.375    0.000    7.500    1.750    6.500 
#    0.000    0.000    0.000    2.250    0.000    0.000 
#    0.000    0.000    0.000    0.000    0.000    0.000 
#
# Total GULP energy -178602.238084 kJ/mol
# GULP energy per Si atom -5581.319940 kJ/mol
# Density = 1.954139 g / cm^3
# Si number density = 19.585973 Si / 1000 Ang^3
#
#
#
# Elastic Constant Matrix: (Units=GPa)
#
#
# Indices 1 2 3 4 5 6 
#
# 1 131.0543 63.7497 60.1682 0.0000 0.0000 0.0000
# 2 63.7497 115.0587 90.9115 0.0000 0.0000 0.0000
# 3 60.1682 90.9115 101.8557 0.0000 0.0000 0.0000
# 4 0.0000 0.0000 0.0000 85.7662 0.0000 0.0000
# 5 0.0000 0.0000 0.0000 0.0000 29.5391 0.0000
# 6 0.0000 0.0000 0.0000 0.0000 0.0000 33.3280
#
#
#
# Elastic Compliance Matrix: (Units=1/GPa)
#
#
# Indices 1 2 3 4 5 6 
#
# 1 0.010807 -0.003201 -0.003527 0.000000 0.000000 0.000000
# 2 -0.003201 0.030433 -0.025272 0.000000 0.000000 0.000000
# 3 -0.003527 -0.025272 0.034458 0.000000 0.000000 0.000000
# 4 0.000000 0.000000 0.000000 0.011660 0.000000 0.000000
# 5 0.000000 0.000000 0.000000 0.000000 0.033853 0.000000
# 6 0.000000 0.000000 0.000000 0.000000 0.000000 0.030005
#
#
# Mechanical properties :
#
#
# Convention : Reuss Voigt Hill
#
# Bulk Modulus (GPa) = 85.48590 86.40307 85.94449
# Shear Modulus (GPa) = 22.81909 38.60261 30.71085
#
# Velocity S-wave (km/s) = 3.41702 4.44433 3.96410
# Velocity P-wave (km/s) = 7.70125 8.39921 8.05779
#
# Compressibility (1/GPa) = 0.01169784
#
# Stress axis : x y z
#
# Youngs Moduli (GPa) = 92.53575 32.85877 29.02096
#
# Poissons Ratio (x) = 0.10519 0.10234
# Poissons Ratio (y) = 0.29622 0.73343
# Poissons Ratio (z) = 0.32633 0.83042
#
# Static dielectric constant tensor:
#      x y z
#    x 1.706960 0.000000 0.000000 
#    y 0.000000 1.652280 0.000000 
#    z 0.000000 0.000000 2.036940 
# 
# From -- ./inp_files/58844.got.cif
#   From: 2010.05.17/outbox.cif.g08.bks.cpg/sg65_30_cif.got.tgz:58844.got - 2010.06.03 17:01:31.
