data_PCOD9492254
_publ_section_title
;
Structure prediction by ZEFSAII (Michael W. Deem and Ramdas Pophale) SiO2 
 PCOD9492254
Probable space group: C M M M
;
_chemical_formula_sum "Si O2"
_cell_formula_units_Z 88
_cell_length_a 8.059880
_cell_length_b 18.546034
_cell_length_c 30.786063
_cell_angle_alpha 90.000000
_cell_angle_beta 90.000000
_cell_angle_gamma 90.000000
_cell_volume 4601.864016
_symmetry_space_group_name_H-M "C M M M"
_symmetry_group_IT_number 65
_symmetry_cell_setting 'orthorhombic'
loop_
_space_group_symop_operation_xyz
x,y,z
-x,-y,z
x,-y,-z
-x,y,-z
-x,-y,-z
x,y,-z
-x,y,z
x,-y,z
1/2+x,1/2+y,z
1/2-x,1/2-y,z
1/2+x,1/2-y,-z
1/2-x,1/2+y,-z
1/2-x,1/2-y,-z
1/2+x,1/2+y,-z
1/2-x,1/2+y,z
1/2+x,1/2-y,z
loop_
_atom_site_type_symbol
_atom_site_label
_atom_site_fract_x
_atom_site_fract_y
_atom_site_fract_z
Si Si1 0.303681 0.918723 0.282315
Si Si2 0.305035 0.667744 0.633496
Si Si3 0.000000 0.584723 0.052066
Si Si4 0.200190 0.416795 0.451910
Si Si5 0.802323 0.917775 0.188195
Si Si6 0.202187 0.834245 0.899383
O O1 0.500000 0.924093 0.278769
O O2 0.266303 0.872686 0.324630
O O3 0.242299 0.889638 0.236025
O O4 0.233208 0.000000 0.287418
O O5 0.500000 0.664411 0.637684
O O6 0.250000 0.750000 0.632810
O O7 0.255896 0.629841 0.588542
O O8 0.831164 0.622816 0.069630
O O9 0.000000 0.500000 0.064819
O O10 0.000000 0.589156 0.000000
O O11 0.255808 0.391990 0.500000
O O12 0.254048 0.500000 0.446481
O O13 0.000000 0.416743 0.452136
O O14 0.756821 0.866465 0.148393
O O15 0.000000 0.923594 0.186480
O O16 0.733582 0.000000 0.183712
O O17 0.250000 0.750000 0.901636
O O18 0.000000 0.843057 0.907220
#
# Coordination Sequence:
#
# PCOD9492254 Si02
#       6
#    16  16   8  16  16  16
#     4  10  21  37  59  87 118 157 199 242 297 358
#     4  12  25  39  56  79 113 152 192 241 294 349
#     4  11  26  46  70 100 133 175 227 279 331 395
#     4   9  19  38  63  87 111 142 181 229 285 348
#     4   9  19  36  60  89 123 163 208 257 307 367
#     4  11  23  42  66  99 136 177 220 272 334 393
#
# _framework density 19.122686999999999
#
# number of rings (size 3 to 8) (size 9 to 14) (size 15 to 20)
#    0.000    1.727    0.909    3.818    1.273    6.909 
#    0.000    3.636    0.000    0.000    0.000    0.000 
#    0.000    0.000    0.000    0.000    0.000    0.000 
#
# Total GULP energy -245531.560769 kJ/mol
# GULP energy per Si atom -5580.262745 kJ/mol
# Density = 1.907916 g / cm^3
# Si number density = 19.122687 Si / 1000 Ang^3
#
#
#
# Elastic Constant Matrix: (Units=GPa)
#
#
# Indices 1 2 3 4 5 6 
#
# 1 48.6251 20.5711 23.3277 0.0000 0.0000 0.0000
# 2 20.5711 100.2145 67.9542 0.0000 0.0000 0.0000
# 3 23.3277 67.9542 133.7972 0.0000 0.0000 0.0000
# 4 0.0000 0.0000 0.0000 -5.3374 0.0000 0.0000
# 5 0.0000 0.0000 0.0000 0.0000 35.4933 0.0000
# 6 0.0000 0.0000 0.0000 0.0000 0.0000 19.2604
#
#
#
# Elastic Compliance Matrix: (Units=1/GPa)
#
#
# Indices 1 2 3 4 5 6 
#
# 1 0.023042 -0.003059 -0.002464 0.000000 0.000000 0.000000
# 2 -0.003059 0.015627 -0.007403 0.000000 0.000000 0.000000
# 3 -0.002464 -0.007403 0.011664 0.000000 0.000000 0.000000
# 4 0.000000 0.000000 0.000000 -0.187355 0.000000 0.000000
# 5 0.000000 0.000000 0.000000 0.000000 0.028174 0.000000
# 6 0.000000 0.000000 0.000000 0.000000 0.000000 0.051920
#
#
# Mechanical properties :
#
#
# Convention : Reuss Voigt Hill
#
# Bulk Modulus (GPa) = 40.85018 56.26033 48.55525
# Shear Modulus (GPa) = -218.17606 21.26883 -98.45362
#
# Velocity S-wave (km/s) = -10.69301 3.33863 -7.18311
# Velocity P-wave (km/s) = 11.44751 6.65932 6.58403
#
# Compressibility (1/GPa) = 0.02447970
#
# Stress axis : x y z
#
# Youngs Moduli (GPa) = 43.39969 63.99347 85.73732
#
# Poissons Ratio (x) = 0.19577 0.21122
# Poissons Ratio (y) = 0.13277 0.63473
# Poissons Ratio (z) = 0.10692 0.47376
#
# Static dielectric constant tensor:
#      x y z
#    x 1.674990 0.000000 0.000000 
#    y 0.000000 1.667160 0.000000 
#    z 0.000000 0.000000 1.266110 
# 
# From -- ./inp_files/76677.got.cif
#   From: 2010.05.17/outbox.cif.g08.bks.cpg/sg65_39_cif.got.tgz:76677.got - 2010.06.03 17:01:31.
