data_PCOD9492043
_publ_section_title
;
Structure prediction by ZEFSAII (Michael W. Deem and Ramdas Pophale) SiO2 
 PCOD9492043
Probable space group: C M M M
;
_chemical_formula_sum "Si O2"
_cell_formula_units_Z 52
_cell_length_a 7.276834
_cell_length_b 14.803614
_cell_length_c 18.802945
_cell_angle_alpha 90.000000
_cell_angle_beta 90.000000
_cell_angle_gamma 90.000000
_cell_volume 2025.517949
_symmetry_space_group_name_H-M "C M M M"
_symmetry_group_IT_number 65
_symmetry_cell_setting 'orthorhombic'
loop_
_space_group_symop_operation_xyz
x,y,z
-x,-y,z
x,-y,-z
-x,y,-z
-x,-y,-z
x,y,-z
-x,y,z
x,-y,z
1/2+x,1/2+y,z
1/2-x,1/2-y,z
1/2+x,1/2-y,-z
1/2-x,1/2+y,-z
1/2-x,1/2-y,-z
1/2+x,1/2+y,-z
1/2-x,1/2+y,z
1/2+x,1/2-y,z
loop_
_atom_site_type_symbol
_atom_site_label
_atom_site_fract_x
_atom_site_fract_y
_atom_site_fract_z
Si Si1 0.717883 0.642487 0.729829
Si Si2 0.500000 0.825907 0.000000
Si Si3 0.219398 0.141350 0.576609
Si Si4 0.716802 0.603688 0.888089
O O1 0.500000 0.624478 0.728698
O O2 0.750000 0.750000 0.731462
O O3 0.790179 0.609034 0.653333
O O4 0.779977 0.607207 0.805945
O O5 0.658841 0.837141 0.938167
O O6 0.289716 0.108210 0.500000
O O7 0.250000 0.250000 0.576708
O O8 0.000000 0.125675 0.576471
O O9 0.500000 0.628354 0.892025
O O10 0.734377 0.500000 0.912590
#
# Coordination Sequence:
#
# PCOD9492043 Si02
#       4
#    16   4  16  16
#     4   9  18  31  50  74 105 138 166 208 259 304
#     4  12  23  38  62  82  96 130 177 220 261 306
#     4   8  13  23  41  67  97 130 168 204 240 289
#     4  10  21  37  57  79 103 132 172 216 257 308
#
# _framework density 25.672446999999998
#
# number of rings (size 3 to 8) (size 9 to 14) (size 15 to 20)
#    0.000    2.769    0.000    1.846    2.154    1.231 
#    0.000    0.769    0.000    0.923    0.000    6.462 
#    0.000    2.462    0.000    0.308    0.000    0.000 
#
# Total GULP energy -144799.103785 kJ/mol
# GULP energy per Si atom -5569.196299 kJ/mol
# Density = 2.561402 g / cm^3
# Si number density = 25.672447 Si / 1000 Ang^3
#
#
#
# Elastic Constant Matrix: (Units=GPa)
#
#
# Indices 1 2 3 4 5 6 
#
# 1 144.7259 17.4949 61.8065 0.0000 0.0000 0.0000
# 2 17.4949 88.2168 31.1968 0.0000 0.0000 0.0000
# 3 61.8065 31.1968 297.5210 0.0000 0.0000 0.0000
# 4 0.0000 0.0000 0.0000 -66.8499 0.0000 0.0000
# 5 0.0000 0.0000 0.0000 0.0000 1.8770 0.0000
# 6 0.0000 0.0000 0.0000 0.0000 0.0000 -6.0543
#
#
#
# Elastic Compliance Matrix: (Units=1/GPa)
#
#
# Indices 1 2 3 4 5 6 
#
# 1 0.007665 -0.000994 -0.001488 0.000000 0.000000 0.000000
# 2 -0.000994 0.011901 -0.001041 0.000000 0.000000 0.000000
# 3 -0.001488 -0.001041 0.003779 0.000000 0.000000 0.000000
# 4 0.000000 0.000000 0.000000 -0.014959 0.000000 0.000000
# 5 0.000000 0.000000 0.000000 0.000000 0.532766 0.000000
# 6 0.000000 0.000000 0.000000 0.000000 0.000000 -0.165171
#
#
# Mechanical properties :
#
#
# Convention : Reuss Voigt Hill
#
# Bulk Modulus (GPa) = 61.35386 83.49558 72.42472
# Shear Modulus (GPa) = 12.87129 13.79224 13.33177
#
# Velocity S-wave (km/s) = 2.24155 2.32036 2.28129
# Velocity P-wave (km/s) = 5.53624 6.30657 5.93392
#
# Compressibility (1/GPa) = 0.01629889
#
# Stress axis : x y z
#
# Youngs Moduli (GPa) = 130.45823 84.02578 264.58842
#
# Poissons Ratio (x) = 0.08351 0.39375
# Poissons Ratio (y) = 0.12966 0.27555
# Poissons Ratio (z) = 0.19414 0.08751
#
# Static dielectric constant tensor:
#      x y z
#    x 1.997550 0.000000 0.000000 
#    y 0.000000 2.009030 0.000000 
#    z 0.000000 0.000000 2.032900 
# 
# From -- ./inp_files/35666.got.cif
#   From: 2010.05.17/outbox.cif.g08.bks.cpg/sg65_18_cif.got.tgz:35666.got - 2010.06.03 17:01:31.
