data_PCOD9492041
_publ_section_title
;
Structure prediction by ZEFSAII (Michael W. Deem and Ramdas Pophale) SiO2 
 PCOD9492041
Probable space group: C M M M
;
_chemical_formula_sum "Si O2"
_cell_formula_units_Z 112
_cell_length_a 19.404354
_cell_length_b 22.978387
_cell_length_c 12.764873
_cell_angle_alpha 90.000000
_cell_angle_beta 90.000000
_cell_angle_gamma 90.000000
_cell_volume 5691.611220
_symmetry_space_group_name_H-M "C M M M"
_symmetry_group_IT_number 65
_symmetry_cell_setting 'orthorhombic'
loop_
_space_group_symop_operation_xyz
x,y,z
-x,-y,z
x,-y,-z
-x,y,-z
-x,-y,-z
x,y,-z
-x,y,z
x,-y,z
1/2+x,1/2+y,z
1/2-x,1/2-y,z
1/2+x,1/2-y,-z
1/2-x,1/2+y,-z
1/2-x,1/2-y,-z
1/2+x,1/2+y,-z
1/2-x,1/2+y,z
1/2+x,1/2-y,z
loop_
_atom_site_type_symbol
_atom_site_label
_atom_site_fract_x
_atom_site_fract_y
_atom_site_fract_z
Si Si1 0.362039 0.857201 0.381810
Si Si2 0.288334 0.381248 0.670240
Si Si3 0.174147 0.759973 0.741590
Si Si4 0.774286 0.569964 0.881380
Si Si5 0.923338 0.932927 0.294163
Si Si6 0.420465 0.665770 0.881787
Si Si7 0.423860 0.930395 0.796636
O O1 0.385745 0.847830 0.500000
O O2 0.285524 0.886281 0.384053
O O3 0.351676 0.796610 0.319423
O O4 0.410935 0.897881 0.312844
O O5 0.313309 0.314528 0.663808
O O6 0.268209 0.397549 0.791053
O O7 0.354711 0.418988 0.639570
O O8 0.250000 0.750000 0.788037
O O9 0.123156 0.783240 0.829255
O O10 0.765871 0.500000 0.867193
O O11 0.855710 0.583641 0.864561
O O12 0.754450 0.584704 0.000000
O O13 0.917845 0.890136 0.194488
O O14 0.000000 0.922841 0.341667
O O15 0.920529 0.000000 0.261869
O O16 0.500000 0.683937 0.883915
O O17 0.398691 0.652229 0.000000
O O18 0.500000 0.915225 0.839075
O O19 0.422484 0.000000 0.781977
#
# Coordination Sequence:
#
# PCOD9492041 Si02
#       7
#    16  16  16  16  16  16  16
#     4  10  21  37  57  78  99 128 169 215 263 316
#     4   9  18  32  50  75 105 135 169 215 262 300
#     4   9  19  34  51  72  98 131 171 214 255 300
#     4   9  17  30  51  79 110 145 181 212 245 292
#     4   9  17  30  50  75 104 141 180 213 249 297
#     4   9  18  32  49  72 106 144 176 209 251 296
#     4   9  19  36  56  80 110 137 164 205 256 310
#
# _framework density 19.678083000000001
#
# number of rings (size 3 to 8) (size 9 to 14) (size 15 to 20)
#    0.000    2.857    0.000    0.429    0.000    7.429 
#    0.000    9.286    0.000    0.429    0.000    7.000 
#    0.000    0.000    0.000    0.000    0.000    0.286 
#
# Total GULP energy -311975.103149 kJ/mol
# GULP energy per Si atom -5570.983985 kJ/mol
# Density = 1.963330 g / cm^3
# Si number density = 19.678083 Si / 1000 Ang^3
#
#
#
# Elastic Constant Matrix: (Units=GPa)
#
#
# Indices 1 2 3 4 5 6 
#
# 1 97.9324 27.7337 2.1836 0.0000 0.0000 0.0000
# 2 27.7337 42.6576 18.1950 0.0000 0.0000 0.0000
# 3 2.1836 18.1950 32.2515 0.0000 0.0000 0.0000
# 4 0.0000 0.0000 0.0000 -4.8823 0.0000 0.0000
# 5 0.0000 0.0000 0.0000 0.0000 0.4633 0.0000
# 6 0.0000 0.0000 0.0000 0.0000 0.0000 33.1370
#
#
#
# Elastic Compliance Matrix: (Units=1/GPa)
#
#
# Indices 1 2 3 4 5 6 
#
# 1 0.013140 -0.010750 0.005175 0.000000 0.000000 0.000000
# 2 -0.010750 0.039667 -0.021650 0.000000 0.000000 0.000000
# 3 0.005175 -0.021650 0.042870 0.000000 0.000000 0.000000
# 4 0.000000 0.000000 0.000000 -0.204821 0.000000 0.000000
# 5 0.000000 0.000000 0.000000 0.000000 2.158298 0.000000
# 6 0.000000 0.000000 0.000000 0.000000 0.000000 0.030178
#
#
# Mechanical properties :
#
#
# Convention : Reuss Voigt Hill
#
# Bulk Modulus (GPa) = 24.25667 29.89624 27.07645
# Shear Modulus (GPa) = 2.32826 14.05888 8.19357
#
# Velocity S-wave (km/s) = 1.08892 2.67581 2.04275
# Velocity P-wave (km/s) = 3.73289 4.97717 4.39925
#
# Compressibility (1/GPa) = 0.04122577
#
# Stress axis : x y z
#
# Youngs Moduli (GPa) = 76.10245 25.21016 23.32623
#
# Poissons Ratio (x) = 0.27102 -0.12072
# Poissons Ratio (y) = 0.81814 0.50502
# Poissons Ratio (z) = -0.39386 0.54581
#
# Static dielectric constant tensor:
#      x y z
#    x 1.743880 0.000000 0.000000 
#    y 0.000000 1.679650 0.000000 
#    z 0.000000 0.000000 1.682470 
# 
# From -- ./inp_files/29379.got.cif
#   From: 2010.05.17/outbox.cif.g08.bks.cpg/sg65_15_cif.got.tgz:29379.got - 2010.06.03 17:01:31.
