data_PCOD9492630
_publ_section_title
;
Structure prediction by ZEFSAII (Michael W. Deem and Ramdas Pophale) SiO2 
 PCOD9492630
Probable space group: C M M M
;
_chemical_formula_sum "Si O2"
_cell_formula_units_Z 56
_cell_length_a 17.556496
_cell_length_b 10.354292
_cell_length_c 15.528658
_cell_angle_alpha 90.000000
_cell_angle_beta 90.000000
_cell_angle_gamma 90.000000
_cell_volume 2822.878431
_symmetry_space_group_name_H-M "C M M M"
_symmetry_group_IT_number 65
_symmetry_cell_setting 'orthorhombic'
loop_
_space_group_symop_operation_xyz
x,y,z
-x,-y,z
x,-y,-z
-x,y,-z
-x,-y,-z
x,y,-z
-x,y,z
x,-y,z
1/2+x,1/2+y,z
1/2-x,1/2-y,z
1/2+x,1/2-y,-z
1/2-x,1/2+y,-z
1/2-x,1/2-y,-z
1/2+x,1/2+y,-z
1/2-x,1/2+y,z
1/2+x,1/2-y,z
loop_
_atom_site_type_symbol
_atom_site_label
_atom_site_fract_x
_atom_site_fract_y
_atom_site_fract_z
Si Si1 0.592902 0.650646 0.000000
Si Si2 0.841028 0.737121 0.674725
Si Si3 0.909459 0.000000 0.396441
Si Si4 0.312251 0.862094 0.500000
Si Si5 0.591962 0.853469 0.854133
O O1 0.616593 0.738029 0.081896
O O2 0.618272 0.500000 0.000000
O O3 0.500000 0.646746 0.000000
O O4 0.750000 0.750000 0.686821
O O5 0.874099 0.875875 0.649527
O O6 0.856596 0.653537 0.588768
O O7 0.877413 0.677375 0.759398
O O8 0.896629 0.000000 0.500000
O O9 0.000000 0.000000 0.383928
O O10 0.250000 0.750000 0.500000
O O11 0.273037 0.000000 0.500000
O O12 0.500000 0.851864 0.853568
O O13 0.614914 0.000000 0.880447
#
# Coordination Sequence:
#
# PCOD9492630 Si02
#       5
#     8  16   8   8  16
#     4   9  19  37  62  91 120 157 204 252 310 383
#     4  11  24  37  64  88 128 166 218 257 319 374
#     4  11  24  42  62  93 130 176 223 273 320 373
#     4  10  22  36  58  85 125 167 215 259 311 375
#     4  10  21  39  62  89 121 158 202 257 317 378
#
# _framework density 19.837907999999999
#
# number of rings (size 3 to 8) (size 9 to 14) (size 15 to 20)
#    0.000    1.714    1.429    2.143   12.000    1.714 
#    0.000    0.714    0.000    3.429    0.000    0.000 
#    0.000    0.000    0.000    0.000    0.000    0.000 
#
# Total GULP energy -156282.074257 kJ/mol
# GULP energy per Si atom -5581.502652 kJ/mol
# Density = 1.979276 g / cm^3
# Si number density = 19.837908 Si / 1000 Ang^3
#
#
#
# Elastic Constant Matrix: (Units=GPa)
#
#
# Indices 1 2 3 4 5 6 
#
# 1 51.3531 42.7350 16.2369 0.0000 0.0000 0.0000
# 2 42.7350 208.4314 77.7560 0.0000 0.0000 0.0000
# 3 16.2369 77.7560 153.9975 0.0000 0.0000 0.0000
# 4 0.0000 0.0000 0.0000 31.1964 0.0000 0.0000
# 5 0.0000 0.0000 0.0000 0.0000 27.7587 0.0000
# 6 0.0000 0.0000 0.0000 0.0000 0.0000 15.3783
#
#
#
# Elastic Compliance Matrix: (Units=1/GPa)
#
#
# Indices 1 2 3 4 5 6 
#
# 1 0.023479 -0.004793 -0.000055 0.000000 0.000000 0.000000
# 2 -0.004793 0.006890 -0.002973 0.000000 0.000000 0.000000
# 3 -0.000055 -0.002973 0.008001 0.000000 0.000000 0.000000
# 4 0.000000 0.000000 0.000000 0.032055 0.000000 0.000000
# 5 0.000000 0.000000 0.000000 0.000000 0.036025 0.000000
# 6 0.000000 0.000000 0.000000 0.000000 0.000000 0.065027
#
#
# Mechanical properties :
#
#
# Convention : Reuss Voigt Hill
#
# Bulk Modulus (GPa) = 44.00278 76.35974 60.18126
# Shear Modulus (GPa) = 25.68110 33.33696 29.50903
#
# Velocity S-wave (km/s) = 3.60188 4.10380 3.86101
# Velocity P-wave (km/s) = 6.28708 7.81219 7.09076
#
# Compressibility (1/GPa) = 0.02272584
#
# Stress axis : x y z
#
# Youngs Moduli (GPa) = 42.59040 145.14293 124.98836
#
# Poissons Ratio (x) = 0.69573 0.00691
# Poissons Ratio (y) = 0.20415 0.37164
# Poissons Ratio (z) = 0.00236 0.43156
#
# Static dielectric constant tensor:
#      x y z
#    x 1.682490 0.000000 0.000000 
#    y 0.000000 1.720210 0.000000 
#    z 0.000000 0.000000 1.712290 
# 
# From -- ./inp_files/35563.got.cif
#   From: 2010.05.17/outbox.cif.g08.bks.cpg/sg65_18_cif.got.tgz:35563.got - 2010.06.03 17:01:31.
