data_PCOD9492864
_publ_section_title
;
Structure prediction by ZEFSAII (Michael W. Deem and Ramdas Pophale) SiO2 
 PCOD9492864
Probable space group: C M M M
;
_chemical_formula_sum "Si O2"
_cell_formula_units_Z 88
_cell_length_a 8.417756
_cell_length_b 29.508699
_cell_length_c 18.566749
_cell_angle_alpha 90.000000
_cell_angle_beta 90.000000
_cell_angle_gamma 90.000000
_cell_volume 4611.925272
_symmetry_space_group_name_H-M "C M M M"
_symmetry_group_IT_number 65
_symmetry_cell_setting 'orthorhombic'
loop_
_space_group_symop_operation_xyz
x,y,z
-x,-y,z
x,-y,-z
-x,y,-z
-x,-y,-z
x,y,-z
-x,y,z
x,-y,z
1/2+x,1/2+y,z
1/2-x,1/2-y,z
1/2+x,1/2-y,-z
1/2-x,1/2+y,-z
1/2-x,1/2-y,-z
1/2+x,1/2+y,-z
1/2-x,1/2+y,z
1/2+x,1/2-y,z
loop_
_atom_site_type_symbol
_atom_site_label
_atom_site_fract_x
_atom_site_fract_y
_atom_site_fract_z
Si Si1 0.308709 0.301387 0.718917
Si Si2 0.190706 0.353959 0.859959
Si Si3 0.693249 0.050170 0.808717
Si Si4 0.808347 0.449124 0.360021
Si Si5 0.690855 0.643616 0.420769
Si Si6 0.688398 0.698543 0.000000
O O1 0.500000 0.302272 0.720681
O O2 0.250000 0.250000 0.721385
O O3 0.244874 0.328452 0.787763
O O4 0.251431 0.325796 0.645598
O O5 0.246649 0.406233 0.853372
O O6 0.000000 0.353891 0.862541
O O7 0.253560 0.327903 0.929344
O O8 0.500000 0.049712 0.810732
O O9 0.736217 0.056304 0.724431
O O10 0.747562 0.000000 0.831845
O O11 0.761024 0.500000 0.382627
O O12 0.736524 0.408218 0.404664
O O13 0.000000 0.446628 0.363999
O O14 0.750406 0.657138 0.500000
O O15 0.500000 0.646998 0.421228
O O16 0.750000 0.750000 0.000000
O O17 0.500000 0.700027 0.000000
#
# Coordination Sequence:
#
# PCOD9492864 Si02
#       6
#    16  16  16  16  16   8
#     4  11  23  39  59  82 110 146 192 240 292 346
#     4  11  21  38  65  92 119 151 191 233 283 338
#     4   8  15  30  56  88 118 148 186 231 275 327
#     4   9  17  32  55  83 113 147 190 237 282 332
#     4  10  22  38  54  77 113 152 191 238 291 346
#     4  12  26  44  63  88 123 155 192 237 287 336
#
# _framework density 19.080967999999999
#
# number of rings (size 3 to 8) (size 9 to 14) (size 15 to 20)
#    0.000    2.000    1.818    3.545    0.000    2.182 
#    0.000    2.273    0.000    4.909    0.000    0.000 
#    0.000    0.000    0.000    0.000    0.000    0.000 
#
# Total GULP energy -245668.845172 kJ/mol
# GULP energy per Si atom -5583.382845 kJ/mol
# Density = 1.903754 g / cm^3
# Si number density = 19.080968 Si / 1000 Ang^3
#
#
#
# Elastic Constant Matrix: (Units=GPa)
#
#
# Indices 1 2 3 4 5 6 
#
# 1 40.6342 25.0605 32.0052 0.0000 0.0000 0.0000
# 2 25.0605 162.6086 96.6381 0.0000 0.0000 0.0000
# 3 32.0052 96.6381 150.8697 0.0000 0.0000 0.0000
# 4 0.0000 0.0000 0.0000 6.7786 0.0000 0.0000
# 5 0.0000 0.0000 0.0000 0.0000 12.3203 0.0000
# 6 0.0000 0.0000 0.0000 0.0000 0.0000 22.8557
#
#
#
# Elastic Compliance Matrix: (Units=1/GPa)
#
#
# Indices 1 2 3 4 5 6 
#
# 1 0.029728 -0.001346 -0.005444 0.000000 0.000000 0.000000
# 2 -0.001346 0.009991 -0.006114 0.000000 0.000000 0.000000
# 3 -0.005444 -0.006114 0.011699 0.000000 0.000000 0.000000
# 4 0.000000 0.000000 0.000000 0.147524 0.000000 0.000000
# 5 0.000000 0.000000 0.000000 0.000000 0.081167 0.000000
# 6 0.000000 0.000000 0.000000 0.000000 0.000000 0.043753
#
#
# Mechanical properties :
#
#
# Convention : Reuss Voigt Hill
#
# Bulk Modulus (GPa) = 39.04765 73.50224 56.27495
# Shear Modulus (GPa) = 13.95843 21.75150 17.85497
#
# Velocity S-wave (km/s) = 2.70763 3.37999 3.06232
# Velocity P-wave (km/s) = 5.50305 7.33739 6.48540
#
# Compressibility (1/GPa) = 0.02560974
#
# Stress axis : x y z
#
# Youngs Moduli (GPa) = 33.63822 100.09370 85.47483
#
# Poissons Ratio (x) = 0.13473 0.46535
# Poissons Ratio (y) = 0.04528 0.52258
# Poissons Ratio (z) = 0.18314 0.61196
#
# Static dielectric constant tensor:
#      x y z
#    x 1.656830 0.000000 0.000000 
#    y 0.000000 1.653950 0.000000 
#    z 0.000000 0.000000 1.655230 
# 
# From -- ./inp_files/50410.got.cif
#   From: 2010.05.17/outbox.cif.g08.bks.cpg/sg65_26_cif.got.tgz:50410.got - 2010.06.03 17:01:31.
