data_PCOD9492454
_publ_section_title
;
Structure prediction by ZEFSAII (Michael W. Deem and Ramdas Pophale) SiO2 
 PCOD9492454
Probable space group: C M M M
;
_chemical_formula_sum "Si O2"
_cell_formula_units_Z 88
_cell_length_a 8.547746
_cell_length_b 27.075024
_cell_length_c 19.951423
_cell_angle_alpha 90.000000
_cell_angle_beta 90.000000
_cell_angle_gamma 90.000000
_cell_volume 4617.366366
_symmetry_space_group_name_H-M "C M M M"
_symmetry_group_IT_number 65
_symmetry_cell_setting 'orthorhombic'
loop_
_space_group_symop_operation_xyz
x,y,z
-x,-y,z
x,-y,-z
-x,y,-z
-x,-y,-z
x,y,-z
-x,y,z
x,-y,z
1/2+x,1/2+y,z
1/2-x,1/2-y,z
1/2+x,1/2-y,-z
1/2-x,1/2+y,-z
1/2-x,1/2-y,-z
1/2+x,1/2+y,-z
1/2-x,1/2+y,z
1/2+x,1/2-y,z
loop_
_atom_site_type_symbol
_atom_site_label
_atom_site_fract_x
_atom_site_fract_y
_atom_site_fract_z
Si Si1 0.311948 0.900655 0.349637
Si Si2 0.812683 0.196737 0.578157
Si Si3 0.186145 0.405898 0.925029
Si Si4 0.809416 0.555042 0.785807
Si Si5 0.687342 0.500000 0.579339
Si Si6 0.823488 0.199414 0.919104
O O1 0.500000 0.899973 0.351963
O O2 0.248555 0.850514 0.381744
O O3 0.260911 0.907299 0.272009
O O4 0.254863 0.949874 0.388208
O O5 0.763758 0.191482 0.500000
O O6 0.750000 0.250000 0.602048
O O7 0.000000 0.197356 0.580607
O O8 0.248582 0.435196 0.861045
O O9 0.218857 0.348651 0.908544
O O10 0.000000 0.414228 0.928575
O O11 0.250214 0.416476 0.000000
O O12 0.764628 0.500000 0.764384
O O13 0.000000 0.556742 0.788594
O O14 0.500000 0.500000 0.587857
O O15 0.722305 0.500000 0.500000
O O16 0.750000 0.250000 0.892631
O O17 0.000000 0.191802 0.894398
O O18 0.832518 0.204450 0.000000
#
# Coordination Sequence:
#
# PCOD9492454 Si02
#       6
#    16  16  16  16   8  16
#     4  11  21  36  58  83 114 152 190 230 279 337
#     4  10  21  38  60  87 119 153 190 233 278 328
#     4   9  17  30  51  77 102 133 177 225 273 327
#     4   9  18  34  54  77 107 141 179 226 279 329
#     4  11  23  37  55  83 116 147 184 232 277 321
#     4   9  16  27  45  69  98 128 160 205 261 318
#
# _framework density 19.058484
#
# number of rings (size 3 to 8) (size 9 to 14) (size 15 to 20)
#    0.000    2.273    0.909    2.455    0.000    6.545 
#    0.000    4.545    0.000    0.000    0.000    2.545 
#    0.000    0.000    0.000    0.000    0.000    0.000 
#
# Total GULP energy -245314.924069 kJ/mol
# GULP energy per Si atom -5575.339183 kJ/mol
# Density = 1.901511 g / cm^3
# Si number density = 19.058484 Si / 1000 Ang^3
#
#
#
# Elastic Constant Matrix: (Units=GPa)
#
#
# Indices 1 2 3 4 5 6 
#
# 1 25.8443 16.9087 24.6840 0.0000 0.0000 0.0000
# 2 16.9087 130.0277 72.0519 0.0000 0.0000 0.0000
# 3 24.6840 72.0519 110.3574 0.0000 0.0000 0.0000
# 4 0.0000 0.0000 0.0000 15.8091 0.0000 0.0000
# 5 0.0000 0.0000 0.0000 0.0000 6.0661 0.0000
# 6 0.0000 0.0000 0.0000 0.0000 0.0000 29.7900
#
#
#
# Elastic Compliance Matrix: (Units=1/GPa)
#
#
# Indices 1 2 3 4 5 6 
#
# 1 0.049223 -0.000470 -0.010703 0.000000 0.000000 0.000000
# 2 -0.000470 0.012055 -0.007765 0.000000 0.000000 0.000000
# 3 -0.010703 -0.007765 0.016525 0.000000 0.000000 0.000000
# 4 0.000000 0.000000 0.000000 0.063255 0.000000 0.000000
# 5 0.000000 0.000000 0.000000 0.000000 0.164850 0.000000
# 6 0.000000 0.000000 0.000000 0.000000 0.000000 0.033568
#
#
# Mechanical properties :
#
#
# Convention : Reuss Voigt Hill
#
# Bulk Modulus (GPa) = 25.04604 54.83539 39.94072
# Shear Modulus (GPa) = 12.79877 20.50535 16.65206
#
# Velocity S-wave (km/s) = 2.59424 3.28368 2.95911
# Velocity P-wave (km/s) = 4.70571 6.57353 5.71642
#
# Compressibility (1/GPa) = 0.03992647
#
# Stress axis : x y z
#
# Youngs Moduli (GPa) = 20.31561 82.95444 60.51279
#
# Poissons Ratio (x) = 0.03900 0.64767
# Poissons Ratio (y) = 0.00955 0.46990
# Poissons Ratio (z) = 0.21744 0.64417
#
# Static dielectric constant tensor:
#      x y z
#    x 1.662780 0.000000 0.000000 
#    y 0.000000 1.646000 0.000000 
#    z 0.000000 0.000000 1.689450 
# 
# From -- ./inp_files/59826.got.cif
#   From: 2010.05.17/outbox.cif.g08.bks.cpg/sg65_30_cif.got.tgz:59826.got - 2010.06.03 17:01:31.
