data_PCOD9492344
_publ_section_title
;
Structure prediction by ZEFSAII (Michael W. Deem and Ramdas Pophale) SiO2 
 PCOD9492344
Probable space group: C M M M
;
_chemical_formula_sum "Si O2"
_cell_formula_units_Z 56
_cell_length_a 24.268254
_cell_length_b 13.483528
_cell_length_c 8.260537
_cell_angle_alpha 90.000000
_cell_angle_beta 90.000000
_cell_angle_gamma 90.000000
_cell_volume 2703.026814
_symmetry_space_group_name_H-M "C M M M"
_symmetry_group_IT_number 65
_symmetry_cell_setting 'orthorhombic'
loop_
_space_group_symop_operation_xyz
x,y,z
-x,-y,z
x,-y,-z
-x,y,-z
-x,-y,-z
x,y,-z
-x,y,z
x,-y,z
1/2+x,1/2+y,z
1/2-x,1/2-y,z
1/2+x,1/2-y,-z
1/2-x,1/2+y,-z
1/2-x,1/2-y,-z
1/2+x,1/2+y,-z
1/2-x,1/2+y,z
1/2+x,1/2-y,z
loop_
_atom_site_type_symbol
_atom_site_label
_atom_site_fract_x
_atom_site_fract_y
_atom_site_fract_z
Si Si1 0.066868 0.500000 0.185072
Si Si2 0.436748 0.780870 0.803901
Si Si3 0.277518 0.111111 0.188792
Si Si4 0.329987 0.308553 0.685877
O O1 0.079982 0.392070 0.256142
O O2 0.000000 0.500000 0.176050
O O3 0.088196 0.500000 0.000000
O O4 0.500000 0.761837 0.755080
O O5 0.392481 0.701714 0.744782
O O6 0.435600 0.784969 0.000000
O O7 0.305258 0.197582 0.291402
O O8 0.211858 0.124057 0.212423
O O9 0.294466 0.000000 0.232987
O O10 0.290959 0.128554 0.000000
O O11 0.327238 0.338766 0.500000
#
# Coordination Sequence:
#
# PCOD9492344 Si02
#       4
#     8  16  16  16
#     4   7  12  24  43  67  93 127 171 211 244 281
#     4   9  17  31  51  74 103 140 181 218 251 299
#     4  10  21  38  59  78  99 134 181 225 259 302
#     4  11  22  34  52  80 113 141 168 210 266 324
#
# _framework density 20.717516
#
# number of rings (size 3 to 8) (size 9 to 14) (size 15 to 20)
#    0.000    2.429    0.000    6.857    2.000    2.857 
#    0.000    0.000    0.000    3.429    0.000    6.000 
#    0.000    0.000    0.000    0.000    0.000    0.000 
#
# Total GULP energy -156259.146291 kJ/mol
# GULP energy per Si atom -5580.683796 kJ/mol
# Density = 2.067036 g / cm^3
# Si number density = 20.717516 Si / 1000 Ang^3
#
#
#
# Elastic Constant Matrix: (Units=GPa)
#
#
# Indices 1 2 3 4 5 6 
#
# 1 100.5268 -4.5419 0.6984 0.0000 0.0000 0.0000
# 2 -4.5419 23.5262 -3.7090 0.0000 0.0000 0.0000
# 3 0.6984 -3.7090 31.4575 0.0000 0.0000 0.0000
# 4 0.0000 0.0000 0.0000 -10.0091 0.0000 0.0000
# 5 0.0000 0.0000 0.0000 0.0000 36.5769 0.0000
# 6 0.0000 0.0000 0.0000 0.0000 0.0000 30.7976
#
#
#
# Elastic Compliance Matrix: (Units=1/GPa)
#
#
# Indices 1 2 3 4 5 6 
#
# 1 0.010035 0.001938 0.000006 0.000000 0.000000 0.000000
# 2 0.001938 0.043685 0.005108 0.000000 0.000000 0.000000
# 3 0.000006 0.005108 0.032391 0.000000 0.000000 0.000000
# 4 0.000000 0.000000 0.000000 -0.099909 0.000000 0.000000
# 5 0.000000 0.000000 0.000000 0.000000 0.027340 0.000000
# 6 0.000000 0.000000 0.000000 0.000000 0.000000 0.032470
#
#
# Mechanical properties :
#
#
# Convention : Reuss Voigt Hill
#
# Bulk Modulus (GPa) = 9.97855 15.60060 12.78958
# Shear Modulus (GPa) = 76.55410 22.34395 49.44902
#
# Velocity S-wave (km/s) = 6.08536 3.28762 4.89081
# Velocity P-wave (km/s) = 7.36223 4.68591 6.17091
#
# Compressibility (1/GPa) = 0.10021493
#
# Stress axis : x y z
#
# Youngs Moduli (GPa) = 99.64993 22.89097 30.87274
#
# Poissons Ratio (x) = -0.04437 -0.00018
# Poissons Ratio (y) = -0.19315 -0.15769
# Poissons Ratio (z) = -0.00057 -0.11692
#
# Static dielectric constant tensor:
#      x y z
#    x 1.806370 0.000000 0.000000 
#    y 0.000000 1.741990 0.000000 
#    z 0.000000 0.000000 1.712420 
# 
# From -- ./inp_files/13251.got.cif
#   From: 2010.05.17/outbox.cif.g08.bks.cpg/sg65_7_cif.got.tgz:13251.got - 2010.06.03 17:01:31.
