data_PCOD9492287
_publ_section_title
;
Structure prediction by ZEFSAII (Michael W. Deem and Ramdas Pophale) SiO2 
 PCOD9492287
Probable space group: C M M M
;
_chemical_formula_sum "Si O2"
_cell_formula_units_Z 64
_cell_length_a 17.165287
_cell_length_b 24.057589
_cell_length_c 7.696373
_cell_angle_alpha 90.000000
_cell_angle_beta 90.000000
_cell_angle_gamma 90.000000
_cell_volume 3178.258942
_symmetry_space_group_name_H-M "C M M M"
_symmetry_group_IT_number 65
_symmetry_cell_setting 'orthorhombic'
loop_
_space_group_symop_operation_xyz
x,y,z
-x,-y,z
x,-y,-z
-x,y,-z
-x,-y,-z
x,y,-z
-x,y,z
x,-y,z
1/2+x,1/2+y,z
1/2-x,1/2-y,z
1/2+x,1/2-y,-z
1/2-x,1/2+y,-z
1/2-x,1/2-y,-z
1/2+x,1/2+y,-z
1/2-x,1/2+y,z
1/2+x,1/2-y,z
loop_
_atom_site_type_symbol
_atom_site_label
_atom_site_fract_x
_atom_site_fract_y
_atom_site_fract_z
Si Si1 0.683182 0.873089 0.300951
Si Si2 0.500000 0.436202 0.712469
Si Si3 0.089086 0.268296 0.795283
Si Si4 0.639195 0.356241 0.290055
Si Si5 0.909584 0.433557 0.000000
O O1 0.680706 0.893360 0.500000
O O2 0.647056 0.811168 0.294950
O O3 0.772667 0.870439 0.239894
O O4 0.632640 0.909536 0.169888
O O5 0.500000 0.500000 0.770313
O O6 0.500000 0.436699 0.500000
O O7 0.423830 0.401756 0.767917
O O8 0.114674 0.204758 0.771866
O O9 0.000000 0.274689 0.732769
O O10 0.090806 0.281448 0.000000
O O11 0.637478 0.354690 0.500000
O O12 0.905929 0.500000 0.000000
O O13 0.000000 0.416043 0.000000
#
# Coordination Sequence:
#
# PCOD9492287 Si02
#       5
#    16   8  16  16   8
#     4  11  24  41  66  98 129 165 214 268 323 382
#     4   9  18  36  61  87 125 173 215 262 313 371
#     4  11  22  36  60  93 131 168 212 266 327 388
#     4  10  21  37  60  93 127 166 217 263 316 383
#     4  11  26  48  69  93 127 165 210 263 324 389
#
# _framework density 20.136811999999999
#
# number of rings (size 3 to 8) (size 9 to 14) (size 15 to 20)
#    0.000    1.500    2.500    2.250    1.750    7.500 
#    0.000    3.750    0.000    0.750    0.000    0.000 
#    0.000    0.000    0.000    0.000    0.000    0.000 
#
# Total GULP energy -178964.819202 kJ/mol
# GULP energy per Si atom -5592.650600 kJ/mol
# Density = 2.009098 g / cm^3
# Si number density = 20.136812 Si / 1000 Ang^3
#
#
#
# Elastic Constant Matrix: (Units=GPa)
#
#
# Indices 1 2 3 4 5 6 
#
# 1 210.0980 78.1314 46.7334 0.0000 0.0000 0.0000
# 2 78.1314 121.2052 26.5859 0.0000 0.0000 0.0000
# 3 46.7334 26.5859 65.6769 0.0000 0.0000 0.0000
# 4 0.0000 0.0000 0.0000 -3.2571 0.0000 0.0000
# 5 0.0000 0.0000 0.0000 0.0000 22.7704 0.0000
# 6 0.0000 0.0000 0.0000 0.0000 0.0000 3.9060
#
#
#
# Elastic Compliance Matrix: (Units=1/GPa)
#
#
# Indices 1 2 3 4 5 6 
#
# 1 0.006892 -0.003695 -0.003408 0.000000 0.000000 0.000000
# 2 -0.003695 0.011036 -0.001838 0.000000 0.000000 0.000000
# 3 -0.003408 -0.001838 0.018395 0.000000 0.000000 0.000000
# 4 0.000000 0.000000 0.000000 -0.307018 0.000000 0.000000
# 5 0.000000 0.000000 0.000000 0.000000 0.043917 0.000000
# 6 0.000000 0.000000 0.000000 0.000000 0.000000 0.256017
#
#
# Mechanical properties :
#
#
# Convention : Reuss Voigt Hill
#
# Bulk Modulus (GPa) = 54.22931 77.76461 65.99696
# Shear Modulus (GPa) = 93.86593 21.05247 57.45920
#
# Velocity S-wave (km/s) = 6.83486 3.23688 5.34756
# Velocity P-wave (km/s) = 9.44860 7.25754 8.42460
#
# Compressibility (1/GPa) = 0.01844021
#
# Stress axis : x y z
#
# Youngs Moduli (GPa) = 145.09685 90.61635 54.36187
#
# Poissons Ratio (x) = 0.33484 0.18528
# Poissons Ratio (y) = 0.53615 0.09991
# Poissons Ratio (z) = 0.49453 0.16654
#
# Static dielectric constant tensor:
#      x y z
#    x 1.694320 0.000000 0.000000 
#    y 0.000000 1.672150 0.000000 
#    z 0.000000 0.000000 1.723320 
# 
# From -- ./inp_files/6806.got.cif
#   From: 2010.05.17/outbox.cif.g08.bks.cpg/sg65_4_cif.got.tgz:6806.got - 2010.06.03 17:01:31.
