data_PCOD9492034
_publ_section_title
;
Structure prediction by ZEFSAII (Michael W. Deem and Ramdas Pophale) SiO2 
 PCOD9492034
Probable space group: C M M M
;
_chemical_formula_sum "Si O2"
_cell_formula_units_Z 50
_cell_length_a 15.810170
_cell_length_b 15.873167
_cell_length_c 10.184802
_cell_angle_alpha 90.000000
_cell_angle_beta 90.000000
_cell_angle_gamma 90.000000
_cell_volume 2555.952129
_symmetry_space_group_name_H-M "C M M M"
_symmetry_group_IT_number 65
_symmetry_cell_setting 'orthorhombic'
loop_
_space_group_symop_operation_xyz
x,y,z
-x,-y,z
x,-y,-z
-x,y,-z
-x,-y,-z
x,y,-z
-x,y,z
x,-y,z
1/2+x,1/2+y,z
1/2-x,1/2-y,z
1/2+x,1/2-y,-z
1/2-x,1/2+y,-z
1/2-x,1/2-y,-z
1/2+x,1/2+y,-z
1/2-x,1/2+y,z
1/2+x,1/2-y,z
loop_
_atom_site_type_symbol
_atom_site_label
_atom_site_fract_x
_atom_site_fract_y
_atom_site_fract_z
Si Si1 0.162218 0.500000 0.152168
Si Si2 0.855048 0.000000 0.773924
Si Si3 0.398013 0.819978 0.151460
Si Si4 0.500000 0.500000 0.000000
Si Si5 0.897286 0.823888 0.351563
O O1 0.262586 0.500000 0.163043
O O2 0.128327 0.588589 0.205683
O O3 0.133847 0.500000 0.000000
O O4 0.926420 0.000000 0.885383
O O5 0.865946 0.916005 0.688262
O O6 0.500000 0.816937 0.147579
O O7 0.368312 0.744695 0.244823
O O8 0.367845 0.810129 0.000000
O O9 0.872172 0.802018 0.500000
O O10 0.000000 0.825839 0.346944
#
# Coordination Sequence:
#
# PCOD9492034 Si02
#       5
#     8   8  16   2  16
#     4  10  21  37  56  88 118 145 183 238 285 330
#     4  12  23  36  58  84 118 148 190 235 284 328
#     4   9  19  36  62  86 113 146 186 229 282 338
#     4  12  24  36  58  88 114 150 198 236 272 336
#     4  10  21  38  59  83 113 152 192 230 279 337
#
# _framework density 19.562180999999999
#
# number of rings (size 3 to 8) (size 9 to 14) (size 15 to 20)
#    0.000    1.920    2.400    0.960    2.240    4.480 
#    0.000    8.800    0.000    3.840    0.000    0.000 
#    0.000    0.000    0.000    0.000    0.000    0.000 
#
# Total GULP energy -139290.913250 kJ/mol
# GULP energy per Si atom -5571.636530 kJ/mol
# Density = 1.951766 g / cm^3
# Si number density = 19.562181 Si / 1000 Ang^3
#
#
#
# Elastic Constant Matrix: (Units=GPa)
#
#
# Indices 1 2 3 4 5 6 
#
# 1 21.3890 13.5857 12.5304 0.0000 0.0000 0.0000
# 2 13.5857 190.3692 81.0793 0.0000 0.0000 0.0000
# 3 12.5304 81.0793 103.0440 0.0000 0.0000 0.0000
# 4 0.0000 0.0000 0.0000 1.7130 0.0000 0.0000
# 5 0.0000 0.0000 0.0000 0.0000 14.8025 0.0000
# 6 0.0000 0.0000 0.0000 0.0000 0.0000 208.3759
#
#
#
# Elastic Compliance Matrix: (Units=1/GPa)
#
#
# Indices 1 2 3 4 5 6 
#
# 1 0.050619 -0.001490 -0.004983 0.000000 0.000000 0.000000
# 2 -0.001490 0.007944 -0.006070 0.000000 0.000000 0.000000
# 3 -0.004983 -0.006070 0.015087 0.000000 0.000000 0.000000
# 4 0.000000 0.000000 0.000000 0.583756 0.000000 0.000000
# 5 0.000000 0.000000 0.000000 0.000000 0.067556 0.000000
# 6 0.000000 0.000000 0.000000 0.000000 0.000000 0.004799
#
#
# Mechanical properties :
#
#
# Convention : Reuss Voigt Hill
#
# Bulk Modulus (GPa) = 20.59138 58.79923 39.69530
# Shear Modulus (GPa) = 6.48479 58.81874 32.65177
#
# Velocity S-wave (km/s) = 1.82268 5.48934 4.08993
# Velocity P-wave (km/s) = 3.87021 8.38451 6.52987
#
# Compressibility (1/GPa) = 0.04856402
#
# Stress axis : x y z
#
# Youngs Moduli (GPa) = 19.75554 125.87362 66.28441
#
# Poissons Ratio (x) = 0.18758 0.33028
# Poissons Ratio (y) = 0.02944 0.40234
# Poissons Ratio (z) = 0.09844 0.76403
#
# Static dielectric constant tensor:
#      x y z
#    x 1.661940 0.000000 0.000000 
#    y 0.000000 1.689800 0.000000 
#    z 0.000000 0.000000 1.673030 
# 
# From -- ./inp_files/8205.got.cif
#   From: 2010.05.17/outbox.cif.g08.bks.cpg/sg65_5_cif.got.tgz:8205.got - 2010.06.03 17:01:31.
