data_PCOD9492499
_publ_section_title
;
Structure prediction by ZEFSAII (Michael W. Deem and Ramdas Pophale) SiO2 
 PCOD9492499
Probable space group: C M M M
;
_chemical_formula_sum "Si O2"
_cell_formula_units_Z 72
_cell_length_a 7.596647
_cell_length_b 15.150113
_cell_length_c 27.351078
_cell_angle_alpha 90.000000
_cell_angle_beta 90.000000
_cell_angle_gamma 90.000000
_cell_volume 3147.837221
_symmetry_space_group_name_H-M "C M M M"
_symmetry_group_IT_number 65
_symmetry_cell_setting 'orthorhombic'
loop_
_space_group_symop_operation_xyz
x,y,z
-x,-y,z
x,-y,-z
-x,y,-z
-x,-y,-z
x,y,-z
-x,y,z
x,-y,z
1/2+x,1/2+y,z
1/2-x,1/2-y,z
1/2+x,1/2-y,-z
1/2-x,1/2+y,-z
1/2-x,1/2-y,-z
1/2+x,1/2+y,-z
1/2-x,1/2+y,z
1/2+x,1/2-y,z
loop_
_atom_site_type_symbol
_atom_site_label
_atom_site_fract_x
_atom_site_fract_y
_atom_site_fract_z
Si Si1 0.798238 0.105635 0.656355
Si Si2 0.292895 0.000000 0.054455
Si Si3 0.289080 0.353446 0.762583
Si Si4 0.207558 0.146953 0.132265
Si Si5 0.785567 0.104845 0.552385
O O1 0.715553 0.120511 0.709535
O O2 0.719741 0.139463 0.604944
O O3 0.000000 0.140137 0.658827
O O4 0.807780 0.000000 0.651104
O O5 0.251056 0.914440 0.086871
O O6 0.500000 0.000000 0.048819
O O7 0.212611 0.000000 0.000000
O O8 0.500000 0.372743 0.760548
O O9 0.250000 0.250000 0.765995
O O10 0.219374 0.386889 0.815087
O O11 0.250000 0.250000 0.124387
O O12 0.000000 0.142610 0.138349
O O13 0.725247 0.142445 0.500000
O O14 0.000000 0.110723 0.553615
O O15 0.743796 0.000000 0.550945
#
# Coordination Sequence:
#
# PCOD9492499 Si02
#       5
#    16   8  16  16  16
#     4   8  13  21  37  61  87 117 156 202 249 298
#     4  11  25  43  63  89 119 151 188 229 274 326
#     4   9  18  31  49  71  98 131 167 205 254 309
#     4  10  21  38  61  87 117 153 192 233 279 332
#     4   7   9  14  26  48  79 112 147 192 245 294
#
# _framework density 22.872848000000001
#
# number of rings (size 3 to 8) (size 9 to 14) (size 15 to 20)
#    0.000    3.222    0.000    3.000    1.556    2.222 
#    0.000    0.000    0.000    0.667    0.000    0.000 
#    0.000    0.000    0.000    5.556    0.000    4.444 
#
# Total GULP energy -200429.522833 kJ/mol
# GULP energy per Si atom -5567.486745 kJ/mol
# Density = 2.282079 g / cm^3
# Si number density = 22.872848 Si / 1000 Ang^3
#
#
#
# Elastic Constant Matrix: (Units=GPa)
#
#
# Indices 1 2 3 4 5 6 
#
# 1 55.9216 -3.5322 17.5670 0.0000 0.0000 0.0000
# 2 -3.5322 62.8871 69.6227 0.0000 0.0000 0.0000
# 3 17.5670 69.6227 320.4529 0.0000 0.0000 0.0000
# 4 0.0000 0.0000 0.0000 53.0656 0.0000 0.0000
# 5 0.0000 0.0000 0.0000 0.0000 -353.8026 0.0000
# 6 0.0000 0.0000 0.0000 0.0000 0.0000 13.2837
#
#
#
# Elastic Compliance Matrix: (Units=1/GPa)
#
#
# Indices 1 2 3 4 5 6 
#
# 1 0.018578 0.002859 -0.001639 0.000000 0.000000 0.000000
# 2 0.002859 0.021378 -0.004801 0.000000 0.000000 0.000000
# 3 -0.001639 -0.004801 0.004254 0.000000 0.000000 0.000000
# 4 0.000000 0.000000 0.000000 0.018845 0.000000 0.000000
# 5 0.000000 0.000000 0.000000 0.000000 -0.002826 0.000000
# 6 0.000000 0.000000 0.000000 0.000000 0.000000 0.075280
#
#
# Mechanical properties :
#
#
# Convention : Reuss Voigt Hill
#
# Bulk Modulus (GPa) = 26.99454 67.39740 47.19597
# Shear Modulus (GPa) = 32.25390 -33.78372 -0.76491
#
# Velocity S-wave (km/s) = 3.75926 -3.84737 -0.57892
# Velocity P-wave (km/s) = 5.53808 3.12949 4.49800
#
# Compressibility (1/GPa) = 0.03704452
#
# Stress axis : x y z
#
# Youngs Moduli (GPa) = 53.82785 46.77793 235.09504
#
# Poissons Ratio (x) = -0.13372 0.38543
# Poissons Ratio (y) = -0.15387 1.12876
# Poissons Ratio (z) = 0.08825 0.22459
#
# Static dielectric constant tensor:
#      x y z
#    x 1.898990 0.000000 0.000000 
#    y 0.000000 1.827350 0.000000 
#    z 0.000000 0.000000 2.024270 
# 
# From -- ./inp_files/72531.got.cif
#   From: 2010.05.17/outbox.cif.g08.bks.cpg/sg65_37_cif.got.tgz:72531.got - 2010.06.03 17:01:31.
