data_PCOD9492467
_publ_section_title
;
Structure prediction by ZEFSAII (Michael W. Deem and Ramdas Pophale) SiO2 
 PCOD9492467
Probable space group: C M M M
;
_chemical_formula_sum "Si O2"
_cell_formula_units_Z 112
_cell_length_a 14.707873
_cell_length_b 14.702698
_cell_length_c 27.372380
_cell_angle_alpha 90.000000
_cell_angle_beta 90.000000
_cell_angle_gamma 90.000000
_cell_volume 5919.151671
_symmetry_space_group_name_H-M "C M M M"
_symmetry_group_IT_number 65
_symmetry_cell_setting 'orthorhombic'
loop_
_space_group_symop_operation_xyz
x,y,z
-x,-y,z
x,-y,-z
-x,y,-z
-x,-y,-z
x,y,-z
-x,y,z
x,-y,z
1/2+x,1/2+y,z
1/2-x,1/2-y,z
1/2+x,1/2-y,-z
1/2-x,1/2+y,-z
1/2-x,1/2-y,-z
1/2+x,1/2+y,-z
1/2-x,1/2+y,z
1/2+x,1/2-y,z
loop_
_atom_site_type_symbol
_atom_site_label
_atom_site_fract_x
_atom_site_fract_y
_atom_site_fract_z
Si Si1 0.398025 0.103573 0.877923
Si Si2 0.777703 0.111130 0.351353
Si Si3 0.259562 0.358184 0.945641
Si Si4 0.396985 0.399249 0.141936
Si Si5 0.646841 0.765603 0.790492
Si Si6 0.895621 0.725563 0.683337
Si Si7 0.603583 0.609814 0.444646
O O1 0.500000 0.136780 0.887611
O O2 0.336848 0.107730 0.925852
O O3 0.357080 0.162865 0.834549
O O4 0.401030 0.000000 0.861307
O O5 0.849968 0.173110 0.320646
O O6 0.678280 0.156211 0.341169
O O7 0.817693 0.130518 0.405785
O O8 0.778678 0.000000 0.343247
O O9 0.250000 0.250000 0.947092
O O10 0.331297 0.381381 0.903605
O O11 0.282226 0.390909 0.000000
O O12 0.500000 0.395903 0.123647
O O13 0.377042 0.500000 0.161089
O O14 0.388061 0.326508 0.184764
O O15 0.750000 0.750000 0.776238
O O16 0.599537 0.795879 0.741079
O O17 0.000000 0.722536 0.664352
O O18 0.621350 0.642125 0.500000
O O19 0.500000 0.639142 0.430685
O O20 0.600197 0.500000 0.446120
#
# Coordination Sequence:
#
# PCOD9492467 Si02
#       7
#    16  16  16  16  16  16  16
#     4  11  23  39  62  86 109 144 186 229 278 333
#     4  10  21  38  60  89 123 160 204 255 304 354
#     4  11  23  39  60  84 112 147 180 220 276 337
#     4  11  23  39  62  87 111 144 184 229 282 338
#     4  12  22  42  63  82 114 150 189 235 287 336
#     4  11  24  41  60  86 122 163 203 247 304 366
#     4   8  14  28  55  89 122 160 207 256 305 357
#
# _framework density 18.921628999999999
#
# number of rings (size 3 to 8) (size 9 to 14) (size 15 to 20)
#    0.000    1.429    4.286    2.571    0.000    4.000 
#    0.000    4.286    0.000    1.286    0.000    2.000 
#    0.000    0.000    0.000    0.000    0.000    0.000 
#
# Total GULP energy -312095.258986 kJ/mol
# GULP energy per Si atom -5573.129625 kJ/mol
# Density = 1.887856 g / cm^3
# Si number density = 18.921629 Si / 1000 Ang^3
#
#
#
# Elastic Constant Matrix: (Units=GPa)
#
#
# Indices 1 2 3 4 5 6 
#
# 1 130.5720 17.2582 38.1220 0.0000 0.0000 0.0000
# 2 17.2582 90.3214 17.8954 0.0000 0.0000 0.0000
# 3 38.1220 17.8954 99.0664 0.0000 0.0000 0.0000
# 4 0.0000 0.0000 0.0000 433.3355 0.0000 0.0000
# 5 0.0000 0.0000 0.0000 0.0000 3.0278 0.0000
# 6 0.0000 0.0000 0.0000 0.0000 0.0000 23.4203
#
#
#
# Elastic Compliance Matrix: (Units=1/GPa)
#
#
# Indices 1 2 3 4 5 6 
#
# 1 0.008721 -0.001039 -0.003168 0.000000 0.000000 0.000000
# 2 -0.001039 0.011606 -0.001697 0.000000 0.000000 0.000000
# 3 -0.003168 -0.001697 0.011620 0.000000 0.000000 0.000000
# 4 0.000000 0.000000 0.000000 0.002308 0.000000 0.000000
# 5 0.000000 0.000000 0.000000 0.000000 0.330274 0.000000
# 6 0.000000 0.000000 0.000000 0.000000 0.000000 0.042698
#
#
# Mechanical properties :
#
#
# Convention : Reuss Voigt Hill
#
# Bulk Modulus (GPa) = 49.65363 51.83454 50.74408
# Shear Modulus (GPa) = 11.74404 108.40233 60.07318
#
# Velocity S-wave (km/s) = 2.49402 7.57724 5.64069
# Velocity P-wave (km/s) = 5.88152 10.19836 8.32462
#
# Compressibility (1/GPa) = 0.02013952
#
# Stress axis : x y z
#
# Youngs Moduli (GPa) = 114.66698 86.16065 86.05875
#
# Poissons Ratio (x) = 0.08949 0.27266
# Poissons Ratio (y) = 0.11909 0.14603
# Poissons Ratio (z) = 0.36330 0.14620
#
# Static dielectric constant tensor:
#      x y z
#    x 1.696380 0.000000 0.000000 
#    y 0.000000 1.628040 0.000000 
#    z 0.000000 0.000000 1.668750 
# 
# From -- ./inp_files/74860.got.cif
#   From: 2010.05.17/outbox.cif.g08.bks.cpg/sg65_38_cif.got.tgz:74860.got - 2010.06.03 17:01:31.
