data_PCOD9492542
_publ_section_title
;
Structure prediction by ZEFSAII (Michael W. Deem and Ramdas Pophale) SiO2 
 PCOD9492542
Probable space group: C M M M
;
_chemical_formula_sum "Si O2"
_cell_formula_units_Z 72
_cell_length_a 27.227206
_cell_length_b 17.071489
_cell_length_c 7.332160
_cell_angle_alpha 90.000000
_cell_angle_beta 90.000000
_cell_angle_gamma 90.000000
_cell_volume 3408.053574
_symmetry_space_group_name_H-M "C M M M"
_symmetry_group_IT_number 65
_symmetry_cell_setting 'orthorhombic'
loop_
_space_group_symop_operation_xyz
x,y,z
-x,-y,z
x,-y,-z
-x,y,-z
-x,-y,-z
x,y,-z
-x,y,z
x,-y,z
1/2+x,1/2+y,z
1/2-x,1/2-y,z
1/2+x,1/2-y,-z
1/2-x,1/2+y,-z
1/2-x,1/2-y,-z
1/2+x,1/2+y,-z
1/2-x,1/2+y,z
1/2+x,1/2-y,z
loop_
_atom_site_type_symbol
_atom_site_label
_atom_site_fract_x
_atom_site_fract_y
_atom_site_fract_z
Si Si1 0.722524 0.000000 0.222497
Si Si2 0.114602 0.812135 0.218061
Si Si3 0.272219 0.665781 0.221583
Si Si4 0.056215 0.658779 0.221586
Si Si5 0.558054 0.410805 0.500000
Si Si6 0.608204 0.000000 0.777479
O O1 0.747665 0.917094 0.280324
O O2 0.665243 0.000000 0.277267
O O3 0.724377 0.000000 0.000000
O O4 0.170504 0.829750 0.270260
O O5 0.094238 0.726829 0.271522
O O6 0.079648 0.871112 0.321289
O O7 0.111128 0.818733 0.000000
O O8 0.250000 0.750000 0.281198
O O9 0.268351 0.665572 0.000000
O O10 0.078648 0.576555 0.281335
O O11 0.000000 0.671921 0.282854
O O12 0.054590 0.657688 0.000000
O O13 0.573120 0.500000 0.500000
O O14 0.500000 0.403735 0.500000
O O15 0.608603 0.000000 0.000000
#
# Coordination Sequence:
#
# PCOD9492542 Si02
#       6
#     8  16  16  16   8   8
#     4   9  16  25  42  70 107 147 183 226 282 333
#     4  10  21  38  62  87 117 154 197 244 296 358
#     4   9  17  30  51  82 116 151 193 237 286 348
#     4   9  16  27  47  77 112 151 191 232 282 339
#     4  11  26  44  61  85 115 149 196 254 313 367
#     4   9  15  24  43  77 118 152 188 233 278 337
#
# _framework density 21.126427
#
# number of rings (size 3 to 8) (size 9 to 14) (size 15 to 20)
#    0.000    2.556    0.000    2.333    1.556    8.444 
#    0.000    1.667    0.000    0.667    0.000    2.333 
#    0.000    0.000    0.000    0.000    0.000    0.000 
#
# Total GULP energy -201037.792490 kJ/mol
# GULP energy per Si atom -5584.383125 kJ/mol
# Density = 2.107834 g / cm^3
# Si number density = 21.126427 Si / 1000 Ang^3
#
#
#
# Elastic Constant Matrix: (Units=GPa)
#
#
# Indices 1 2 3 4 5 6 
#
# 1 279.7913 -4.5676 29.7545 0.0000 0.0000 0.0000
# 2 -4.5676 135.7615 1.6316 0.0000 0.0000 0.0000
# 3 29.7545 1.6316 73.4518 0.0000 0.0000 0.0000
# 4 0.0000 0.0000 0.0000 -9.8722 0.0000 0.0000
# 5 0.0000 0.0000 0.0000 0.0000 -12.8299 0.0000
# 6 0.0000 0.0000 0.0000 0.0000 0.0000 47.3407
#
#
#
# Elastic Compliance Matrix: (Units=1/GPa)
#
#
# Indices 1 2 3 4 5 6 
#
# 1 0.003738 0.000144 -0.001517 0.000000 0.000000 0.000000
# 2 0.000144 0.007373 -0.000222 0.000000 0.000000 0.000000
# 3 -0.001517 -0.000222 0.014234 0.000000 0.000000 0.000000
# 4 0.000000 0.000000 0.000000 -0.101294 0.000000 0.000000
# 5 0.000000 0.000000 0.000000 0.000000 -0.077943 0.000000
# 6 0.000000 0.000000 0.000000 0.000000 0.000000 0.021123
#
#
# Mechanical properties :
#
#
# Convention : Reuss Voigt Hill
#
# Bulk Modulus (GPa) = 45.13814 60.29352 52.71583
# Shear Modulus (GPa) = -40.91903 35.74011 -2.58946
#
# Velocity S-wave (km/s) = -4.40576 4.11752 -1.10831
# Velocity P-wave (km/s) = 2.11396 7.15588 4.83414
#
# Compressibility (1/GPa) = 0.02215421
#
# Stress axis : x y z
#
# Youngs Moduli (GPa) = 267.53663 135.62315 70.25447
#
# Poissons Ratio (x) = -0.01953 0.10660
# Poissons Ratio (y) = -0.03852 0.01560
# Poissons Ratio (z) = 0.40595 0.03012
#
# Static dielectric constant tensor:
#      x y z
#    x 1.717460 0.000000 0.000000 
#    y 0.000000 1.757430 0.000000 
#    z 0.000000 0.000000 1.787510 
# 
# From -- ./inp_files/15803.got.cif
#   From: 2010.05.17/outbox.cif.g08.bks.cpg/sg65_8_cif.got.tgz:15803.got - 2010.06.03 17:01:31.
