data_PCOD9492644
_publ_section_title
;
Structure prediction by ZEFSAII (Michael W. Deem and Ramdas Pophale) SiO2 
 PCOD9492644
Probable space group: C M M M
;
_chemical_formula_sum "Si O2"
_cell_formula_units_Z 116
_cell_length_a 7.554388
_cell_length_b 29.510741
_cell_length_c 23.630200
_cell_angle_alpha 90.000000
_cell_angle_beta 90.000000
_cell_angle_gamma 90.000000
_cell_volume 5268.012524
_symmetry_space_group_name_H-M "C M M M"
_symmetry_group_IT_number 65
_symmetry_cell_setting 'orthorhombic'
loop_
_space_group_symop_operation_xyz
x,y,z
-x,-y,z
x,-y,-z
-x,y,-z
-x,-y,-z
x,y,-z
-x,y,z
x,-y,z
1/2+x,1/2+y,z
1/2-x,1/2-y,z
1/2+x,1/2-y,-z
1/2-x,1/2+y,-z
1/2-x,1/2-y,-z
1/2+x,1/2+y,-z
1/2-x,1/2+y,z
1/2+x,1/2-y,z
loop_
_atom_site_type_symbol
_atom_site_label
_atom_site_fract_x
_atom_site_fract_y
_atom_site_fract_z
Si Si1 0.789654 0.700793 0.935688
Si Si2 0.704727 0.109304 0.216069
Si Si3 0.711775 0.200246 0.603642
Si Si4 0.715320 0.098599 0.905123
Si Si5 0.291447 0.448883 0.323941
Si Si6 0.212558 0.299710 0.266453
Si Si7 0.500000 0.426453 0.000000
Si Si8 0.786002 0.395870 0.438460
O O1 0.750000 0.750000 0.909424
O O2 0.741919 0.652954 0.908240
O O3 0.000000 0.699281 0.939894
O O4 0.713968 0.700677 0.000000
O O5 0.500000 0.118744 0.202287
O O6 0.766945 0.085315 0.159000
O O7 0.712343 0.079938 0.272736
O O8 0.785481 0.158146 0.231387
O O9 0.500000 0.196548 0.606094
O O10 0.750000 0.250000 0.579722
O O11 0.779765 0.198684 0.668569
O O12 0.775669 0.155944 0.571089
O O13 0.500000 0.092543 0.915747
O O14 0.842179 0.075844 0.950836
O O15 0.500000 0.450398 0.312785
O O16 0.221274 0.500000 0.325391
O O17 0.265717 0.425043 0.384298
O O18 0.250000 0.250000 0.242978
O O19 0.000000 0.304438 0.269808
O O20 0.725198 0.412533 0.500000
O O21 0.000000 0.395576 0.439159
#
# Coordination Sequence:
#
# PCOD9492644 Si02
#       8
#    16  16  16  16  16  16   4  16
#     4   9  17  28  44  67 104 147 195 249 295 349
#     4  10  21  40  63  88 121 158 206 259 305 366
#     4   9  17  31  51  80 118 160 207 253 303 354
#     4  10  22  37  55  85 118 155 207 256 301 370
#     4  11  25  43  64  92 125 156 194 254 320 380
#     4   9  17  31  52  80 116 157 198 251 310 358
#     4  12  22  36  62  82 119 166 200 246 316 374
#     4  10  21  39  63  90 121 164 215 259 301 365
#
# _framework density 22.019689
#
# number of rings (size 3 to 8) (size 9 to 14) (size 15 to 20)
#    0.000    2.207    2.069    0.621    1.931    3.586 
#    0.000    1.379    0.000    0.000    0.000    0.966 
#    0.000    2.207    0.000    0.000    0.000    0.000 
#
# Total GULP energy -323065.047945 kJ/mol
# GULP energy per Si atom -5570.087034 kJ/mol
# Density = 2.196957 g / cm^3
# Si number density = 22.019689 Si / 1000 Ang^3
#
#
#
# Elastic Constant Matrix: (Units=GPa)
#
#
# Indices 1 2 3 4 5 6 
#
# 1 71.7139 -3.3034 11.4873 0.0000 0.0000 0.0000
# 2 -3.3034 61.0844 28.3461 0.0000 0.0000 0.0000
# 3 11.4873 28.3461 137.6567 0.0000 0.0000 0.0000
# 4 0.0000 0.0000 0.0000 -9.3717 0.0000 0.0000
# 5 0.0000 0.0000 0.0000 0.0000 13.2888 0.0000
# 6 0.0000 0.0000 0.0000 0.0000 0.0000 14.9890
#
#
#
# Elastic Compliance Matrix: (Units=1/GPa)
#
#
# Indices 1 2 3 4 5 6 
#
# 1 0.014250 0.001462 -0.001490 0.000000 0.000000 0.000000
# 2 0.001462 0.018250 -0.003880 0.000000 0.000000 0.000000
# 3 -0.001490 -0.003880 0.008188 0.000000 0.000000 0.000000
# 4 0.000000 0.000000 0.000000 -0.106705 0.000000 0.000000
# 5 0.000000 0.000000 0.000000 0.000000 0.075252 0.000000
# 6 0.000000 0.000000 0.000000 0.000000 0.000000 0.066716
#
#
# Mechanical properties :
#
#
# Convention : Reuss Voigt Hill
#
# Bulk Modulus (GPa) = 30.42080 38.16830 34.29455
# Shear Modulus (GPa) = 52.78446 19.37623 36.08034
#
# Velocity S-wave (km/s) = 4.90138 2.96961 4.05229
# Velocity P-wave (km/s) = 6.77323 5.39717 6.12397
#
# Compressibility (1/GPa) = 0.03287224
#
# Stress axis : x y z
#
# Youngs Moduli (GPa) = 70.17362 54.79323 122.13295
#
# Poissons Ratio (x) = -0.08012 0.18201
# Poissons Ratio (y) = -0.10261 0.47389
# Poissons Ratio (z) = 0.10458 0.21260
#
# Static dielectric constant tensor:
#      x y z
#    x 1.825650 0.000000 0.000000 
#    y 0.000000 1.815830 0.000000 
#    z 0.000000 0.000000 1.847160 
# 
# From -- ./inp_files/68615.got.cif
#   From: 2010.05.17/outbox.cif.g08.bks.cpg/sg65_35_cif.got.tgz:68615.got - 2010.06.03 17:01:31.
