data_PCOD9492615
_publ_section_title
;
Structure prediction by ZEFSAII (Michael W. Deem and Ramdas Pophale) SiO2 
 PCOD9492615
Probable space group: C M M M
;
_chemical_formula_sum "Si O2"
_cell_formula_units_Z 104
_cell_length_a 26.145545
_cell_length_b 22.396130
_cell_length_c 9.458852
_cell_angle_alpha 90.000000
_cell_angle_beta 90.000000
_cell_angle_gamma 90.000000
_cell_volume 5538.716152
_symmetry_space_group_name_H-M "C M M M"
_symmetry_group_IT_number 65
_symmetry_cell_setting 'orthorhombic'
loop_
_space_group_symop_operation_xyz
x,y,z
-x,-y,z
x,-y,-z
-x,y,-z
-x,-y,-z
x,y,-z
-x,y,z
x,-y,z
1/2+x,1/2+y,z
1/2-x,1/2-y,z
1/2+x,1/2-y,-z
1/2-x,1/2+y,-z
1/2-x,1/2-y,-z
1/2+x,1/2+y,-z
1/2-x,1/2+y,z
1/2+x,1/2-y,z
loop_
_atom_site_type_symbol
_atom_site_label
_atom_site_fract_x
_atom_site_fract_y
_atom_site_fract_z
Si Si1 0.386932 0.224227 0.169126
Si Si2 0.000000 0.767937 0.831556
Si Si3 0.636927 0.103006 0.669937
Si Si4 0.099351 0.934643 0.337523
Si Si5 0.941766 0.500000 0.328624
Si Si6 0.000000 0.909820 0.166619
Si Si7 0.831817 0.152100 0.164014
Si Si8 0.235725 0.432187 0.837216
O O1 0.444763 0.242950 0.216655
O O2 0.370790 0.166678 0.256655
O O3 0.346210 0.278592 0.187295
O O4 0.388389 0.211950 0.000000
O O5 0.000000 0.838674 0.808492
O O6 0.000000 0.758464 0.000000
O O7 0.638250 0.107649 0.500000
O O8 0.590684 0.058447 0.711297
O O9 0.689452 0.075810 0.729427
O O10 0.085519 0.923350 0.500000
O O11 0.049560 0.934904 0.241469
O O12 0.134889 0.884356 0.274446
O O13 0.124313 0.000000 0.329852
O O14 0.943744 0.500000 0.500000
O O15 0.000000 0.500000 0.275681
O O16 0.000000 0.921054 0.000000
O O17 0.775858 0.122401 0.178827
O O18 0.847663 0.139773 0.000000
O O19 0.257688 0.500000 0.821066
O O20 0.216917 0.428708 0.000000
#
# Coordination Sequence:
#
# PCOD9492615 Si02
#       8
#    16   8  16  16   8   8  16  16
#     4  10  21  39  61  88 122 156 198 250 301 354
#     4   9  18  36  60  84 117 158 198 246 300 353
#     4  11  23  40  64  92 122 158 197 239 299 368
#     4  11  23  36  51  80 120 157 199 257 317 364
#     4   9  20  40  63  89 123 157 195 242 291 358
#     4  11  20  36  59  80 107 155 209 255 303 364
#     4  10  21  39  63  87 115 158 209 254 297 356
#     4  10  21  39  64  91 120 156 202 254 303 353
#
# _framework density 18.776916
#
# number of rings (size 3 to 8) (size 9 to 14) (size 15 to 20)
#    0.000    1.769    2.308    1.846    1.077    4.615 
#    0.000    3.077    0.000    1.846    0.000    0.000 
#    0.000    0.000    0.000    0.000    0.000    0.000 
#
# Total GULP energy -289970.507860 kJ/mol
# GULP energy per Si atom -5576.355920 kJ/mol
# Density = 1.873418 g / cm^3
# Si number density = 18.776916 Si / 1000 Ang^3
#
#
#
# Elastic Constant Matrix: (Units=GPa)
#
#
# Indices 1 2 3 4 5 6 
#
# 1 77.0547 50.6544 44.5536 0.0000 0.0000 0.0000
# 2 50.6544 130.6409 64.3593 0.0000 0.0000 0.0000
# 3 44.5536 64.3593 84.6348 0.0000 0.0000 0.0000
# 4 0.0000 0.0000 0.0000 29.4085 0.0000 0.0000
# 5 0.0000 0.0000 0.0000 0.0000 46.6331 0.0000
# 6 0.0000 0.0000 0.0000 0.0000 0.0000 -8.9787
#
#
#
# Elastic Compliance Matrix: (Units=1/GPa)
#
#
# Indices 1 2 3 4 5 6 
#
# 1 0.019938 -0.004093 -0.007383 0.000000 0.000000 0.000000
# 2 -0.004093 0.013080 -0.007792 0.000000 0.000000 0.000000
# 3 -0.007383 -0.007792 0.021627 0.000000 0.000000 0.000000
# 4 0.000000 0.000000 0.000000 0.034004 0.000000 0.000000
# 5 0.000000 0.000000 0.000000 0.000000 0.021444 0.000000
# 6 0.000000 0.000000 0.000000 0.000000 0.000000 -0.111375
#
#
# Mechanical properties :
#
#
# Convention : Reuss Voigt Hill
#
# Bulk Modulus (GPa) = 62.07769 67.94057 65.00913
# Shear Modulus (GPa) = 117.30533 22.26344 69.78439
#
# Velocity S-wave (km/s) = 7.91257 3.44711 6.10292
# Velocity P-wave (km/s) = 10.79865 7.21838 9.18466
#
# Compressibility (1/GPa) = 0.01610885
#
# Stress axis : x y z
#
# Youngs Moduli (GPa) = 50.15661 76.45027 46.23821
#
# Poissons Ratio (x) = 0.31295 0.34136
# Poissons Ratio (y) = 0.20532 0.36028
# Poissons Ratio (z) = 0.37029 0.59569
#
# Static dielectric constant tensor:
#      x y z
#    x 1.676900 0.000000 0.000000 
#    y 0.000000 1.633050 0.000000 
#    z 0.000000 0.000000 1.615560 
# 
# From -- ./inp_files/16562.got.cif
#   From: 2010.05.17/outbox.cif.g08.bks.cpg/sg65_9_cif.got.tgz:16562.got - 2010.06.03 17:01:31.
