data_PCOD9492781
_publ_section_title
;
Structure prediction by ZEFSAII (Michael W. Deem and Ramdas Pophale) SiO2 
 PCOD9492781
Probable space group: C M M M
;
_chemical_formula_sum "Si O2"
_cell_formula_units_Z 96
_cell_length_a 27.967157
_cell_length_b 13.896755
_cell_length_c 14.696397
_cell_angle_alpha 90.000000
_cell_angle_beta 90.000000
_cell_angle_gamma 90.000000
_cell_volume 5711.794799
_symmetry_space_group_name_H-M "C M M M"
_symmetry_group_IT_number 65
_symmetry_cell_setting 'orthorhombic'
loop_
_space_group_symop_operation_xyz
x,y,z
-x,-y,z
x,-y,-z
-x,y,-z
-x,-y,-z
x,y,-z
-x,y,z
x,-y,z
1/2+x,1/2+y,z
1/2-x,1/2-y,z
1/2+x,1/2-y,-z
1/2-x,1/2+y,-z
1/2-x,1/2-y,-z
1/2+x,1/2+y,-z
1/2-x,1/2+y,z
1/2+x,1/2-y,z
loop_
_atom_site_type_symbol
_atom_site_label
_atom_site_fract_x
_atom_site_fract_y
_atom_site_fract_z
Si Si1 0.856094 0.110726 0.397896
Si Si2 0.138095 0.212343 0.783278
Si Si3 0.258954 0.385450 0.207860
Si Si4 0.165779 0.613416 0.104411
Si Si5 0.740340 0.111278 0.402616
Si Si6 0.946557 0.884431 0.106220
O O1 0.874296 0.127861 0.500000
O O2 0.869959 0.188846 0.323025
O O3 0.798171 0.112342 0.403760
O O4 0.868666 0.000000 0.370899
O O5 0.190400 0.165700 0.803857
O O6 0.139339 0.319776 0.822730
O O7 0.096277 0.158478 0.836632
O O8 0.267800 0.500000 0.219589
O O9 0.222247 0.373189 0.125750
O O10 0.231215 0.351343 0.300798
O O11 0.155767 0.500000 0.116531
O O12 0.155212 0.640313 0.000000
O O13 0.723602 0.154570 0.500000
O O14 0.724578 0.000000 0.403620
O O15 0.000000 0.854055 0.136064
O O16 0.944807 0.000000 0.111705
O O17 0.941289 0.858320 0.000000
#
# Coordination Sequence:
#
# PCOD9492781 Si02
#       6
#    16  16  16  16  16  16
#     4   8  14  25  43  70  99 120 143 182 230 278
#     4  11  18  29  51  70  87 123 168 192 220 283
#     4   9  17  28  43  67  94 119 152 192 234 283
#     4  10  22  36  45  59  90 127 161 204 247 270
#     4   7  10  19  36  57  83 114 144 176 217 265
#     4   9  18  31  47  72 102 122 142 185 242 289
#
# _framework density 16.807326
#
# number of rings (size 3 to 8) (size 9 to 14) (size 15 to 20)
#    0.000    3.000    0.000    5.000    0.000    2.000 
#    0.000    2.500    0.000    6.500    0.000    4.667 
#    0.000    0.000    0.000    1.500    0.000    0.333 
#
# Total GULP energy -267202.702884 kJ/mol
# GULP energy per Si atom -5566.722977 kJ/mol
# Density = 1.676907 g / cm^3
# Si number density = 16.807326 Si / 1000 Ang^3
#
#
#
# Elastic Constant Matrix: (Units=GPa)
#
#
# Indices 1 2 3 4 5 6 
#
# 1 36.0599 12.3555 29.6017 0.0000 0.0000 0.0000
# 2 12.3555 71.0839 48.2195 0.0000 0.0000 0.0000
# 3 29.6017 48.2195 106.1704 0.0000 0.0000 0.0000
# 4 0.0000 0.0000 0.0000 19.2335 0.0000 0.0000
# 5 0.0000 0.0000 0.0000 0.0000 1.8987 0.0000
# 6 0.0000 0.0000 0.0000 0.0000 0.0000 13.4468
#
#
#
# Elastic Compliance Matrix: (Units=1/GPa)
#
#
# Indices 1 2 3 4 5 6 
#
# 1 0.035994 0.000797 -0.010397 0.000000 0.000000 0.000000
# 2 0.000797 0.020349 -0.009464 0.000000 0.000000 0.000000
# 3 -0.010397 -0.009464 0.016616 0.000000 0.000000 0.000000
# 4 0.000000 0.000000 0.000000 0.051993 0.000000 0.000000
# 5 0.000000 0.000000 0.000000 0.000000 0.526674 0.000000
# 6 0.000000 0.000000 0.000000 0.000000 0.000000 0.074367
#
#
# Mechanical properties :
#
#
# Convention : Reuss Voigt Hill
#
# Bulk Modulus (GPa) = 28.71121 43.74085 36.22603
# Shear Modulus (GPa) = 6.44552 15.12497 10.78524
#
# Velocity S-wave (km/s) = 1.96043 3.00309 2.53593
# Velocity P-wave (km/s) = 4.71635 6.17302 5.49318
#
# Compressibility (1/GPa) = 0.03482960
#
# Stress axis : x y z
#
# Youngs Moduli (GPa) = 27.78248 49.14144 60.18235
#
# Poissons Ratio (x) = -0.03915 0.62574
# Poissons Ratio (y) = -0.02214 0.56958
# Poissons Ratio (z) = 0.28887 0.46509
#
# Static dielectric constant tensor:
#      x y z
#    x 1.522790 0.000000 0.000000 
#    y 0.000000 1.610340 0.000000 
#    z 0.000000 0.000000 1.641860 
# 
# From -- ./inp_files/47867.got.cif
#   From: 2010.05.17/outbox.cif.g08.bks.cpg/sg65_24_cif.got.tgz:47867.got - 2010.06.03 17:01:31.
