data_PCOD9492423
_publ_section_title
;
Structure prediction by ZEFSAII (Michael W. Deem and Ramdas Pophale) SiO2 
 PCOD9492423
Probable space group: C M M M
;
_chemical_formula_sum "Si O2"
_cell_formula_units_Z 96
_cell_length_a 18.600670
_cell_length_b 23.061590
_cell_length_c 12.103373
_cell_angle_alpha 90.000000
_cell_angle_beta 90.000000
_cell_angle_gamma 90.000000
_cell_volume 5191.875291
_symmetry_space_group_name_H-M "C M M M"
_symmetry_group_IT_number 65
_symmetry_cell_setting 'orthorhombic'
loop_
_space_group_symop_operation_xyz
x,y,z
-x,-y,z
x,-y,-z
-x,y,-z
-x,-y,-z
x,y,-z
-x,y,z
x,-y,z
1/2+x,1/2+y,z
1/2-x,1/2-y,z
1/2+x,1/2-y,-z
1/2-x,1/2+y,-z
1/2-x,1/2-y,-z
1/2+x,1/2+y,-z
1/2-x,1/2+y,z
1/2+x,1/2-y,z
loop_
_atom_site_type_symbol
_atom_site_label
_atom_site_fract_x
_atom_site_fract_y
_atom_site_fract_z
Si Si1 0.416877 0.069336 0.125683
Si Si2 0.417398 0.245241 0.123806
Si Si3 0.418735 0.568267 0.265411
Si Si4 0.313248 0.644890 0.873938
Si Si5 0.271294 0.820492 0.500000
Si Si6 0.157660 0.069690 0.500000
Si Si7 0.332153 0.155294 0.738415
O O1 0.500000 0.089000 0.138238
O O2 0.367025 0.095193 0.220889
O O3 0.416616 0.000000 0.131151
O O4 0.393556 0.084966 0.000000
O O5 0.500000 0.261260 0.142503
O O6 0.365653 0.300083 0.124914
O O7 0.387884 0.201605 0.213765
O O8 0.412599 0.219335 0.000000
O O9 0.500000 0.591892 0.252167
O O10 0.421793 0.500000 0.243982
O O11 0.360239 0.595891 0.184891
O O12 0.390341 0.575836 0.390259
O O13 0.243073 0.659918 0.803597
O O14 0.293865 0.630190 0.000000
O O15 0.250000 0.750000 0.500000
O O16 0.211562 0.873883 0.500000
O O17 0.316017 0.833077 0.388894
O O18 0.184292 0.000000 0.500000
#
# Coordination Sequence:
#
# PCOD9492423 Si02
#       7
#    16  16  16  16   8   8  16
#     4   9  19  38  65  96 128 162 204 257 314 376
#     4  10  21  38  60  85 116 156 201 244 295 366
#     4  10  21  38  61  87 116 155 203 252 299 356
#     4  11  22  36  57  88 122 155 192 244 307 371
#     4  12  26  43  62  88 130 166 205 268 330 374
#     4  10  21  42  68  88 113 161 221 261 299 363
#     4  12  23  38  62  86 118 161 206 253 312 367
#
# _framework density 18.490428999999999
#
# number of rings (size 3 to 8) (size 9 to 14) (size 15 to 20)
#    0.000    1.500    1.667    4.750    0.000    6.333 
#    0.000    2.500    0.000    1.000    0.000    0.000 
#    0.000    0.000    0.000    0.000    0.000    0.000 
#
# Total GULP energy -267695.491247 kJ/mol
# GULP energy per Si atom -5576.989401 kJ/mol
# Density = 1.844834 g / cm^3
# Si number density = 18.490429 Si / 1000 Ang^3
#
#
#
# Elastic Constant Matrix: (Units=GPa)
#
#
# Indices 1 2 3 4 5 6 
#
# 1 86.7688 26.6189 43.9690 0.0000 0.0000 0.0000
# 2 26.6189 70.6332 30.2711 0.0000 0.0000 0.0000
# 3 43.9690 30.2711 141.8219 0.0000 0.0000 0.0000
# 4 0.0000 0.0000 0.0000 28.8890 0.0000 0.0000
# 5 0.0000 0.0000 0.0000 0.0000 24.6105 0.0000
# 6 0.0000 0.0000 0.0000 0.0000 0.0000 34.3798
#
#
#
# Elastic Compliance Matrix: (Units=1/GPa)
#
#
# Indices 1 2 3 4 5 6 
#
# 1 0.014597 -0.003920 -0.003689 0.000000 0.000000 0.000000
# 2 -0.003920 0.016636 -0.002336 0.000000 0.000000 0.000000
# 3 -0.003689 -0.002336 0.008693 0.000000 0.000000 0.000000
# 4 0.000000 0.000000 0.000000 0.034615 0.000000 0.000000
# 5 0.000000 0.000000 0.000000 0.000000 0.040633 0.000000
# 6 0.000000 0.000000 0.000000 0.000000 0.000000 0.029087
#
#
# Mechanical properties :
#
#
# Convention : Reuss Voigt Hill
#
# Bulk Modulus (GPa) = 49.90705 55.66022 52.78364
# Shear Modulus (GPa) = 29.26913 30.80019 30.03466
#
# Velocity S-wave (km/s) = 3.98293 4.08577 4.03468
# Velocity P-wave (km/s) = 6.94269 7.24055 7.09318
#
# Compressibility (1/GPa) = 0.02003725
#
# Stress axis : x y z
#
# Youngs Moduli (GPa) = 68.50882 60.11103 115.03247
#
# Poissons Ratio (x) = 0.23564 0.42432
# Poissons Ratio (y) = 0.26856 0.26866
# Poissons Ratio (z) = 0.25271 0.14039
#
# Static dielectric constant tensor:
#      x y z
#    x 1.624120 0.000000 0.000000 
#    y 0.000000 1.683030 0.000000 
#    z 0.000000 0.000000 1.624910 
# 
# From -- ./inp_files/27175.got.cif
#   From: 2010.05.17/outbox.cif.g08.bks.cpg/sg65_14_cif.got.tgz:27175.got - 2010.06.03 17:01:31.
