data_PCOD9492797
_publ_section_title
;
Structure prediction by ZEFSAII (Michael W. Deem and Ramdas Pophale) SiO2 
 PCOD9492797
Probable space group: C M M M
;
_chemical_formula_sum "Si O2"
_cell_formula_units_Z 88
_cell_length_a 17.177189
_cell_length_b 31.218024
_cell_length_c 10.212766
_cell_angle_alpha 90.000000
_cell_angle_beta 90.000000
_cell_angle_gamma 90.000000
_cell_volume 5476.472177
_symmetry_space_group_name_H-M "C M M M"
_symmetry_group_IT_number 65
_symmetry_cell_setting 'orthorhombic'
loop_
_space_group_symop_operation_xyz
x,y,z
-x,-y,z
x,-y,-z
-x,y,-z
-x,-y,-z
x,y,-z
-x,y,z
x,-y,z
1/2+x,1/2+y,z
1/2-x,1/2-y,z
1/2+x,1/2-y,-z
1/2-x,1/2+y,-z
1/2-x,1/2-y,-z
1/2+x,1/2+y,-z
1/2-x,1/2+y,z
1/2+x,1/2-y,z
loop_
_atom_site_type_symbol
_atom_site_label
_atom_site_fract_x
_atom_site_fract_y
_atom_site_fract_z
Si Si1 0.354146 0.550117 0.655600
Si Si2 0.409655 0.224382 0.500000
Si Si3 0.406634 0.659508 0.000000
Si Si4 0.593081 0.238491 0.000000
Si Si5 0.686191 0.364333 0.744326
Si Si6 0.500000 0.448979 0.846766
Si Si7 0.809499 0.709749 0.752822
Si Si8 0.409841 0.672281 0.500000
O O1 0.372827 0.555123 0.500000
O O2 0.332419 0.500000 0.673802
O O3 0.294607 0.587134 0.700265
O O4 0.426452 0.560037 0.752533
O O5 0.500000 0.211641 0.500000
O O6 0.363084 0.208711 0.625625
O O7 0.407381 0.276250 0.500000
O O8 0.366337 0.639164 0.873744
O O9 0.500000 0.656066 0.000000
O O10 0.390323 0.710525 0.000000
O O11 0.634535 0.218489 0.125403
O O12 0.500000 0.232705 0.000000
O O13 0.759399 0.333326 0.764510
O O14 0.634425 0.344889 0.626855
O O15 0.500000 0.500000 0.860655
O O16 0.500000 0.433187 0.000000
O O17 0.750000 0.750000 0.742604
O O18 0.500000 0.658681 0.500000
#
# Coordination Sequence:
#
# PCOD9492797 Si02
#       8
#    16   8   8   8  16   8  16   8
#     4  10  22  37  52  72 102 143 189 227 274 324
#     4  11  22  36  54  76 107 143 178 219 264 320
#     4  11  23  35  50  78 109 143 186 223 262 315
#     4  11  22  40  58  76 111 151 182 215 260 324
#     4  12  23  34  53  76 104 143 179 230 271 309
#     4   9  19  35  53  73  99 137 181 233 273 307
#     4  12  21  36  55  80 110 139 179 221 269 318
#     4  11  21  33  48  74 105 141 182 217 262 315
#
# _framework density 16.068739000000001
#
# number of rings (size 3 to 8) (size 9 to 14) (size 15 to 20)
#    0.000    1.000    4.545    3.000    3.818    4.000 
#    0.000    0.000    0.000    0.000    0.000    0.000 
#    0.000    4.364    0.000    0.000    0.000    0.000 
#
# Total GULP energy -245614.150851 kJ/mol
# GULP energy per Si atom -5582.139792 kJ/mol
# Density = 1.603217 g / cm^3
# Si number density = 16.068739 Si / 1000 Ang^3
#
#
#
# Elastic Constant Matrix: (Units=GPa)
#
#
# Indices 1 2 3 4 5 6 
#
# 1 81.3852 45.3166 52.5323 0.0000 0.0000 0.0000
# 2 45.3166 122.3072 44.0033 0.0000 0.0000 0.0000
# 3 52.5323 44.0033 158.0604 0.0000 0.0000 0.0000
# 4 0.0000 0.0000 0.0000 24.5377 0.0000 0.0000
# 5 0.0000 0.0000 0.0000 0.0000 -14.0806 0.0000
# 6 0.0000 0.0000 0.0000 0.0000 0.0000 21.4001
#
#
#
# Elastic Compliance Matrix: (Units=1/GPa)
#
#
# Indices 1 2 3 4 5 6 
#
# 1 0.018061 -0.005037 -0.004601 0.000000 0.000000 0.000000
# 2 -0.005037 0.010491 -0.001247 0.000000 0.000000 0.000000
# 3 -0.004601 -0.001247 0.008203 0.000000 0.000000 0.000000
# 4 0.000000 0.000000 0.000000 0.040754 0.000000 0.000000
# 5 0.000000 0.000000 0.000000 0.000000 -0.071019 0.000000
# 6 0.000000 0.000000 0.000000 0.000000 0.000000 0.046729
#
#
# Mechanical properties :
#
#
# Convention : Reuss Voigt Hill
#
# Bulk Modulus (GPa) = 66.72438 71.71746 69.22092
# Shear Modulus (GPa) = 62.51436 21.03147 41.77291
#
# Velocity S-wave (km/s) = 6.24410 3.62172 5.10420
# Velocity P-wave (km/s) = 9.67469 7.88782 8.82659
#
# Compressibility (1/GPa) = 0.01498703
#
# Stress axis : x y z
#
# Youngs Moduli (GPa) = 55.36675 95.32126 121.91008
#
# Poissons Ratio (x) = 0.48012 0.56086
# Poissons Ratio (y) = 0.27887 0.15197
# Poissons Ratio (z) = 0.25472 0.11883
#
# Static dielectric constant tensor:
#      x y z
#    x 1.543130 0.000000 0.000000 
#    y 0.000000 1.568580 0.000000 
#    z 0.000000 0.000000 1.461790 
# 
# From -- ./inp_files/10254.got.cif
#   From: 2010.05.17/outbox.cif.g08.bks.cpg/sg65_6_cif.got.tgz:10254.got - 2010.06.03 17:01:31.
