data_PCOD9492037
_publ_section_title
;
Structure prediction by ZEFSAII (Michael W. Deem and Ramdas Pophale) SiO2 
 PCOD9492037
Probable space group: C M M M
;
_chemical_formula_sum "Si O2"
_cell_formula_units_Z 88
_cell_length_a 9.614950
_cell_length_b 18.708231
_cell_length_c 26.037879
_cell_angle_alpha 90.000000
_cell_angle_beta 90.000000
_cell_angle_gamma 90.000000
_cell_volume 4683.659972
_symmetry_space_group_name_H-M "C M M M"
_symmetry_group_IT_number 65
_symmetry_cell_setting 'orthorhombic'
loop_
_space_group_symop_operation_xyz
x,y,z
-x,-y,z
x,-y,-z
-x,y,-z
-x,-y,-z
x,y,-z
-x,y,z
x,-y,z
1/2+x,1/2+y,z
1/2-x,1/2-y,z
1/2+x,1/2-y,-z
1/2-x,1/2+y,-z
1/2-x,1/2-y,-z
1/2+x,1/2+y,-z
1/2-x,1/2+y,z
1/2+x,1/2-y,z
loop_
_atom_site_type_symbol
_atom_site_label
_atom_site_fract_x
_atom_site_fract_y
_atom_site_fract_z
Si Si1 0.156564 0.321761 0.669673
Si Si2 0.660291 0.912886 0.154654
Si Si3 0.340032 0.587019 0.941605
Si Si4 0.000000 0.921314 0.561239
Si Si5 0.162539 0.086122 0.745259
Si Si6 0.277031 0.834457 0.442466
O O1 0.250000 0.250000 0.671862
O O2 0.244758 0.380270 0.700366
O O3 0.140716 0.343215 0.609928
O O4 0.000000 0.311515 0.690613
O O5 0.500000 0.889212 0.160406
O O6 0.731700 0.888987 0.101491
O O7 0.760534 0.892459 0.201776
O O8 0.657730 0.000000 0.154114
O O9 0.500000 0.607517 0.929603
O O10 0.337882 0.500000 0.941345
O O11 0.307501 0.609517 0.000000
O O12 0.135313 0.875265 0.571062
O O13 0.000000 0.930178 0.500000
O O14 0.000000 0.000000 0.585642
O O15 0.000000 0.108222 0.743457
O O16 0.165110 0.000000 0.742144
O O17 0.325269 0.857774 0.500000
O O18 0.250000 0.750000 0.446953
#
# Coordination Sequence:
#
# PCOD9492037 Si02
#       6
#    16  16  16   8  16  16
#     4  11  24  39  58  82 111 142 177 224 274 325
#     4   9  16  26  42  65  95 130 171 219 268 320
#     4   8  13  21  34  55  87 128 171 213 260 316
#     4   9  18  34  56  84 115 147 185 229 275 329
#     4  10  21  37  57  78 103 140 184 226 271 327
#     4   9  20  35  57  84 111 143 181 223 271 334
#
# _framework density 18.788724999999999
#
# number of rings (size 3 to 8) (size 9 to 14) (size 15 to 20)
#    0.000    2.636    0.000    2.182    6.364    4.727 
#    0.000    1.818    0.000    0.000    0.000    3.818 
#    0.000    0.727    0.000    2.727    0.000    6.364 
#
# Total GULP energy -244968.084878 kJ/mol
# GULP energy per Si atom -5567.456474 kJ/mol
# Density = 1.874596 g / cm^3
# Si number density = 18.788725 Si / 1000 Ang^3
#
#
#
# Elastic Constant Matrix: (Units=GPa)
#
#
# Indices 1 2 3 4 5 6 
#
# 1 179.5281 39.8282 74.9632 0.0000 0.0000 0.0000
# 2 39.8282 41.3982 12.8727 0.0000 0.0000 0.0000
# 3 74.9632 12.8727 127.9025 0.0000 0.0000 0.0000
# 4 0.0000 0.0000 0.0000 2.2965 0.0000 0.0000
# 5 0.0000 0.0000 0.0000 0.0000 27.4136 0.0000
# 6 0.0000 0.0000 0.0000 0.0000 0.0000 -57.7628
#
#
#
# Elastic Compliance Matrix: (Units=1/GPa)
#
#
# Indices 1 2 3 4 5 6 
#
# 1 0.009124 -0.007345 -0.004608 0.000000 0.000000 0.000000
# 2 -0.007345 0.030849 0.001200 0.000000 0.000000 0.000000
# 3 -0.004608 0.001200 0.010399 0.000000 0.000000 0.000000
# 4 0.000000 0.000000 0.000000 0.435449 0.000000 0.000000
# 5 0.000000 0.000000 0.000000 0.000000 0.036478 0.000000
# 6 0.000000 0.000000 0.000000 0.000000 0.000000 -0.017312
#
#
# Mechanical properties :
#
#
# Convention : Reuss Voigt Hill
#
# Bulk Modulus (GPa) = 34.64393 67.12857 50.88625
# Shear Modulus (GPa) = 9.32637 9.13378 9.23007
#
# Velocity S-wave (km/s) = 2.23038 2.20723 2.21883
# Velocity P-wave (km/s) = 5.01114 6.50396 5.80573
#
# Compressibility (1/GPa) = 0.02886508
#
# Stress axis : x y z
#
# Youngs Moduli (GPa) = 109.60342 32.41611 96.16748
#
# Poissons Ratio (x) = 0.23809 0.44316
# Poissons Ratio (y) = 0.80502 -0.11540
# Poissons Ratio (z) = 0.50507 -0.03890
#
# Static dielectric constant tensor:
#      x y z
#    x 1.626090 0.000000 0.000000 
#    y 0.000000 1.647880 0.000000 
#    z 0.000000 0.000000 1.681790 
# 
# From -- ./inp_files/67543.got.cif
#   From: 2010.05.17/outbox.cif.g08.bks.cpg/sg65_34_cif.got.tgz:67543.got - 2010.06.03 17:01:31.
