data_PCOD9492080
_publ_section_title
;
Structure prediction by ZEFSAII (Michael W. Deem and Ramdas Pophale) SiO2 
 PCOD9492080
Probable space group: C M M M
;
_chemical_formula_sum "Si O2"
_cell_formula_units_Z 64
_cell_length_a 8.975793
_cell_length_b 19.022194
_cell_length_c 20.513699
_cell_angle_alpha 90.000000
_cell_angle_beta 90.000000
_cell_angle_gamma 90.000000
_cell_volume 3502.494110
_symmetry_space_group_name_H-M "C M M M"
_symmetry_group_IT_number 65
_symmetry_cell_setting 'orthorhombic'
loop_
_space_group_symop_operation_xyz
x,y,z
-x,-y,z
x,-y,-z
-x,y,-z
-x,-y,-z
x,y,-z
-x,y,z
x,-y,z
1/2+x,1/2+y,z
1/2-x,1/2-y,z
1/2+x,1/2-y,-z
1/2-x,1/2+y,-z
1/2-x,1/2-y,-z
1/2+x,1/2+y,-z
1/2-x,1/2+y,z
1/2+x,1/2-y,z
loop_
_atom_site_type_symbol
_atom_site_label
_atom_site_fract_x
_atom_site_fract_y
_atom_site_fract_z
Si Si1 0.179593 0.672876 0.000000
Si Si2 0.677593 0.325506 0.610703
Si Si3 0.677408 0.325616 0.763425
Si Si4 0.320420 0.081769 0.126681
Si Si5 0.324151 0.083416 0.500000
O O1 0.250000 0.750000 0.000000
O O2 0.222282 0.628371 0.063985
O O3 0.000000 0.679520 0.000000
O O4 0.500000 0.321982 0.601346
O O5 0.750000 0.250000 0.595502
O O6 0.707328 0.340395 0.687058
O O7 0.748732 0.382351 0.563236
O O8 0.500000 0.321090 0.772365
O O9 0.750000 0.250000 0.779130
O O10 0.745991 0.384192 0.810062
O O11 0.500000 0.085373 0.132891
O O12 0.280037 0.000000 0.118065
O O13 0.500000 0.099425 0.500000
O O14 0.304413 0.000000 0.500000
#
# Coordination Sequence:
#
# PCOD9492080 Si02
#       5
#     8  16  16  16   8
#     4  10  21  37  57  81 109 144 187 230 274 326
#     4  10  21  38  60  83 110 145 184 227 274 326
#     4  10  21  37  58  84 112 144 184 228 273 325
#     4  10  21  37  57  81 112 149 185 225 275 329
#     4  11  24  39  56  81 113 147 184 227 274 327
#
# _framework density 18.272694000000001
#
# number of rings (size 3 to 8) (size 9 to 14) (size 15 to 20)
#    0.000    1.875    0.000    3.375    0.000   10.000 
#    0.000    5.000    0.000    2.250    0.000    0.000 
#    0.000    0.000    0.000    0.000    0.000    0.000 
#
# Total GULP energy -178823.171850 kJ/mol
# GULP energy per Si atom -5588.224120 kJ/mol
# Density = 1.823110 g / cm^3
# Si number density = 18.272694 Si / 1000 Ang^3
#
#
#
# Elastic Constant Matrix: (Units=GPa)
#
#
# Indices 1 2 3 4 5 6 
#
# 1 63.4644 70.3315 63.1117 0.0000 0.0000 0.0000
# 2 70.3315 154.5264 93.3930 0.0000 0.0000 0.0000
# 3 63.1117 93.3930 99.7575 0.0000 0.0000 0.0000
# 4 0.0000 0.0000 0.0000 -42.4130 0.0000 0.0000
# 5 0.0000 0.0000 0.0000 0.0000 80.9602 0.0000
# 6 0.0000 0.0000 0.0000 0.0000 0.0000 35.7167
#
#
#
# Elastic Compliance Matrix: (Units=1/GPa)
#
#
# Indices 1 2 3 4 5 6 
#
# 1 0.046186 -0.007742 -0.021972 0.000000 0.000000 0.000000
# 2 -0.007742 0.016203 -0.010271 0.000000 0.000000 0.000000
# 3 -0.021972 -0.010271 0.033540 0.000000 0.000000 0.000000
# 4 0.000000 0.000000 0.000000 -0.023578 0.000000 0.000000
# 5 0.000000 0.000000 0.000000 0.000000 0.012352 0.000000
# 6 0.000000 0.000000 0.000000 0.000000 0.000000 0.027998
#
#
# Mechanical properties :
#
#
# Convention : Reuss Voigt Hill
#
# Bulk Modulus (GPa) = 62.65680 85.71340 74.18510
# Shear Modulus (GPa) = 25.25378 20.91361 23.08369
#
# Velocity S-wave (km/s) = 3.72163 3.38676 3.55813
# Velocity P-wave (km/s) = 7.26854 7.89324 7.58732
#
# Compressibility (1/GPa) = 0.01595996
#
# Stress axis : x y z
#
# Youngs Moduli (GPa) = 21.65157 61.71817 29.81488
#
# Poissons Ratio (x) = 0.47782 0.65508
# Poissons Ratio (y) = 0.16763 0.30623
# Poissons Ratio (z) = 0.47572 0.63390
#
# Static dielectric constant tensor:
#      x y z
#    x 1.609600 0.000000 0.000000 
#    y 0.000000 1.589130 0.000000 
#    z 0.000000 0.000000 1.619080 
# 
# From -- ./inp_files/58834.got.cif
#   From: 2010.05.17/outbox.cif.g08.bks.cpg/sg65_30_cif.got.tgz:58834.got - 2010.06.03 17:01:31.
