data_PCOD9492851
_publ_section_title
;
Structure prediction by ZEFSAII (Michael W. Deem and Ramdas Pophale) SiO2 
 PCOD9492851
Probable space group: C M M M
;
_chemical_formula_sum "Si O2"
_cell_formula_units_Z 74
_cell_length_a 22.278370
_cell_length_b 14.244482
_cell_length_c 14.371946
_cell_angle_alpha 90.000000
_cell_angle_beta 90.000000
_cell_angle_gamma 90.000000
_cell_volume 4560.848538
_symmetry_space_group_name_H-M "C M M M"
_symmetry_group_IT_number 65
_symmetry_cell_setting 'orthorhombic'
loop_
_space_group_symop_operation_xyz
x,y,z
-x,-y,z
x,-y,-z
-x,y,-z
-x,-y,-z
x,y,-z
-x,y,z
x,-y,z
1/2+x,1/2+y,z
1/2-x,1/2-y,z
1/2+x,1/2-y,-z
1/2-x,1/2+y,-z
1/2-x,1/2-y,-z
1/2+x,1/2+y,-z
1/2-x,1/2+y,z
1/2+x,1/2-y,z
loop_
_atom_site_type_symbol
_atom_site_label
_atom_site_fract_x
_atom_site_fract_y
_atom_site_fract_z
Si Si1 0.500000 0.604583 0.694508
Si Si2 0.819188 0.608639 0.241447
Si Si3 0.716455 0.609680 0.392287
Si Si4 0.123666 0.796508 0.742899
Si Si5 0.290591 0.386987 0.892501
Si Si6 0.500000 0.500000 0.500000
O O1 0.500000 0.500000 0.739079
O O2 0.441109 0.660825 0.724583
O O3 0.500000 0.580534 0.584027
O O4 0.837299 0.500000 0.231635
O O5 0.777444 0.617353 0.333388
O O6 0.871378 0.684621 0.246835
O O7 0.772693 0.634094 0.158351
O O8 0.724593 0.632769 0.500000
O O9 0.697168 0.500000 0.385494
O O10 0.666351 0.671585 0.342581
O O11 0.156427 0.841200 0.832771
O O12 0.297172 0.500000 0.886683
O O13 0.290583 0.358991 0.000000
#
# Coordination Sequence:
#
# PCOD9492851 Si02
#       6
#     8  16  16  16  16   2
#     4  10  22  38  52  75  99 125 169 214 252 301
#     4   9  19  33  46  72 103 130 164 208 250 300
#     4   9  17  28  47  73  99 122 152 198 256 309
#     4  11  20  31  51  71  98 135 171 207 247 298
#     4   9  17  31  53  81 109 135 163 204 259 312
#     4   8  24  40  56  72 100 132 172 216 268 290
#
# _framework density 16.225051000000001
#
# number of rings (size 3 to 8) (size 9 to 14) (size 15 to 20)
#    0.324    2.162    0.000    5.838    1.514    3.459 
#    0.000    1.081    0.000    1.946    0.000    0.757 
#    0.000    5.189    0.000    0.000    0.000    0.000 
#
# Total GULP energy -206026.292443 kJ/mol
# GULP energy per Si atom -5568.278174 kJ/mol
# Density = 1.618812 g / cm^3
# Si number density = 16.225051 Si / 1000 Ang^3
#
#
#
# Elastic Constant Matrix: (Units=GPa)
#
#
# Indices 1 2 3 4 5 6 
#
# 1 74.7893 73.0764 28.9356 0.0000 0.0000 0.0000
# 2 73.0764 114.2114 37.9620 0.0000 0.0000 0.0000
# 3 28.9356 37.9620 125.8155 0.0000 0.0000 0.0000
# 4 0.0000 0.0000 0.0000 6.3948 0.0000 0.0000
# 5 0.0000 0.0000 0.0000 0.0000 1.9686 0.0000
# 6 0.0000 0.0000 0.0000 0.0000 0.0000 22.8520
#
#
#
# Elastic Compliance Matrix: (Units=1/GPa)
#
#
# Indices 1 2 3 4 5 6 
#
# 1 0.035917 -0.022491 -0.001474 0.000000 0.000000 0.000000
# 2 -0.022491 0.023815 -0.002013 0.000000 0.000000 0.000000
# 3 -0.001474 -0.002013 0.008895 0.000000 0.000000 0.000000
# 4 0.000000 0.000000 0.000000 0.156377 0.000000 0.000000
# 5 0.000000 0.000000 0.000000 0.000000 0.507970 0.000000
# 6 0.000000 0.000000 0.000000 0.000000 0.000000 0.043760
#
#
# Mechanical properties :
#
#
# Convention : Reuss Voigt Hill
#
# Bulk Modulus (GPa) = 59.98687 66.08493 63.03590
# Shear Modulus (GPa) = 5.99343 17.89923 11.94633
#
# Velocity S-wave (km/s) = 1.92405 3.32503 2.71641
# Velocity P-wave (km/s) = 6.47981 7.45384 6.98383
#
# Compressibility (1/GPa) = 0.01667032
#
# Stress axis : x y z
#
# Youngs Moduli (GPa) = 27.84178 41.98964 112.42750
#
# Poissons Ratio (x) = 0.94439 0.16574
# Poissons Ratio (y) = 0.62619 0.22633
# Poissons Ratio (z) = 0.04105 0.08453
#
# Static dielectric constant tensor:
#      x y z
#    x 1.527200 0.000000 0.000000 
#    y 0.000000 1.586780 0.000000 
#    z 0.000000 0.000000 1.544250 
# 
# From -- ./inp_files/40106.got.cif
#   From: 2010.05.17/outbox.cif.g08.bks.cpg/sg65_21_cif.got.tgz:40106.got - 2010.06.03 17:01:31.
