data_PCOD9492475
_publ_section_title
;
Structure prediction by ZEFSAII (Michael W. Deem and Ramdas Pophale) SiO2 
 PCOD9492475
Probable space group: C M M M
;
_chemical_formula_sum "Si O2"
_cell_formula_units_Z 88
_cell_length_a 8.263924
_cell_length_b 18.855964
_cell_length_c 30.540683
_cell_angle_alpha 90.000000
_cell_angle_beta 90.000000
_cell_angle_gamma 90.000000
_cell_volume 4758.979128
_symmetry_space_group_name_H-M "C M M M"
_symmetry_group_IT_number 65
_symmetry_cell_setting 'orthorhombic'
loop_
_space_group_symop_operation_xyz
x,y,z
-x,-y,z
x,-y,-z
-x,y,-z
-x,-y,-z
x,y,-z
-x,y,z
x,-y,z
1/2+x,1/2+y,z
1/2-x,1/2-y,z
1/2+x,1/2-y,-z
1/2-x,1/2+y,-z
1/2-x,1/2-y,-z
1/2+x,1/2+y,-z
1/2-x,1/2+y,z
1/2+x,1/2-y,z
loop_
_atom_site_type_symbol
_atom_site_label
_atom_site_fract_x
_atom_site_fract_y
_atom_site_fract_z
Si Si1 0.195158 0.916544 0.699830
Si Si2 0.306829 0.669277 0.214750
Si Si3 0.193177 0.419663 0.131315
Si Si4 0.693740 0.670186 0.950302
Si Si5 0.500000 0.413464 0.550813
Si Si6 0.818253 0.413754 0.395916
O O1 0.249633 0.870599 0.741201
O O2 0.280184 0.895545 0.654547
O O3 0.000000 0.909600 0.694133
O O4 0.227409 0.000000 0.707970
O O5 0.500000 0.668147 0.215621
O O6 0.250000 0.750000 0.213473
O O7 0.251708 0.627250 0.171860
O O8 0.256768 0.500000 0.134664
O O9 0.243952 0.383705 0.085880
O O10 0.000000 0.421786 0.132837
O O11 0.500000 0.669064 0.950008
O O12 0.750000 0.750000 0.939571
O O13 0.749946 0.654251 0.000000
O O14 0.500000 0.500000 0.552824
O O15 0.500000 0.393081 0.500000
O O16 0.334515 0.389906 0.574861
O O17 0.818432 0.500000 0.398116
O O18 0.000000 0.390060 0.408485
#
# Coordination Sequence:
#
# PCOD9492475 Si02
#       6
#    16  16  16  16   8  16
#     4   9  17  32  53  74 100 138 181 223 270 327
#     4  11  23  38  57  80 110 146 180 225 274 328
#     4  11  24  40  58  81 111 145 183 227 274 328
#     4  10  21  38  61  86 112 144 182 225 273 328
#     4   9  16  26  40  62 100 142 178 222 270 324
#     4   9  16  26  43  67  96 135 179 222 270 324
#
# _framework density 18.491361000000001
#
# number of rings (size 3 to 8) (size 9 to 14) (size 15 to 20)
#    0.000    2.091    0.909    2.727    0.000    5.455 
#    0.000    5.455    0.000    0.000    0.000    0.000 
#    0.000    0.727    0.364    0.000    0.000    0.000 
#
# Total GULP energy -245613.168875 kJ/mol
# GULP energy per Si atom -5582.117474 kJ/mol
# Density = 1.844927 g / cm^3
# Si number density = 18.491361 Si / 1000 Ang^3
#
#
#
# Elastic Constant Matrix: (Units=GPa)
#
#
# Indices 1 2 3 4 5 6 
#
# 1 89.6986 37.9036 62.6614 0.0000 0.0000 0.0000
# 2 37.9036 84.7898 75.3470 0.0000 0.0000 0.0000
# 3 62.6614 75.3470 142.7693 0.0000 0.0000 0.0000
# 4 0.0000 0.0000 0.0000 -21.8632 0.0000 0.0000
# 5 0.0000 0.0000 0.0000 0.0000 1.7874 0.0000
# 6 0.0000 0.0000 0.0000 0.0000 0.0000 15.2668
#
#
#
# Elastic Compliance Matrix: (Units=1/GPa)
#
#
# Indices 1 2 3 4 5 6 
#
# 1 0.016213 -0.001741 -0.006197 0.000000 0.000000 0.000000
# 2 -0.001741 0.022397 -0.011056 0.000000 0.000000 0.000000
# 3 -0.006197 -0.011056 0.015559 0.000000 0.000000 0.000000
# 4 0.000000 0.000000 0.000000 -0.045739 0.000000 0.000000
# 5 0.000000 0.000000 0.000000 0.000000 0.559458 0.000000
# 6 0.000000 0.000000 0.000000 0.000000 0.000000 0.065502
#
#
# Mechanical properties :
#
#
# Convention : Reuss Voigt Hill
#
# Bulk Modulus (GPa) = 61.80016 74.34241 68.07128
# Shear Modulus (GPa) = 7.38801 8.46126 7.92464
#
# Velocity S-wave (km/s) = 2.00101 2.14143 2.07241
# Velocity P-wave (km/s) = 6.23156 6.81215 6.52832
#
# Compressibility (1/GPa) = 0.01618119
#
# Stress axis : x y z
#
# Youngs Moduli (GPa) = 61.67755 44.64950 64.27083
#
# Poissons Ratio (x) = 0.07772 0.39831
# Poissons Ratio (y) = 0.10736 0.71057
# Poissons Ratio (z) = 0.38224 0.49364
#
# Static dielectric constant tensor:
#      x y z
#    x 1.661890 0.000000 0.000000 
#    y 0.000000 1.610750 0.000000 
#    z 0.000000 0.000000 1.625180 
# 
# From -- ./inp_files/76651.got.cif
#   From: 2010.05.17/outbox.cif.g08.bks.cpg/sg65_39_cif.got.tgz:76651.got - 2010.06.03 17:01:31.
