data_PCOD9492027
_publ_section_title
;
Structure prediction by ZEFSAII (Michael W. Deem and Ramdas Pophale) SiO2 
 PCOD9492027
Probable space group: C M M M
;
_chemical_formula_sum "Si O2"
_cell_formula_units_Z 96
_cell_length_a 29.836986
_cell_length_b 8.431820
_cell_length_c 21.130743
_cell_angle_alpha 90.000000
_cell_angle_beta 90.000000
_cell_angle_gamma 90.000000
_cell_volume 5316.074338
_symmetry_space_group_name_H-M "C M M M"
_symmetry_group_IT_number 65
_symmetry_cell_setting 'orthorhombic'
loop_
_space_group_symop_operation_xyz
x,y,z
-x,-y,z
x,-y,-z
-x,y,-z
-x,-y,-z
x,y,-z
-x,y,z
x,-y,z
1/2+x,1/2+y,z
1/2-x,1/2-y,z
1/2+x,1/2-y,-z
1/2-x,1/2+y,-z
1/2-x,1/2-y,-z
1/2+x,1/2+y,-z
1/2-x,1/2+y,z
1/2+x,1/2-y,z
loop_
_atom_site_type_symbol
_atom_site_label
_atom_site_fract_x
_atom_site_fract_y
_atom_site_fract_z
Si Si1 0.643389 0.309717 0.312270
Si Si2 0.949966 0.808730 0.886777
Si Si3 0.300843 0.809227 0.191675
Si Si4 0.549265 0.692728 0.262010
Si Si5 0.144185 0.690583 0.930976
Si Si6 0.299635 0.189863 0.427535
O O1 0.643434 0.500000 0.311368
O O2 0.673405 0.250570 0.253770
O O3 0.592530 0.252140 0.300258
O O4 0.664720 0.252126 0.377479
O O5 0.945689 0.766575 0.812255
O O6 0.907634 0.737070 0.921924
O O7 0.000000 0.759843 0.907982
O O8 0.947868 0.000000 0.891551
O O9 0.250000 0.750000 0.191483
O O10 0.327105 0.751110 0.128846
O O11 0.301163 0.000000 0.192206
O O12 0.500000 0.747891 0.283312
O O13 0.548922 0.500000 0.264472
O O14 0.147220 0.500000 0.930468
O O15 0.159879 0.748106 0.000000
O O16 0.308329 0.242265 0.500000
O O17 0.250000 0.250000 0.409824
O O18 0.299286 0.000000 0.426153
#
# Coordination Sequence:
#
# PCOD9492027 Si02
#       6
#    16  16  16  16  16  16
#     4  11  20  33  58  85 110 139 175 217 262 310
#     4   9  17  32  54  78 104 134 172 216 261 313
#     4  11  23  38  55  75 102 134 175 222 267 318
#     4   8  15  29  51  79 108 136 169 213 260 304
#     4  10  22  38  53  72 102 138 174 218 271 322
#     4  10  21  37  56  80 113 148 181 217 259 308
#
# _framework density 18.058437999999999
#
# number of rings (size 3 to 8) (size 9 to 14) (size 15 to 20)
#    0.000    2.167    1.667    3.000    0.000    3.000 
#    0.000    1.667    0.000    2.500    0.000    3.500 
#    0.000    0.000    0.000    0.000    0.000    0.000 
#
# Total GULP energy -267885.049120 kJ/mol
# GULP energy per Si atom -5580.938523 kJ/mol
# Density = 1.801734 g / cm^3
# Si number density = 18.058438 Si / 1000 Ang^3
#
#
#
# Elastic Constant Matrix: (Units=GPa)
#
#
# Indices 1 2 3 4 5 6 
#
# 1 135.8097 13.8728 68.7416 0.0000 0.0000 0.0000
# 2 13.8728 24.1557 16.3124 0.0000 0.0000 0.0000
# 3 68.7416 16.3124 94.7528 0.0000 0.0000 0.0000
# 4 0.0000 0.0000 0.0000 10.3369 0.0000 0.0000
# 5 0.0000 0.0000 0.0000 0.0000 11.3173 0.0000
# 6 0.0000 0.0000 0.0000 0.0000 0.0000 20.7777
#
#
#
# Elastic Compliance Matrix: (Units=1/GPa)
#
#
# Indices 1 2 3 4 5 6 
#
# 1 0.011663 -0.001114 -0.008269 0.000000 0.000000 0.000000
# 2 -0.001114 0.046951 -0.007275 0.000000 0.000000 0.000000
# 3 -0.008269 -0.007275 0.017805 0.000000 0.000000 0.000000
# 4 0.000000 0.000000 0.000000 0.096740 0.000000 0.000000
# 5 0.000000 0.000000 0.000000 0.000000 0.088360 0.000000
# 6 0.000000 0.000000 0.000000 0.000000 0.000000 0.048129
#
#
# Mechanical properties :
#
#
# Convention : Reuss Voigt Hill
#
# Bulk Modulus (GPa) = 23.20035 50.28574 36.74304
# Shear Modulus (GPa) = 13.99262 18.87247 16.43255
#
# Velocity S-wave (km/s) = 2.78664 3.23627 3.01984
# Velocity P-wave (km/s) = 4.81965 6.47080 5.70527
#
# Compressibility (1/GPa) = 0.04310279
#
# Stress axis : x y z
#
# Youngs Moduli (GPa) = 85.74417 21.29903 56.16265
#
# Poissons Ratio (x) = 0.02372 0.46443
# Poissons Ratio (y) = 0.09549 0.40858
# Poissons Ratio (z) = 0.70904 0.15495
#
# Static dielectric constant tensor:
#      x y z
#    x 1.610750 0.000000 0.000000 
#    y 0.000000 1.619450 0.000000 
#    z 0.000000 0.000000 1.617140 
# 
# From -- ./inp_files/60303.got.cif
#   From: 2010.05.17/outbox.cif.g08.bks.cpg/sg65_31_cif.got.tgz:60303.got - 2010.06.03 17:01:31.
