data_PCOD9492865
_publ_section_title
;
Structure prediction by ZEFSAII (Michael W. Deem and Ramdas Pophale) SiO2 
 PCOD9492865
Probable space group: C M M M
;
_chemical_formula_sum "Si O2"
_cell_formula_units_Z 96
_cell_length_a 10.063203
_cell_length_b 27.266667
_cell_length_c 18.550686
_cell_angle_alpha 90.000000
_cell_angle_beta 90.000000
_cell_angle_gamma 90.000000
_cell_volume 5090.122827
_symmetry_space_group_name_H-M "C M M M"
_symmetry_group_IT_number 65
_symmetry_cell_setting 'orthorhombic'
loop_
_space_group_symop_operation_xyz
x,y,z
-x,-y,z
x,-y,-z
-x,y,-z
-x,-y,-z
x,y,-z
-x,y,z
x,-y,z
1/2+x,1/2+y,z
1/2-x,1/2-y,z
1/2+x,1/2-y,-z
1/2-x,1/2+y,-z
1/2-x,1/2-y,-z
1/2+x,1/2+y,-z
1/2-x,1/2+y,z
1/2+x,1/2-y,z
loop_
_atom_site_type_symbol
_atom_site_label
_atom_site_fract_x
_atom_site_fract_y
_atom_site_fract_z
Si Si1 0.343856 0.795885 0.191065
Si Si2 0.251761 0.370092 0.306212
Si Si3 0.351953 0.293705 0.582588
Si Si4 0.342780 0.555224 0.816368
Si Si5 0.157787 0.143026 0.085744
Si Si6 0.342388 0.946344 0.580193
O O1 0.500000 0.784392 0.176086
O O2 0.250000 0.750000 0.211534
O O3 0.336453 0.834913 0.256161
O O4 0.261163 0.820601 0.125036
O O5 0.340704 0.334563 0.355734
O O6 0.316509 0.409210 0.251514
O O7 0.180946 0.403639 0.364427
O O8 0.328681 0.312369 0.500000
O O9 0.500000 0.272875 0.584280
O O10 0.250000 0.250000 0.595933
O O11 0.500000 0.549425 0.820905
O O12 0.284081 0.500000 0.812085
O O13 0.305445 0.588630 0.885244
O O14 0.000000 0.152255 0.105406
O O15 0.167353 0.146552 0.000000
O O16 0.288000 0.936444 0.500000
O O17 0.500000 0.950506 0.573808
O O18 0.290595 0.000000 0.604092
#
# Coordination Sequence:
#
# PCOD9492865 Si02
#       6
#    16  16  16  16  16  16
#     4  11  24  39  57  82 112 146 183 225 274 327
#     4  11  20  33  54  77 107 144 185 226 272 326
#     4  10  22  38  55  77 106 142 186 236 288 338
#     4   9  18  32  52  81 113 143 177 217 261 312
#     4   9  19  37  61  87 114 145 181 220 263 315
#     4   9  18  32  50  74 104 139 182 230 275 320
#
# _framework density 18.860054999999999
#
# number of rings (size 3 to 8) (size 9 to 14) (size 15 to 20)
#    0.000    2.167    0.000    3.500    0.000    5.667 
#    0.000    3.333    0.000    4.500    0.000   11.667 
#    0.000    0.000    0.000    0.000    0.000    0.000 
#
# Total GULP energy -267242.457935 kJ/mol
# GULP energy per Si atom -5567.551207 kJ/mol
# Density = 1.881713 g / cm^3
# Si number density = 18.860055 Si / 1000 Ang^3
#
#
#
# Elastic Constant Matrix: (Units=GPa)
#
#
# Indices 1 2 3 4 5 6 
#
# 1 86.0115 46.3095 37.1664 0.0000 0.0000 0.0000
# 2 46.3095 113.3505 47.2786 0.0000 0.0000 0.0000
# 3 37.1664 47.2786 99.7010 0.0000 0.0000 0.0000
# 4 0.0000 0.0000 0.0000 24.7187 0.0000 0.0000
# 5 0.0000 0.0000 0.0000 0.0000 28.6504 0.0000
# 6 0.0000 0.0000 0.0000 0.0000 0.0000 23.4902
#
#
#
# Elastic Compliance Matrix: (Units=1/GPa)
#
#
# Indices 1 2 3 4 5 6 
#
# 1 0.015846 -0.004999 -0.003537 0.000000 0.000000 0.000000
# 2 -0.004999 0.012574 -0.004099 0.000000 0.000000 0.000000
# 3 -0.003537 -0.004099 0.013292 0.000000 0.000000 0.000000
# 4 0.000000 0.000000 0.000000 0.040455 0.000000 0.000000
# 5 0.000000 0.000000 0.000000 0.000000 0.034904 0.000000
# 6 0.000000 0.000000 0.000000 0.000000 0.000000 0.042571
#
#
# Mechanical properties :
#
#
# Convention : Reuss Voigt Hill
#
# Bulk Modulus (GPa) = 60.81577 62.28577 61.55077
# Shear Modulus (GPa) = 26.26153 26.59243 26.42698
#
# Velocity S-wave (km/s) = 3.73559 3.75905 3.74734
# Velocity P-wave (km/s) = 7.13597 7.20677 7.17146
#
# Compressibility (1/GPa) = 0.01644310
#
# Stress axis : x y z
#
# Youngs Moduli (GPa) = 63.10764 79.52744 75.23171
#
# Poissons Ratio (x) = 0.39754 0.26606
# Poissons Ratio (y) = 0.31546 0.30840
# Poissons Ratio (z) = 0.22319 0.32601
#
# Static dielectric constant tensor:
#      x y z
#    x 1.644500 0.000000 0.000000 
#    y 0.000000 1.719650 0.000000 
#    z 0.000000 0.000000 1.679020 
# 
# From -- ./inp_files/51663.got.cif
#   From: 2010.05.17/outbox.cif.g08.bks.cpg/sg65_26_cif.got.tgz:51663.got - 2010.06.03 17:01:31.
