data_PCOD9492187
_publ_section_title
;
Structure prediction by ZEFSAII (Michael W. Deem and Ramdas Pophale) SiO2 
 PCOD9492187
Probable space group: C M M M
;
_chemical_formula_sum "Si O2"
_cell_formula_units_Z 104
_cell_length_a 29.804902
_cell_length_b 8.644020
_cell_length_c 20.614676
_cell_angle_alpha 90.000000
_cell_angle_beta 90.000000
_cell_angle_gamma 90.000000
_cell_volume 5311.044920
_symmetry_space_group_name_H-M "C M M M"
_symmetry_group_IT_number 65
_symmetry_cell_setting 'orthorhombic'
loop_
_space_group_symop_operation_xyz
x,y,z
-x,-y,z
x,-y,-z
-x,y,-z
-x,-y,-z
x,y,-z
-x,y,z
x,-y,z
1/2+x,1/2+y,z
1/2-x,1/2-y,z
1/2+x,1/2-y,-z
1/2-x,1/2+y,-z
1/2-x,1/2-y,-z
1/2+x,1/2+y,-z
1/2-x,1/2+y,z
1/2+x,1/2-y,z
loop_
_atom_site_type_symbol
_atom_site_label
_atom_site_fract_x
_atom_site_fract_y
_atom_site_fract_z
Si Si1 0.641111 0.185220 0.117862
Si Si2 0.800481 0.184370 0.000000
Si Si3 0.297552 0.813854 0.614481
Si Si4 0.551108 0.315823 0.839192
Si Si5 0.446902 0.819809 0.697355
Si Si6 0.394340 0.811157 0.429616
Si Si7 0.702205 0.814039 0.764369
O O1 0.589872 0.240571 0.117776
O O2 0.663143 0.232717 0.186796
O O3 0.642782 0.000000 0.112820
O O4 0.671770 0.257223 0.062161
O O5 0.750000 0.250000 0.000000
O O6 0.798160 0.000000 0.000000
O O7 0.250000 0.750000 0.590970
O O8 0.342201 0.766804 0.576961
O O9 0.303788 0.763872 0.689805
O O10 0.295320 0.000000 0.613119
O O11 0.500000 0.263589 0.853781
O O12 0.552876 0.500000 0.845871
O O13 0.560170 0.269863 0.764234
O O14 0.500000 0.817151 0.683229
O O15 0.420593 0.759764 0.634534
O O16 0.433505 0.000000 0.708543
O O17 0.412035 0.760899 0.500000
O O18 0.396437 0.000000 0.428483
O O19 0.750000 0.750000 0.787593
O O20 0.704072 0.000000 0.764133
#
# Coordination Sequence:
#
# PCOD9492187 Si02
#       7
#    16   8  16  16  16  16  16
#     4  11  22  38  61  87 115 150 191 233 279 328
#     4  12  26  44  63  88 125 164 200 233 269 319
#     4   9  17  30  46  66  94 128 167 213 265 317
#     4  10  21  37  58  85 115 146 182 227 281 338
#     4   9  17  31  53  79 105 134 172 221 274 330
#     4   9  17  29  46  69  98 133 173 219 272 327
#     4   9  18  31  50  76 104 134 172 221 273 325
#
# _framework density 19.581834000000001
#
# number of rings (size 3 to 8) (size 9 to 14) (size 15 to 20)
#    0.000    2.308    0.000    3.000    0.000    6.462 
#    0.000    5.769    0.000    3.692    0.000    2.154 
#    0.000    0.000    0.000    0.000    0.000    0.000 
#
# Total GULP energy -290264.716778 kJ/mol
# GULP energy per Si atom -5582.013784 kJ/mol
# Density = 1.953727 g / cm^3
# Si number density = 19.581834 Si / 1000 Ang^3
#
#
#
# Elastic Constant Matrix: (Units=GPa)
#
#
# Indices 1 2 3 4 5 6 
#
# 1 120.8238 34.6691 55.4473 0.0000 0.0000 0.0000
# 2 34.6691 36.3220 22.7577 0.0000 0.0000 0.0000
# 3 55.4473 22.7577 57.4660 0.0000 0.0000 0.0000
# 4 0.0000 0.0000 0.0000 12.4160 0.0000 0.0000
# 5 0.0000 0.0000 0.0000 0.0000 20.6614 0.0000
# 6 0.0000 0.0000 0.0000 0.0000 0.0000 29.4021
#
#
#
# Elastic Compliance Matrix: (Units=1/GPa)
#
#
# Indices 1 2 3 4 5 6 
#
# 1 0.016284 -0.007579 -0.012711 0.000000 0.000000 0.000000
# 2 -0.007579 0.040145 -0.008585 0.000000 0.000000 0.000000
# 3 -0.012711 -0.008585 0.033066 0.000000 0.000000 0.000000
# 4 0.000000 0.000000 0.000000 0.080542 0.000000 0.000000
# 5 0.000000 0.000000 0.000000 0.000000 0.048399 0.000000
# 6 0.000000 0.000000 0.000000 0.000000 0.000000 0.034011
#
#
# Mechanical properties :
#
#
# Convention : Reuss Voigt Hill
#
# Bulk Modulus (GPa) = 31.50140 48.92889 40.21514
# Shear Modulus (GPa) = 15.58703 19.27842 17.43273
#
# Velocity S-wave (km/s) = 2.82440 3.14109 2.98694
# Velocity P-wave (km/s) = 5.17284 6.18032 5.69889
#
# Compressibility (1/GPa) = 0.03174462
#
# Stress axis : x y z
#
# Youngs Moduli (GPa) = 61.40822 24.90971 30.24276
#
# Poissons Ratio (x) = 0.18880 0.38441
# Poissons Ratio (y) = 0.46544 0.25964
# Poissons Ratio (z) = 0.78055 0.21385
#
# Static dielectric constant tensor:
#      x y z
#    x 1.688870 0.000000 0.000000 
#    y 0.000000 1.676460 0.000000 
#    z 0.000000 0.000000 1.697370 
# 
# From -- ./inp_files/65916.got.cif
#   From: 2010.05.17/outbox.cif.g08.bks.cpg/sg65_33_cif.got.tgz:65916.got - 2010.06.03 17:01:31.
