data_PCOD9492758
_publ_section_title
;
Structure prediction by ZEFSAII (Michael W. Deem and Ramdas Pophale) SiO2 
 PCOD9492758
Probable space group: C M M M
;
_chemical_formula_sum "Si O2"
_cell_formula_units_Z 64
_cell_length_a 22.419738
_cell_length_b 16.865896
_cell_length_c 8.850314
_cell_angle_alpha 90.000000
_cell_angle_beta 90.000000
_cell_angle_gamma 90.000000
_cell_volume 3346.560112
_symmetry_space_group_name_H-M "C M M M"
_symmetry_group_IT_number 65
_symmetry_cell_setting 'orthorhombic'
loop_
_space_group_symop_operation_xyz
x,y,z
-x,-y,z
x,-y,-z
-x,y,-z
-x,-y,-z
x,y,-z
-x,y,z
x,-y,z
1/2+x,1/2+y,z
1/2-x,1/2-y,z
1/2+x,1/2-y,-z
1/2-x,1/2+y,-z
1/2-x,1/2-y,-z
1/2+x,1/2+y,-z
1/2-x,1/2+y,z
1/2+x,1/2-y,z
loop_
_atom_site_type_symbol
_atom_site_label
_atom_site_fract_x
_atom_site_fract_y
_atom_site_fract_z
Si Si1 0.114763 0.679340 0.679791
Si Si2 0.929183 0.000000 0.319945
Si Si3 0.138425 0.149935 0.181097
Si Si4 0.772042 0.594289 0.179516
Si Si5 0.000000 0.406254 0.819242
O O1 0.109457 0.682092 0.500000
O O2 0.118553 0.767681 0.746540
O O3 0.174807 0.633776 0.728565
O O4 0.058525 0.633923 0.750126
O O5 0.899383 0.077331 0.246934
O O6 0.918743 0.000000 0.500000
O O7 0.000000 0.000000 0.293352
O O8 0.208153 0.133048 0.214418
O O9 0.131934 0.152776 0.000000
O O10 0.768624 0.500000 0.207076
O O11 0.783557 0.605779 0.000000
O O12 0.000000 0.500000 0.786433
O O13 0.000000 0.396060 0.000000
#
# Coordination Sequence:
#
# PCOD9492758 Si02
#       5
#    16   8  16  16   8
#     4  12  26  41  63  97 133 168 209 266 329 382
#     4  11  25  43  65  95 135 172 209 268 330 382
#     4  11  23  43  68  95 127 172 222 265 311 379
#     4  10  21  41  66  94 127 168 218 266 315 378
#     4  11  25  47  71  94 123 168 219 265 315 383
#
# _framework density 19.124115
#
# number of rings (size 3 to 8) (size 9 to 14) (size 15 to 20)
#    0.000    1.000    1.250    5.250    1.750   10.500 
#    0.000    0.000    0.000    0.000    0.000    0.000 
#    0.000    0.000    0.000    0.000    0.000    0.000 
#
# Total GULP energy -179125.750203 kJ/mol
# GULP energy per Si atom -5597.679694 kJ/mol
# Density = 1.908059 g / cm^3
# Si number density = 19.124115 Si / 1000 Ang^3
#
#
#
# Elastic Constant Matrix: (Units=GPa)
#
#
# Indices 1 2 3 4 5 6 
#
# 1 170.1324 114.3799 116.8398 0.0000 0.0000 0.0000
# 2 114.3799 183.7984 110.7154 0.0000 0.0000 0.0000
# 3 116.8398 110.7154 127.4347 0.0000 0.0000 0.0000
# 4 0.0000 0.0000 0.0000 -597.5097 0.0000 0.0000
# 5 0.0000 0.0000 0.0000 0.0000 82.9279 0.0000
# 6 0.0000 0.0000 0.0000 0.0000 0.0000 297.1898
#
#
#
# Elastic Compliance Matrix: (Units=1/GPa)
#
#
# Indices 1 2 3 4 5 6 
#
# 1 0.016362 -0.002404 -0.012914 0.000000 0.000000 0.000000
# 2 -0.002404 0.011767 -0.008020 0.000000 0.000000 0.000000
# 3 -0.012914 -0.008020 0.026655 0.000000 0.000000 0.000000
# 4 0.000000 0.000000 0.000000 -0.001674 0.000000 0.000000
# 5 0.000000 0.000000 0.000000 0.000000 0.012059 0.000000
# 6 0.000000 0.000000 0.000000 0.000000 0.000000 0.003365
#
#
# Mechanical properties :
#
#
# Convention : Reuss Voigt Hill
#
# Bulk Modulus (GPa) = 123.29887 129.47065 126.38476
# Shear Modulus (GPa) = 42.40441 -34.18304 4.11069
#
# Velocity S-wave (km/s) = 4.71396 -4.23239 1.46770
# Velocity P-wave (km/s) = 9.70781 6.63046 8.31278
#
# Compressibility (1/GPa) = 0.00811037
#
# Stress axis : x y z
#
# Youngs Moduli (GPa) = 61.11612 84.98021 37.51656
#
# Poissons Ratio (x) = 0.20425 0.48448
# Poissons Ratio (y) = 0.14690 0.30088
# Poissons Ratio (z) = 0.78924 0.68153
#
# Static dielectric constant tensor:
#      x y z
#    x 1.630970 0.000000 0.000000 
#    y 0.000000 1.631000 0.000000 
#    z 0.000000 0.000000 1.635180 
# 
# From -- ./inp_files/13393.got.cif
#   From: 2010.05.17/outbox.cif.g08.bks.cpg/sg65_7_cif.got.tgz:13393.got - 2010.06.03 17:01:31.
