data_PCOD9492530
_publ_section_title
;
Structure prediction by ZEFSAII (Michael W. Deem and Ramdas Pophale) SiO2 
 PCOD9492530
Probable space group: C M M M
;
_chemical_formula_sum "Si O2"
_cell_formula_units_Z 96
_cell_length_a 21.875696
_cell_length_b 15.394827
_cell_length_c 13.935476
_cell_angle_alpha 90.000000
_cell_angle_beta 90.000000
_cell_angle_gamma 90.000000
_cell_volume 4693.085864
_symmetry_space_group_name_H-M "C M M M"
_symmetry_group_IT_number 65
_symmetry_cell_setting 'orthorhombic'
loop_
_space_group_symop_operation_xyz
x,y,z
-x,-y,z
x,-y,-z
-x,y,-z
-x,-y,-z
x,y,-z
-x,y,z
x,-y,z
1/2+x,1/2+y,z
1/2-x,1/2-y,z
1/2+x,1/2-y,-z
1/2-x,1/2+y,-z
1/2-x,1/2-y,-z
1/2+x,1/2+y,-z
1/2-x,1/2+y,z
1/2+x,1/2-y,z
loop_
_atom_site_type_symbol
_atom_site_label
_atom_site_fract_x
_atom_site_fract_y
_atom_site_fract_z
Si Si1 0.601302 0.597660 0.107937
Si Si2 0.434638 0.643177 0.315029
Si Si3 0.321105 0.229192 0.104924
Si Si4 0.699681 0.397096 0.393125
Si Si5 0.067711 0.661441 0.386334
Si Si6 0.682470 0.100745 0.723083
O O1 0.627988 0.500000 0.114267
O O2 0.563606 0.612641 0.204623
O O3 0.647889 0.677075 0.114702
O O4 0.573230 0.603026 0.000000
O O5 0.500000 0.614746 0.359970
O O6 0.369816 0.612603 0.357153
O O7 0.432109 0.746920 0.330086
O O8 0.250000 0.250000 0.106308
O O9 0.334702 0.161274 0.187778
O O10 0.338478 0.193753 0.000000
O O11 0.704847 0.358628 0.500000
O O12 0.711278 0.500000 0.399684
O O13 0.753864 0.365318 0.323689
O O14 0.072908 0.679293 0.500000
O O15 0.126419 0.608556 0.351476
O O16 0.000000 0.621338 0.370308
O O17 0.690468 0.000000 0.751078
#
# Coordination Sequence:
#
# PCOD9492530 Si02
#       6
#    16  16  16  16  16  16
#     4  10  21  38  61  89 122 161 206 254 304 366
#     4  11  22  38  60  88 124 165 207 253 309 371
#     4  10  21  38  61  91 126 165 208 252 308 374
#     4  10  22  38  57  87 124 162 209 257 303 367
#     4  10  22  40  63  93 126 163 211 262 312 369
#     4  11  23  40  65  95 126 163 208 259 315 369
#
# _framework density 20.455624
#
# number of rings (size 3 to 8) (size 9 to 14) (size 15 to 20)
#    0.000    1.667    1.667    2.500    0.000    6.333 
#    0.000    5.833    0.000    0.500    0.000    1.167 
#    0.000    0.000    0.000    0.000    0.000    0.000 
#
# Total GULP energy -267637.255358 kJ/mol
# GULP energy per Si atom -5575.776153 kJ/mol
# Density = 2.040907 g / cm^3
# Si number density = 20.455624 Si / 1000 Ang^3
#
#
#
# Elastic Constant Matrix: (Units=GPa)
#
#
# Indices 1 2 3 4 5 6 
#
# 1 119.6948 34.9274 47.5818 0.0000 0.0000 0.0000
# 2 34.9274 84.9378 52.0037 0.0000 0.0000 0.0000
# 3 47.5818 52.0037 128.1810 0.0000 0.0000 0.0000
# 4 0.0000 0.0000 0.0000 26.6610 0.0000 0.0000
# 5 0.0000 0.0000 0.0000 0.0000 58.7565 0.0000
# 6 0.0000 0.0000 0.0000 0.0000 0.0000 -173.6477
#
#
#
# Elastic Compliance Matrix: (Units=1/GPa)
#
#
# Indices 1 2 3 4 5 6 
#
# 1 0.010182 -0.002492 -0.002769 0.000000 0.000000 0.000000
# 2 -0.002492 0.016274 -0.005677 0.000000 0.000000 0.000000
# 3 -0.002769 -0.005677 0.011133 0.000000 0.000000 0.000000
# 4 0.000000 0.000000 0.000000 0.037508 0.000000 0.000000
# 5 0.000000 0.000000 0.000000 0.000000 0.017019 0.000000
# 6 0.000000 0.000000 0.000000 0.000000 0.000000 -0.005759
#
#
# Mechanical properties :
#
#
# Convention : Reuss Voigt Hill
#
# Bulk Modulus (GPa) = 63.64246 66.87105 65.25675
# Shear Modulus (GPa) = 44.06387 -4.42598 19.81894
#
# Velocity S-wave (km/s) = 4.64629 -1.47255 3.11605
# Velocity P-wave (km/s) = 7.74364 5.46540 6.70203
#
# Compressibility (1/GPa) = 0.01571278
#
# Stress axis : x y z
#
# Youngs Moduli (GPa) = 98.20866 61.44737 89.82587
#
# Poissons Ratio (x) = 0.15312 0.24871
# Poissons Ratio (y) = 0.24473 0.50998
# Poissons Ratio (z) = 0.27192 0.34887
#
# Static dielectric constant tensor:
#      x y z
#    x 1.776590 0.000000 0.000000 
#    y 0.000000 1.720610 0.000000 
#    z 0.000000 0.000000 1.771750 
# 
# From -- ./inp_files/44103.got.cif
#   From: 2010.05.17/outbox.cif.g08.bks.cpg/sg65_23_cif.got.tgz:44103.got - 2010.06.03 17:01:31.
