data_PCOD9492491
_publ_section_title
;
Structure prediction by ZEFSAII (Michael W. Deem and Ramdas Pophale) SiO2 
 PCOD9492491
Probable space group: C M M M
;
_chemical_formula_sum "Si O2"
_cell_formula_units_Z 72
_cell_length_a 19.445047
_cell_length_b 8.667005
_cell_length_c 22.897446
_cell_angle_alpha 90.000000
_cell_angle_beta 90.000000
_cell_angle_gamma 90.000000
_cell_volume 3858.913892
_symmetry_space_group_name_H-M "C M M M"
_symmetry_group_IT_number 65
_symmetry_cell_setting 'orthorhombic'
loop_
_space_group_symop_operation_xyz
x,y,z
-x,-y,z
x,-y,-z
-x,y,-z
-x,-y,-z
x,y,-z
-x,y,z
x,-y,z
1/2+x,1/2+y,z
1/2-x,1/2-y,z
1/2+x,1/2-y,-z
1/2-x,1/2+y,-z
1/2-x,1/2-y,-z
1/2+x,1/2+y,-z
1/2-x,1/2+y,z
1/2+x,1/2-y,z
loop_
_atom_site_type_symbol
_atom_site_label
_atom_site_fract_x
_atom_site_fract_y
_atom_site_fract_z
Si Si1 0.919524 0.315555 0.831404
Si Si2 0.825482 0.184267 0.068493
Si Si3 0.675374 0.684246 0.730825
Si Si4 0.325246 0.815264 0.601658
Si Si5 0.580813 0.685074 0.500000
O O1 0.912828 0.500000 0.825902
O O2 0.881636 0.259966 0.889930
O O3 0.880898 0.236176 0.777397
O O4 0.000000 0.275876 0.832463
O O5 0.750000 0.250000 0.083048
O O6 0.825221 0.000000 0.076675
O O7 0.838279 0.217192 0.000000
O O8 0.679329 0.500000 0.726896
O O9 0.750000 0.750000 0.749033
O O10 0.660569 0.753961 0.666914
O O11 0.250000 0.750000 0.584902
O O12 0.381249 0.754064 0.556409
O O13 0.322956 0.000000 0.601598
O O14 0.588399 0.500000 0.500000
O O15 0.500000 0.722351 0.500000
#
# Coordination Sequence:
#
# PCOD9492491 Si02
#       5
#    16  16  16  16   8
#     4  11  24  40  58  83 117 155 193 235 286 343
#     4  10  21  38  61  87 115 149 191 238 286 339
#     4  11  22  39  63  88 116 150 192 239 287 340
#     4  11  22  39  63  89 118 151 193 240 287 340
#     4  11  24  41  60  85 119 157 196 237 286 343
#
# _framework density 18.658099
#
# number of rings (size 3 to 8) (size 9 to 14) (size 15 to 20)
#    0.000    1.222    0.000    8.000    0.000    5.333 
#    0.000    2.222    0.000    0.000    0.000    0.000 
#    0.000    0.000    0.000    0.000    0.000    0.000 
#
# Total GULP energy -201402.732953 kJ/mol
# GULP energy per Si atom -5594.520360 kJ/mol
# Density = 1.861563 g / cm^3
# Si number density = 18.658099 Si / 1000 Ang^3
#
#
#
# Elastic Constant Matrix: (Units=GPa)
#
#
# Indices 1 2 3 4 5 6 
#
# 1 169.3744 96.0021 107.8533 0.0000 0.0000 0.0000
# 2 96.0021 149.0634 71.3901 0.0000 0.0000 0.0000
# 3 107.8533 71.3901 101.0815 0.0000 0.0000 0.0000
# 4 0.0000 0.0000 0.0000 37.8135 0.0000 0.0000
# 5 0.0000 0.0000 0.0000 0.0000 -88.7904 0.0000
# 6 0.0000 0.0000 0.0000 0.0000 0.0000 30.1911
#
#
#
# Elastic Compliance Matrix: (Units=1/GPa)
#
#
# Indices 1 2 3 4 5 6 
#
# 1 0.019877 -0.003996 -0.018387 0.000000 0.000000 0.000000
# 2 -0.003996 0.010941 -0.003464 0.000000 0.000000 0.000000
# 3 -0.018387 -0.003464 0.031958 0.000000 0.000000 0.000000
# 4 0.000000 0.000000 0.000000 0.026446 0.000000 0.000000
# 5 0.000000 0.000000 0.000000 0.000000 -0.011262 0.000000
# 6 0.000000 0.000000 0.000000 0.000000 0.000000 0.033122
#
#
# Mechanical properties :
#
#
# Convention : Reuss Voigt Hill
#
# Bulk Modulus (GPa) = 90.22452 107.77893 99.00172
# Shear Modulus (GPa) = 30.03594 5.46110 17.74852
#
# Velocity S-wave (km/s) = 4.01659 1.71268 3.08758
# Velocity P-wave (km/s) = 8.36495 7.86140 8.11708
#
# Compressibility (1/GPa) = 0.01108346
#
# Stress axis : x y z
#
# Youngs Moduli (GPa) = 50.30949 91.40144 31.29137
#
# Poissons Ratio (x) = 0.36521 0.57534
# Poissons Ratio (y) = 0.20102 0.10838
# Poissons Ratio (z) = 0.92502 0.31659
#
# Static dielectric constant tensor:
#      x y z
#    x 1.609800 0.000000 0.000000 
#    y 0.000000 1.623730 0.000000 
#    z 0.000000 0.000000 1.630430 
# 
# From -- ./inp_files/64315.got.cif
#   From: 2010.05.17/outbox.cif.g08.bks.cpg/sg65_33_cif.got.tgz:64315.got - 2010.06.03 17:01:31.
