data_PCOD9492720
_publ_section_title
;
Structure prediction by ZEFSAII (Michael W. Deem and Ramdas Pophale) SiO2 
 PCOD9492720
Probable space group: C M M M
;
_chemical_formula_sum "Si O2"
_cell_formula_units_Z 96
_cell_length_a 23.808998
_cell_length_b 8.708760
_cell_length_c 26.346745
_cell_angle_alpha 90.000000
_cell_angle_beta 90.000000
_cell_angle_gamma 90.000000
_cell_volume 5462.914568
_symmetry_space_group_name_H-M "C M M M"
_symmetry_group_IT_number 65
_symmetry_cell_setting 'orthorhombic'
loop_
_space_group_symop_operation_xyz
x,y,z
-x,-y,z
x,-y,-z
-x,y,-z
-x,-y,-z
x,y,-z
-x,y,z
x,-y,z
1/2+x,1/2+y,z
1/2-x,1/2-y,z
1/2+x,1/2-y,-z
1/2-x,1/2+y,-z
1/2-x,1/2-y,-z
1/2+x,1/2+y,-z
1/2-x,1/2+y,z
1/2+x,1/2-y,z
loop_
_atom_site_type_symbol
_atom_site_label
_atom_site_fract_x
_atom_site_fract_y
_atom_site_fract_z
Si Si1 0.879373 0.816774 0.905062
Si Si2 0.187047 0.315095 0.500000
Si Si3 0.500000 0.687261 0.866536
Si Si4 0.686699 0.185760 0.611380
Si Si5 0.616230 0.815983 0.290902
Si Si6 0.000000 0.184339 0.252223
Si Si7 0.311876 0.317477 0.199155
Si Si8 0.812818 0.681920 0.000000
O O1 0.846020 0.792527 0.852675
O O2 0.847163 0.736648 0.950743
O O3 0.943219 0.764165 0.894875
O O4 0.880355 0.000000 0.915135
O O5 0.188440 0.500000 0.500000
O O6 0.250000 0.250000 0.500000
O O7 0.164100 0.268375 0.444731
O O8 0.500000 0.500000 0.865763
O O9 0.500000 0.735107 0.807261
O O10 0.750000 0.250000 0.617926
O O11 0.645734 0.234447 0.656650
O O12 0.690660 0.000000 0.612924
O O13 0.555631 0.744436 0.279754
O O14 0.656322 0.763516 0.245198
O O15 0.611430 0.000000 0.291481
O O16 0.000000 0.000000 0.251974
O O17 0.309716 0.500000 0.208581
O O18 0.250000 0.250000 0.193994
O O19 0.750000 0.750000 0.000000
O O20 0.807980 0.500000 0.000000
#
# Coordination Sequence:
#
# PCOD9492720 Si02
#       8
#    16   8   8  16  16   8  16   8
#     4  10  21  40  64  86 112 147 186 227 270 323
#     4   8  14  28  48  71 102 143 183 226 272 324
#     4   9  18  38  64  87 109 141 185 225 266 323
#     4   9  18  31  50  77 110 144 184 227 276 331
#     4  11  22  35  53  81 112 144 182 230 283 335
#     4  11  21  39  60  81 108 146 190 228 275 332
#     4  11  22  36  56  82 113 148 186 227 275 334
#     4  12  26  43  62  87 117 148 186 228 277 332
#
# _framework density 17.573038
#
# number of rings (size 3 to 8) (size 9 to 14) (size 15 to 20)
#    0.000    1.833    1.667    3.000    0.000    5.667 
#    0.000    2.083    0.000    0.500    0.000    3.500 
#    0.000    0.000    0.000    0.000    0.000    0.000 
#
# Total GULP energy -267918.513369 kJ/mol
# GULP energy per Si atom -5581.635695 kJ/mol
# Density = 1.753304 g / cm^3
# Si number density = 17.573038 Si / 1000 Ang^3
#
#
#
# Elastic Constant Matrix: (Units=GPa)
#
#
# Indices 1 2 3 4 5 6 
#
# 1 162.5866 48.2604 80.0145 0.0000 0.0000 0.0000
# 2 48.2604 44.4624 60.7217 0.0000 0.0000 0.0000
# 3 80.0145 60.7217 147.1016 0.0000 0.0000 0.0000
# 4 0.0000 0.0000 0.0000 18.3980 0.0000 0.0000
# 5 0.0000 0.0000 0.0000 0.0000 48.3918 0.0000
# 6 0.0000 0.0000 0.0000 0.0000 0.0000 14.7386
#
#
#
# Elastic Compliance Matrix: (Units=1/GPa)
#
#
# Indices 1 2 3 4 5 6 
#
# 1 0.009337 -0.007332 -0.002052 0.000000 0.000000 0.000000
# 2 -0.007332 0.057311 -0.019669 0.000000 0.000000 0.000000
# 3 -0.002052 -0.019669 0.016034 0.000000 0.000000 0.000000
# 4 0.000000 0.000000 0.000000 0.054354 0.000000 0.000000
# 5 0.000000 0.000000 0.000000 0.000000 0.020665 0.000000
# 6 0.000000 0.000000 0.000000 0.000000 0.000000 0.067849
#
#
# Mechanical properties :
#
#
# Convention : Reuss Voigt Hill
#
# Bulk Modulus (GPa) = 40.69185 81.34931 61.02058
# Shear Modulus (GPa) = 17.13232 27.31595 22.22414
#
# Velocity S-wave (km/s) = 3.12576 3.94690 3.56008
# Velocity P-wave (km/s) = 6.01941 8.19532 7.19015
#
# Compressibility (1/GPa) = 0.02457494
#
# Stress axis : x y z
#
# Youngs Moduli (GPa) = 107.10324 17.44873 62.36917
#
# Poissons Ratio (x) = 0.12793 0.12800
# Poissons Ratio (y) = 0.78523 1.22675
# Poissons Ratio (z) = 0.21981 0.34320
#
# Static dielectric constant tensor:
#      x y z
#    x 1.567940 0.000000 0.000000 
#    y 0.000000 1.597610 0.000000 
#    z 0.000000 0.000000 1.608120 
# 
# From -- ./inp_files/71511.got.cif
#   From: 2010.05.17/outbox.cif.g08.bks.cpg/sg65_36_cif.got.tgz:71511.got - 2010.06.03 17:01:31.
