data_PCOD9492054
_publ_section_title
;
Structure prediction by ZEFSAII (Michael W. Deem and Ramdas Pophale) SiO2 
 PCOD9492054
Probable space group: C M M M
;
_chemical_formula_sum "Si O2"
_cell_formula_units_Z 88
_cell_length_a 18.792463
_cell_length_b 8.416058
_cell_length_c 30.642665
_cell_angle_alpha 90.000000
_cell_angle_beta 90.000000
_cell_angle_gamma 90.000000
_cell_volume 4846.396663
_symmetry_space_group_name_H-M "C M M M"
_symmetry_group_IT_number 65
_symmetry_cell_setting 'orthorhombic'
loop_
_space_group_symop_operation_xyz
x,y,z
-x,-y,z
x,-y,-z
-x,y,-z
-x,-y,-z
x,y,-z
-x,y,z
x,-y,z
1/2+x,1/2+y,z
1/2-x,1/2-y,z
1/2+x,1/2-y,-z
1/2-x,1/2+y,-z
1/2-x,1/2-y,-z
1/2+x,1/2+y,-z
1/2-x,1/2+y,z
1/2+x,1/2-y,z
loop_
_atom_site_type_symbol
_atom_site_label
_atom_site_fract_x
_atom_site_fract_y
_atom_site_fract_z
Si Si1 0.418493 0.189605 0.869688
Si Si2 0.085800 0.684736 0.395205
Si Si3 0.086365 0.000000 0.550066
Si Si4 0.581696 0.310824 0.223595
Si Si5 0.330688 0.309892 0.048245
Si Si6 0.329913 0.812766 0.694826
O O1 0.500000 0.248454 0.872771
O O2 0.390529 0.247082 0.822772
O O3 0.375457 0.247769 0.911298
O O4 0.418835 0.000000 0.869547
O O5 0.102020 0.500000 0.409324
O O6 0.124627 0.712726 0.349168
O O7 0.000000 0.691624 0.389911
O O8 0.106749 0.833641 0.426218
O O9 0.111073 0.000000 0.500000
O O10 0.000000 0.000000 0.549835
O O11 0.500000 0.250754 0.229546
O O12 0.579073 0.500000 0.221044
O O13 0.629970 0.262934 0.264138
O O14 0.330862 0.500000 0.049241
O O15 0.250000 0.250000 0.052143
O O16 0.357320 0.258409 0.000000
O O17 0.250000 0.750000 0.689735
O O18 0.326555 0.000000 0.702546
#
# Coordination Sequence:
#
# PCOD9492054 Si02
#       6
#    16  16   8  16  16  16
#     4  10  21  37  57  81 110 143 178 222 273 325
#     4   9  19  35  56  83 114 150 189 234 287 339
#     4   9  18  32  56  88 116 146 187 237 286 336
#     4  10  21  37  58  82 110 144 182 225 274 332
#     4  10  21  37  57  80 107 140 180 225 273 326
#     4  11  23  37  55  82 112 148 187 231 279 329
#
# _framework density 18.157820000000001
#
# number of rings (size 3 to 8) (size 9 to 14) (size 15 to 20)
#    0.000    2.091    0.000    2.727    2.545    5.455 
#    0.000    7.273    0.000    0.545    0.000    0.000 
#    0.000    0.000    0.000    0.000    0.000    0.000 
#
# Total GULP energy -245465.684124 kJ/mol
# GULP energy per Si atom -5578.765548 kJ/mol
# Density = 1.811649 g / cm^3
# Si number density = 18.157820 Si / 1000 Ang^3
#
#
#
# Elastic Constant Matrix: (Units=GPa)
#
#
# Indices 1 2 3 4 5 6 
#
# 1 44.1358 34.3250 52.7188 0.0000 0.0000 0.0000
# 2 34.3250 102.8192 87.4810 0.0000 0.0000 0.0000
# 3 52.7188 87.4810 152.1593 0.0000 0.0000 0.0000
# 4 0.0000 0.0000 0.0000 30.6811 0.0000 0.0000
# 5 0.0000 0.0000 0.0000 0.0000 -1.2939 0.0000
# 6 0.0000 0.0000 0.0000 0.0000 0.0000 25.8178
#
#
#
# Elastic Compliance Matrix: (Units=1/GPa)
#
#
# Indices 1 2 3 4 5 6 
#
# 1 0.039119 -0.002991 -0.011834 0.000000 0.000000 0.000000
# 2 -0.002991 0.019268 -0.010041 0.000000 0.000000 0.000000
# 3 -0.011834 -0.010041 0.016445 0.000000 0.000000 0.000000
# 4 0.000000 0.000000 0.000000 0.032593 0.000000 0.000000
# 5 0.000000 0.000000 0.000000 0.000000 -0.772840 0.000000
# 6 0.000000 0.000000 0.000000 0.000000 0.000000 0.038733
#
#
# Mechanical properties :
#
#
# Convention : Reuss Voigt Hill
#
# Bulk Modulus (GPa) = 39.84151 72.01821 55.92986
# Shear Modulus (GPa) = -8.79379 19.34696 5.27658
#
# Velocity S-wave (km/s) = -2.20306 3.26772 1.70654
# Velocity P-wave (km/s) = 3.93930 7.34750 5.89508
#
# Compressibility (1/GPa) = 0.02509945
#
# Stress axis : x y z
#
# Youngs Moduli (GPa) = 25.56324 51.90048 60.80755
#
# Poissons Ratio (x) = 0.15521 0.71960
# Poissons Ratio (y) = 0.07645 0.61059
# Poissons Ratio (z) = 0.30252 0.52115
#
# Static dielectric constant tensor:
#      x y z
#    x 1.634120 0.000000 0.000000 
#    y 0.000000 1.629910 0.000000 
#    z 0.000000 0.000000 1.606310 
# 
# From -- ./inp_files/70962.got.cif
#   From: 2010.05.17/outbox.cif.g08.bks.cpg/sg65_36_cif.got.tgz:70962.got - 2010.06.03 17:01:31.
