data_PCOD9492667
_publ_section_title
;
Structure prediction by ZEFSAII (Michael W. Deem and Ramdas Pophale) SiO2 
 PCOD9492667
Probable space group: C M M M
;
_chemical_formula_sum "Si O2"
_cell_formula_units_Z 72
_cell_length_a 27.157259
_cell_length_b 8.973399
_cell_length_c 13.782035
_cell_angle_alpha 90.000000
_cell_angle_beta 90.000000
_cell_angle_gamma 90.000000
_cell_volume 3358.584363
_symmetry_space_group_name_H-M "C M M M"
_symmetry_group_IT_number 65
_symmetry_cell_setting 'orthorhombic'
loop_
_space_group_symop_operation_xyz
x,y,z
-x,-y,z
x,-y,-z
-x,y,-z
-x,-y,-z
x,y,-z
-x,y,z
x,-y,z
1/2+x,1/2+y,z
1/2-x,1/2-y,z
1/2+x,1/2-y,-z
1/2-x,1/2+y,-z
1/2-x,1/2-y,-z
1/2+x,1/2+y,-z
1/2-x,1/2+y,z
1/2+x,1/2-y,z
loop_
_atom_site_type_symbol
_atom_site_label
_atom_site_fract_x
_atom_site_fract_y
_atom_site_fract_z
Si Si1 0.655461 0.821246 0.109956
Si Si2 0.398376 0.329286 0.383407
Si Si3 0.553330 0.674039 0.882242
Si Si4 0.799994 0.677937 0.306905
Si Si5 0.500000 0.172780 0.618986
O O1 0.602552 0.760062 0.144440
O O2 0.693958 0.780512 0.192923
O O3 0.652615 0.000000 0.106755
O O4 0.665739 0.767418 0.000000
O O5 0.400747 0.332222 0.500000
O O6 0.394586 0.500000 0.349098
O O7 0.349670 0.239087 0.355249
O O8 0.449748 0.255297 0.350231
O O9 0.500000 0.734325 0.850546
O O10 0.556369 0.500000 0.855613
O O11 0.552908 0.679103 0.000000
O O12 0.797899 0.500000 0.316165
O O13 0.750000 0.750000 0.346010
O O14 0.500000 0.174433 0.500000
O O15 0.500000 0.000000 0.648931
#
# Coordination Sequence:
#
# PCOD9492667 Si02
#       5
#    16  16  16  16   8
#     4   9  19  36  56  79 109 147 192 241 294 349
#     4  10  21  39  64  93 124 158 196 239 290 350
#     4   8  14  26  46  73 104 138 178 225 277 334
#     4  11  24  41  60  84 116 155 200 251 301 355
#     4   9  17  33  61  95 128 159 192 235 287 346
#
# _framework density 21.437604
#
# number of rings (size 3 to 8) (size 9 to 14) (size 15 to 20)
#    0.000    2.556    0.000    2.333    0.000    5.778 
#    2.000    2.222    0.000    0.000    0.000    0.000 
#    0.000    0.000    0.000    0.000    0.000    0.000 
#
# Total GULP energy -201089.564302 kJ/mol
# GULP energy per Si atom -5585.821231 kJ/mol
# Density = 2.138881 g / cm^3
# Si number density = 21.437604 Si / 1000 Ang^3
#
#
#
# Elastic Constant Matrix: (Units=GPa)
#
#
# Indices 1 2 3 4 5 6 
#
# 1 174.1970 60.0644 27.7617 0.0000 0.0000 0.0000
# 2 60.0644 63.9667 16.2166 0.0000 0.0000 0.0000
# 3 27.7617 16.2166 49.7744 0.0000 0.0000 0.0000
# 4 0.0000 0.0000 0.0000 13.8655 0.0000 0.0000
# 5 0.0000 0.0000 0.0000 0.0000 21.6835 0.0000
# 6 0.0000 0.0000 0.0000 0.0000 0.0000 35.3182
#
#
#
# Elastic Compliance Matrix: (Units=1/GPa)
#
#
# Indices 1 2 3 4 5 6 
#
# 1 0.008745 -0.007603 -0.002400 0.000000 0.000000 0.000000
# 2 -0.007603 0.023650 -0.003465 0.000000 0.000000 0.000000
# 3 -0.002400 -0.003465 0.022558 0.000000 0.000000 0.000000
# 4 0.000000 0.000000 0.000000 0.072122 0.000000 0.000000
# 5 0.000000 0.000000 0.000000 0.000000 0.046118 0.000000
# 6 0.000000 0.000000 0.000000 0.000000 0.000000 0.028314
#
#
# Mechanical properties :
#
#
# Convention : Reuss Voigt Hill
#
# Bulk Modulus (GPa) = 35.69208 55.11372 45.40290
# Shear Modulus (GPa) = 21.02766 26.43313 23.73039
#
# Velocity S-wave (km/s) = 3.13529 3.51526 3.33070
# Velocity P-wave (km/s) = 5.45822 6.49929 6.00137
#
# Compressibility (1/GPa) = 0.02801742
#
# Stress axis : x y z
#
# Youngs Moduli (GPa) = 114.35612 42.28259 44.32945
#
# Poissons Ratio (x) = 0.32146 0.10641
# Poissons Ratio (y) = 0.86941 0.15360
# Poissons Ratio (z) = 0.27450 0.14651
#
# Static dielectric constant tensor:
#      x y z
#    x 1.737000 0.000000 0.000000 
#    y 0.000000 1.714490 0.000000 
#    z 0.000000 0.000000 1.862730 
# 
# From -- ./inp_files/46498.got.cif
#   From: 2010.05.17/outbox.cif.g08.bks.cpg/sg65_24_cif.got.tgz:46498.got - 2010.06.03 17:01:31.
