data_PCOD9492157
_publ_section_title
;
Structure prediction by ZEFSAII (Michael W. Deem and Ramdas Pophale) SiO2 
 PCOD9492157
Probable space group: C M M M
;
_chemical_formula_sum "Si O2"
_cell_formula_units_Z 88
_cell_length_a 19.022443
_cell_length_b 25.052732
_cell_length_c 7.833358
_cell_angle_alpha 90.000000
_cell_angle_beta 90.000000
_cell_angle_gamma 90.000000
_cell_volume 3733.097726
_symmetry_space_group_name_H-M "C M M M"
_symmetry_group_IT_number 65
_symmetry_cell_setting 'orthorhombic'
loop_
_space_group_symop_operation_xyz
x,y,z
-x,-y,z
x,-y,-z
-x,y,-z
-x,-y,-z
x,y,-z
-x,y,z
x,-y,z
1/2+x,1/2+y,z
1/2-x,1/2-y,z
1/2+x,1/2-y,-z
1/2-x,1/2+y,-z
1/2-x,1/2-y,-z
1/2+x,1/2+y,-z
1/2-x,1/2+y,z
1/2+x,1/2-y,z
loop_
_atom_site_type_symbol
_atom_site_label
_atom_site_fract_x
_atom_site_fract_y
_atom_site_fract_z
Si Si1 0.156009 0.938709 0.799829
Si Si2 0.218135 0.832853 0.697516
Si Si3 0.923980 0.217086 0.300603
Si Si4 0.084075 0.442301 0.794658
Si Si5 0.500000 0.435463 0.303316
Si Si6 0.372371 0.827635 0.197814
O O1 0.205232 0.896280 0.708546
O O2 0.074625 0.920625 0.777015
O O3 0.161734 0.000000 0.738057
O O4 0.173063 0.938198 0.000000
O O5 0.225026 0.816318 0.500000
O O6 0.147104 0.807617 0.774452
O O7 0.289447 0.816967 0.788888
O O8 0.924421 0.201287 0.500000
O O9 0.914203 0.280651 0.288729
O O10 0.000000 0.201711 0.226941
O O11 0.109724 0.500000 0.728565
O O12 0.115057 0.386892 0.728991
O O13 0.000000 0.440467 0.770071
O O14 0.096766 0.442724 0.000000
O O15 0.500000 0.500000 0.296706
O O16 0.500000 0.418482 0.500000
O O17 0.394693 0.827271 0.000000
#
# Coordination Sequence:
#
# PCOD9492157 Si02
#       6
#    16  16  16  16   8  16
#     4  10  21  37  57  84 118 154 195 247 303 352
#     4  11  24  40  60  85 117 158 204 249 299 364
#     4  10  23  43  64  85 112 150 197 250 305 361
#     4   8  15  30  54  85 119 153 190 232 280 340
#     4   9  17  31  53  79 109 149 193 235 284 347
#     4  11  22  37  60  90 122 155 194 241 300 364
#
# _framework density 23.572915999999999
#
# number of rings (size 3 to 8) (size 9 to 14) (size 15 to 20)
#    0.000    2.091    0.000    3.545    1.273    7.636 
#    0.000    1.818    0.000    1.636    0.000    6.364 
#    0.000    0.000    0.000    0.000    0.000    0.000 
#
# Total GULP energy -245944.060233 kJ/mol
# GULP energy per Si atom -5589.637733 kJ/mol
# Density = 2.351926 g / cm^3
# Si number density = 23.572916 Si / 1000 Ang^3
#
#
#
# Elastic Constant Matrix: (Units=GPa)
#
#
# Indices 1 2 3 4 5 6 
#
# 1 62.7464 24.8194 -8.7769 0.0000 0.0000 0.0000
# 2 24.8194 96.2635 -9.9782 0.0000 0.0000 0.0000
# 3 -8.7769 -9.9782 35.6479 0.0000 0.0000 0.0000
# 4 0.0000 0.0000 0.0000 21.0984 0.0000 0.0000
# 5 0.0000 0.0000 0.0000 0.0000 31.2637 0.0000
# 6 0.0000 0.0000 0.0000 0.0000 0.0000 37.9050
#
#
#
# Elastic Compliance Matrix: (Units=1/GPa)
#
#
# Indices 1 2 3 4 5 6 
#
# 1 0.018104 -0.004331 0.003245 0.000000 0.000000 0.000000
# 2 -0.004331 0.011735 0.002218 0.000000 0.000000 0.000000
# 3 0.003245 0.002218 0.029472 0.000000 0.000000 0.000000
# 4 0.000000 0.000000 0.000000 0.047397 0.000000 0.000000
# 5 0.000000 0.000000 0.000000 0.000000 0.031986 0.000000
# 6 0.000000 0.000000 0.000000 0.000000 0.000000 0.026382
#
#
# Mechanical properties :
#
#
# Convention : Reuss Voigt Hill
#
# Bulk Modulus (GPa) = 16.24035 22.97628 19.60831
# Shear Modulus (GPa) = 27.27214 30.62632 28.94923
#
# Velocity S-wave (km/s) = 3.40505 3.60837 3.50819
# Velocity P-wave (km/s) = 4.72901 5.20851 4.97454
#
# Compressibility (1/GPa) = 0.06157504
#
# Stress axis : x y z
#
# Youngs Moduli (GPa) = 55.23517 85.21623 33.93046
#
# Poissons Ratio (x) = 0.36911 -0.11011
# Poissons Ratio (y) = 0.23925 -0.07527
# Poissons Ratio (z) = -0.17924 -0.18903
#
# Static dielectric constant tensor:
#      x y z
#    x 1.875680 0.000000 0.000000 
#    y 0.000000 1.937310 0.000000 
#    z 0.000000 0.000000 1.853970 
# 
# From -- ./inp_files/11798.got.cif
#   From: 2010.05.17/outbox.cif.g08.bks.cpg/sg65_6_cif.got.tgz:11798.got - 2010.06.03 17:01:31.
