data_PCOD9492888
_publ_section_title
;
Structure prediction by ZEFSAII (Michael W. Deem and Ramdas Pophale) SiO2 
 PCOD9492888
Probable space group: C M M M
;
_chemical_formula_sum "Si O2"
_cell_formula_units_Z 88
_cell_length_a 23.313855
_cell_length_b 20.042363
_cell_length_c 10.297684
_cell_angle_alpha 90.000000
_cell_angle_beta 90.000000
_cell_angle_gamma 90.000000
_cell_volume 4811.744687
_symmetry_space_group_name_H-M "C M M M"
_symmetry_group_IT_number 65
_symmetry_cell_setting 'orthorhombic'
loop_
_space_group_symop_operation_xyz
x,y,z
-x,-y,z
x,-y,-z
-x,y,-z
-x,-y,-z
x,y,-z
-x,y,z
x,-y,z
1/2+x,1/2+y,z
1/2-x,1/2-y,z
1/2+x,1/2-y,-z
1/2-x,1/2+y,-z
1/2-x,1/2-y,-z
1/2+x,1/2+y,-z
1/2-x,1/2+y,z
1/2+x,1/2-y,z
loop_
_atom_site_type_symbol
_atom_site_label
_atom_site_fract_x
_atom_site_fract_y
_atom_site_fract_z
Si Si1 0.159038 0.296405 0.500000
Si Si2 0.099396 0.685644 0.774810
Si Si3 0.656647 0.576101 0.263272
Si Si4 0.935475 0.829608 0.150165
Si Si5 0.229157 0.071380 0.000000
Si Si6 0.194883 0.301617 0.000000
Si Si7 0.500000 0.079661 0.843660
Si Si8 0.287290 0.350602 0.500000
O O1 0.124268 0.314878 0.370440
O O2 0.220515 0.332765 0.500000
O O3 0.175801 0.217856 0.500000
O O4 0.065098 0.754118 0.799143
O O5 0.056880 0.622723 0.801331
O O6 0.153127 0.697324 0.874312
O O7 0.640465 0.500000 0.294065
O O8 0.603317 0.624290 0.239308
O O9 0.690467 0.576025 0.127532
O O10 0.695979 0.607153 0.374149
O O11 0.000000 0.855250 0.149167
O O12 0.914368 0.829556 0.000000
O O13 0.274659 0.128205 0.000000
O O14 0.258897 0.000000 0.000000
O O15 0.250000 0.250000 0.000000
O O16 0.500000 0.000000 0.803856
O O17 0.500000 0.080347 0.000000
#
# Coordination Sequence:
#
# PCOD9492888 Si02
#       8
#     8  16  16  16   8   8   8   8
#     4  11  26  39  67  96 130 167 226 263 331 387
#     4  12  23  43  65  99 134 169 217 278 324 391
#     4  11  22  40  61  88 128 171 212 262 324 382
#     4  11  21  37  64  94 127 163 214 269 325 378
#     4  10  22  38  57  86 122 161 210 260 314 380
#     4  12  24  35  65  95 130 167 220 273 331 387
#     4  11  24  47  75 103 134 175 220 274 344 404
#     4  11  23  42  61  92 129 177 210 268 319 401
#
# _framework density 18.288585000000001
#
# number of rings (size 3 to 8) (size 9 to 14) (size 15 to 20)
#    0.000    0.818    5.455    2.455    2.545    1.455 
#    0.000    5.000    0.000    1.091    0.000    0.000 
#    0.000    0.000    0.000    0.000    0.000    0.000 
#
# Total GULP energy -245494.315635 kJ/mol
# GULP energy per Si atom -5579.416264 kJ/mol
# Density = 1.824696 g / cm^3
# Si number density = 18.288585 Si / 1000 Ang^3
#
#
#
# Elastic Constant Matrix: (Units=GPa)
#
#
# Indices 1 2 3 4 5 6 
#
# 1 94.4942 58.9350 43.6353 0.0000 0.0000 0.0000
# 2 58.9350 136.0810 43.3261 0.0000 0.0000 0.0000
# 3 43.6353 43.3261 132.0095 0.0000 0.0000 0.0000
# 4 0.0000 0.0000 0.0000 30.2148 0.0000 0.0000
# 5 0.0000 0.0000 0.0000 0.0000 63.3597 0.0000
# 6 0.0000 0.0000 0.0000 0.0000 0.0000 26.8050
#
#
#
# Elastic Compliance Matrix: (Units=1/GPa)
#
#
# Indices 1 2 3 4 5 6 
#
# 1 0.015689 -0.005744 -0.003301 0.000000 0.000000 0.000000
# 2 -0.005744 0.010309 -0.001485 0.000000 0.000000 0.000000
# 3 -0.003301 -0.001485 0.009154 0.000000 0.000000 0.000000
# 4 0.000000 0.000000 0.000000 0.033096 0.000000 0.000000
# 5 0.000000 0.000000 0.000000 0.000000 0.015783 0.000000
# 6 0.000000 0.000000 0.000000 0.000000 0.000000 0.037306
#
#
# Mechanical properties :
#
#
# Convention : Reuss Voigt Hill
#
# Bulk Modulus (GPa) = 70.95872 72.70859 71.83366
# Shear Modulus (GPa) = 33.99178 38.52178 36.25678
#
# Velocity S-wave (km/s) = 4.31586 4.59446 4.45734
# Velocity P-wave (km/s) = 7.98244 8.24548 8.11502
#
# Compressibility (1/GPa) = 0.01409270
#
# Stress axis : x y z
#
# Youngs Moduli (GPa) = 63.73756 97.00341 109.24635
#
# Poissons Ratio (x) = 0.55718 0.36061
# Poissons Ratio (y) = 0.36610 0.16221
# Poissons Ratio (z) = 0.21039 0.14403
#
# Static dielectric constant tensor:
#      x y z
#    x 1.687660 0.000000 0.000000 
#    y 0.000000 1.630370 0.000000 
#    z 0.000000 0.000000 1.637270 
# 
# From -- ./inp_files/14102.got.cif
#   From: 2010.05.17/outbox.cif.g08.bks.cpg/sg65_8_cif.got.tgz:14102.got - 2010.06.03 17:01:31.
