data_PCOD9492953
_publ_section_title
;
Structure prediction by ZEFSAII (Michael W. Deem and Ramdas Pophale) SiO2 
 PCOD9492953
Probable space group: C M M M
;
_chemical_formula_sum "Si O2"
_cell_formula_units_Z 112
_cell_length_a 22.922488
_cell_length_b 14.473479
_cell_length_c 17.347701
_cell_angle_alpha 90.000000
_cell_angle_beta 90.000000
_cell_angle_gamma 90.000000
_cell_volume 5755.414645
_symmetry_space_group_name_H-M "C M M M"
_symmetry_group_IT_number 65
_symmetry_cell_setting 'orthorhombic'
loop_
_space_group_symop_operation_xyz
x,y,z
-x,-y,z
x,-y,-z
-x,y,-z
-x,-y,-z
x,y,-z
-x,y,z
x,-y,z
1/2+x,1/2+y,z
1/2-x,1/2-y,z
1/2+x,1/2-y,-z
1/2-x,1/2+y,-z
1/2-x,1/2-y,-z
1/2+x,1/2+y,-z
1/2-x,1/2+y,z
1/2+x,1/2-y,z
loop_
_atom_site_type_symbol
_atom_site_label
_atom_site_fract_x
_atom_site_fract_y
_atom_site_fract_z
Si Si1 0.892960 0.605196 0.648334
Si Si2 0.067474 0.210677 0.586710
Si Si3 0.068775 0.608179 0.825284
Si Si4 0.842437 0.101272 0.313899
Si Si5 0.766010 0.641816 0.411692
Si Si6 0.169646 0.703621 0.910730
Si Si7 0.284240 0.389198 0.851034
O O1 0.907140 0.500000 0.628141
O O2 0.925167 0.679770 0.595953
O O3 0.911324 0.620543 0.736776
O O4 0.823831 0.620748 0.636672
O O5 0.086584 0.183332 0.500000
O O6 0.108912 0.168053 0.651742
O O7 0.000000 0.184620 0.596342
O O8 0.079005 0.500000 0.845044
O O9 0.107283 0.673101 0.879111
O O10 0.000000 0.626352 0.831082
O O11 0.790759 0.096643 0.375848
O O12 0.810500 0.126940 0.234303
O O13 0.868979 0.000000 0.303064
O O14 0.776979 0.615118 0.500000
O O15 0.750000 0.750000 0.409705
O O16 0.217839 0.646507 0.861200
O O17 0.181239 0.813390 0.901941
O O18 0.177469 0.678261 0.000000
O O19 0.288198 0.500000 0.867645
#
# Coordination Sequence:
#
# PCOD9492953 Si02
#       7
#    16  16  16  16  16  16  16
#     4  11  22  38  60  85 117 158 200 244 297 355
#     4  11  24  40  58  83 117 157 202 254 305 350
#     4  10  22  40  62  89 121 158 201 248 293 344
#     4  11  23  39  61  85 112 153 201 248 297 352
#     4  11  22  35  55  84 117 153 191 241 303 353
#     4  11  23  38  63  95 125 159 192 232 293 362
#     4  10  22  39  60  90 124 158 197 242 294 353
#
# _framework density 19.459935000000002
#
# number of rings (size 3 to 8) (size 9 to 14) (size 15 to 20)
#    0.000    1.286    1.429    4.714    2.000    8.571 
#    0.000    2.143    0.000    1.286    0.000    1.000 
#    0.000    0.000    0.000    0.000    0.000    0.000 
#
# Total GULP energy -312795.123822 kJ/mol
# GULP energy per Si atom -5585.627211 kJ/mol
# Density = 1.941564 g / cm^3
# Si number density = 19.459935 Si / 1000 Ang^3
#
#
#
# Elastic Constant Matrix: (Units=GPa)
#
#
# Indices 1 2 3 4 5 6 
#
# 1 103.0745 41.2380 45.3645 0.0000 0.0000 0.0000
# 2 41.2380 86.6658 50.4772 0.0000 0.0000 0.0000
# 3 45.3645 50.4772 79.8562 0.0000 0.0000 0.0000
# 4 0.0000 0.0000 0.0000 -45.2474 0.0000 0.0000
# 5 0.0000 0.0000 0.0000 0.0000 10.3989 0.0000
# 6 0.0000 0.0000 0.0000 0.0000 0.0000 11.4450
#
#
#
# Elastic Compliance Matrix: (Units=1/GPa)
#
#
# Indices 1 2 3 4 5 6 
#
# 1 0.013437 -0.003083 -0.005685 0.000000 0.000000 0.000000
# 2 -0.003083 0.018969 -0.010239 0.000000 0.000000 0.000000
# 3 -0.005685 -0.010239 0.022224 0.000000 0.000000 0.000000
# 4 0.000000 0.000000 0.000000 -0.022101 0.000000 0.000000
# 5 0.000000 0.000000 0.000000 0.000000 0.096164 0.000000
# 6 0.000000 0.000000 0.000000 0.000000 0.000000 0.087375
#
#
# Mechanical properties :
#
#
# Convention : Reuss Voigt Hill
#
# Bulk Modulus (GPa) = 60.17936 60.41734 60.29835
# Shear Modulus (GPa) = 19.25892 4.15374 11.70633
#
# Velocity S-wave (km/s) = 3.14932 1.46258 2.45533
# Velocity P-wave (km/s) = 6.64952 5.82809 6.25231
#
# Compressibility (1/GPa) = 0.01661699
#
# Stress axis : x y z
#
# Youngs Moduli (GPa) = 74.42171 52.71737 44.99644
#
# Poissons Ratio (x) = 0.16251 0.25579
# Poissons Ratio (y) = 0.22942 0.46072
# Poissons Ratio (z) = 0.42306 0.53978
#
# Static dielectric constant tensor:
#      x y z
#    x 1.656560 0.000000 0.000000 
#    y 0.000000 1.772470 0.000000 
#    z 0.000000 0.000000 1.676120 
# 
# From -- ./inp_files/45738.got.cif
#   From: 2010.05.17/outbox.cif.g08.bks.cpg/sg65_23_cif.got.tgz:45738.got - 2010.06.03 17:01:31.
