data_PCOD9492898
_publ_section_title
;
Structure prediction by ZEFSAII (Michael W. Deem and Ramdas Pophale) SiO2 
 PCOD9492898
Probable space group: C M M M
;
_chemical_formula_sum "Si O2"
_cell_formula_units_Z 56
_cell_length_a 28.767107
_cell_length_b 10.950289
_cell_length_c 8.467050
_cell_angle_alpha 90.000000
_cell_angle_beta 90.000000
_cell_angle_gamma 90.000000
_cell_volume 2667.189632
_symmetry_space_group_name_H-M "C M M M"
_symmetry_group_IT_number 65
_symmetry_cell_setting 'orthorhombic'
loop_
_space_group_symop_operation_xyz
x,y,z
-x,-y,z
x,-y,-z
-x,y,-z
-x,-y,-z
x,y,-z
-x,y,z
x,-y,z
1/2+x,1/2+y,z
1/2-x,1/2-y,z
1/2+x,1/2-y,-z
1/2-x,1/2+y,-z
1/2-x,1/2-y,-z
1/2+x,1/2+y,-z
1/2-x,1/2+y,z
1/2+x,1/2-y,z
loop_
_atom_site_type_symbol
_atom_site_label
_atom_site_fract_x
_atom_site_fract_y
_atom_site_fract_z
Si Si1 0.304371 0.716497 0.825497
Si Si2 0.608810 0.866708 0.184947
Si Si3 0.445884 0.634215 0.310166
Si Si4 0.783219 0.131545 0.500000
O O1 0.250000 0.750000 0.830845
O O2 0.336440 0.835645 0.806017
O O3 0.311272 0.640849 0.664423
O O4 0.316140 0.663431 0.000000
O O5 0.582680 0.750681 0.254972
O O6 0.598521 0.000000 0.255336
O O7 0.596797 0.870841 0.000000
O O8 0.444646 0.632329 0.500000
O O9 0.500000 0.646563 0.262464
O O10 0.429284 0.500000 0.253807
O O11 0.750000 0.250000 0.500000
O O12 0.758543 0.000000 0.500000
#
# Coordination Sequence:
#
# PCOD9492898 Si02
#       4
#    16  16  16   8
#     4   9  20  39  60  84 121 166 206 249 302 361
#     4  10  22  39  60  90 124 157 199 254 313 367
#     4   9  20  40  63  87 119 159 201 247 302 367
#     4  10  22  38  58  86 115 152 205 256 304 363
#
# _framework density 20.995882000000002
#
# number of rings (size 3 to 8) (size 9 to 14) (size 15 to 20)
#    0.000    2.571    0.000    0.857    2.000    8.571 
#    0.000   12.857    0.000    0.000    0.000    0.000 
#    0.000    0.000    0.000    0.000    0.000    0.000 
#
# Total GULP energy -155959.391383 kJ/mol
# GULP energy per Si atom -5569.978264 kJ/mol
# Density = 2.094809 g / cm^3
# Si number density = 20.995882 Si / 1000 Ang^3
#
#
#
# Elastic Constant Matrix: (Units=GPa)
#
#
# Indices 1 2 3 4 5 6 
#
# 1 71.6510 72.1535 8.9143 0.0000 0.0000 0.0000
# 2 72.1535 207.2724 39.8736 0.0000 0.0000 0.0000
# 3 8.9143 39.8736 113.3842 0.0000 0.0000 0.0000
# 4 0.0000 0.0000 0.0000 20.2396 0.0000 0.0000
# 5 0.0000 0.0000 0.0000 0.0000 22.1296 0.0000
# 6 0.0000 0.0000 0.0000 0.0000 0.0000 16.8549
#
#
#
# Elastic Compliance Matrix: (Units=1/GPa)
#
#
# Indices 1 2 3 4 5 6 
#
# 1 0.021598 -0.007714 0.001015 0.000000 0.000000 0.000000
# 2 -0.007714 0.007930 -0.002182 0.000000 0.000000 0.000000
# 3 0.001015 -0.002182 0.009507 0.000000 0.000000 0.000000
# 4 0.000000 0.000000 0.000000 0.049408 0.000000 0.000000
# 5 0.000000 0.000000 0.000000 0.000000 0.045188 0.000000
# 6 0.000000 0.000000 0.000000 0.000000 0.000000 0.059330
#
#
# Mechanical properties :
#
#
# Convention : Reuss Voigt Hill
#
# Bulk Modulus (GPa) = 47.00920 70.46561 58.73740
# Shear Modulus (GPa) = 22.95532 29.93590 26.44561
#
# Velocity S-wave (km/s) = 3.31013 3.78007 3.55288
# Velocity P-wave (km/s) = 6.08668 7.25854 6.69829
#
# Compressibility (1/GPa) = 0.02127243
#
# Stress axis : x y z
#
# Youngs Moduli (GPa) = 46.30040 126.11050 105.18365
#
# Poissons Ratio (x) = 0.97278 -0.10672
# Poissons Ratio (y) = 0.35715 0.22952
# Poissons Ratio (z) = -0.04698 0.27519
#
# Static dielectric constant tensor:
#      x y z
#    x 1.814050 0.000000 0.000000 
#    y 0.000000 1.783670 0.000000 
#    z 0.000000 0.000000 1.810310 
# 
# From -- ./inp_files/17703.got.cif
#   From: 2010.05.17/outbox.cif.g08.bks.cpg/sg65_9_cif.got.tgz:17703.got - 2010.06.03 17:01:31.
