data_PCOD9492845
_publ_section_title
;
Structure prediction by ZEFSAII (Michael W. Deem and Ramdas Pophale) SiO2 
 PCOD9492845
Probable space group: C M M M
;
_chemical_formula_sum "Si O2"
_cell_formula_units_Z 66
_cell_length_a 14.964297
_cell_length_b 9.301783
_cell_length_c 25.757069
_cell_angle_alpha 90.000000
_cell_angle_beta 90.000000
_cell_angle_gamma 90.000000
_cell_volume 3585.246036
_symmetry_space_group_name_H-M "C M M M"
_symmetry_group_IT_number 65
_symmetry_cell_setting 'orthorhombic'
loop_
_space_group_symop_operation_xyz
x,y,z
-x,-y,z
x,-y,-z
-x,y,-z
-x,-y,-z
x,y,-z
-x,y,z
x,-y,z
1/2+x,1/2+y,z
1/2-x,1/2-y,z
1/2+x,1/2-y,-z
1/2-x,1/2+y,-z
1/2-x,1/2-y,-z
1/2+x,1/2+y,-z
1/2-x,1/2+y,z
1/2+x,1/2-y,z
loop_
_atom_site_type_symbol
_atom_site_label
_atom_site_fract_x
_atom_site_fract_y
_atom_site_fract_z
Si Si1 0.500000 0.830187 0.776898
Si Si2 0.654167 0.827997 0.861411
Si Si3 0.161661 0.335040 0.614609
Si Si4 0.100253 0.705985 0.500000
Si Si5 0.000000 0.000000 0.500000
Si Si6 0.000000 0.324926 0.940367
Si Si7 0.500000 0.672144 0.331413
O O1 0.588658 0.805204 0.811877
O O2 0.500000 0.728128 0.727407
O O3 0.500000 0.000000 0.762182
O O4 0.750000 0.750000 0.859022
O O5 0.589930 0.781486 0.909448
O O6 0.669088 0.000000 0.865472
O O7 0.160355 0.500000 0.632920
O O8 0.250000 0.250000 0.628817
O O9 0.149748 0.334987 0.552465
O O10 0.082881 0.242363 0.639035
O O11 0.000000 0.643137 0.500000
O O12 0.077451 0.874636 0.500000
O O13 0.000000 0.500000 0.938951
O O14 0.000000 0.278215 0.000000
O O15 0.500000 0.500000 0.335340
#
# Coordination Sequence:
#
# PCOD9492845 Si02
#       7
#     8  16  16   8   2   8   8
#     4   9  20  40  60  77 108 150 192 233 288 347
#     4   9  18  33  56  83 110 148 193 239 284 336
#     4  12  26  42  65  90 120 153 193 233 284 344
#     4  10  22  37  66  87 120 152 194 225 284 333
#     4   8  20  32  62  84 112 154 182 224 272 324
#     4   8  15  30  51  78 116 159 196 227 274 339
#     4  12  26  43  63  88 120 149 189 239 297 350
#
# _framework density 18.408777000000001
#
# number of rings (size 3 to 8) (size 9 to 14) (size 15 to 20)
#    0.364    1.576    1.212    4.000    5.091    2.909 
#    0.000    4.242    0.000    0.727    0.000    0.000 
#    0.000    0.000    0.000    0.000    0.000    0.000 
#
# Total GULP energy -183824.323916 kJ/mol
# GULP energy per Si atom -5570.434058 kJ/mol
# Density = 1.836688 g / cm^3
# Si number density = 18.408777 Si / 1000 Ang^3
#
#
#
# Elastic Constant Matrix: (Units=GPa)
#
#
# Indices 1 2 3 4 5 6 
#
# 1 186.2998 77.4646 55.0807 0.0000 0.0000 0.0000
# 2 77.4646 155.2413 54.2011 0.0000 0.0000 0.0000
# 3 55.0807 54.2011 99.6661 0.0000 0.0000 0.0000
# 4 0.0000 0.0000 0.0000 27.2205 0.0000 0.0000
# 5 0.0000 0.0000 0.0000 0.0000 17.6633 0.0000
# 6 0.0000 0.0000 0.0000 0.0000 0.0000 47.7117
#
#
#
# Elastic Compliance Matrix: (Units=1/GPa)
#
#
# Indices 1 2 3 4 5 6 
#
# 1 0.007251 -0.002739 -0.002518 0.000000 0.000000 0.000000
# 2 -0.002739 0.008986 -0.003373 0.000000 0.000000 0.000000
# 3 -0.002518 -0.003373 0.013259 0.000000 0.000000 0.000000
# 4 0.000000 0.000000 0.000000 0.036737 0.000000 0.000000
# 5 0.000000 0.000000 0.000000 0.000000 0.056615 0.000000
# 6 0.000000 0.000000 0.000000 0.000000 0.000000 0.020959
#
#
# Mechanical properties :
#
#
# Convention : Reuss Voigt Hill
#
# Bulk Modulus (GPa) = 81.72232 90.52221 86.12227
# Shear Modulus (GPa) = 30.27628 35.48317 32.87972
#
# Velocity S-wave (km/s) = 4.05985 4.39511 4.23080
# Velocity P-wave (km/s) = 8.15267 8.66234 8.41136
#
# Compressibility (1/GPa) = 0.01223656
#
# Stress axis : x y z
#
# Youngs Moduli (GPa) = 137.91147 111.28286 75.41916
#
# Poissons Ratio (x) = 0.30483 0.18988
# Poissons Ratio (y) = 0.37777 0.25439
# Poissons Ratio (z) = 0.34721 0.37536
#
# Static dielectric constant tensor:
#      x y z
#    x 1.593190 0.000000 0.000000 
#    y 0.000000 1.620870 0.000000 
#    z 0.000000 0.000000 1.647820 
# 
# From -- ./inp_files/74575.got.cif
#   From: 2010.05.17/outbox.cif.g08.bks.cpg/sg65_38_cif.got.tgz:74575.got - 2010.06.03 17:01:31.
