data_PCOD9492063
_publ_section_title
;
Structure prediction by ZEFSAII (Michael W. Deem and Ramdas Pophale) SiO2 
 PCOD9492063
Probable space group: C M M M
;
_chemical_formula_sum "Si O2"
_cell_formula_units_Z 104
_cell_length_a 8.978652
_cell_length_b 27.309493
_cell_length_c 21.332345
_cell_angle_alpha 90.000000
_cell_angle_beta 90.000000
_cell_angle_gamma 90.000000
_cell_volume 5230.742916
_symmetry_space_group_name_H-M "C M M M"
_symmetry_group_IT_number 65
_symmetry_cell_setting 'orthorhombic'
loop_
_space_group_symop_operation_xyz
x,y,z
-x,-y,z
x,-y,-z
-x,y,-z
-x,-y,-z
x,y,-z
-x,y,z
x,-y,z
1/2+x,1/2+y,z
1/2-x,1/2-y,z
1/2+x,1/2-y,-z
1/2-x,1/2+y,-z
1/2-x,1/2-y,-z
1/2+x,1/2+y,-z
1/2-x,1/2+y,z
1/2+x,1/2-y,z
loop_
_atom_site_type_symbol
_atom_site_label
_atom_site_fract_x
_atom_site_fract_y
_atom_site_fract_z
Si Si1 0.321173 0.445894 0.620861
Si Si2 0.167840 0.557943 0.000000
Si Si3 0.822012 0.199422 0.072731
Si Si4 0.822240 0.407303 0.746212
Si Si5 0.177565 0.699858 0.304996
Si Si6 0.321884 0.596348 0.875395
Si Si7 0.179177 0.840158 0.570284
O O1 0.500000 0.445058 0.628750
O O2 0.280671 0.500000 0.596199
O O3 0.245029 0.436890 0.687946
O O4 0.284230 0.398008 0.579799
O O5 0.256172 0.572602 0.937813
O O6 0.155234 0.500000 0.000000
O O7 0.000000 0.579366 0.000000
O O8 0.750000 0.250000 0.092958
O O9 0.783297 0.153745 0.115780
O O10 0.000000 0.204298 0.072523
O O11 0.776090 0.189671 0.000000
O O12 0.785897 0.349814 0.733015
O O13 0.750967 0.422610 0.811852
O O14 0.000000 0.412469 0.747651
O O15 0.250000 0.750000 0.280800
O O16 0.239960 0.689238 0.374814
O O17 0.000000 0.705076 0.306551
O O18 0.500000 0.591065 0.873704
O O19 0.220151 0.824954 0.500000
O O20 0.000000 0.835024 0.577504
#
# Coordination Sequence:
#
# PCOD9492063 Si02
#       7
#    16   8  16  16  16  16  16
#     4   9  18  34  56  81 109 143 183 226 276 331
#     4  11  25  43  62  85 112 143 182 229 280 333
#     4   9  18  33  52  78 108 137 170 207 253 312
#     4  10  22  38  56  81 110 143 185 230 277 328
#     4  10  21  37  57  80 111 150 191 233 276 324
#     4  11  22  39  61  84 112 145 183 226 275 331
#     4   9  18  33  54  82 115 148 184 228 276 327
#
# _framework density 19.882453999999999
#
# number of rings (size 3 to 8) (size 9 to 14) (size 15 to 20)
#    0.000    2.231    0.769    1.615    0.000    6.154 
#    0.000    4.615    0.000    0.000    0.000    4.308 
#    0.000    0.000    0.000    0.000    0.000    0.000 
#
# Total GULP energy -290351.305956 kJ/mol
# GULP energy per Si atom -5583.678961 kJ/mol
# Density = 1.983720 g / cm^3
# Si number density = 19.882454 Si / 1000 Ang^3
#
#
#
# Elastic Constant Matrix: (Units=GPa)
#
#
# Indices 1 2 3 4 5 6 
#
# 1 15.2197 9.4525 13.2103 0.0000 0.0000 0.0000
# 2 9.4525 46.5718 -18.0299 0.0000 0.0000 0.0000
# 3 13.2103 -18.0299 76.2723 0.0000 0.0000 0.0000
# 4 0.0000 0.0000 0.0000 0.7208 0.0000 0.0000
# 5 0.0000 0.0000 0.0000 0.0000 22.8737 0.0000
# 6 0.0000 0.0000 0.0000 0.0000 0.0000 24.5263
#
#
#
# Elastic Compliance Matrix: (Units=1/GPa)
#
#
# Indices 1 2 3 4 5 6 
#
# 1 0.108765 -0.032327 -0.026480 0.000000 0.000000 0.000000
# 2 -0.032327 0.033243 0.013457 0.000000 0.000000 0.000000
# 3 -0.026480 0.013457 0.020878 0.000000 0.000000 0.000000
# 4 0.000000 0.000000 0.000000 1.387268 0.000000 0.000000
# 5 0.000000 0.000000 0.000000 0.000000 0.043718 0.000000
# 6 0.000000 0.000000 0.000000 0.000000 0.000000 0.040773
#
#
# Mechanical properties :
#
#
# Convention : Reuss Voigt Hill
#
# Bulk Modulus (GPa) = 13.85269 16.36995 15.11132
# Shear Modulus (GPa) = 2.85811 18.51956 10.68884
#
# Velocity S-wave (km/s) = 1.20026 3.05528 2.32114
# Velocity P-wave (km/s) = 2.98383 4.54946 3.84713
#
# Compressibility (1/GPa) = 0.07218813
#
# Stress axis : x y z
#
# Youngs Moduli (GPa) = 9.19413 30.08123 47.89655
#
# Poissons Ratio (x) = 0.97243 1.26829
# Poissons Ratio (y) = 0.29722 -0.64456
# Poissons Ratio (z) = 0.24346 -0.40481
#
# Static dielectric constant tensor:
#      x y z
#    x 1.678000 0.000000 0.000000 
#    y 0.000000 1.721790 0.000000 
#    z 0.000000 0.000000 1.686940 
# 
# From -- ./inp_files/60781.got.cif
#   From: 2010.05.17/outbox.cif.g08.bks.cpg/sg65_31_cif.got.tgz:60781.got - 2010.06.03 17:01:31.
