data_PCOD9492312
_publ_section_title
;
Structure prediction by ZEFSAII (Michael W. Deem and Ramdas Pophale) SiO2 
 PCOD9492312
Probable space group: C M M M
;
_chemical_formula_sum "Si O2"
_cell_formula_units_Z 80
_cell_length_a 19.678341
_cell_length_b 17.747594
_cell_length_c 13.001790
_cell_angle_alpha 90.000000
_cell_angle_beta 90.000000
_cell_angle_gamma 90.000000
_cell_volume 4540.786832
_symmetry_space_group_name_H-M "C M M M"
_symmetry_group_IT_number 65
_symmetry_cell_setting 'orthorhombic'
loop_
_space_group_symop_operation_xyz
x,y,z
-x,-y,z
x,-y,-z
-x,y,-z
-x,-y,-z
x,y,-z
-x,y,z
x,-y,z
1/2+x,1/2+y,z
1/2-x,1/2-y,z
1/2+x,1/2-y,-z
1/2-x,1/2+y,-z
1/2-x,1/2-y,-z
1/2+x,1/2+y,-z
1/2-x,1/2+y,z
1/2+x,1/2-y,z
loop_
_atom_site_type_symbol
_atom_site_label
_atom_site_fract_x
_atom_site_fract_y
_atom_site_fract_z
Si Si1 0.725019 0.086921 0.888523
Si Si2 0.422944 0.386049 0.500000
Si Si3 0.575112 0.289358 0.292492
Si Si4 0.198923 0.319241 0.308435
Si Si5 0.389035 0.586711 0.119127
Si Si6 0.739209 0.586831 0.500000
O O1 0.696974 0.130898 0.792876
O O2 0.806997 0.087490 0.881535
O O3 0.703954 0.000000 0.885095
O O4 0.706015 0.119372 0.000000
O O5 0.500000 0.422816 0.500000
O O6 0.423743 0.338814 0.604451
O O7 0.344075 0.416484 0.500000
O O8 0.500000 0.258628 0.274792
O O9 0.626989 0.222142 0.315962
O O10 0.590305 0.347880 0.198679
O O11 0.250000 0.250000 0.292618
O O12 0.229989 0.368364 0.401916
O O13 0.409713 0.500000 0.148218
O O14 0.411128 0.599185 0.000000
O O15 0.762213 0.500000 0.500000
#
# Coordination Sequence:
#
# PCOD9492312 Si02
#       6
#    16   8  16  16  16   8
#     4   9  18  33  55  84 114 144 184 234 282 328
#     4  10  21  38  56  83 120 150 173 210 270 338
#     4  11  23  37  55  81 116 152 185 229 284 330
#     4  12  21  36  60  84 111 146 190 235 276 323
#     4   9  18  34  55  81 115 152 188 224 268 332
#     4  12  24  39  62  87 112 146 188 228 273 330
#
# _framework density 17.618092000000001
#
# number of rings (size 3 to 8) (size 9 to 14) (size 15 to 20)
#    0.000    1.600    4.000    2.700    0.000    4.600 
#    0.000    3.000    0.000    3.000    0.000    1.400 
#    0.000    0.000    0.000    0.000    0.000    0.000 
#
# Total GULP energy -222726.640641 kJ/mol
# GULP energy per Si atom -5568.166016 kJ/mol
# Density = 1.757799 g / cm^3
# Si number density = 17.618092 Si / 1000 Ang^3
#
#
#
# Elastic Constant Matrix: (Units=GPa)
#
#
# Indices 1 2 3 4 5 6 
#
# 1 92.7692 45.0519 27.2662 0.0000 0.0000 0.0000
# 2 45.0519 83.3917 55.0262 0.0000 0.0000 0.0000
# 3 27.2662 55.0262 124.2073 0.0000 0.0000 0.0000
# 4 0.0000 0.0000 0.0000 -67.7878 0.0000 0.0000
# 5 0.0000 0.0000 0.0000 0.0000 17.9060 0.0000
# 6 0.0000 0.0000 0.0000 0.0000 0.0000 -22.5679
#
#
#
# Elastic Compliance Matrix: (Units=1/GPa)
#
#
# Indices 1 2 3 4 5 6 
#
# 1 0.014628 -0.008173 0.000410 0.000000 0.000000 0.000000
# 2 -0.008173 0.021512 -0.007736 0.000000 0.000000 0.000000
# 3 0.000410 -0.007736 0.011388 0.000000 0.000000 0.000000
# 4 0.000000 0.000000 0.000000 -0.014752 0.000000 0.000000
# 5 0.000000 0.000000 0.000000 0.000000 0.055847 0.000000
# 6 0.000000 0.000000 0.000000 0.000000 0.000000 -0.044311
#
#
# Mechanical properties :
#
#
# Convention : Reuss Voigt Hill
#
# Bulk Modulus (GPa) = 60.49834 61.67300 61.08567
# Shear Modulus (GPa) = 61.86502 -2.95502 29.45500
#
# Velocity S-wave (km/s) = 5.93218 -1.29650 4.09328
# Velocity P-wave (km/s) = 9.01855 5.73064 7.55561
#
# Compressibility (1/GPa) = 0.01652938
#
# Stress axis : x y z
#
# Youngs Moduli (GPa) = 68.36128 46.48656 87.80951
#
# Poissons Ratio (x) = 0.37994 -0.03597
# Poissons Ratio (y) = 0.55872 0.67928
# Poissons Ratio (z) = -0.02800 0.35961
#
# Static dielectric constant tensor:
#      x y z
#    x 1.622890 0.000000 0.000000 
#    y 0.000000 1.587800 0.000000 
#    z 0.000000 0.000000 1.607170 
# 
# From -- ./inp_files/28595.got.cif
#   From: 2010.05.17/outbox.cif.g08.bks.cpg/sg65_15_cif.got.tgz:28595.got - 2010.06.03 17:01:31.
