data_PCOD9492319
_publ_section_title
;
Structure prediction by ZEFSAII (Michael W. Deem and Ramdas Pophale) SiO2 
 PCOD9492319
Probable space group: C M M M
;
_chemical_formula_sum "Si O2"
_cell_formula_units_Z 104
_cell_length_a 9.130219
_cell_length_b 25.835713
_cell_length_c 30.937785
_cell_angle_alpha 90.000000
_cell_angle_beta 90.000000
_cell_angle_gamma 90.000000
_cell_volume 7297.781619
_symmetry_space_group_name_H-M "C M M M"
_symmetry_group_IT_number 65
_symmetry_cell_setting 'orthorhombic'
loop_
_space_group_symop_operation_xyz
x,y,z
-x,-y,z
x,-y,-z
-x,y,-z
-x,-y,-z
x,y,-z
-x,y,z
x,-y,z
1/2+x,1/2+y,z
1/2-x,1/2-y,z
1/2+x,1/2-y,-z
1/2-x,1/2+y,-z
1/2-x,1/2-y,-z
1/2+x,1/2+y,-z
1/2-x,1/2+y,z
1/2+x,1/2-y,z
loop_
_atom_site_type_symbol
_atom_site_label
_atom_site_fract_x
_atom_site_fract_y
_atom_site_fract_z
Si Si1 0.824771 0.937840 0.182471
Si Si2 0.324054 0.097977 0.903130
Si Si3 0.669408 0.437129 0.720420
Si Si4 0.326695 0.694950 0.051570
Si Si5 0.831056 0.563096 0.365896
Si Si6 0.827949 0.000000 0.948134
Si Si7 0.671923 0.562794 0.452604
O O1 0.732236 0.909924 0.145774
O O2 0.782212 0.921950 0.231338
O O3 0.000000 0.928875 0.177285
O O4 0.803027 0.000000 0.178222
O O5 0.500000 0.097084 0.905778
O O6 0.257030 0.150123 0.922979
O O7 0.253086 0.050239 0.929534
O O8 0.500000 0.422298 0.715237
O O9 0.673950 0.500000 0.720467
O O10 0.758617 0.419041 0.678861
O O11 0.500000 0.696050 0.062156
O O12 0.250000 0.750000 0.060041
O O13 0.314671 0.684861 0.000000
O O14 0.821173 0.500000 0.365821
O O15 0.752990 0.581343 0.409727
O O16 0.000000 0.577171 0.366915
O O17 0.000000 0.000000 0.934821
O O18 0.822868 0.000000 0.000000
O O19 0.727004 0.580108 0.500000
O O20 0.500000 0.575186 0.449685
O O21 0.682602 0.500000 0.452564
#
# Coordination Sequence:
#
# PCOD9492319 Si02
#       7
#    16  16  16  16  16   8  16
#     4   9  17  30  46  61  82 112 142 171 206 250
#     4  12  23  33  49  73  97 120 145 177 216 258
#     4   8  14  24  37  50  64  90 124 155 188 232
#     4  10  21  38  58  76  94 118 147 179 213 250
#     4   9  15  20  27  41  59  79 104 141 187 232
#     4  11  23  37  51  67  91 123 153 179 210 251
#     4   8  13  20  28  36  48  70 101 138 180 228
#
# _framework density 14.250907
#
# number of rings (size 3 to 8) (size 9 to 14) (size 15 to 20)
#    0.000    2.538    0.769    4.385    0.000    6.154 
#    0.000    3.077    0.000    0.000    0.000    0.000 
#    0.000    0.000    0.000    0.000    0.000    0.000 
#
# Total GULP energy -289668.421038 kJ/mol
# GULP energy per Si atom -5570.546558 kJ/mol
# Density = 1.421847 g / cm^3
# Si number density = 14.250907 Si / 1000 Ang^3
#
#
#
# Elastic Constant Matrix: (Units=GPa)
#
#
# Indices 1 2 3 4 5 6 
#
# 1 109.8996 40.8631 86.4783 0.0000 0.0000 0.0000
# 2 40.8631 48.0639 45.5263 0.0000 0.0000 0.0000
# 3 86.4783 45.5263 140.2584 0.0000 0.0000 0.0000
# 4 0.0000 0.0000 0.0000 -23.4579 0.0000 0.0000
# 5 0.0000 0.0000 0.0000 0.0000 7.7266 0.0000
# 6 0.0000 0.0000 0.0000 0.0000 0.0000 13.8947
#
#
#
# Elastic Compliance Matrix: (Units=1/GPa)
#
#
# Indices 1 2 3 4 5 6 
#
# 1 0.019356 -0.007439 -0.009520 0.000000 0.000000 0.000000
# 2 -0.007439 0.032901 -0.006093 0.000000 0.000000 0.000000
# 3 -0.009520 -0.006093 0.014977 0.000000 0.000000 0.000000
# 4 0.000000 0.000000 0.000000 -0.042629 0.000000 0.000000
# 5 0.000000 0.000000 0.000000 0.000000 0.129424 0.000000
# 6 0.000000 0.000000 0.000000 0.000000 0.000000 0.071970
#
#
# Mechanical properties :
#
#
# Convention : Reuss Voigt Hill
#
# Bulk Modulus (GPa) = 47.32327 71.55080 59.43704
# Shear Modulus (GPa) = 17.91183 7.98960 12.95072
#
# Velocity S-wave (km/s) = 3.54911 2.37035 3.01784
# Velocity P-wave (km/s) = 7.07631 7.60318 7.34447
#
# Compressibility (1/GPa) = 0.02113125
#
# Stress axis : x y z
#
# Youngs Moduli (GPa) = 51.66330 30.39390 66.77025
#
# Poissons Ratio (x) = 0.22611 0.63562
# Poissons Ratio (y) = 0.38434 0.40681
# Poissons Ratio (z) = 0.49181 0.18518
#
# Static dielectric constant tensor:
#      x y z
#    x 1.471650 0.000000 0.000000 
#    y 0.000000 1.433410 0.000000 
#    z 0.000000 0.000000 1.496720 
# 
# From -- ./inp_files/77108.got.cif
#   From: 2010.05.17/outbox.cif.g08.bks.cpg/sg65_39_cif.got.tgz:77108.got - 2010.06.03 17:01:31.
