data_PCOD9492610
_publ_section_title
;
Structure prediction by ZEFSAII (Michael W. Deem and Ramdas Pophale) SiO2 
 PCOD9492610
Probable space group: C M M M
;
_chemical_formula_sum "Si O2"
_cell_formula_units_Z 90
_cell_length_a 23.724306
_cell_length_b 8.565631
_cell_length_c 23.509042
_cell_angle_alpha 90.000000
_cell_angle_beta 90.000000
_cell_angle_gamma 90.000000
_cell_volume 4777.358255
_symmetry_space_group_name_H-M "C M M M"
_symmetry_group_IT_number 65
_symmetry_cell_setting 'orthorhombic'
loop_
_space_group_symop_operation_xyz
x,y,z
-x,-y,z
x,-y,-z
-x,y,-z
-x,-y,-z
x,y,-z
-x,y,z
x,-y,z
1/2+x,1/2+y,z
1/2-x,1/2-y,z
1/2+x,1/2-y,-z
1/2-x,1/2+y,-z
1/2-x,1/2-y,-z
1/2+x,1/2+y,-z
1/2-x,1/2+y,z
1/2+x,1/2-y,z
loop_
_atom_site_type_symbol
_atom_site_label
_atom_site_fract_x
_atom_site_fract_y
_atom_site_fract_z
Si Si1 0.884014 0.311380 0.666438
Si Si2 0.500000 0.312451 0.067278
Si Si3 0.686989 0.188077 0.560631
Si Si4 0.119026 0.687668 0.107749
Si Si5 0.686927 0.686564 0.000000
Si Si6 0.000000 0.000000 0.500000
Si Si7 0.685491 0.188997 0.777773
Si Si8 0.000000 0.172351 0.377791
O O1 0.883938 0.500000 0.667680
O O2 0.845435 0.252601 0.614782
O O3 0.853660 0.260110 0.724618
O O4 0.945586 0.257694 0.647626
O O5 0.500000 0.500000 0.067498
O O6 0.555946 0.251513 0.098701
O O7 0.500000 0.262959 0.000000
O O8 0.660727 0.235822 0.500000
O O9 0.750000 0.250000 0.561783
O O10 0.688036 0.000000 0.562455
O O11 0.116781 0.500000 0.106661
O O12 0.152119 0.735398 0.164987
O O13 0.154777 0.750337 0.054963
O O14 0.750000 0.750000 0.000000
O O15 0.686523 0.500000 0.000000
O O16 0.000000 0.135847 0.446763
O O17 0.750000 0.250000 0.775339
O O18 0.688864 0.000000 0.776756
O O19 0.000000 0.000000 0.351904
#
# Coordination Sequence:
#
# PCOD9492610 Si02
#       8
#    16   8  16  16   8   2  16   8
#     4  10  21  39  61  85 118 157 202 248 297 362
#     4  11  23  40  63  93 125 160 205 257 313 371
#     4   9  18  31  50  79 109 143 186 233 286 343
#     4  11  23  40  63  91 124 166 208 258 318 381
#     4  12  24  39  60  89 122 160 208 266 320 382
#     4   8  24  44  58  88 132 152 206 262 316 370
#     4  10  23  41  63  92 126 163 207 254 309 372
#     4  10  23  40  60  87 120 158 199 253 307 362
#
# _framework density 18.838863
#
# number of rings (size 3 to 8) (size 9 to 14) (size 15 to 20)
#    0.267    1.511    0.889    2.933    1.244    5.333 
#    0.000    4.000    0.000    0.000    0.000    0.000 
#    0.000    0.000    0.000    0.000    0.000    0.000 
#
# Total GULP energy -250690.656640 kJ/mol
# GULP energy per Si atom -5570.903481 kJ/mol
# Density = 1.879598 g / cm^3
# Si number density = 18.838863 Si / 1000 Ang^3
#
#
#
# Elastic Constant Matrix: (Units=GPa)
#
#
# Indices 1 2 3 4 5 6 
#
# 1 175.6688 28.6744 115.4461 0.0000 0.0000 0.0000
# 2 28.6744 31.4332 39.7104 0.0000 0.0000 0.0000
# 3 115.4461 39.7104 209.7122 0.0000 0.0000 0.0000
# 4 0.0000 0.0000 0.0000 -13.5122 0.0000 0.0000
# 5 0.0000 0.0000 0.0000 0.0000 35.6639 0.0000
# 6 0.0000 0.0000 0.0000 0.0000 0.0000 36.4999
#
#
#
# Elastic Compliance Matrix: (Units=1/GPa)
#
#
# Indices 1 2 3 4 5 6 
#
# 1 0.009077 -0.002586 -0.004507 0.000000 0.000000 0.000000
# 2 -0.002586 0.042554 -0.006634 0.000000 0.000000 0.000000
# 3 -0.004507 -0.006634 0.008506 0.000000 0.000000 0.000000
# 4 0.000000 0.000000 0.000000 -0.074007 0.000000 0.000000
# 5 0.000000 0.000000 0.000000 0.000000 0.028040 0.000000
# 6 0.000000 0.000000 0.000000 0.000000 0.000000 0.027397
#
#
# Mechanical properties :
#
#
# Convention : Reuss Voigt Hill
#
# Bulk Modulus (GPa) = 30.59834 87.16399 58.88117
# Shear Modulus (GPa) = 62.56736 27.26254 44.91495
#
# Velocity S-wave (km/s) = 5.76922 3.80826 4.88809
# Velocity P-wave (km/s) = 7.78820 8.10591 7.94864
#
# Compressibility (1/GPa) = 0.03268151
#
# Stress axis : x y z
#
# Youngs Moduli (GPa) = 110.17436 23.49968 117.56837
#
# Poissons Ratio (x) = 0.06078 0.52987
# Poissons Ratio (y) = 0.28494 0.77996
# Poissons Ratio (z) = 0.49654 0.15590
#
# Static dielectric constant tensor:
#      x y z
#    x 1.731070 0.000000 0.000000 
#    y 0.000000 1.645970 0.000000 
#    z 0.000000 0.000000 1.670090 
# 
# From -- ./inp_files/71146.got.cif
#   From: 2010.05.17/outbox.cif.g08.bks.cpg/sg65_36_cif.got.tgz:71146.got - 2010.06.03 17:01:31.
