data_PCOD9492420
_publ_section_title
;
Structure prediction by ZEFSAII (Michael W. Deem and Ramdas Pophale) SiO2 
 PCOD9492420
Probable space group: C M M M
;
_chemical_formula_sum "Si O2"
_cell_formula_units_Z 64
_cell_length_a 11.363957
_cell_length_b 35.513508
_cell_length_c 8.905384
_cell_angle_alpha 90.000000
_cell_angle_beta 90.000000
_cell_angle_gamma 90.000000
_cell_volume 3593.981245
_symmetry_space_group_name_H-M "C M M M"
_symmetry_group_IT_number 65
_symmetry_cell_setting 'orthorhombic'
loop_
_space_group_symop_operation_xyz
x,y,z
-x,-y,z
x,-y,-z
-x,y,-z
-x,-y,-z
x,y,-z
-x,y,z
x,-y,z
1/2+x,1/2+y,z
1/2-x,1/2-y,z
1/2+x,1/2-y,-z
1/2-x,1/2+y,-z
1/2-x,1/2-y,-z
1/2+x,1/2+y,-z
1/2-x,1/2+y,z
1/2+x,1/2-y,z
loop_
_atom_site_type_symbol
_atom_site_label
_atom_site_fract_x
_atom_site_fract_y
_atom_site_fract_z
Si Si1 0.000000 0.955043 0.679065
Si Si2 0.361562 0.857462 0.324443
Si Si3 0.135563 0.724938 0.181263
Si Si4 0.241191 0.928721 0.820932
Si Si5 0.139586 0.500000 0.329396
O O1 0.113524 0.936671 0.753236
O O2 0.000000 0.949766 0.500000
O O3 0.000000 0.000000 0.708668
O O4 0.328594 0.857025 0.500000
O O5 0.500000 0.867249 0.314857
O O6 0.348326 0.816159 0.253541
O O7 0.289946 0.889062 0.236940
O O8 0.250000 0.750000 0.224770
O O9 0.000000 0.737814 0.221249
O O10 0.137525 0.722027 0.000000
O O11 0.319214 0.962769 0.755762
O O12 0.239880 0.929923 0.000000
O O13 0.189358 0.500000 0.500000
O O14 0.000000 0.500000 0.338610
#
# Coordination Sequence:
#
# PCOD9492420 Si02
#       5
#     8  16  16  16   8
#     4  11  23  41  63  81 110 154 194 236 288 346
#     4  10  21  38  60  85 116 154 194 238 287 343
#     4   9  18  35  59  86 117 153 191 238 295 353
#     4  12  24  38  59  85 114 148 191 239 288 343
#     4  11  23  38  57  82 113 149 189 235 286 341
#
# _framework density 17.807549000000002
#
# number of rings (size 3 to 8) (size 9 to 14) (size 15 to 20)
#    0.000    1.500    1.250    4.500    0.000    6.500 
#    2.250    0.000    0.000    0.000    0.000    0.000 
#    0.000    0.000    0.000    0.000    0.000    0.000 
#
# Total GULP energy -178697.754995 kJ/mol
# GULP energy per Si atom -5584.304844 kJ/mol
# Density = 1.776702 g / cm^3
# Si number density = 17.807549 Si / 1000 Ang^3
#
#
#
# Elastic Constant Matrix: (Units=GPa)
#
#
# Indices 1 2 3 4 5 6 
#
# 1 136.1418 84.1257 70.9250 0.0000 0.0000 0.0000
# 2 84.1257 109.4098 67.4416 0.0000 0.0000 0.0000
# 3 70.9250 67.4416 115.4092 0.0000 0.0000 0.0000
# 4 0.0000 0.0000 0.0000 50.1546 0.0000 0.0000
# 5 0.0000 0.0000 0.0000 0.0000 27.2833 0.0000
# 6 0.0000 0.0000 0.0000 0.0000 0.0000 40.5747
#
#
#
# Elastic Compliance Matrix: (Units=1/GPa)
#
#
# Indices 1 2 3 4 5 6 
#
# 1 0.015030 -0.009164 -0.003882 0.000000 0.000000 0.000000
# 2 -0.009164 0.019873 -0.005982 0.000000 0.000000 0.000000
# 3 -0.003882 -0.005982 0.014546 0.000000 0.000000 0.000000
# 4 0.000000 0.000000 0.000000 0.019938 0.000000 0.000000
# 5 0.000000 0.000000 0.000000 0.000000 0.036652 0.000000
# 6 0.000000 0.000000 0.000000 0.000000 0.000000 0.024646
#
#
# Mechanical properties :
#
#
# Convention : Reuss Voigt Hill
#
# Bulk Modulus (GPa) = 87.76001 89.54948 88.65474
# Shear Modulus (GPa) = 28.97896 32.83375 30.90635
#
# Velocity S-wave (km/s) = 4.03841 4.29862 4.17054
# Velocity P-wave (km/s) = 8.43412 8.66222 8.54893
#
# Compressibility (1/GPa) = 0.01139471
#
# Stress axis : x y z
#
# Youngs Moduli (GPa) = 66.53259 50.31846 68.74860
#
# Poissons Ratio (x) = 0.46112 0.26686
# Poissons Ratio (y) = 0.60971 0.41123
# Poissons Ratio (z) = 0.25825 0.30098
#
# Static dielectric constant tensor:
#      x y z
#    x 1.636500 0.000000 0.000000 
#    y 0.000000 1.567230 0.000000 
#    z 0.000000 0.000000 1.591370 
# 
# From -- ./inp_files/4916.got.cif
#   From: 2010.05.17/outbox.cif.g08.bks.cpg/sg65_3_cif.got.tgz:4916.got - 2010.06.03 17:01:31.
