data_PCOD9492974
_publ_section_title
;
Structure prediction by ZEFSAII (Michael W. Deem and Ramdas Pophale) SiO2 
 PCOD9492974
Probable space group: C M M M
;
_chemical_formula_sum "Si O2"
_cell_formula_units_Z 60
_cell_length_a 12.166874
_cell_length_b 23.277294
_cell_length_c 11.292086
_cell_angle_alpha 90.000000
_cell_angle_beta 90.000000
_cell_angle_gamma 90.000000
_cell_volume 3198.053167
_symmetry_space_group_name_H-M "C M M M"
_symmetry_group_IT_number 65
_symmetry_cell_setting 'orthorhombic'
loop_
_space_group_symop_operation_xyz
x,y,z
-x,-y,z
x,-y,-z
-x,y,-z
-x,-y,-z
x,y,-z
-x,y,z
x,-y,z
1/2+x,1/2+y,z
1/2-x,1/2-y,z
1/2+x,1/2-y,-z
1/2-x,1/2+y,-z
1/2-x,1/2-y,-z
1/2+x,1/2+y,-z
1/2-x,1/2+y,z
1/2+x,1/2-y,z
loop_
_atom_site_type_symbol
_atom_site_label
_atom_site_fract_x
_atom_site_fract_y
_atom_site_fract_z
Si Si1 0.000000 0.755828 0.644091
Si Si2 0.730600 0.564627 0.359052
Si Si3 0.259793 0.317386 0.000000
Si Si4 0.875854 0.657640 0.765938
Si Si5 0.500000 0.368681 0.000000
Si Si6 0.000000 0.112260 0.733217
O O1 0.897262 0.717822 0.694925
O O2 0.000000 0.819298 0.701387
O O3 0.000000 0.758493 0.500000
O O4 0.732888 0.563281 0.500000
O O5 0.751249 0.500000 0.313649
O O6 0.819911 0.610147 0.315309
O O7 0.610165 0.585438 0.319891
O O8 0.250000 0.250000 0.000000
O O9 0.199278 0.337809 0.881398
O O10 0.387434 0.333108 0.000000
O O11 0.000000 0.640768 0.800815
O O12 0.500000 0.399769 0.126244
#
# Coordination Sequence:
#
# PCOD9492974 Si02
#       6
#     8  16   8  16   4   8
#     4  10  22  39  64  99 134 166 209 270 332 396
#     4  11  24  43  67  94 130 176 223 271 323 391
#     4  12  23  42  65  96 137 178 217 268 329 396
#     4  10  24  40  65  96 132 168 218 266 331 390
#     4  12  24  40  67  92 126 176 217 264 328 386
#     4  12  23  43  63  98 131 171 219 275 336 387
#
# _framework density 18.761413000000001
#
# number of rings (size 3 to 8) (size 9 to 14) (size 15 to 20)
#    0.800    0.267    2.667    4.400    1.867    1.600 
#    0.000    7.333    0.000    1.600    0.000    0.000 
#    0.000    0.000    0.000    0.000    0.000    0.000 
#
# Total GULP energy -167409.523421 kJ/mol
# GULP energy per Si atom -5580.317447 kJ/mol
# Density = 1.871871 g / cm^3
# Si number density = 18.761413 Si / 1000 Ang^3
#
#
#
# Elastic Constant Matrix: (Units=GPa)
#
#
# Indices 1 2 3 4 5 6 
#
# 1 107.5799 11.3558 31.4110 0.0000 0.0000 0.0000
# 2 11.3558 91.8098 36.5873 0.0000 0.0000 0.0000
# 3 31.4110 36.5873 119.6713 0.0000 0.0000 0.0000
# 4 0.0000 0.0000 0.0000 -18.4318 0.0000 0.0000
# 5 0.0000 0.0000 0.0000 0.0000 36.9063 0.0000
# 6 0.0000 0.0000 0.0000 0.0000 0.0000 21.0882
#
#
#
# Elastic Compliance Matrix: (Units=1/GPa)
#
#
# Indices 1 2 3 4 5 6 
#
# 1 0.010071 -0.000219 -0.002576 0.000000 0.000000 0.000000
# 2 -0.000219 0.012408 -0.003736 0.000000 0.000000 0.000000
# 3 -0.002576 -0.003736 0.010175 0.000000 0.000000 0.000000
# 4 0.000000 0.000000 0.000000 -0.054254 0.000000 0.000000
# 5 0.000000 0.000000 0.000000 0.000000 0.027096 0.000000
# 6 0.000000 0.000000 0.000000 0.000000 0.000000 0.047420
#
#
# Mechanical properties :
#
#
# Convention : Reuss Voigt Hill
#
# Bulk Modulus (GPa) = 51.04455 53.08546 52.06500
# Shear Modulus (GPa) = 68.95795 23.89301 46.42548
#
# Velocity S-wave (km/s) = 6.06918 3.57251 4.97985
# Velocity P-wave (km/s) = 8.73954 6.73599 7.80234
#
# Compressibility (1/GPa) = 0.01959073
#
# Stress axis : x y z
#
# Youngs Moduli (GPa) = 99.29713 80.59294 98.28283
#
# Poissons Ratio (x) = 0.01764 0.25322
# Poissons Ratio (y) = 0.02174 0.36719
# Poissons Ratio (z) = 0.25583 0.30110
#
# Static dielectric constant tensor:
#      x y z
#    x 1.577180 0.000000 0.000000 
#    y 0.000000 1.631260 0.000000 
#    z 0.000000 0.000000 1.596760 
# 
# From -- ./inp_files/21989.got.cif
#   From: 2010.05.17/outbox.cif.g08.bks.cpg/sg65_11_cif.got.tgz:21989.got - 2010.06.03 17:01:31.
