data_PCOD9492784
_publ_section_title
;
Structure prediction by ZEFSAII (Michael W. Deem and Ramdas Pophale) SiO2 
 PCOD9492784
Probable space group: C M M M
;
_chemical_formula_sum "Si O2"
_cell_formula_units_Z 80
_cell_length_a 27.584360
_cell_length_b 7.877882
_cell_length_c 17.716787
_cell_angle_alpha 90.000000
_cell_angle_beta 90.000000
_cell_angle_gamma 90.000000
_cell_volume 3849.970018
_symmetry_space_group_name_H-M "C M M M"
_symmetry_group_IT_number 65
_symmetry_cell_setting 'orthorhombic'
loop_
_space_group_symop_operation_xyz
x,y,z
-x,-y,z
x,-y,-z
-x,y,-z
-x,-y,-z
x,y,-z
-x,y,z
x,-y,z
1/2+x,1/2+y,z
1/2-x,1/2-y,z
1/2+x,1/2-y,-z
1/2-x,1/2+y,-z
1/2-x,1/2-y,-z
1/2+x,1/2+y,-z
1/2-x,1/2+y,z
1/2+x,1/2-y,z
loop_
_atom_site_type_symbol
_atom_site_label
_atom_site_fract_x
_atom_site_fract_y
_atom_site_fract_z
Si Si1 0.305649 0.695531 0.686740
Si Si2 0.194188 0.704192 0.000000
Si Si3 0.849247 0.699741 0.843544
Si Si4 0.394058 0.708413 0.411886
Si Si5 0.000000 0.801266 0.591993
Si Si6 0.055497 0.205088 0.913567
O O1 0.305277 0.500000 0.665706
O O2 0.250000 0.750000 0.679167
O O3 0.324144 0.716069 0.772266
O O4 0.348146 0.774479 0.635048
O O5 0.250000 0.750000 0.000000
O O6 0.171310 0.769897 0.077402
O O7 0.187644 0.500000 0.000000
O O8 0.838448 0.500000 0.838274
O O9 0.906578 0.726438 0.853164
O O10 0.388606 0.751449 0.500000
O O11 0.395741 0.500000 0.407708
O O12 0.447412 0.769214 0.384636
O O13 0.000000 0.796083 0.500000
O O14 0.000000 0.000000 0.614033
O O15 0.000000 0.254980 0.898984
O O16 0.057653 0.000000 0.912882
O O17 0.067552 0.261054 0.000000
#
# Coordination Sequence:
#
# PCOD9492784 Si02
#       6
#    16   8  16  16   8  16
#     4  11  23  38  55  80 113 149 187 233 285 334
#     4  10  22  36  53  76  97 131 180 229 273 326
#     4  11  22  38  56  78 109 146 189 230 279 333
#     4   8  15  30  54  82 111 143 181 225 275 333
#     4   7  10  22  48  80 109 136 169 216 270 320
#     4   9  18  34  57  84 112 143 182 228 276 327
#
# _framework density 20.779384
#
# number of rings (size 3 to 8) (size 9 to 14) (size 15 to 20)
#    0.000    2.500    1.000    3.600    0.000    4.000 
#    1.800    1.000    0.000    1.800    0.000    0.000 
#    0.000    9.600    0.000    0.000    0.000    0.000 
#
# Total GULP energy -223080.924318 kJ/mol
# GULP energy per Si atom -5577.023108 kJ/mol
# Density = 2.073209 g / cm^3
# Si number density = 20.779384 Si / 1000 Ang^3
#
#
#
# Elastic Constant Matrix: (Units=GPa)
#
#
# Indices 1 2 3 4 5 6 
#
# 1 209.8957 4.7307 80.0105 0.0000 0.0000 0.0000
# 2 4.7307 13.6645 -5.0593 0.0000 0.0000 0.0000
# 3 80.0105 -5.0593 72.9998 0.0000 0.0000 0.0000
# 4 0.0000 0.0000 0.0000 32.5845 0.0000 0.0000
# 5 0.0000 0.0000 0.0000 0.0000 27.5241 0.0000
# 6 0.0000 0.0000 0.0000 0.0000 0.0000 27.0067
#
#
#
# Elastic Compliance Matrix: (Units=1/GPa)
#
#
# Indices 1 2 3 4 5 6 
#
# 1 0.008751 -0.006754 -0.010060 0.000000 0.000000 0.000000
# 2 -0.006754 0.080323 0.012970 0.000000 0.000000 0.000000
# 3 -0.010060 0.012970 0.025623 0.000000 0.000000 0.000000
# 4 0.000000 0.000000 0.000000 0.030689 0.000000 0.000000
# 5 0.000000 0.000000 0.000000 0.000000 0.036332 0.000000
# 6 0.000000 0.000000 0.000000 0.000000 0.000000 0.037028
#
#
# Mechanical properties :
#
#
# Convention : Reuss Voigt Hill
#
# Bulk Modulus (GPa) = 9.34497 50.65818 30.00158
# Shear Modulus (GPa) = 19.07632 31.88160 25.47896
#
# Velocity S-wave (km/s) = 3.03321 3.92125 3.50546
# Velocity P-wave (km/s) = 4.09562 6.70325 5.55462
#
# Compressibility (1/GPa) = 0.10700942
#
# Stress axis : x y z
#
# Youngs Moduli (GPa) = 114.26997 12.44971 39.02677
#
# Poissons Ratio (x) = 0.08409 0.39260
# Poissons Ratio (y) = 0.77182 -0.50618
# Poissons Ratio (z) = 1.14953 -0.16147
#
# Static dielectric constant tensor:
#      x y z
#    x 1.793770 0.000000 0.000000 
#    y 0.000000 1.781850 0.000000 
#    z 0.000000 0.000000 1.724520 
# 
# From -- ./inp_files/57292.got.cif
#   From: 2010.05.17/outbox.cif.g08.bks.cpg/sg65_29_cif.got.tgz:57292.got - 2010.06.03 17:01:31.
