data_PCOD9492570
_publ_section_title
;
Structure prediction by ZEFSAII (Michael W. Deem and Ramdas Pophale) SiO2 
 PCOD9492570
Probable space group: C M M M
;
_chemical_formula_sum "Si O2"
_cell_formula_units_Z 72
_cell_length_a 14.589534
_cell_length_b 25.708175
_cell_length_c 10.465602
_cell_angle_alpha 90.000000
_cell_angle_beta 90.000000
_cell_angle_gamma 90.000000
_cell_volume 3925.336411
_symmetry_space_group_name_H-M "C M M M"
_symmetry_group_IT_number 65
_symmetry_cell_setting 'orthorhombic'
loop_
_space_group_symop_operation_xyz
x,y,z
-x,-y,z
x,-y,-z
-x,y,-z
-x,-y,-z
x,y,-z
-x,y,z
x,-y,z
1/2+x,1/2+y,z
1/2-x,1/2-y,z
1/2+x,1/2-y,-z
1/2-x,1/2+y,-z
1/2-x,1/2-y,-z
1/2+x,1/2+y,-z
1/2-x,1/2+y,z
1/2+x,1/2-y,z
loop_
_atom_site_type_symbol
_atom_site_label
_atom_site_fract_x
_atom_site_fract_y
_atom_site_fract_z
Si Si1 0.719890 0.439641 0.500000
Si Si2 0.821072 0.607373 0.259014
Si Si3 0.000000 0.329632 0.649944
Si Si4 0.897481 0.438344 0.000000
Si Si5 0.609265 0.666719 0.500000
Si Si6 0.684893 0.299531 0.767588
Si Si7 0.000000 0.760107 0.861412
O O1 0.689387 0.500000 0.500000
O O2 0.779160 0.427830 0.627734
O O3 0.643555 0.393552 0.500000
O O4 0.745914 0.649535 0.214646
O O5 0.908910 0.637361 0.317830
O O6 0.850257 0.578136 0.131343
O O7 0.000000 0.280734 0.745431
O O8 0.000000 0.315157 0.500000
O O9 0.903266 0.500000 0.000000
O O10 0.000000 0.415295 0.000000
O O11 0.500000 0.668549 0.500000
O O12 0.650129 0.695650 0.377654
O O13 0.750000 0.250000 0.787453
O O14 0.592528 0.293495 0.848636
O O15 0.000000 0.733314 0.000000
#
# Coordination Sequence:
#
# PCOD9492570 Si02
#       7
#     8  16   8   8   8  16   8
#     4  10  22  41  62  89 121 158 214 260 306 364
#     4  11  23  40  63  90 125 165 204 249 311 362
#     4  12  24  40  59  93 127 163 203 250 303 363
#     4  11  24  40  63  93 125 163 205 258 313 365
#     4  10  21  38  63  92 118 160 203 257 307 357
#     4  11  23  39  61  90 126 161 202 245 303 365
#     4  12  28  40  60  91 126 167 206 246 298 357
#
# _framework density 18.342376999999999
#
# number of rings (size 3 to 8) (size 9 to 14) (size 15 to 20)
#    0.000    1.000    5.556    1.000    4.667    0.667 
#    0.000    0.556    0.000    0.000    0.000    0.778 
#    0.000    0.000    0.000    0.000    0.000    0.000 
#
# Total GULP energy -201093.934098 kJ/mol
# GULP energy per Si atom -5585.942614 kJ/mol
# Density = 1.830063 g / cm^3
# Si number density = 18.342377 Si / 1000 Ang^3
#
#
#
# Elastic Constant Matrix: (Units=GPa)
#
#
# Indices 1 2 3 4 5 6 
#
# 1 118.6638 27.1550 30.6062 0.0000 0.0000 0.0000
# 2 27.1550 59.8470 34.9240 0.0000 0.0000 0.0000
# 3 30.6062 34.9240 134.2080 0.0000 0.0000 0.0000
# 4 0.0000 0.0000 0.0000 -2.2920 0.0000 0.0000
# 5 0.0000 0.0000 0.0000 0.0000 77.5939 0.0000
# 6 0.0000 0.0000 0.0000 0.0000 0.0000 97.0852
#
#
#
# Elastic Compliance Matrix: (Units=1/GPa)
#
#
# Indices 1 2 3 4 5 6 
#
# 1 0.009576 -0.003620 -0.001242 0.000000 0.000000 0.000000
# 2 -0.003620 0.021070 -0.004657 0.000000 0.000000 0.000000
# 3 -0.001242 -0.004657 0.008946 0.000000 0.000000 0.000000
# 4 0.000000 0.000000 0.000000 -0.436291 0.000000 0.000000
# 5 0.000000 0.000000 0.000000 0.000000 0.012888 0.000000
# 6 0.000000 0.000000 0.000000 0.000000 0.000000 0.010300
#
#
# Mechanical properties :
#
#
# Convention : Reuss Voigt Hill
#
# Bulk Modulus (GPa) = 48.65397 55.34324 51.99861
# Shear Modulus (GPa) = -14.38346 49.14633 17.38143
#
# Velocity S-wave (km/s) = -2.80333 5.18190 3.08167
# Velocity P-wave (km/s) = 4.01308 8.12653 6.40880
#
# Compressibility (1/GPa) = 0.02055331
#
# Stress axis : x y z
#
# Youngs Moduli (GPa) = 104.42868 47.46148 111.77934
#
# Poissons Ratio (x) = 0.17183 0.13880
# Poissons Ratio (y) = 0.37807 0.52058
# Poissons Ratio (z) = 0.12967 0.22104
#
# Static dielectric constant tensor:
#      x y z
#    x 1.634150 0.000000 0.000000 
#    y 0.000000 1.611380 0.000000 
#    z 0.000000 0.000000 1.614250 
# 
# From -- ./inp_files/7466.got.cif
#   From: 2010.05.17/outbox.cif.g08.bks.cpg/sg65_4_cif.got.tgz:7466.got - 2010.06.03 17:01:31.
