data_PCOD9492633
_publ_section_title
;
Structure prediction by ZEFSAII (Michael W. Deem and Ramdas Pophale) SiO2 
 PCOD9492633
Probable space group: C M M M
;
_chemical_formula_sum "Si O2"
_cell_formula_units_Z 72
_cell_length_a 15.217125
_cell_length_b 30.408746
_cell_length_c 8.067564
_cell_angle_alpha 90.000000
_cell_angle_beta 90.000000
_cell_angle_gamma 90.000000
_cell_volume 3733.133651
_symmetry_space_group_name_H-M "C M M M"
_symmetry_group_IT_number 65
_symmetry_cell_setting 'orthorhombic'
loop_
_space_group_symop_operation_xyz
x,y,z
-x,-y,z
x,-y,-z
-x,y,-z
-x,-y,-z
x,y,-z
-x,y,z
x,-y,z
1/2+x,1/2+y,z
1/2-x,1/2-y,z
1/2+x,1/2-y,-z
1/2-x,1/2+y,-z
1/2-x,1/2-y,-z
1/2+x,1/2+y,-z
1/2-x,1/2+y,z
1/2+x,1/2-y,z
loop_
_atom_site_type_symbol
_atom_site_label
_atom_site_fract_x
_atom_site_fract_y
_atom_site_fract_z
Si Si1 0.500000 0.274424 0.199218
Si Si2 0.286145 0.448196 0.315119
Si Si3 0.302857 0.294462 0.301759
Si Si4 0.097940 0.946648 0.000000
Si Si5 0.178609 0.627435 0.804248
Si Si6 0.000000 0.326618 0.797902
O O1 0.406225 0.293417 0.257687
O O2 0.500000 0.223661 0.258006
O O3 0.500000 0.275726 0.000000
O O4 0.323441 0.442133 0.500000
O O5 0.266052 0.500000 0.295510
O O6 0.351344 0.434699 0.167285
O O7 0.203360 0.416777 0.291133
O O8 0.294336 0.297291 0.500000
O O9 0.250000 0.250000 0.247547
O O10 0.253975 0.336188 0.223751
O O11 0.000000 0.928625 0.000000
O O12 0.093580 0.000000 0.000000
O O13 0.087908 0.648811 0.745304
O O14 0.171820 0.617793 0.000000
O O15 0.000000 0.325572 0.000000
#
# Coordination Sequence:
#
# PCOD9492633 Si02
#       6
#     8  16  16   8  16   8
#     4  11  21  39  61  84 115 156 202 247 300 359
#     4  10  21  39  62  89 124 163 203 253 309 363
#     4  11  23  38  57  85 121 156 195 244 301 361
#     4   9  18  36  62  89 116 153 201 249 303 363
#     4  11  21  39  63  89 119 158 205 252 305 363
#     4   9  20  35  60  90 117 152 203 253 302 364
#
# _framework density 19.286745
#
# number of rings (size 3 to 8) (size 9 to 14) (size 15 to 20)
#    0.000    1.667    3.333    1.667    0.000    1.333 
#    2.000    5.000    0.000    3.333    0.000    0.000 
#    0.000    0.000    0.000    0.000    0.000    0.000 
#
# Total GULP energy -201004.493944 kJ/mol
# GULP energy per Si atom -5583.458165 kJ/mol
# Density = 1.924285 g / cm^3
# Si number density = 19.286745 Si / 1000 Ang^3
#
#
#
# Elastic Constant Matrix: (Units=GPa)
#
#
# Indices 1 2 3 4 5 6 
#
# 1 141.4426 41.9814 22.9883 0.0000 0.0000 0.0000
# 2 41.9814 63.1276 27.0436 0.0000 0.0000 0.0000
# 3 22.9883 27.0436 83.6095 0.0000 0.0000 0.0000
# 4 0.0000 0.0000 0.0000 25.1661 0.0000 0.0000
# 5 0.0000 0.0000 0.0000 0.0000 4.4553 0.0000
# 6 0.0000 0.0000 0.0000 0.0000 0.0000 10.5907
#
#
#
# Elastic Compliance Matrix: (Units=1/GPa)
#
#
# Indices 1 2 3 4 5 6 
#
# 1 0.008836 -0.005613 -0.000614 0.000000 0.000000 0.000000
# 2 -0.005613 0.021955 -0.005558 0.000000 0.000000 0.000000
# 3 -0.000614 -0.005558 0.013927 0.000000 0.000000 0.000000
# 4 0.000000 0.000000 0.000000 0.039736 0.000000 0.000000
# 5 0.000000 0.000000 0.000000 0.000000 0.224453 0.000000
# 6 0.000000 0.000000 0.000000 0.000000 0.000000 0.094423
#
#
# Mechanical properties :
#
#
# Convention : Reuss Voigt Hill
#
# Bulk Modulus (GPa) = 47.28654 52.46736 49.87695
# Shear Modulus (GPa) = 11.52213 21.12016 16.32115
#
# Velocity S-wave (km/s) = 2.44685 3.31276 2.91217
# Velocity P-wave (km/s) = 5.70558 6.47267 6.10119
#
# Compressibility (1/GPa) = 0.02114767
#
# Stress axis : x y z
#
# Youngs Moduli (GPa) = 113.17628 45.54816 71.80355
#
# Poissons Ratio (x) = 0.25566 0.04408
# Poissons Ratio (y) = 0.63526 0.39908
# Poissons Ratio (z) = 0.06947 0.25316
#
# Static dielectric constant tensor:
#      x y z
#    x 1.675530 0.000000 0.000000 
#    y 0.000000 1.663490 0.000000 
#    z 0.000000 0.000000 1.695250 
# 
# From -- ./inp_files/7713.got.cif
#   From: 2010.05.17/outbox.cif.g08.bks.cpg/sg65_4_cif.got.tgz:7713.got - 2010.06.03 17:01:31.
