data_PCOD9492353
_publ_section_title
;
Structure prediction by ZEFSAII (Michael W. Deem and Ramdas Pophale) SiO2 
 PCOD9492353
Probable space group: C M M M
;
_chemical_formula_sum "Si O2"
_cell_formula_units_Z 116
_cell_length_a 25.714288
_cell_length_b 28.977571
_cell_length_c 7.835819
_cell_angle_alpha 90.000000
_cell_angle_beta 90.000000
_cell_angle_gamma 90.000000
_cell_volume 5838.763413
_symmetry_space_group_name_H-M "C M M M"
_symmetry_group_IT_number 65
_symmetry_cell_setting 'orthorhombic'
loop_
_space_group_symop_operation_xyz
x,y,z
-x,-y,z
x,-y,-z
-x,y,-z
-x,-y,-z
x,y,-z
-x,y,z
x,-y,z
1/2+x,1/2+y,z
1/2-x,1/2-y,z
1/2+x,1/2-y,-z
1/2-x,1/2+y,-z
1/2-x,1/2-y,-z
1/2+x,1/2+y,-z
1/2-x,1/2+y,z
1/2+x,1/2-y,z
loop_
_atom_site_type_symbol
_atom_site_label
_atom_site_fract_x
_atom_site_fract_y
_atom_site_fract_z
Si Si1 0.223185 0.858330 0.299204
Si Si2 0.833818 0.768479 0.698350
Si Si3 0.057605 0.921571 0.795380
Si Si4 0.664631 0.836419 0.803476
Si Si5 0.941823 0.188391 0.793231
Si Si6 0.055078 0.321527 0.689355
Si Si7 0.000000 0.280631 0.000000
Si Si8 0.330160 0.450267 0.701016
O O1 0.209254 0.856534 0.500000
O O2 0.201214 0.809957 0.227561
O O3 0.284905 0.858984 0.279808
O O4 0.196094 0.904042 0.225129
O O5 0.819935 0.760481 0.500000
O O6 0.829262 0.719083 0.785958
O O7 0.892509 0.787416 0.711844
O O8 0.062689 0.866596 0.764164
O O9 0.107762 0.945274 0.717765
O O10 0.000000 0.936105 0.735966
O O11 0.059231 0.928358 0.000000
O O12 0.608883 0.847194 0.720025
O O13 0.663160 0.849417 0.000000
O O14 0.000000 0.201482 0.733704
O O15 0.942420 0.195359 0.000000
O O16 0.058346 0.300192 0.500000
O O17 0.044741 0.287759 0.848617
O O18 0.000000 0.349148 0.692594
O O19 0.317048 0.450939 0.500000
O O20 0.314433 0.500000 0.774888
#
# Coordination Sequence:
#
# PCOD9492353 Si02
#       8
#    16  16  16  16  16  16   4  16
#     4  10  22  39  54  74 104 137 177 226 278 335
#     4  11  22  35  52  74 102 139 181 226 278 332
#     4   9  18  33  54  77 105 137 177 226 283 338
#     4  12  23  36  54  78 106 143 188 229 272 332
#     4   9  18  33  51  73 102 140 181 227 276 327
#     4   9  17  32  53  77 110 145 180 227 269 314
#     4   8  14  32  52  78 110 144 183 222 267 320
#     4  10  21  38  59  81 106 138 177 226 285 344
#
# _framework density 19.867221000000001
#
# number of rings (size 3 to 8) (size 9 to 14) (size 15 to 20)
#    0.414    1.655    2.069    2.897    0.000    4.966 
#    0.000    2.759    0.000    0.000    0.000    0.000 
#    0.000    0.552    0.000    7.379    0.000    4.414 
#
# Total GULP energy -323183.860416 kJ/mol
# GULP energy per Si atom -5572.135524 kJ/mol
# Density = 1.982200 g / cm^3
# Si number density = 19.867221 Si / 1000 Ang^3
#
#
#
# Elastic Constant Matrix: (Units=GPa)
#
#
# Indices 1 2 3 4 5 6 
#
# 1 114.9290 24.8873 -13.8761 0.0000 0.0000 0.0000
# 2 24.8873 38.9188 -4.7121 0.0000 0.0000 0.0000
# 3 -13.8761 -4.7121 58.0334 0.0000 0.0000 0.0000
# 4 0.0000 0.0000 0.0000 6.3962 0.0000 0.0000
# 5 0.0000 0.0000 0.0000 0.0000 34.1371 0.0000
# 6 0.0000 0.0000 0.0000 0.0000 0.0000 -13.2111
#
#
#
# Elastic Compliance Matrix: (Units=1/GPa)
#
#
# Indices 1 2 3 4 5 6 
#
# 1 0.010313 -0.006359 0.001950 0.000000 0.000000 0.000000
# 2 -0.006359 0.029870 0.000905 0.000000 0.000000 0.000000
# 3 0.001950 0.000905 0.017771 0.000000 0.000000 0.000000
# 4 0.000000 0.000000 0.000000 0.156342 0.000000 0.000000
# 5 0.000000 0.000000 0.000000 0.000000 0.029294 0.000000
# 6 0.000000 0.000000 0.000000 0.000000 0.000000 -0.075694
#
#
# Mechanical properties :
#
#
# Convention : Reuss Voigt Hill
#
# Bulk Modulus (GPa) = 19.62861 24.94215 22.28538
# Shear Modulus (GPa) = 26.05691 19.16992 22.61342
#
# Velocity S-wave (km/s) = 3.62547 3.10966 3.37742
# Velocity P-wave (km/s) = 5.23705 5.04727 5.14304
#
# Compressibility (1/GPa) = 0.05094603
#
# Stress axis : x y z
#
# Youngs Moduli (GPa) = 96.96085 33.47788 56.27109
#
# Poissons Ratio (x) = 0.21289 -0.10971
# Poissons Ratio (y) = 0.61658 -0.05092
# Poissons Ratio (z) = -0.18904 -0.03029
#
# Static dielectric constant tensor:
#      x y z
#    x 1.737620 0.000000 0.000000 
#    y 0.000000 1.736580 0.000000 
#    z 0.000000 0.000000 1.721100 
# 
# From -- ./inp_files/15144.got.cif
#   From: 2010.05.17/outbox.cif.g08.bks.cpg/sg65_8_cif.got.tgz:15144.got - 2010.06.03 17:01:31.
