data_PCOD9492162
_publ_section_title
;
Structure prediction by ZEFSAII (Michael W. Deem and Ramdas Pophale) SiO2 
 PCOD9492162
Probable space group: C M M M
;
_chemical_formula_sum "Si O2"
_cell_formula_units_Z 104
_cell_length_a 8.389306
_cell_length_b 24.436188
_cell_length_c 26.034405
_cell_angle_alpha 90.000000
_cell_angle_beta 90.000000
_cell_angle_gamma 90.000000
_cell_volume 5337.122240
_symmetry_space_group_name_H-M "C M M M"
_symmetry_group_IT_number 65
_symmetry_cell_setting 'orthorhombic'
loop_
_space_group_symop_operation_xyz
x,y,z
-x,-y,z
x,-y,-z
-x,y,-z
-x,-y,-z
x,y,-z
-x,y,z
x,-y,z
1/2+x,1/2+y,z
1/2-x,1/2-y,z
1/2+x,1/2-y,-z
1/2-x,1/2+y,-z
1/2-x,1/2-y,-z
1/2+x,1/2+y,-z
1/2-x,1/2+y,z
1/2+x,1/2-y,z
loop_
_atom_site_type_symbol
_atom_site_label
_atom_site_fract_x
_atom_site_fract_y
_atom_site_fract_z
Si Si1 0.307514 0.617269 0.248382
Si Si2 0.307301 0.385133 0.442079
Si Si3 0.809333 0.811230 0.848068
Si Si4 0.808683 0.500000 0.397695
Si Si5 0.690368 0.000000 0.278609
Si Si6 0.816397 0.500000 0.937463
Si Si7 0.192610 0.187952 0.347069
Si Si8 0.193192 0.380712 0.940885
O O1 0.500000 0.616925 0.248555
O O2 0.252445 0.648888 0.197546
O O3 0.249506 0.555304 0.252177
O O4 0.254201 0.651237 0.298672
O O5 0.252685 0.373067 0.500000
O O6 0.500000 0.384667 0.441869
O O7 0.252675 0.445356 0.425074
O O8 0.252547 0.341553 0.399453
O O9 0.750000 0.750000 0.839287
O O10 0.749943 0.834914 0.902052
O O11 0.000000 0.811093 0.847765
O O12 0.753696 0.500000 0.338197
O O13 0.000000 0.500000 0.398487
O O14 0.500000 0.000000 0.278912
O O15 0.745790 0.558908 0.923342
O O16 0.000000 0.500000 0.919290
O O17 0.820808 0.500000 0.000000
O O18 0.250000 0.250000 0.342979
O O19 0.000000 0.188141 0.346857
O O20 0.000000 0.382967 0.940718
O O21 0.242703 0.371488 0.000000
#
# Coordination Sequence:
#
# PCOD9492162 Si02
#       8
#    16  16  16   8   8   8  16  16
#     4  10  22  41  62  84 113 151 189 230 287 346
#     4  10  21  37  58  83 112 152 196 233 281 347
#     4  11  24  40  59  84 114 151 195 240 287 340
#     4  11  22  36  56  87 119 147 184 235 291 339
#     4  11  23  37  61  93 118 145 186 234 284 341
#     4   7  12  27  53  82 109 141 182 224 269 324
#     4  10  21  37  58  81 109 148 191 236 284 336
#     4   9  18  35  60  88 119 156 195 236 285 340
#
# _framework density 19.486156999999999
#
# number of rings (size 3 to 8) (size 9 to 14) (size 15 to 20)
#    0.000    2.077    1.538    2.538    0.000    5.846 
#    0.000    1.923    0.000    1.385    0.000    0.000 
#    0.000    0.000    0.000    0.000    0.000    0.000 
#
# Total GULP energy -290370.166595 kJ/mol
# GULP energy per Si atom -5584.041665 kJ/mol
# Density = 1.944181 g / cm^3
# Si number density = 19.486157 Si / 1000 Ang^3
#
#
#
# Elastic Constant Matrix: (Units=GPa)
#
#
# Indices 1 2 3 4 5 6 
#
# 1 10.4002 17.0718 24.1723 0.0000 0.0000 0.0000
# 2 17.0718 172.5438 87.0756 0.0000 0.0000 0.0000
# 3 24.1723 87.0756 135.4337 0.0000 0.0000 0.0000
# 4 0.0000 0.0000 0.0000 8.5491 0.0000 0.0000
# 5 0.0000 0.0000 0.0000 0.0000 17.6470 0.0000
# 6 0.0000 0.0000 0.0000 0.0000 0.0000 20.1432
#
#
#
# Elastic Compliance Matrix: (Units=1/GPa)
#
#
# Indices 1 2 3 4 5 6 
#
# 1 0.164858 -0.002165 -0.028032 0.000000 0.000000 0.000000
# 2 -0.002165 0.008608 -0.005148 0.000000 0.000000 0.000000
# 3 -0.028032 -0.005148 0.015697 0.000000 0.000000 0.000000
# 4 0.000000 0.000000 0.000000 0.116971 0.000000 0.000000
# 5 0.000000 0.000000 0.000000 0.000000 0.056667 0.000000
# 6 0.000000 0.000000 0.000000 0.000000 0.000000 0.049645
#
#
# Mechanical properties :
#
#
# Convention : Reuss Voigt Hill
#
# Bulk Modulus (GPa) = 8.44076 63.89077 36.16577
# Shear Modulus (GPa) = 9.56710 21.93842 15.75276
#
# Velocity S-wave (km/s) = 2.21819 3.35900 2.84634
# Velocity P-wave (km/s) = 3.30175 6.92119 5.42238
#
# Compressibility (1/GPa) = 0.11847268
#
# Stress axis : x y z
#
# Youngs Moduli (GPa) = 6.06584 116.17466 63.70792
#
# Poissons Ratio (x) = 0.25148 1.78587
# Poissons Ratio (y) = 0.01313 0.32796
# Poissons Ratio (z) = 0.17004 0.59805
#
# Static dielectric constant tensor:
#      x y z
#    x 1.675050 0.000000 0.000000 
#    y 0.000000 1.653510 0.000000 
#    z 0.000000 0.000000 1.686220 
# 
# From -- ./inp_files/73392.got.cif
#   From: 2010.05.17/outbox.cif.g08.bks.cpg/sg65_37_cif.got.tgz:73392.got - 2010.06.03 17:01:31.
