data_PCOD9492575
_publ_section_title
;
Structure prediction by ZEFSAII (Michael W. Deem and Ramdas Pophale) SiO2 
 PCOD9492575
Probable space group: C M M M
;
_chemical_formula_sum "Si O2"
_cell_formula_units_Z 88
_cell_length_a 8.485138
_cell_length_b 17.317931
_cell_length_c 30.762553
_cell_angle_alpha 90.000000
_cell_angle_beta 90.000000
_cell_angle_gamma 90.000000
_cell_volume 4520.404409
_symmetry_space_group_name_H-M "C M M M"
_symmetry_group_IT_number 65
_symmetry_cell_setting 'orthorhombic'
loop_
_space_group_symop_operation_xyz
x,y,z
-x,-y,z
x,-y,-z
-x,y,-z
-x,-y,-z
x,y,-z
-x,y,z
x,-y,z
1/2+x,1/2+y,z
1/2-x,1/2-y,z
1/2+x,1/2-y,-z
1/2-x,1/2+y,-z
1/2-x,1/2-y,-z
1/2+x,1/2+y,-z
1/2-x,1/2+y,z
1/2+x,1/2-y,z
loop_
_atom_site_type_symbol
_atom_site_label
_atom_site_fract_x
_atom_site_fract_y
_atom_site_fract_z
Si Si1 0.187617 0.000000 0.551630
Si Si2 0.186403 0.333811 0.132057
Si Si3 0.690144 0.161871 0.593694
Si Si4 0.309997 0.165270 0.693715
Si Si5 0.818362 0.907557 0.952815
Si Si6 0.807662 0.587198 0.218989
O O1 0.254000 0.917191 0.569621
O O2 0.216179 0.000000 0.500000
O O3 0.000000 0.000000 0.559840
O O4 0.250000 0.250000 0.122699
O O5 0.229871 0.384469 0.090566
O O6 0.250734 0.362139 0.178712
O O7 0.000000 0.332402 0.136292
O O8 0.500000 0.164761 0.590888
O O9 0.750000 0.250000 0.581094
O O10 0.740736 0.149699 0.644193
O O11 0.500000 0.163803 0.692986
O O12 0.250000 0.250000 0.705040
O O13 0.254714 0.111158 0.732855
O O14 0.000000 0.880867 0.949410
O O15 0.820157 0.000000 0.954412
O O16 0.755205 0.880079 0.000000
O O17 0.762328 0.500000 0.209763
O O18 0.000000 0.591088 0.219738
#
# Coordination Sequence:
#
# PCOD9492575 Si02
#       6
#     8  16  16  16  16  16
#     4  11  25  43  63  89 123 163 207 259 312 363
#     4  11  22  35  53  77 106 143 181 222 269 319
#     4  10  21  38  63  93 124 163 206 252 307 365
#     4   9  18  33  56  82 112 148 186 228 278 336
#     4   9  19  37  59  80 103 133 169 215 272 329
#     4   9  18  32  52  78 108 142 181 224 271 327
#
# _framework density 19.467285
#
# number of rings (size 3 to 8) (size 9 to 14) (size 15 to 20)
#    0.000    2.273    0.000    3.000    1.273    3.636 
#    0.000    1.818    0.000    2.182    0.000    0.000 
#    0.000    0.000    0.000    0.000    0.000    0.000 
#
# Total GULP energy -245098.716558 kJ/mol
# GULP energy per Si atom -5570.425376 kJ/mol
# Density = 1.942298 g / cm^3
# Si number density = 19.467285 Si / 1000 Ang^3
#
#
#
# Elastic Constant Matrix: (Units=GPa)
#
#
# Indices 1 2 3 4 5 6 
#
# 1 30.5579 27.0592 28.9730 0.0000 0.0000 0.0000
# 2 27.0592 92.6851 51.2243 0.0000 0.0000 0.0000
# 3 28.9730 51.2243 87.9509 0.0000 0.0000 0.0000
# 4 0.0000 0.0000 0.0000 80.3359 0.0000 0.0000
# 5 0.0000 0.0000 0.0000 0.0000 14.1491 0.0000
# 6 0.0000 0.0000 0.0000 0.0000 0.0000 26.1553
#
#
#
# Elastic Compliance Matrix: (Units=1/GPa)
#
#
# Indices 1 2 3 4 5 6 
#
# 1 0.051644 -0.008369 -0.012139 0.000000 0.000000 0.000000
# 2 -0.008369 0.017267 -0.007300 0.000000 0.000000 0.000000
# 3 -0.012139 -0.007300 0.019620 0.000000 0.000000 0.000000
# 4 0.000000 0.000000 0.000000 0.012448 0.000000 0.000000
# 5 0.000000 0.000000 0.000000 0.000000 0.070676 0.000000
# 6 0.000000 0.000000 0.000000 0.000000 0.000000 0.038233
#
#
# Mechanical properties :
#
#
# Convention : Reuss Voigt Hill
#
# Bulk Modulus (GPa) = 30.37930 47.30080 38.84005
# Shear Modulus (GPa) = 18.08482 31.05722 24.57102
#
# Velocity S-wave (km/s) = 3.05123 3.99852 3.55656
# Velocity P-wave (km/s) = 5.29647 6.75780 6.07126
#
# Compressibility (1/GPa) = 0.03291715
#
# Stress axis : x y z
#
# Youngs Moduli (GPa) = 19.36316 57.91477 50.96786
#
# Poissons Ratio (x) = 0.48468 0.61869
# Poissons Ratio (y) = 0.16205 0.37205
# Poissons Ratio (z) = 0.23504 0.42276
#
# Static dielectric constant tensor:
#      x y z
#    x 1.697530 0.000000 0.000000 
#    y 0.000000 1.669760 0.000000 
#    z 0.000000 0.000000 1.696740 
# 
# From -- ./inp_files/76577.got.cif
#   From: 2010.05.17/outbox.cif.g08.bks.cpg/sg65_39_cif.got.tgz:76577.got - 2010.06.03 17:01:31.
