data_PCOD9492598
_publ_section_title
;
Structure prediction by ZEFSAII (Michael W. Deem and Ramdas Pophale) SiO2 
 PCOD9492598
Probable space group: C M M M
;
_chemical_formula_sum "Si O2"
_cell_formula_units_Z 112
_cell_length_a 16.029444
_cell_length_b 15.323614
_cell_length_c 23.550314
_cell_angle_alpha 90.000000
_cell_angle_beta 90.000000
_cell_angle_gamma 90.000000
_cell_volume 5784.640372
_symmetry_space_group_name_H-M "C M M M"
_symmetry_group_IT_number 65
_symmetry_cell_setting 'orthorhombic'
loop_
_space_group_symop_operation_xyz
x,y,z
-x,-y,z
x,-y,-z
-x,y,-z
-x,-y,-z
x,y,-z
-x,y,z
x,-y,z
1/2+x,1/2+y,z
1/2-x,1/2-y,z
1/2+x,1/2-y,-z
1/2-x,1/2+y,-z
1/2-x,1/2-y,-z
1/2+x,1/2+y,-z
1/2-x,1/2+y,z
1/2+x,1/2-y,z
loop_
_atom_site_type_symbol
_atom_site_label
_atom_site_fract_x
_atom_site_fract_y
_atom_site_fract_z
Si Si1 0.701977 0.405473 0.235383
Si Si2 0.748263 0.348737 0.643036
Si Si3 0.595189 0.290282 0.159084
Si Si4 0.696614 0.397893 0.933964
Si Si5 0.904948 0.605409 0.434957
Si Si6 0.092540 0.894504 0.565967
Si Si7 0.650212 0.097382 0.856003
O O1 0.660343 0.500000 0.224600
O O2 0.730727 0.402068 0.300172
O O3 0.643398 0.326838 0.214535
O O4 0.783104 0.402434 0.195464
O O5 0.750000 0.250000 0.662749
O O6 0.833055 0.368240 0.608736
O O7 0.669920 0.360556 0.601245
O O8 0.500000 0.318704 0.160879
O O9 0.642478 0.335899 0.106349
O O10 0.599131 0.185711 0.152382
O O11 0.672121 0.500000 0.926278
O O12 0.791831 0.392385 0.911849
O O13 0.689370 0.375650 0.000000
O O14 0.886422 0.634315 0.500000
O O15 0.905648 0.500000 0.435807
O O16 0.000000 0.634000 0.420946
O O17 0.100103 0.869032 0.500000
O O18 0.000000 0.867318 0.586203
O O19 0.095156 0.000000 0.568027
O O20 0.610914 0.000000 0.857122
#
# Coordination Sequence:
#
# PCOD9492598 Si02
#       7
#    16  16  16  16  16  16  16
#     4  10  21  39  60  77 100 139 186 234 278 325
#     4  12  23  34  54  82 111 143 179 224 280 343
#     4  11  22  35  55  84 117 148 180 228 287 341
#     4   9  18  34  58  85 112 148 194 240 283 328
#     4   9  19  37  59  81 107 140 178 223 277 337
#     4   9  19  36  55  75 103 141 185 230 274 327
#     4   9  19  37  58  79 108 148 189 226 269 327
#
# _framework density 19.361618
#
# number of rings (size 3 to 8) (size 9 to 14) (size 15 to 20)
#    0.000    2.143    0.000    6.429    0.000    6.286 
#    0.000    4.286    0.000    0.857    0.000    3.000 
#    0.000    0.000    0.000    0.000    0.000    0.000 
#
# Total GULP energy -312378.501810 kJ/mol
# GULP energy per Si atom -5578.187532 kJ/mol
# Density = 1.931755 g / cm^3
# Si number density = 19.361618 Si / 1000 Ang^3
#
#
#
# Elastic Constant Matrix: (Units=GPa)
#
#
# Indices 1 2 3 4 5 6 
#
# 1 86.8298 25.4881 47.1342 0.0000 0.0000 0.0000
# 2 25.4881 94.1065 22.1827 0.0000 0.0000 0.0000
# 3 47.1342 22.1827 96.7175 0.0000 0.0000 0.0000
# 4 0.0000 0.0000 0.0000 23.0802 0.0000 0.0000
# 5 0.0000 0.0000 0.0000 0.0000 5.9733 0.0000
# 6 0.0000 0.0000 0.0000 0.0000 0.0000 8.1013
#
#
#
# Elastic Compliance Matrix: (Units=1/GPa)
#
#
# Indices 1 2 3 4 5 6 
#
# 1 0.016276 -0.002684 -0.007317 0.000000 0.000000 0.000000
# 2 -0.002684 0.011676 -0.001370 0.000000 0.000000 0.000000
# 3 -0.007317 -0.001370 0.014219 0.000000 0.000000 0.000000
# 4 0.000000 0.000000 0.000000 0.043327 0.000000 0.000000
# 5 0.000000 0.000000 0.000000 0.000000 0.167413 0.000000
# 6 0.000000 0.000000 0.000000 0.000000 0.000000 0.123437
#
#
# Mechanical properties :
#
#
# Convention : Reuss Voigt Hill
#
# Bulk Modulus (GPa) = 51.46427 51.91817 51.69122
# Shear Modulus (GPa) = 12.32845 19.62088 15.97466
#
# Velocity S-wave (km/s) = 2.52612 3.18683 2.87552
# Velocity P-wave (km/s) = 5.92846 6.35723 6.14659
#
# Compressibility (1/GPa) = 0.01943096
#
# Stress axis : x y z
#
# Youngs Moduli (GPa) = 61.43947 85.64522 70.32719
#
# Poissons Ratio (x) = 0.22984 0.51455
# Poissons Ratio (y) = 0.16488 0.09636
# Poissons Ratio (z) = 0.44952 0.11734
#
# Static dielectric constant tensor:
#      x y z
#    x 1.650010 0.000000 0.000000 
#    y 0.000000 1.842220 0.000000 
#    z 0.000000 0.000000 1.659830 
# 
# From -- ./inp_files/70048.got.cif
#   From: 2010.05.17/outbox.cif.g08.bks.cpg/sg65_36_cif.got.tgz:70048.got - 2010.06.03 17:01:31.
