data_PCOD9492753
_publ_section_title
;
Structure prediction by ZEFSAII (Michael W. Deem and Ramdas Pophale) SiO2 
 PCOD9492753
Probable space group: C M M M
;
_chemical_formula_sum "Si O2"
_cell_formula_units_Z 64
_cell_length_a 24.210163
_cell_length_b 15.668661
_cell_length_c 9.196791
_cell_angle_alpha 90.000000
_cell_angle_beta 90.000000
_cell_angle_gamma 90.000000
_cell_volume 3488.718394
_symmetry_space_group_name_H-M "C M M M"
_symmetry_group_IT_number 65
_symmetry_cell_setting 'orthorhombic'
loop_
_space_group_symop_operation_xyz
x,y,z
-x,-y,z
x,-y,-z
-x,y,-z
-x,-y,-z
x,y,-z
-x,y,z
x,-y,z
1/2+x,1/2+y,z
1/2-x,1/2-y,z
1/2+x,1/2-y,-z
1/2-x,1/2+y,-z
1/2-x,1/2-y,-z
1/2+x,1/2+y,-z
1/2-x,1/2+y,z
1/2+x,1/2-y,z
loop_
_atom_site_type_symbol
_atom_site_label
_atom_site_fract_x
_atom_site_fract_y
_atom_site_fract_z
Si Si1 0.000000 0.141325 0.170699
Si Si2 0.105046 0.601377 0.829375
Si Si3 0.772182 0.655375 0.826256
Si Si4 0.000000 0.320502 0.327524
Si Si5 0.907154 0.000000 0.829040
Si Si6 0.290709 0.500000 0.673690
O O1 0.000000 0.223923 0.269309
O O2 0.053549 0.081879 0.195146
O O3 0.000000 0.165999 0.000000
O O4 0.113066 0.500000 0.811102
O O5 0.162746 0.647032 0.793523
O O6 0.054262 0.633800 0.735455
O O7 0.092812 0.617183 0.000000
O O8 0.750000 0.750000 0.795507
O O9 0.739439 0.583257 0.739084
O O10 0.765631 0.639174 0.000000
O O11 0.000000 0.323305 0.500000
O O12 0.853576 0.000000 0.730111
O O13 0.891004 0.000000 0.000000
O O14 0.288004 0.500000 0.500000
#
# Coordination Sequence:
#
# PCOD9492753 Si02
#       6
#     8  16  16   8   8   8
#     4   9  20  41  65  89 114 154 209 258 297 342
#     4  10  21  41  65  88 116 154 206 258 300 350
#     4  10  22  42  68  94 120 160 215 263 301 355
#     4  12  26  38  57  90 128 159 192 241 308 379
#     4   9  20  40  66  88 115 157 209 256 293 347
#     4  12  25  39  61  95 135 168 195 244 316 386
#
# _framework density 18.344846
#
# number of rings (size 3 to 8) (size 9 to 14) (size 15 to 20)
#    0.000    1.750    1.250    3.375    3.500    4.500 
#    0.000    1.250    0.000    0.000    0.000    0.000 
#    0.000    0.000    0.000    0.000    0.000    0.000 
#
# Total GULP energy -178859.831963 kJ/mol
# GULP energy per Si atom -5589.369749 kJ/mol
# Density = 1.830309 g / cm^3
# Si number density = 18.344846 Si / 1000 Ang^3
#
#
#
# Elastic Constant Matrix: (Units=GPa)
#
#
# Indices 1 2 3 4 5 6 
#
# 1 169.3662 86.5850 107.0554 0.0000 0.0000 0.0000
# 2 86.5850 114.1269 80.4935 0.0000 0.0000 0.0000
# 3 107.0554 80.4935 104.9487 0.0000 0.0000 0.0000
# 4 0.0000 0.0000 0.0000 0.5585 0.0000 0.0000
# 5 0.0000 0.0000 0.0000 0.0000 -15.7234 0.0000
# 6 0.0000 0.0000 0.0000 0.0000 0.0000 124.0175
#
#
#
# Elastic Compliance Matrix: (Units=1/GPa)
#
#
# Indices 1 2 3 4 5 6 
#
# 1 0.016728 -0.001429 -0.015968 0.000000 0.000000 0.000000
# 2 -0.001429 0.019210 -0.013276 0.000000 0.000000 0.000000
# 3 -0.015968 -0.013276 0.035999 0.000000 0.000000 0.000000
# 4 0.000000 0.000000 0.000000 1.790373 0.000000 0.000000
# 5 0.000000 0.000000 0.000000 0.000000 -0.063599 0.000000
# 6 0.000000 0.000000 0.000000 0.000000 0.000000 0.008063
#
#
# Mechanical properties :
#
#
# Convention : Reuss Voigt Hill
#
# Bulk Modulus (GPa) = 94.41411 104.07884 99.24648
# Shear Modulus (GPa) = 2.67144 29.39104 16.03124
#
# Velocity S-wave (km/s) = 1.20805 4.00702 2.95936
# Velocity P-wave (km/s) = 7.31600 8.84681 8.11757
#
# Compressibility (1/GPa) = 0.01059164
#
# Stress axis : x y z
#
# Youngs Moduli (GPa) = 59.77932 52.05712 27.77848
#
# Poissons Ratio (x) = 0.07439 0.44356
# Poissons Ratio (y) = 0.08543 0.36878
# Poissons Ratio (z) = 0.95455 0.69109
#
# Static dielectric constant tensor:
#      x y z
#    x 1.609050 0.000000 0.000000 
#    y 0.000000 1.610870 0.000000 
#    z 0.000000 0.000000 1.602670 
# 
# From -- ./inp_files/6834.got.cif
#   From: 2010.05.17/outbox.cif.g08.bks.cpg/sg65_4_cif.got.tgz:6834.got - 2010.06.03 17:01:31.
