data_PCOD9492426
_publ_section_title
;
Structure prediction by ZEFSAII (Michael W. Deem and Ramdas Pophale) SiO2 
 PCOD9492426
Probable space group: C M M M
;
_chemical_formula_sum "Si O2"
_cell_formula_units_Z 64
_cell_length_a 8.068722
_cell_length_b 28.370441
_cell_length_c 14.065021
_cell_angle_alpha 90.000000
_cell_angle_beta 90.000000
_cell_angle_gamma 90.000000
_cell_volume 3219.668986
_symmetry_space_group_name_H-M "C M M M"
_symmetry_group_IT_number 65
_symmetry_cell_setting 'orthorhombic'
loop_
_space_group_symop_operation_xyz
x,y,z
-x,-y,z
x,-y,-z
-x,y,-z
-x,-y,-z
x,y,-z
-x,y,z
x,-y,z
1/2+x,1/2+y,z
1/2-x,1/2-y,z
1/2+x,1/2-y,-z
1/2-x,1/2+y,-z
1/2-x,1/2-y,-z
1/2+x,1/2+y,-z
1/2-x,1/2+y,z
1/2+x,1/2-y,z
loop_
_atom_site_type_symbol
_atom_site_label
_atom_site_fract_x
_atom_site_fract_y
_atom_site_fract_z
Si Si1 0.811451 0.382445 0.386636
Si Si2 0.193538 0.303489 0.234883
Si Si3 0.000000 0.553948 0.116284
Si Si4 0.000000 0.053655 0.383949
Si Si5 0.682298 0.614305 0.114049
O O1 0.799214 0.375758 0.500000
O O2 0.787183 0.333344 0.331808
O O3 0.666133 0.418062 0.357057
O O4 0.000000 0.399165 0.366222
O O5 0.250000 0.250000 0.243503
O O6 0.292260 0.334093 0.157788
O O7 0.000000 0.304521 0.208645
O O8 0.835409 0.581972 0.146256
O O9 0.000000 0.500000 0.148693
O O10 0.000000 0.553336 0.000000
O O11 0.000000 0.052062 0.500000
O O12 0.000000 0.000000 0.349179
O O13 0.500000 0.595856 0.140354
O O14 0.689857 0.616820 0.000000
#
# Coordination Sequence:
#
# PCOD9492426 Si02
#       5
#    16  16   8   8  16
#     4   9  20  38  58  83 117 150 187 234 280 335
#     4  11  23  38  60  85 115 153 190 236 289 340
#     4   9  18  36  61  86 115 151 190 235 284 334
#     4   9  18  34  59  86 111 149 192 231 282 332
#     4  10  21  38  60  85 117 152 190 236 282 336
#
# _framework density 19.877818000000001
#
# number of rings (size 3 to 8) (size 9 to 14) (size 15 to 20)
#    0.000    2.250    1.250    0.750    3.500    2.000 
#    0.000    6.250    0.000    0.000    0.000    0.000 
#    0.000    0.000    0.000    0.000    0.000    0.000 
#
# Total GULP energy -178720.277211 kJ/mol
# GULP energy per Si atom -5585.008663 kJ/mol
# Density = 1.983258 g / cm^3
# Si number density = 19.877818 Si / 1000 Ang^3
#
#
#
# Elastic Constant Matrix: (Units=GPa)
#
#
# Indices 1 2 3 4 5 6 
#
# 1 186.6689 105.1320 46.3534 0.0000 0.0000 0.0000
# 2 105.1320 158.8606 18.5095 0.0000 0.0000 0.0000
# 3 46.3534 18.5095 53.2330 0.0000 0.0000 0.0000
# 4 0.0000 0.0000 0.0000 27.2307 0.0000 0.0000
# 5 0.0000 0.0000 0.0000 0.0000 23.0723 0.0000
# 6 0.0000 0.0000 0.0000 0.0000 0.0000 2.8564
#
#
#
# Elastic Compliance Matrix: (Units=1/GPa)
#
#
# Indices 1 2 3 4 5 6 
#
# 1 0.010602 -0.006191 -0.007079 0.000000 0.000000 0.000000
# 2 -0.006191 0.010176 0.001853 0.000000 0.000000 0.000000
# 3 -0.007079 0.001853 0.024305 0.000000 0.000000 0.000000
# 4 0.000000 0.000000 0.000000 0.036723 0.000000 0.000000
# 5 0.000000 0.000000 0.000000 0.000000 0.043342 0.000000
# 6 0.000000 0.000000 0.000000 0.000000 0.000000 0.350095
#
#
# Mechanical properties :
#
#
# Convention : Reuss Voigt Hill
#
# Bulk Modulus (GPa) = 44.94695 82.08360 63.51528
# Shear Modulus (GPa) = 9.89129 25.88304 17.88716
#
# Velocity S-wave (km/s) = 2.23312 3.61239 3.00301
# Velocity P-wave (km/s) = 5.41386 7.66700 6.63674
#
# Compressibility (1/GPa) = 0.02224845
#
# Stress axis : x y z
#
# Youngs Moduli (GPa) = 94.32230 98.26702 41.14339
#
# Poissons Ratio (x) = 0.60841 0.29125
# Poissons Ratio (y) = 0.58399 -0.07623
# Poissons Ratio (z) = 0.66771 -0.18208
#
# Static dielectric constant tensor:
#      x y z
#    x 1.716690 0.000000 0.000000 
#    y 0.000000 1.641070 0.000000 
#    z 0.000000 0.000000 1.721550 
# 
# From -- ./inp_files/36057.got.cif
#   From: 2010.05.17/outbox.cif.g08.bks.cpg/sg65_19_cif.got.tgz:36057.got - 2010.06.03 17:01:31.
