data_PCOD9492050
_publ_section_title
;
Structure prediction by ZEFSAII (Michael W. Deem and Ramdas Pophale) SiO2 
 PCOD9492050
Probable space group: C M M M
;
_chemical_formula_sum "Si O2"
_cell_formula_units_Z 104
_cell_length_a 24.080093
_cell_length_b 26.733744
_cell_length_c 9.006368
_cell_angle_alpha 90.000000
_cell_angle_beta 90.000000
_cell_angle_gamma 90.000000
_cell_volume 5797.858782
_symmetry_space_group_name_H-M "C M M M"
_symmetry_group_IT_number 65
_symmetry_cell_setting 'orthorhombic'
loop_
_space_group_symop_operation_xyz
x,y,z
-x,-y,z
x,-y,-z
-x,y,-z
-x,-y,-z
x,y,-z
-x,y,z
x,-y,z
1/2+x,1/2+y,z
1/2-x,1/2-y,z
1/2+x,1/2-y,-z
1/2-x,1/2+y,-z
1/2-x,1/2-y,-z
1/2+x,1/2+y,-z
1/2-x,1/2+y,z
1/2+x,1/2-y,z
loop_
_atom_site_type_symbol
_atom_site_label
_atom_site_fract_x
_atom_site_fract_y
_atom_site_fract_z
Si Si1 0.066668 0.896618 0.825850
Si Si2 0.435573 0.138507 0.678104
Si Si3 0.932461 0.000000 0.670934
Si Si4 0.150596 0.824220 0.676860
Si Si5 0.342594 0.058115 0.321850
Si Si6 0.644880 0.216351 0.824854
Si Si7 0.259666 0.866381 0.824849
O O1 0.084525 0.949661 0.755415
O O2 0.096631 0.852342 0.739331
O O3 0.000000 0.893016 0.812230
O O4 0.080730 0.894974 0.000000
O O5 0.432158 0.146420 0.500000
O O6 0.500000 0.132571 0.718021
O O7 0.398386 0.089647 0.712735
O O8 0.406633 0.184886 0.760042
O O9 0.913698 0.000000 0.500000
O O10 0.000000 0.000000 0.670030
O O11 0.150710 0.823547 0.500000
O O12 0.152494 0.768218 0.740558
O O13 0.203589 0.854275 0.738643
O O14 0.334161 0.061430 0.500000
O O15 0.292400 0.086103 0.239900
O O16 0.347279 0.000000 0.281550
O O17 0.698516 0.180696 0.805338
O O18 0.637745 0.225605 0.000000
O O19 0.248959 0.872227 0.000000
#
# Coordination Sequence:
#
# PCOD9492050 Si02
#       7
#    16  16   8  16  16  16  16
#     4  10  21  38  59  82 110 144 181 221 267 321
#     4   9  18  33  54  82 115 151 191 232 277 331
#     4   9  17  33  57  81 107 139 173 211 258 311
#     4  12  24  37  57  84 111 141 181 229 278 332
#     4   9  18  34  56  82 114 150 188 233 283 332
#     4  10  21  37  57  79 108 146 184 227 278 332
#     4  10  21  38  58  80 108 143 185 229 277 335
#
# _framework density 17.937657000000002
#
# number of rings (size 3 to 8) (size 9 to 14) (size 15 to 20)
#    0.000    2.077    0.000    3.462    0.000    7.077 
#    1.385    1.538    0.000    0.000    0.000    4.308 
#    0.000    0.000    0.000    0.000    0.000    0.000 
#
# Total GULP energy -290390.724584 kJ/mol
# GULP energy per Si atom -5584.437011 kJ/mol
# Density = 1.789683 g / cm^3
# Si number density = 17.937657 Si / 1000 Ang^3
#
#
#
# Elastic Constant Matrix: (Units=GPa)
#
#
# Indices 1 2 3 4 5 6 
#
# 1 67.9423 35.2829 50.3597 0.0000 0.0000 0.0000
# 2 35.2829 -7.5255 19.3085 0.0000 0.0000 0.0000
# 3 50.3597 19.3085 91.7712 0.0000 0.0000 0.0000
# 4 0.0000 0.0000 0.0000 30.1487 0.0000 0.0000
# 5 0.0000 0.0000 0.0000 0.0000 23.6655 0.0000
# 6 0.0000 0.0000 0.0000 0.0000 0.0000 6.7695
#
#
#
# Elastic Compliance Matrix: (Units=1/GPa)
#
#
# Indices 1 2 3 4 5 6 
#
# 1 0.010764 0.022932 -0.010732 0.000000 0.000000 0.000000
# 2 0.022932 -0.037442 -0.004706 0.000000 0.000000 0.000000
# 3 -0.010732 -0.004706 0.017776 0.000000 0.000000 0.000000
# 4 0.000000 0.000000 0.000000 0.033169 0.000000 0.000000
# 5 0.000000 0.000000 0.000000 0.000000 0.042256 0.000000
# 6 0.000000 0.000000 0.000000 0.000000 0.000000 0.147721
#
#
# Mechanical properties :
#
#
# Convention : Reuss Voigt Hill
#
# Bulk Modulus (GPa) = 164.30042 40.23226 102.26634
# Shear Modulus (GPa) = 24.84040 15.26587 20.05313
#
# Velocity S-wave (km/s) = 3.72535 2.92044 3.34718
# Velocity P-wave (km/s) = 10.50231 5.81804 8.48964
#
# Compressibility (1/GPa) = 0.00608641
#
# Stress axis : x y z
#
# Youngs Moduli (GPa) = 92.90163 -26.70830 56.25583
#
# Poissons Ratio (x) = 0.61248 0.60372
# Poissons Ratio (y) = -2.13043 0.26476
# Poissons Ratio (z) = 0.99699 -0.12570
#
# Static dielectric constant tensor:
#      x y z
#    x 1.603020 0.000000 0.000000 
#    y 0.000000 1.587660 0.000000 
#    z 0.000000 0.000000 1.595490 
# 
# From -- ./inp_files/16804.got.cif
#   From: 2010.05.17/outbox.cif.g08.bks.cpg/sg65_9_cif.got.tgz:16804.got - 2010.06.03 17:01:31.
