data_PCOD9492743
_publ_section_title
;
Structure prediction by ZEFSAII (Michael W. Deem and Ramdas Pophale) SiO2 
 PCOD9492743
Probable space group: C M M M
;
_chemical_formula_sum "Si O2"
_cell_formula_units_Z 66
_cell_length_a 22.389852
_cell_length_b 18.013068
_cell_length_c 7.919476
_cell_angle_alpha 90.000000
_cell_angle_beta 90.000000
_cell_angle_gamma 90.000000
_cell_volume 3194.003284
_symmetry_space_group_name_H-M "C M M M"
_symmetry_group_IT_number 65
_symmetry_cell_setting 'orthorhombic'
loop_
_space_group_symop_operation_xyz
x,y,z
-x,-y,z
x,-y,-z
-x,y,-z
-x,-y,-z
x,y,-z
-x,y,z
x,-y,z
1/2+x,1/2+y,z
1/2-x,1/2-y,z
1/2+x,1/2-y,-z
1/2-x,1/2+y,-z
1/2-x,1/2-y,-z
1/2+x,1/2+y,-z
1/2-x,1/2+y,z
1/2+x,1/2-y,z
loop_
_atom_site_type_symbol
_atom_site_label
_atom_site_fract_x
_atom_site_fract_y
_atom_site_fract_z
Si Si1 0.625547 0.791927 0.798792
Si Si2 0.285885 0.917282 0.197434
Si Si3 0.567613 0.500000 0.797913
Si Si4 0.500000 0.000000 0.500000
Si Si5 0.500000 0.126426 0.200737
Si Si6 0.342864 0.627571 0.693613
O O1 0.671632 0.853681 0.729687
O O2 0.559200 0.823671 0.777518
O O3 0.637378 0.711976 0.720141
O O4 0.636092 0.782583 0.000000
O O5 0.217187 0.892815 0.206755
O O6 0.293275 0.000000 0.271398
O O7 0.302530 0.922503 0.000000
O O8 0.500000 0.500000 0.732399
O O9 0.604210 0.427875 0.742191
O O10 0.565736 0.500000 0.000000
O O11 0.500000 0.064362 0.346827
O O12 0.500000 0.100510 0.000000
O O13 0.327095 0.614719 0.500000
#
# Coordination Sequence:
#
# PCOD9492743 Si02
#       6
#    16  16   8   2   8  16
#     4  10  23  43  68  95 130 177 224 273 328 391
#     4  10  21  40  67  95 126 172 225 270 322 388
#     4  11  25  45  70  95 123 168 220 269 325 394
#     4  12  26  44  72  98 140 178 226 276 346 382
#     4  10  25  47  71 103 138 178 230 280 336 408
#     4  12  25  41  64  97 136 169 213 270 335 397
#
# _framework density 20.663723000000001
#
# number of rings (size 3 to 8) (size 9 to 14) (size 15 to 20)
#    0.000    1.333    1.212    3.455    5.091    4.848 
#    0.000    0.000    0.000    0.000    0.000    0.000 
#    0.000    0.000    0.000    0.000    0.000    0.000 
#
# Total GULP energy -184153.895912 kJ/mol
# GULP energy per Si atom -5580.421088 kJ/mol
# Density = 2.061669 g / cm^3
# Si number density = 20.663723 Si / 1000 Ang^3
#
#
#
# Elastic Constant Matrix: (Units=GPa)
#
#
# Indices 1 2 3 4 5 6 
#
# 1 126.4433 77.0996 -10.2297 0.0000 0.0000 0.0000
# 2 77.0996 195.1339 23.1724 0.0000 0.0000 0.0000
# 3 -10.2297 23.1724 55.7429 0.0000 0.0000 0.0000
# 4 0.0000 0.0000 0.0000 -23.1509 0.0000 0.0000
# 5 0.0000 0.0000 0.0000 0.0000 -308.8044 0.0000
# 6 0.0000 0.0000 0.0000 0.0000 0.0000 36.7173
#
#
#
# Elastic Compliance Matrix: (Units=1/GPa)
#
#
# Indices 1 2 3 4 5 6 
#
# 1 0.011250 -0.004934 0.004116 0.000000 0.000000 0.000000
# 2 -0.004934 0.007555 -0.004046 0.000000 0.000000 0.000000
# 3 0.004116 -0.004046 0.020377 0.000000 0.000000 0.000000
# 4 0.000000 0.000000 0.000000 -0.043195 0.000000 0.000000
# 5 0.000000 0.000000 0.000000 0.000000 -0.003238 0.000000
# 6 0.000000 0.000000 0.000000 0.000000 0.000000 0.027235
#
#
# Mechanical properties :
#
#
# Convention : Reuss Voigt Hill
#
# Bulk Modulus (GPa) = 33.95231 61.93385 47.94308
# Shear Modulus (GPa) = 126.48971 -39.89574 43.29698
#
# Velocity S-wave (km/s) = 7.83239 -4.39876 4.58243
# Velocity P-wave (km/s) = 9.91270 2.05878 7.15892
#
# Compressibility (1/GPa) = 0.02945307
#
# Stress axis : x y z
#
# Youngs Moduli (GPa) = 88.88879 132.37131 49.07577
#
# Poissons Ratio (x) = 0.65308 -0.20197
# Poissons Ratio (y) = 0.43855 0.19855
# Poissons Ratio (z) = -0.36582 0.53555
#
# Static dielectric constant tensor:
#      x y z
#    x 1.705950 0.000000 0.000000 
#    y 0.000000 1.715450 0.000000 
#    z 0.000000 0.000000 1.742840 
# 
# From -- ./inp_files/10954.got.cif
#   From: 2010.05.17/outbox.cif.g08.bks.cpg/sg65_6_cif.got.tgz:10954.got - 2010.06.03 17:01:31.
