data_PCOD9492213
_publ_section_title
;
Structure prediction by ZEFSAII (Michael W. Deem and Ramdas Pophale) SiO2 
 PCOD9492213
Probable space group: C M M M
;
_chemical_formula_sum "Si O2"
_cell_formula_units_Z 66
_cell_length_a 8.868264
_cell_length_b 16.619658
_cell_length_c 24.223536
_cell_angle_alpha 90.000000
_cell_angle_beta 90.000000
_cell_angle_gamma 90.000000
_cell_volume 3570.246769
_symmetry_space_group_name_H-M "C M M M"
_symmetry_group_IT_number 65
_symmetry_cell_setting 'orthorhombic'
loop_
_space_group_symop_operation_xyz
x,y,z
-x,-y,z
x,-y,-z
-x,y,-z
-x,-y,-z
x,y,-z
-x,y,z
x,-y,z
1/2+x,1/2+y,z
1/2-x,1/2-y,z
1/2+x,1/2-y,-z
1/2-x,1/2+y,-z
1/2-x,1/2-y,-z
1/2+x,1/2+y,-z
1/2-x,1/2+y,z
1/2+x,1/2-y,z
loop_
_atom_site_type_symbol
_atom_site_label
_atom_site_fract_x
_atom_site_fract_y
_atom_site_fract_z
Si Si1 0.667539 0.500000 0.885823
Si Si2 0.180028 0.337513 0.611175
Si Si3 0.500000 0.500000 0.000000
Si Si4 0.827050 0.903780 0.500000
Si Si5 0.820294 0.406621 0.270495
Si Si6 0.819983 0.165390 0.165493
O O1 0.500000 0.500000 0.857556
O O2 0.628964 0.500000 0.950506
O O3 0.736264 0.585179 0.867083
O O4 0.250000 0.250000 0.619470
O O5 0.246244 0.373523 0.555114
O O6 0.215776 0.389117 0.665741
O O7 0.000000 0.332476 0.606411
O O8 0.000000 0.874713 0.500000
O O9 0.826230 0.000000 0.500000
O O10 0.789236 0.500000 0.257867
O O11 0.728356 0.351326 0.228580
O O12 0.000000 0.392370 0.262914
O O13 0.750000 0.250000 0.146825
O O14 0.000000 0.171294 0.159797
#
# Coordination Sequence:
#
# PCOD9492213 Si02
#       6
#     8  16   2   8  16  16
#     4   8  18  36  61  85 119 162 206 240 295 352
#     4  11  23  39  58  81 112 148 192 242 302 364
#     4   8  16  40  68  84 126 170 212 250 294 360
#     4  11  24  41  60  81 105 141 192 245 304 365
#     4  10  21  37  58  87 119 157 197 249 305 365
#     4  11  21  36  58  91 124 161 206 250 305 363
#
# _framework density 18.486115999999999
#
# number of rings (size 3 to 8) (size 9 to 14) (size 15 to 20)
#    0.364    1.333    1.212    3.636    0.000    5.818 
#    0.000    0.606    0.000    0.000    0.000    3.394 
#    0.000    0.000    0.000    0.000    0.000    0.000 
#
# Total GULP energy -183865.486072 kJ/mol
# GULP energy per Si atom -5571.681396 kJ/mol
# Density = 1.844404 g / cm^3
# Si number density = 18.486116 Si / 1000 Ang^3
#
#
#
# Elastic Constant Matrix: (Units=GPa)
#
#
# Indices 1 2 3 4 5 6 
#
# 1 49.7266 38.4025 30.1347 0.0000 0.0000 0.0000
# 2 38.4025 128.1457 39.8504 0.0000 0.0000 0.0000
# 3 30.1347 39.8504 104.4393 0.0000 0.0000 0.0000
# 4 0.0000 0.0000 0.0000 5.8486 0.0000 0.0000
# 5 0.0000 0.0000 0.0000 0.0000 16.1191 0.0000
# 6 0.0000 0.0000 0.0000 0.0000 0.0000 37.3176
#
#
#
# Elastic Compliance Matrix: (Units=1/GPa)
#
#
# Indices 1 2 3 4 5 6 
#
# 1 0.028883 -0.006880 -0.005708 0.000000 0.000000 0.000000
# 2 -0.006880 0.010493 -0.002019 0.000000 0.000000 0.000000
# 3 -0.005708 -0.002019 0.011992 0.000000 0.000000 0.000000
# 4 0.000000 0.000000 0.000000 0.170981 0.000000 0.000000
# 5 0.000000 0.000000 0.000000 0.000000 0.062038 0.000000
# 6 0.000000 0.000000 0.000000 0.000000 0.000000 0.026797
#
#
# Mechanical properties :
#
#
# Convention : Reuss Voigt Hill
#
# Bulk Modulus (GPa) = 45.13965 55.45409 50.29687
# Shear Modulus (GPa) = 14.37673 23.45200 18.91437
#
# Velocity S-wave (km/s) = 2.79176 3.56564 3.20217
# Velocity P-wave (km/s) = 5.90449 6.85672 6.39834
#
# Compressibility (1/GPa) = 0.02215347
#
# Stress axis : x y z
#
# Youngs Moduli (GPa) = 34.62261 95.29937 83.38688
#
# Poissons Ratio (x) = 0.65569 0.47601
# Poissons Ratio (y) = 0.23822 0.16833
# Poissons Ratio (z) = 0.19764 0.19237
#
# Static dielectric constant tensor:
#      x y z
#    x 1.636980 0.000000 0.000000 
#    y 0.000000 1.664970 0.000000 
#    z 0.000000 0.000000 1.625830 
# 
# From -- ./inp_files/72420.got.cif
#   From: 2010.05.17/outbox.cif.g08.bks.cpg/sg65_37_cif.got.tgz:72420.got - 2010.06.03 17:01:31.
