data_PCOD9492566
_publ_section_title
;
Structure prediction by ZEFSAII (Michael W. Deem and Ramdas Pophale) SiO2 
 PCOD9492566
Probable space group: C M M M
;
_chemical_formula_sum "Si O2"
_cell_formula_units_Z 56
_cell_length_a 9.918184
_cell_length_b 26.455852
_cell_length_c 10.706993
_cell_angle_alpha 90.000000
_cell_angle_beta 90.000000
_cell_angle_gamma 90.000000
_cell_volume 2809.450807
_symmetry_space_group_name_H-M "C M M M"
_symmetry_group_IT_number 65
_symmetry_cell_setting 'orthorhombic'
loop_
_space_group_symop_operation_xyz
x,y,z
-x,-y,z
x,-y,-z
-x,y,-z
-x,-y,-z
x,y,-z
-x,y,z
x,-y,z
1/2+x,1/2+y,z
1/2-x,1/2-y,z
1/2+x,1/2-y,-z
1/2-x,1/2+y,-z
1/2-x,1/2-y,-z
1/2+x,1/2+y,-z
1/2-x,1/2+y,z
1/2+x,1/2-y,z
loop_
_atom_site_type_symbol
_atom_site_label
_atom_site_fract_x
_atom_site_fract_y
_atom_site_fract_z
Si Si1 0.661668 0.302968 0.500000
Si Si2 0.153917 0.208631 0.144550
Si Si3 0.236278 0.880478 0.726944
Si Si4 0.500000 0.941349 0.349870
Si Si5 0.000000 0.060062 0.146715
O O1 0.500000 0.291416 0.500000
O O2 0.750000 0.250000 0.500000
O O3 0.695266 0.340830 0.616771
O O4 0.250000 0.250000 0.206714
O O5 0.237111 0.157295 0.156266
O O6 0.000000 0.204248 0.193919
O O7 0.138171 0.221652 0.000000
O O8 0.369788 0.910427 0.694064
O O9 0.124831 0.920257 0.771391
O O10 0.500000 0.942024 0.500000
O O11 0.500000 0.000000 0.307090
O O12 0.000000 0.000000 0.140152
O O13 0.000000 0.078896 0.000000
#
# Coordination Sequence:
#
# PCOD9492566 Si02
#       5
#     8  16  16   8   8
#     4  12  26  42  67 106 142 182 227 276 343 418
#     4  10  21  38  62  94 130 173 221 269 328 398
#     4  12  23  43  67  98 136 177 223 279 341 411
#     4  11  26  46  67  95 133 176 224 277 337 402
#     4  11  24  45  73 101 133 177 231 295 353 404
#
# _framework density 19.932721999999998
#
# number of rings (size 3 to 8) (size 9 to 14) (size 15 to 20)
#    0.000    0.857    4.286    2.571    4.000    0.000 
#    0.000    2.857    0.000    5.143    0.000    0.000 
#    0.000    0.000    0.000    0.000    0.000    0.000 
#
# Total GULP energy -155960.130027 kJ/mol
# GULP energy per Si atom -5570.004644 kJ/mol
# Density = 1.988735 g / cm^3
# Si number density = 19.932722 Si / 1000 Ang^3
#
#
#
# Elastic Constant Matrix: (Units=GPa)
#
#
# Indices 1 2 3 4 5 6 
#
# 1 199.9260 109.8293 60.8160 0.0000 0.0000 0.0000
# 2 109.8293 158.5829 34.8631 0.0000 0.0000 0.0000
# 3 60.8160 34.8631 90.9880 0.0000 0.0000 0.0000
# 4 0.0000 0.0000 0.0000 32.9982 0.0000 0.0000
# 5 0.0000 0.0000 0.0000 0.0000 39.9836 0.0000
# 6 0.0000 0.0000 0.0000 0.0000 0.0000 47.1596
#
#
#
# Elastic Compliance Matrix: (Units=1/GPa)
#
#
# Indices 1 2 3 4 5 6 
#
# 1 0.009283 -0.005531 -0.004086 0.000000 0.000000 0.000000
# 2 -0.005531 0.010181 -0.000204 0.000000 0.000000 0.000000
# 3 -0.004086 -0.000204 0.013799 0.000000 0.000000 0.000000
# 4 0.000000 0.000000 0.000000 0.030305 0.000000 0.000000
# 5 0.000000 0.000000 0.000000 0.000000 0.025010 0.000000
# 6 0.000000 0.000000 0.000000 0.000000 0.000000 0.021205
#
#
# Mechanical properties :
#
#
# Convention : Reuss Voigt Hill
#
# Bulk Modulus (GPa) = 73.40826 95.61263 84.51044
# Shear Modulus (GPa) = 37.32301 40.29417 38.80859
#
# Velocity S-wave (km/s) = 4.33187 4.50100 4.41725
# Velocity P-wave (km/s) = 7.86944 8.66509 8.27683
#
# Compressibility (1/GPa) = 0.01362245
#
# Stress axis : x y z
#
# Youngs Moduli (GPa) = 107.72285 98.21901 72.46670
#
# Poissons Ratio (x) = 0.54325 0.29606
# Poissons Ratio (y) = 0.59581 0.01480
# Poissons Ratio (z) = 0.44010 0.02006
#
# Static dielectric constant tensor:
#      x y z
#    x 1.735060 0.000000 0.000000 
#    y 0.000000 1.758310 0.000000 
#    z 0.000000 0.000000 1.800300 
# 
# From -- ./inp_files/20505.got.cif
#   From: 2010.05.17/outbox.cif.g08.bks.cpg/sg65_11_cif.got.tgz:20505.got - 2010.06.03 17:01:31.
