data_PCOD9492769
_publ_section_title
;
Structure prediction by ZEFSAII (Michael W. Deem and Ramdas Pophale) SiO2 
 PCOD9492769
Probable space group: C M M M
;
_chemical_formula_sum "Si O2"
_cell_formula_units_Z 66
_cell_length_a 8.758927
_cell_length_b 15.748284
_cell_length_c 26.215335
_cell_angle_alpha 90.000000
_cell_angle_beta 90.000000
_cell_angle_gamma 90.000000
_cell_volume 3616.092713
_symmetry_space_group_name_H-M "C M M M"
_symmetry_group_IT_number 65
_symmetry_cell_setting 'orthorhombic'
loop_
_space_group_symop_operation_xyz
x,y,z
-x,-y,z
x,-y,-z
-x,y,-z
-x,-y,-z
x,y,-z
-x,y,z
x,-y,z
1/2+x,1/2+y,z
1/2-x,1/2-y,z
1/2+x,1/2-y,-z
1/2-x,1/2+y,-z
1/2-x,1/2-y,-z
1/2+x,1/2+y,-z
1/2-x,1/2+y,z
1/2+x,1/2-y,z
loop_
_atom_site_type_symbol
_atom_site_label
_atom_site_fract_x
_atom_site_fract_y
_atom_site_fract_z
Si Si1 0.683598 0.340523 0.372687
Si Si2 0.500000 0.000000 0.000000
Si Si3 0.814216 0.000000 0.441672
Si Si4 0.180573 0.601967 0.735017
Si Si5 0.681851 0.659986 0.158168
Si Si6 0.831404 0.500000 0.105530
O O1 0.500000 0.337301 0.371241
O O2 0.750000 0.250000 0.388844
O O3 0.731981 0.416181 0.410597
O O4 0.746077 0.362357 0.316531
O O5 0.369848 0.000000 0.954197
O O6 0.760725 0.000000 0.500000
O O7 0.000000 0.000000 0.442474
O O8 0.200793 0.500000 0.736186
O O9 0.259391 0.641146 0.784665
O O10 0.000000 0.620770 0.735822
O O11 0.500000 0.662692 0.157502
O O12 0.750000 0.750000 0.141231
O O13 0.743613 0.583446 0.123532
O O14 0.000000 0.500000 0.131996
#
# Coordination Sequence:
#
# PCOD9492769 Si02
#       6
#    16   2   8  16  16   8
#     4  11  22  38  60  86 121 158 202 253 308 373
#     4   8  24  44  78  88 132 166 214 268 318 360
#     4   9  20  39  61  83 111 154 205 256 311 369
#     4  11  22  37  60  91 127 167 203 249 309 376
#     4  12  24  39  65  98 133 169 210 256 310 377
#     4  10  21  44  68  93 125 165 208 261 314 358
#
# _framework density 18.251743999999999
#
# number of rings (size 3 to 8) (size 9 to 14) (size 15 to 20)
#    0.364    0.848    2.424    4.727    0.000    1.455 
#    0.000    1.818    0.000    5.091    0.000    0.000 
#    0.000    0.000    0.000    0.000    0.000    0.000 
#
# Total GULP energy -184187.433838 kJ/mol
# GULP energy per Si atom -5581.437389 kJ/mol
# Density = 1.821020 g / cm^3
# Si number density = 18.251744 Si / 1000 Ang^3
#
#
#
# Elastic Constant Matrix: (Units=GPa)
#
#
# Indices 1 2 3 4 5 6 
#
# 1 126.9410 77.4435 43.5499 0.0000 0.0000 0.0000
# 2 77.4435 179.6049 81.3539 0.0000 0.0000 0.0000
# 3 43.5499 81.3539 146.5029 0.0000 0.0000 0.0000
# 4 0.0000 0.0000 0.0000 -3.5850 0.0000 0.0000
# 5 0.0000 0.0000 0.0000 0.0000 32.2549 0.0000
# 6 0.0000 0.0000 0.0000 0.0000 0.0000 31.6307
#
#
#
# Elastic Compliance Matrix: (Units=1/GPa)
#
#
# Indices 1 2 3 4 5 6 
#
# 1 0.010765 -0.004265 -0.000832 0.000000 0.000000 0.000000
# 2 -0.004265 0.009129 -0.003801 0.000000 0.000000 0.000000
# 3 -0.000832 -0.003801 0.009184 0.000000 0.000000 0.000000
# 4 0.000000 0.000000 0.000000 -0.278940 0.000000 0.000000
# 5 0.000000 0.000000 0.000000 0.000000 0.031003 0.000000
# 6 0.000000 0.000000 0.000000 0.000000 0.000000 0.031615
#
#
# Mechanical properties :
#
#
# Convention : Reuss Voigt Hill
#
# Bulk Modulus (GPa) = 88.64054 95.30483 91.97268
# Shear Modulus (GPa) = -30.17720 28.77355 -0.70182
#
# Velocity S-wave (km/s) = -4.07060 3.97480 -0.62077
# Velocity P-wave (km/s) = 5.15538 8.56712 7.07013
#
# Compressibility (1/GPa) = 0.01128152
#
# Stress axis : x y z
#
# Youngs Moduli (GPa) = 92.89392 109.54493 108.88568
#
# Poissons Ratio (x) = 0.46721 0.09055
# Poissons Ratio (y) = 0.39619 0.41392
# Poissons Ratio (z) = 0.07725 0.41642
#
# Static dielectric constant tensor:
#      x y z
#    x 1.615430 0.000000 0.000000 
#    y 0.000000 1.636860 0.000000 
#    z 0.000000 0.000000 1.591430 
# 
# From -- ./inp_files/72438.got.cif
#   From: 2010.05.17/outbox.cif.g08.bks.cpg/sg65_37_cif.got.tgz:72438.got - 2010.06.03 17:01:31.
