data_PCOD9492681
_publ_section_title
;
Structure prediction by ZEFSAII (Michael W. Deem and Ramdas Pophale) SiO2 
 PCOD9492681
Probable space group: C M M M
;
_chemical_formula_sum "Si O2"
_cell_formula_units_Z 66
_cell_length_a 7.540224
_cell_length_b 18.975153
_cell_length_c 22.205671
_cell_angle_alpha 90.000000
_cell_angle_beta 90.000000
_cell_angle_gamma 90.000000
_cell_volume 3177.118659
_symmetry_space_group_name_H-M "C M M M"
_symmetry_group_IT_number 65
_symmetry_cell_setting 'orthorhombic'
loop_
_space_group_symop_operation_xyz
x,y,z
-x,-y,z
x,-y,-z
-x,y,-z
-x,-y,-z
x,y,-z
-x,y,z
x,-y,z
1/2+x,1/2+y,z
1/2-x,1/2-y,z
1/2+x,1/2-y,-z
1/2-x,1/2+y,-z
1/2-x,1/2-y,-z
1/2+x,1/2+y,-z
1/2-x,1/2+y,z
1/2+x,1/2-y,z
loop_
_atom_site_type_symbol
_atom_site_label
_atom_site_fract_x
_atom_site_fract_y
_atom_site_fract_z
Si Si1 0.282366 0.627838 0.500000
Si Si2 0.000000 0.500000 0.500000
Si Si3 0.500000 0.582230 0.927952
Si Si4 0.284056 0.580911 0.740121
Si Si5 0.798618 0.667399 0.141279
Si Si6 0.710328 0.672612 0.368674
O O1 0.500000 0.615506 0.500000
O O2 0.158307 0.560078 0.500000
O O3 0.233219 0.666876 0.562116
O O4 0.500000 0.500000 0.908088
O O5 0.332147 0.623688 0.901414
O O6 0.500000 0.583791 0.000000
O O7 0.500000 0.582012 0.741649
O O8 0.228305 0.500000 0.748289
O O9 0.219940 0.631475 0.793253
O O10 0.221716 0.612510 0.676228
O O11 0.750000 0.750000 0.144175
O O12 0.000000 0.661214 0.120267
O O13 0.500000 0.664098 0.369482
O O14 0.750000 0.750000 0.344050
#
# Coordination Sequence:
#
# PCOD9492681 Si02
#       6
#     8   2   8  16  16  16
#     4  10  24  44  63  90 129 164 214 275 335 400
#     4  12  26  40  68  90 116 172 200 276 334 414
#     4  11  26  48  74 105 147 187 226 284 342 403
#     4  10  21  39  64  95 134 178 222 278 344 404
#     4  12  24  44  71 104 139 185 232 286 340 405
#     4  10  22  39  63  90 125 172 218 275 336 399
#
# _framework density 20.773540000000001
#
# number of rings (size 3 to 8) (size 9 to 14) (size 15 to 20)
#    0.000    1.333    2.424    2.000    3.394    5.818 
#    0.000    1.212    0.000    0.000    0.000    0.000 
#    0.000    0.000    0.000    0.000    0.000    0.000 
#
# Total GULP energy -184142.918862 kJ/mol
# GULP energy per Si atom -5580.088450 kJ/mol
# Density = 2.072626 g / cm^3
# Si number density = 20.773540 Si / 1000 Ang^3
#
#
#
# Elastic Constant Matrix: (Units=GPa)
#
#
# Indices 1 2 3 4 5 6 
#
# 1 117.2256 50.0847 31.4512 0.0000 0.0000 0.0000
# 2 50.0847 196.5196 63.8137 0.0000 0.0000 0.0000
# 3 31.4512 63.8137 106.3789 0.0000 0.0000 0.0000
# 4 0.0000 0.0000 0.0000 32.4514 0.0000 0.0000
# 5 0.0000 0.0000 0.0000 0.0000 -13.8912 0.0000
# 6 0.0000 0.0000 0.0000 0.0000 0.0000 28.6207
#
#
#
# Elastic Compliance Matrix: (Units=1/GPa)
#
#
# Indices 1 2 3 4 5 6 
#
# 1 0.009826 -0.001939 -0.001742 0.000000 0.000000 0.000000
# 2 -0.001939 0.006702 -0.003447 0.000000 0.000000 0.000000
# 3 -0.001742 -0.003447 0.011983 0.000000 0.000000 0.000000
# 4 0.000000 0.000000 0.000000 0.030815 0.000000 0.000000
# 5 0.000000 0.000000 0.000000 0.000000 -0.071988 0.000000
# 6 0.000000 0.000000 0.000000 0.000000 0.000000 0.034940
#
#
# Mechanical properties :
#
#
# Convention : Reuss Voigt Hill
#
# Bulk Modulus (GPa) = 70.14818 78.98036 74.56427
# Shear Modulus (GPa) = 121.10506 27.75450 74.42978
#
# Velocity S-wave (km/s) = 7.64358 3.65917 5.99224
# Velocity P-wave (km/s) = 10.57073 7.48030 9.15684
#
# Compressibility (1/GPa) = 0.01425554
#
# Stress axis : x y z
#
# Youngs Moduli (GPa) = 101.76822 149.20971 83.44926
#
# Poissons Ratio (x) = 0.28925 0.14539
# Poissons Ratio (y) = 0.19728 0.28766
# Poissons Ratio (z) = 0.17731 0.51435
#
# Static dielectric constant tensor:
#      x y z
#    x 1.780260 0.000000 0.000000 
#    y 0.000000 0.863680 0.000000 
#    z 0.000000 0.000000 1.739500 
# 
# From -- ./inp_files/59030.got.cif
#   From: 2010.05.17/outbox.cif.g08.bks.cpg/sg65_30_cif.got.tgz:59030.got - 2010.06.03 17:01:31.
