data_PCOD9492227
_publ_section_title
;
Structure prediction by ZEFSAII (Michael W. Deem and Ramdas Pophale) SiO2 
 PCOD9492227
Probable space group: C M M M
;
_chemical_formula_sum "Si O2"
_cell_formula_units_Z 100
_cell_length_a 20.493998
_cell_length_b 18.937265
_cell_length_c 14.544505
_cell_angle_alpha 90.000000
_cell_angle_beta 90.000000
_cell_angle_gamma 90.000000
_cell_volume 5644.726333
_symmetry_space_group_name_H-M "C M M M"
_symmetry_group_IT_number 65
_symmetry_cell_setting 'orthorhombic'
loop_
_space_group_symop_operation_xyz
x,y,z
-x,-y,z
x,-y,-z
-x,y,-z
-x,-y,-z
x,y,-z
-x,y,z
x,-y,z
1/2+x,1/2+y,z
1/2-x,1/2-y,z
1/2+x,1/2-y,-z
1/2-x,1/2+y,-z
1/2-x,1/2-y,-z
1/2+x,1/2+y,-z
1/2-x,1/2+y,z
1/2+x,1/2-y,z
loop_
_atom_site_type_symbol
_atom_site_label
_atom_site_fract_x
_atom_site_fract_y
_atom_site_fract_z
Si Si1 0.611892 0.385673 0.610144
Si Si2 0.573640 0.714216 0.761873
Si Si3 0.236851 0.418423 0.609603
Si Si4 0.752976 0.577585 0.893337
Si Si5 0.195143 0.309532 0.246673
Si Si6 0.096064 0.920400 0.107861
Si Si7 0.500000 0.500000 0.654388
O O1 0.607489 0.382890 0.500000
O O2 0.594606 0.313792 0.661463
O O3 0.686185 0.407495 0.634440
O O4 0.557557 0.439649 0.645407
O O5 0.500000 0.741274 0.762600
O O6 0.628418 0.771853 0.782900
O O7 0.575581 0.645497 0.829578
O O8 0.231657 0.407885 0.500000
O O9 0.220161 0.500000 0.629784
O O10 0.195032 0.361312 0.665216
O O11 0.773995 0.500000 0.859804
O O12 0.780872 0.640412 0.834846
O O13 0.674458 0.579060 0.888376
O O14 0.770788 0.583930 0.000000
O O15 0.250000 0.250000 0.263509
O O16 0.073988 0.000000 0.137857
O O17 0.077584 0.912184 0.000000
#
# Coordination Sequence:
#
# PCOD9492227 Si02
#       7
#    16  16  16  16  16  16   4
#     4  11  21  33  52  80 113 148 184 216 258 324
#     4  12  26  37  51  78 115 155 186 221 278 327
#     4  10  21  37  59  84 109 141 186 235 275 317
#     4   9  18  35  61  87 109 138 182 234 279 321
#     4  12  22  36  56  85 111 148 187 227 274 329
#     4   9  19  36  57  82 112 147 186 222 260 322
#     4  12  21  32  52  80 117 158 185 210 256 324
#
# _framework density 17.71565
#
# number of rings (size 3 to 8) (size 9 to 14) (size 15 to 20)
#    0.000    1.440    4.800    2.160    1.120    3.840 
#    0.000    0.800    0.000    1.920    0.000    2.240 
#    0.000    0.000    0.000    0.000    0.000    0.000 
#
# Total GULP energy -278638.365149 kJ/mol
# GULP energy per Si atom -5572.767303 kJ/mol
# Density = 1.767533 g / cm^3
# Si number density = 17.715650 Si / 1000 Ang^3
#
#
#
# Elastic Constant Matrix: (Units=GPa)
#
#
# Indices 1 2 3 4 5 6 
#
# 1 80.0843 53.8302 22.6065 0.0000 0.0000 0.0000
# 2 53.8302 108.4721 40.2612 0.0000 0.0000 0.0000
# 3 22.6065 40.2612 56.1402 0.0000 0.0000 0.0000
# 4 0.0000 0.0000 0.0000 -397.9385 0.0000 0.0000
# 5 0.0000 0.0000 0.0000 0.0000 -17.3632 0.0000
# 6 0.0000 0.0000 0.0000 0.0000 0.0000 36.0622
#
#
#
# Elastic Compliance Matrix: (Units=1/GPa)
#
#
# Indices 1 2 3 4 5 6 
#
# 1 0.018796 -0.008883 -0.001198 0.000000 0.000000 0.000000
# 2 -0.008883 0.016761 -0.008443 0.000000 0.000000 0.000000
# 3 -0.001198 -0.008443 0.024350 0.000000 0.000000 0.000000
# 4 0.000000 0.000000 0.000000 -0.002513 0.000000 0.000000
# 5 0.000000 0.000000 0.000000 0.000000 -0.057593 0.000000
# 6 0.000000 0.000000 0.000000 0.000000 0.000000 0.027730
#
#
# Mechanical properties :
#
#
# Convention : Reuss Voigt Hill
#
# Bulk Modulus (GPa) = 43.74802 53.12139 48.43471
# Shear Modulus (GPa) = 69.25268 -67.31466 0.96901
#
# Velocity S-wave (km/s) = 6.25908 -6.17088 0.74038
# Velocity P-wave (km/s) = 8.77399 4.55218 5.30380
#
# Compressibility (1/GPa) = 0.02285818
#
# Stress axis : x y z
#
# Youngs Moduli (GPa) = 53.20316 59.66221 41.06732
#
# Poissons Ratio (x) = 0.52997 0.04921
# Poissons Ratio (y) = 0.47260 0.34674
# Poissons Ratio (z) = 0.06376 0.50375
#
# Static dielectric constant tensor:
#      x y z
#    x 1.584250 0.000000 0.000000 
#    y 0.000000 1.615250 0.000000 
#    z 0.000000 0.000000 1.653670 
# 
# From -- ./inp_files/44383.got.cif
#   From: 2010.05.17/outbox.cif.g08.bks.cpg/sg65_23_cif.got.tgz:44383.got - 2010.06.03 17:01:31.
