data_PCOD9492240
_publ_section_title
;
Structure prediction by ZEFSAII (Michael W. Deem and Ramdas Pophale) SiO2 
 PCOD9492240
Probable space group: C M M M
;
_chemical_formula_sum "Si O2"
_cell_formula_units_Z 104
_cell_length_a 26.985306
_cell_length_b 12.204519
_cell_length_c 17.130318
_cell_angle_alpha 90.000000
_cell_angle_beta 90.000000
_cell_angle_gamma 90.000000
_cell_volume 5641.744836
_symmetry_space_group_name_H-M "C M M M"
_symmetry_group_IT_number 65
_symmetry_cell_setting 'orthorhombic'
loop_
_space_group_symop_operation_xyz
x,y,z
-x,-y,z
x,-y,-z
-x,y,-z
-x,-y,-z
x,y,-z
-x,y,z
x,-y,z
1/2+x,1/2+y,z
1/2-x,1/2-y,z
1/2+x,1/2-y,-z
1/2-x,1/2+y,-z
1/2-x,1/2-y,-z
1/2+x,1/2+y,-z
1/2-x,1/2+y,z
1/2+x,1/2-y,z
loop_
_atom_site_type_symbol
_atom_site_label
_atom_site_fract_x
_atom_site_fract_y
_atom_site_fract_z
Si Si1 0.559323 0.320232 0.000000
Si Si2 0.892090 0.125131 0.163475
Si Si3 0.722340 0.128841 0.308986
Si Si4 0.804900 0.712435 0.856947
Si Si5 0.875062 0.372503 0.411402
Si Si6 0.868271 0.375415 0.000000
Si Si7 0.941077 0.785824 0.686348
Si Si8 0.060122 0.000000 0.411245
O O1 0.582156 0.371555 0.078710
O O2 0.500000 0.325604 0.000000
O O3 0.582925 0.199183 0.000000
O O4 0.838184 0.180482 0.160763
O O5 0.924097 0.193599 0.225340
O O6 0.889112 0.000000 0.189516
O O7 0.750000 0.250000 0.316951
O O8 0.700704 0.140701 0.221264
O O9 0.679193 0.135035 0.373256
O O10 0.743246 0.000000 0.314966
O O11 0.750000 0.750000 0.881412
O O12 0.834644 0.652142 0.924977
O O13 0.876326 0.328110 0.500000
O O14 0.887986 0.500000 0.414810
O O15 0.912957 0.312696 0.354525
O O16 0.882761 0.500000 0.000000
O O17 0.925638 0.892572 0.636376
O O18 0.000000 0.773762 0.682521
O O19 0.078564 0.000000 0.500000
O O20 0.000000 0.000000 0.414145
#
# Coordination Sequence:
#
# PCOD9492240 Si02
#       8
#     8  16  16  16  16   8  16   8
#     4  10  23  40  58  86 122 162 205 248 299 353
#     4  11  22  38  61  89 120 158 203 248 298 363
#     4  10  21  39  63  89 121 162 202 249 305 364
#     4  10  21  38  59  88 120 156 194 246 301 364
#     4  10  22  41  62  85 117 156 198 248 304 362
#     4  10  21  37  59  85 116 155 200 248 299 357
#     4  11  21  36  58  85 117 154 198 246 301 358
#     4   9  18  32  52  79 113 149 187 240 302 354
#
# _framework density 18.434014000000001
#
# number of rings (size 3 to 8) (size 9 to 14) (size 15 to 20)
#    0.000    1.769    2.308    1.846    0.000    6.000 
#    1.385    0.769    0.000    1.846    0.000    0.000 
#    0.000    0.000    0.000    0.000    0.000    0.000 
#
# Total GULP energy -289810.472716 kJ/mol
# GULP energy per Si atom -5573.278321 kJ/mol
# Density = 1.839206 g / cm^3
# Si number density = 18.434014 Si / 1000 Ang^3
#
#
#
# Elastic Constant Matrix: (Units=GPa)
#
#
# Indices 1 2 3 4 5 6 
#
# 1 72.4930 45.0161 17.8628 0.0000 0.0000 0.0000
# 2 45.0161 115.1099 31.6824 0.0000 0.0000 0.0000
# 3 17.8628 31.6824 100.7585 0.0000 0.0000 0.0000
# 4 0.0000 0.0000 0.0000 8.8884 0.0000 0.0000
# 5 0.0000 0.0000 0.0000 0.0000 17.8269 0.0000
# 6 0.0000 0.0000 0.0000 0.0000 0.0000 12.7540
#
#
#
# Elastic Compliance Matrix: (Units=1/GPa)
#
#
# Indices 1 2 3 4 5 6 
#
# 1 0.018327 -0.006867 -0.001090 0.000000 0.000000 0.000000
# 2 -0.006867 0.012084 -0.002582 0.000000 0.000000 0.000000
# 3 -0.001090 -0.002582 0.010930 0.000000 0.000000 0.000000
# 4 0.000000 0.000000 0.000000 0.112506 0.000000 0.000000
# 5 0.000000 0.000000 0.000000 0.000000 0.056095 0.000000
# 6 0.000000 0.000000 0.000000 0.000000 0.000000 0.078406
#
#
# Mechanical properties :
#
#
# Convention : Reuss Voigt Hill
#
# Bulk Modulus (GPa) = 49.35246 53.05378 51.20312
# Shear Modulus (GPa) = 15.81372 20.81387 18.31380
#
# Velocity S-wave (km/s) = 2.93209 3.36386 3.15537
# Velocity P-wave (km/s) = 6.18818 6.62799 6.41185
#
# Compressibility (1/GPa) = 0.02026241
#
# Stress axis : x y z
#
# Youngs Moduli (GPa) = 54.56310 82.75630 91.49263
#
# Poissons Ratio (x) = 0.56832 0.09971
# Poissons Ratio (y) = 0.37471 0.23624
# Poissons Ratio (z) = 0.05946 0.21369
#
# Static dielectric constant tensor:
#      x y z
#    x 1.601380 0.000000 0.000000 
#    y 0.000000 1.662510 0.000000 
#    z 0.000000 0.000000 1.632590 
# 
# From -- ./inp_files/57575.got.cif
#   From: 2010.05.17/outbox.cif.g08.bks.cpg/sg65_29_cif.got.tgz:57575.got - 2010.06.03 17:01:31.
