data_PCOD9492715
_publ_section_title
;
Structure prediction by ZEFSAII (Michael W. Deem and Ramdas Pophale) SiO2 
 PCOD9492715
Probable space group: C M M M
;
_chemical_formula_sum "Si O2"
_cell_formula_units_Z 76
_cell_length_a 14.872309
_cell_length_b 23.961275
_cell_length_c 12.356418
_cell_angle_alpha 90.000000
_cell_angle_beta 90.000000
_cell_angle_gamma 90.000000
_cell_volume 4403.326765
_symmetry_space_group_name_H-M "C M M M"
_symmetry_group_IT_number 65
_symmetry_cell_setting 'orthorhombic'
loop_
_space_group_symop_operation_xyz
x,y,z
-x,-y,z
x,-y,-z
-x,y,-z
-x,-y,-z
x,y,-z
-x,y,z
x,-y,z
1/2+x,1/2+y,z
1/2-x,1/2-y,z
1/2+x,1/2-y,-z
1/2-x,1/2+y,-z
1/2-x,1/2-y,-z
1/2+x,1/2+y,-z
1/2-x,1/2+y,z
1/2+x,1/2-y,z
loop_
_atom_site_type_symbol
_atom_site_label
_atom_site_fract_x
_atom_site_fract_y
_atom_site_fract_z
Si Si1 0.354096 0.252296 0.308396
Si Si2 0.106306 0.338866 0.126413
Si Si3 0.891030 0.936027 0.500000
Si Si4 0.755126 0.563729 0.129307
Si Si5 0.106202 0.881105 0.726969
Si Si6 0.000000 0.265531 0.500000
O O1 0.250000 0.250000 0.342529
O O2 0.367298 0.210277 0.207909
O O3 0.377024 0.315139 0.271044
O O4 0.421550 0.236994 0.404820
O O5 0.163799 0.393841 0.154247
O O6 0.000000 0.349589 0.136104
O O7 0.124785 0.324563 0.000000
O O8 0.865294 0.903696 0.391487
O O9 0.000000 0.937172 0.500000
O O10 0.859223 0.000000 0.500000
O O11 0.772964 0.500000 0.163491
O O12 0.666282 0.587130 0.186196
O O13 0.743526 0.564048 0.000000
O O14 0.000000 0.892067 0.740748
#
# Coordination Sequence:
#
# PCOD9492715 Si02
#       6
#    16  16   8  16  16   4
#     4  12  23  39  62  92 122 162 199 245 307 362
#     4  10  21  40  63  88 119 156 203 253 304 363
#     4   9  19  34  53  77 108 151 199 239 275 332
#     4  10  22  39  60  88 119 154 202 252 298 354
#     4  11  21  36  59  85 119 156 198 242 296 358
#     4  12  24  40  58  92 128 152 198 248 288 370
#
# _framework density 17.259678000000001
#
# number of rings (size 3 to 8) (size 9 to 14) (size 15 to 20)
#    0.000    1.368    4.211    1.579    1.474    3.368 
#    0.000    3.158    0.000    0.000    0.000    0.737 
#    0.000    0.000    0.000    0.000    0.000    0.000 
#
# Total GULP energy -211586.361142 kJ/mol
# GULP energy per Si atom -5568.062135 kJ/mol
# Density = 1.722039 g / cm^3
# Si number density = 17.259678 Si / 1000 Ang^3
#
#
#
# Elastic Constant Matrix: (Units=GPa)
#
#
# Indices 1 2 3 4 5 6 
#
# 1 134.2689 47.0741 56.4259 0.0000 0.0000 0.0000
# 2 47.0741 145.6299 76.2446 0.0000 0.0000 0.0000
# 3 56.4259 76.2446 75.6431 0.0000 0.0000 0.0000
# 4 0.0000 0.0000 0.0000 14.3532 0.0000 0.0000
# 5 0.0000 0.0000 0.0000 0.0000 32.3329 0.0000
# 6 0.0000 0.0000 0.0000 0.0000 0.0000 10.3520
#
#
#
# Elastic Compliance Matrix: (Units=1/GPa)
#
#
# Indices 1 2 3 4 5 6 
#
# 1 0.011015 0.001570 -0.009799 0.000000 0.000000 0.000000
# 2 0.001570 0.014763 -0.016051 0.000000 0.000000 0.000000
# 3 -0.009799 -0.016051 0.036709 0.000000 0.000000 0.000000
# 4 0.000000 0.000000 0.000000 0.069671 0.000000 0.000000
# 5 0.000000 0.000000 0.000000 0.000000 0.030928 0.000000
# 6 0.000000 0.000000 0.000000 0.000000 0.000000 0.096600
#
#
# Mechanical properties :
#
#
# Convention : Reuss Voigt Hill
#
# Bulk Modulus (GPa) = 71.81053 79.44790 75.62922
# Shear Modulus (GPa) = 15.98009 23.12743 19.55376
#
# Velocity S-wave (km/s) = 3.04610 3.66453 3.36953
# Velocity P-wave (km/s) = 7.35309 8.00224 7.68452
#
# Compressibility (1/GPa) = 0.01392553
#
# Stress axis : x y z
#
# Youngs Moduli (GPa) = 90.78163 67.73686 27.24163
#
# Poissons Ratio (x) = -0.10632 0.26694
# Poissons Ratio (y) = -0.14249 0.43726
# Poissons Ratio (z) = 0.88957 1.08726
#
# Static dielectric constant tensor:
#      x y z
#    x 1.575060 0.000000 0.000000 
#    y 0.000000 1.582020 0.000000 
#    z 0.000000 0.000000 1.570460 
# 
# From -- ./inp_files/24676.got.cif
#   From: 2010.05.17/outbox.cif.g08.bks.cpg/sg65_13_cif.got.tgz:24676.got - 2010.06.03 17:01:31.
