data_PCOD9492655
_publ_section_title
;
Structure prediction by ZEFSAII (Michael W. Deem and Ramdas Pophale) SiO2 
 PCOD9492655
Probable space group: C M M M
;
_chemical_formula_sum "Si O2"
_cell_formula_units_Z 88
_cell_length_a 27.381477
_cell_length_b 19.441370
_cell_length_c 9.178237
_cell_angle_alpha 90.000000
_cell_angle_beta 90.000000
_cell_angle_gamma 90.000000
_cell_volume 4885.882342
_symmetry_space_group_name_H-M "C M M M"
_symmetry_group_IT_number 65
_symmetry_cell_setting 'orthorhombic'
loop_
_space_group_symop_operation_xyz
x,y,z
-x,-y,z
x,-y,-z
-x,y,-z
-x,-y,-z
x,y,-z
-x,y,z
x,-y,z
1/2+x,1/2+y,z
1/2-x,1/2-y,z
1/2+x,1/2-y,-z
1/2-x,1/2+y,-z
1/2-x,1/2-y,-z
1/2+x,1/2+y,-z
1/2-x,1/2+y,z
1/2+x,1/2-y,z
loop_
_atom_site_type_symbol
_atom_site_label
_atom_site_fract_x
_atom_site_fract_y
_atom_site_fract_z
Si Si1 0.802833 0.581215 0.326296
Si Si2 0.593334 0.150529 0.325037
Si Si3 0.941532 0.921509 0.828868
Si Si4 0.620814 0.306882 0.326127
Si Si5 0.224219 0.824282 0.830314
Si Si6 0.500000 0.081658 0.825551
O O1 0.796047 0.592025 0.500000
O O2 0.801980 0.500000 0.297372
O O3 0.855931 0.612149 0.288545
O O4 0.760534 0.620748 0.241265
O O5 0.585890 0.144643 0.500000
O O6 0.600610 0.230926 0.288577
O O7 0.547912 0.116808 0.243006
O O8 0.915105 0.865401 0.732031
O O9 0.000000 0.916593 0.813542
O O10 0.927225 0.000000 0.791566
O O11 0.930049 0.910524 0.000000
O O12 0.625696 0.309775 0.500000
O O13 0.673189 0.319056 0.253088
O O14 0.250000 0.750000 0.820292
O O15 0.215968 0.840365 0.000000
O O16 0.500000 0.000000 0.792748
O O17 0.500000 0.090055 0.000000
#
# Coordination Sequence:
#
# PCOD9492655 Si02
#       6
#    16  16  16  16  16   8
#     4  10  21  39  64  90 117 154 198 243 292 345
#     4  10  22  40  62  88 120 158 198 242 294 351
#     4   9  20  40  63  87 119 158 196 239 295 353
#     4  11  23  38  62  91 120 154 197 247 293 345
#     4  11  23  39  60  86 118 156 195 238 294 349
#     4  11  25  41  59  87 122 159 200 247 293 344
#
# _framework density 18.011075999999999
#
# number of rings (size 3 to 8) (size 9 to 14) (size 15 to 20)
#    0.000    1.727    1.818    2.455    1.273    6.182 
#    0.000    0.909    0.000    0.000    0.000    0.000 
#    0.000    0.000    0.000    0.000    0.000    0.000 
#
# Total GULP energy -245860.332297 kJ/mol
# GULP energy per Si atom -5587.734825 kJ/mol
# Density = 1.797008 g / cm^3
# Si number density = 18.011076 Si / 1000 Ang^3
#
#
#
# Elastic Constant Matrix: (Units=GPa)
#
#
# Indices 1 2 3 4 5 6 
#
# 1 127.0605 96.5754 79.5673 0.0000 0.0000 0.0000
# 2 96.5754 159.0569 95.3534 0.0000 0.0000 0.0000
# 3 79.5673 95.3534 85.8937 0.0000 0.0000 0.0000
# 4 0.0000 0.0000 0.0000 32.4144 0.0000 0.0000
# 5 0.0000 0.0000 0.0000 0.0000 -1.2123 0.0000
# 6 0.0000 0.0000 0.0000 0.0000 0.0000 35.2303
#
#
#
# Elastic Compliance Matrix: (Units=1/GPa)
#
#
# Indices 1 2 3 4 5 6 
#
# 1 0.019203 -0.002976 -0.014485 0.000000 0.000000 0.000000
# 2 -0.002976 0.019258 -0.018622 0.000000 0.000000 0.000000
# 3 -0.014485 -0.018622 0.045733 0.000000 0.000000 0.000000
# 4 0.000000 0.000000 0.000000 0.030851 0.000000 0.000000
# 5 0.000000 0.000000 0.000000 0.000000 -0.824906 0.000000
# 6 0.000000 0.000000 0.000000 0.000000 0.000000 0.028385
#
#
# Mechanical properties :
#
#
# Convention : Reuss Voigt Hill
#
# Bulk Modulus (GPa) = 83.13709 101.66706 92.40207
# Shear Modulus (GPa) = -8.26032 19.98747 5.86358
#
# Velocity S-wave (km/s) = -2.14387 3.33488 1.80627
# Velocity P-wave (km/s) = 6.33489 8.44974 7.46756
#
# Compressibility (1/GPa) = 0.01202833
#
# Stress axis : x y z
#
# Youngs Moduli (GPa) = 52.07576 51.92781 21.86628
#
# Poissons Ratio (x) = 0.15454 0.31673
# Poissons Ratio (y) = 0.15498 0.40718
# Poissons Ratio (z) = 0.75430 0.96698
#
# Static dielectric constant tensor:
#      x y z
#    x 1.496010 0.000000 0.000000 
#    y 0.000000 1.596260 0.000000 
#    z 0.000000 0.000000 1.600810 
# 
# From -- ./inp_files/13974.got.cif
#   From: 2010.05.17/outbox.cif.g08.bks.cpg/sg65_7_cif.got.tgz:13974.got - 2010.06.03 17:01:31.
