data_PCOD9492394
_publ_section_title
;
Structure prediction by ZEFSAII (Michael W. Deem and Ramdas Pophale) SiO2 
 PCOD9492394
Probable space group: C M M M
;
_chemical_formula_sum "Si O2"
_cell_formula_units_Z 72
_cell_length_a 8.774926
_cell_length_b 15.923766
_cell_length_c 27.501082
_cell_angle_alpha 90.000000
_cell_angle_beta 90.000000
_cell_angle_gamma 90.000000
_cell_volume 3842.722566
_symmetry_space_group_name_H-M "C M M M"
_symmetry_group_IT_number 65
_symmetry_cell_setting 'orthorhombic'
loop_
_space_group_symop_operation_xyz
x,y,z
-x,-y,z
x,-y,-z
-x,y,-z
-x,-y,-z
x,y,-z
-x,y,z
x,-y,z
1/2+x,1/2+y,z
1/2-x,1/2-y,z
1/2+x,1/2-y,-z
1/2-x,1/2+y,-z
1/2-x,1/2-y,-z
1/2+x,1/2+y,-z
1/2-x,1/2+y,z
1/2+x,1/2-y,z
loop_
_atom_site_type_symbol
_atom_site_label
_atom_site_fract_x
_atom_site_fract_y
_atom_site_fract_z
Si Si1 0.683890 0.500000 0.768054
Si Si2 0.814488 0.000000 0.118774
Si Si3 0.666838 0.598312 0.500000
Si Si4 0.683809 0.340225 0.943492
Si Si5 0.181260 0.657697 0.401626
Si Si6 0.816263 0.654778 0.707406
O O1 0.500000 0.500000 0.764261
O O2 0.728123 0.500000 0.824880
O O3 0.748454 0.584580 0.743061
O O4 0.763722 0.916481 0.090391
O O5 0.000000 0.000000 0.116801
O O6 0.647504 0.500000 0.500000
O O7 0.500000 0.641204 0.500000
O O8 0.752761 0.618020 0.549767
O O9 0.500000 0.336203 0.941372
O O10 0.750000 0.250000 0.929010
O O11 0.726044 0.355803 0.000000
O O12 0.250000 0.750000 0.400963
O O13 0.219838 0.623607 0.347879
O O14 0.000000 0.659196 0.405256
O O15 0.750000 0.750000 0.713780
O O16 0.000000 0.659320 0.712101
#
# Coordination Sequence:
#
# PCOD9492394 Si02
#       6
#     8   8   8  16  16  16
#     4  11  23  38  59  85 117 154 192 241 293 344
#     4   9  19  35  54  80 111 149 192 229 278 338
#     4  11  24  37  52  81 115 145 176 215 266 329
#     4   9  17  32  55  81 111 148 189 232 277 330
#     4  10  21  38  60  81 106 140 178 223 273 330
#     4  10  22  41  63  87 113 148 194 241 290 345
#
# _framework density 18.736716000000001
#
# number of rings (size 3 to 8) (size 9 to 14) (size 15 to 20)
#    0.000    2.111    0.000    2.667    1.556    5.778 
#    0.000    5.000    0.000    2.667    0.000    0.000 
#    0.000    0.000    0.000    0.000    0.000    0.000 
#
# Total GULP energy -200782.613276 kJ/mol
# GULP energy per Si atom -5577.294813 kJ/mol
# Density = 1.869407 g / cm^3
# Si number density = 18.736716 Si / 1000 Ang^3
#
#
#
# Elastic Constant Matrix: (Units=GPa)
#
#
# Indices 1 2 3 4 5 6 
#
# 1 55.7548 44.0901 56.1441 0.0000 0.0000 0.0000
# 2 44.0901 136.7876 117.6769 0.0000 0.0000 0.0000
# 3 56.1441 117.6769 172.3757 0.0000 0.0000 0.0000
# 4 0.0000 0.0000 0.0000 18.0601 0.0000 0.0000
# 5 0.0000 0.0000 0.0000 0.0000 25.4913 0.0000
# 6 0.0000 0.0000 0.0000 0.0000 0.0000 29.3740
#
#
#
# Elastic Compliance Matrix: (Units=1/GPa)
#
#
# Indices 1 2 3 4 5 6 
#
# 1 0.027115 -0.002768 -0.006942 0.000000 0.000000 0.000000
# 2 -0.002768 0.017997 -0.011384 0.000000 0.000000 0.000000
# 3 -0.006942 -0.011384 0.015834 0.000000 0.000000 0.000000
# 4 0.000000 0.000000 0.000000 0.055371 0.000000 0.000000
# 5 0.000000 0.000000 0.000000 0.000000 0.039229 0.000000
# 6 0.000000 0.000000 0.000000 0.000000 0.000000 0.034044
#
#
# Mechanical properties :
#
#
# Convention : Reuss Voigt Hill
#
# Bulk Modulus (GPa) = 53.31223 88.97116 71.14170
# Shear Modulus (GPa) = 21.00578 24.38556 22.69567
#
# Velocity S-wave (km/s) = 3.35192 3.61152 3.48414
# Velocity P-wave (km/s) = 6.59512 8.06094 7.36459
#
# Compressibility (1/GPa) = 0.01875742
#
# Stress axis : x y z
#
# Youngs Moduli (GPa) = 36.88014 55.56625 63.15407
#
# Poissons Ratio (x) = 0.15378 0.43843
# Poissons Ratio (y) = 0.10207 0.71897
# Poissons Ratio (z) = 0.25603 0.63259
#
# Static dielectric constant tensor:
#      x y z
#    x 1.724690 0.000000 0.000000 
#    y 0.000000 1.620520 0.000000 
#    z 0.000000 0.000000 1.713450 
# 
# From -- ./inp_files/72610.got.cif
#   From: 2010.05.17/outbox.cif.g08.bks.cpg/sg65_37_cif.got.tgz:72610.got - 2010.06.03 17:01:31.
