data_PCOD9492008
_publ_section_title
;
Structure prediction by ZEFSAII (Michael W. Deem and Ramdas Pophale) SiO2 
 PCOD9492008
Probable space group: C M M M
;
_chemical_formula_sum "Si O2"
_cell_formula_units_Z 112
_cell_length_a 14.681305
_cell_length_b 24.447853
_cell_length_c 15.506953
_cell_angle_alpha 90.000000
_cell_angle_beta 90.000000
_cell_angle_gamma 90.000000
_cell_volume 5565.854606
_symmetry_space_group_name_H-M "C M M M"
_symmetry_group_IT_number 65
_symmetry_cell_setting 'orthorhombic'
loop_
_space_group_symop_operation_xyz
x,y,z
-x,-y,z
x,-y,-z
-x,y,-z
-x,-y,-z
x,y,-z
-x,y,z
x,-y,z
1/2+x,1/2+y,z
1/2-x,1/2-y,z
1/2+x,1/2-y,-z
1/2-x,1/2+y,-z
1/2-x,1/2-y,-z
1/2+x,1/2+y,-z
1/2-x,1/2+y,z
1/2+x,1/2-y,z
loop_
_atom_site_type_symbol
_atom_site_label
_atom_site_fract_x
_atom_site_fract_y
_atom_site_fract_z
Si Si1 0.891891 0.646231 0.101284
Si Si2 0.804194 0.560186 0.598754
Si Si3 0.610109 0.827312 0.399292
Si Si4 0.389245 0.759703 0.763547
Si Si5 0.245268 0.938791 0.102903
Si Si6 0.396029 0.639307 0.809994
Si Si7 0.901228 0.062469 0.355032
O O1 0.865642 0.695882 0.163803
O O2 0.837998 0.591894 0.128098
O O3 0.000000 0.638276 0.108381
O O4 0.871363 0.657924 0.000000
O O5 0.837011 0.558026 0.500000
O O6 0.823081 0.500000 0.638116
O O7 0.849900 0.614860 0.634559
O O8 0.694710 0.567432 0.597089
O O9 0.637663 0.818455 0.500000
O O10 0.500000 0.830442 0.398286
O O11 0.639026 0.780902 0.331065
O O12 0.500000 0.756437 0.760721
O O13 0.357839 0.699572 0.790937
O O14 0.165354 0.897940 0.129606
O O15 0.235868 0.000000 0.139422
O O16 0.245656 0.943232 0.000000
O O17 0.500000 0.643980 0.842768
O O18 0.398943 0.606392 0.720487
O O19 0.000000 0.069003 0.400247
O O20 0.901407 0.000000 0.320882
#
# Coordination Sequence:
#
# PCOD9492008 Si02
#       7
#    16  16  16  16  16  16  16
#     4   9  19  37  59  84 117 153 188 231 280 334
#     4   9  18  32  51  77 107 140 181 231 287 342
#     4   9  18  34  55  80 114 151 187 234 288 342
#     4   9  19  36  57  82 112 150 195 236 281 338
#     4  10  22  38  57  85 116 148 189 233 284 345
#     4  10  21  37  56  79 109 146 187 233 285 338
#     4   9  18  33  52  73 100 138 182 228 280 333
#
# _framework density 20.122695
#
# number of rings (size 3 to 8) (size 9 to 14) (size 15 to 20)
#    0.000    2.714    0.000    0.429    2.000    3.143 
#    0.000    8.571    0.000    6.857    0.000    0.000 
#    0.000    0.000    0.000    0.000    0.000    0.000 
#
# Total GULP energy -312083.385633 kJ/mol
# GULP energy per Si atom -5572.917601 kJ/mol
# Density = 2.007689 g / cm^3
# Si number density = 20.122695 Si / 1000 Ang^3
#
#
#
# Elastic Constant Matrix: (Units=GPa)
#
#
# Indices 1 2 3 4 5 6 
#
# 1 54.2433 48.7626 24.9439 0.0000 0.0000 0.0000
# 2 48.7626 165.5534 47.4160 0.0000 0.0000 0.0000
# 3 24.9439 47.4160 47.2572 0.0000 0.0000 0.0000
# 4 0.0000 0.0000 0.0000 25.5772 0.0000 0.0000
# 5 0.0000 0.0000 0.0000 0.0000 19.8828 0.0000
# 6 0.0000 0.0000 0.0000 0.0000 0.0000 59.3483
#
#
#
# Elastic Compliance Matrix: (Units=1/GPa)
#
#
# Indices 1 2 3 4 5 6 
#
# 1 0.027547 -0.005542 -0.008980 0.000000 0.000000 0.000000
# 2 -0.005542 0.009591 -0.006698 0.000000 0.000000 0.000000
# 3 -0.008980 -0.006698 0.032621 0.000000 0.000000 0.000000
# 4 0.000000 0.000000 0.000000 0.039097 0.000000 0.000000
# 5 0.000000 0.000000 0.000000 0.000000 0.050295 0.000000
# 6 0.000000 0.000000 0.000000 0.000000 0.000000 0.016850
#
#
# Mechanical properties :
#
#
# Convention : Reuss Voigt Hill
#
# Bulk Modulus (GPa) = 36.60353 56.58879 46.59616
# Shear Modulus (GPa) = 21.97355 30.69041 26.33198
#
# Velocity S-wave (km/s) = 3.30809 3.90957 3.62134
# Velocity P-wave (km/s) = 5.72896 6.96869 6.37901
#
# Compressibility (1/GPa) = 0.02731977
#
# Stress axis : x y z
#
# Youngs Moduli (GPa) = 36.30210 104.26370 30.65492
#
# Poissons Ratio (x) = 0.57781 0.27527
# Poissons Ratio (y) = 0.20118 0.20533
# Poissons Ratio (z) = 0.32598 0.69837
#
# Static dielectric constant tensor:
#      x y z
#    x 1.738320 0.000000 0.000000 
#    y 0.000000 1.717760 0.000000 
#    z 0.000000 0.000000 1.714040 
# 
# From -- ./inp_files/40861.got.cif
#   From: 2010.05.17/outbox.cif.g08.bks.cpg/sg65_21_cif.got.tgz:40861.got - 2010.06.03 17:01:31.
