data_PCOD9492531
_publ_section_title
;
Structure prediction by ZEFSAII (Michael W. Deem and Ramdas Pophale) SiO2 
 PCOD9492531
Probable space group: C M M M
;
_chemical_formula_sum "Si O2"
_cell_formula_units_Z 80
_cell_length_a 17.877797
_cell_length_b 9.761958
_cell_length_c 24.390323
_cell_angle_alpha 90.000000
_cell_angle_beta 90.000000
_cell_angle_gamma 90.000000
_cell_volume 4256.655352
_symmetry_space_group_name_H-M "C M M M"
_symmetry_group_IT_number 65
_symmetry_cell_setting 'orthorhombic'
loop_
_space_group_symop_operation_xyz
x,y,z
-x,-y,z
x,-y,-z
-x,y,-z
-x,-y,-z
x,y,-z
-x,y,z
x,-y,z
1/2+x,1/2+y,z
1/2-x,1/2-y,z
1/2+x,1/2-y,-z
1/2-x,1/2+y,-z
1/2-x,1/2-y,-z
1/2+x,1/2+y,-z
1/2-x,1/2+y,z
1/2+x,1/2-y,z
loop_
_atom_site_type_symbol
_atom_site_label
_atom_site_fract_x
_atom_site_fract_y
_atom_site_fract_z
Si Si1 0.410085 0.659275 0.652455
Si Si2 0.660745 0.244193 0.873429
Si Si3 0.909883 0.000000 0.934980
Si Si4 0.914436 0.500000 0.934991
Si Si5 0.409725 0.838908 0.242242
Si Si6 0.826508 0.662567 0.435913
O O1 0.500000 0.654740 0.652224
O O2 0.383569 0.500000 0.649880
O O3 0.386981 0.739730 0.707757
O O4 0.382953 0.754594 0.602674
O O5 0.750000 0.250000 0.871432
O O6 0.624521 0.374746 0.901850
O O7 0.628568 0.212890 0.813208
O O8 0.631181 0.126125 0.912625
O O9 0.000000 0.000000 0.931891
O O10 0.890304 0.000000 0.000000
O O11 0.000000 0.500000 0.913422
O O12 0.918144 0.500000 0.000000
O O13 0.500000 0.830861 0.236442
O O14 0.391407 0.000000 0.252032
O O15 0.848790 0.667426 0.500000
O O16 0.818472 0.500000 0.421534
O O17 0.750000 0.750000 0.430862
#
# Coordination Sequence:
#
# PCOD9492531 Si02
#       6
#    16  16   8   8  16  16
#     4  10  22  39  61  92 125 162 208 258 312 368
#     4  12  25  40  62  94 127 158 200 259 319 371
#     4  11  25  43  63  89 123 165 206 247 308 383
#     4  11  23  43  69  91 117 161 212 251 298 377
#     4  10  21  40  64  85 114 160 210 255 305 374
#     4  10  21  38  61  89 124 167 212 259 314 374
#
# _framework density 18.794098000000002
#
# number of rings (size 3 to 8) (size 9 to 14) (size 15 to 20)
#    0.000    1.400    1.000    4.200    1.400    7.600 
#    0.000    4.000    0.000    0.000    0.000    0.000 
#    0.000    0.000    0.000    0.000    0.000    0.000 
#
# Total GULP energy -223288.179886 kJ/mol
# GULP energy per Si atom -5582.204497 kJ/mol
# Density = 1.875132 g / cm^3
# Si number density = 18.794098 Si / 1000 Ang^3
#
#
#
# Elastic Constant Matrix: (Units=GPa)
#
#
# Indices 1 2 3 4 5 6 
#
# 1 58.1340 52.1906 43.1771 0.0000 0.0000 0.0000
# 2 52.1906 219.9414 87.2963 0.0000 0.0000 0.0000
# 3 43.1771 87.2963 112.0287 0.0000 0.0000 0.0000
# 4 0.0000 0.0000 0.0000 38.7766 0.0000 0.0000
# 5 0.0000 0.0000 0.0000 0.0000 -487.6432 0.0000
# 6 0.0000 0.0000 0.0000 0.0000 0.0000 157.1091
#
#
#
# Elastic Compliance Matrix: (Units=1/GPa)
#
#
# Indices 1 2 3 4 5 6 
#
# 1 0.025491 -0.003112 -0.007400 0.000000 0.000000 0.000000
# 2 -0.003112 0.006962 -0.004226 0.000000 0.000000 0.000000
# 3 -0.007400 -0.004226 0.015071 0.000000 0.000000 0.000000
# 4 0.000000 0.000000 0.000000 0.025789 0.000000 0.000000
# 5 0.000000 0.000000 0.000000 0.000000 -0.002051 0.000000
# 6 0.000000 0.000000 0.000000 0.000000 0.000000 0.006365
#
#
# Mechanical properties :
#
#
# Convention : Reuss Voigt Hill
#
# Bulk Modulus (GPa) = 55.40252 83.93690 69.66971
# Shear Modulus (GPa) = 44.20091 -44.52215 -0.16062
#
# Velocity S-wave (km/s) = 4.85485 -4.87246 -0.29266
# Velocity P-wave (km/s) = 7.80825 3.61992 6.08574
#
# Compressibility (1/GPa) = 0.01804972
#
# Stress axis : x y z
#
# Youngs Moduli (GPa) = 39.22907 143.62832 66.35158
#
# Poissons Ratio (x) = 0.44696 0.49098
# Poissons Ratio (y) = 0.12208 0.28040
# Poissons Ratio (z) = 0.29029 0.60697
#
# Static dielectric constant tensor:
#      x y z
#    x 1.631780 0.000000 0.000000 
#    y 0.000000 1.627140 0.000000 
#    z 0.000000 0.000000 1.632980 
# 
# From -- ./inp_files/75039.got.cif
#   From: 2010.05.17/outbox.cif.g08.bks.cpg/sg65_38_cif.got.tgz:75039.got - 2010.06.03 17:01:31.
