data_PCOD9492791
_publ_section_title
;
Structure prediction by ZEFSAII (Michael W. Deem and Ramdas Pophale) SiO2 
 PCOD9492791
Probable space group: C M M M
;
_chemical_formula_sum "Si O2"
_cell_formula_units_Z 96
_cell_length_a 14.982242
_cell_length_b 23.420164
_cell_length_c 14.351906
_cell_angle_alpha 90.000000
_cell_angle_beta 90.000000
_cell_angle_gamma 90.000000
_cell_volume 5035.890994
_symmetry_space_group_name_H-M "C M M M"
_symmetry_group_IT_number 65
_symmetry_cell_setting 'orthorhombic'
loop_
_space_group_symop_operation_xyz
x,y,z
-x,-y,z
x,-y,-z
-x,y,-z
-x,-y,-z
x,y,-z
-x,y,z
x,-y,z
1/2+x,1/2+y,z
1/2-x,1/2-y,z
1/2+x,1/2-y,-z
1/2-x,1/2+y,-z
1/2-x,1/2-y,-z
1/2+x,1/2+y,-z
1/2-x,1/2+y,z
1/2+x,1/2-y,z
loop_
_atom_site_type_symbol
_atom_site_label
_atom_site_fract_x
_atom_site_fract_y
_atom_site_fract_z
Si Si1 0.896391 0.228844 0.202489
Si Si2 0.215238 0.930942 0.000000
Si Si3 0.397487 0.842707 0.294528
Si Si4 0.834984 0.794415 0.000000
Si Si5 0.348017 0.670032 0.500000
Si Si6 0.863341 0.303164 0.500000
Si Si7 0.269251 0.937048 0.786946
Si Si8 0.394104 0.615306 0.304097
O O1 0.857657 0.286266 0.244689
O O2 0.885688 0.222872 0.093311
O O3 0.862099 0.171578 0.248571
O O4 0.000000 0.230798 0.229511
O O5 0.172875 0.864853 0.000000
O O6 0.262631 0.928765 0.101050
O O7 0.177856 0.000000 0.000000
O O8 0.500000 0.852322 0.263900
O O9 0.397596 0.830312 0.404419
O O10 0.334259 0.893239 0.263184
O O11 0.750000 0.750000 0.000000
O O12 0.242499 0.683169 0.500000
O O13 0.385690 0.735148 0.500000
O O14 0.376877 0.633392 0.410469
O O15 0.171194 0.931499 0.739689
O O16 0.304392 0.000000 0.770409
O O17 0.500000 0.604389 0.289641
#
# Coordination Sequence:
#
# PCOD9492791 Si02
#       8
#    16   8  16   8   8   8  16  16
#     4  10  22  36  56  88 127 158 194 253 314 371
#     4  10  22  41  63  89 123 166 211 262 310 374
#     4  11  23  40  63  93 127 164 206 254 316 374
#     4  12  21  33  62  90 120 161 207 259 316 376
#     4  11  21  35  63  95 127 164 207 246 310 379
#     4  11  21  35  63  95 127 164 201 254 308 379
#     4  11  24  44  65  88 123 164 214 260 305 364
#     4  11  22  38  62  91 124 161 201 250 307 367
#
# _framework density 19.063161999999998
#
# number of rings (size 3 to 8) (size 9 to 14) (size 15 to 20)
#    0.000    1.167    5.000    1.750    0.000    1.333 
#    0.000    3.333    0.000    6.000    0.000    0.000 
#    0.000    0.000    0.000    0.000    0.000    0.000 
#
# Total GULP energy -267397.798678 kJ/mol
# GULP energy per Si atom -5570.787472 kJ/mol
# Density = 1.901977 g / cm^3
# Si number density = 19.063162 Si / 1000 Ang^3
#
#
#
# Elastic Constant Matrix: (Units=GPa)
#
#
# Indices 1 2 3 4 5 6 
#
# 1 62.2637 10.0408 -2.8409 0.0000 0.0000 0.0000
# 2 10.0408 97.7624 27.5296 0.0000 0.0000 0.0000
# 3 -2.8409 27.5296 132.5840 0.0000 0.0000 0.0000
# 4 0.0000 0.0000 0.0000 12.6778 0.0000 0.0000
# 5 0.0000 0.0000 0.0000 0.0000 35.8892 0.0000
# 6 0.0000 0.0000 0.0000 0.0000 0.0000 5.9447
#
#
#
# Elastic Compliance Matrix: (Units=1/GPa)
#
#
# Indices 1 2 3 4 5 6 
#
# 1 0.016400 -0.001894 0.000745 0.000000 0.000000 0.000000
# 2 -0.001894 0.011083 -0.002342 0.000000 0.000000 0.000000
# 3 0.000745 -0.002342 0.008045 0.000000 0.000000 0.000000
# 4 0.000000 0.000000 0.000000 0.078878 0.000000 0.000000
# 5 0.000000 0.000000 0.000000 0.000000 0.027864 0.000000
# 6 0.000000 0.000000 0.000000 0.000000 0.000000 0.168218
#
#
# Mechanical properties :
#
#
# Convention : Reuss Voigt Hill
#
# Bulk Modulus (GPa) = 35.03223 40.22992 37.63107
# Shear Modulus (GPa) = 15.29126 28.09437 21.69281
#
# Velocity S-wave (km/s) = 2.83527 3.84311 3.37700
# Velocity P-wave (km/s) = 5.39770 6.39077 5.91512
#
# Compressibility (1/GPa) = 0.02854515
#
# Stress axis : x y z
#
# Youngs Moduli (GPa) = 60.97506 90.22931 124.30702
#
# Poissons Ratio (x) = 0.17090 -0.09257
# Poissons Ratio (y) = 0.11549 0.29111
# Poissons Ratio (z) = -0.04541 0.21130
#
# Static dielectric constant tensor:
#      x y z
#    x 1.683310 0.000000 0.000000 
#    y 0.000000 1.740980 0.000000 
#    z 0.000000 0.000000 1.758600 
# 
# From -- ./inp_files/40472.got.cif
#   From: 2010.05.17/outbox.cif.g08.bks.cpg/sg65_21_cif.got.tgz:40472.got - 2010.06.03 17:01:31.
