data_PCOD9492377
_publ_section_title
;
Structure prediction by ZEFSAII (Michael W. Deem and Ramdas Pophale) SiO2 
 PCOD9492377
Probable space group: C M M M
;
_chemical_formula_sum "Si O2"
_cell_formula_units_Z 56
_cell_length_a 8.657681
_cell_length_b 15.718780
_cell_length_c 21.730452
_cell_angle_alpha 90.000000
_cell_angle_beta 90.000000
_cell_angle_gamma 90.000000
_cell_volume 2957.257727
_symmetry_space_group_name_H-M "C M M M"
_symmetry_group_IT_number 65
_symmetry_cell_setting 'orthorhombic'
loop_
_space_group_symop_operation_xyz
x,y,z
-x,-y,z
x,-y,-z
-x,y,-z
-x,-y,-z
x,y,-z
-x,y,z
x,-y,z
1/2+x,1/2+y,z
1/2-x,1/2-y,z
1/2+x,1/2-y,-z
1/2-x,1/2+y,-z
1/2-x,1/2-y,-z
1/2+x,1/2+y,-z
1/2-x,1/2+y,z
1/2+x,1/2-y,z
loop_
_atom_site_type_symbol
_atom_site_label
_atom_site_fract_x
_atom_site_fract_y
_atom_site_fract_z
Si Si1 0.815568 0.341482 0.630632
Si Si2 0.316765 0.397705 0.500000
Si Si3 0.187592 0.500000 0.844148
Si Si4 0.813872 0.657656 0.929300
Si Si5 0.315622 0.500000 0.293130
O O1 0.750000 0.250000 0.649983
O O2 0.758884 0.360174 0.561234
O O3 0.750707 0.416942 0.672832
O O4 0.000000 0.341035 0.632728
O O5 0.296725 0.500000 0.500000
O O6 0.500000 0.379670 0.500000
O O7 0.233305 0.416882 0.883283
O O8 0.262252 0.500000 0.777346
O O9 0.000000 0.500000 0.838283
O O10 0.750000 0.750000 0.911879
O O11 0.000000 0.660822 0.928999
O O12 0.765133 0.639753 0.000000
O O13 0.500000 0.500000 0.298405
#
# Coordination Sequence:
#
# PCOD9492377 Si02
#       5
#    16   8   8  16   8
#     4  12  25  43  67  93 123 160 204 251 306 363
#     4  11  22  39  66  96 129 161 197 247 304 360
#     4  10  21  38  59  83 116 159 202 241 295 359
#     4   9  18  34  58  87 118 152 193 242 295 352
#     4  12  26  44  62  87 122 161 207 255 304 360
#
# _framework density 18.936464000000001
#
# number of rings (size 3 to 8) (size 9 to 14) (size 15 to 20)
#    0.000    1.286    1.429    5.143    0.000    4.571 
#    0.000    2.857    0.000    4.286    0.000    0.000 
#    0.000    0.000    0.000    0.000    0.000    0.000 
#
# Total GULP energy -156610.159584 kJ/mol
# GULP energy per Si atom -5593.219985 kJ/mol
# Density = 1.889336 g / cm^3
# Si number density = 18.936464 Si / 1000 Ang^3
#
#
#
# Elastic Constant Matrix: (Units=GPa)
#
#
# Indices 1 2 3 4 5 6 
#
# 1 123.3681 82.2498 58.2470 0.0000 0.0000 0.0000
# 2 82.2498 198.1880 118.6618 0.0000 0.0000 0.0000
# 3 58.2470 118.6618 146.7799 0.0000 0.0000 0.0000
# 4 0.0000 0.0000 0.0000 -18.0910 0.0000 0.0000
# 5 0.0000 0.0000 0.0000 0.0000 24.8158 0.0000
# 6 0.0000 0.0000 0.0000 0.0000 0.0000 35.6226
#
#
#
# Elastic Compliance Matrix: (Units=1/GPa)
#
#
# Indices 1 2 3 4 5 6 
#
# 1 0.011343 -0.003900 -0.001348 0.000000 0.000000 0.000000
# 2 -0.003900 0.011120 -0.007442 0.000000 0.000000 0.000000
# 3 -0.001348 -0.007442 0.013365 0.000000 0.000000 0.000000
# 4 0.000000 0.000000 0.000000 -0.055276 0.000000 0.000000
# 5 0.000000 0.000000 0.000000 0.000000 0.040297 0.000000
# 6 0.000000 0.000000 0.000000 0.000000 0.000000 0.028072
#
#
# Mechanical properties :
#
#
# Convention : Reuss Voigt Hill
#
# Bulk Modulus (GPa) = 95.72805 109.62814 102.67809
# Shear Modulus (GPa) = 64.28125 22.41463 43.34794
#
# Velocity S-wave (km/s) = 5.83262 3.44419 4.78967
# Velocity P-wave (km/s) = 9.79904 8.59272 9.21564
#
# Compressibility (1/GPa) = 0.01044626
#
# Stress axis : x y z
#
# Youngs Moduli (GPa) = 88.16387 89.92618 74.82508
#
# Poissons Ratio (x) = 0.35072 0.10087
# Poissons Ratio (y) = 0.34385 0.55687
# Poissons Ratio (z) = 0.11886 0.66926
#
# Static dielectric constant tensor:
#      x y z
#    x 1.635060 0.000000 0.000000 
#    y 0.000000 1.640080 0.000000 
#    z 0.000000 0.000000 1.627280 
# 
# From -- ./inp_files/58618.got.cif
#   From: 2010.05.17/outbox.cif.g08.bks.cpg/sg65_30_cif.got.tgz:58618.got - 2010.06.03 17:01:31.
