data_PCOD9492529
_publ_section_title
;
Structure prediction by ZEFSAII (Michael W. Deem and Ramdas Pophale) SiO2 
 PCOD9492529
Probable space group: C M M M
;
_chemical_formula_sum "Si O2"
_cell_formula_units_Z 88
_cell_length_a 24.122571
_cell_length_b 8.563217
_cell_length_c 23.403171
_cell_angle_alpha 90.000000
_cell_angle_beta 90.000000
_cell_angle_gamma 90.000000
_cell_volume 4834.318379
_symmetry_space_group_name_H-M "C M M M"
_symmetry_group_IT_number 65
_symmetry_cell_setting 'orthorhombic'
loop_
_space_group_symop_operation_xyz
x,y,z
-x,-y,z
x,-y,-z
-x,y,-z
-x,-y,-z
x,y,-z
-x,y,z
x,-y,z
1/2+x,1/2+y,z
1/2-x,1/2-y,z
1/2+x,1/2-y,-z
1/2-x,1/2+y,-z
1/2-x,1/2-y,-z
1/2+x,1/2+y,-z
1/2-x,1/2+y,z
1/2+x,1/2-y,z
loop_
_atom_site_type_symbol
_atom_site_label
_atom_site_fract_x
_atom_site_fract_y
_atom_site_fract_z
Si Si1 0.000000 0.818382 0.313884
Si Si2 0.187623 0.813008 0.436433
Si Si3 0.500000 0.183749 0.189996
Si Si4 0.619999 0.813803 0.670426
Si Si5 0.187537 0.688491 0.215655
Si Si6 0.935215 0.189064 0.000000
Si Si7 0.605653 0.688362 0.123836
O O1 0.000000 0.787623 0.246287
O O2 0.942925 0.743002 0.334355
O O3 0.000000 0.000000 0.327517
O O4 0.166544 0.768601 0.500000
O O5 0.250000 0.750000 0.432001
O O6 0.153167 0.746543 0.384126
O O7 0.188421 0.000000 0.433046
O O8 0.445806 0.228648 0.154809
O O9 0.500000 0.000000 0.204949
O O10 0.649658 0.761679 0.729775
O O11 0.620882 0.000000 0.671566
O O12 0.187623 0.500000 0.213372
O O13 0.250000 0.750000 0.223027
O O14 0.159752 0.755744 0.158041
O O15 0.902156 0.232292 0.942648
O O16 0.000000 0.244560 0.000000
O O17 0.938765 0.000000 0.000000
O O18 0.600903 0.500000 0.128503
#
# Coordination Sequence:
#
# PCOD9492529 Si02
#       7
#     8  16   8  16  16   8  16
#     4  12  24  38  60  88 120 158 196 235 291 352
#     4  10  21  38  61  89 121 158 203 249 292 343
#     4  12  22  35  55  85 122 154 191 238 289 345
#     4  11  23  39  61  89 123 154 192 244 295 349
#     4  11  24  40  59  85 118 152 194 243 291 348
#     4   9  18  34  57  88 117 146 191 241 288 346
#     4  11  21  37  61  86 116 153 194 240 294 348
#
# _framework density 18.203187
#
# number of rings (size 3 to 8) (size 9 to 14) (size 15 to 20)
#    0.000    1.182    2.727    4.364    0.000    4.727 
#    0.000    3.182    0.000    2.727    0.000    0.000 
#    0.000    0.000    0.000    0.000    0.000    0.000 
#
# Total GULP energy -245784.652672 kJ/mol
# GULP energy per Si atom -5586.014833 kJ/mol
# Density = 1.816176 g / cm^3
# Si number density = 18.203187 Si / 1000 Ang^3
#
#
#
# Elastic Constant Matrix: (Units=GPa)
#
#
# Indices 1 2 3 4 5 6 
#
# 1 122.3594 28.1031 66.4141 0.0000 0.0000 0.0000
# 2 28.1031 48.0839 26.3732 0.0000 0.0000 0.0000
# 3 66.4141 26.3732 139.4042 0.0000 0.0000 0.0000
# 4 0.0000 0.0000 0.0000 22.0812 0.0000 0.0000
# 5 0.0000 0.0000 0.0000 0.0000 38.4229 0.0000
# 6 0.0000 0.0000 0.0000 0.0000 0.0000 33.2249
#
#
#
# Elastic Compliance Matrix: (Units=1/GPa)
#
#
# Indices 1 2 3 4 5 6 
#
# 1 0.011749 -0.004236 -0.004796 0.000000 0.000000 0.000000
# 2 -0.004236 0.024732 -0.002661 0.000000 0.000000 0.000000
# 3 -0.004796 -0.002661 0.009962 0.000000 0.000000 0.000000
# 4 0.000000 0.000000 0.000000 0.045287 0.000000 0.000000
# 5 0.000000 0.000000 0.000000 0.000000 0.026026 0.000000
# 6 0.000000 0.000000 0.000000 0.000000 0.000000 0.030098
#
#
# Mechanical properties :
#
#
# Convention : Reuss Voigt Hill
#
# Bulk Modulus (GPa) = 43.37100 61.29203 52.33151
# Shear Modulus (GPa) = 27.94465 31.34294 29.64380
#
# Velocity S-wave (km/s) = 3.92235 4.15401 4.03984
# Velocity P-wave (km/s) = 6.66265 7.53338 7.11135
#
# Compressibility (1/GPa) = 0.02305688
#
# Stress axis : x y z
#
# Youngs Moduli (GPa) = 85.11613 40.43303 100.38593
#
# Poissons Ratio (x) = 0.17128 0.48143
# Poissons Ratio (y) = 0.36057 0.26711
# Poissons Ratio (z) = 0.40820 0.10758
#
# Static dielectric constant tensor:
#      x y z
#    x 1.613020 0.000000 0.000000 
#    y 0.000000 1.613450 0.000000 
#    z 0.000000 0.000000 1.632170 
# 
# From -- ./inp_files/65257.got.cif
#   From: 2010.05.17/outbox.cif.g08.bks.cpg/sg65_33_cif.got.tgz:65257.got - 2010.06.03 17:01:31.
