data_PCOD9492508
_publ_section_title
;
Structure prediction by ZEFSAII (Michael W. Deem and Ramdas Pophale) SiO2 
 PCOD9492508
Probable space group: C M M M
;
_chemical_formula_sum "Si O2"
_cell_formula_units_Z 80
_cell_length_a 30.943193
_cell_length_b 8.868068
_cell_length_c 14.503121
_cell_angle_alpha 90.000000
_cell_angle_beta 90.000000
_cell_angle_gamma 90.000000
_cell_volume 3979.748347
_symmetry_space_group_name_H-M "C M M M"
_symmetry_group_IT_number 65
_symmetry_cell_setting 'orthorhombic'
loop_
_space_group_symop_operation_xyz
x,y,z
-x,-y,z
x,-y,-z
-x,y,-z
-x,-y,-z
x,y,-z
-x,y,z
x,-y,z
1/2+x,1/2+y,z
1/2-x,1/2-y,z
1/2+x,1/2-y,-z
1/2-x,1/2+y,-z
1/2-x,1/2-y,-z
1/2+x,1/2+y,-z
1/2-x,1/2+y,z
1/2+x,1/2-y,z
loop_
_atom_site_type_symbol
_atom_site_label
_atom_site_fract_x
_atom_site_fract_y
_atom_site_fract_z
Si Si1 0.297102 0.178427 0.742183
Si Si2 0.863830 0.826820 0.389100
Si Si3 0.953629 0.177387 0.112076
Si Si4 0.547699 0.825303 0.387870
Si Si5 0.141096 0.182361 0.108348
O O1 0.250000 0.250000 0.732560
O O2 0.327549 0.224825 0.656876
O O3 0.321824 0.245485 0.830696
O O4 0.293502 0.000000 0.749361
O O5 0.861773 0.817705 0.500000
O O6 0.911597 0.773458 0.359472
O O7 0.857011 0.000000 0.361079
O O8 0.906737 0.238465 0.139677
O O9 0.000000 0.244824 0.141438
O O10 0.954126 0.000000 0.137271
O O11 0.953127 0.181738 0.000000
O O12 0.547717 0.825055 0.500000
O O13 0.500000 0.771149 0.359229
O O14 0.552929 0.000000 0.359463
O O15 0.141710 0.000000 0.117375
O O16 0.146310 0.216474 0.000000
#
# Coordination Sequence:
#
# PCOD9492508 Si02
#       5
#    16  16  16  16  16
#     4  12  26  43  62  82 109 145 187 239 293 347
#     4  10  21  38  61  88 117 149 188 234 283 339
#     4   7  10  20  44  79 114 146 180 218 262 313
#     4   8  14  27  50  81 117 155 191 227 272 327
#     4   9  18  35  60  88 118 151 188 232 280 332
#
# _framework density 20.101775
#
# number of rings (size 3 to 8) (size 9 to 14) (size 15 to 20)
#    0.000    2.800    0.000    4.800    0.000    2.800 
#    0.000    3.000    0.000    4.200    0.000    2.800 
#    0.000    0.000    0.000    0.000    0.000    0.000 
#
# Total GULP energy -223186.843000 kJ/mol
# GULP energy per Si atom -5579.671075 kJ/mol
# Density = 2.005602 g / cm^3
# Si number density = 20.101775 Si / 1000 Ang^3
#
#
#
# Elastic Constant Matrix: (Units=GPa)
#
#
# Indices 1 2 3 4 5 6 
#
# 1 161.6906 46.6557 22.3721 0.0000 0.0000 0.0000
# 2 46.6557 61.2254 16.0926 0.0000 0.0000 0.0000
# 3 22.3721 16.0926 64.0929 0.0000 0.0000 0.0000
# 4 0.0000 0.0000 0.0000 22.7228 0.0000 0.0000
# 5 0.0000 0.0000 0.0000 0.0000 31.1571 0.0000
# 6 0.0000 0.0000 0.0000 0.0000 0.0000 -68.5979
#
#
#
# Elastic Compliance Matrix: (Units=1/GPa)
#
#
# Indices 1 2 3 4 5 6 
#
# 1 0.008037 -0.005767 -0.001357 0.000000 0.000000 0.000000
# 2 -0.005767 0.021626 -0.003417 0.000000 0.000000 0.000000
# 3 -0.001357 -0.003417 0.016934 0.000000 0.000000 0.000000
# 4 0.000000 0.000000 0.000000 0.044009 0.000000 0.000000
# 5 0.000000 0.000000 0.000000 0.000000 0.032095 0.000000
# 6 0.000000 0.000000 0.000000 0.000000 0.000000 -0.014578
#
#
# Mechanical properties :
#
#
# Convention : Reuss Voigt Hill
#
# Bulk Modulus (GPa) = 39.19417 50.80552 44.99985
# Shear Modulus (GPa) = 36.30804 10.51562 23.41183
#
# Velocity S-wave (km/s) = 4.25456 2.28966 3.41642
# Velocity P-wave (km/s) = 6.60873 5.68499 6.16419
#
# Compressibility (1/GPa) = 0.02551400
#
# Stress axis : x y z
#
# Youngs Moduli (GPa) = 124.43044 46.24033 59.05288
#
# Poissons Ratio (x) = 0.26669 0.08014
# Poissons Ratio (y) = 0.71765 0.20177
# Poissons Ratio (z) = 0.16887 0.15799
#
# Static dielectric constant tensor:
#      x y z
#    x 1.717280 0.000000 0.000000 
#    y 0.000000 1.675400 0.000000 
#    z 0.000000 0.000000 1.753360 
# 
# From -- ./inp_files/57846.got.cif
#   From: 2010.05.17/outbox.cif.g08.bks.cpg/sg65_29_cif.got.tgz:57846.got - 2010.06.03 17:01:31.
