data_PCOD9492232
_publ_section_title
;
Structure prediction by ZEFSAII (Michael W. Deem and Ramdas Pophale) SiO2 
 PCOD9492232
Probable space group: C M M M
;
_chemical_formula_sum "Si O2"
_cell_formula_units_Z 72
_cell_length_a 14.754360
_cell_length_b 9.689645
_cell_length_c 22.749919
_cell_angle_alpha 90.000000
_cell_angle_beta 90.000000
_cell_angle_gamma 90.000000
_cell_volume 3252.431036
_symmetry_space_group_name_H-M "C M M M"
_symmetry_group_IT_number 65
_symmetry_cell_setting 'orthorhombic'
loop_
_space_group_symop_operation_xyz
x,y,z
-x,-y,z
x,-y,-z
-x,y,-z
-x,-y,-z
x,y,-z
-x,y,z
x,-y,z
1/2+x,1/2+y,z
1/2-x,1/2-y,z
1/2+x,1/2-y,-z
1/2-x,1/2+y,-z
1/2-x,1/2-y,-z
1/2+x,1/2+y,-z
1/2-x,1/2+y,z
1/2+x,1/2-y,z
loop_
_atom_site_type_symbol
_atom_site_label
_atom_site_fract_x
_atom_site_fract_y
_atom_site_fract_z
Si Si1 0.860735 0.754516 0.852239
Si Si2 0.605704 0.841489 0.610353
Si Si3 0.635330 0.000000 0.068558
Si Si4 0.846034 0.830584 0.723789
Si Si5 0.888518 0.838875 0.500000
Si Si6 0.856450 0.000000 0.934008
O O1 0.750000 0.750000 0.849402
O O2 0.891133 0.624275 0.889157
O O3 0.890474 0.786845 0.785976
O O4 0.886744 0.873574 0.896036
O O5 0.500000 0.860160 0.597132
O O6 0.610280 0.743796 0.667696
O O7 0.642286 0.749409 0.556626
O O8 0.643417 0.000000 0.617443
O O9 0.745831 0.000000 0.064451
O O10 0.605033 0.000000 0.000000
O O11 0.750000 0.750000 0.724634
O O12 0.840405 0.000000 0.720381
O O13 0.000000 0.843739 0.500000
O O14 0.858912 0.000000 0.500000
O O15 0.888668 0.000000 0.000000
#
# Coordination Sequence:
#
# PCOD9492232 Si02
#       6
#    16  16   8  16   8   8
#     4   9  17  26  40  62  93 133 171 213 262 316
#     4  10  21  37  59  85 112 142 179 221 264 313
#     4   9  16  24  38  60  89 128 171 214 262 315
#     4  11  22  35  53  77 109 149 185 220 268 323
#     4   9  17  33  58  85 112 141 174 217 265 311
#     4   9  14  24  38  58  89 126 169 212 260 311
#
# _framework density 22.137288000000002
#
# number of rings (size 3 to 8) (size 9 to 14) (size 15 to 20)
#    0.000    2.333    1.111    2.333    6.222    5.333 
#    0.000    0.556    0.000    0.000    0.000    0.000 
#    0.000    5.333    0.000    0.000    0.000    0.000 
#
# Total GULP energy -200538.561775 kJ/mol
# GULP energy per Si atom -5570.515605 kJ/mol
# Density = 2.208690 g / cm^3
# Si number density = 22.137288 Si / 1000 Ang^3
#
#
#
# Elastic Constant Matrix: (Units=GPa)
#
#
# Indices 1 2 3 4 5 6 
#
# 1 60.3616 10.0579 6.9039 0.0000 0.0000 0.0000
# 2 10.0579 275.9009 134.3822 0.0000 0.0000 0.0000
# 3 6.9039 134.3822 249.3136 0.0000 0.0000 0.0000
# 4 0.0000 0.0000 0.0000 32.0458 0.0000 0.0000
# 5 0.0000 0.0000 0.0000 0.0000 15.8382 0.0000
# 6 0.0000 0.0000 0.0000 0.0000 0.0000 19.0569
#
#
#
# Elastic Compliance Matrix: (Units=1/GPa)
#
#
# Indices 1 2 3 4 5 6 
#
# 1 0.016674 -0.000519 -0.000182 0.000000 0.000000 0.000000
# 2 -0.000519 0.004931 -0.002643 0.000000 0.000000 0.000000
# 3 -0.000182 -0.002643 0.005441 0.000000 0.000000 0.000000
# 4 0.000000 0.000000 0.000000 0.031205 0.000000 0.000000
# 5 0.000000 0.000000 0.000000 0.000000 0.063138 0.000000
# 6 0.000000 0.000000 0.000000 0.000000 0.000000 0.052474
#
#
# Mechanical properties :
#
#
# Convention : Reuss Voigt Hill
#
# Bulk Modulus (GPa) = 49.12352 98.69603 73.90978
# Shear Modulus (GPa) = 26.68959 42.33699 34.51329
#
# Velocity S-wave (km/s) = 3.47600 4.37793 3.95277
# Velocity P-wave (km/s) = 6.19263 8.38066 7.36831
#
# Compressibility (1/GPa) = 0.02035685
#
# Stress axis : x y z
#
# Youngs Moduli (GPa) = 59.97309 202.80044 183.79349
#
# Poissons Ratio (x) = 0.10531 0.03342
# Poissons Ratio (y) = 0.03114 0.48585
# Poissons Ratio (z) = 0.01091 0.53609
#
# Static dielectric constant tensor:
#      x y z
#    x 1.893190 0.000000 0.000000 
#    y 0.000000 1.745350 0.000000 
#    z 0.000000 0.000000 1.792390 
# 
# From -- ./inp_files/65004.got.cif
#   From: 2010.05.17/outbox.cif.g08.bks.cpg/sg65_33_cif.got.tgz:65004.got - 2010.06.03 17:01:31.
