data_PCOD9492176
_publ_section_title
;
Structure prediction by ZEFSAII (Michael W. Deem and Ramdas Pophale) SiO2 
 PCOD9492176
Probable space group: C M M M
;
_chemical_formula_sum "Si O2"
_cell_formula_units_Z 80
_cell_length_a 7.656472
_cell_length_b 30.211991
_cell_length_c 16.092559
_cell_angle_alpha 90.000000
_cell_angle_beta 90.000000
_cell_angle_gamma 90.000000
_cell_volume 3722.486705
_symmetry_space_group_name_H-M "C M M M"
_symmetry_group_IT_number 65
_symmetry_cell_setting 'orthorhombic'
loop_
_space_group_symop_operation_xyz
x,y,z
-x,-y,z
x,-y,-z
-x,y,-z
-x,-y,-z
x,y,-z
-x,y,z
x,-y,z
1/2+x,1/2+y,z
1/2-x,1/2-y,z
1/2+x,1/2-y,-z
1/2-x,1/2+y,-z
1/2-x,1/2-y,-z
1/2+x,1/2+y,-z
1/2-x,1/2+y,z
1/2+x,1/2-y,z
loop_
_atom_site_type_symbol
_atom_site_label
_atom_site_fract_x
_atom_site_fract_y
_atom_site_fract_z
Si Si1 0.290973 0.860406 0.091644
Si Si2 0.785833 0.855138 0.409379
Si Si3 0.793476 0.198435 0.249705
Si Si4 0.288142 0.951374 0.830112
Si Si5 0.206259 0.048204 0.364895
O O1 0.500000 0.864236 0.086120
O O2 0.257506 0.825613 0.164496
O O3 0.224702 0.908825 0.119606
O O4 0.224557 0.848061 0.000000
O O5 0.736129 0.837276 0.500000
O O6 0.721316 0.827144 0.330677
O O7 0.724969 0.906076 0.401632
O O8 0.000000 0.855869 0.406436
O O9 0.750000 0.250000 0.249845
O O10 0.000000 0.194391 0.255316
O O11 0.500000 0.950415 0.829319
O O12 0.227393 0.947999 0.734720
O O13 0.234870 0.000000 0.861961
O O14 0.000000 0.047053 0.384458
O O15 0.279929 0.000000 0.389529
#
# Coordination Sequence:
#
# PCOD9492176 Si02
#       5
#    16  16  16  16  16
#     4  10  21  37  58  84 113 145 183 225 269 322
#     4   9  18  33  54  82 113 143 179 222 268 320
#     4  11  23  40  61  82 107 141 179 228 283 332
#     4   9  17  30  51  79 112 148 182 218 262 313
#     4   9  16  28  50  79 110 145 183 219 259 312
#
# _framework density 21.491009999999999
#
# number of rings (size 3 to 8) (size 9 to 14) (size 15 to 20)
#    0.000    2.400    2.000    0.600    0.000    2.000 
#    0.000    4.000    0.000    4.800    0.000    7.000 
#    0.000    0.000    0.000    0.000    0.000    0.000 
#
# Total GULP energy -223258.089752 kJ/mol
# GULP energy per Si atom -5581.452244 kJ/mol
# Density = 2.144210 g / cm^3
# Si number density = 21.491010 Si / 1000 Ang^3
#
#
#
# Elastic Constant Matrix: (Units=GPa)
#
#
# Indices 1 2 3 4 5 6 
#
# 1 40.0609 1.7313 1.9630 0.0000 0.0000 0.0000
# 2 1.7313 166.1446 103.9902 0.0000 0.0000 0.0000
# 3 1.9630 103.9902 175.6793 0.0000 0.0000 0.0000
# 4 0.0000 0.0000 0.0000 -6.0960 0.0000 0.0000
# 5 0.0000 0.0000 0.0000 0.0000 17.5869 0.0000
# 6 0.0000 0.0000 0.0000 0.0000 0.0000 -4.5742
#
#
#
# Elastic Compliance Matrix: (Units=1/GPa)
#
#
# Indices 1 2 3 4 5 6 
#
# 1 0.024978 -0.000136 -0.000199 0.000000 0.000000 0.000000
# 2 -0.000136 0.009562 -0.005658 0.000000 0.000000 0.000000
# 3 -0.000199 -0.005658 0.009044 0.000000 0.000000 0.000000
# 4 0.000000 0.000000 0.000000 -0.164042 0.000000 0.000000
# 5 0.000000 0.000000 0.000000 0.000000 0.056861 0.000000
# 6 0.000000 0.000000 0.000000 0.000000 0.000000 -0.218616
#
#
# Mechanical properties :
#
#
# Convention : Reuss Voigt Hill
#
# Bulk Modulus (GPa) = 31.64830 66.36154 49.00492
# Shear Modulus (GPa) = -19.25336 19.66334 0.20499
#
# Velocity S-wave (km/s) = -2.99637 3.02811 0.30918
# Velocity P-wave (km/s) = 1.66951 6.57052 4.79369
#
# Compressibility (1/GPa) = 0.03159727
#
# Stress axis : x y z
#
# Youngs Moduli (GPa) = 40.03582 104.58134 110.57227
#
# Poissons Ratio (x) = 0.01422 0.02196
# Poissons Ratio (y) = 0.00544 0.62567
# Poissons Ratio (z) = 0.00795 0.59177
#
# Static dielectric constant tensor:
#      x y z
#    x 1.827000 0.000000 0.000000 
#    y 0.000000 1.734990 0.000000 
#    z 0.000000 0.000000 1.801150 
# 
# From -- ./inp_files/22877.got.cif
#   From: 2010.05.17/outbox.cif.g08.bks.cpg/sg65_12_cif.got.tgz:22877.got - 2010.06.03 17:01:31.
