data_PCOD9492129
_publ_section_title
;
Structure prediction by ZEFSAII (Michael W. Deem and Ramdas Pophale) SiO2 
 PCOD9492129
Probable space group: C M M M
;
_chemical_formula_sum "Si O2"
_cell_formula_units_Z 80
_cell_length_a 23.747264
_cell_length_b 15.026520
_cell_length_c 12.120899
_cell_angle_alpha 90.000000
_cell_angle_beta 90.000000
_cell_angle_gamma 90.000000
_cell_volume 4325.206296
_symmetry_space_group_name_H-M "C M M M"
_symmetry_group_IT_number 65
_symmetry_cell_setting 'orthorhombic'
loop_
_space_group_symop_operation_xyz
x,y,z
-x,-y,z
x,-y,-z
-x,y,-z
-x,-y,-z
x,y,-z
-x,y,z
x,-y,z
1/2+x,1/2+y,z
1/2-x,1/2-y,z
1/2+x,1/2-y,-z
1/2-x,1/2+y,-z
1/2-x,1/2-y,-z
1/2+x,1/2+y,-z
1/2-x,1/2+y,z
1/2+x,1/2-y,z
loop_
_atom_site_type_symbol
_atom_site_label
_atom_site_fract_x
_atom_site_fract_y
_atom_site_fract_z
Si Si1 0.118478 0.341944 0.770053
Si Si2 0.067391 0.395471 0.000000
Si Si3 0.171394 0.000000 0.131021
Si Si4 0.934180 0.803737 0.627040
Si Si5 0.935837 0.000000 0.285821
Si Si6 0.432638 0.000000 0.627959
Si Si7 0.263950 0.145740 0.872926
O O1 0.089868 0.348805 0.890045
O O2 0.105548 0.248234 0.711989
O O3 0.090659 0.414538 0.690892
O O4 0.183338 0.365591 0.792529
O O5 0.084889 0.500000 0.000000
O O6 0.000000 0.393695 0.000000
O O7 0.210453 0.085573 0.156845
O O8 0.113109 0.000000 0.195459
O O9 0.160772 0.000000 0.000000
O O10 0.921363 0.780676 0.500000
O O11 0.930036 0.909614 0.644314
O O12 0.000000 0.778821 0.647862
O O13 0.000000 0.000000 0.240013
O O14 0.500000 0.000000 0.634826
O O15 0.416292 0.000000 0.500000
O O16 0.250000 0.250000 0.872933
O O17 0.279629 0.120976 0.000000
#
# Coordination Sequence:
#
# PCOD9492129 Si02
#       7
#    16   8   8  16   8   8  16
#     4  12  21  36  60  85 121 156 197 242 286 349
#     4  11  22  34  53  87 127 157 186 238 298 347
#     4  10  21  37  60  84 117 152 189 239 293 359
#     4  10  21  38  61  87 116 157 205 245 291 350
#     4  10  21  40  64  89 113 145 196 255 306 348
#     4  11  23  37  56  85 122 162 199 235 284 350
#     4  10  21  37  57  83 112 153 200 234 281 350
#
# _framework density 18.496227999999999
#
# number of rings (size 3 to 8) (size 9 to 14) (size 15 to 20)
#    0.000    1.400    2.000    4.500    0.000    3.000 
#    1.800    0.000    0.000   18.000    0.000    0.000 
#    0.000    0.000    0.000    0.000    0.000    0.000 
#
# Total GULP energy -223465.300882 kJ/mol
# GULP energy per Si atom -5586.632522 kJ/mol
# Density = 1.845413 g / cm^3
# Si number density = 18.496228 Si / 1000 Ang^3
#
#
#
# Elastic Constant Matrix: (Units=GPa)
#
#
# Indices 1 2 3 4 5 6 
#
# 1 94.8010 21.7458 59.7859 0.0000 0.0000 0.0000
# 2 21.7458 84.0172 32.7358 0.0000 0.0000 0.0000
# 3 59.7859 32.7358 120.6974 0.0000 0.0000 0.0000
# 4 0.0000 0.0000 0.0000 29.3855 0.0000 0.0000
# 5 0.0000 0.0000 0.0000 0.0000 39.5907 0.0000
# 6 0.0000 0.0000 0.0000 0.0000 0.0000 22.4183
#
#
#
# Elastic Compliance Matrix: (Units=1/GPa)
#
#
# Indices 1 2 3 4 5 6 
#
# 1 0.015437 -0.001136 -0.007338 0.000000 0.000000 0.000000
# 2 -0.001136 0.013392 -0.003069 0.000000 0.000000 0.000000
# 3 -0.007338 -0.003069 0.012753 0.000000 0.000000 0.000000
# 4 0.000000 0.000000 0.000000 0.034030 0.000000 0.000000
# 5 0.000000 0.000000 0.000000 0.000000 0.025258 0.000000
# 6 0.000000 0.000000 0.000000 0.000000 0.000000 0.044606
#
#
# Mechanical properties :
#
#
# Convention : Reuss Voigt Hill
#
# Bulk Modulus (GPa) = 54.07195 58.67227 56.37211
# Shear Modulus (GPa) = 28.61560 30.62878 29.62219
#
# Velocity S-wave (km/s) = 3.93759 4.07375 4.00625
# Velocity P-wave (km/s) = 7.06897 7.34284 7.20721
#
# Compressibility (1/GPa) = 0.01849388
#
# Stress axis : x y z
#
# Youngs Moduli (GPa) = 64.77980 74.66937 78.41521
#
# Poissons Ratio (x) = 0.08484 0.57543
# Poissons Ratio (y) = 0.07360 0.24069
# Poissons Ratio (z) = 0.47537 0.22920
#
# Static dielectric constant tensor:
#      x y z
#    x 1.627880 0.000000 0.000000 
#    y 0.000000 1.654870 0.000000 
#    z 0.000000 0.000000 1.604810 
# 
# From -- ./inp_files/30478.got.cif
#   From: 2010.05.17/outbox.cif.g08.bks.cpg/sg65_16_cif.got.tgz:30478.got - 2010.06.03 17:01:31.
