data_PCOD9492573
_publ_section_title
;
Structure prediction by ZEFSAII (Michael W. Deem and Ramdas Pophale) SiO2 
 PCOD9492573
Probable space group: C M M M
;
_chemical_formula_sum "Si O2"
_cell_formula_units_Z 50
_cell_length_a 9.307917
_cell_length_b 28.239543
_cell_length_c 10.167711
_cell_angle_alpha 90.000000
_cell_angle_beta 90.000000
_cell_angle_gamma 90.000000
_cell_volume 2672.596282
_symmetry_space_group_name_H-M "C M M M"
_symmetry_group_IT_number 65
_symmetry_cell_setting 'orthorhombic'
loop_
_space_group_symop_operation_xyz
x,y,z
-x,-y,z
x,-y,-z
-x,y,-z
-x,-y,-z
x,y,-z
-x,y,z
x,-y,z
1/2+x,1/2+y,z
1/2-x,1/2-y,z
1/2+x,1/2-y,-z
1/2-x,1/2+y,-z
1/2-x,1/2-y,-z
1/2+x,1/2+y,-z
1/2-x,1/2+y,z
1/2+x,1/2-y,z
loop_
_atom_site_type_symbol
_atom_site_label
_atom_site_fract_x
_atom_site_fract_y
_atom_site_fract_z
Si Si1 0.832838 0.943269 0.000000
Si Si2 0.330231 0.299432 0.842466
Si Si3 0.000000 0.000000 0.500000
Si Si4 0.334224 0.108558 0.231338
Si Si5 0.206536 0.446882 0.500000
O O1 0.750590 0.923774 0.126857
O O2 0.000000 0.927507 0.000000
O O3 0.831450 0.000000 0.000000
O O4 0.500000 0.297019 0.812045
O O5 0.250000 0.250000 0.816471
O O6 0.249703 0.341777 0.768617
O O7 0.317249 0.308907 0.000000
O O8 0.125144 0.959088 0.500000
O O9 0.500000 0.115609 0.190230
O O10 0.331793 0.082355 0.370694
O O11 0.143574 0.500000 0.500000
#
# Coordination Sequence:
#
# PCOD9492573 Si02
#       5
#     8  16   2  16   8
#     4  11  25  39  60  89 124 161 211 261 311 371
#     4  10  21  38  63  92 126 163 206 257 313 376
#     4   8  24  44  66  90 120 180 210 262 308 384
#     4  12  24  40  63  93 127 165 207 259 315 373
#     4  10  25  42  67  88 126 168 219 252 311 375
#
# _framework density 18.708400000000001
#
# number of rings (size 3 to 8) (size 9 to 14) (size 15 to 20)
#    0.480    0.800    1.600    3.840    4.480    5.120 
#    0.000    0.800    0.000    0.000    0.000    0.000 
#    0.000    0.000    0.000    0.000    0.000    0.000 
#
# Total GULP energy -139369.073732 kJ/mol
# GULP energy per Si atom -5574.762949 kJ/mol
# Density = 1.866582 g / cm^3
# Si number density = 18.708400 Si / 1000 Ang^3
#
#
#
# Elastic Constant Matrix: (Units=GPa)
#
#
# Indices 1 2 3 4 5 6 
#
# 1 204.9285 73.2717 45.1203 0.0000 0.0000 0.0000
# 2 73.2717 156.8721 65.0298 0.0000 0.0000 0.0000
# 3 45.1203 65.0298 113.9687 0.0000 0.0000 0.0000
# 4 0.0000 0.0000 0.0000 38.4898 0.0000 0.0000
# 5 0.0000 0.0000 0.0000 0.0000 -57.5835 0.0000
# 6 0.0000 0.0000 0.0000 0.0000 0.0000 33.8633
#
#
#
# Elastic Compliance Matrix: (Units=1/GPa)
#
#
# Indices 1 2 3 4 5 6 
#
# 1 0.005945 -0.002359 -0.001008 0.000000 0.000000 0.000000
# 2 -0.002359 0.009286 -0.004364 0.000000 0.000000 0.000000
# 3 -0.001008 -0.004364 0.011664 0.000000 0.000000 0.000000
# 4 0.000000 0.000000 0.000000 0.025981 0.000000 0.000000
# 5 0.000000 0.000000 0.000000 0.000000 -0.017366 0.000000
# 6 0.000000 0.000000 0.000000 0.000000 0.000000 0.029530
#
#
# Mechanical properties :
#
#
# Convention : Reuss Voigt Hill
#
# Bulk Modulus (GPa) = 87.47249 93.62364 90.54806
# Shear Modulus (GPa) = 59.30314 22.44377 40.87345
#
# Velocity S-wave (km/s) = 5.63627 3.46737 4.67922
# Velocity P-wave (km/s) = 9.44531 8.13526 8.81466
#
# Compressibility (1/GPa) = 0.01143217
#
# Stress axis : x y z
#
# Youngs Moduli (GPa) = 168.20570 107.69183 85.73741
#
# Poissons Ratio (x) = 0.25406 0.08638
# Poissons Ratio (y) = 0.39683 0.37419
# Poissons Ratio (z) = 0.16948 0.47001
#
# Static dielectric constant tensor:
#      x y z
#    x 1.632820 0.000000 0.000000 
#    y 0.000000 1.635360 0.000000 
#    z 0.000000 0.000000 1.626390 
# 
# From -- ./inp_files/3152.got.cif
#   From: 2010.05.17/outbox.cif.g08.bks.cpg/sg65_2_cif.got.tgz:3152.got - 2010.06.03 17:01:31.
