data_PCOD9492825
_publ_section_title
;
Structure prediction by ZEFSAII (Michael W. Deem and Ramdas Pophale) SiO2 
 PCOD9492825
Probable space group: C M M M
;
_chemical_formula_sum "Si O2"
_cell_formula_units_Z 88
_cell_length_a 8.056306
_cell_length_b 22.013525
_cell_length_c 27.472629
_cell_angle_alpha 90.000000
_cell_angle_beta 90.000000
_cell_angle_gamma 90.000000
_cell_volume 4872.207389
_symmetry_space_group_name_H-M "C M M M"
_symmetry_group_IT_number 65
_symmetry_cell_setting 'orthorhombic'
loop_
_space_group_symop_operation_xyz
x,y,z
-x,-y,z
x,-y,-z
-x,y,-z
-x,-y,-z
x,y,-z
-x,y,z
x,-y,z
1/2+x,1/2+y,z
1/2-x,1/2-y,z
1/2+x,1/2-y,-z
1/2-x,1/2+y,-z
1/2-x,1/2-y,-z
1/2+x,1/2+y,-z
1/2-x,1/2+y,z
1/2+x,1/2-y,z
loop_
_atom_site_type_symbol
_atom_site_label
_atom_site_fract_x
_atom_site_fract_y
_atom_site_fract_z
Si Si1 0.314551 0.572985 0.881195
Si Si2 0.000000 0.425751 0.943511
Si Si3 0.805012 0.680038 0.701908
Si Si4 0.800627 0.181704 0.500000
Si Si5 0.699292 0.000000 0.557946
Si Si6 0.197819 0.873538 0.599610
Si Si7 0.298033 0.069808 0.770258
O O1 0.500000 0.596870 0.891189
O O2 0.320673 0.500000 0.888204
O O3 0.266392 0.581543 0.824785
O O4 0.165662 0.595398 0.915467
O O5 0.000000 0.500000 0.941420
O O6 0.000000 0.408503 0.000000
O O7 0.750000 0.750000 0.709475
O O8 0.771532 0.658148 0.646893
O O9 0.737473 0.624951 0.735903
O O10 0.000000 0.680586 0.710567
O O11 0.750000 0.250000 0.500000
O O12 0.734158 0.154846 0.549805
O O13 0.000000 0.172781 0.500000
O O14 0.762017 0.056736 0.589324
O O15 0.500000 0.000000 0.556351
O O16 0.756135 0.000000 0.500000
O O17 0.000000 0.864985 0.602575
O O18 0.500000 0.069874 0.770964
O O19 0.248713 0.000000 0.756152
#
# Coordination Sequence:
#
# PCOD9492825 Si02
#       7
#    16   8  16   8   8  16  16
#     4   9  16  27  46  72 104 145 193 238 282 339
#     4   9  16  26  42  68 110 156 192 233 286 338
#     4  11  24  40  59  84 116 150 186 237 290 344
#     4  10  22  37  56  77 101 136 176 218 269 338
#     4  11  23  39  61  87 111 141 179 223 273 338
#     4  11  23  40  59  81 111 143 179 226 280 335
#     4   9  18  35  57  78 106 147 192 238 287 342
#
# _framework density 18.061629
#
# number of rings (size 3 to 8) (size 9 to 14) (size 15 to 20)
#    0.000    2.000    1.818    1.909    1.273    5.091 
#    0.000    1.818    0.000    0.000    0.000    0.000 
#    0.000    0.727    0.364    0.000    0.000    0.000 
#
# Total GULP energy -245190.146284 kJ/mol
# GULP energy per Si atom -5572.503325 kJ/mol
# Density = 1.802052 g / cm^3
# Si number density = 18.061629 Si / 1000 Ang^3
#
#
#
# Elastic Constant Matrix: (Units=GPa)
#
#
# Indices 1 2 3 4 5 6 
#
# 1 50.7791 23.4719 43.8703 0.0000 0.0000 0.0000
# 2 23.4719 117.4756 62.4157 0.0000 0.0000 0.0000
# 3 43.8703 62.4157 118.8020 0.0000 0.0000 0.0000
# 4 0.0000 0.0000 0.0000 -9.8874 0.0000 0.0000
# 5 0.0000 0.0000 0.0000 0.0000 24.6798 0.0000
# 6 0.0000 0.0000 0.0000 0.0000 0.0000 19.2919
#
#
#
# Elastic Compliance Matrix: (Units=1/GPa)
#
#
# Indices 1 2 3 4 5 6 
#
# 1 0.028921 -0.000145 -0.010604 0.000000 0.000000 0.000000
# 2 -0.000145 0.011809 -0.006151 0.000000 0.000000 0.000000
# 3 -0.010604 -0.006151 0.015565 0.000000 0.000000 0.000000
# 4 0.000000 0.000000 0.000000 -0.101139 0.000000 0.000000
# 5 0.000000 0.000000 0.000000 0.000000 0.040519 0.000000
# 6 0.000000 0.000000 0.000000 0.000000 0.000000 0.051835
#
#
# Mechanical properties :
#
#
# Convention : Reuss Voigt Hill
#
# Bulk Modulus (GPa) = 44.45167 60.73027 52.59097
# Shear Modulus (GPa) = 56.30115 17.30343 36.80229
#
# Velocity S-wave (km/s) = 5.58922 3.09855 4.51887
# Velocity P-wave (km/s) = 8.14353 6.81896 7.51050
#
# Compressibility (1/GPa) = 0.02249634
#
# Stress axis : x y z
#
# Youngs Moduli (GPa) = 34.57684 84.67870 64.24836
#
# Poissons Ratio (x) = 0.01225 0.68127
# Poissons Ratio (y) = 0.00500 0.39519
# Poissons Ratio (z) = 0.36664 0.52085
#
# Static dielectric constant tensor:
#      x y z
#    x 1.654490 0.000000 0.000000 
#    y 0.000000 1.330470 0.000000 
#    z 0.000000 0.000000 1.604230 
# 
# From -- ./inp_files/67636.got.cif
#   From: 2010.05.17/outbox.cif.g08.bks.cpg/sg65_34_cif.got.tgz:67636.got - 2010.06.03 17:01:31.
