data_PCOD9492509
_publ_section_title
;
Structure prediction by ZEFSAII (Michael W. Deem and Ramdas Pophale) SiO2 
 PCOD9492509
Probable space group: C M M M
;
_chemical_formula_sum "Si O2"
_cell_formula_units_Z 72
_cell_length_a 15.483789
_cell_length_b 9.719946
_cell_length_c 24.059744
_cell_angle_alpha 90.000000
_cell_angle_beta 90.000000
_cell_angle_gamma 90.000000
_cell_volume 3621.029798
_symmetry_space_group_name_H-M "C M M M"
_symmetry_group_IT_number 65
_symmetry_cell_setting 'orthorhombic'
loop_
_space_group_symop_operation_xyz
x,y,z
-x,-y,z
x,-y,-z
-x,y,-z
-x,-y,-z
x,y,-z
-x,y,z
x,-y,z
1/2+x,1/2+y,z
1/2-x,1/2-y,z
1/2+x,1/2-y,-z
1/2-x,1/2+y,-z
1/2-x,1/2-y,-z
1/2+x,1/2+y,-z
1/2-x,1/2+y,z
1/2+x,1/2-y,z
loop_
_atom_site_type_symbol
_atom_site_label
_atom_site_fract_x
_atom_site_fract_y
_atom_site_fract_z
Si Si1 0.332467 0.835013 0.364666
Si Si2 0.903208 0.500000 0.098303
Si Si3 0.348097 0.723754 0.152789
Si Si4 0.500000 0.166370 0.563023
Si Si5 0.703604 0.500000 0.935888
Si Si6 0.100445 0.150222 0.727586
O O1 0.250000 0.750000 0.384992
O O2 0.414379 0.797301 0.402879
O O3 0.352878 0.774966 0.303321
O O4 0.321688 0.000000 0.364556
O O5 0.894828 0.363102 0.135110
O O6 0.809459 0.500000 0.066524
O O7 0.000000 0.500000 0.071669
O O8 0.250000 0.750000 0.171781
O O9 0.334467 0.628674 0.098490
O O10 0.392995 0.659042 0.205933
O O11 0.500000 0.219563 0.500000
O O12 0.500000 0.000000 0.560314
O O13 0.677918 0.500000 0.000000
O O14 0.000000 0.156420 0.712428
O O15 0.135576 0.000000 0.710063
#
# Coordination Sequence:
#
# PCOD9492509 Si02
#       6
#    16   8  16   8   8  16
#     4  11  23  40  65  99 134 175 226 268 326 386
#     4  10  22  37  58  91 123 150 196 254 312 381
#     4  10  21  38  61  88 118 159 203 250 315 381
#     4   9  20  42  67  95 139 185 225 270 318 377
#     4  10  22  43  65  82 114 161 211 253 309 389
#     4  11  22  37  61  90 128 166 206 270 323 385
#
# _framework density 19.883846999999999
#
# number of rings (size 3 to 8) (size 9 to 14) (size 15 to 20)
#    0.000    1.667    2.222    2.000    1.556    4.667 
#    0.000    0.000    0.000    9.333    0.000    0.000 
#    0.000    0.000    0.000    0.000    0.000    0.000 
#
# Total GULP energy -200791.872041 kJ/mol
# GULP energy per Si atom -5577.552001 kJ/mol
# Density = 1.983859 g / cm^3
# Si number density = 19.883847 Si / 1000 Ang^3
#
#
#
# Elastic Constant Matrix: (Units=GPa)
#
#
# Indices 1 2 3 4 5 6 
#
# 1 120.7002 55.5276 48.4225 0.0000 0.0000 0.0000
# 2 55.5276 128.6231 42.2835 0.0000 0.0000 0.0000
# 3 48.4225 42.2835 118.3846 0.0000 0.0000 0.0000
# 4 0.0000 0.0000 0.0000 8.9507 0.0000 0.0000
# 5 0.0000 0.0000 0.0000 0.0000 21.1322 0.0000
# 6 0.0000 0.0000 0.0000 0.0000 0.0000 -28.9376
#
#
#
# Elastic Compliance Matrix: (Units=1/GPa)
#
#
# Indices 1 2 3 4 5 6 
#
# 1 0.011361 -0.003826 -0.003280 0.000000 0.000000 0.000000
# 2 -0.003826 0.010098 -0.002041 0.000000 0.000000 0.000000
# 3 -0.003280 -0.002041 0.010518 0.000000 0.000000 0.000000
# 4 0.000000 0.000000 0.000000 0.111724 0.000000 0.000000
# 5 0.000000 0.000000 0.000000 0.000000 0.047321 0.000000
# 6 0.000000 0.000000 0.000000 0.000000 0.000000 -0.034557
#
#
# Mechanical properties :
#
#
# Convention : Reuss Voigt Hill
#
# Bulk Modulus (GPa) = 73.09733 73.35279 73.22506
# Shear Modulus (GPa) = 27.88293 14.99402 21.43848
#
# Velocity S-wave (km/s) = 3.74878 2.74903 3.28714
# Velocity P-wave (km/s) = 7.45518 6.85908 7.16333
#
# Compressibility (1/GPa) = 0.01368039
#
# Stress axis : x y z
#
# Youngs Moduli (GPa) = 88.01778 99.03288 95.07526
#
# Poissons Ratio (x) = 0.37894 0.31189
# Poissons Ratio (y) = 0.33679 0.19410
# Poissons Ratio (z) = 0.28874 0.20218
#
# Static dielectric constant tensor:
#      x y z
#    x 1.730600 0.000000 0.000000 
#    y 0.000000 1.711800 0.000000 
#    z 0.000000 0.000000 1.670720 
# 
# From -- ./inp_files/74660.got.cif
#   From: 2010.05.17/outbox.cif.g08.bks.cpg/sg65_38_cif.got.tgz:74660.got - 2010.06.03 17:01:31.
