data_PCOD9492677
_publ_section_title
;
Structure prediction by ZEFSAII (Michael W. Deem and Ramdas Pophale) SiO2 
 PCOD9492677
Probable space group: C M M M
;
_chemical_formula_sum "Si O2"
_cell_formula_units_Z 56
_cell_length_a 18.660084
_cell_length_b 18.257673
_cell_length_c 7.951501
_cell_angle_alpha 90.000000
_cell_angle_beta 90.000000
_cell_angle_gamma 90.000000
_cell_volume 2708.994584
_symmetry_space_group_name_H-M "C M M M"
_symmetry_group_IT_number 65
_symmetry_cell_setting 'orthorhombic'
loop_
_space_group_symop_operation_xyz
x,y,z
-x,-y,z
x,-y,-z
-x,y,-z
-x,-y,-z
x,y,-z
-x,y,z
x,-y,z
1/2+x,1/2+y,z
1/2-x,1/2-y,z
1/2+x,1/2-y,-z
1/2-x,1/2+y,-z
1/2-x,1/2-y,-z
1/2+x,1/2+y,-z
1/2-x,1/2+y,z
1/2+x,1/2-y,z
loop_
_atom_site_type_symbol
_atom_site_label
_atom_site_fract_x
_atom_site_fract_y
_atom_site_fract_z
Si Si1 0.420734 0.586597 0.000000
Si Si2 0.583073 0.800052 0.203021
Si Si3 0.303578 0.915109 0.796950
Si Si4 0.659151 0.654691 0.312370
O O1 0.380715 0.610846 0.166706
O O2 0.424970 0.500000 0.000000
O O3 0.500000 0.619961 0.000000
O O4 0.500000 0.794826 0.255407
O O5 0.619865 0.878111 0.239164
O O6 0.632971 0.737691 0.284017
O O7 0.585727 0.789504 0.000000
O O8 0.242341 0.864346 0.716047
O O9 0.297743 0.000000 0.744162
O O10 0.293211 0.913083 0.000000
O O11 0.638796 0.631867 0.500000
#
# Coordination Sequence:
#
# PCOD9492677 Si02
#       4
#     8  16  16  16
#     4  11  24  42  63  90 128 168 209 265 326 380
#     4  10  21  39  64  94 130 170 213 264 320 378
#     4  10  21  39  64  94 130 170 213 264 320 378
#     4  12  24  40  66  95 125 167 216 263 314 377
#
# _framework density 20.671876999999999
#
# number of rings (size 3 to 8) (size 9 to 14) (size 15 to 20)
#    0.000    1.286    2.857    2.571    0.000    9.714 
#    0.000    4.286    0.000    0.000    0.000    4.000 
#    0.000    0.000    0.000    0.000    0.000    0.000 
#
# Total GULP energy -156462.785259 kJ/mol
# GULP energy per Si atom -5587.956616 kJ/mol
# Density = 2.062483 g / cm^3
# Si number density = 20.671877 Si / 1000 Ang^3
#
#
#
# Elastic Constant Matrix: (Units=GPa)
#
#
# Indices 1 2 3 4 5 6 
#
# 1 124.1406 82.4121 33.5149 0.0000 0.0000 0.0000
# 2 82.4121 103.2523 28.1187 0.0000 0.0000 0.0000
# 3 33.5149 28.1187 99.9277 0.0000 0.0000 0.0000
# 4 0.0000 0.0000 0.0000 -23.1729 0.0000 0.0000
# 5 0.0000 0.0000 0.0000 0.0000 31.4581 0.0000
# 6 0.0000 0.0000 0.0000 0.0000 0.0000 34.3093
#
#
#
# Elastic Compliance Matrix: (Units=1/GPa)
#
#
# Indices 1 2 3 4 5 6 
#
# 1 0.017533 -0.013422 -0.002104 0.000000 0.000000 0.000000
# 2 -0.013422 0.020763 -0.001341 0.000000 0.000000 0.000000
# 3 -0.002104 -0.001341 0.011090 0.000000 0.000000 0.000000
# 4 0.000000 0.000000 0.000000 -0.043154 0.000000 0.000000
# 5 0.000000 0.000000 0.000000 0.000000 0.031788 0.000000
# 6 0.000000 0.000000 0.000000 0.000000 0.000000 0.029147
#
#
# Mechanical properties :
#
#
# Convention : Reuss Voigt Hill
#
# Bulk Modulus (GPa) = 63.88309 68.37913 66.13111
# Shear Modulus (GPa) = 47.11724 20.73722 33.92723
#
# Velocity S-wave (km/s) = 4.77937 3.17071 4.05560
# Velocity P-wave (km/s) = 7.83754 6.82310 7.34785
#
# Compressibility (1/GPa) = 0.01565359
#
# Stress axis : x y z
#
# Youngs Moduli (GPa) = 57.03384 48.16303 90.16981
#
# Poissons Ratio (x) = 0.64642 0.18970
# Poissons Ratio (y) = 0.76549 0.12092
# Poissons Ratio (z) = 0.11999 0.06459
#
# Static dielectric constant tensor:
#      x y z
#    x 1.740480 0.000000 0.000000 
#    y 0.000000 1.732120 0.000000 
#    z 0.000000 0.000000 1.803610 
# 
# From -- ./inp_files/10660.got.cif
#   From: 2010.05.17/outbox.cif.g08.bks.cpg/sg65_6_cif.got.tgz:10660.got - 2010.06.03 17:01:31.
