data_PCOD9492649
_publ_section_title
;
Structure prediction by ZEFSAII (Michael W. Deem and Ramdas Pophale) SiO2 
 PCOD9492649
Probable space group: C M M M
;
_chemical_formula_sum "Si O2"
_cell_formula_units_Z 116
_cell_length_a 16.418416
_cell_length_b 16.883458
_cell_length_c 21.171321
_cell_angle_alpha 90.000000
_cell_angle_beta 90.000000
_cell_angle_gamma 90.000000
_cell_volume 5868.682495
_symmetry_space_group_name_H-M "C M M M"
_symmetry_group_IT_number 65
_symmetry_cell_setting 'orthorhombic'
loop_
_space_group_symop_operation_xyz
x,y,z
-x,-y,z
x,-y,-z
-x,y,-z
-x,-y,-z
x,y,-z
-x,y,z
x,-y,z
1/2+x,1/2+y,z
1/2-x,1/2-y,z
1/2+x,1/2-y,-z
1/2-x,1/2+y,-z
1/2-x,1/2-y,-z
1/2+x,1/2+y,-z
1/2-x,1/2+y,z
1/2+x,1/2-y,z
loop_
_atom_site_type_symbol
_atom_site_label
_atom_site_fract_x
_atom_site_fract_y
_atom_site_fract_z
Si Si1 0.406422 0.351187 0.832710
Si Si2 0.771405 0.908808 0.927148
Si Si3 0.000000 0.380155 0.500000
Si Si4 0.827000 0.305283 0.162863
Si Si5 0.668511 0.351502 0.570321
Si Si6 0.597868 0.905956 0.726553
Si Si7 0.593009 0.407789 0.697915
Si Si8 0.358075 0.833191 0.406533
O O1 0.500000 0.377663 0.835083
O O2 0.349291 0.396292 0.881897
O O3 0.397733 0.258409 0.847683
O O4 0.376426 0.363394 0.760340
O O5 0.703412 0.850613 0.899149
O O6 0.745115 0.000000 0.922760
O O7 0.790388 0.890950 0.000000
O O8 0.928178 0.376108 0.445802
O O9 0.750000 0.250000 0.183016
O O10 0.855134 0.368797 0.214158
O O11 0.641894 0.377939 0.500000
O O12 0.638080 0.396692 0.631942
O O13 0.637366 0.261108 0.580178
O O14 0.766432 0.353855 0.572812
O O15 0.500000 0.896224 0.733096
O O16 0.628173 0.857277 0.665674
O O17 0.614541 0.000000 0.719326
O O18 0.500000 0.381101 0.687405
O O19 0.593646 0.500000 0.714622
#
# Coordination Sequence:
#
# PCOD9492649 Si02
#       8
#    16  16   4  16  16  16  16  16
#     4  10  21  39  63  92 123 162 207 256 304 357
#     4  10  22  40  63  92 128 168 202 241 300 366
#     4  12  20  42  65  80 119 162 196 262 318 380
#     4  10  22  38  62  91 122 159 203 254 302 354
#     4  11  23  39  60  87 118 156 206 261 305 377
#     4  11  24  40  60  89 121 158 205 257 308 367
#     4  10  23  40  60  88 122 161 202 251 313 372
#     4  11  23  39  60  86 114 152 207 251 315 370
#
# _framework density 19.765936
#
# number of rings (size 3 to 8) (size 9 to 14) (size 15 to 20)
#    0.000    1.517    2.069    2.483    6.759    5.793 
#    0.000    2.069    0.000    1.241    0.000    4.828 
#    0.000    0.000    0.000    0.000    0.000    0.000 
#
# Total GULP energy -323295.397044 kJ/mol
# GULP energy per Si atom -5574.058570 kJ/mol
# Density = 1.972095 g / cm^3
# Si number density = 19.765936 Si / 1000 Ang^3
#
#
#
# Elastic Constant Matrix: (Units=GPa)
#
#
# Indices 1 2 3 4 5 6 
#
# 1 42.5616 23.2621 39.9110 0.0000 0.0000 0.0000
# 2 23.2621 55.3606 43.0949 0.0000 0.0000 0.0000
# 3 39.9110 43.0949 129.3702 0.0000 0.0000 0.0000
# 4 0.0000 0.0000 0.0000 139.2992 0.0000 0.0000
# 5 0.0000 0.0000 0.0000 0.0000 73.9964 0.0000
# 6 0.0000 0.0000 0.0000 0.0000 0.0000 16.8496
#
#
#
# Elastic Compliance Matrix: (Units=1/GPa)
#
#
# Indices 1 2 3 4 5 6 
#
# 1 0.035937 -0.008735 -0.008177 0.000000 0.000000 0.000000
# 2 -0.008735 0.026511 -0.006136 0.000000 0.000000 0.000000
# 3 -0.008177 -0.006136 0.012296 0.000000 0.000000 0.000000
# 4 0.000000 0.000000 0.000000 0.007179 0.000000 0.000000
# 5 0.000000 0.000000 0.000000 0.000000 0.013514 0.000000
# 6 0.000000 0.000000 0.000000 0.000000 0.000000 0.059349
#
#
# Mechanical properties :
#
#
# Convention : Reuss Voigt Hill
#
# Bulk Modulus (GPa) = 34.90709 48.86982 41.88846
# Shear Modulus (GPa) = 23.76064 54.09733 38.92898
#
# Velocity S-wave (km/s) = 3.47089 5.23721 4.44272
# Velocity P-wave (km/s) = 5.81045 7.83257 6.89603
#
# Compressibility (1/GPa) = 0.02864747
#
# Stress axis : x y z
#
# Youngs Moduli (GPa) = 27.82614 37.72084 81.32484
#
# Poissons Ratio (x) = 0.32951 0.66499
# Poissons Ratio (y) = 0.24307 0.49902
# Poissons Ratio (z) = 0.22753 0.23146
#
# Static dielectric constant tensor:
#      x y z
#    x 1.694590 0.000000 0.000000 
#    y 0.000000 1.710390 0.000000 
#    z 0.000000 0.000000 1.687010 
# 
# From -- ./inp_files/54682.got.cif
#   From: 2010.05.17/outbox.cif.g08.bks.cpg/sg65_28_cif.got.tgz:54682.got - 2010.06.03 17:01:31.
