data_PCOD9492692
_publ_section_title
;
Structure prediction by ZEFSAII (Michael W. Deem and Ramdas Pophale) SiO2 
 PCOD9492692
Probable space group: C M M M
;
_chemical_formula_sum "Si O2"
_cell_formula_units_Z 72
_cell_length_a 20.219477
_cell_length_b 8.562841
_cell_length_c 20.226144
_cell_angle_alpha 90.000000
_cell_angle_beta 90.000000
_cell_angle_gamma 90.000000
_cell_volume 3501.877038
_symmetry_space_group_name_H-M "C M M M"
_symmetry_group_IT_number 65
_symmetry_cell_setting 'orthorhombic'
loop_
_space_group_symop_operation_xyz
x,y,z
-x,-y,z
x,-y,-z
-x,y,-z
-x,-y,-z
x,y,-z
-x,y,z
x,-y,z
1/2+x,1/2+y,z
1/2-x,1/2-y,z
1/2+x,1/2-y,-z
1/2-x,1/2+y,-z
1/2-x,1/2-y,-z
1/2+x,1/2+y,-z
1/2-x,1/2+y,z
1/2+x,1/2-y,z
loop_
_atom_site_type_symbol
_atom_site_label
_atom_site_fract_x
_atom_site_fract_y
_atom_site_fract_z
Si Si1 0.000000 0.325380 0.420965
Si Si2 0.858584 0.813158 0.425805
Si Si3 0.676850 0.686030 0.922111
Si Si4 0.317898 0.687227 0.285944
Si Si5 0.576736 0.812938 0.814604
O O1 0.933918 0.230175 0.408142
O O2 0.000000 0.500000 0.390996
O O3 0.000000 0.344092 0.500000
O O4 0.842817 0.751456 0.500000
O O5 0.820228 0.753669 0.361888
O O6 0.851634 0.000000 0.428749
O O7 0.676785 0.500000 0.911589
O O8 0.750000 0.750000 0.905506
O O9 0.619156 0.760135 0.878176
O O10 0.666019 0.717792 0.000000
O O11 0.317193 0.500000 0.285321
O O12 0.250000 0.750000 0.255045
O O13 0.381947 0.745576 0.246962
O O14 0.500000 0.760734 0.816153
O O15 0.577161 0.000000 0.810695
#
# Coordination Sequence:
#
# PCOD9492692 Si02
#       5
#     8  16  16  16  16
#     4   9  17  29  49  79 111 143 180 229 288 347
#     4   9  19  36  57  82 113 151 195 243 301 367
#     4  10  21  39  66  98 131 167 205 246 293 351
#     4  11  24  41  62  86 117 158 201 250 307 367
#     4  11  25  43  63  89 123 163 205 253 303 355
#
# _framework density 20.560402
#
# number of rings (size 3 to 8) (size 9 to 14) (size 15 to 20)
#    0.000    1.889    0.000    3.000    1.556    7.111 
#    0.000    2.222    0.000    0.000    0.000    0.000 
#    0.000    0.000    0.000    0.000    0.000    0.000 
#
# Total GULP energy -200986.033550 kJ/mol
# GULP energy per Si atom -5582.945376 kJ/mol
# Density = 2.051361 g / cm^3
# Si number density = 20.560402 Si / 1000 Ang^3
#
#
#
# Elastic Constant Matrix: (Units=GPa)
#
#
# Indices 1 2 3 4 5 6 
#
# 1 177.0614 31.5021 75.5069 0.0000 0.0000 0.0000
# 2 31.5021 32.6065 40.5583 0.0000 0.0000 0.0000
# 3 75.5069 40.5583 119.2089 0.0000 0.0000 0.0000
# 4 0.0000 0.0000 0.0000 2.4326 0.0000 0.0000
# 5 0.0000 0.0000 0.0000 0.0000 18.5181 0.0000
# 6 0.0000 0.0000 0.0000 0.0000 0.0000 22.8466
#
#
#
# Elastic Compliance Matrix: (Units=1/GPa)
#
#
# Indices 1 2 3 4 5 6 
#
# 1 0.007847 -0.002425 -0.004145 0.000000 0.000000 0.000000
# 2 -0.002425 0.053920 -0.016809 0.000000 0.000000 0.000000
# 3 -0.004145 -0.016809 0.016733 0.000000 0.000000 0.000000
# 4 0.000000 0.000000 0.000000 0.411081 0.000000 0.000000
# 5 0.000000 0.000000 0.000000 0.000000 0.054001 0.000000
# 6 0.000000 0.000000 0.000000 0.000000 0.000000 0.043770
#
#
# Mechanical properties :
#
#
# Convention : Reuss Voigt Hill
#
# Bulk Modulus (GPa) = 31.50458 69.33458 50.41958
# Shear Modulus (GPa) = 7.75565 20.84675 14.30120
#
# Velocity S-wave (km/s) = 1.94430 3.18768 2.64023
# Velocity P-wave (km/s) = 4.51626 6.88070 5.81982
#
# Compressibility (1/GPa) = 0.03174142
#
# Stress axis : x y z
#
# Youngs Moduli (GPa) = 127.43902 18.54596 59.76184
#
# Poissons Ratio (x) = 0.04498 0.24772
# Poissons Ratio (y) = 0.30906 1.00454
# Poissons Ratio (z) = 0.52825 0.31174
#
# Static dielectric constant tensor:
#      x y z
#    x 1.721320 0.000000 0.000000 
#    y 0.000000 1.705770 0.000000 
#    z 0.000000 0.000000 1.778690 
# 
# From -- ./inp_files/64341.got.cif
#   From: 2010.05.17/outbox.cif.g08.bks.cpg/sg65_33_cif.got.tgz:64341.got - 2010.06.03 17:01:31.
