data_PCOD9492472
_publ_section_title
;
Structure prediction by ZEFSAII (Michael W. Deem and Ramdas Pophale) SiO2 
 PCOD9492472
Probable space group: C M M M
;
_chemical_formula_sum "Si O2"
_cell_formula_units_Z 112
_cell_length_a 14.218101
_cell_length_b 25.114075
_cell_length_c 16.600263
_cell_angle_alpha 90.000000
_cell_angle_beta 90.000000
_cell_angle_gamma 90.000000
_cell_volume 5927.529861
_symmetry_space_group_name_H-M "C M M M"
_symmetry_group_IT_number 65
_symmetry_cell_setting 'orthorhombic'
loop_
_space_group_symop_operation_xyz
x,y,z
-x,-y,z
x,-y,-z
-x,y,-z
-x,-y,-z
x,y,-z
-x,y,z
x,-y,z
1/2+x,1/2+y,z
1/2-x,1/2-y,z
1/2+x,1/2-y,-z
1/2-x,1/2+y,-z
1/2-x,1/2-y,-z
1/2+x,1/2+y,-z
1/2-x,1/2+y,z
1/2+x,1/2-y,z
loop_
_atom_site_type_symbol
_atom_site_label
_atom_site_fract_x
_atom_site_fract_y
_atom_site_fract_z
Si Si1 0.113283 0.275565 0.588202
Si Si2 0.892174 0.828421 0.677529
Si Si3 0.604923 0.858434 0.724795
Si Si4 0.134695 0.438914 0.587480
Si Si5 0.749398 0.821278 0.174568
Si Si6 0.110549 0.236797 0.092958
Si Si7 0.360861 0.439553 0.407281
O O1 0.151265 0.290542 0.500000
O O2 0.132471 0.213859 0.607541
O O3 0.140905 0.310930 0.665279
O O4 0.000000 0.282037 0.584957
O O5 0.820561 0.817092 0.749605
O O6 0.889233 0.889098 0.646228
O O7 0.000000 0.816586 0.702017
O O8 0.500000 0.845795 0.754481
O O9 0.600046 0.906873 0.663264
O O10 0.680045 0.867807 0.795335
O O11 0.106592 0.416262 0.500000
O O12 0.105511 0.500000 0.590074
O O13 0.247684 0.438226 0.590805
O O14 0.826010 0.816552 0.103533
O O15 0.668341 0.777850 0.149921
O O16 0.000000 0.231392 0.112620
O O17 0.116690 0.254448 0.000000
O O18 0.392542 0.432428 0.500000
O O19 0.388084 0.500000 0.381718
#
# Coordination Sequence:
#
# PCOD9492472 Si02
#       7
#    16  16  16  16  16  16  16
#     4   9  18  30  42  61  93 131 175 224 265 311
#     4  11  21  33  50  73 104 145 187 226 277 332
#     4  11  21  33  50  73 104 145 187 226 277 332
#     4   9  18  34  53  72  99 141 198 257 299 327
#     4  11  20  34  51  77 110 141 167 211 261 312
#     4  10  21  38  61  85 110 144 181 210 245 311
#     4   9  18  34  53  72  99 141 198 257 299 327
#
# _framework density 18.894886
#
# number of rings (size 3 to 8) (size 9 to 14) (size 15 to 20)
#    0.000    2.000    1.429    5.143    0.000    3.429 
#    0.000    2.143    0.000    0.000    0.000    0.000 
#    0.000    9.143    0.000   24.000    0.000    0.000 
#
# Total GULP energy -311831.037036 kJ/mol
# GULP energy per Si atom -5568.411376 kJ/mol
# Density = 1.885188 g / cm^3
# Si number density = 18.894886 Si / 1000 Ang^3
#
#
#
# Elastic Constant Matrix: (Units=GPa)
#
#
# Indices 1 2 3 4 5 6 
#
# 1 142.0572 10.4007 33.5361 0.0000 0.0000 0.0000
# 2 10.4007 78.4195 30.3632 0.0000 0.0000 0.0000
# 3 33.5361 30.3632 67.3037 0.0000 0.0000 0.0000
# 4 0.0000 0.0000 0.0000 6.1153 0.0000 0.0000
# 5 0.0000 0.0000 0.0000 0.0000 -3.6240 0.0000
# 6 0.0000 0.0000 0.0000 0.0000 0.0000 8.9604
#
#
#
# Elastic Compliance Matrix: (Units=1/GPa)
#
#
# Indices 1 2 3 4 5 6 
#
# 1 0.008000 0.000584 -0.004250 0.000000 0.000000 0.000000
# 2 0.000584 0.015494 -0.007281 0.000000 0.000000 0.000000
# 3 -0.004250 -0.007281 0.020260 0.000000 0.000000 0.000000
# 4 0.000000 0.000000 0.000000 0.163525 0.000000 0.000000
# 5 0.000000 0.000000 0.000000 0.000000 -0.275942 0.000000
# 6 0.000000 0.000000 0.000000 0.000000 0.000000 0.111602
#
#
# Mechanical properties :
#
#
# Convention : Reuss Voigt Hill
#
# Bulk Modulus (GPa) = 45.74332 48.48671 47.11501
# Shear Modulus (GPa) = 69.32955 16.52237 42.92596
#
# Velocity S-wave (km/s) = 6.06398 2.96029 4.77154
# Velocity P-wave (km/s) = 8.56102 6.11567 7.43951
#
# Compressibility (1/GPa) = 0.02186112
#
# Stress axis : x y z
#
# Youngs Moduli (GPa) = 125.00137 64.54315 49.35746
#
# Poissons Ratio (x) = -0.03772 0.20976
# Poissons Ratio (y) = -0.07306 0.35937
# Poissons Ratio (z) = 0.53124 0.46994
#
# Static dielectric constant tensor:
#      x y z
#    x 1.722950 0.000000 0.000000 
#    y 0.000000 1.684130 0.000000 
#    z 0.000000 0.000000 1.670470 
# 
# From -- ./inp_files/41064.got.cif
#   From: 2010.05.17/outbox.cif.g08.bks.cpg/sg65_21_cif.got.tgz:41064.got - 2010.06.03 17:01:31.
