data_PCOD9492703
_publ_section_title
;
Structure prediction by ZEFSAII (Michael W. Deem and Ramdas Pophale) SiO2 
 PCOD9492703
Probable space group: C M M M
;
_chemical_formula_sum "Si O2"
_cell_formula_units_Z 64
_cell_length_a 8.824517
_cell_length_b 15.538231
_cell_length_c 24.540556
_cell_angle_alpha 90.000000
_cell_angle_beta 90.000000
_cell_angle_gamma 90.000000
_cell_volume 3364.936831
_symmetry_space_group_name_H-M "C M M M"
_symmetry_group_IT_number 65
_symmetry_cell_setting 'orthorhombic'
loop_
_space_group_symop_operation_xyz
x,y,z
-x,-y,z
x,-y,-z
-x,y,-z
-x,-y,-z
x,y,-z
-x,y,z
x,-y,z
1/2+x,1/2+y,z
1/2-x,1/2-y,z
1/2+x,1/2-y,-z
1/2-x,1/2+y,-z
1/2-x,1/2-y,-z
1/2+x,1/2+y,-z
1/2-x,1/2+y,z
1/2+x,1/2-y,z
loop_
_atom_site_type_symbol
_atom_site_label
_atom_site_fract_x
_atom_site_fract_y
_atom_site_fract_z
Si Si1 0.826629 0.100330 0.389602
Si Si2 0.816592 0.500000 0.918582
Si Si3 0.317193 0.000000 0.207865
Si Si4 0.817222 0.160555 0.727418
Si Si5 0.678568 0.155914 0.500000
Si Si6 0.316101 0.152175 0.000000
O O1 0.770101 0.148910 0.336062
O O2 0.734049 0.111732 0.444605
O O3 0.000000 0.127948 0.400945
O O4 0.829069 0.000000 0.374612
O O5 0.772181 0.500000 0.855655
O O6 0.770850 0.588714 0.949453
O O7 0.000000 0.500000 0.921501
O O8 0.250175 0.917112 0.237991
O O9 0.500000 0.000000 0.211435
O O10 0.750000 0.250000 0.747779
O O11 0.000000 0.158928 0.729012
O O12 0.500000 0.160734 0.500000
O O13 0.750000 0.250000 0.500000
O O14 0.250000 0.250000 0.000000
O O15 0.500000 0.160161 0.000000
#
# Coordination Sequence:
#
# PCOD9492703 Si02
#       6
#    16   8   8  16   8   8
#     4  10  21  40  62  83 111 147 187 237 296 356
#     4   8  18  36  58  84 119 161 199 238 293 350
#     4  11  22  39  62  89 121 160 203 250 300 353
#     4  11  23  41  62  88 118 157 202 248 301 359
#     4  12  25  38  55  83 113 145 187 237 292 357
#     4   9  17  35  60  86 120 159 199 243 288 344
#
# _framework density 19.019673000000001
#
# number of rings (size 3 to 8) (size 9 to 14) (size 15 to 20)
#    0.000    1.750    1.250    4.125    0.000    7.000 
#    0.000    6.250    0.000    0.000    0.000    0.000 
#    0.000    0.000    0.000    0.000    0.000    0.000 
#
# Total GULP energy -178630.081508 kJ/mol
# GULP energy per Si atom -5582.190047 kJ/mol
# Density = 1.897638 g / cm^3
# Si number density = 19.019673 Si / 1000 Ang^3
#
#
#
# Elastic Constant Matrix: (Units=GPa)
#
#
# Indices 1 2 3 4 5 6 
#
# 1 59.3439 38.0590 51.8695 0.0000 0.0000 0.0000
# 2 38.0590 167.5940 74.9853 0.0000 0.0000 0.0000
# 3 51.8695 74.9853 144.9621 0.0000 0.0000 0.0000
# 4 0.0000 0.0000 0.0000 -186.1420 0.0000 0.0000
# 5 0.0000 0.0000 0.0000 0.0000 21.7086 0.0000
# 6 0.0000 0.0000 0.0000 0.0000 0.0000 34.0271
#
#
#
# Elastic Compliance Matrix: (Units=1/GPa)
#
#
# Indices 1 2 3 4 5 6 
#
# 1 0.025122 -0.002190 -0.007856 0.000000 0.000000 0.000000
# 2 -0.002190 0.007955 -0.003331 0.000000 0.000000 0.000000
# 3 -0.007856 -0.003331 0.011433 0.000000 0.000000 0.000000
# 4 0.000000 0.000000 0.000000 -0.005372 0.000000 0.000000
# 5 0.000000 0.000000 0.000000 0.000000 0.046065 0.000000
# 6 0.000000 0.000000 0.000000 0.000000 0.000000 0.029388
#
#
# Mechanical properties :
#
#
# Convention : Reuss Voigt Hill
#
# Bulk Modulus (GPa) = 56.32332 77.96971 67.14651
# Shear Modulus (GPa) = 33.95294 -12.28216 10.83539
#
# Velocity S-wave (km/s) = 4.22969 -2.54394 2.38942
# Velocity P-wave (km/s) = 7.31650 5.69688 6.55689
#
# Compressibility (1/GPa) = 0.01775464
#
# Stress axis : x y z
#
# Youngs Moduli (GPa) = 39.80551 125.71483 87.46977
#
# Poissons Ratio (x) = 0.27531 0.68719
# Poissons Ratio (y) = 0.08717 0.29137
# Poissons Ratio (z) = 0.31272 0.41877
#
# Static dielectric constant tensor:
#      x y z
#    x 1.648260 0.000000 0.000000 
#    y 0.000000 1.681580 0.000000 
#    z 0.000000 0.000000 1.687060 
# 
# From -- ./inp_files/66893.got.cif
#   From: 2010.05.17/outbox.cif.g08.bks.cpg/sg65_34_cif.got.tgz:66893.got - 2010.06.03 17:01:31.
