data_PCOD9492507
_publ_section_title
;
Structure prediction by ZEFSAII (Michael W. Deem and Ramdas Pophale) SiO2 
 PCOD9492507
Probable space group: C M M M
;
_chemical_formula_sum "Si O2"
_cell_formula_units_Z 96
_cell_length_a 8.965097
_cell_length_b 28.634934
_cell_length_c 19.059779
_cell_angle_alpha 90.000000
_cell_angle_beta 90.000000
_cell_angle_gamma 90.000000
_cell_volume 4892.930421
_symmetry_space_group_name_H-M "C M M M"
_symmetry_group_IT_number 65
_symmetry_cell_setting 'orthorhombic'
loop_
_space_group_symop_operation_xyz
x,y,z
-x,-y,z
x,-y,-z
-x,y,-z
-x,-y,-z
x,y,-z
-x,y,z
x,-y,z
1/2+x,1/2+y,z
1/2-x,1/2-y,z
1/2+x,1/2-y,-z
1/2-x,1/2+y,-z
1/2-x,1/2-y,-z
1/2+x,1/2+y,-z
1/2-x,1/2+y,z
1/2+x,1/2-y,z
loop_
_atom_site_type_symbol
_atom_site_label
_atom_site_fract_x
_atom_site_fract_y
_atom_site_fract_z
Si Si1 0.335330 0.554374 0.083468
Si Si2 0.319670 0.801125 0.079300
Si Si3 0.321835 0.446967 0.705223
Si Si4 0.171567 0.202310 0.414604
Si Si5 0.326892 0.117916 0.819615
Si Si6 0.677038 0.895476 0.583037
O O1 0.500000 0.572098 0.107259
O O2 0.329481 0.500000 0.102253
O O3 0.200364 0.581399 0.117587
O O4 0.331347 0.557881 0.000000
O O5 0.500000 0.798751 0.081138
O O6 0.250000 0.750000 0.086292
O O7 0.272317 0.834294 0.143695
O O8 0.278777 0.818583 0.000000
O O9 0.500000 0.445381 0.705269
O O10 0.276146 0.500000 0.725494
O O11 0.259528 0.406725 0.756318
O O12 0.258290 0.434277 0.628973
O O13 0.170911 0.203943 0.500000
O O14 0.250000 0.250000 0.390261
O O15 0.260113 0.155510 0.395582
O O16 0.000000 0.199877 0.391313
O O17 0.500000 0.122812 0.800852
O O18 0.705342 0.901178 0.500000
O O19 0.500000 0.896956 0.594545
#
# Coordination Sequence:
#
# PCOD9492507 Si02
#       6
#    16  16  16  16  16  16
#     4   9  18  32  50  75 108 145 185 226 268 321
#     4   9  19  36  58  86 119 154 193 236 281 331
#     4  11  25  43  61  82 111 149 193 240 293 357
#     4   9  16  28  50  81 116 150 182 219 268 327
#     4  11  22  36  56  82 113 147 186 234 285 338
#     4  10  21  38  61  88 116 147 189 242 299 361
#
# _framework density 19.620145000000001
#
# number of rings (size 3 to 8) (size 9 to 14) (size 15 to 20)
#    0.000    2.167    0.000    3.500    0.000    9.333 
#    0.000    5.000    0.000    2.000    0.000    0.000 
#    0.000    0.000    0.000    0.000    0.000    0.000 
#
# Total GULP energy -267772.077901 kJ/mol
# GULP energy per Si atom -5578.584956 kJ/mol
# Density = 1.957549 g / cm^3
# Si number density = 19.620145 Si / 1000 Ang^3
#
#
#
# Elastic Constant Matrix: (Units=GPa)
#
#
# Indices 1 2 3 4 5 6 
#
# 1 53.6767 34.9895 35.5367 0.0000 0.0000 0.0000
# 2 34.9895 84.0824 50.5997 0.0000 0.0000 0.0000
# 3 35.5367 50.5997 64.6231 0.0000 0.0000 0.0000
# 4 0.0000 0.0000 0.0000 33.2588 0.0000 0.0000
# 5 0.0000 0.0000 0.0000 0.0000 29.2750 0.0000
# 6 0.0000 0.0000 0.0000 0.0000 0.0000 31.8468
#
#
#
# Elastic Compliance Matrix: (Units=1/GPa)
#
#
# Indices 1 2 3 4 5 6 
#
# 1 0.030321 -0.004886 -0.012848 0.000000 0.000000 0.000000
# 2 -0.004886 0.023278 -0.015540 0.000000 0.000000 0.000000
# 3 -0.012848 -0.015540 0.034707 0.000000 0.000000 0.000000
# 4 0.000000 0.000000 0.000000 0.030067 0.000000 0.000000
# 5 0.000000 0.000000 0.000000 0.000000 0.034159 0.000000
# 6 0.000000 0.000000 0.000000 0.000000 0.000000 0.031400
#
#
# Mechanical properties :
#
#
# Convention : Reuss Voigt Hill
#
# Bulk Modulus (GPa) = 45.95872 49.40379 47.68126
# Shear Modulus (GPa) = 19.39993 24.29322 21.84658
#
# Velocity S-wave (km/s) = 3.14789 3.52259 3.34050
# Velocity P-wave (km/s) = 6.05701 6.46372 6.26367
#
# Compressibility (1/GPa) = 0.02175866
#
# Stress axis : x y z
#
# Youngs Moduli (GPa) = 32.98044 42.95931 28.81240
#
# Poissons Ratio (x) = 0.20989 0.37019
# Poissons Ratio (y) = 0.16113 0.44774
# Poissons Ratio (z) = 0.42374 0.66758
#
# Static dielectric constant tensor:
#      x y z
#    x 1.680910 0.000000 0.000000 
#    y 0.000000 1.681600 0.000000 
#    z 0.000000 0.000000 1.722630 
# 
# From -- ./inp_files/60229.got.cif
#   From: 2010.05.17/outbox.cif.g08.bks.cpg/sg65_31_cif.got.tgz:60229.got - 2010.06.03 17:01:31.
