data_PCOD9492936
_publ_section_title
;
Structure prediction by ZEFSAII (Michael W. Deem and Ramdas Pophale) SiO2 
 PCOD9492936
Probable space group: C M M M
;
_chemical_formula_sum "Si O2"
_cell_formula_units_Z 48
_cell_length_a 14.322156
_cell_length_b 7.651746
_cell_length_c 17.375417
_cell_angle_alpha 90.000000
_cell_angle_beta 90.000000
_cell_angle_gamma 90.000000
_cell_volume 1904.163259
_symmetry_space_group_name_H-M "C M M M"
_symmetry_group_IT_number 65
_symmetry_cell_setting 'orthorhombic'
loop_
_space_group_symop_operation_xyz
x,y,z
-x,-y,z
x,-y,-z
-x,y,-z
-x,-y,-z
x,y,-z
-x,y,z
x,-y,z
1/2+x,1/2+y,z
1/2-x,1/2-y,z
1/2+x,1/2-y,-z
1/2-x,1/2+y,-z
1/2-x,1/2-y,-z
1/2+x,1/2+y,-z
1/2-x,1/2+y,z
1/2+x,1/2-y,z
loop_
_atom_site_type_symbol
_atom_site_label
_atom_site_fract_x
_atom_site_fract_y
_atom_site_fract_z
Si Si1 0.609132 0.710779 0.089237
Si Si2 0.250000 0.750000 0.789012
Si Si3 0.386789 0.300174 0.500000
Si Si4 0.609312 0.203446 0.329761
O O1 0.500000 0.745865 0.103060
O O2 0.623463 0.500000 0.100402
O O3 0.674519 0.812318 0.147753
O O4 0.629209 0.750073 0.000000
O O5 0.325675 0.685160 0.726061
O O6 0.355414 0.500000 0.500000
O O7 0.500000 0.296461 0.500000
O O8 0.360731 0.216732 0.581168
O O9 0.500000 0.252769 0.324378
O O10 0.618768 0.000000 0.306396
#
# Coordination Sequence:
#
# PCOD9492936 Si02
#       4
#    16   8   8  16
#     4   9  19  36  56  79 110 148 189 234 283 333
#     4  12  21  33  56  86 114 146 192 237 279 338
#     4   9  19  38  63  86 110 148 198 242 279 331
#     4  10  22  39  58  83 118 155 189 233 291 346
#
# _framework density 25.207920999999999
#
# number of rings (size 3 to 8) (size 9 to 14) (size 15 to 20)
#    0.000    2.167    0.000    4.000    0.000    5.333 
#    0.000    3.333    0.000    0.000    0.000   14.000 
#    0.000    0.000    0.000    0.000    0.000    0.000 
#
# Total GULP energy -133775.786975 kJ/mol
# GULP energy per Si atom -5573.991124 kJ/mol
# Density = 2.515055 g / cm^3
# Si number density = 25.207921 Si / 1000 Ang^3
#
#
#
# Elastic Constant Matrix: (Units=GPa)
#
#
# Indices 1 2 3 4 5 6 
#
# 1 174.0924 37.6695 109.8483 0.0000 0.0000 0.0000
# 2 37.6695 99.3126 48.9453 0.0000 0.0000 0.0000
# 3 109.8483 48.9453 230.5044 0.0000 0.0000 0.0000
# 4 0.0000 0.0000 0.0000 -46.0226 0.0000 0.0000
# 5 0.0000 0.0000 0.0000 0.0000 88.7508 0.0000
# 6 0.0000 0.0000 0.0000 0.0000 0.0000 -23.7979
#
#
#
# Elastic Compliance Matrix: (Units=1/GPa)
#
#
# Indices 1 2 3 4 5 6 
#
# 1 0.008373 -0.001351 -0.003703 0.000000 0.000000 0.000000
# 2 -0.001351 0.011464 -0.001791 0.000000 0.000000 0.000000
# 3 -0.003703 -0.001791 0.006483 0.000000 0.000000 0.000000
# 4 0.000000 0.000000 0.000000 -0.021728 0.000000 0.000000
# 5 0.000000 0.000000 0.000000 0.000000 0.011267 0.000000
# 6 0.000000 0.000000 0.000000 0.000000 0.000000 -0.042021
#
#
# Mechanical properties :
#
#
# Convention : Reuss Voigt Hill
#
# Bulk Modulus (GPa) = 79.16988 99.64840 89.40914
# Shear Modulus (GPa) = -605.24807 24.28250 -290.48279
#
# Velocity S-wave (km/s) = -15.51205 3.10706 -10.74639
# Velocity P-wave (km/s) = 17.01048 7.24487 10.88275
#
# Compressibility (1/GPa) = 0.01263107
#
# Stress axis : x y z
#
# Youngs Moduli (GPa) = 119.42953 87.22941 154.23946
#
# Poissons Ratio (x) = 0.11782 0.57122
# Poissons Ratio (y) = 0.16132 0.27618
# Poissons Ratio (z) = 0.44230 0.15619
#
# Static dielectric constant tensor:
#      x y z
#    x 1.946840 0.000000 0.000000 
#    y 0.000000 1.989670 0.000000 
#    z 0.000000 0.000000 1.926760 
# 
# From -- ./inp_files/37359.got.cif
#   From: 2010.05.17/outbox.cif.g08.bks.cpg/sg65_19_cif.got.tgz:37359.got - 2010.06.03 17:01:31.
