data_PCOD9492776
_publ_section_title
;
Structure prediction by ZEFSAII (Michael W. Deem and Ramdas Pophale) SiO2 
 PCOD9492776
Probable space group: C M M M
;
_chemical_formula_sum "Si O2"
_cell_formula_units_Z 72
_cell_length_a 10.069510
_cell_length_b 18.293096
_cell_length_c 21.125826
_cell_angle_alpha 90.000000
_cell_angle_beta 90.000000
_cell_angle_gamma 90.000000
_cell_volume 3891.430241
_symmetry_space_group_name_H-M "C M M M"
_symmetry_group_IT_number 65
_symmetry_cell_setting 'orthorhombic'
loop_
_space_group_symop_operation_xyz
x,y,z
-x,-y,z
x,-y,-z
-x,y,-z
-x,-y,-z
x,y,-z
-x,y,z
x,-y,z
1/2+x,1/2+y,z
1/2-x,1/2-y,z
1/2+x,1/2-y,-z
1/2-x,1/2+y,-z
1/2-x,1/2-y,-z
1/2+x,1/2+y,-z
1/2-x,1/2+y,z
1/2+x,1/2-y,z
loop_
_atom_site_type_symbol
_atom_site_label
_atom_site_fract_x
_atom_site_fract_y
_atom_site_fract_z
Si Si1 0.841253 0.418045 0.746624
Si Si2 0.342296 0.088513 0.398243
Si Si3 0.759722 0.662725 0.127660
Si Si4 0.500000 0.413737 0.076002
Si Si5 0.832863 0.172939 0.500000
Si Si6 0.637969 0.189194 0.000000
O O1 0.785976 0.500000 0.755486
O O2 0.810915 0.393486 0.675134
O O3 0.801203 0.368500 0.805070
O O4 0.000000 0.423011 0.747813
O O5 0.500000 0.107759 0.411570
O O6 0.232257 0.128288 0.441020
O O7 0.335056 0.000000 0.405677
O O8 0.750000 0.750000 0.133150
O O9 0.624340 0.625739 0.106707
O O10 0.850562 0.646514 0.065842
O O11 0.500000 0.500000 0.089652
O O12 0.500000 0.405800 0.000000
O O13 0.750000 0.250000 0.500000
O O14 0.000000 0.177800 0.500000
O O15 0.750000 0.250000 0.000000
O O16 0.500000 0.230510 0.000000
#
# Coordination Sequence:
#
# PCOD9492776 Si02
#       6
#    16  16  16   8   8   8
#     4   9  19  38  61  86 118 155 196 246 305 368
#     4   9  19  39  66  91 121 164 203 240 297 371
#     4  11  23  35  61  84 120 153 213 256 315 365
#     4  11  24  42  58  82 121 170 210 260 324 390
#     4  12  25  40  61  93 129 163 201 256 307 352
#     4  10  22  34  56  83 119 155 197 255 315 369
#
# _framework density 18.502193999999999
#
# number of rings (size 3 to 8) (size 9 to 14) (size 15 to 20)
#    0.000    1.889    1.111    4.000    7.778    2.667 
#    2.000    0.000    0.000    2.667    0.000    0.000 
#    0.000    0.000    0.000    0.000    0.000    0.000 
#
# Total GULP energy -200455.640333 kJ/mol
# GULP energy per Si atom -5568.212231 kJ/mol
# Density = 1.846008 g / cm^3
# Si number density = 18.502194 Si / 1000 Ang^3
#
#
#
# Elastic Constant Matrix: (Units=GPa)
#
#
# Indices 1 2 3 4 5 6 
#
# 1 128.9498 47.8821 68.9795 0.0000 0.0000 0.0000
# 2 47.8821 93.8068 77.7085 0.0000 0.0000 0.0000
# 3 68.9795 77.7085 182.3492 0.0000 0.0000 0.0000
# 4 0.0000 0.0000 0.0000 34.5125 0.0000 0.0000
# 5 0.0000 0.0000 0.0000 0.0000 -6.7384 0.0000
# 6 0.0000 0.0000 0.0000 0.0000 0.0000 0.1045
#
#
#
# Elastic Compliance Matrix: (Units=1/GPa)
#
#
# Indices 1 2 3 4 5 6 
#
# 1 0.010285 -0.003133 -0.002556 0.000000 0.000000 0.000000
# 2 -0.003133 0.017431 -0.006243 0.000000 0.000000 0.000000
# 3 -0.002556 -0.006243 0.009111 0.000000 0.000000 0.000000
# 4 0.000000 0.000000 0.000000 0.028975 0.000000 0.000000
# 5 0.000000 0.000000 0.000000 0.000000 -0.148402 0.000000
# 6 0.000000 0.000000 0.000000 0.000000 0.000000 9.572513
#
#
# Mechanical properties :
#
#
# Convention : Reuss Voigt Hill
#
# Bulk Modulus (GPa) = 77.13510 88.24956 82.69233
# Shear Modulus (GPa) = 0.52532 19.61142 10.06837
#
# Velocity S-wave (km/s) = 0.53342 3.25922 2.33528
# Velocity P-wave (km/s) = 6.49304 7.87170 7.21538
#
# Compressibility (1/GPa) = 0.01296427
#
# Stress axis : x y z
#
# Youngs Moduli (GPa) = 97.22523 57.36858 109.75365
#
# Poissons Ratio (x) = 0.17973 0.28050
# Poissons Ratio (y) = 0.30460 0.68521
# Poissons Ratio (z) = 0.24848 0.35816
#
# Static dielectric constant tensor:
#      x y z
#    x 1.645290 0.000000 0.000000 
#    y 0.000000 1.651550 0.000000 
#    z 0.000000 0.000000 1.707160 
# 
# From -- ./inp_files/59362.got.cif
#   From: 2010.05.17/outbox.cif.g08.bks.cpg/sg65_30_cif.got.tgz:59362.got - 2010.06.03 17:01:31.
