data_PCOD9492093
_publ_section_title
;
Structure prediction by ZEFSAII (Michael W. Deem and Ramdas Pophale) SiO2 
 PCOD9492093
Probable space group: C M M M
;
_chemical_formula_sum "Si O2"
_cell_formula_units_Z 104
_cell_length_a 18.927942
_cell_length_b 8.598052
_cell_length_c 34.813678
_cell_angle_alpha 90.000000
_cell_angle_beta 90.000000
_cell_angle_gamma 90.000000
_cell_volume 5665.697354
_symmetry_space_group_name_H-M "C M M M"
_symmetry_group_IT_number 65
_symmetry_cell_setting 'orthorhombic'
loop_
_space_group_symop_operation_xyz
x,y,z
-x,-y,z
x,-y,-z
-x,y,-z
-x,-y,-z
x,y,-z
-x,y,z
x,-y,z
1/2+x,1/2+y,z
1/2-x,1/2-y,z
1/2+x,1/2-y,-z
1/2-x,1/2+y,-z
1/2-x,1/2-y,-z
1/2+x,1/2+y,-z
1/2-x,1/2+y,z
1/2+x,1/2-y,z
loop_
_atom_site_type_symbol
_atom_site_label
_atom_site_fract_x
_atom_site_fract_y
_atom_site_fract_z
Si Si1 0.581290 0.310162 0.342093
Si Si2 0.082742 0.814647 0.886127
Si Si3 0.582370 0.186056 0.196504
Si Si4 0.329331 0.686517 0.267636
Si Si5 0.829396 0.313667 0.042928
Si Si6 0.330080 0.311616 0.415972
Si Si7 0.670043 0.312525 0.500000
O O1 0.500000 0.258342 0.340336
O O2 0.580553 0.500000 0.342245
O O3 0.625899 0.261175 0.304891
O O4 0.620923 0.259626 0.380907
O O5 0.106062 0.740262 0.845774
O O6 0.124712 0.753449 0.922674
O O7 0.000000 0.775577 0.890793
O O8 0.089831 0.000000 0.883357
O O9 0.500000 0.235443 0.201386
O O10 0.630380 0.257148 0.229648
O O11 0.584969 0.000000 0.198555
O O12 0.326966 0.500000 0.267800
O O13 0.250000 0.750000 0.269167
O O14 0.828270 0.500000 0.045320
O O15 0.750000 0.250000 0.046283
O O16 0.855577 0.270135 0.000000
O O17 0.327037 0.500000 0.415055
O O18 0.250000 0.250000 0.411711
O O19 0.358977 0.264135 0.458278
O O20 0.670655 0.500000 0.500000
O O21 0.750000 0.250000 0.500000
#
# Coordination Sequence:
#
# PCOD9492093 Si02
#       7
#    16  16  16  16  16  16   8
#     4   9  18  32  50  72  99 132 167 206 256 310
#     4  10  21  37  58  84 113 145 181 220 263 314
#     4  10  21  38  59  82 109 139 172 213 261 313
#     4  11  22  36  55  78 104 134 172 215 259 310
#     4  10  21  37  57  81 111 147 186 228 273 319
#     4   9  16  28  47  70  97 128 165 207 250 299
#     4   8  14  24  41  67  95 125 161 202 248 296
#
# _framework density 18.356081
#
# number of rings (size 3 to 8) (size 9 to 14) (size 15 to 20)
#    0.000    2.308    0.000    2.769    0.000    4.308 
#    0.000    5.769    0.000    4.615    0.000    0.000 
#    0.000    6.154    0.000    0.000    0.000    0.000 
#
# Total GULP energy -290140.757906 kJ/mol
# GULP energy per Si atom -5579.629960 kJ/mol
# Density = 1.831430 g / cm^3
# Si number density = 18.356081 Si / 1000 Ang^3
#
#
#
# Elastic Constant Matrix: (Units=GPa)
#
#
# Indices 1 2 3 4 5 6 
#
# 1 108.9548 27.4607 108.8907 0.0000 0.0000 0.0000
# 2 27.4607 24.2572 43.1643 0.0000 0.0000 0.0000
# 3 108.8907 43.1643 218.1580 0.0000 0.0000 0.0000
# 4 0.0000 0.0000 0.0000 19.4738 0.0000 0.0000
# 5 0.0000 0.0000 0.0000 0.0000 51.5100 0.0000
# 6 0.0000 0.0000 0.0000 0.0000 0.0000 21.6121
#
#
#
# Elastic Compliance Matrix: (Units=1/GPa)
#
#
# Indices 1 2 3 4 5 6 
#
# 1 0.019092 -0.007186 -0.008108 0.000000 0.000000 0.000000
# 2 -0.007186 0.066331 -0.009537 0.000000 0.000000 0.000000
# 3 -0.008108 -0.009537 0.010518 0.000000 0.000000 0.000000
# 4 0.000000 0.000000 0.000000 0.051351 0.000000 0.000000
# 5 0.000000 0.000000 0.000000 0.000000 0.019414 0.000000
# 6 0.000000 0.000000 0.000000 0.000000 0.000000 0.046270
#
#
# Mechanical properties :
#
#
# Convention : Reuss Voigt Hill
#
# Bulk Modulus (GPa) = 21.60832 78.93349 50.27091
# Shear Modulus (GPa) = 17.98140 29.97616 23.97878
#
# Velocity S-wave (km/s) = 3.13323 4.04547 3.61822
# Velocity P-wave (km/s) = 4.98867 8.05703 6.70084
#
# Compressibility (1/GPa) = 0.04627846
#
# Stress axis : x y z
#
# Youngs Moduli (GPa) = 52.37675 15.07591 95.07721
#
# Poissons Ratio (x) = 0.10834 0.77087
# Poissons Ratio (y) = 0.37640 0.90676
# Poissons Ratio (z) = 0.42466 0.14378
#
# Static dielectric constant tensor:
#      x y z
#    x 1.595510 0.000000 0.000000 
#    y 0.000000 1.621460 0.000000 
#    z 0.000000 0.000000 1.639780 
# 
# From -- ./inp_files/78210.got.cif
#   From: 2010.05.17/outbox.cif.g08.bks.cpg/sg65_40_cif.got.tgz:78210.got - 2010.06.03 17:01:31.
