data_PCOD9492588
_publ_section_title
;
Structure prediction by ZEFSAII (Michael W. Deem and Ramdas Pophale) SiO2 
 PCOD9492588
Probable space group: C M M M
;
_chemical_formula_sum "Si O2"
_cell_formula_units_Z 68
_cell_length_a 20.895125
_cell_length_b 15.142429
_cell_length_c 10.344768
_cell_angle_alpha 90.000000
_cell_angle_beta 90.000000
_cell_angle_gamma 90.000000
_cell_volume 3273.115079
_symmetry_space_group_name_H-M "C M M M"
_symmetry_group_IT_number 65
_symmetry_cell_setting 'orthorhombic'
loop_
_space_group_symop_operation_xyz
x,y,z
-x,-y,z
x,-y,-z
-x,y,-z
-x,-y,-z
x,y,-z
-x,y,z
x,-y,z
1/2+x,1/2+y,z
1/2-x,1/2-y,z
1/2+x,1/2-y,-z
1/2-x,1/2+y,-z
1/2-x,1/2-y,-z
1/2+x,1/2+y,-z
1/2-x,1/2+y,z
1/2+x,1/2-y,z
loop_
_atom_site_type_symbol
_atom_site_label
_atom_site_fract_x
_atom_site_fract_y
_atom_site_fract_z
Si Si1 0.756173 0.896029 0.856415
Si Si2 0.639259 0.644607 0.642929
Si Si3 0.000000 0.154357 0.350523
Si Si4 0.868607 0.347282 0.718100
Si Si5 0.143394 0.500000 0.500000
Si Si6 0.500000 0.817247 0.845303
O O1 0.811558 0.882274 0.752235
O O2 0.692161 0.846834 0.812834
O O3 0.740795 0.000000 0.858295
O O4 0.776740 0.869042 0.000000
O O5 0.664160 0.621883 0.500000
O O6 0.567927 0.605930 0.659217
O O7 0.629466 0.750418 0.653362
O O8 0.000000 0.224945 0.234121
O O9 0.000000 0.191935 0.500000
O O10 0.858403 0.422577 0.612573
O O11 0.934810 0.362599 0.795239
O O12 0.500000 0.807337 0.000000
#
# Coordination Sequence:
#
# PCOD9492588 Si02
#       6
#    16  16   8  16   4   8
#     4  11  25  42  59  87 126 162 200 253 307 363
#     4  10  21  38  66  92 119 155 203 250 303 367
#     4   8  18  38  61  94 125 152 201 258 302 360
#     4  11  23  40  64  89 125 159 211 250 304 358
#     4  12  24  41  62  96 122 169 198 266 302 357
#     4  10  22  38  61  89 123 168 207 247 300 358
#
# _framework density 20.775316
#
# number of rings (size 3 to 8) (size 9 to 14) (size 15 to 20)
#    0.000    1.647    2.353    1.412    3.294    8.000 
#    0.000    1.176    0.000    3.529    0.000    0.000 
#    0.000    0.000    0.000    0.000    0.000    0.000 
#
# Total GULP energy -189319.617135 kJ/mol
# GULP energy per Si atom -5568.224033 kJ/mol
# Density = 2.072803 g / cm^3
# Si number density = 20.775316 Si / 1000 Ang^3
#
#
#
# Elastic Constant Matrix: (Units=GPa)
#
#
# Indices 1 2 3 4 5 6 
#
# 1 133.3531 -13.5076 72.2802 0.0000 0.0000 0.0000
# 2 -13.5076 55.7179 0.5660 0.0000 0.0000 0.0000
# 3 72.2802 0.5660 183.3650 0.0000 0.0000 0.0000
# 4 0.0000 0.0000 0.0000 31.0562 0.0000 0.0000
# 5 0.0000 0.0000 0.0000 0.0000 16.2123 0.0000
# 6 0.0000 0.0000 0.0000 0.0000 0.0000 -107.8653
#
#
#
# Elastic Compliance Matrix: (Units=1/GPa)
#
#
# Indices 1 2 3 4 5 6 
#
# 1 0.009854 0.002429 -0.003892 0.000000 0.000000 0.000000
# 2 0.002429 0.018547 -0.001015 0.000000 0.000000 0.000000
# 3 -0.003892 -0.001015 0.006991 0.000000 0.000000 0.000000
# 4 0.000000 0.000000 0.000000 0.032200 0.000000 0.000000
# 5 0.000000 0.000000 0.000000 0.000000 0.061681 0.000000
# 6 0.000000 0.000000 0.000000 0.000000 0.000000 -0.009271
#
#
# Mechanical properties :
#
#
# Convention : Reuss Voigt Hill
#
# Bulk Modulus (GPa) = 32.85591 54.56813 43.71202
# Shear Modulus (GPa) = 37.00862 8.75378 22.88120
#
# Velocity S-wave (km/s) = 4.22521 2.05492 3.32228
# Velocity P-wave (km/s) = 6.29702 5.65271 5.98354
#
# Compressibility (1/GPa) = 0.03043593
#
# Stress axis : x y z
#
# Youngs Moduli (GPa) = 101.47737 53.91819 143.04298
#
# Poissons Ratio (x) = -0.13094 0.55672
# Poissons Ratio (y) = -0.24644 0.14512
# Poissons Ratio (z) = 0.39495 0.05470
#
# Static dielectric constant tensor:
#      x y z
#    x 1.759370 0.000000 0.000000 
#    y 0.000000 1.754630 0.000000 
#    z 0.000000 0.000000 1.721290 
# 
# From -- ./inp_files/10949.got.cif
#   From: 2010.05.17/outbox.cif.g08.bks.cpg/sg65_6_cif.got.tgz:10949.got - 2010.06.03 17:01:31.
