data_PCOD9492370
_publ_section_title
;
Structure prediction by ZEFSAII (Michael W. Deem and Ramdas Pophale) SiO2 
 PCOD9492370
Probable space group: C M M M
;
_chemical_formula_sum "Si O2"
_cell_formula_units_Z 120
_cell_length_a 29.402972
_cell_length_b 25.376925
_cell_length_c 7.790355
_cell_angle_alpha 90.000000
_cell_angle_beta 90.000000
_cell_angle_gamma 90.000000
_cell_volume 5812.828034
_symmetry_space_group_name_H-M "C M M M"
_symmetry_group_IT_number 65
_symmetry_cell_setting 'orthorhombic'
loop_
_space_group_symop_operation_xyz
x,y,z
-x,-y,z
x,-y,-z
-x,y,-z
-x,-y,-z
x,y,-z
-x,y,z
x,-y,z
1/2+x,1/2+y,z
1/2-x,1/2-y,z
1/2+x,1/2-y,-z
1/2-x,1/2+y,-z
1/2-x,1/2-y,-z
1/2+x,1/2+y,-z
1/2-x,1/2+y,z
1/2+x,1/2-y,z
loop_
_atom_site_type_symbol
_atom_site_label
_atom_site_fract_x
_atom_site_fract_y
_atom_site_fract_z
Si Si1 0.000000 0.940042 0.295907
Si Si2 0.103173 0.247161 0.294672
Si Si3 0.702311 0.275861 0.708758
Si Si4 0.410541 0.374144 0.203867
Si Si5 0.947951 0.649485 0.289000
Si Si6 0.879864 0.559793 0.297104
Si Si7 0.719938 0.063006 0.801659
Si Si8 0.187148 0.105266 0.198096
O O1 0.955088 0.907241 0.247190
O O2 0.000000 0.943929 0.500000
O O3 0.000000 0.000000 0.224868
O O4 0.102666 0.250868 0.500000
O O5 0.155948 0.254194 0.241693
O O6 0.087557 0.187518 0.254311
O O7 0.071758 0.294240 0.229360
O O8 0.702208 0.281959 0.500000
O O9 0.750000 0.250000 0.757245
O O10 0.696999 0.332668 0.793564
O O11 0.363494 0.399525 0.275414
O O12 0.405320 0.374302 0.000000
O O13 0.947015 0.649616 0.500000
O O14 0.915621 0.602041 0.228583
O O15 0.000000 0.642434 0.237014
O O16 0.888358 0.555643 0.500000
O O17 0.883327 0.500000 0.225029
O O18 0.828047 0.579857 0.276803
O O19 0.767761 0.080264 0.720670
O O20 0.719558 0.000000 0.798067
O O21 0.719549 0.080999 0.000000
O O22 0.185214 0.085989 0.000000
#
# Coordination Sequence:
#
# PCOD9492370 Si02
#       8
#     8  16  16  16  16  16  16  16
#     4  11  25  43  63  87 113 145 184 221 264 321
#     4   9  18  33  52  76 106 143 184 222 270 329
#     4   9  18  30  47  73 103 138 175 215 264 316
#     4  10  21  38  59  83 112 143 179 225 273 318
#     4   9  18  31  50  77 104 136 182 227 271 326
#     4   9  18  32  51  76 105 137 177 227 276 321
#     4   9  18  33  52  74 102 138 176 211 258 319
#     4   9  19  34  52  76 105 138 175 215 263 317
#
# _framework density 20.643996999999999
#
# number of rings (size 3 to 8) (size 9 to 14) (size 15 to 20)
#    0.000    2.733    0.000    0.600    2.800    2.667 
#    0.000    3.333    0.000    2.800    0.000    1.867 
#    0.000    0.000    0.000    0.000    0.000    0.000 
#
# Total GULP energy -334463.910446 kJ/mol
# GULP energy per Si atom -5574.398507 kJ/mol
# Density = 2.059701 g / cm^3
# Si number density = 20.643997 Si / 1000 Ang^3
#
#
#
# Elastic Constant Matrix: (Units=GPa)
#
#
# Indices 1 2 3 4 5 6 
#
# 1 219.7864 104.3386 6.9923 0.0000 0.0000 0.0000
# 2 104.3386 90.8619 2.7061 0.0000 0.0000 0.0000
# 3 6.9923 2.7061 22.5374 0.0000 0.0000 0.0000
# 4 0.0000 0.0000 0.0000 -1.8162 0.0000 0.0000
# 5 0.0000 0.0000 0.0000 0.0000 12.0222 0.0000
# 6 0.0000 0.0000 0.0000 0.0000 0.0000 39.6446
#
#
#
# Elastic Compliance Matrix: (Units=1/GPa)
#
#
# Indices 1 2 3 4 5 6 
#
# 1 0.010070 -0.011512 -0.001742 0.000000 0.000000 0.000000
# 2 -0.011512 0.024206 0.000665 0.000000 0.000000 0.000000
# 3 -0.001742 0.000665 0.044831 0.000000 0.000000 0.000000
# 4 0.000000 0.000000 0.000000 -0.550598 0.000000 0.000000
# 5 0.000000 0.000000 0.000000 0.000000 0.083179 0.000000
# 6 0.000000 0.000000 0.000000 0.000000 0.000000 0.025224
#
#
# Mechanical properties :
#
#
# Convention : Reuss Voigt Hill
#
# Bulk Modulus (GPa) = 18.54279 62.36218 40.45249
# Shear Modulus (GPa) = -15.62829 24.58005 4.47588
#
# Velocity S-wave (km/s) = -2.75442 3.45434 1.47405
# Velocity P-wave (km/s) = 1.05550 6.79588 4.74710
#
# Compressibility (1/GPa) = 0.05392931
#
# Stress axis : x y z
#
# Youngs Moduli (GPa) = 99.30024 41.31272 22.30587
#
# Poissons Ratio (x) = 0.47560 0.03886
# Poissons Ratio (y) = 1.14317 -0.01484
# Poissons Ratio (z) = 0.17299 -0.02749
#
# Static dielectric constant tensor:
#      x y z
#    x 1.676690 0.000000 0.000000 
#    y 0.000000 1.722670 0.000000 
#    z 0.000000 0.000000 1.783600 
# 
# From -- ./inp_files/17057.got.cif
#   From: 2010.05.17/outbox.cif.g08.bks.cpg/sg65_9_cif.got.tgz:17057.got - 2010.06.03 17:01:31.
