data_PCOD9492824
_publ_section_title
;
Structure prediction by ZEFSAII (Michael W. Deem and Ramdas Pophale) SiO2 
 PCOD9492824
Probable space group: C M M M
;
_chemical_formula_sum "Si O2"
_cell_formula_units_Z 80
_cell_length_a 29.746146
_cell_length_b 17.113737
_cell_length_c 8.059059
_cell_angle_alpha 90.000000
_cell_angle_beta 90.000000
_cell_angle_gamma 90.000000
_cell_volume 4102.606786
_symmetry_space_group_name_H-M "C M M M"
_symmetry_group_IT_number 65
_symmetry_cell_setting 'orthorhombic'
loop_
_space_group_symop_operation_xyz
x,y,z
-x,-y,z
x,-y,-z
-x,y,-z
-x,-y,-z
x,y,-z
-x,y,z
x,-y,z
1/2+x,1/2+y,z
1/2-x,1/2-y,z
1/2+x,1/2-y,-z
1/2-x,1/2+y,-z
1/2-x,1/2-y,-z
1/2+x,1/2+y,-z
1/2-x,1/2+y,z
1/2+x,1/2-y,z
loop_
_atom_site_type_symbol
_atom_site_label
_atom_site_fract_x
_atom_site_fract_y
_atom_site_fract_z
Si Si1 0.277351 0.826055 0.695762
Si Si2 0.312404 0.592162 0.682392
Si Si3 0.134126 0.589054 0.195719
Si Si4 0.947985 0.315389 0.687675
Si Si5 0.366274 0.405521 0.000000
Si Si6 0.948020 0.798223 0.000000
O O1 0.285923 0.813220 0.500000
O O2 0.250000 0.750000 0.759201
O O3 0.240199 0.893779 0.712705
O O4 0.323924 0.853058 0.773857
O O5 0.323116 0.626317 0.500000
O O6 0.320937 0.500000 0.675400
O O7 0.340739 0.623890 0.835457
O O8 0.145965 0.500000 0.245410
O O9 0.089700 0.618791 0.288507
O O10 0.124247 0.589235 0.000000
O O11 0.943998 0.283100 0.500000
O O12 0.939866 0.253364 0.834846
O O13 0.000000 0.342747 0.706961
O O14 0.365366 0.500000 0.000000
O O15 0.415766 0.371842 0.000000
O O16 0.000000 0.820972 0.000000
#
# Coordination Sequence:
#
# PCOD9492824 Si02
#       6
#    16  16  16  16   8   8
#     4  10  22  37  55  82 114 154 200 245 292 348
#     4   9  19  36  56  80 114 153 193 239 288 343
#     4  11  24  39  59  89 123 158 198 250 305 357
#     4  10  22  41  65  90 117 156 201 244 300 362
#     4  10  22  37  60  89 114 155 201 240 296 358
#     4  10  22  41  62  89 124 153 189 247 303 355
#
# _framework density 19.499797999999998
#
# number of rings (size 3 to 8) (size 9 to 14) (size 15 to 20)
#    0.000    2.000    1.000    1.200    4.200    4.200 
#    0.000    2.000    0.000    0.000    0.000    5.600 
#    0.000    0.000    0.000    0.000    0.000    0.000 
#
# Total GULP energy -223131.291470 kJ/mol
# GULP energy per Si atom -5578.282287 kJ/mol
# Density = 1.945542 g / cm^3
# Si number density = 19.499798 Si / 1000 Ang^3
#
#
#
# Elastic Constant Matrix: (Units=GPa)
#
#
# Indices 1 2 3 4 5 6 
#
# 1 94.5910 37.7123 50.7003 0.0000 0.0000 0.0000
# 2 37.7123 31.6124 28.2433 0.0000 0.0000 0.0000
# 3 50.7003 28.2433 114.2942 0.0000 0.0000 0.0000
# 4 0.0000 0.0000 0.0000 3.5860 0.0000 0.0000
# 5 0.0000 0.0000 0.0000 0.0000 32.5837 0.0000
# 6 0.0000 0.0000 0.0000 0.0000 0.0000 36.2637
#
#
#
# Elastic Compliance Matrix: (Units=1/GPa)
#
#
# Indices 1 2 3 4 5 6 
#
# 1 0.021573 -0.022055 -0.004120 0.000000 0.000000 0.000000
# 2 -0.022055 0.063144 -0.005820 0.000000 0.000000 0.000000
# 3 -0.004120 -0.005820 0.012015 0.000000 0.000000 0.000000
# 4 0.000000 0.000000 0.000000 0.278865 0.000000 0.000000
# 5 0.000000 0.000000 0.000000 0.000000 0.030690 0.000000
# 6 0.000000 0.000000 0.000000 0.000000 0.000000 0.027576
#
#
# Mechanical properties :
#
#
# Convention : Reuss Voigt Hill
#
# Bulk Modulus (GPa) = 30.54152 52.64548 41.59350
# Shear Modulus (GPa) = 9.82768 22.74277 16.28522
#
# Velocity S-wave (km/s) = 2.24741 3.41883 2.89303
# Velocity P-wave (km/s) = 4.73613 6.53002 5.70403
#
# Compressibility (1/GPa) = 0.03274231
#
# Stress axis : x y z
#
# Youngs Moduli (GPa) = 46.35397 15.83686 83.22960
#
# Poissons Ratio (x) = 0.34929 0.34288
# Poissons Ratio (y) = 1.02235 0.48439
# Poissons Ratio (z) = 0.19096 0.09217
#
# Static dielectric constant tensor:
#      x y z
#    x 1.645050 0.000000 0.000000 
#    y 0.000000 1.696870 0.000000 
#    z 0.000000 0.000000 1.731720 
# 
# From -- ./inp_files/16110.got.cif
#   From: 2010.05.17/outbox.cif.g08.bks.cpg/sg65_9_cif.got.tgz:16110.got - 2010.06.03 17:01:31.
