data_PCOD9492663
_publ_section_title
;
Structure prediction by ZEFSAII (Michael W. Deem and Ramdas Pophale) SiO2 
 PCOD9492663
Probable space group: C M M M
;
_chemical_formula_sum "Si O2"
_cell_formula_units_Z 68
_cell_length_a 17.171298
_cell_length_b 19.839354
_cell_length_c 8.359516
_cell_angle_alpha 90.000000
_cell_angle_beta 90.000000
_cell_angle_gamma 90.000000
_cell_volume 2847.815080
_symmetry_space_group_name_H-M "C M M M"
_symmetry_group_IT_number 65
_symmetry_cell_setting 'orthorhombic'
loop_
_space_group_symop_operation_xyz
x,y,z
-x,-y,z
x,-y,-z
-x,y,-z
-x,-y,-z
x,y,-z
-x,y,z
x,-y,z
1/2+x,1/2+y,z
1/2-x,1/2-y,z
1/2+x,1/2-y,-z
1/2-x,1/2+y,-z
1/2-x,1/2-y,-z
1/2+x,1/2+y,-z
1/2-x,1/2+y,z
1/2+x,1/2-y,z
loop_
_atom_site_type_symbol
_atom_site_label
_atom_site_fract_x
_atom_site_fract_y
_atom_site_fract_z
Si Si1 0.000000 0.799748 0.000000
Si Si2 0.907076 0.631385 0.807796
Si Si3 0.811719 0.500000 0.807814
Si Si4 0.000000 0.894509 0.308870
Si Si5 0.135805 0.000000 0.688704
Si Si6 0.161404 0.229287 0.328424
Si Si7 0.170107 0.207062 0.000000
O O1 0.918036 0.762938 0.000000
O O2 0.000000 0.837858 0.171194
O O3 0.856119 0.567582 0.747663
O O4 0.881423 0.700940 0.721141
O O5 0.000000 0.621596 0.786016
O O6 0.891514 0.632687 0.000000
O O7 0.719718 0.500000 0.771064
O O8 0.819727 0.500000 0.000000
O O9 0.000000 0.880004 0.500000
O O10 0.922827 0.938461 0.277257
O O11 0.152159 0.000000 0.500000
O O12 0.132321 0.204292 0.500000
O O13 0.250000 0.250000 0.347647
O O14 0.168314 0.177889 0.178173
O O15 0.250000 0.250000 0.000000
#
# Coordination Sequence:
#
# PCOD9492663 Si02
#       7
#     4  16   8   8   8  16   8
#     4  12  26  39  72  96 122 181 222 272 340 398
#     4  10  21  39  64  92 133 176 217 269 328 390
#     4  10  22  37  63 102 133 170 219 268 329 401
#     4   9  22  44  66  96 132 168 215 270 326 394
#     4   9  20  40  64  90 133 173 204 267 333 385
#     4  10  22  41  65  90 123 171 219 268 329 390
#     4  10  24  44  61  90 129 162 214 278 326 384
#
# _framework density 23.877956999999999
#
# number of rings (size 3 to 8) (size 9 to 14) (size 15 to 20)
#    0.000    2.118    1.176    1.059    3.294    8.000 
#    0.000    7.059    0.000    2.118    0.000    0.000 
#    0.000    0.000    0.000    0.000    0.000    0.000 
#
# Total GULP energy -189271.543658 kJ/mol
# GULP energy per Si atom -5566.810108 kJ/mol
# Density = 2.382361 g / cm^3
# Si number density = 23.877957 Si / 1000 Ang^3
#
#
#
# Elastic Constant Matrix: (Units=GPa)
#
#
# Indices 1 2 3 4 5 6 
#
# 1 184.4409 60.4814 15.1539 0.0000 0.0000 0.0000
# 2 60.4814 87.5356 40.7884 0.0000 0.0000 0.0000
# 3 15.1539 40.7884 151.6014 0.0000 0.0000 0.0000
# 4 0.0000 0.0000 0.0000 28.5365 0.0000 0.0000
# 5 0.0000 0.0000 0.0000 0.0000 60.9410 0.0000
# 6 0.0000 0.0000 0.0000 0.0000 0.0000 41.2096
#
#
#
# Elastic Compliance Matrix: (Units=1/GPa)
#
#
# Indices 1 2 3 4 5 6 
#
# 1 0.007074 -0.005211 0.000695 0.000000 0.000000 0.000000
# 2 -0.005211 0.016901 -0.004026 0.000000 0.000000 0.000000
# 3 0.000695 -0.004026 0.007610 0.000000 0.000000 0.000000
# 4 0.000000 0.000000 0.000000 0.035043 0.000000 0.000000
# 5 0.000000 0.000000 0.000000 0.000000 0.016409 0.000000
# 6 0.000000 0.000000 0.000000 0.000000 0.000000 0.024266
#
#
# Mechanical properties :
#
#
# Convention : Reuss Voigt Hill
#
# Bulk Modulus (GPa) = 68.96855 72.93615 70.95235
# Shear Modulus (GPa) = 38.69359 46.61438 42.65399
#
# Velocity S-wave (km/s) = 4.02988 4.42316 4.23109
# Velocity P-wave (km/s) = 7.11335 7.52977 7.32452
#
# Compressibility (1/GPa) = 0.01449936
#
# Stress axis : x y z
#
# Youngs Moduli (GPa) = 141.37201 59.16946 131.40558
#
# Poissons Ratio (x) = 0.30834 -0.09133
# Poissons Ratio (y) = 0.73672 0.52907
# Poissons Ratio (z) = -0.09826 0.23823
#
# Static dielectric constant tensor:
#      x y z
#    x 1.887970 0.000000 0.000000 
#    y 0.000000 1.930780 0.000000 
#    z 0.000000 0.000000 2.184610 
# 
# From -- ./inp_files/9023.got.cif
#   From: 2010.05.17/outbox.cif.g08.bks.cpg/sg65_5_cif.got.tgz:9023.got - 2010.06.03 17:01:31.
