data_PCOD9492251
_publ_section_title
;
Structure prediction by ZEFSAII (Michael W. Deem and Ramdas Pophale) SiO2 
 PCOD9492251
Probable space group: C M M M
;
_chemical_formula_sum "Si O2"
_cell_formula_units_Z 56
_cell_length_a 8.919748
_cell_length_b 18.483109
_cell_length_c 18.207553
_cell_angle_alpha 90.000000
_cell_angle_beta 90.000000
_cell_angle_gamma 90.000000
_cell_volume 3001.782299
_symmetry_space_group_name_H-M "C M M M"
_symmetry_group_IT_number 65
_symmetry_cell_setting 'orthorhombic'
loop_
_space_group_symop_operation_xyz
x,y,z
-x,-y,z
x,-y,-z
-x,y,-z
-x,-y,-z
x,y,-z
-x,y,z
x,-y,z
1/2+x,1/2+y,z
1/2-x,1/2-y,z
1/2+x,1/2-y,-z
1/2-x,1/2+y,-z
1/2-x,1/2-y,-z
1/2+x,1/2+y,-z
1/2-x,1/2+y,z
1/2+x,1/2-y,z
loop_
_atom_site_type_symbol
_atom_site_label
_atom_site_fract_x
_atom_site_fract_y
_atom_site_fract_z
Si Si1 0.180466 0.829468 0.500000
Si Si2 0.678706 0.585197 0.085596
Si Si3 0.821687 0.670862 0.782686
Si Si4 0.819581 0.084992 0.352217
O O1 0.250000 0.750000 0.500000
O O2 0.223014 0.873611 0.426944
O O3 0.000000 0.823326 0.500000
O O4 0.500000 0.595930 0.096706
O O5 0.709338 0.500000 0.098911
O O6 0.769125 0.634370 0.141417
O O7 0.711607 0.600239 0.000000
O O8 0.750000 0.750000 0.775878
O O9 0.760558 0.621425 0.716644
O O10 0.000000 0.676104 0.779517
O O11 0.000000 0.091689 0.342979
O O12 0.784738 0.000000 0.357498
#
# Coordination Sequence:
#
# PCOD9492251 Si02
#       4
#     8  16  16  16
#     4  10  21  37  59  87 117 152 191 232 282 336
#     4   9  19  38  63  88 115 149 188 231 283 342
#     4  12  25  39  57  83 116 153 193 237 286 339
#     4  10  21  39  62  86 115 151 191 235 284 340
#
# _framework density 18.655584000000001
#
# number of rings (size 3 to 8) (size 9 to 14) (size 15 to 20)
#    0.000    1.714    0.000    5.571    0.000   10.857 
#    0.000    1.429    0.000    2.571    0.000    0.000 
#    0.000    0.000    0.000    0.000    0.000    0.000 
#
# Total GULP energy -156544.246805 kJ/mol
# GULP energy per Si atom -5590.865957 kJ/mol
# Density = 1.861312 g / cm^3
# Si number density = 18.655584 Si / 1000 Ang^3
#
#
#
# Elastic Constant Matrix: (Units=GPa)
#
#
# Indices 1 2 3 4 5 6 
#
# 1 72.6430 84.7281 72.6566 0.0000 0.0000 0.0000
# 2 84.7281 172.7055 103.2064 0.0000 0.0000 0.0000
# 3 72.6566 103.2064 123.2304 0.0000 0.0000 0.0000
# 4 0.0000 0.0000 0.0000 97.9887 0.0000 0.0000
# 5 0.0000 0.0000 0.0000 0.0000 -2.9465 0.0000
# 6 0.0000 0.0000 0.0000 0.0000 0.0000 34.2932
#
#
#
# Elastic Compliance Matrix: (Units=1/GPa)
#
#
# Indices 1 2 3 4 5 6 
#
# 1 0.043111 -0.011932 -0.015425 0.000000 0.000000 0.000000
# 2 -0.011932 0.014894 -0.005439 0.000000 0.000000 0.000000
# 3 -0.015425 -0.005439 0.021764 0.000000 0.000000 0.000000
# 4 0.000000 0.000000 0.000000 0.010205 0.000000 0.000000
# 5 0.000000 0.000000 0.000000 0.000000 -0.339390 0.000000
# 6 0.000000 0.000000 0.000000 0.000000 0.000000 0.029160
#
#
# Mechanical properties :
#
#
# Convention : Reuss Voigt Hill
#
# Bulk Modulus (GPa) = 70.53260 98.86234 84.69747
# Shear Modulus (GPa) = -33.34746 33.06627 -0.14059
#
# Velocity S-wave (km/s) = -4.23251 4.21463 -0.27482
# Velocity P-wave (km/s) = 3.74224 8.76314 6.73784
#
# Compressibility (1/GPa) = 0.01417784
#
# Stress axis : x y z
#
# Youngs Moduli (GPa) = 23.19584 67.14007 45.94664
#
# Poissons Ratio (x) = 0.80114 0.70872
# Poissons Ratio (y) = 0.27678 0.24989
# Poissons Ratio (z) = 0.35779 0.36516
#
# Static dielectric constant tensor:
#      x y z
#    x 1.621970 0.000000 0.000000 
#    y 0.000000 1.611550 0.000000 
#    z 0.000000 0.000000 1.624340 
# 
# From -- ./inp_files/48751.got.cif
#   From: 2010.05.17/outbox.cif.g08.bks.cpg/sg65_25_cif.got.tgz:48751.got - 2010.06.03 17:01:31.
