data_PCOD9492070
_publ_section_title
;
Structure prediction by ZEFSAII (Michael W. Deem and Ramdas Pophale) SiO2 
 PCOD9492070
Probable space group: C M M M
;
_chemical_formula_sum "Si O2"
_cell_formula_units_Z 72
_cell_length_a 7.669116
_cell_length_b 18.509977
_cell_length_c 24.561071
_cell_angle_alpha 90.000000
_cell_angle_beta 90.000000
_cell_angle_gamma 90.000000
_cell_volume 3486.570782
_symmetry_space_group_name_H-M "C M M M"
_symmetry_group_IT_number 65
_symmetry_cell_setting 'orthorhombic'
loop_
_space_group_symop_operation_xyz
x,y,z
-x,-y,z
x,-y,-z
-x,y,-z
-x,-y,-z
x,y,-z
-x,y,z
x,-y,z
1/2+x,1/2+y,z
1/2-x,1/2-y,z
1/2+x,1/2-y,-z
1/2-x,1/2+y,-z
1/2-x,1/2-y,-z
1/2+x,1/2+y,-z
1/2-x,1/2+y,z
1/2+x,1/2-y,z
loop_
_atom_site_type_symbol
_atom_site_label
_atom_site_fract_x
_atom_site_fract_y
_atom_site_fract_z
Si Si1 0.789956 0.665538 0.000000
Si Si2 0.292128 0.918422 0.893808
Si Si3 0.207036 0.165850 0.784018
Si Si4 0.713470 0.584420 0.322960
Si Si5 0.790604 0.913046 0.558459
O O1 0.750000 0.750000 0.000000
O O2 0.723186 0.626309 0.945481
O O3 0.000000 0.659473 0.000000
O O4 0.500000 0.923799 0.901480
O O5 0.265101 0.876710 0.837543
O O6 0.221538 0.000000 0.891521
O O7 0.250000 0.250000 0.787797
O O8 0.276555 0.130264 0.728328
O O9 0.000000 0.158655 0.781862
O O10 0.500000 0.585971 0.323878
O O11 0.762027 0.500000 0.316663
O O12 0.773790 0.612142 0.382460
O O13 0.721643 0.885817 0.500000
O O14 0.000000 0.901753 0.557789
O O15 0.764666 0.000000 0.558941
#
# Coordination Sequence:
#
# PCOD9492070 Si02
#       5
#     8  16  16  16  16
#     4  10  21  37  57  81 109 140 169 200 242 290
#     4  10  21  38  59  81 105 133 167 207 250 296
#     4  11  22  35  51  72 101 136 172 210 253 300
#     4   8  14  25  42  65  92 122 158 202 250 297
#     4   7   9  15  31  57  87 116 148 191 243 294
#
# _framework density 20.650663000000002
#
# number of rings (size 3 to 8) (size 9 to 14) (size 15 to 20)
#    0.000    2.889    0.000    4.333    0.000    5.333 
#    0.000    0.000    0.000    2.667    0.000    0.000 
#    0.000    2.667    0.000   25.111    0.000   20.667 
#
# Total GULP energy -200742.868767 kJ/mol
# GULP energy per Si atom -5576.190799 kJ/mol
# Density = 2.060366 g / cm^3
# Si number density = 20.650663 Si / 1000 Ang^3
#
#
#
# Elastic Constant Matrix: (Units=GPa)
#
#
# Indices 1 2 3 4 5 6 
#
# 1 37.0988 1.3363 6.7977 0.0000 0.0000 0.0000
# 2 1.3363 137.0424 117.4892 0.0000 0.0000 0.0000
# 3 6.7977 117.4892 264.0516 0.0000 0.0000 0.0000
# 4 0.0000 0.0000 0.0000 -3.1159 0.0000 0.0000
# 5 0.0000 0.0000 0.0000 0.0000 30.4027 0.0000
# 6 0.0000 0.0000 0.0000 0.0000 0.0000 -0.1570
#
#
#
# Elastic Compliance Matrix: (Units=1/GPa)
#
#
# Indices 1 2 3 4 5 6 
#
# 1 0.027108 0.000540 -0.000938 0.000000 0.000000 0.000000
# 2 0.000540 0.011808 -0.005268 0.000000 0.000000 0.000000
# 3 -0.000938 -0.005268 0.006155 0.000000 0.000000 0.000000
# 4 0.000000 0.000000 0.000000 -0.320934 0.000000 0.000000
# 5 0.000000 0.000000 0.000000 0.000000 0.032892 0.000000
# 6 0.000000 0.000000 0.000000 0.000000 0.000000 -6.369840
#
#
# Mechanical properties :
#
#
# Convention : Reuss Voigt Hill
#
# Bulk Modulus (GPa) = 29.63956 76.60436 53.12196
# Shear Modulus (GPa) = -0.75870 26.26393 12.75262
#
# Velocity S-wave (km/s) = -0.60679 3.57013 2.48773
# Velocity P-wave (km/s) = 3.72734 7.36005 5.83367
#
# Compressibility (1/GPa) = 0.03373869
#
# Stress axis : x y z
#
# Youngs Moduli (GPa) = 36.89015 84.68860 162.46432
#
# Poissons Ratio (x) = -0.04573 0.15241
# Poissons Ratio (y) = -0.01992 0.85583
# Poissons Ratio (z) = 0.03461 0.44613
#
# Static dielectric constant tensor:
#      x y z
#    x 1.807860 0.000000 0.000000 
#    y 0.000000 1.681880 0.000000 
#    z 0.000000 0.000000 1.780400 
# 
# From -- ./inp_files/59266.got.cif
#   From: 2010.05.17/outbox.cif.g08.bks.cpg/sg65_30_cif.got.tgz:59266.got - 2010.06.03 17:01:31.
