data_PCOD9492185
_publ_section_title
;
Structure prediction by ZEFSAII (Michael W. Deem and Ramdas Pophale) SiO2 
 PCOD9492185
Probable space group: C M M M
;
_chemical_formula_sum "Si O2"
_cell_formula_units_Z 100
_cell_length_a 21.081011
_cell_length_b 7.896565
_cell_length_c 29.671457
_cell_angle_alpha 90.000000
_cell_angle_beta 90.000000
_cell_angle_gamma 90.000000
_cell_volume 4939.335453
_symmetry_space_group_name_H-M "C M M M"
_symmetry_group_IT_number 65
_symmetry_cell_setting 'orthorhombic'
loop_
_space_group_symop_operation_xyz
x,y,z
-x,-y,z
x,-y,-z
-x,y,-z
-x,-y,-z
x,y,-z
-x,y,z
x,-y,z
1/2+x,1/2+y,z
1/2-x,1/2-y,z
1/2+x,1/2-y,-z
1/2-x,1/2+y,-z
1/2-x,1/2-y,-z
1/2+x,1/2+y,-z
1/2-x,1/2+y,z
1/2+x,1/2-y,z
loop_
_atom_site_type_symbol
_atom_site_label
_atom_site_fract_x
_atom_site_fract_y
_atom_site_fract_z
Si Si1 0.678222 0.297052 0.949283
Si Si2 0.600745 0.302830 0.862982
Si Si3 0.178855 0.202046 0.551288
Si Si4 0.000000 0.500000 0.844097
Si Si5 0.181972 0.692801 0.214240
Si Si6 0.570876 0.199743 0.621008
Si Si7 0.428666 0.302909 0.277523
O O1 0.675823 0.500000 0.951269
O O2 0.750000 0.250000 0.936184
O O3 0.626804 0.249153 0.912041
O O4 0.666727 0.229819 0.000000
O O5 0.576961 0.500000 0.864535
O O6 0.554346 0.154040 0.846148
O O7 0.659537 0.300948 0.828376
O O8 0.170356 0.268027 0.500000
O O9 0.250000 0.250000 0.566009
O O10 0.124875 0.264320 0.584854
O O11 0.175111 0.000000 0.549866
O O12 0.187555 0.500000 0.199691
O O13 0.250000 0.750000 0.232320
O O14 0.126860 0.710546 0.251320
O O15 0.500000 0.247335 0.604490
O O16 0.581018 0.289915 0.668839
O O17 0.570718 0.000000 0.630664
O O18 0.500000 0.235801 0.267714
O O19 0.427327 0.500000 0.264095
#
# Coordination Sequence:
#
# PCOD9492185 Si02
#       7
#    16  16  16   4  16  16  16
#     4   9  19  36  62  93 125 164 209 262 320 376
#     4  11  24  43  65  93 130 165 213 265 315 376
#     4  10  21  37  58  84 115 153 197 246 300 359
#     4  12  26  44  65  96 124 176 214 252 319 390
#     4  12  25  42  64  94 127 162 208 259 313 371
#     4  10  21  38  59  86 119 156 198 246 299 357
#     4  10  22  40  63  90 121 160 202 249 306 367
#
# _framework density 20.245639000000001
#
# number of rings (size 3 to 8) (size 9 to 14) (size 15 to 20)
#    0.000    1.600    0.800    3.600    2.240    5.120 
#    0.000    5.600    0.000    1.920    0.000    0.000 
#    0.000    0.000    0.000    0.000    0.000    0.000 
#
# Total GULP energy -278699.519769 kJ/mol
# GULP energy per Si atom -5573.990395 kJ/mol
# Density = 2.019956 g / cm^3
# Si number density = 20.245639 Si / 1000 Ang^3
#
#
#
# Elastic Constant Matrix: (Units=GPa)
#
#
# Indices 1 2 3 4 5 6 
#
# 1 123.3080 23.5513 54.7685 0.0000 0.0000 0.0000
# 2 23.5513 85.8268 3.2165 0.0000 0.0000 0.0000
# 3 54.7685 3.2165 62.9176 0.0000 0.0000 0.0000
# 4 0.0000 0.0000 0.0000 14.2862 0.0000 0.0000
# 5 0.0000 0.0000 0.0000 0.0000 77.7079 0.0000
# 6 0.0000 0.0000 0.0000 0.0000 0.0000 -99.7044
#
#
#
# Elastic Compliance Matrix: (Units=1/GPa)
#
#
# Indices 1 2 3 4 5 6 
#
# 1 0.014163 -0.003431 -0.012153 0.000000 0.000000 0.000000
# 2 -0.003431 0.012505 0.002347 0.000000 0.000000 0.000000
# 3 -0.012153 0.002347 0.026353 0.000000 0.000000 0.000000
# 4 0.000000 0.000000 0.000000 0.069998 0.000000 0.000000
# 5 0.000000 0.000000 0.000000 0.000000 0.012869 0.000000
# 6 0.000000 0.000000 0.000000 0.000000 0.000000 -0.010030
#
#
# Mechanical properties :
#
#
# Convention : Reuss Voigt Hill
#
# Bulk Modulus (GPa) = 37.66894 48.34722 43.00808
# Shear Modulus (GPa) = 31.02111 11.15902 21.09006
#
# Velocity S-wave (km/s) = 3.91863 2.35027 3.23105
# Velocity P-wave (km/s) = 6.25464 5.59439 5.93370
#
# Compressibility (1/GPa) = 0.02654707
#
# Stress axis : x y z
#
# Youngs Moduli (GPa) = 70.60626 79.96880 37.94641
#
# Poissons Ratio (x) = 0.27437 0.46117
# Poissons Ratio (y) = 0.24225 -0.08907
# Poissons Ratio (z) = 0.85810 -0.18771
#
# Static dielectric constant tensor:
#      x y z
#    x 1.805360 0.000000 0.000000 
#    y 0.000000 1.740060 0.000000 
#    z 0.000000 0.000000 1.726630 
# 
# From -- ./inp_files/75513.got.cif
#   From: 2010.05.17/outbox.cif.g08.bks.cpg/sg65_38_cif.got.tgz:75513.got - 2010.06.03 17:01:31.
