data_PCOD9492968
_publ_section_title
;
Structure prediction by ZEFSAII (Michael W. Deem and Ramdas Pophale) SiO2 
 PCOD9492968
Probable space group: C M M M
;
_chemical_formula_sum "Si O2"
_cell_formula_units_Z 104
_cell_length_a 8.715787
_cell_length_b 23.817394
_cell_length_c 28.879296
_cell_angle_alpha 90.000000
_cell_angle_beta 90.000000
_cell_angle_gamma 90.000000
_cell_volume 5994.976036
_symmetry_space_group_name_H-M "C M M M"
_symmetry_group_IT_number 65
_symmetry_cell_setting 'orthorhombic'
loop_
_space_group_symop_operation_xyz
x,y,z
-x,-y,z
x,-y,-z
-x,y,-z
-x,-y,-z
x,y,-z
-x,y,z
x,-y,z
1/2+x,1/2+y,z
1/2-x,1/2-y,z
1/2+x,1/2-y,-z
1/2-x,1/2+y,-z
1/2-x,1/2-y,-z
1/2+x,1/2+y,-z
1/2-x,1/2+y,z
1/2+x,1/2-y,z
loop_
_atom_site_type_symbol
_atom_site_label
_atom_site_fract_x
_atom_site_fract_y
_atom_site_fract_z
Si Si1 0.318081 0.432331 0.449598
Si Si2 0.816517 0.187706 0.822353
Si Si3 0.180021 0.500000 0.888257
Si Si4 0.181103 0.000000 0.210799
Si Si5 0.817814 0.374829 0.088619
Si Si6 0.684323 0.065269 0.352431
Si Si7 0.684353 0.112309 0.744421
Si Si8 0.682632 0.687680 0.000000
O O1 0.261634 0.411545 0.500000
O O2 0.500000 0.421738 0.447128
O O3 0.297443 0.500000 0.450083
O O4 0.240327 0.413291 0.402230
O O5 0.750000 0.250000 0.828754
O O6 0.752023 0.148314 0.863447
O O7 0.760651 0.162022 0.773540
O O8 0.000000 0.188531 0.824366
O O9 0.288137 0.500000 0.843762
O O10 0.204825 0.441859 0.914787
O O11 0.000000 0.500000 0.872832
O O12 0.261825 0.054800 0.231422
O O13 0.000000 0.000000 0.220913
O O14 0.000000 0.363766 0.089004
O O15 0.741638 0.343840 0.045635
O O16 0.500000 0.063228 0.352552
O O17 0.731076 0.103752 0.309162
O O18 0.737947 0.000000 0.345722
O O19 0.500000 0.117333 0.747142
O O20 0.750000 0.750000 0.000000
O O21 0.500000 0.689990 0.000000
#
# Coordination Sequence:
#
# PCOD9492968 Si02
#       8
#    16  16   8   8  16  16  16   8
#     4   8  14  24  37  56  87 128 171 216 264 312
#     4  12  25  41  60  85 111 144 185 226 273 326
#     4  10  22  39  63  88 119 153 183 219 272 326
#     4  12  22  32  53  83 113 145 185 225 266 323
#     4  11  23  42  66  91 118 151 185 224 273 328
#     4   9  17  28  43  66  96 134 176 217 263 317
#     4  11  21  36  54  76 110 146 181 226 275 323
#     4  12  26  45  66  89 117 150 190 238 279 323
#
# _framework density 17.347860000000001
#
# number of rings (size 3 to 8) (size 9 to 14) (size 15 to 20)
#    0.000    1.538    2.308    4.615    0.000    2.462 
#    0.000    3.077    0.000    0.000    0.000    0.000 
#    0.000    0.615    0.000    2.000    0.000    2.923 
#
# Total GULP energy -290271.062045 kJ/mol
# GULP energy per Si atom -5582.135809 kJ/mol
# Density = 1.730838 g / cm^3
# Si number density = 17.347860 Si / 1000 Ang^3
#
#
#
# Elastic Constant Matrix: (Units=GPa)
#
#
# Indices 1 2 3 4 5 6 
#
# 1 91.7530 43.2791 53.2017 0.0000 0.0000 0.0000
# 2 43.2791 91.5793 44.1341 0.0000 0.0000 0.0000
# 3 53.2017 44.1341 142.5160 0.0000 0.0000 0.0000
# 4 0.0000 0.0000 0.0000 9.6559 0.0000 0.0000
# 5 0.0000 0.0000 0.0000 0.0000 24.5631 0.0000
# 6 0.0000 0.0000 0.0000 0.0000 0.0000 20.1091
#
#
#
# Elastic Compliance Matrix: (Units=1/GPa)
#
#
# Indices 1 2 3 4 5 6 
#
# 1 0.015956 -0.005489 -0.004257 0.000000 0.000000 0.000000
# 2 -0.005489 0.014723 -0.002510 0.000000 0.000000 0.000000
# 3 -0.004257 -0.002510 0.009383 0.000000 0.000000 0.000000
# 4 0.000000 0.000000 0.000000 0.103563 0.000000 0.000000
# 5 0.000000 0.000000 0.000000 0.000000 0.040711 0.000000
# 6 0.000000 0.000000 0.000000 0.000000 0.000000 0.049729
#
#
# Mechanical properties :
#
#
# Convention : Reuss Voigt Hill
#
# Bulk Modulus (GPa) = 64.30744 67.45313 65.88028
# Shear Modulus (GPa) = 18.95645 23.21451 21.08548
#
# Velocity S-wave (km/s) = 3.30923 3.66208 3.49011
# Velocity P-wave (km/s) = 7.19383 7.53977 7.36883
#
# Compressibility (1/GPa) = 0.01555030
#
# Stress axis : x y z
#
# Youngs Moduli (GPa) = 62.67145 67.91868 106.57396
#
# Poissons Ratio (x) = 0.37283 0.45364
# Poissons Ratio (y) = 0.34403 0.26754
# Poissons Ratio (z) = 0.26677 0.17050
#
# Static dielectric constant tensor:
#      x y z
#    x 1.583560 0.000000 0.000000 
#    y 0.000000 1.575550 0.000000 
#    z 0.000000 0.000000 1.621900 
# 
# From -- ./inp_files/73657.got.cif
#   From: 2010.05.17/outbox.cif.g08.bks.cpg/sg65_37_cif.got.tgz:73657.got - 2010.06.03 17:01:31.
