data_PCOD9492599
_publ_section_title
;
Structure prediction by ZEFSAII (Michael W. Deem and Ramdas Pophale) SiO2 
 PCOD9492599
Probable space group: C M M M
;
_chemical_formula_sum "Si O2"
_cell_formula_units_Z 104
_cell_length_a 18.345327
_cell_length_b 21.241464
_cell_length_c 14.916095
_cell_angle_alpha 90.000000
_cell_angle_beta 90.000000
_cell_angle_gamma 90.000000
_cell_volume 5812.527811
_symmetry_space_group_name_H-M "C M M M"
_symmetry_group_IT_number 65
_symmetry_cell_setting 'orthorhombic'
loop_
_space_group_symop_operation_xyz
x,y,z
-x,-y,z
x,-y,-z
-x,y,-z
-x,-y,-z
x,y,-z
-x,y,z
x,-y,z
1/2+x,1/2+y,z
1/2-x,1/2-y,z
1/2+x,1/2-y,-z
1/2-x,1/2+y,-z
1/2-x,1/2-y,-z
1/2+x,1/2+y,-z
1/2-x,1/2+y,z
1/2+x,1/2-y,z
loop_
_atom_site_type_symbol
_atom_site_label
_atom_site_fract_x
_atom_site_fract_y
_atom_site_fract_z
Si Si1 0.336852 0.740308 0.394966
Si Si2 0.918049 0.576586 0.896641
Si Si3 0.412236 0.426013 0.898868
Si Si4 0.087599 0.000000 0.394009
Si Si5 0.348829 0.381565 0.715672
Si Si6 0.414771 0.126150 0.394408
Si Si7 0.810943 0.427256 0.744757
O O1 0.347196 0.723362 0.500000
O O2 0.250000 0.750000 0.381782
O O3 0.364363 0.684299 0.332230
O O4 0.379926 0.804975 0.378349
O O5 0.917830 0.500000 0.892789
O O6 0.854637 0.598257 0.830898
O O7 0.000000 0.596624 0.869797
O O8 0.906415 0.594364 0.000000
O O9 0.500000 0.422403 0.895077
O O10 0.392621 0.500000 0.887397
O O11 0.379370 0.388171 0.816229
O O12 0.389558 0.407215 0.000000
O O13 0.118752 0.938559 0.343878
O O14 0.106502 0.000000 0.500000
O O15 0.000000 0.000000 0.385919
O O16 0.261971 0.390598 0.721510
O O17 0.407521 0.112797 0.500000
O O18 0.500000 0.125020 0.371279
O O19 0.368184 0.078269 0.335866
O O20 0.790704 0.500000 0.760570
#
# Coordination Sequence:
#
# PCOD9492599 Si02
#       7
#    16  16  16   8  16  16  16
#     4  10  21  39  60  79 107 150 195 238 281 333
#     4   8  15  29  49  73 105 143 178 216 265 321
#     4   9  18  34  56  82 116 154 188 227 279 342
#     4  11  24  38  53  83 122 149 179 231 287 344
#     4  12  21  35  58  86 114 149 190 230 287 338
#     4  10  22  39  57  79 107 143 191 237 275 328
#     4  11  21  33  52  84 115 145 180 225 282 339
#
# _framework density 17.892388
#
# number of rings (size 3 to 8) (size 9 to 14) (size 15 to 20)
#    0.000    1.923    3.077    2.308    0.000    3.692 
#    0.000    3.846    0.000    1.385    0.000    2.154 
#    0.000    0.000    0.000    0.000    0.000    0.000 
#
# Total GULP energy -290172.406325 kJ/mol
# GULP energy per Si atom -5580.238583 kJ/mol
# Density = 1.785166 g / cm^3
# Si number density = 17.892388 Si / 1000 Ang^3
#
#
#
# Elastic Constant Matrix: (Units=GPa)
#
#
# Indices 1 2 3 4 5 6 
#
# 1 67.1888 -5.1292 29.5280 0.0000 0.0000 0.0000
# 2 -5.1292 25.3965 27.0376 0.0000 0.0000 0.0000
# 3 29.5280 27.0376 95.8977 0.0000 0.0000 0.0000
# 4 0.0000 0.0000 0.0000 15.7461 0.0000 0.0000
# 5 0.0000 0.0000 0.0000 0.0000 31.5395 0.0000
# 6 0.0000 0.0000 0.0000 0.0000 0.0000 16.8379
#
#
#
# Elastic Compliance Matrix: (Units=1/GPa)
#
#
# Indices 1 2 3 4 5 6 
#
# 1 0.020872 0.015800 -0.010881 0.000000 0.000000 0.000000
# 2 0.015800 0.068224 -0.024100 0.000000 0.000000 0.000000
# 3 -0.010881 -0.024100 0.020573 0.000000 0.000000 0.000000
# 4 0.000000 0.000000 0.000000 0.063508 0.000000 0.000000
# 5 0.000000 0.000000 0.000000 0.000000 0.031706 0.000000
# 6 0.000000 0.000000 0.000000 0.000000 0.000000 0.059390
#
#
# Mechanical properties :
#
#
# Convention : Reuss Voigt Hill
#
# Bulk Modulus (GPa) = 14.02419 32.37286 23.19853
# Shear Modulus (GPa) = 15.31843 21.96114 18.63978
#
# Velocity S-wave (km/s) = 2.92917 3.50723 3.23115
# Velocity P-wave (km/s) = 4.39262 5.87650 5.18789
#
# Compressibility (1/GPa) = 0.07130535
#
# Stress axis : x y z
#
# Youngs Moduli (GPa) = 47.91197 14.65762 48.60733
#
# Poissons Ratio (x) = -0.23159 0.52891
# Poissons Ratio (y) = -0.75699 1.17144
# Poissons Ratio (z) = 0.52134 0.35325
#
# Static dielectric constant tensor:
#      x y z
#    x 1.596710 0.000000 0.000000 
#    y 0.000000 1.585370 0.000000 
#    z 0.000000 0.000000 1.620790 
# 
# From -- ./inp_files/42889.got.cif
#   From: 2010.05.17/outbox.cif.g08.bks.cpg/sg65_22_cif.got.tgz:42889.got - 2010.06.03 17:01:31.
