data_PCOD9492106
_publ_section_title
;
Structure prediction by ZEFSAII (Michael W. Deem and Ramdas Pophale) SiO2 
 PCOD9492106
Probable space group: C M M M
;
_chemical_formula_sum "Si O2"
_cell_formula_units_Z 88
_cell_length_a 21.242604
_cell_length_b 9.151992
_cell_length_c 25.636778
_cell_angle_alpha 90.000000
_cell_angle_beta 90.000000
_cell_angle_gamma 90.000000
_cell_volume 4984.100922
_symmetry_space_group_name_H-M "C M M M"
_symmetry_group_IT_number 65
_symmetry_cell_setting 'orthorhombic'
loop_
_space_group_symop_operation_xyz
x,y,z
-x,-y,z
x,-y,-z
-x,y,-z
-x,-y,-z
x,y,-z
-x,y,z
x,-y,z
1/2+x,1/2+y,z
1/2-x,1/2-y,z
1/2+x,1/2-y,-z
1/2-x,1/2+y,-z
1/2-x,1/2-y,-z
1/2+x,1/2+y,-z
1/2-x,1/2+y,z
1/2+x,1/2-y,z
loop_
_atom_site_type_symbol
_atom_site_label
_atom_site_fract_x
_atom_site_fract_y
_atom_site_fract_z
Si Si1 0.076388 0.166109 0.161164
Si Si2 0.923449 0.329295 0.057747
Si Si3 0.427911 0.175400 0.268952
Si Si4 0.687759 0.175139 0.656149
Si Si5 0.500000 0.165806 0.437140
Si Si6 0.870006 0.173830 0.561759
O O1 0.099226 0.239446 0.107580
O O2 0.090199 0.256713 0.213196
O O3 0.000000 0.163769 0.158057
O O4 0.098473 0.000000 0.165861
O O5 0.906838 0.500000 0.063166
O O6 0.000000 0.322979 0.058026
O O7 0.903255 0.277962 0.000000
O O8 0.500000 0.221952 0.282261
O O9 0.374802 0.213441 0.310956
O O10 0.428816 0.000000 0.264473
O O11 0.750000 0.250000 0.679194
O O12 0.677926 0.242382 0.598802
O O13 0.693897 0.000000 0.654187
O O14 0.500000 0.152449 0.500000
O O15 0.437741 0.255978 0.424482
O O16 0.500000 0.000000 0.414987
O O17 0.858977 0.197625 0.500000
O O18 0.869501 0.000000 0.571094
#
# Coordination Sequence:
#
# PCOD9492106 Si02
#       6
#    16  16  16  16   8  16
#     4   9  16  25  40  65  95 127 165 211 260 306
#     4   8  13  21  34  54  85 128 171 207 248 301
#     4   9  19  36  56  76  99 133 176 218 260 311
#     4  11  24  40  59  81 108 140 175 219 269 321
#     4   9  17  31  53  81 111 141 173 209 250 301
#     4  10  21  37  57  82 111 141 174 214 262 315
#
# _framework density 17.656144000000001
#
# number of rings (size 3 to 8) (size 9 to 14) (size 15 to 20)
#    0.000    2.636    0.000    2.455    1.273    6.545 
#    0.000    1.818    0.000    0.000    0.000    0.000 
#    0.000    0.727    0.000    2.364    0.000    4.727 
#
# Total GULP energy -245254.880970 kJ/mol
# GULP energy per Si atom -5573.974568 kJ/mol
# Density = 1.761596 g / cm^3
# Si number density = 17.656144 Si / 1000 Ang^3
#
#
#
# Elastic Constant Matrix: (Units=GPa)
#
#
# Indices 1 2 3 4 5 6 
#
# 1 72.7926 37.5367 50.0445 0.0000 0.0000 0.0000
# 2 37.5367 62.1485 53.8786 0.0000 0.0000 0.0000
# 3 50.0445 53.8786 105.8753 0.0000 0.0000 0.0000
# 4 0.0000 0.0000 0.0000 14.0641 0.0000 0.0000
# 5 0.0000 0.0000 0.0000 0.0000 3.1711 0.0000
# 6 0.0000 0.0000 0.0000 0.0000 0.0000 20.0123
#
#
#
# Elastic Compliance Matrix: (Units=1/GPa)
#
#
# Indices 1 2 3 4 5 6 
#
# 1 0.022250 -0.007733 -0.006582 0.000000 0.000000 0.000000
# 2 -0.007733 0.031481 -0.012365 0.000000 0.000000 0.000000
# 3 -0.006582 -0.012365 0.018849 0.000000 0.000000 0.000000
# 4 0.000000 0.000000 0.000000 0.071103 0.000000 0.000000
# 5 0.000000 0.000000 0.000000 0.000000 0.315344 0.000000
# 6 0.000000 0.000000 0.000000 0.000000 0.000000 0.049969
#
#
# Mechanical properties :
#
#
# Convention : Reuss Voigt Hill
#
# Bulk Modulus (GPa) = 52.02911 58.19289 55.11100
# Shear Modulus (GPa) = 8.79103 14.07328 11.43216
#
# Velocity S-wave (km/s) = 2.23379 2.82632 2.54734
# Velocity P-wave (km/s) = 6.01540 6.60918 6.31927
#
# Compressibility (1/GPa) = 0.01922001
#
# Stress axis : x y z
#
# Youngs Moduli (GPa) = 44.94333 31.76566 53.05407
#
# Poissons Ratio (x) = 0.24563 0.34921
# Poissons Ratio (y) = 0.34753 0.65602
# Poissons Ratio (z) = 0.29582 0.39279
#
# Static dielectric constant tensor:
#      x y z
#    x 1.611550 0.000000 0.000000 
#    y 0.000000 1.590010 0.000000 
#    z 0.000000 0.000000 1.617340 
# 
# From -- ./inp_files/70997.got.cif
#   From: 2010.05.17/outbox.cif.g08.bks.cpg/sg65_36_cif.got.tgz:70997.got - 2010.06.03 17:01:31.
