data_PCOD9492682
_publ_section_title
;
Structure prediction by ZEFSAII (Michael W. Deem and Ramdas Pophale) SiO2 
 PCOD9492682
Probable space group: C M M M
;
_chemical_formula_sum "Si O2"
_cell_formula_units_Z 68
_cell_length_a 19.988847
_cell_length_b 9.416402
_cell_length_c 19.465717
_cell_angle_alpha 90.000000
_cell_angle_beta 90.000000
_cell_angle_gamma 90.000000
_cell_volume 3663.896018
_symmetry_space_group_name_H-M "C M M M"
_symmetry_group_IT_number 65
_symmetry_cell_setting 'orthorhombic'
loop_
_space_group_symop_operation_xyz
x,y,z
-x,-y,z
x,-y,-z
-x,y,-z
-x,-y,-z
x,y,-z
-x,y,z
x,-y,z
1/2+x,1/2+y,z
1/2-x,1/2-y,z
1/2+x,1/2-y,-z
1/2-x,1/2+y,-z
1/2-x,1/2-y,-z
1/2+x,1/2+y,-z
1/2-x,1/2+y,z
1/2+x,1/2-y,z
loop_
_atom_site_type_symbol
_atom_site_label
_atom_site_fract_x
_atom_site_fract_y
_atom_site_fract_z
Si Si1 0.627800 0.000000 0.580806
Si Si2 0.878881 0.776397 0.660520
Si Si3 0.288273 0.500000 0.582057
Si Si4 0.319563 0.171226 0.804628
Si Si5 0.500000 0.500000 0.678047
Si Si6 0.076128 0.327600 0.922233
O O1 0.600369 0.858942 0.615789
O O2 0.708630 0.000000 0.592631
O O3 0.616022 0.000000 0.500000
O O4 0.823397 0.864935 0.617567
O O5 0.847526 0.720277 0.731274
O O6 0.941046 0.877425 0.675449
O O7 0.300952 0.500000 0.500000
O O8 0.250000 0.250000 0.816969
O O9 0.371928 0.214365 0.864033
O O10 0.311714 0.000000 0.805122
O O11 0.075243 0.500000 0.922600
O O12 0.000000 0.280671 0.907414
O O13 0.093671 0.282222 0.000000
#
# Coordination Sequence:
#
# PCOD9492682 Si02
#       6
#     8  16   8  16   4  16
#     4  11  21  38  65  93 119 152 198 257 309 357
#     4  11  23  41  60  88 122 156 207 250 304 362
#     4  10  21  39  65  91 119 158 201 248 307 364
#     4  11  23  37  61  94 127 162 200 254 307 358
#     4  10  28  44  59  80 113 168 198 242 310 370
#     4   8  16  34  59  88 121 161 207 249 292 351
#
# _framework density 18.559480000000001
#
# number of rings (size 3 to 8) (size 9 to 14) (size 15 to 20)
#    0.000    1.882    1.176    3.529    4.941    2.824 
#    0.000   11.176    0.000    0.000    0.000    2.471 
#    0.000    0.000    0.000    0.000    0.000    0.000 
#
# Total GULP energy -189367.593989 kJ/mol
# GULP energy per Si atom -5569.635117 kJ/mol
# Density = 1.851724 g / cm^3
# Si number density = 18.559480 Si / 1000 Ang^3
#
#
#
# Elastic Constant Matrix: (Units=GPa)
#
#
# Indices 1 2 3 4 5 6 
#
# 1 103.2758 43.2662 74.4316 0.0000 0.0000 0.0000
# 2 43.2662 108.9434 47.4303 0.0000 0.0000 0.0000
# 3 74.4316 47.4303 142.0615 0.0000 0.0000 0.0000
# 4 0.0000 0.0000 0.0000 17.1356 0.0000 0.0000
# 5 0.0000 0.0000 0.0000 0.0000 9.2512 0.0000
# 6 0.0000 0.0000 0.0000 0.0000 0.0000 -7.5157
#
#
#
# Elastic Compliance Matrix: (Units=1/GPa)
#
#
# Indices 1 2 3 4 5 6 
#
# 1 0.016492 -0.003262 -0.007552 0.000000 0.000000 0.000000
# 2 -0.003262 0.011385 -0.002092 0.000000 0.000000 0.000000
# 3 -0.007552 -0.002092 0.011694 0.000000 0.000000 0.000000
# 4 0.000000 0.000000 0.000000 0.058358 0.000000 0.000000
# 5 0.000000 0.000000 0.000000 0.000000 0.108094 0.000000
# 6 0.000000 0.000000 0.000000 0.000000 0.000000 -0.133056
#
#
# Mechanical properties :
#
#
# Convention : Reuss Voigt Hill
#
# Bulk Modulus (GPa) = 72.67429 76.05968 74.36699
# Shear Modulus (GPa) = 48.37155 16.38439 32.37797
#
# Velocity S-wave (km/s) = 5.11073 2.97443 4.18131
# Velocity P-wave (km/s) = 8.60631 7.27096 7.96666
#
# Compressibility (1/GPa) = 0.01376002
#
# Stress axis : x y z
#
# Youngs Moduli (GPa) = 60.63569 87.83174 85.51111
#
# Poissons Ratio (x) = 0.28650 0.64576
# Poissons Ratio (y) = 0.19779 0.17891
# Poissons Ratio (z) = 0.45790 0.18376
#
# Static dielectric constant tensor:
#      x y z
#    x 1.616520 0.000000 0.000000 
#    y 0.000000 1.630600 0.000000 
#    z 0.000000 0.000000 1.630270 
# 
# From -- ./inp_files/63366.got.cif
#   From: 2010.05.17/outbox.cif.g08.bks.cpg/sg65_32_cif.got.tgz:63366.got - 2010.06.03 17:01:31.
