data_PCOD9492506
_publ_section_title
;
Structure prediction by ZEFSAII (Michael W. Deem and Ramdas Pophale) SiO2 
 PCOD9492506
Probable space group: C M M M
;
_chemical_formula_sum "Si O2"
_cell_formula_units_Z 72
_cell_length_a 19.125055
_cell_length_b 8.857340
_cell_length_c 23.386591
_cell_angle_alpha 90.000000
_cell_angle_beta 90.000000
_cell_angle_gamma 90.000000
_cell_volume 3961.621037
_symmetry_space_group_name_H-M "C M M M"
_symmetry_group_IT_number 65
_symmetry_cell_setting 'orthorhombic'
loop_
_space_group_symop_operation_xyz
x,y,z
-x,-y,z
x,-y,-z
-x,y,-z
-x,-y,-z
x,y,-z
-x,y,z
x,-y,z
1/2+x,1/2+y,z
1/2-x,1/2-y,z
1/2+x,1/2-y,-z
1/2-x,1/2+y,-z
1/2-x,1/2-y,-z
1/2+x,1/2+y,-z
1/2-x,1/2+y,z
1/2+x,1/2-y,z
loop_
_atom_site_type_symbol
_atom_site_label
_atom_site_fract_x
_atom_site_fract_y
_atom_site_fract_z
Si Si1 0.917688 0.179961 0.898858
Si Si2 0.672765 0.819962 0.000000
Si Si3 0.918456 0.818476 0.434078
Si Si4 0.418546 0.180766 0.224083
Si Si5 0.673090 0.819107 0.666192
O O1 0.869768 0.262415 0.944821
O O2 0.901234 0.235235 0.834791
O O3 0.000000 0.214173 0.909272
O O4 0.908626 0.000000 0.903570
O O5 0.750000 0.750000 0.000000
O O6 0.677018 0.000000 0.000000
O O7 0.902125 0.778644 0.500000
O O8 0.869089 0.739051 0.388758
O O9 0.000000 0.780100 0.423639
O O10 0.911955 0.000000 0.428916
O O11 0.500000 0.212470 0.237917
O O12 0.369717 0.225165 0.276774
O O13 0.412260 0.000000 0.215204
O O14 0.750000 0.750000 0.667205
O O15 0.677047 0.000000 0.664745
#
# Coordination Sequence:
#
# PCOD9492506 Si02
#       5
#    16   8  16  16  16
#     4  10  21  38  61  88 116 147 186 230 275 328
#     4  12  25  40  59  83 115 153 189 230 281 332
#     4   9  19  37  60  84 110 142 182 229 280 334
#     4   9  19  37  59  82 109 144 188 234 279 328
#     4  11  23  37  55  81 114 151 188 229 277 330
#
# _framework density 18.174378000000001
#
# number of rings (size 3 to 8) (size 9 to 14) (size 15 to 20)
#    0.000    2.000    0.000    4.000    0.000    7.556 
#    0.000    5.556    0.000    0.000    0.000    0.000 
#    0.000    0.000    0.000    0.000    0.000    0.000 
#
# Total GULP energy -201143.982991 kJ/mol
# GULP energy per Si atom -5587.332861 kJ/mol
# Density = 1.813301 g / cm^3
# Si number density = 18.174378 Si / 1000 Ang^3
#
#
#
# Elastic Constant Matrix: (Units=GPa)
#
#
# Indices 1 2 3 4 5 6 
#
# 1 142.4631 79.9500 133.7285 0.0000 0.0000 0.0000
# 2 79.9500 76.5557 82.9006 0.0000 0.0000 0.0000
# 3 133.7285 82.9006 171.1926 0.0000 0.0000 0.0000
# 4 0.0000 0.0000 0.0000 31.1612 0.0000 0.0000
# 5 0.0000 0.0000 0.0000 0.0000 -18.1003 0.0000
# 6 0.0000 0.0000 0.0000 0.0000 0.0000 22.2560
#
#
#
# Elastic Compliance Matrix: (Units=1/GPa)
#
#
# Indices 1 2 3 4 5 6 
#
# 1 0.031584 -0.013178 -0.018291 0.000000 0.000000 0.000000
# 2 -0.013178 0.032962 -0.005668 0.000000 0.000000 0.000000
# 3 -0.018291 -0.005668 0.022874 0.000000 0.000000 0.000000
# 4 0.000000 0.000000 0.000000 0.032091 0.000000 0.000000
# 5 0.000000 0.000000 0.000000 0.000000 -0.055248 0.000000
# 6 0.000000 0.000000 0.000000 0.000000 0.000000 0.044932
#
#
# Mechanical properties :
#
#
# Convention : Reuss Voigt Hill
#
# Bulk Modulus (GPa) = 76.06195 109.26327 92.66261
# Shear Modulus (GPa) = 26.61677 13.30553 19.96115
#
# Velocity S-wave (km/s) = 3.83106 2.70868 3.31768
# Velocity P-wave (km/s) = 7.84292 8.36854 8.10999
#
# Compressibility (1/GPa) = 0.01314718
#
# Stress axis : x y z
#
# Youngs Moduli (GPa) = 31.66174 30.33757 43.71733
#
# Poissons Ratio (x) = 0.39978 0.79962
# Poissons Ratio (y) = 0.41723 0.24781
# Poissons Ratio (z) = 0.57912 0.17196
#
# Static dielectric constant tensor:
#      x y z
#    x 1.597480 0.000000 0.000000 
#    y 0.000000 1.605530 0.000000 
#    z 0.000000 0.000000 1.596580 
# 
# From -- ./inp_files/70366.got.cif
#   From: 2010.05.17/outbox.cif.g08.bks.cpg/sg65_36_cif.got.tgz:70366.got - 2010.06.03 17:01:31.
