data_PCOD9492699
_publ_section_title
;
Structure prediction by ZEFSAII (Michael W. Deem and Ramdas Pophale) SiO2 
 PCOD9492699
Probable space group: C M M M
;
_chemical_formula_sum "Si O2"
_cell_formula_units_Z 66
_cell_length_a 26.782910
_cell_length_b 15.819409
_cell_length_c 7.185245
_cell_angle_alpha 90.000000
_cell_angle_beta 90.000000
_cell_angle_gamma 90.000000
_cell_volume 3044.315071
_symmetry_space_group_name_H-M "C M M M"
_symmetry_group_IT_number 65
_symmetry_cell_setting 'orthorhombic'
loop_
_space_group_symop_operation_xyz
x,y,z
-x,-y,z
x,-y,-z
-x,y,-z
-x,-y,-z
x,y,-z
-x,y,z
x,-y,z
1/2+x,1/2+y,z
1/2-x,1/2-y,z
1/2+x,1/2-y,-z
1/2-x,1/2+y,-z
1/2-x,1/2-y,-z
1/2+x,1/2+y,-z
1/2-x,1/2+y,z
1/2+x,1/2-y,z
loop_
_atom_site_type_symbol
_atom_site_label
_atom_site_fract_x
_atom_site_fract_y
_atom_site_fract_z
Si Si1 0.000000 0.000000 0.000000
Si Si2 0.132043 0.647363 0.726362
Si Si3 0.406000 0.500000 0.724820
Si Si4 0.442367 0.000000 0.273294
Si Si5 0.256685 0.096307 0.274109
Si Si6 0.154668 0.168543 0.725229
O O1 0.043466 0.000000 0.838028
O O2 0.131363 0.645211 0.500000
O O3 0.089066 0.582659 0.785391
O O4 0.187228 0.617150 0.784633
O O5 0.128628 0.744821 0.785430
O O6 0.413114 0.500000 0.500000
O O7 0.374915 0.415889 0.773558
O O8 0.500000 0.000000 0.214056
O O9 0.442707 0.000000 0.500000
O O10 0.257410 0.099431 0.500000
O O11 0.212174 0.157836 0.214009
O O12 0.244178 0.000000 0.222385
O O13 0.156126 0.171933 0.500000
#
# Coordination Sequence:
#
# PCOD9492699 Si02
#       6
#     2  16   8   8  16  16
#     4  12  26  44  64  82 108 154 190 236 302 338
#     4   9  15  23  37  62  99 144 188 229 279 334
#     4  10  21  40  61  84 115 146 189 239 283 343
#     4   9  16  25  33  48  85 138 188 231 278 331
#     4   9  13  20  37  63 102 144 180 225 280 337
#     4   9  16  27  46  73 105 140 177 228 286 339
#
# _framework density 21.679753999999999
#
# number of rings (size 3 to 8) (size 9 to 14) (size 15 to 20)
#    0.000    2.788    2.424    0.909    0.000    2.909 
#    2.182    0.000    0.000    0.000    0.000    3.394 
#    0.000    1.939    0.000    0.242    0.000    0.970 
#
# Total GULP energy -184070.631052 kJ/mol
# GULP energy per Si atom -5577.897911 kJ/mol
# Density = 2.163041 g / cm^3
# Si number density = 21.679754 Si / 1000 Ang^3
#
#
#
# Elastic Constant Matrix: (Units=GPa)
#
#
# Indices 1 2 3 4 5 6 
#
# 1 213.3638 118.3666 20.7821 0.0000 0.0000 0.0000
# 2 118.3666 203.4950 9.2891 0.0000 0.0000 0.0000
# 3 20.7821 9.2891 115.0317 0.0000 0.0000 0.0000
# 4 0.0000 0.0000 0.0000 -27.1116 0.0000 0.0000
# 5 0.0000 0.0000 0.0000 0.0000 -238.8324 0.0000
# 6 0.0000 0.0000 0.0000 0.0000 0.0000 16.7519
#
#
#
# Elastic Compliance Matrix: (Units=1/GPa)
#
#
# Indices 1 2 3 4 5 6 
#
# 1 0.007020 -0.004040 -0.000942 0.000000 0.000000 0.000000
# 2 -0.004040 0.007258 0.000144 0.000000 0.000000 0.000000
# 3 -0.000942 0.000144 0.008852 0.000000 0.000000 0.000000
# 4 0.000000 0.000000 0.000000 -0.036885 0.000000 0.000000
# 5 0.000000 0.000000 0.000000 0.000000 -0.004187 0.000000
# 6 0.000000 0.000000 0.000000 0.000000 0.000000 0.059695
#
#
# Mechanical properties :
#
#
# Convention : Reuss Voigt Hill
#
# Bulk Modulus (GPa) = 74.33501 92.08514 83.21008
# Shear Modulus (GPa) = 89.42363 -24.27490 32.57436
#
# Velocity S-wave (km/s) = 6.42939 -3.34983 3.88045
# Velocity P-wave (km/s) = 9.45930 5.25410 7.65127
#
# Compressibility (1/GPa) = 0.01345261
#
# Stress axis : x y z
#
# Youngs Moduli (GPa) = 142.45001 137.78507 112.97104
#
# Poissons Ratio (x) = 0.55670 0.10642
# Poissons Ratio (y) = 0.57554 -0.01625
# Poissons Ratio (z) = 0.13419 -0.01982
#
# Static dielectric constant tensor:
#      x y z
#    x 1.718480 0.000000 0.000000 
#    y 0.000000 1.779400 0.000000 
#    z 0.000000 0.000000 1.819070 
# 
# From -- ./inp_files/15695.got.cif
#   From: 2010.05.17/outbox.cif.g08.bks.cpg/sg65_8_cif.got.tgz:15695.got - 2010.06.03 17:01:31.
