data_PCOD9492259
_publ_section_title
;
Structure prediction by ZEFSAII (Michael W. Deem and Ramdas Pophale) SiO2 
 PCOD9492259
Probable space group: C M M M
;
_chemical_formula_sum "Si O2"
_cell_formula_units_Z 72
_cell_length_a 14.103970
_cell_length_b 24.539620
_cell_length_c 10.096616
_cell_angle_alpha 90.000000
_cell_angle_beta 90.000000
_cell_angle_gamma 90.000000
_cell_volume 3494.500026
_symmetry_space_group_name_H-M "C M M M"
_symmetry_group_IT_number 65
_symmetry_cell_setting 'orthorhombic'
loop_
_space_group_symop_operation_xyz
x,y,z
-x,-y,z
x,-y,-z
-x,y,-z
-x,-y,-z
x,y,-z
-x,y,z
x,-y,z
1/2+x,1/2+y,z
1/2-x,1/2-y,z
1/2+x,1/2-y,-z
1/2-x,1/2+y,-z
1/2-x,1/2-y,-z
1/2+x,1/2+y,-z
1/2-x,1/2+y,z
1/2+x,1/2-y,z
loop_
_atom_site_type_symbol
_atom_site_label
_atom_site_fract_x
_atom_site_fract_y
_atom_site_fract_z
Si Si1 0.893703 0.143793 0.260378
Si Si2 0.138748 0.261932 0.356596
Si Si3 0.812065 0.648447 0.847142
Si Si4 0.113198 0.564449 0.645409
Si Si5 0.885673 0.062454 0.500000
O O1 0.902823 0.202645 0.329797
O O2 0.802890 0.151773 0.165399
O O3 0.864631 0.098264 0.369351
O O4 0.000000 0.130217 0.207491
O O5 0.107194 0.283766 0.500000
O O6 0.250000 0.250000 0.366181
O O7 0.134268 0.304020 0.235724
O O8 0.841132 0.594649 0.768051
O O9 0.838955 0.649245 0.000000
O O10 0.148890 0.583444 0.500000
O O11 0.129112 0.500000 0.652764
O O12 0.000000 0.573345 0.648158
O O13 0.000000 0.058605 0.500000
O O14 0.848608 0.000000 0.500000
#
# Coordination Sequence:
#
# PCOD9492259 Si02
#       5
#    16  16  16  16   8
#     4  10  21  37  59  87 121 162 208 254 300 355
#     4   9  18  34  57  81 111 152 202 254 299 347
#     4  11  24  38  57  90 129 166 203 245 303 371
#     4   9  20  41  67  91 115 150 201 258 312 365
#     4   9  18  34  57  86 115 147 197 256 306 352
#
# _framework density 20.603805999999999
#
# number of rings (size 3 to 8) (size 9 to 14) (size 15 to 20)
#    0.000    2.333    1.111    1.333    3.111    7.111 
#    0.000    1.111    0.000    0.000    0.000    4.667 
#    0.000    0.000    0.000    0.000    0.000    0.000 
#
# Total GULP energy -200746.353582 kJ/mol
# GULP energy per Si atom -5576.287600 kJ/mol
# Density = 2.055691 g / cm^3
# Si number density = 20.603806 Si / 1000 Ang^3
#
#
#
# Elastic Constant Matrix: (Units=GPa)
#
#
# Indices 1 2 3 4 5 6 
#
# 1 69.1545 32.3400 28.6452 0.0000 0.0000 0.0000
# 2 32.3400 95.5438 62.8913 0.0000 0.0000 0.0000
# 3 28.6452 62.8913 181.2682 0.0000 0.0000 0.0000
# 4 0.0000 0.0000 0.0000 -17.2980 0.0000 0.0000
# 5 0.0000 0.0000 0.0000 0.0000 -207.6257 0.0000
# 6 0.0000 0.0000 0.0000 0.0000 0.0000 28.2238
#
#
#
# Elastic Compliance Matrix: (Units=1/GPa)
#
#
# Indices 1 2 3 4 5 6 
#
# 1 0.017295 -0.005255 -0.000910 0.000000 0.000000 0.000000
# 2 -0.005255 0.015161 -0.004430 0.000000 0.000000 0.000000
# 3 -0.000910 -0.004430 0.007197 0.000000 0.000000 0.000000
# 4 0.000000 0.000000 0.000000 -0.057810 0.000000 0.000000
# 5 0.000000 0.000000 0.000000 0.000000 -0.004816 0.000000
# 6 0.000000 0.000000 0.000000 0.000000 0.000000 0.035431
#
#
# Mechanical properties :
#
#
# Convention : Reuss Voigt Hill
#
# Bulk Modulus (GPa) = 54.15959 65.96882 60.06420
# Shear Modulus (GPa) = 125.62294 -24.53398 50.54448
#
# Velocity S-wave (km/s) = 7.81685 -3.45447 4.95831
# Velocity P-wave (km/s) = 10.38336 4.02196 7.87370
#
# Compressibility (1/GPa) = 0.01846395
#
# Stress axis : x y z
#
# Youngs Moduli (GPa) = 57.82093 65.95875 138.94027
#
# Poissons Ratio (x) = 0.34662 0.12640
# Poissons Ratio (y) = 0.30386 0.61546
# Poissons Ratio (z) = 0.05260 0.29218
#
# Static dielectric constant tensor:
#      x y z
#    x 1.895820 0.000000 0.000000 
#    y 0.000000 1.737930 0.000000 
#    z 0.000000 0.000000 1.664670 
# 
# From -- ./inp_files/9262.got.cif
#   From: 2010.05.17/outbox.cif.g08.bks.cpg/sg65_5_cif.got.tgz:9262.got - 2010.06.03 17:01:31.
