data_PCOD9492002
_publ_section_title
;
Structure prediction by ZEFSAII (Michael W. Deem and Ramdas Pophale) SiO2 
 PCOD9492002
Probable space group: C M M M
;
_chemical_formula_sum "Si O2"
_cell_formula_units_Z 88
_cell_length_a 21.128368
_cell_length_b 7.894484
_cell_length_c 24.581845
_cell_angle_alpha 90.000000
_cell_angle_beta 90.000000
_cell_angle_gamma 90.000000
_cell_volume 4100.191843
_symmetry_space_group_name_H-M "C M M M"
_symmetry_group_IT_number 65
_symmetry_cell_setting 'orthorhombic'
loop_
_space_group_symop_operation_xyz
x,y,z
-x,-y,z
x,-y,-z
-x,y,-z
-x,-y,-z
x,y,-z
-x,y,z
x,-y,z
1/2+x,1/2+y,z
1/2-x,1/2-y,z
1/2+x,1/2-y,-z
1/2-x,1/2+y,-z
1/2-x,1/2-y,-z
1/2+x,1/2+y,-z
1/2-x,1/2+y,z
1/2+x,1/2-y,z
loop_
_atom_site_type_symbol
_atom_site_label
_atom_site_fract_x
_atom_site_fract_y
_atom_site_fract_z
Si Si1 0.571050 0.300837 0.769007
Si Si2 0.500000 0.207354 0.439509
Si Si3 0.177887 0.797852 0.558760
Si Si4 0.901154 0.303896 0.648743
Si Si5 0.070824 0.295421 0.063675
Si Si6 0.824081 0.801320 0.850761
O O1 0.500000 0.228486 0.778928
O O2 0.567234 0.500000 0.782785
O O3 0.586440 0.286056 0.705164
O O4 0.630141 0.226049 0.803093
O O5 0.500000 0.274169 0.500000
O O6 0.442471 0.262454 0.401834
O O7 0.500000 0.000000 0.441995
O O8 0.146992 0.738654 0.500000
O O9 0.250000 0.750000 0.551717
O O10 0.163985 0.715227 0.617685
O O11 0.169162 0.000000 0.562060
O O12 0.916981 0.500000 0.658479
O O13 0.071447 0.500000 0.067255
O O14 0.131433 0.230182 0.096595
O O15 0.000000 0.238988 0.083071
O O16 0.075408 0.249651 0.000000
O O17 0.750000 0.750000 0.854647
O O18 0.820127 0.000000 0.840760
#
# Coordination Sequence:
#
# PCOD9492002 Si02
#       6
#    16   8  16  16  16  16
#     4  10  22  41  62  83 115 156 202 257 309 363
#     4   9  18  32  51  79 113 143 176 223 278 339
#     4  10  21  37  56  79 108 144 184 227 281 346
#     4  11  21  35  57  84 112 145 185 232 288 349
#     4   9  19  38  65  97 132 169 209 255 307 364
#     4  11  24  41  62  90 124 166 212 260 314 365
#
# _framework density 21.462409000000001
#
# number of rings (size 3 to 8) (size 9 to 14) (size 15 to 20)
#    0.000    1.909    0.909    3.273    0.000    5.818 
#    0.000    2.727    0.000    2.182    0.000    0.000 
#    0.000    0.000    0.000    0.000    0.000    0.000 
#
# Total GULP energy -244981.719150 kJ/mol
# GULP energy per Si atom -5567.766344 kJ/mol
# Density = 2.141356 g / cm^3
# Si number density = 21.462409 Si / 1000 Ang^3
#
#
#
# Elastic Constant Matrix: (Units=GPa)
#
#
# Indices 1 2 3 4 5 6 
#
# 1 179.7064 10.0933 76.9713 0.0000 0.0000 0.0000
# 2 10.0933 35.6137 -4.3863 0.0000 0.0000 0.0000
# 3 76.9713 -4.3863 120.4423 0.0000 0.0000 0.0000
# 4 0.0000 0.0000 0.0000 19.0790 0.0000 0.0000
# 5 0.0000 0.0000 0.0000 0.0000 33.6668 0.0000
# 6 0.0000 0.0000 0.0000 0.0000 0.0000 -600.2701
#
#
#
# Elastic Compliance Matrix: (Units=1/GPa)
#
#
# Indices 1 2 3 4 5 6 
#
# 1 0.007948 -0.002891 -0.005184 0.000000 0.000000 0.000000
# 2 -0.002891 0.029257 0.002913 0.000000 0.000000 0.000000
# 3 -0.005184 0.002913 0.011722 0.000000 0.000000 0.000000
# 4 0.000000 0.000000 0.000000 0.052414 0.000000 0.000000
# 5 0.000000 0.000000 0.000000 0.000000 0.029703 0.000000
# 6 0.000000 0.000000 0.000000 0.000000 0.000000 -0.001666
#
#
# Mechanical properties :
#
#
# Convention : Reuss Voigt Hill
#
# Bulk Modulus (GPa) = 25.90526 55.67989 40.79258
# Shear Modulus (GPa) = 32.77199 -92.63260 -29.93030
#
# Velocity S-wave (km/s) = 3.91186 -6.57678 -3.73841
# Velocity P-wave (km/s) = 5.70086 5.62786 0.64302
#
# Compressibility (1/GPa) = 0.03860219
#
# Stress axis : x y z
#
# Youngs Moduli (GPa) = 125.82503 34.17963 85.30981
#
# Poissons Ratio (x) = 0.09881 0.44227
# Poissons Ratio (y) = 0.36375 -0.24851
# Poissons Ratio (z) = 0.65232 -0.09957
#
# Static dielectric constant tensor:
#      x y z
#    x 1.422800 0.000000 0.000000 
#    y 0.000000 1.811120 0.000000 
#    z 0.000000 0.000000 1.776320 
# 
# From -- ./inp_files/70960.got.cif
#   From: 2010.05.17/outbox.cif.g08.bks.cpg/sg65_36_cif.got.tgz:70960.got - 2010.06.03 17:01:31.
