data_PCOD9492109
_publ_section_title
;
Structure prediction by ZEFSAII (Michael W. Deem and Ramdas Pophale) SiO2 
 PCOD9492109
Probable space group: C M M M
;
_chemical_formula_sum "Si O2"
_cell_formula_units_Z 88
_cell_length_a 9.126773
_cell_length_b 30.911441
_cell_length_c 17.301087
_cell_angle_alpha 90.000000
_cell_angle_beta 90.000000
_cell_angle_gamma 90.000000
_cell_volume 4881.012165
_symmetry_space_group_name_H-M "C M M M"
_symmetry_group_IT_number 65
_symmetry_cell_setting 'orthorhombic'
loop_
_space_group_symop_operation_xyz
x,y,z
-x,-y,z
x,-y,-z
-x,y,-z
-x,-y,-z
x,y,-z
-x,y,z
x,-y,z
1/2+x,1/2+y,z
1/2-x,1/2-y,z
1/2+x,1/2-y,-z
1/2-x,1/2+y,-z
1/2-x,1/2-y,-z
1/2+x,1/2+y,-z
1/2-x,1/2+y,z
1/2+x,1/2-y,z
loop_
_atom_site_type_symbol
_atom_site_label
_atom_site_fract_x
_atom_site_fract_y
_atom_site_fract_z
Si Si1 0.823622 0.680549 0.586548
Si Si2 0.826381 0.951001 0.907315
Si Si3 0.824089 0.794147 0.746297
Si Si4 0.163374 0.000000 0.592547
Si Si5 0.333872 0.085483 0.633568
Si Si6 0.669459 0.878690 0.192822
O O1 0.792282 0.696921 0.500000
O O2 0.734077 0.700159 0.657769
O O3 0.789799 0.629233 0.589516
O O4 0.000000 0.685095 0.601073
O O5 0.738394 0.912881 0.866259
O O6 0.000000 0.946711 0.890264
O O7 0.781175 0.000000 0.883471
O O8 0.809395 0.948450 0.000000
O O9 0.750000 0.750000 0.775394
O O10 0.763029 0.835084 0.794437
O O11 0.000000 0.792328 0.747572
O O12 0.239768 0.956315 0.618814
O O13 0.161735 0.000000 0.500000
O O14 0.000000 0.000000 0.623715
O O15 0.500000 0.075539 0.610410
O O16 0.330320 0.098386 0.723377
O O17 0.500000 0.868412 0.173900
#
# Coordination Sequence:
#
# PCOD9492109 Si02
#       6
#    16  16  16   8  16  16
#     4   9  18  34  54  75 101 134 176 228 282 334
#     4   9  19  36  58  87 122 155 185 219 264 318
#     4  11  22  37  57  80 108 142 183 229 281 334
#     4  11  23  33  43  65  96 131 176 227 271 316
#     4   9  19  34  50  69  96 134 177 220 268 320
#     4  10  21  37  57  82 111 143 184 227 271 324
#
# _framework density 18.029048
#
# number of rings (size 3 to 8) (size 9 to 14) (size 15 to 20)
#    0.000    2.273    0.000    4.636    1.273    6.545 
#    0.000    0.909    0.000    0.545    0.000    0.000 
#    0.000    0.000    0.000    0.000    0.000    0.000 
#
# Total GULP energy -245520.295625 kJ/mol
# GULP energy per Si atom -5580.006719 kJ/mol
# Density = 1.798801 g / cm^3
# Si number density = 18.029048 Si / 1000 Ang^3
#
#
#
# Elastic Constant Matrix: (Units=GPa)
#
#
# Indices 1 2 3 4 5 6 
#
# 1 109.0875 88.3045 28.5271 0.0000 0.0000 0.0000
# 2 88.3045 144.3518 33.7499 0.0000 0.0000 0.0000
# 3 28.5271 33.7499 42.1253 0.0000 0.0000 0.0000
# 4 0.0000 0.0000 0.0000 0.4713 0.0000 0.0000
# 5 0.0000 0.0000 0.0000 0.0000 25.5034 0.0000
# 6 0.0000 0.0000 0.0000 0.0000 0.0000 31.3770
#
#
#
# Elastic Compliance Matrix: (Units=1/GPa)
#
#
# Indices 1 2 3 4 5 6 
#
# 1 0.018778 -0.010476 -0.004323 0.000000 0.000000 0.000000
# 2 -0.010476 0.014369 -0.004418 0.000000 0.000000 0.000000
# 3 -0.004323 -0.004418 0.030205 0.000000 0.000000 0.000000
# 4 0.000000 0.000000 0.000000 2.121840 0.000000 0.000000
# 5 0.000000 0.000000 0.000000 0.000000 0.039211 0.000000
# 6 0.000000 0.000000 0.000000 0.000000 0.000000 0.031871
#
#
# Mechanical properties :
#
#
# Convention : Reuss Voigt Hill
#
# Bulk Modulus (GPa) = 40.13061 66.30309 53.21685
# Shear Modulus (GPa) = 2.17107 21.13587 11.65347
#
# Velocity S-wave (km/s) = 1.09855 3.42763 2.54514
# Velocity P-wave (km/s) = 4.89043 7.24710 6.18210
#
# Compressibility (1/GPa) = 0.02491863
#
# Stress axis : x y z
#
# Youngs Moduli (GPa) = 53.25448 69.59411 33.10658
#
# Poissons Ratio (x) = 0.72908 0.14312
# Poissons Ratio (y) = 0.55791 0.14625
# Poissons Ratio (z) = 0.23021 0.30744
#
# Static dielectric constant tensor:
#      x y z
#    x 1.616270 0.000000 0.000000 
#    y 0.000000 1.632590 0.000000 
#    z 0.000000 0.000000 1.608690 
# 
# From -- ./inp_files/50310.got.cif
#   From: 2010.05.17/outbox.cif.g08.bks.cpg/sg65_26_cif.got.tgz:50310.got - 2010.06.03 17:01:31.
