data_PCOD9492597
_publ_section_title
;
Structure prediction by ZEFSAII (Michael W. Deem and Ramdas Pophale) SiO2 
 PCOD9492597
Probable space group: C M M M
;
_chemical_formula_sum "Si O2"
_cell_formula_units_Z 72
_cell_length_a 10.320379
_cell_length_b 21.598420
_cell_length_c 17.957554
_cell_angle_alpha 90.000000
_cell_angle_beta 90.000000
_cell_angle_gamma 90.000000
_cell_volume 4002.808466
_symmetry_space_group_name_H-M "C M M M"
_symmetry_group_IT_number 65
_symmetry_cell_setting 'orthorhombic'
loop_
_space_group_symop_operation_xyz
x,y,z
-x,-y,z
x,-y,-z
-x,y,-z
-x,-y,-z
x,y,-z
-x,y,z
x,-y,z
1/2+x,1/2+y,z
1/2-x,1/2-y,z
1/2+x,1/2-y,-z
1/2-x,1/2+y,-z
1/2-x,1/2-y,-z
1/2+x,1/2+y,-z
1/2-x,1/2+y,z
1/2+x,1/2-y,z
loop_
_atom_site_type_symbol
_atom_site_label
_atom_site_fract_x
_atom_site_fract_y
_atom_site_fract_z
Si Si1 0.000000 0.826530 0.915385
Si Si2 0.000000 0.319862 0.086708
Si Si3 0.844464 0.926895 0.315749
Si Si4 0.146958 0.500000 0.087414
Si Si5 0.747511 0.120405 0.840538
Si Si6 0.849470 0.195292 0.410387
O O1 0.000000 0.753085 0.921140
O O2 0.874955 0.846806 0.870076
O O3 0.000000 0.852001 0.000000
O O4 0.876050 0.339722 0.134807
O O5 0.000000 0.345724 0.000000
O O6 0.767413 0.901307 0.244118
O O7 0.821564 0.873529 0.377893
O O8 0.000000 0.926255 0.300391
O O9 0.812288 0.000000 0.331731
O O10 0.225088 0.441497 0.113610
O O11 0.000000 0.500000 0.119393
O O12 0.135413 0.500000 0.000000
O O13 0.841903 0.192379 0.500000
O O14 0.750000 0.250000 0.385619
O O15 0.000000 0.210323 0.390243
#
# Coordination Sequence:
#
# PCOD9492597 Si02
#       6
#     8   8  16   8  16  16
#     4  11  24  39  57  83 112 148 198 249 303 362
#     4  11  24  41  59  81 114 154 200 253 303 364
#     4  10  21  39  59  87 125 156 195 249 295 347
#     4  11  22  37  59  83 110 149 200 252 299 353
#     4  12  22  39  59  82 115 153 195 247 301 353
#     4   9  19  38  65  94 123 157 196 236 286 351
#
# _framework density 17.987371
#
# number of rings (size 3 to 8) (size 9 to 14) (size 15 to 20)
#    0.000    1.444    3.333    2.667    0.000    4.444 
#    2.000    3.333    0.000    0.000    0.000    3.111 
#    0.000    0.000    0.000    0.000    0.000    0.000 
#
# Total GULP energy -200639.077222 kJ/mol
# GULP energy per Si atom -5573.307701 kJ/mol
# Density = 1.794643 g / cm^3
# Si number density = 17.987371 Si / 1000 Ang^3
#
#
#
# Elastic Constant Matrix: (Units=GPa)
#
#
# Indices 1 2 3 4 5 6 
#
# 1 120.9110 65.5598 35.1542 0.0000 0.0000 0.0000
# 2 65.5598 139.6339 44.7852 0.0000 0.0000 0.0000
# 3 35.1542 44.7852 53.6807 0.0000 0.0000 0.0000
# 4 0.0000 0.0000 0.0000 43.7806 0.0000 0.0000
# 5 0.0000 0.0000 0.0000 0.0000 1.4179 0.0000
# 6 0.0000 0.0000 0.0000 0.0000 0.0000 29.5104
#
#
#
# Elastic Compliance Matrix: (Units=1/GPa)
#
#
# Indices 1 2 3 4 5 6 
#
# 1 0.011757 -0.004165 -0.004225 0.000000 0.000000 0.000000
# 2 -0.004165 0.011254 -0.006661 0.000000 0.000000 0.000000
# 3 -0.004225 -0.006661 0.026952 0.000000 0.000000 0.000000
# 4 0.000000 0.000000 0.000000 0.022841 0.000000 0.000000
# 5 0.000000 0.000000 0.000000 0.000000 0.705279 0.000000
# 6 0.000000 0.000000 0.000000 0.000000 0.000000 0.033886
#
#
# Mechanical properties :
#
#
# Convention : Reuss Voigt Hill
#
# Bulk Modulus (GPa) = 50.34817 67.24712 58.79765
# Shear Modulus (GPa) = 5.89142 26.19022 16.04082
#
# Velocity S-wave (km/s) = 1.81174 3.81994 2.98951
# Velocity P-wave (km/s) = 5.69457 7.54472 6.68397
#
# Compressibility (1/GPa) = 0.01986169
#
# Stress axis : x y z
#
# Youngs Moduli (GPa) = 85.05386 88.86025 37.10232
#
# Poissons Ratio (x) = 0.37012 0.15674
# Poissons Ratio (y) = 0.35427 0.24714
# Poissons Ratio (z) = 0.35931 0.59190
#
# Static dielectric constant tensor:
#      x y z
#    x 1.752980 0.000000 0.000000 
#    y 0.000000 1.624400 0.000000 
#    z 0.000000 0.000000 1.613610 
# 
# From -- ./inp_files/59353.got.cif
#   From: 2010.05.17/outbox.cif.g08.bks.cpg/sg65_30_cif.got.tgz:59353.got - 2010.06.03 17:01:31.
