data_PCOD9492847
_publ_section_title
;
Structure prediction by ZEFSAII (Michael W. Deem and Ramdas Pophale) SiO2 
 PCOD9492847
Probable space group: C M M M
;
_chemical_formula_sum "Si O2"
_cell_formula_units_Z 88
_cell_length_a 32.262314
_cell_length_b 7.515510
_cell_length_c 17.684914
_cell_angle_alpha 90.000000
_cell_angle_beta 90.000000
_cell_angle_gamma 90.000000
_cell_volume 4288.021191
_symmetry_space_group_name_H-M "C M M M"
_symmetry_group_IT_number 65
_symmetry_cell_setting 'orthorhombic'
loop_
_space_group_symop_operation_xyz
x,y,z
-x,-y,z
x,-y,-z
-x,y,-z
-x,-y,-z
x,y,-z
-x,y,z
x,-y,z
1/2+x,1/2+y,z
1/2-x,1/2-y,z
1/2+x,1/2-y,-z
1/2-x,1/2+y,-z
1/2-x,1/2-y,-z
1/2+x,1/2+y,-z
1/2-x,1/2+y,z
1/2+x,1/2-y,z
loop_
_atom_site_type_symbol
_atom_site_label
_atom_site_fract_x
_atom_site_fract_y
_atom_site_fract_z
Si Si1 0.702664 0.786552 0.585633
Si Si2 0.455749 0.215708 0.709841
Si Si3 0.135655 0.213580 0.121062
Si Si4 0.134193 0.713714 0.700869
Si Si5 0.701150 0.713310 0.000000
Si Si6 0.455089 0.708760 0.888533
O O1 0.696309 0.718487 0.500000
O O2 0.750000 0.750000 0.607689
O O3 0.670064 0.716619 0.646585
O O4 0.698109 0.000000 0.582561
O O5 0.500000 0.273630 0.676440
O O6 0.411857 0.277256 0.677562
O O7 0.455475 0.275202 0.797327
O O8 0.455442 0.000000 0.709664
O O9 0.140392 0.248743 0.210257
O O10 0.090560 0.282165 0.092160
O O11 0.133520 0.000000 0.112634
O O12 0.174712 0.278060 0.072473
O O13 0.134069 0.500000 0.694244
O O14 0.750000 0.750000 0.000000
O O15 0.698343 0.500000 0.000000
O O16 0.500000 0.783642 0.913549
O O17 0.455371 0.500000 0.909050
#
# Coordination Sequence:
#
# PCOD9492847 Si02
#       6
#    16  16  16  16   8  16
#     4   9  18  32  48  66  90 118 146 180 224 270
#     4   8  13  22  38  61  88 116 144 173 207 250
#     4   9  18  32  48  67  91 117 148 185 221 260
#     4   9  17  29  47  70  92 116 148 183 218 259
#     4  10  22  38  51  63  85 119 154 188 227 266
#     4   8  13  23  41  64  88 112 138 171 214 261
#
# _framework density 20.522286000000001
#
# number of rings (size 3 to 8) (size 9 to 14) (size 15 to 20)
#    0.000    3.273    0.000    0.000    0.000    2.182 
#    0.000    4.091    0.000    3.273    0.000    3.818 
#    0.000   15.273    0.000   34.000    0.000   18.545 
#
# Total GULP energy -245041.102036 kJ/mol
# GULP energy per Si atom -5569.115955 kJ/mol
# Density = 2.047558 g / cm^3
# Si number density = 20.522286 Si / 1000 Ang^3
#
#
#
# Elastic Constant Matrix: (Units=GPa)
#
#
# Indices 1 2 3 4 5 6 
#
# 1 265.6687 9.2611 109.8366 0.0000 0.0000 0.0000
# 2 9.2611 57.7466 1.9774 0.0000 0.0000 0.0000
# 3 109.8366 1.9774 83.3129 0.0000 0.0000 0.0000
# 4 0.0000 0.0000 0.0000 -4.6161 0.0000 0.0000
# 5 0.0000 0.0000 0.0000 0.0000 -895.6742 0.0000
# 6 0.0000 0.0000 0.0000 0.0000 0.0000 11.9187
#
#
#
# Elastic Compliance Matrix: (Units=1/GPa)
#
#
# Indices 1 2 3 4 5 6 
#
# 1 0.008327 -0.000960 -0.010955 0.000000 0.000000 0.000000
# 2 -0.000960 0.017442 0.000852 0.000000 0.000000 0.000000
# 3 -0.010955 0.000852 0.026425 0.000000 0.000000 0.000000
# 4 0.000000 0.000000 0.000000 -0.216635 0.000000 0.000000
# 5 0.000000 0.000000 0.000000 0.000000 -0.001116 0.000000
# 6 0.000000 0.000000 0.000000 0.000000 0.000000 0.083902
#
#
# Mechanical properties :
#
#
# Convention : Reuss Voigt Hill
#
# Bulk Modulus (GPa) = 33.25846 72.09761 52.67803
# Shear Modulus (GPa) = -100.99514 -158.63079 -129.81297
#
# Velocity S-wave (km/s) = -7.02277 -8.80140 -7.96191
# Velocity P-wave (km/s) = 7.03689 8.25097 7.66800
#
# Compressibility (1/GPa) = 0.03006754
#
# Stress axis : x y z
#
# Youngs Moduli (GPa) = 120.09671 57.33334 37.84291
#
# Poissons Ratio (x) = 0.05506 0.41456
# Poissons Ratio (y) = 0.11532 -0.03224
# Poissons Ratio (z) = 1.31563 -0.04885
#
# Static dielectric constant tensor:
#      x y z
#    x 1.791250 0.000000 0.000000 
#    y 0.000000 1.854220 0.000000 
#    z 0.000000 0.000000 1.710920 
# 
# From -- ./inp_files/38638.got.cif
#   From: 2010.05.17/outbox.cif.g08.bks.cpg/sg65_20_cif.got.tgz:38638.got - 2010.06.03 17:01:31.
