data_PCOD9492526
_publ_section_title
;
Structure prediction by ZEFSAII (Michael W. Deem and Ramdas Pophale) SiO2 
 PCOD9492526
Probable space group: C M M M
;
_chemical_formula_sum "Si O2"
_cell_formula_units_Z 64
_cell_length_a 16.500023
_cell_length_b 8.869481
_cell_length_c 22.359431
_cell_angle_alpha 90.000000
_cell_angle_beta 90.000000
_cell_angle_gamma 90.000000
_cell_volume 3272.227610
_symmetry_space_group_name_H-M "C M M M"
_symmetry_group_IT_number 65
_symmetry_cell_setting 'orthorhombic'
loop_
_space_group_symop_operation_xyz
x,y,z
-x,-y,z
x,-y,-z
-x,y,-z
-x,-y,-z
x,y,-z
-x,y,z
x,-y,z
1/2+x,1/2+y,z
1/2-x,1/2-y,z
1/2+x,1/2-y,-z
1/2-x,1/2+y,-z
1/2-x,1/2-y,-z
1/2+x,1/2+y,-z
1/2-x,1/2+y,z
1/2+x,1/2-y,z
loop_
_atom_site_type_symbol
_atom_site_label
_atom_site_fract_x
_atom_site_fract_y
_atom_site_fract_z
Si Si1 0.593539 0.180082 0.250841
Si Si2 0.165006 0.180279 0.136452
Si Si3 0.500000 0.683461 0.930828
Si Si4 0.596796 0.328004 0.500000
Si Si5 0.338136 0.180119 0.379309
O O1 0.500000 0.214820 0.237049
O O2 0.649708 0.268070 0.204669
O O3 0.610896 0.217277 0.319886
O O4 0.606144 0.000000 0.243432
O O5 0.250000 0.250000 0.114986
O O6 0.083870 0.231673 0.100948
O O7 0.169960 0.000000 0.132818
O O8 0.500000 0.500000 0.928473
O O9 0.500000 0.729447 0.000000
O O10 0.627850 0.500000 0.500000
O O11 0.500000 0.330386 0.500000
O O12 0.625915 0.246010 0.559801
O O13 0.250000 0.250000 0.370725
O O14 0.333644 0.000000 0.384140
#
# Coordination Sequence:
#
# PCOD9492526 Si02
#       5
#    16  16   8   8  16
#     4  10  21  38  61  89 121 156 198 250 303 358
#     4  11  22  38  62  92 124 164 207 253 307 362
#     4   9  20  40  63  89 125 166 207 250 301 363
#     4  11  24  41  60  83 111 147 192 245 300 357
#     4  11  23  39  59  84 115 153 194 241 297 358
#
# _framework density 19.558541000000002
#
# number of rings (size 3 to 8) (size 9 to 14) (size 15 to 20)
#    0.000    1.500    1.250    3.750    0.000    6.500 
#    0.000    0.000    0.000    5.250    0.000    0.000 
#    0.000    0.000    0.000    0.000    0.000    0.000 
#
# Total GULP energy -178827.203460 kJ/mol
# GULP energy per Si atom -5588.350108 kJ/mol
# Density = 1.951402 g / cm^3
# Si number density = 19.558541 Si / 1000 Ang^3
#
#
#
# Elastic Constant Matrix: (Units=GPa)
#
#
# Indices 1 2 3 4 5 6 
#
# 1 138.2579 44.1301 52.0121 0.0000 0.0000 0.0000
# 2 44.1301 50.1051 36.1463 0.0000 0.0000 0.0000
# 3 52.0121 36.1463 113.8798 0.0000 0.0000 0.0000
# 4 0.0000 0.0000 0.0000 17.0997 0.0000 0.0000
# 5 0.0000 0.0000 0.0000 0.0000 20.7960 0.0000
# 6 0.0000 0.0000 0.0000 0.0000 0.0000 43.7481
#
#
#
# Elastic Compliance Matrix: (Units=1/GPa)
#
#
# Indices 1 2 3 4 5 6 
#
# 1 0.010554 -0.007546 -0.002425 0.000000 0.000000 0.000000
# 2 -0.007546 0.031280 -0.006482 0.000000 0.000000 0.000000
# 3 -0.002425 -0.006482 0.011946 0.000000 0.000000 0.000000
# 4 0.000000 0.000000 0.000000 0.058481 0.000000 0.000000
# 5 0.000000 0.000000 0.000000 0.000000 0.048086 0.000000
# 6 0.000000 0.000000 0.000000 0.000000 0.000000 0.022858
#
#
# Mechanical properties :
#
#
# Convention : Reuss Voigt Hill
#
# Bulk Modulus (GPa) = 47.90605 62.97999 55.44302
# Shear Modulus (GPa) = 22.41455 27.65904 25.03679
#
# Velocity S-wave (km/s) = 3.38897 3.76462 3.58172
# Velocity P-wave (km/s) = 6.31350 7.15312 6.74639
#
# Compressibility (1/GPa) = 0.02087419
#
# Stress axis : x y z
#
# Youngs Moduli (GPa) = 94.75393 31.96899 83.70774
#
# Poissons Ratio (x) = 0.24123 0.20300
# Poissons Ratio (y) = 0.71498 0.54262
# Poissons Ratio (z) = 0.22979 0.20723
#
# Static dielectric constant tensor:
#      x y z
#    x 1.687150 0.000000 0.000000 
#    y 0.000000 1.661160 0.000000 
#    z 0.000000 0.000000 1.699590 
# 
# From -- ./inp_files/66815.got.cif
#   From: 2010.05.17/outbox.cif.g08.bks.cpg/sg65_34_cif.got.tgz:66815.got - 2010.06.03 17:01:31.
