data_PCOD9492941
_publ_section_title
;
Structure prediction by ZEFSAII (Michael W. Deem and Ramdas Pophale) SiO2 
 PCOD9492941
Probable space group: C M M M
;
_chemical_formula_sum "Si O2"
_cell_formula_units_Z 116
_cell_length_a 30.531541
_cell_length_b 24.710477
_cell_length_c 7.957853
_cell_angle_alpha 90.000000
_cell_angle_beta 90.000000
_cell_angle_gamma 90.000000
_cell_volume 6003.793774
_symmetry_space_group_name_H-M "C M M M"
_symmetry_group_IT_number 65
_symmetry_cell_setting 'orthorhombic'
loop_
_space_group_symop_operation_xyz
x,y,z
-x,-y,z
x,-y,-z
-x,y,-z
-x,-y,-z
x,y,-z
-x,y,z
x,-y,z
1/2+x,1/2+y,z
1/2-x,1/2-y,z
1/2+x,1/2-y,-z
1/2-x,1/2+y,-z
1/2-x,1/2-y,-z
1/2+x,1/2+y,-z
1/2-x,1/2+y,z
1/2+x,1/2-y,z
loop_
_atom_site_type_symbol
_atom_site_label
_atom_site_fract_x
_atom_site_fract_y
_atom_site_fract_z
Si Si1 0.639022 0.167906 0.300891
Si Si2 0.191103 0.769377 0.184824
Si Si3 0.185997 0.561580 0.297891
Si Si4 0.548071 0.651822 0.797855
Si Si5 0.361699 0.637724 0.309833
Si Si6 0.450572 0.777966 0.796784
Si Si7 0.783656 0.936829 0.799808
Si Si8 0.250000 0.250000 0.500000
O O1 0.649640 0.173180 0.500000
O O2 0.670890 0.209817 0.207223
O O3 0.650920 0.106951 0.246683
O O4 0.589225 0.186440 0.272544
O O5 0.151222 0.811272 0.196964
O O6 0.221415 0.779351 0.347188
O O7 0.210743 0.777510 0.000000
O O8 0.184578 0.558569 0.500000
O O9 0.179725 0.500000 0.232456
O O10 0.234676 0.581272 0.248827
O O11 0.500000 0.633721 0.739770
O O12 0.589854 0.618695 0.737383
O O13 0.553608 0.714914 0.744588
O O14 0.547885 0.651658 0.000000
O O15 0.363180 0.656565 0.500000
O O16 0.322982 0.595105 0.284824
O O17 0.500000 0.795650 0.749176
O O18 0.447929 0.779349 0.000000
O O19 0.785838 0.000000 0.753623
O O20 0.788431 0.931442 0.000000
#
# Coordination Sequence:
#
# PCOD9492941 Si02
#       8
#    16  16  16  16  16  16  16   4
#     4  11  21  35  55  84 117 147 195 240 281 353
#     4  12  25  40  57  81 120 158 191 240 292 345
#     4   9  20  38  58  79 109 149 189 238 292 337
#     4   9  18  34  56  82 113 150 190 232 287 349
#     4  12  23  37  57  85 119 151 196 238 281 351
#     4   9  18  33  54  80 111 149 190 233 290 351
#     4  10  22  39  59  83 109 146 198 245 291 345
#     4  12  26  44  52  82 116 156 210 228 288 360
#
# _framework density 19.321117999999998
#
# number of rings (size 3 to 8) (size 9 to 14) (size 15 to 20)
#    0.000    1.655    2.759    3.103    1.931    2.483 
#    0.000    1.379    0.000    0.828    0.000    5.793 
#    0.000    0.000    0.000    0.000    0.000    0.000 
#
# Total GULP energy -323229.854738 kJ/mol
# GULP energy per Si atom -5572.928530 kJ/mol
# Density = 1.927714 g / cm^3
# Si number density = 19.321118 Si / 1000 Ang^3
#
#
#
# Elastic Constant Matrix: (Units=GPa)
#
#
# Indices 1 2 3 4 5 6 
#
# 1 64.1536 3.5619 8.0966 0.0000 0.0000 0.0000
# 2 3.5619 35.2051 3.5658 0.0000 0.0000 0.0000
# 3 8.0966 3.5658 79.5717 0.0000 0.0000 0.0000
# 4 0.0000 0.0000 0.0000 12.0842 0.0000 0.0000
# 5 0.0000 0.0000 0.0000 0.0000 24.1659 0.0000
# 6 0.0000 0.0000 0.0000 0.0000 0.0000 -4.0081
#
#
#
# Elastic Compliance Matrix: (Units=1/GPa)
#
#
# Indices 1 2 3 4 5 6 
#
# 1 0.015864 -0.001448 -0.001549 0.000000 0.000000 0.000000
# 2 -0.001448 0.028667 -0.001137 0.000000 0.000000 0.000000
# 3 -0.001549 -0.001137 0.012776 0.000000 0.000000 0.000000
# 4 0.000000 0.000000 0.000000 0.082753 0.000000 0.000000
# 5 0.000000 0.000000 0.000000 0.000000 0.041381 0.000000
# 6 0.000000 0.000000 0.000000 0.000000 0.000000 -0.249493
#
#
# Mechanical properties :
#
#
# Convention : Reuss Voigt Hill
#
# Bulk Modulus (GPa) = 20.39283 23.26433 21.82858
# Shear Modulus (GPa) = -115.10526 17.36215 -48.87156
#
# Velocity S-wave (km/s) = -7.72685 3.00093 -5.03481
# Velocity P-wave (km/s) = 8.30831 4.90658 4.74096
#
# Compressibility (1/GPa) = 0.04903684
#
# Stress axis : x y z
#
# Youngs Moduli (GPa) = 63.03777 34.88370 78.27246
#
# Poissons Ratio (x) = 0.05052 0.12126
# Poissons Ratio (y) = 0.09129 0.08902
# Poissons Ratio (z) = 0.09766 0.03967
#
# Static dielectric constant tensor:
#      x y z
#    x 1.736920 0.000000 0.000000 
#    y 0.000000 1.685620 0.000000 
#    z 0.000000 0.000000 1.696800 
# 
# From -- ./inp_files/18974.got.cif
#   From: 2010.05.17/outbox.cif.g08.bks.cpg/sg65_10_cif.got.tgz:18974.got - 2010.06.03 17:01:31.
