data_PCOD9492448
_publ_section_title
;
Structure prediction by ZEFSAII (Michael W. Deem and Ramdas Pophale) SiO2 
 PCOD9492448
Probable space group: C M M M
;
_chemical_formula_sum "Si O2"
_cell_formula_units_Z 116
_cell_length_a 16.804601
_cell_length_b 16.037214
_cell_length_c 23.728113
_cell_angle_alpha 90.000000
_cell_angle_beta 90.000000
_cell_angle_gamma 90.000000
_cell_volume 6394.702308
_symmetry_space_group_name_H-M "C M M M"
_symmetry_group_IT_number 65
_symmetry_cell_setting 'orthorhombic'
loop_
_space_group_symop_operation_xyz
x,y,z
-x,-y,z
x,-y,-z
-x,y,-z
-x,-y,-z
x,y,-z
-x,y,z
x,-y,z
1/2+x,1/2+y,z
1/2-x,1/2-y,z
1/2+x,1/2-y,-z
1/2-x,1/2+y,-z
1/2-x,1/2-y,-z
1/2+x,1/2+y,-z
1/2-x,1/2+y,z
1/2+x,1/2-y,z
loop_
_atom_site_type_symbol
_atom_site_label
_atom_site_fract_x
_atom_site_fract_y
_atom_site_fract_z
Si Si1 0.125715 0.405558 0.434267
Si Si2 0.089793 0.236357 0.630170
Si Si3 0.682363 0.593496 0.565721
Si Si4 0.656234 0.736039 0.245642
Si Si5 0.361991 0.859550 0.855031
Si Si6 0.095628 0.209623 0.934061
Si Si7 0.676723 0.404104 0.844071
Si Si8 0.500000 0.000000 0.860899
O O1 0.102848 0.393454 0.500000
O O2 0.100628 0.500000 0.417638
O O3 0.097513 0.328741 0.396570
O O4 0.221826 0.404076 0.431867
O O5 0.147263 0.169983 0.600245
O O6 0.110288 0.238091 0.696061
O O7 0.000000 0.207418 0.621200
O O8 0.659698 0.602179 0.500000
O O9 0.657809 0.500000 0.584812
O O10 0.750000 0.750000 0.257348
O O11 0.627309 0.807563 0.202840
O O12 0.651440 0.650862 0.209933
O O13 0.370057 0.793441 0.905783
O O14 0.271793 0.893325 0.852669
O O15 0.429706 0.927891 0.860695
O O16 0.132915 0.134834 0.898053
O O17 0.000000 0.210535 0.927840
O O18 0.114793 0.204447 0.000000
O O19 0.657252 0.500000 0.836232
#
# Coordination Sequence:
#
# PCOD9492448 Si02
#       8
#    16  16  16  16  16  16  16   4
#     4   9  19  38  61  82 107 144 188 231 280 341
#     4  12  24  35  53  84 117 148 183 228 287 342
#     4   9  19  37  60  81 104 142 190 234 277 333
#     4   9  21  40  58  78 111 151 190 231 279 336
#     4  10  21  39  62  88 117 152 188 235 295 348
#     4  10  21  38  60  86 122 160 193 237 290 335
#     4  10  21  39  62  88 113 149 200 241 284 344
#     4  12  20  36  69  92 116 148 185 238 292 348
#
# _framework density 18.140014999999998
#
# number of rings (size 3 to 8) (size 9 to 14) (size 15 to 20)
#    0.000    2.069    1.379    3.724    0.966    5.517 
#    1.241    4.138    0.000    0.000    0.000    0.000 
#    0.000    0.000    0.000    0.000    0.000    0.000 
#
# Total GULP energy -323208.299252 kJ/mol
# GULP energy per Si atom -5572.556884 kJ/mol
# Density = 1.809873 g / cm^3
# Si number density = 18.140015 Si / 1000 Ang^3
#
#
#
# Elastic Constant Matrix: (Units=GPa)
#
#
# Indices 1 2 3 4 5 6 
#
# 1 31.0264 18.0429 23.9535 0.0000 0.0000 0.0000
# 2 18.0429 113.7256 43.0676 0.0000 0.0000 0.0000
# 3 23.9535 43.0676 87.6198 0.0000 0.0000 0.0000
# 4 0.0000 0.0000 0.0000 1.1702 0.0000 0.0000
# 5 0.0000 0.0000 0.0000 0.0000 41.4084 0.0000
# 6 0.0000 0.0000 0.0000 0.0000 0.0000 12.8304
#
#
#
# Elastic Compliance Matrix: (Units=1/GPa)
#
#
# Indices 1 2 3 4 5 6 
#
# 1 0.041574 -0.002816 -0.009981 0.000000 0.000000 0.000000
# 2 -0.002816 0.010995 -0.004634 0.000000 0.000000 0.000000
# 3 -0.009981 -0.004634 0.016420 0.000000 0.000000 0.000000
# 4 0.000000 0.000000 0.000000 0.854564 0.000000 0.000000
# 5 0.000000 0.000000 0.000000 0.000000 0.024150 0.000000
# 6 0.000000 0.000000 0.000000 0.000000 0.000000 0.077940
#
#
# Mechanical properties :
#
#
# Convention : Reuss Voigt Hill
#
# Bulk Modulus (GPa) = 29.30398 44.72219 37.01308
# Shear Modulus (GPa) = 4.66470 20.90233 12.78351
#
# Velocity S-wave (km/s) = 1.60533 3.39820 2.65752
# Velocity P-wave (km/s) = 4.43007 6.33281 5.46489
#
# Compressibility (1/GPa) = 0.03412506
#
# Stress axis : x y z
#
# Youngs Moduli (GPa) = 24.05339 90.95111 60.90266
#
# Poissons Ratio (x) = 0.25611 0.60790
# Poissons Ratio (y) = 0.06773 0.28225
# Poissons Ratio (z) = 0.24009 0.42151
#
# Static dielectric constant tensor:
#      x y z
#    x 1.618760 0.000000 0.000000 
#    y 0.000000 1.611090 0.000000 
#    z 0.000000 0.000000 1.597110 
# 
# From -- ./inp_files/70615.got.cif
#   From: 2010.05.17/outbox.cif.g08.bks.cpg/sg65_36_cif.got.tgz:70615.got - 2010.06.03 17:01:31.
