data_PCOD9492401
_publ_section_title
;
Structure prediction by ZEFSAII (Michael W. Deem and Ramdas Pophale) SiO2 
 PCOD9492401
Probable space group: C M M M
;
_chemical_formula_sum "Si O2"
_cell_formula_units_Z 72
_cell_length_a 32.296704
_cell_length_b 8.218931
_cell_length_c 14.674969
_cell_angle_alpha 90.000000
_cell_angle_beta 90.000000
_cell_angle_gamma 90.000000
_cell_volume 3895.388073
_symmetry_space_group_name_H-M "C M M M"
_symmetry_group_IT_number 65
_symmetry_cell_setting 'orthorhombic'
loop_
_space_group_symop_operation_xyz
x,y,z
-x,-y,z
x,-y,-z
-x,y,-z
-x,-y,-z
x,y,-z
-x,y,z
x,-y,z
1/2+x,1/2+y,z
1/2-x,1/2-y,z
1/2+x,1/2-y,-z
1/2-x,1/2+y,-z
1/2-x,1/2-y,-z
1/2+x,1/2+y,-z
1/2-x,1/2+y,z
1/2+x,1/2-y,z
loop_
_atom_site_type_symbol
_atom_site_label
_atom_site_fract_x
_atom_site_fract_y
_atom_site_fract_z
Si Si1 0.295508 0.194281 0.604128
Si Si2 0.500000 0.813442 0.111041
Si Si3 0.374131 0.694000 0.717502
Si Si4 0.910135 0.696597 0.103781
Si Si5 0.454082 0.698178 0.393313
O O1 0.301387 0.255861 0.500000
O O2 0.250000 0.250000 0.634801
O O3 0.332697 0.252942 0.666891
O O4 0.296029 0.000000 0.601935
O O5 0.544327 0.737767 0.134244
O O6 0.500000 0.000000 0.144595
O O7 0.500000 0.820593 0.000000
O O8 0.376078 0.500000 0.716117
O O9 0.377407 0.752582 0.821180
O O10 0.414949 0.758142 0.664022
O O11 0.913130 0.500000 0.101890
O O12 0.901904 0.750090 0.000000
O O13 0.449658 0.742689 0.500000
O O14 0.500000 0.751719 0.361685
O O15 0.453942 0.500000 0.390046
#
# Coordination Sequence:
#
# PCOD9492401 Si02
#       5
#    16   8  16  16  16
#     4  10  21  38  60  84 110 138 172 216 265 318
#     4   7  12  26  47  67  90 129 180 227 269 310
#     4  11  21  31  51  80 109 141 178 220 268 321
#     4   9  18  33  51  71 100 141 186 229 272 317
#     4   8  15  28  44  65  99 141 178 210 249 303
#
# _framework density 18.483395999999999
#
# number of rings (size 3 to 8) (size 9 to 14) (size 15 to 20)
#    0.000    2.778    0.000    4.000    1.556    2.667 
#    0.000    0.000    0.000    2.667    0.000    4.667 
#    0.000    0.000    0.000    0.000    0.000    0.000 
#
# Total GULP energy -200781.343262 kJ/mol
# GULP energy per Si atom -5577.259535 kJ/mol
# Density = 1.844133 g / cm^3
# Si number density = 18.483396 Si / 1000 Ang^3
#
#
#
# Elastic Constant Matrix: (Units=GPa)
#
#
# Indices 1 2 3 4 5 6 
#
# 1 147.0864 19.1784 96.0064 0.0000 0.0000 0.0000
# 2 19.1784 22.6057 16.6608 0.0000 0.0000 0.0000
# 3 96.0064 16.6608 103.0701 0.0000 0.0000 0.0000
# 4 0.0000 0.0000 0.0000 16.8682 0.0000 0.0000
# 5 0.0000 0.0000 0.0000 0.0000 26.7107 0.0000
# 6 0.0000 0.0000 0.0000 0.0000 0.0000 11.0157
#
#
#
# Elastic Compliance Matrix: (Units=1/GPa)
#
#
# Indices 1 2 3 4 5 6 
#
# 1 0.017548 -0.003225 -0.015824 0.000000 0.000000 0.000000
# 2 -0.003225 0.050812 -0.005210 0.000000 0.000000 0.000000
# 3 -0.015824 -0.005210 0.025284 0.000000 0.000000 0.000000
# 4 0.000000 0.000000 0.000000 0.059283 0.000000 0.000000
# 5 0.000000 0.000000 0.000000 0.000000 0.037438 0.000000
# 6 0.000000 0.000000 0.000000 0.000000 0.000000 0.090780
#
#
# Mechanical properties :
#
#
# Convention : Reuss Voigt Hill
#
# Bulk Modulus (GPa) = 22.15980 59.60595 40.88287
# Shear Modulus (GPa) = 14.50519 20.31335 17.40927
#
# Velocity S-wave (km/s) = 2.80441 3.31872 3.07235
# Velocity P-wave (km/s) = 4.74356 6.85592 5.89512
#
# Compressibility (1/GPa) = 0.04512676
#
# Stress axis : x y z
#
# Youngs Moduli (GPa) = 56.98706 19.68031 39.55110
#
# Poissons Ratio (x) = 0.06347 0.62585
# Poissons Ratio (y) = 0.18377 0.20605
# Poissons Ratio (z) = 0.90176 0.10253
#
# Static dielectric constant tensor:
#      x y z
#    x 1.641120 0.000000 0.000000 
#    y 0.000000 1.641400 0.000000 
#    z 0.000000 0.000000 1.650210 
# 
# From -- ./inp_files/36612.got.cif
#   From: 2010.05.17/outbox.cif.g08.bks.cpg/sg65_19_cif.got.tgz:36612.got - 2010.06.03 17:01:31.
