data_PCOD9492125
_publ_section_title
;
Structure prediction by ZEFSAII (Michael W. Deem and Ramdas Pophale) SiO2 
 PCOD9492125
Probable space group: C M M M
;
_chemical_formula_sum "Si O2"
_cell_formula_units_Z 68
_cell_length_a 8.718877
_cell_length_b 15.221971
_cell_length_c 23.272567
_cell_angle_alpha 90.000000
_cell_angle_beta 90.000000
_cell_angle_gamma 90.000000
_cell_volume 3088.700017
_symmetry_space_group_name_H-M "C M M M"
_symmetry_group_IT_number 65
_symmetry_cell_setting 'orthorhombic'
loop_
_space_group_symop_operation_xyz
x,y,z
-x,-y,z
x,-y,-z
-x,y,-z
-x,-y,-z
x,y,-z
-x,y,z
x,-y,z
1/2+x,1/2+y,z
1/2-x,1/2-y,z
1/2+x,1/2-y,-z
1/2-x,1/2+y,-z
1/2-x,1/2-y,-z
1/2+x,1/2+y,-z
1/2-x,1/2+y,z
1/2+x,1/2-y,z
loop_
_atom_site_type_symbol
_atom_site_label
_atom_site_fract_x
_atom_site_fract_y
_atom_site_fract_z
Si Si1 0.269825 0.000000 0.500000
Si Si2 0.318364 0.655526 0.415192
Si Si3 0.683776 0.151779 0.937481
Si Si4 0.329148 0.396437 0.817982
Si Si5 0.825716 0.606772 0.297955
O O1 0.261000 0.077276 0.549664
O O2 0.500000 0.650982 0.426927
O O3 0.250000 0.750000 0.431048
O O4 0.284552 0.640302 0.347953
O O5 0.500000 0.152660 0.933574
O O6 0.750000 0.250000 0.938418
O O7 0.752384 0.111425 0.880049
O O8 0.724598 0.111422 0.000000
O O9 0.500000 0.356842 0.818883
O O10 0.343940 0.500000 0.806814
O O11 0.228911 0.362456 0.764882
O O12 0.824767 0.500000 0.299189
O O13 0.000000 0.635753 0.309646
#
# Coordination Sequence:
#
# PCOD9492125 Si02
#       5
#     4  16  16  16  16
#     4  12  27  48  75 100 139 184 217 268 331 388
#     4  12  25  45  70 102 136 176 224 270 325 391
#     4  10  21  37  57  82 116 159 206 259 318 378
#     4  10  21  37  60  90 123 163 207 256 315 378
#     4  10  21  40  65  94 127 166 211 265 325 383
#
# _framework density 22.015736
#
# number of rings (size 3 to 8) (size 9 to 14) (size 15 to 20)
#    0.000    1.412    1.176    4.235    0.000    5.176 
#    0.000   11.176    0.000    0.000    0.000    0.000 
#    0.000    0.000    0.000    0.000    0.000    0.000 
#
# Total GULP energy -189535.523669 kJ/mol
# GULP energy per Si atom -5574.574226 kJ/mol
# Density = 2.196563 g / cm^3
# Si number density = 22.015736 Si / 1000 Ang^3
#
#
#
# Elastic Constant Matrix: (Units=GPa)
#
#
# Indices 1 2 3 4 5 6 
#
# 1 54.0953 0.3856 14.6860 0.0000 0.0000 0.0000
# 2 0.3856 90.2641 15.6936 0.0000 0.0000 0.0000
# 3 14.6860 15.6936 148.0313 0.0000 0.0000 0.0000
# 4 0.0000 0.0000 0.0000 119.6927 0.0000 0.0000
# 5 0.0000 0.0000 0.0000 0.0000 120.3123 0.0000
# 6 0.0000 0.0000 0.0000 0.0000 0.0000 16.5386
#
#
#
# Elastic Compliance Matrix: (Units=1/GPa)
#
#
# Indices 1 2 3 4 5 6 
#
# 1 0.019003 0.000251 -0.001912 0.000000 0.000000 0.000000
# 2 0.000251 0.011290 -0.001222 0.000000 0.000000 0.000000
# 3 -0.001912 -0.001222 0.007075 0.000000 0.000000 0.000000
# 4 0.000000 0.000000 0.000000 0.008355 0.000000 0.000000
# 5 0.000000 0.000000 0.000000 0.000000 0.008312 0.000000
# 6 0.000000 0.000000 0.000000 0.000000 0.000000 0.060465
#
#
# Mechanical properties :
#
#
# Convention : Reuss Voigt Hill
#
# Bulk Modulus (GPa) = 31.64293 39.32457 35.48375
# Shear Modulus (GPa) = 38.22692 68.75041 53.48866
#
# Velocity S-wave (km/s) = 4.17147 5.59425 4.93441
# Velocity P-wave (km/s) = 6.13234 7.72194 6.97259
#
# Compressibility (1/GPa) = 0.03160263
#
# Stress axis : x y z
#
# Youngs Moduli (GPa) = 52.62279 88.57422 141.35196
#
# Poissons Ratio (x) = -0.02225 0.27025
# Poissons Ratio (y) = -0.01322 0.17271
# Poissons Ratio (z) = 0.10061 0.10822
#
# Static dielectric constant tensor:
#      x y z
#    x 1.792450 0.000000 0.000000 
#    y 0.000000 1.778520 0.000000 
#    z 0.000000 0.000000 1.811340 
# 
# From -- ./inp_files/58972.got.cif
#   From: 2010.05.17/outbox.cif.g08.bks.cpg/sg65_30_cif.got.tgz:58972.got - 2010.06.03 17:01:31.
