data_PCOD9492288
_publ_section_title
;
Structure prediction by ZEFSAII (Michael W. Deem and Ramdas Pophale) SiO2 
 PCOD9492288
Probable space group: C M M M
;
_chemical_formula_sum "Si O2"
_cell_formula_units_Z 76
_cell_length_a 26.141113
_cell_length_b 7.508880
_cell_length_c 18.168336
_cell_angle_alpha 90.000000
_cell_angle_beta 90.000000
_cell_angle_gamma 90.000000
_cell_volume 3566.271405
_symmetry_space_group_name_H-M "C M M M"
_symmetry_group_IT_number 65
_symmetry_cell_setting 'orthorhombic'
loop_
_space_group_symop_operation_xyz
x,y,z
-x,-y,z
x,-y,-z
-x,y,-z
-x,-y,-z
x,y,-z
-x,y,z
x,-y,z
1/2+x,1/2+y,z
1/2-x,1/2-y,z
1/2+x,1/2-y,-z
1/2-x,1/2+y,-z
1/2-x,1/2-y,-z
1/2+x,1/2+y,-z
1/2-x,1/2+y,z
1/2+x,1/2-y,z
loop_
_atom_site_type_symbol
_atom_site_label
_atom_site_fract_x
_atom_site_fract_y
_atom_site_fract_z
Si Si1 0.412974 0.798304 0.656838
Si Si2 0.690620 0.000000 0.000000
Si Si3 0.442617 0.216405 0.818703
Si Si4 0.060712 0.704594 0.500000
Si Si5 0.166985 0.205441 0.123060
Si Si6 0.806645 0.209650 0.710426
O O1 0.434274 0.722328 0.733855
O O2 0.424149 0.712394 0.578239
O O3 0.352233 0.802824 0.667858
O O4 0.434227 0.000000 0.653281
O O5 0.686544 0.156613 0.936277
O O6 0.500000 0.265400 0.842810
O O7 0.394962 0.282825 0.866965
O O8 0.439139 0.000000 0.818939
O O9 0.081865 0.500000 0.500000
O O10 0.000000 0.695706 0.500000
O O11 0.188347 0.257560 0.203443
O O12 0.180960 0.000000 0.106624
O O13 0.750000 0.250000 0.683965
O O14 0.816576 0.000000 0.705741
#
# Coordination Sequence:
#
# PCOD9492288 Si02
#       6
#    16   4  16   8  16  16
#     4   9  17  30  52  82 115 151 189 235 282 331
#     4  12  22  40  63  80 118 152 172 234 295 352
#     4   9  16  30  53  80 108 147 196 236 278 336
#     4   9  16  28  50  85 124 157 190 231 280 333
#     4  10  22  38  58  84 111 147 187 231 286 346
#     4  10  21  37  61  83 107 141 189 236 278 338
#
# _framework density 21.310773000000001
#
# number of rings (size 3 to 8) (size 9 to 14) (size 15 to 20)
#    0.000    2.421    1.053    1.579    2.947    2.947 
#    0.000    2.632    0.000    3.789    0.000    0.000 
#    0.000    0.000    0.000    0.000    0.000    0.000 
#
# Total GULP energy -211640.464769 kJ/mol
# GULP energy per Si atom -5569.485915 kJ/mol
# Density = 2.126227 g / cm^3
# Si number density = 21.310773 Si / 1000 Ang^3
#
#
#
# Elastic Constant Matrix: (Units=GPa)
#
#
# Indices 1 2 3 4 5 6 
#
# 1 87.4768 -1.7140 -8.8629 0.0000 0.0000 0.0000
# 2 -1.7140 85.8417 41.9487 0.0000 0.0000 0.0000
# 3 -8.8629 41.9487 73.1127 0.0000 0.0000 0.0000
# 4 0.0000 0.0000 0.0000 3.4968 0.0000 0.0000
# 5 0.0000 0.0000 0.0000 0.0000 16.2671 0.0000
# 6 0.0000 0.0000 0.0000 0.0000 0.0000 11.2429
#
#
#
# Elastic Compliance Matrix: (Units=1/GPa)
#
#
# Indices 1 2 3 4 5 6 
#
# 1 0.011598 -0.000633 0.001769 0.000000 0.000000 0.000000
# 2 -0.000633 0.016223 -0.009385 0.000000 0.000000 0.000000
# 3 0.001769 -0.009385 0.019276 0.000000 0.000000 0.000000
# 4 0.000000 0.000000 0.000000 0.285978 0.000000 0.000000
# 5 0.000000 0.000000 0.000000 0.000000 0.061474 0.000000
# 6 0.000000 0.000000 0.000000 0.000000 0.000000 0.088945
#
#
# Mechanical properties :
#
#
# Convention : Reuss Voigt Hill
#
# Bulk Modulus (GPa) = 32.67885 34.35275 33.51580
# Shear Modulus (GPa) = 9.80023 20.53863 15.16943
#
# Velocity S-wave (km/s) = 2.14679 3.10783 2.67089
# Velocity P-wave (km/s) = 4.63817 5.38823 5.02721
#
# Compressibility (1/GPa) = 0.03060083
#
# Stress axis : x y z
#
# Youngs Moduli (GPa) = 86.21842 61.64186 51.87677
#
# Poissons Ratio (x) = 0.03902 -0.09178
# Poissons Ratio (y) = 0.05457 0.48684
# Poissons Ratio (z) = -0.15253 0.57848
#
# Static dielectric constant tensor:
#      x y z
#    x 1.778850 0.000000 0.000000 
#    y 0.000000 1.837910 0.000000 
#    z 0.000000 0.000000 1.758810 
# 
# From -- ./inp_files/57322.got.cif
#   From: 2010.05.17/outbox.cif.g08.bks.cpg/sg65_29_cif.got.tgz:57322.got - 2010.06.03 17:01:31.
