data_PCOD9492416
_publ_section_title
;
Structure prediction by ZEFSAII (Michael W. Deem and Ramdas Pophale) SiO2 
 PCOD9492416
Probable space group: C M M M
;
_chemical_formula_sum "Si O2"
_cell_formula_units_Z 112
_cell_length_a 14.953988
_cell_length_b 26.321158
_cell_length_c 14.679182
_cell_angle_alpha 90.000000
_cell_angle_beta 90.000000
_cell_angle_gamma 90.000000
_cell_volume 5777.818233
_symmetry_space_group_name_H-M "C M M M"
_symmetry_group_IT_number 65
_symmetry_cell_setting 'orthorhombic'
loop_
_space_group_symop_operation_xyz
x,y,z
-x,-y,z
x,-y,-z
-x,y,-z
-x,-y,-z
x,y,-z
-x,y,z
x,-y,z
1/2+x,1/2+y,z
1/2-x,1/2-y,z
1/2+x,1/2-y,-z
1/2-x,1/2+y,-z
1/2-x,1/2-y,-z
1/2+x,1/2+y,-z
1/2-x,1/2+y,z
1/2+x,1/2-y,z
loop_
_atom_site_type_symbol
_atom_site_label
_atom_site_fract_x
_atom_site_fract_y
_atom_site_fract_z
Si Si1 0.851930 0.770156 0.293187
Si Si2 0.101781 0.939111 0.736424
Si Si3 0.265127 0.439382 0.107020
Si Si4 0.098876 0.371682 0.109804
Si Si5 0.208598 0.130710 0.608847
Si Si6 0.857339 0.253841 0.101585
Si Si7 0.596818 0.830993 0.390932
O O1 0.750000 0.750000 0.284841
O O2 0.845087 0.820564 0.352554
O O3 0.885710 0.778073 0.189954
O O4 0.900003 0.723908 0.343483
O O5 0.150043 0.925791 0.831531
O O6 0.163401 0.916811 0.657127
O O7 0.000000 0.920341 0.731024
O O8 0.099938 0.000000 0.730871
O O9 0.248314 0.500000 0.115026
O O10 0.179747 0.407238 0.140574
O O11 0.279970 0.428254 0.000000
O O12 0.118546 0.312241 0.125134
O O13 0.000000 0.384361 0.145245
O O14 0.096351 0.377673 0.000000
O O15 0.202871 0.128593 0.500000
O O16 0.313259 0.138749 0.634969
O O17 0.750000 0.250000 0.094691
O O18 0.892591 0.241893 0.000000
O O19 0.602405 0.823559 0.500000
O O20 0.500000 0.854977 0.370342
#
# Coordination Sequence:
#
# PCOD9492416 Si02
#       7
#    16  16  16  16  16  16  16
#     4   9  18  31  51  79 110 148 190 232 274 316
#     4  10  23  42  62  85 111 141 184 236 289 347
#     4   9  19  36  60  88 117 150 186 229 281 335
#     4   9  18  32  53  82 117 157 197 233 274 328
#     4  10  21  38  60  85 115 146 184 238 293 342
#     4   9  18  31  48  73 110 159 201 232 266 312
#     4   9  18  33  54  82 116 152 187 224 274 339
#
# _framework density 19.384478999999999
#
# number of rings (size 3 to 8) (size 9 to 14) (size 15 to 20)
#    0.000    2.714    0.000    0.429    6.000    4.000 
#    0.000    3.571    0.000    1.286    0.000    2.000 
#    0.000    0.000    0.000    0.000    0.000    0.000 
#
# Total GULP energy -312272.270592 kJ/mol
# GULP energy per Si atom -5576.290546 kJ/mol
# Density = 1.934036 g / cm^3
# Si number density = 19.384479 Si / 1000 Ang^3
#
#
#
# Elastic Constant Matrix: (Units=GPa)
#
#
# Indices 1 2 3 4 5 6 
#
# 1 145.5488 40.7071 48.1337 0.0000 0.0000 0.0000
# 2 40.7071 22.4555 29.5119 0.0000 0.0000 0.0000
# 3 48.1337 29.5119 97.0854 0.0000 0.0000 0.0000
# 4 0.0000 0.0000 0.0000 35.7631 0.0000 0.0000
# 5 0.0000 0.0000 0.0000 0.0000 5.9932 0.0000
# 6 0.0000 0.0000 0.0000 0.0000 0.0000 22.1884
#
#
#
# Elastic Compliance Matrix: (Units=1/GPa)
#
#
# Indices 1 2 3 4 5 6 
#
# 1 0.014033 -0.027136 0.001291 0.000000 0.000000 0.000000
# 2 -0.027136 0.126632 -0.025040 0.000000 0.000000 0.000000
# 3 0.001291 -0.025040 0.017272 0.000000 0.000000 0.000000
# 4 0.000000 0.000000 0.000000 0.027962 0.000000 0.000000
# 5 0.000000 0.000000 0.000000 0.000000 0.166855 0.000000
# 6 0.000000 0.000000 0.000000 0.000000 0.000000 0.045069
#
#
# Mechanical properties :
#
#
# Convention : Reuss Voigt Hill
#
# Bulk Modulus (GPa) = 17.80376 55.75501 36.77939
# Shear Modulus (GPa) = 9.64669 22.57143 16.10906
#
# Velocity S-wave (km/s) = 2.23323 3.41604 2.88588
# Velocity P-wave (km/s) = 3.98174 6.66215 5.48810
#
# Compressibility (1/GPa) = 0.05616792
#
# Stress axis : x y z
#
# Youngs Moduli (GPa) = 71.26185 7.89690 57.89851
#
# Poissons Ratio (x) = 0.21429 -0.07477
# Poissons Ratio (y) = 1.93373 1.44978
# Poissons Ratio (z) = -0.09203 0.19774
#
# Static dielectric constant tensor:
#      x y z
#    x 1.717780 0.000000 0.000000 
#    y 0.000000 1.659870 0.000000 
#    z 0.000000 0.000000 1.706420 
# 
# From -- ./inp_files/40812.got.cif
#   From: 2010.05.17/outbox.cif.g08.bks.cpg/sg65_21_cif.got.tgz:40812.got - 2010.06.03 17:01:31.
