data_PCOD9492817
_publ_section_title
;
Structure prediction by ZEFSAII (Michael W. Deem and Ramdas Pophale) SiO2 
 PCOD9492817
Probable space group: C M M M
;
_chemical_formula_sum "Si O2"
_cell_formula_units_Z 64
_cell_length_a 27.165895
_cell_length_b 7.846938
_cell_length_c 14.727671
_cell_angle_alpha 90.000000
_cell_angle_beta 90.000000
_cell_angle_gamma 90.000000
_cell_volume 3139.484281
_symmetry_space_group_name_H-M "C M M M"
_symmetry_group_IT_number 65
_symmetry_cell_setting 'orthorhombic'
loop_
_space_group_symop_operation_xyz
x,y,z
-x,-y,z
x,-y,-z
-x,y,-z
-x,-y,-z
x,y,-z
-x,y,z
x,-y,z
1/2+x,1/2+y,z
1/2-x,1/2-y,z
1/2+x,1/2-y,-z
1/2-x,1/2+y,-z
1/2-x,1/2-y,-z
1/2+x,1/2+y,-z
1/2-x,1/2+y,z
1/2+x,1/2-y,z
loop_
_atom_site_type_symbol
_atom_site_label
_atom_site_fract_x
_atom_site_fract_y
_atom_site_fract_z
Si Si1 0.000000 0.202608 0.895482
Si Si2 0.870919 0.700412 0.392749
Si Si3 0.944708 0.000000 0.610284
Si Si4 0.194115 0.703256 0.229817
Si Si5 0.893600 0.704595 0.103700
O O1 0.052448 0.257319 0.855764
O O2 0.000000 0.000000 0.899051
O O3 0.000000 0.271734 0.000000
O O4 0.861325 0.719943 0.500000
O O5 0.883248 0.500000 0.376534
O O6 0.914352 0.829977 0.366381
O O7 0.824156 0.747283 0.331074
O O8 0.947789 0.000000 0.500000
O O9 0.000000 0.000000 0.647546
O O10 0.191918 0.500000 0.223293
O O11 0.250000 0.750000 0.210392
O O12 0.152258 0.771896 0.161676
O O13 0.889552 0.500000 0.099757
O O14 0.892104 0.770793 0.000000
#
# Coordination Sequence:
#
# PCOD9492817 Si02
#       5
#     8  16   8  16  16
#     4   9  17  31  53  81 108 135 174 222 268 318
#     4   9  19  37  57  80 114 149 185 229 277 328
#     4   9  18  34  58  86 113 147 189 226 272 333
#     4  10  22  37  54  79 107 140 184 228 275 329
#     4   9  18  35  56  77 106 143 179 217 268 328
#
# _framework density 20.385511999999999
#
# number of rings (size 3 to 8) (size 9 to 14) (size 15 to 20)
#    0.000    2.750    0.000    0.375    1.750    4.000 
#    2.250    2.500    0.000    0.000    0.000    0.000 
#    0.000    0.000    0.000    0.000    0.000    0.000 
#
# Total GULP energy -178445.313682 kJ/mol
# GULP energy per Si atom -5576.416053 kJ/mol
# Density = 2.033911 g / cm^3
# Si number density = 20.385512 Si / 1000 Ang^3
#
#
#
# Elastic Constant Matrix: (Units=GPa)
#
#
# Indices 1 2 3 4 5 6 
#
# 1 210.9490 29.3816 72.8299 0.0000 0.0000 0.0000
# 2 29.3816 36.2828 24.7141 0.0000 0.0000 0.0000
# 3 72.8299 24.7141 74.2355 0.0000 0.0000 0.0000
# 4 0.0000 0.0000 0.0000 6.3761 0.0000 0.0000
# 5 0.0000 0.0000 0.0000 0.0000 29.5997 0.0000
# 6 0.0000 0.0000 0.0000 0.0000 0.0000 75.3632
#
#
#
# Elastic Compliance Matrix: (Units=1/GPa)
#
#
# Indices 1 2 3 4 5 6 
#
# 1 0.007217 -0.001321 -0.006641 0.000000 0.000000 0.000000
# 2 -0.001321 0.035886 -0.010651 0.000000 0.000000 0.000000
# 3 -0.006641 -0.010651 0.023532 0.000000 0.000000 0.000000
# 4 0.000000 0.000000 0.000000 0.156835 0.000000 0.000000
# 5 0.000000 0.000000 0.000000 0.000000 0.033784 0.000000
# 6 0.000000 0.000000 0.000000 0.000000 0.000000 0.013269
#
#
# Mechanical properties :
#
#
# Convention : Reuss Voigt Hill
#
# Bulk Modulus (GPa) = 34.00295 63.92429 48.96362
# Shear Modulus (GPa) = 15.74549 35.23725 25.49137
#
# Velocity S-wave (km/s) = 2.78220 4.16209 3.54003
# Velocity P-wave (km/s) = 5.19971 7.38397 6.38592
#
# Compressibility (1/GPa) = 0.02940921
#
# Stress axis : x y z
#
# Youngs Moduli (GPa) = 138.55793 27.86601 42.49620
#
# Poissons Ratio (x) = 0.03681 0.28221
# Poissons Ratio (y) = 0.18305 0.45262
# Poissons Ratio (z) = 0.92013 0.29680
#
# Static dielectric constant tensor:
#      x y z
#    x 1.725370 0.000000 0.000000 
#    y 0.000000 1.729460 0.000000 
#    z 0.000000 0.000000 1.764530 
# 
# From -- ./inp_files/36015.got.cif
#   From: 2010.05.17/outbox.cif.g08.bks.cpg/sg65_19_cif.got.tgz:36015.got - 2010.06.03 17:01:31.
