data_PCOD9492192
_publ_section_title
;
Structure prediction by ZEFSAII (Michael W. Deem and Ramdas Pophale) SiO2 
 PCOD9492192
Probable space group: C M M M
;
_chemical_formula_sum "Si O2"
_cell_formula_units_Z 96
_cell_length_a 25.687701
_cell_length_b 24.038457
_cell_length_c 8.844730
_cell_angle_alpha 90.000000
_cell_angle_beta 90.000000
_cell_angle_gamma 90.000000
_cell_volume 5461.556172
_symmetry_space_group_name_H-M "C M M M"
_symmetry_group_IT_number 65
_symmetry_cell_setting 'orthorhombic'
loop_
_space_group_symop_operation_xyz
x,y,z
-x,-y,z
x,-y,-z
-x,y,-z
-x,-y,-z
x,y,-z
-x,y,z
x,-y,z
1/2+x,1/2+y,z
1/2-x,1/2-y,z
1/2+x,1/2-y,-z
1/2-x,1/2+y,-z
1/2-x,1/2-y,-z
1/2+x,1/2+y,-z
1/2-x,1/2+y,z
1/2+x,1/2-y,z
loop_
_atom_site_type_symbol
_atom_site_label
_atom_site_fract_x
_atom_site_fract_y
_atom_site_fract_z
Si Si1 0.184008 0.500000 0.680217
Si Si2 0.439804 0.802584 0.818651
Si Si3 0.846479 0.616447 0.181392
Si Si4 0.799006 0.000000 0.819609
Si Si5 0.153829 0.119249 0.180388
Si Si6 0.250276 0.815636 0.680563
Si Si7 0.939121 0.182767 0.680203
O O1 0.181522 0.500000 0.500000
O O2 0.158176 0.555715 0.746141
O O3 0.244302 0.500000 0.733129
O O4 0.500000 0.815634 0.780525
O O5 0.399517 0.851055 0.778749
O O6 0.425467 0.744630 0.738943
O O7 0.436847 0.794229 0.000000
O O8 0.798331 0.653299 0.240594
O O9 0.843129 0.611612 0.000000
O O10 0.831213 0.055576 0.785219
O O11 0.787412 0.000000 0.000000
O O12 0.197449 0.157256 0.258583
O O13 0.098254 0.138531 0.241485
O O14 0.156168 0.126767 0.000000
O O15 0.254106 0.823226 0.500000
O O16 0.250000 0.750000 0.713499
O O17 0.932592 0.180708 0.500000
O O18 0.000000 0.173730 0.716387
#
# Coordination Sequence:
#
# PCOD9492192 Si02
#       7
#     8  16  16   8  16  16  16
#     4  12  24  38  59  82 111 153 194 234 287 342
#     4   9  19  37  61  87 114 149 192 235 284 340
#     4  11  22  37  58  83 114 149 190 237 284 339
#     4  10  22  40  59  82 111 147 190 238 287 336
#     4  11  22  37  59  83 111 147 190 237 285 339
#     4  11  23  36  53  82 118 149 183 231 285 345
#     4  10  21  37  58  85 118 153 188 232 286 341
#
# _framework density 17.577407999999998
#
# number of rings (size 3 to 8) (size 9 to 14) (size 15 to 20)
#    0.000    1.500    1.667    3.750    0.000    7.000 
#    0.000    0.833    0.000    5.000    0.000    0.000 
#    0.000    0.000    0.000    0.000    0.000    0.000 
#
# Total GULP energy -268260.428438 kJ/mol
# GULP energy per Si atom -5588.758926 kJ/mol
# Density = 1.753740 g / cm^3
# Si number density = 17.577408 Si / 1000 Ang^3
#
#
#
# Elastic Constant Matrix: (Units=GPa)
#
#
# Indices 1 2 3 4 5 6 
#
# 1 78.6862 61.2575 41.3755 0.0000 0.0000 0.0000
# 2 61.2575 132.8284 64.8797 0.0000 0.0000 0.0000
# 3 41.3755 64.8797 61.2643 0.0000 0.0000 0.0000
# 4 0.0000 0.0000 0.0000 16.2400 0.0000 0.0000
# 5 0.0000 0.0000 0.0000 0.0000 23.7579 0.0000
# 6 0.0000 0.0000 0.0000 0.0000 0.0000 14.7341
#
#
#
# Elastic Compliance Matrix: (Units=1/GPa)
#
#
# Indices 1 2 3 4 5 6 
#
# 1 0.021740 -0.005913 -0.008420 0.000000 0.000000 0.000000
# 2 -0.005913 0.017204 -0.014226 0.000000 0.000000 0.000000
# 3 -0.008420 -0.014226 0.037075 0.000000 0.000000 0.000000
# 4 0.000000 0.000000 0.000000 0.061576 0.000000 0.000000
# 5 0.000000 0.000000 0.000000 0.000000 0.042091 0.000000
# 6 0.000000 0.000000 0.000000 0.000000 0.000000 0.067870
#
#
# Mechanical properties :
#
#
# Convention : Reuss Voigt Hill
#
# Bulk Modulus (GPa) = 52.90911 67.53381 60.22146
# Shear Modulus (GPa) = 16.07853 17.96415 17.02134
#
# Velocity S-wave (km/s) = 3.02773 3.20035 3.11523
# Velocity P-wave (km/s) = 6.51067 7.22222 6.87566
#
# Compressibility (1/GPa) = 0.01890034
#
# Stress axis : x y z
#
# Youngs Moduli (GPa) = 45.99917 58.12574 26.97259
#
# Poissons Ratio (x) = 0.34370 0.22711
# Poissons Ratio (y) = 0.27200 0.38371
# Poissons Ratio (z) = 0.38731 0.82689
#
# Static dielectric constant tensor:
#      x y z
#    x 1.583790 0.000000 0.000000 
#    y 0.000000 1.573880 0.000000 
#    z 0.000000 0.000000 1.586900 
# 
# From -- ./inp_files/14437.got.cif
#   From: 2010.05.17/outbox.cif.g08.bks.cpg/sg65_8_cif.got.tgz:14437.got - 2010.06.03 17:01:31.
