data_PCOD9492695
_publ_section_title
;
Structure prediction by ZEFSAII (Michael W. Deem and Ramdas Pophale) SiO2 
 PCOD9492695
Probable space group: C M M M
;
_chemical_formula_sum "Si O2"
_cell_formula_units_Z 60
_cell_length_a 15.046675
_cell_length_b 22.272553
_cell_length_c 9.868567
_cell_angle_alpha 90.000000
_cell_angle_beta 90.000000
_cell_angle_gamma 90.000000
_cell_volume 3307.231803
_symmetry_space_group_name_H-M "C M M M"
_symmetry_group_IT_number 65
_symmetry_cell_setting 'orthorhombic'
loop_
_space_group_symop_operation_xyz
x,y,z
-x,-y,z
x,-y,-z
-x,y,-z
-x,-y,-z
x,y,-z
-x,y,z
x,-y,z
1/2+x,1/2+y,z
1/2-x,1/2-y,z
1/2+x,1/2-y,-z
1/2-x,1/2+y,-z
1/2-x,1/2-y,-z
1/2+x,1/2+y,-z
1/2-x,1/2+y,z
1/2+x,1/2-y,z
loop_
_atom_site_type_symbol
_atom_site_label
_atom_site_fract_x
_atom_site_fract_y
_atom_site_fract_z
Si Si1 0.357032 0.248711 0.500000
Si Si2 0.103221 0.158338 0.268621
Si Si3 0.215926 0.819370 0.000000
Si Si4 0.500000 0.068511 0.231610
Si Si5 0.608469 0.568659 0.500000
Si Si6 0.353169 0.070048 0.000000
Si Si7 0.500000 0.147286 0.500000
O O1 0.250000 0.250000 0.500000
O O2 0.389132 0.284847 0.368041
O O3 0.409909 0.186827 0.500000
O O4 0.158210 0.170178 0.134685
O O5 0.136791 0.103838 0.364501
O O6 0.000000 0.147508 0.235367
O O7 0.250000 0.750000 0.000000
O O8 0.287213 0.873583 0.000000
O O9 0.584411 0.076319 0.132404
O O10 0.500000 0.110159 0.361479
O O11 0.500000 0.000000 0.279336
O O12 0.636682 0.500000 0.500000
O O13 0.500000 0.571180 0.500000
O O14 0.318661 0.000000 0.000000
#
# Coordination Sequence:
#
# PCOD9492695 Si02
#       7
#     8  16   8   8   8   8   4
#     4  11  23  38  58  85 127 163 199 252 315 383
#     4  10  21  40  57  83 124 159 199 252 304 364
#     4  12  26  36  60  95 126 159 211 260 301 374
#     4   9  21  43  67  91 119 156 210 259 312 382
#     4   8  16  35  63  83 105 151 199 237 293 356
#     4   9  22  45  64  85 127 171 198 254 331 383
#     4  12  23  36  72  94 119 164 206 262 320 360
#
# _framework density 18.142060000000001
#
# number of rings (size 3 to 8) (size 9 to 14) (size 15 to 20)
#    0.000    2.000    1.333    3.000    7.467    1.067 
#    2.400    0.000    0.000    4.000    0.000    0.000 
#    0.000    0.000    0.000    0.000    0.000    0.000 
#
# Total GULP energy -167329.031908 kJ/mol
# GULP energy per Si atom -5577.634397 kJ/mol
# Density = 1.810077 g / cm^3
# Si number density = 18.142060 Si / 1000 Ang^3
#
#
#
# Elastic Constant Matrix: (Units=GPa)
#
#
# Indices 1 2 3 4 5 6 
#
# 1 87.3784 68.3621 51.9798 0.0000 0.0000 0.0000
# 2 68.3621 169.0290 104.7138 0.0000 0.0000 0.0000
# 3 51.9798 104.7138 167.6474 0.0000 0.0000 0.0000
# 4 0.0000 0.0000 0.0000 -2.9040 0.0000 0.0000
# 5 0.0000 0.0000 0.0000 0.0000 13.5123 0.0000
# 6 0.0000 0.0000 0.0000 0.0000 0.0000 29.1891
#
#
#
# Elastic Compliance Matrix: (Units=1/GPa)
#
#
# Indices 1 2 3 4 5 6 
#
# 1 0.016999 -0.005888 -0.001593 0.000000 0.000000 0.000000
# 2 -0.005888 0.011690 -0.005476 0.000000 0.000000 0.000000
# 3 -0.001593 -0.005476 0.009879 0.000000 0.000000 0.000000
# 4 0.000000 0.000000 0.000000 -0.344348 0.000000 0.000000
# 5 0.000000 0.000000 0.000000 0.000000 0.074007 0.000000
# 6 0.000000 0.000000 0.000000 0.000000 0.000000 0.034259
#
#
# Mechanical properties :
#
#
# Convention : Reuss Voigt Hill
#
# Bulk Modulus (GPa) = 79.02690 97.12958 88.07824
# Shear Modulus (GPa) = -29.87177 21.22608 -4.32285
#
# Velocity S-wave (km/s) = -4.06217 3.42423 -1.54530
# Velocity P-wave (km/s) = 4.65328 8.32396 6.74319
#
# Compressibility (1/GPa) = 0.01265392
#
# Stress axis : x y z
#
# Youngs Moduli (GPa) = 58.82782 85.54338 101.22457
#
# Poissons Ratio (x) = 0.50371 0.16122
# Poissons Ratio (y) = 0.34640 0.55430
# Poissons Ratio (z) = 0.09369 0.46843
#
# Static dielectric constant tensor:
#      x y z
#    x 1.650690 0.000000 0.000000 
#    y 0.000000 1.632550 0.000000 
#    z 0.000000 0.000000 1.576800 
# 
# From -- ./inp_files/6660.got.cif
#   From: 2010.05.17/outbox.cif.g08.bks.cpg/sg65_4_cif.got.tgz:6660.got - 2010.06.03 17:01:31.
