data_PCOD9492554
_publ_section_title
;
Structure prediction by ZEFSAII (Michael W. Deem and Ramdas Pophale) SiO2 
 PCOD9492554
Probable space group: C M M M
;
_chemical_formula_sum "Si O2"
_cell_formula_units_Z 96
_cell_length_a 21.968015
_cell_length_b 13.919937
_cell_length_c 15.847896
_cell_angle_alpha 90.000000
_cell_angle_beta 90.000000
_cell_angle_gamma 90.000000
_cell_volume 4846.181760
_symmetry_space_group_name_H-M "C M M M"
_symmetry_group_IT_number 65
_symmetry_cell_setting 'orthorhombic'
loop_
_space_group_symop_operation_xyz
x,y,z
-x,-y,z
x,-y,-z
-x,y,-z
-x,-y,-z
x,y,-z
-x,y,z
x,-y,z
1/2+x,1/2+y,z
1/2-x,1/2-y,z
1/2+x,1/2-y,-z
1/2-x,1/2+y,-z
1/2-x,1/2-y,-z
1/2+x,1/2+y,-z
1/2-x,1/2+y,z
1/2+x,1/2-y,z
loop_
_atom_site_type_symbol
_atom_site_label
_atom_site_fract_x
_atom_site_fract_y
_atom_site_fract_z
Si Si1 0.429837 0.271900 0.333332
Si Si2 0.807109 0.676140 0.000000
Si Si3 0.569456 0.294483 0.000000
Si Si4 0.244020 0.611395 0.828754
Si Si5 0.606628 0.384016 0.500000
Si Si6 0.748097 0.615405 0.500000
Si Si7 0.826847 0.383313 0.663070
Si Si8 0.616620 0.384857 0.830822
O O1 0.500000 0.245417 0.324104
O O2 0.421383 0.338258 0.415882
O O3 0.388302 0.177475 0.342330
O O4 0.408907 0.331985 0.251366
O O5 0.750000 0.750000 0.000000
O O6 0.794979 0.620323 0.913363
O O7 0.874824 0.718784 0.000000
O O8 0.580808 0.356000 0.915315
O O9 0.500000 0.257267 0.000000
O O10 0.253182 0.500000 0.809350
O O11 0.208324 0.648668 0.747732
O O12 0.312723 0.648140 0.842279
O O13 0.601045 0.500000 0.500000
O O14 0.678038 0.355558 0.500000
O O15 0.746650 0.500000 0.500000
O O16 0.784514 0.642503 0.416320
O O17 0.836232 0.500000 0.663802
O O18 0.613909 0.500000 0.820246
#
# Coordination Sequence:
#
# PCOD9492554 Si02
#       8
#    16   8   8  16   8   8  16  16
#     4  12  26  40  59  87 120 165 210 239 290 369
#     4  12  21  37  63  89 119 162 204 258 304 360
#     4  12  25  38  57  88 123 162 205 246 303 371
#     4  10  21  38  62  92 119 153 203 258 314 367
#     4  11  24  42  63  90 124 157 195 248 302 363
#     4   9  19  39  64  93 117 146 192 246 309 359
#     4  10  22  40  64  90 121 153 197 261 312 353
#     4  11  23  40  61  88 122 159 200 250 303 362
#
# _framework density 19.809408999999999
#
# number of rings (size 3 to 8) (size 9 to 14) (size 15 to 20)
#    0.000    1.167    1.667    4.250    0.000   10.000 
#    0.000    0.000    0.000    4.500    0.000    0.000 
#    0.000    0.000    0.000    0.000    0.000    0.000 
#
# Total GULP energy -268287.878684 kJ/mol
# GULP energy per Si atom -5589.330806 kJ/mol
# Density = 1.976432 g / cm^3
# Si number density = 19.809409 Si / 1000 Ang^3
#
#
#
# Elastic Constant Matrix: (Units=GPa)
#
#
# Indices 1 2 3 4 5 6 
#
# 1 144.7713 26.3801 29.6480 0.0000 0.0000 0.0000
# 2 26.3801 49.6009 15.6754 0.0000 0.0000 0.0000
# 3 29.6480 15.6754 139.4655 0.0000 0.0000 0.0000
# 4 0.0000 0.0000 0.0000 -344.4382 0.0000 0.0000
# 5 0.0000 0.0000 0.0000 0.0000 -25.6401 0.0000
# 6 0.0000 0.0000 0.0000 0.0000 0.0000 20.2737
#
#
#
# Elastic Compliance Matrix: (Units=1/GPa)
#
#
# Indices 1 2 3 4 5 6 
#
# 1 0.007851 -0.003783 -0.001244 0.000000 0.000000 0.000000
# 2 -0.003783 0.022726 -0.001750 0.000000 0.000000 0.000000
# 3 -0.001244 -0.001750 0.007631 0.000000 0.000000 0.000000
# 4 0.000000 0.000000 0.000000 -0.002903 0.000000 0.000000
# 5 0.000000 0.000000 0.000000 0.000000 -0.039001 0.000000
# 6 0.000000 0.000000 0.000000 0.000000 0.000000 0.049325
#
#
# Mechanical properties :
#
#
# Convention : Reuss Voigt Hill
#
# Bulk Modulus (GPa) = 40.55945 53.02720 46.79332
# Shear Modulus (GPa) = 74.18291 -52.48532 10.84879
#
# Velocity S-wave (km/s) = 6.12614 -5.15293 2.34275
# Velocity P-wave (km/s) = 8.39993 2.92861 5.56696
#
# Compressibility (1/GPa) = 0.02465517
#
# Stress axis : x y z
#
# Youngs Moduli (GPa) = 127.36479 44.00277 131.03777
#
# Poissons Ratio (x) = 0.16645 0.16300
# Poissons Ratio (y) = 0.48178 0.22934
# Poissons Ratio (z) = 0.15843 0.07701
#
# Static dielectric constant tensor:
#      x y z
#    x 1.680490 0.000000 0.000000 
#    y 0.000000 1.715370 0.000000 
#    z 0.000000 0.000000 1.686800 
# 
# From -- ./inp_files/44220.got.cif
#   From: 2010.05.17/outbox.cif.g08.bks.cpg/sg65_23_cif.got.tgz:44220.got - 2010.06.03 17:01:31.
