data_PCOD9492051
_publ_section_title
;
Structure prediction by ZEFSAII (Michael W. Deem and Ramdas Pophale) SiO2 
 PCOD9492051
Probable space group: C M M M
;
_chemical_formula_sum "Si O2"
_cell_formula_units_Z 90
_cell_length_a 25.214644
_cell_length_b 22.893514
_cell_length_c 7.665550
_cell_angle_alpha 90.000000
_cell_angle_beta 90.000000
_cell_angle_gamma 90.000000
_cell_volume 4424.952577
_symmetry_space_group_name_H-M "C M M M"
_symmetry_group_IT_number 65
_symmetry_cell_setting 'orthorhombic'
loop_
_space_group_symop_operation_xyz
x,y,z
-x,-y,z
x,-y,-z
-x,y,-z
-x,-y,-z
x,y,-z
-x,y,z
x,-y,z
1/2+x,1/2+y,z
1/2-x,1/2-y,z
1/2+x,1/2-y,-z
1/2-x,1/2+y,-z
1/2-x,1/2-y,-z
1/2+x,1/2+y,-z
1/2-x,1/2+y,z
1/2+x,1/2-y,z
loop_
_atom_site_type_symbol
_atom_site_label
_atom_site_fract_x
_atom_site_fract_y
_atom_site_fract_z
Si Si1 0.409704 0.000000 0.194646
Si Si2 0.500000 0.000000 0.500000
Si Si3 0.500000 0.358429 0.201231
Si Si4 0.115836 0.284328 0.709723
Si Si5 0.884497 0.147902 0.791291
Si Si6 0.709614 0.433986 0.789466
Si Si7 0.500000 0.776668 0.288490
Si Si8 0.329399 0.101893 0.708200
O O1 0.453345 0.000000 0.346249
O O2 0.370627 0.055715 0.214370
O O3 0.432664 0.000000 0.000000
O O4 0.442258 0.372402 0.279798
O O5 0.500000 0.287767 0.207199
O O6 0.500000 0.378598 0.000000
O O7 0.117742 0.283528 0.500000
O O8 0.123205 0.217209 0.763463
O O9 0.156952 0.332721 0.772105
O O10 0.056067 0.304365 0.760817
O O11 0.835250 0.110500 0.723923
O O12 0.887412 0.139874 0.000000
O O13 0.700358 0.500000 0.727080
O O14 0.768997 0.414918 0.744241
O O15 0.706406 0.434500 0.000000
O O16 0.500000 0.770664 0.500000
O O17 0.337334 0.100206 0.500000
#
# Coordination Sequence:
#
# PCOD9492051 Si02
#       8
#     8   2   8  16  16  16   8  16
#     4  12  25  45  69  94 127 172 217 264 321 373
#     4  12  26  48  68  98 136 164 218 278 322 370
#     4   8  14  28  50  75 108 143 177 231 298 355
#     4   9  19  33  54  83 114 150 188 243 308 368
#     4   9  18  33  54  82 114 149 194 251 309 371
#     4  10  21  37  57  79 109 154 206 253 307 378
#     4   8  14  29  49  73 102 142 181 215 279 355
#     4  11  22  39  60  87 118 159 205 258 308 365
#
# _framework density 20.339200999999999
#
# number of rings (size 3 to 8) (size 9 to 14) (size 15 to 20)
#    0.000    2.311    1.778    0.667    0.000    3.556 
#    1.600    4.000    0.000    4.800    0.000    0.000 
#    0.000    8.533    0.000    0.000    0.000    0.000 
#
# Total GULP energy -250688.209055 kJ/mol
# GULP energy per Si atom -5570.849090 kJ/mol
# Density = 2.029291 g / cm^3
# Si number density = 20.339201 Si / 1000 Ang^3
#
#
#
# Elastic Constant Matrix: (Units=GPa)
#
#
# Indices 1 2 3 4 5 6 
#
# 1 160.0009 89.6076 31.8039 0.0000 0.0000 0.0000
# 2 89.6076 108.8659 15.2482 0.0000 0.0000 0.0000
# 3 31.8039 15.2482 72.9518 0.0000 0.0000 0.0000
# 4 0.0000 0.0000 0.0000 16.3858 0.0000 0.0000
# 5 0.0000 0.0000 0.0000 0.0000 20.6035 0.0000
# 6 0.0000 0.0000 0.0000 0.0000 0.0000 -16.9994
#
#
#
# Elastic Compliance Matrix: (Units=1/GPa)
#
#
# Indices 1 2 3 4 5 6 
#
# 1 0.012344 -0.009690 -0.003356 0.000000 0.000000 0.000000
# 2 -0.009690 0.017070 0.000657 0.000000 0.000000 0.000000
# 3 -0.003356 0.000657 0.015034 0.000000 0.000000 0.000000
# 4 0.000000 0.000000 0.000000 0.061029 0.000000 0.000000
# 5 0.000000 0.000000 0.000000 0.000000 0.048535 0.000000
# 6 0.000000 0.000000 0.000000 0.000000 0.000000 -0.058826
#
#
# Mechanical properties :
#
#
# Convention : Reuss Voigt Hill
#
# Bulk Modulus (GPa) = 50.84407 68.34866 59.59636
# Shear Modulus (GPa) = 39.51910 17.67525 28.59717
#
# Velocity S-wave (km/s) = 4.41273 2.95112 3.75375
# Velocity P-wave (km/s) = 7.14250 6.72975 6.93919
#
# Compressibility (1/GPa) = 0.01966798
#
# Stress axis : x y z
#
# Youngs Moduli (GPa) = 81.01044 58.58308 66.51808
#
# Poissons Ratio (x) = 0.56769 0.22324
# Poissons Ratio (y) = 0.78502 -0.04368
# Poissons Ratio (z) = 0.27187 -0.03847
#
# Static dielectric constant tensor:
#      x y z
#    x 1.735390 0.000000 0.000000 
#    y 0.000000 1.707760 0.000000 
#    z 0.000000 0.000000 1.827990 
# 
# From -- ./inp_files/11924.got.cif
#   From: 2010.05.17/outbox.cif.g08.bks.cpg/sg65_6_cif.got.tgz:11924.got - 2010.06.03 17:01:31.
