data_PCOD9492271
_publ_section_title
;
Structure prediction by ZEFSAII (Michael W. Deem and Ramdas Pophale) SiO2 
 PCOD9492271
Probable space group: C M M M
;
_chemical_formula_sum "Si O2"
_cell_formula_units_Z 90
_cell_length_a 25.197860
_cell_length_b 21.149972
_cell_length_c 8.228676
_cell_angle_alpha 90.000000
_cell_angle_beta 90.000000
_cell_angle_gamma 90.000000
_cell_volume 4385.341491
_symmetry_space_group_name_H-M "C M M M"
_symmetry_group_IT_number 65
_symmetry_cell_setting 'orthorhombic'
loop_
_space_group_symop_operation_xyz
x,y,z
-x,-y,z
x,-y,-z
-x,y,-z
-x,-y,-z
x,y,-z
-x,y,z
x,-y,z
1/2+x,1/2+y,z
1/2-x,1/2-y,z
1/2+x,1/2-y,-z
1/2-x,1/2+y,-z
1/2-x,1/2-y,-z
1/2+x,1/2+y,-z
1/2-x,1/2+y,z
1/2+x,1/2-y,z
loop_
_atom_site_type_symbol
_atom_site_label
_atom_site_fract_x
_atom_site_fract_y
_atom_site_fract_z
Si Si1 0.440645 0.098028 0.688773
Si Si2 0.674401 0.070013 0.808012
Si Si3 0.500000 0.500000 0.500000
Si Si4 0.108723 0.067684 0.500000
Si Si5 0.059315 0.736715 0.810557
Si Si6 0.254088 0.674324 0.310870
Si Si7 0.864751 0.146255 0.182905
O O1 0.437792 0.079720 0.500000
O O2 0.500000 0.080882 0.750197
O O3 0.388790 0.072832 0.777838
O O4 0.436668 0.174131 0.704245
O O5 0.703453 0.129984 0.725981
O O6 0.693122 0.000000 0.751025
O O7 0.684335 0.074410 0.000000
O O8 0.546617 0.553305 0.500000
O O9 0.120744 0.101973 0.667803
O O10 0.137783 0.000000 0.500000
O O11 0.104986 0.787630 0.784278
O O12 0.000000 0.764551 0.786772
O O13 0.062741 0.716472 0.000000
O O14 0.268877 0.664024 0.500000
O O15 0.250000 0.750000 0.289693
O O16 0.301847 0.653948 0.194997
O O17 0.880231 0.125712 0.000000
#
# Coordination Sequence:
#
# PCOD9492271 Si02
#       7
#    16  16   2   8  16  16  16
#     4  10  21  37  59  91 126 165 206 254 315 377
#     4  11  25  43  64  90 123 167 216 265 321 383
#     4   8  24  48  66  92 128 178 224 272 362 396
#     4  10  24  44  63  91 126 170 218 276 336 399
#     4   9  19  34  57  91 126 161 203 256 316 379
#     4  11  24  43  68  98 132 171 216 270 335 400
#     4  11  23  40  65  95 127 169 217 268 331 401
#
# _framework density 20.522915999999999
#
# number of rings (size 3 to 8) (size 9 to 14) (size 15 to 20)
#    0.267    1.422    0.889    2.667    2.489    8.178 
#    0.000    2.222    0.000    0.000    0.000    0.000 
#    0.000    0.000    0.000    0.000    0.000    0.000 
#
# Total GULP energy -250814.713705 kJ/mol
# GULP energy per Si atom -5573.660305 kJ/mol
# Density = 2.047621 g / cm^3
# Si number density = 20.522916 Si / 1000 Ang^3
#
#
#
# Elastic Constant Matrix: (Units=GPa)
#
#
# Indices 1 2 3 4 5 6 
#
# 1 98.7234 36.9026 17.3586 0.0000 0.0000 0.0000
# 2 36.9026 102.6088 51.2191 0.0000 0.0000 0.0000
# 3 17.3586 51.2191 84.7258 0.0000 0.0000 0.0000
# 4 0.0000 0.0000 0.0000 9.7724 0.0000 0.0000
# 5 0.0000 0.0000 0.0000 0.0000 41.8674 0.0000
# 6 0.0000 0.0000 0.0000 0.0000 0.0000 22.1993
#
#
#
# Elastic Compliance Matrix: (Units=1/GPa)
#
#
# Indices 1 2 3 4 5 6 
#
# 1 0.011705 -0.004315 0.000210 0.000000 0.000000 0.000000
# 2 -0.004315 0.015548 -0.008515 0.000000 0.000000 0.000000
# 3 0.000210 -0.008515 0.016907 0.000000 0.000000 0.000000
# 4 0.000000 0.000000 0.000000 0.102329 0.000000 0.000000
# 5 0.000000 0.000000 0.000000 0.000000 0.023885 0.000000
# 6 0.000000 0.000000 0.000000 0.000000 0.000000 0.045046
#
#
# Mechanical properties :
#
#
# Convention : Reuss Voigt Hill
#
# Bulk Modulus (GPa) = 52.85071 55.22429 54.03750
# Shear Modulus (GPa) = 20.24563 26.80636 23.52599
#
# Velocity S-wave (km/s) = 3.14425 3.61801 3.38942
# Velocity P-wave (km/s) = 6.24417 6.66486 6.45794
#
# Compressibility (1/GPa) = 0.01892122
#
# Stress axis : x y z
#
# Youngs Moduli (GPa) = 85.43258 64.31697 59.14567
#
# Poissons Ratio (x) = 0.27750 -0.01243
# Poissons Ratio (y) = 0.36861 0.50364
# Poissons Ratio (z) = -0.01795 0.54767
#
# Static dielectric constant tensor:
#      x y z
#    x 1.723400 0.000000 0.000000 
#    y 0.000000 1.616320 0.000000 
#    z 0.000000 0.000000 1.734380 
# 
# From -- ./inp_files/14015.got.cif
#   From: 2010.05.17/outbox.cif.g08.bks.cpg/sg65_8_cif.got.tgz:14015.got - 2010.06.03 17:01:31.
