data_PCOD9492665
_publ_section_title
;
Structure prediction by ZEFSAII (Michael W. Deem and Ramdas Pophale) SiO2 
 PCOD9492665
Probable space group: C M M M
;
_chemical_formula_sum "Si O2"
_cell_formula_units_Z 104
_cell_length_a 26.760383
_cell_length_b 22.697965
_cell_length_c 7.787963
_cell_angle_alpha 90.000000
_cell_angle_beta 90.000000
_cell_angle_gamma 90.000000
_cell_volume 4730.457298
_symmetry_space_group_name_H-M "C M M M"
_symmetry_group_IT_number 65
_symmetry_cell_setting 'orthorhombic'
loop_
_space_group_symop_operation_xyz
x,y,z
-x,-y,z
x,-y,-z
-x,y,-z
-x,-y,-z
x,y,-z
-x,y,z
x,-y,z
1/2+x,1/2+y,z
1/2-x,1/2-y,z
1/2+x,1/2-y,-z
1/2-x,1/2+y,-z
1/2-x,1/2-y,-z
1/2+x,1/2+y,-z
1/2-x,1/2+y,z
1/2+x,1/2-y,z
loop_
_atom_site_type_symbol
_atom_site_label
_atom_site_fract_x
_atom_site_fract_y
_atom_site_fract_z
Si Si1 0.390388 0.235966 0.205062
Si Si2 0.000000 0.769276 0.797788
Si Si3 0.631975 0.102099 0.708237
Si Si4 0.109233 0.935420 0.301447
Si Si5 0.942778 0.500000 0.290080
Si Si6 0.000000 0.910201 0.201096
Si Si7 0.821993 0.162562 0.190956
Si Si8 0.241915 0.434523 0.705282
O O1 0.446547 0.247860 0.274664
O O2 0.377041 0.168410 0.232970
O O3 0.346828 0.279482 0.275705
O O4 0.392448 0.248785 0.000000
O O5 0.000000 0.839652 0.786654
O O6 0.000000 0.752129 0.000000
O O7 0.632411 0.101700 0.500000
O O8 0.685994 0.079205 0.767982
O O9 0.588353 0.057554 0.763928
O O10 0.124719 0.927244 0.500000
O O11 0.049944 0.933028 0.287593
O O12 0.131746 0.883022 0.192177
O O13 0.126224 0.000000 0.245025
O O14 0.943372 0.500000 0.500000
O O15 0.000000 0.500000 0.231612
O O16 0.000000 0.926471 0.000000
O O17 0.777983 0.120882 0.260318
O O18 0.805878 0.179492 0.000000
O O19 0.239625 0.438901 0.500000
O O20 0.257551 0.500000 0.769158
#
# Coordination Sequence:
#
# PCOD9492665 Si02
#       8
#    16   8  16  16   8   8  16  16
#     4  10  22  40  60  85 120 158 196 246 301 354
#     4   9  18  38  60  78 115 164 198 233 297 358
#     4  10  21  39  64  93 122 157 197 238 294 363
#     4  11  23  37  53  80 117 154 198 255 314 362
#     4   9  18  36  63  95 129 157 191 242 293 352
#     4  11  20  36  59  80 109 157 205 249 303 362
#     4  11  23  39  60  85 115 156 207 254 299 356
#     4  10  21  40  63  86 120 161 197 243 305 361
#
# _framework density 21.985188999999998
#
# number of rings (size 3 to 8) (size 9 to 14) (size 15 to 20)
#    0.000    1.769    2.308    1.846    1.077    6.769 
#    0.000    3.462    0.000    0.462    0.000    0.000 
#    0.000    0.000    0.000    0.000    0.000    0.000 
#
# Total GULP energy -290327.498110 kJ/mol
# GULP energy per Si atom -5583.221118 kJ/mol
# Density = 2.193515 g / cm^3
# Si number density = 21.985189 Si / 1000 Ang^3
#
#
#
# Elastic Constant Matrix: (Units=GPa)
#
#
# Indices 1 2 3 4 5 6 
#
# 1 175.8119 81.6453 4.3513 0.0000 0.0000 0.0000
# 2 81.6453 167.0363 7.7309 0.0000 0.0000 0.0000
# 3 4.3513 7.7309 31.0686 0.0000 0.0000 0.0000
# 4 0.0000 0.0000 0.0000 23.3796 0.0000 0.0000
# 5 0.0000 0.0000 0.0000 0.0000 -86.5693 0.0000
# 6 0.0000 0.0000 0.0000 0.0000 0.0000 -14.4765
#
#
#
# Elastic Compliance Matrix: (Units=1/GPa)
#
#
# Indices 1 2 3 4 5 6 
#
# 1 0.007359 -0.003590 -0.000137 0.000000 0.000000 0.000000
# 2 -0.003590 0.007808 -0.001440 0.000000 0.000000 0.000000
# 3 -0.000137 -0.001440 0.032564 0.000000 0.000000 0.000000
# 4 0.000000 0.000000 0.000000 0.042772 0.000000 0.000000
# 5 0.000000 0.000000 0.000000 0.000000 -0.011551 0.000000
# 6 0.000000 0.000000 0.000000 0.000000 0.000000 -0.069077
#
#
# Mechanical properties :
#
#
# Convention : Reuss Voigt Hill
#
# Bulk Modulus (GPa) = 26.74088 62.37461 44.55775
# Shear Modulus (GPa) = 153.01761 3.14603 78.08182
#
# Velocity S-wave (km/s) = 8.35173 1.19753 5.96597
# Velocity P-wave (km/s) = 10.25629 5.50862 8.23214
#
# Compressibility (1/GPa) = 0.03739593
#
# Stress axis : x y z
#
# Youngs Moduli (GPa) = 135.89405 128.06795 30.70834
#
# Poissons Ratio (x) = 0.45983 0.00421
# Poissons Ratio (y) = 0.48792 0.04422
# Poissons Ratio (z) = 0.01864 0.18443
#
# Static dielectric constant tensor:
#      x y z
#    x 1.816290 0.000000 0.000000 
#    y 0.000000 1.772250 0.000000 
#    z 0.000000 0.000000 1.830980 
# 
# From -- ./inp_files/16563.got.cif
#   From: 2010.05.17/outbox.cif.g08.bks.cpg/sg65_9_cif.got.tgz:16563.got - 2010.06.03 17:01:31.
