data_PCOD9492134
_publ_section_title
;
Structure prediction by ZEFSAII (Michael W. Deem and Ramdas Pophale) SiO2 
 PCOD9492134
Probable space group: C M M M
;
_chemical_formula_sum "Si O2"
_cell_formula_units_Z 88
_cell_length_a 23.315363
_cell_length_b 24.478239
_cell_length_c 8.957544
_cell_angle_alpha 90.000000
_cell_angle_beta 90.000000
_cell_angle_gamma 90.000000
_cell_volume 5112.240804
_symmetry_space_group_name_H-M "C M M M"
_symmetry_group_IT_number 65
_symmetry_cell_setting 'orthorhombic'
loop_
_space_group_symop_operation_xyz
x,y,z
-x,-y,z
x,-y,-z
-x,y,-z
-x,-y,-z
x,y,-z
-x,y,z
x,-y,z
1/2+x,1/2+y,z
1/2-x,1/2-y,z
1/2+x,1/2-y,-z
1/2-x,1/2+y,-z
1/2-x,1/2-y,-z
1/2+x,1/2+y,-z
1/2-x,1/2+y,z
1/2+x,1/2-y,z
loop_
_atom_site_type_symbol
_atom_site_label
_atom_site_fract_x
_atom_site_fract_y
_atom_site_fract_z
Si Si1 0.340543 0.936027 0.177876
Si Si2 0.431664 0.269426 0.676782
Si Si3 0.933183 0.643006 0.320582
Si Si4 0.282144 0.435093 0.677206
Si Si5 0.000000 0.934574 0.676460
Si Si6 0.390109 0.623518 0.822338
O O1 0.390809 0.898100 0.239605
O O2 0.280307 0.922079 0.256468
O O3 0.352594 0.000000 0.210309
O O4 0.334764 0.930068 0.000000
O O5 0.420604 0.277352 0.500000
O O6 0.500000 0.277826 0.699436
O O7 0.419279 0.206361 0.714461
O O8 0.397945 0.313929 0.771028
O O9 0.928241 0.636935 0.500000
O O10 0.000000 0.633586 0.281441
O O11 0.283268 0.424994 0.500000
O O12 0.292045 0.500000 0.701227
O O13 0.331901 0.401673 0.757643
O O14 0.943631 0.909140 0.751116
O O15 0.000000 0.921335 0.500000
O O16 0.000000 0.000000 0.692617
O O17 0.391727 0.618865 0.000000
#
# Coordination Sequence:
#
# PCOD9492134 Si02
#       6
#    16  16  16  16   8  16
#     4  10  21  37  57  83 115 147 178 221 278 332
#     4   9  18  35  57  78 107 147 187 227 272 326
#     4   9  19  36  59  86 112 144 185 226 269 321
#     4  10  21  38  59  79 104 145 190 228 272 330
#     4  11  23  37  53  75 107 147 190 233 274 321
#     4  12  23  34  53  82 112 143 182 230 282 330
#
# _framework density 17.213585999999999
#
# number of rings (size 3 to 8) (size 9 to 14) (size 15 to 20)
#    0.000    1.909    0.909    4.636    0.000    6.545 
#    0.000    4.545    0.000    5.455    0.000    0.000 
#    0.000    0.000    0.000    0.000    0.000    0.000 
#
# Total GULP energy -245768.574183 kJ/mol
# GULP energy per Si atom -5585.649413 kJ/mol
# Density = 1.717441 g / cm^3
# Si number density = 17.213586 Si / 1000 Ang^3
#
#
#
# Elastic Constant Matrix: (Units=GPa)
#
#
# Indices 1 2 3 4 5 6 
#
# 1 134.4957 97.6354 87.3348 0.0000 0.0000 0.0000
# 2 97.6354 106.5334 83.8557 0.0000 0.0000 0.0000
# 3 87.3348 83.8557 111.5043 0.0000 0.0000 0.0000
# 4 0.0000 0.0000 0.0000 22.9189 0.0000 0.0000
# 5 0.0000 0.0000 0.0000 0.0000 -2.1693 0.0000
# 6 0.0000 0.0000 0.0000 0.0000 0.0000 16.3889
#
#
#
# Elastic Compliance Matrix: (Units=1/GPa)
#
#
# Indices 1 2 3 4 5 6 
#
# 1 0.023474 -0.017256 -0.005408 0.000000 0.000000 0.000000
# 2 -0.017256 0.035690 -0.013324 0.000000 0.000000 0.000000
# 3 -0.005408 -0.013324 0.023225 0.000000 0.000000 0.000000
# 4 0.000000 0.000000 0.000000 0.043632 0.000000 0.000000
# 5 0.000000 0.000000 0.000000 0.000000 -0.460984 0.000000
# 6 0.000000 0.000000 0.000000 0.000000 0.000000 0.061017
#
#
# Mechanical properties :
#
#
# Convention : Reuss Voigt Hill
#
# Bulk Modulus (GPa) = 96.05640 98.90950 97.48295
# Shear Modulus (GPa) = -25.18918 13.00821 -6.09049
#
# Velocity S-wave (km/s) = -3.82950 2.75197 -1.88305
# Velocity P-wave (km/s) = 6.03078 8.22695 7.21294
#
# Compressibility (1/GPa) = 0.01041055
#
# Stress axis : x y z
#
# Youngs Moduli (GPa) = 42.59981 28.01930 43.05768
#
# Poissons Ratio (x) = 0.48351 0.23288
# Poissons Ratio (y) = 0.73512 0.57370
# Poissons Ratio (z) = 0.23040 0.37333
#
# Static dielectric constant tensor:
#      x y z
#    x 1.548200 0.000000 0.000000 
#    y 0.000000 1.577440 0.000000 
#    z 0.000000 0.000000 1.568490 
# 
# From -- ./inp_files/11702.got.cif
#   From: 2010.05.17/outbox.cif.g08.bks.cpg/sg65_6_cif.got.tgz:11702.got - 2010.06.03 17:01:31.
