data_PCOD9492656
_publ_section_title
;
Structure prediction by ZEFSAII (Michael W. Deem and Ramdas Pophale) SiO2 
 PCOD9492656
Probable space group: C M M M
;
_chemical_formula_sum "Si O2"
_cell_formula_units_Z 72
_cell_length_a 15.160874
_cell_length_b 9.075912
_cell_length_c 26.477098
_cell_angle_alpha 90.000000
_cell_angle_beta 90.000000
_cell_angle_gamma 90.000000
_cell_volume 3643.215807
_symmetry_space_group_name_H-M "C M M M"
_symmetry_group_IT_number 65
_symmetry_cell_setting 'orthorhombic'
loop_
_space_group_symop_operation_xyz
x,y,z
-x,-y,z
x,-y,-z
-x,y,-z
-x,-y,-z
x,y,-z
-x,y,z
x,-y,z
1/2+x,1/2+y,z
1/2-x,1/2-y,z
1/2+x,1/2-y,-z
1/2-x,1/2+y,-z
1/2-x,1/2-y,-z
1/2+x,1/2+y,-z
1/2-x,1/2+y,z
1/2+x,1/2-y,z
loop_
_atom_site_type_symbol
_atom_site_label
_atom_site_fract_x
_atom_site_fract_y
_atom_site_fract_z
Si Si1 0.500000 0.325198 0.560291
Si Si2 0.107707 0.171108 0.945294
Si Si3 0.604789 0.834731 0.846357
Si Si4 0.847554 0.321966 0.624221
Si Si5 0.154729 0.322352 0.263787
O O1 0.500000 0.500000 0.571889
O O2 0.500000 0.307968 0.500000
O O3 0.585697 0.248002 0.584402
O O4 0.140239 0.247115 0.894347
O O5 0.000000 0.176129 0.944714
O O6 0.132359 0.000000 0.944141
O O7 0.134968 0.235011 0.000000
O O8 0.500000 0.845034 0.853711
O O9 0.615785 0.772089 0.789849
O O10 0.642273 0.000000 0.847169
O O11 0.841665 0.500000 0.619051
O O12 0.750000 0.250000 0.619850
O O13 0.884387 0.288331 0.681020
O O14 0.157984 0.500000 0.261854
O O15 0.250000 0.250000 0.265328
#
# Coordination Sequence:
#
# PCOD9492656 Si02
#       5
#     8  16  16  16  16
#     4  11  25  43  63  91 125 159 200 247 290 339
#     4   8  14  25  40  60  90 125 161 205 257 311
#     4   9  17  28  45  70  98 127 163 208 259 315
#     4  10  21  39  64  90 121 160 200 243 294 350
#     4   9  19  34  53  76 105 139 174 215 267 323
#
# _framework density 19.76276
#
# number of rings (size 3 to 8) (size 9 to 14) (size 15 to 20)
#    0.000    2.778    0.000    1.667    1.556    3.556 
#    0.000    2.222    0.000    0.667    0.000    0.000 
#    0.000    0.000    0.000    0.000    0.000    0.000 
#
# Total GULP energy -200483.255596 kJ/mol
# GULP energy per Si atom -5568.979322 kJ/mol
# Density = 1.971778 g / cm^3
# Si number density = 19.762760 Si / 1000 Ang^3
#
#
#
# Elastic Constant Matrix: (Units=GPa)
#
#
# Indices 1 2 3 4 5 6 
#
# 1 57.5273 27.9400 47.8840 0.0000 0.0000 0.0000
# 2 27.9400 59.2018 78.9436 0.0000 0.0000 0.0000
# 3 47.8840 78.9436 185.4976 0.0000 0.0000 0.0000
# 4 0.0000 0.0000 0.0000 1.5894 0.0000 0.0000
# 5 0.0000 0.0000 0.0000 0.0000 108.4473 0.0000
# 6 0.0000 0.0000 0.0000 0.0000 0.0000 18.5316
#
#
#
# Elastic Compliance Matrix: (Units=1/GPa)
#
#
# Indices 1 2 3 4 5 6 
#
# 1 0.023292 -0.006878 -0.003085 0.000000 0.000000 0.000000
# 2 -0.006878 0.041086 -0.015710 0.000000 0.000000 0.000000
# 3 -0.003085 -0.015710 0.012873 0.000000 0.000000 0.000000
# 4 0.000000 0.000000 0.000000 0.629169 0.000000 0.000000
# 5 0.000000 0.000000 0.000000 0.000000 0.009221 0.000000
# 6 0.000000 0.000000 0.000000 0.000000 0.000000 0.053962
#
#
# Mechanical properties :
#
#
# Convention : Reuss Voigt Hill
#
# Bulk Modulus (GPa) = 38.60385 67.97355 53.28870
# Shear Modulus (GPa) = 6.02712 35.54428 20.78570
#
# Velocity S-wave (km/s) = 1.74824 4.24553 3.24660
# Velocity P-wave (km/s) = 4.86325 7.64867 6.40911
#
# Compressibility (1/GPa) = 0.02590415
#
# Stress axis : x y z
#
# Youngs Moduli (GPa) = 42.93354 24.33920 77.68197
#
# Poissons Ratio (x) = 0.16742 0.23966
# Poissons Ratio (y) = 0.29532 1.22036
# Poissons Ratio (z) = 0.13246 0.38236
#
# Static dielectric constant tensor:
#      x y z
#    x 1.703950 0.000000 0.000000 
#    y 0.000000 1.685290 0.000000 
#    z 0.000000 0.000000 1.747240 
# 
# From -- ./inp_files/72527.got.cif
#   From: 2010.05.17/outbox.cif.g08.bks.cpg/sg65_37_cif.got.tgz:72527.got - 2010.06.03 17:01:31.
