data_PCOD9492221
_publ_section_title
;
Structure prediction by ZEFSAII (Michael W. Deem and Ramdas Pophale) SiO2 
 PCOD9492221
Probable space group: C M M M
;
_chemical_formula_sum "Si O2"
_cell_formula_units_Z 42
_cell_length_a 14.333063
_cell_length_b 19.635282
_cell_length_c 8.740215
_cell_angle_alpha 90.000000
_cell_angle_beta 90.000000
_cell_angle_gamma 90.000000
_cell_volume 2459.791343
_symmetry_space_group_name_H-M "C M M M"
_symmetry_group_IT_number 65
_symmetry_cell_setting 'orthorhombic'
loop_
_space_group_symop_operation_xyz
x,y,z
-x,-y,z
x,-y,-z
-x,y,-z
-x,-y,-z
x,y,-z
-x,y,z
x,-y,z
1/2+x,1/2+y,z
1/2-x,1/2-y,z
1/2+x,1/2-y,-z
1/2-x,1/2+y,-z
1/2-x,1/2-y,-z
1/2+x,1/2+y,-z
1/2-x,1/2+y,z
1/2+x,1/2-y,z
loop_
_atom_site_type_symbol
_atom_site_label
_atom_site_fract_x
_atom_site_fract_y
_atom_site_fract_z
Si Si1 0.306042 0.500000 0.669443
Si Si2 0.733087 0.644310 0.817432
Si Si3 0.109087 0.737820 0.683544
Si Si4 0.500000 0.500000 0.500000
O O1 0.260174 0.500000 0.500000
O O2 0.278645 0.432024 0.758328
O O3 0.416384 0.500000 0.630785
O O4 0.828567 0.678542 0.757350
O O5 0.651728 0.691683 0.746321
O O6 0.729636 0.648105 0.000000
O O7 0.120568 0.736642 0.500000
O O8 0.000000 0.731896 0.719408
#
# Coordination Sequence:
#
# PCOD9492221 Si02
#       4
#     8  16  16   2
#     4  10  21  39  58  80 110 146 189 225 268 334
#     4  11  22  36  56  85 116 147 181 232 286 328
#     4  10  21  37  59  82 110 149 193 229 271 330
#     4   8  24  36  62  80 110 152 194 214 280 328
#
# _framework density 17.074618000000001
#
# number of rings (size 3 to 8) (size 9 to 14) (size 15 to 20)
#    0.571    1.143    0.000    7.429    2.667    3.048 
#    0.000    1.905    0.000    5.714    0.000    0.000 
#    0.000    0.000    0.000    0.000    0.000    0.000 
#
# Total GULP energy -116930.865276 kJ/mol
# GULP energy per Si atom -5568.136442 kJ/mol
# Density = 1.703576 g / cm^3
# Si number density = 17.074618 Si / 1000 Ang^3
#
#
#
# Elastic Constant Matrix: (Units=GPa)
#
#
# Indices 1 2 3 4 5 6 
#
# 1 120.4843 64.4985 54.6908 0.0000 0.0000 0.0000
# 2 64.4985 157.0637 51.5275 0.0000 0.0000 0.0000
# 3 54.6908 51.5275 115.5825 0.0000 0.0000 0.0000
# 4 0.0000 0.0000 0.0000 32.0653 0.0000 0.0000
# 5 0.0000 0.0000 0.0000 0.0000 -9.5315 0.0000
# 6 0.0000 0.0000 0.0000 0.0000 0.0000 1.5686
#
#
#
# Elastic Compliance Matrix: (Units=1/GPa)
#
#
# Indices 1 2 3 4 5 6 
#
# 1 0.012106 -0.003622 -0.004114 0.000000 0.000000 0.000000
# 2 -0.003622 0.008541 -0.002094 0.000000 0.000000 0.000000
# 3 -0.004114 -0.002094 0.011532 0.000000 0.000000 0.000000
# 4 0.000000 0.000000 0.000000 0.031186 0.000000 0.000000
# 5 0.000000 0.000000 0.000000 0.000000 -0.104916 0.000000
# 6 0.000000 0.000000 0.000000 0.000000 0.000000 0.637524
#
#
# Mechanical properties :
#
#
# Convention : Reuss Voigt Hill
#
# Bulk Modulus (GPa) = 79.87135 81.61825 80.74480
# Shear Modulus (GPa) = 8.06704 19.64805 13.85754
#
# Velocity S-wave (km/s) = 2.17597 3.39590 2.85193
# Velocity P-wave (km/s) = 7.29332 7.95493 7.63130
#
# Compressibility (1/GPa) = 0.01252013
#
# Stress axis : x y z
#
# Youngs Moduli (GPa) = 82.60401 117.08101 86.71687
#
# Poissons Ratio (x) = 0.42404 0.35672
# Poissons Ratio (y) = 0.29917 0.18158
# Poissons Ratio (z) = 0.33980 0.24516
#
# Static dielectric constant tensor:
#      x y z
#    x 1.560030 0.000000 0.000000 
#    y 0.000000 1.557800 0.000000 
#    z 0.000000 0.000000 1.577850 
# 
# From -- ./inp_files/5730.got.cif
#   From: 2010.05.17/outbox.cif.g08.bks.cpg/sg65_3_cif.got.tgz:5730.got - 2010.06.03 17:01:31.
