data_PCOD9492075
_publ_section_title
;
Structure prediction by ZEFSAII (Michael W. Deem and Ramdas Pophale) SiO2 
 PCOD9492075
Probable space group: C M M M
;
_chemical_formula_sum "Si O2"
_cell_formula_units_Z 72
_cell_length_a 7.781131
_cell_length_b 18.619501
_cell_length_c 24.017917
_cell_angle_alpha 90.000000
_cell_angle_beta 90.000000
_cell_angle_gamma 90.000000
_cell_volume 3479.734463
_symmetry_space_group_name_H-M "C M M M"
_symmetry_group_IT_number 65
_symmetry_cell_setting 'orthorhombic'
loop_
_space_group_symop_operation_xyz
x,y,z
-x,-y,z
x,-y,-z
-x,y,-z
-x,-y,-z
x,y,-z
-x,y,z
x,-y,z
1/2+x,1/2+y,z
1/2-x,1/2-y,z
1/2+x,1/2-y,-z
1/2-x,1/2+y,-z
1/2-x,1/2-y,-z
1/2+x,1/2+y,-z
1/2-x,1/2+y,z
1/2+x,1/2-y,z
loop_
_atom_site_type_symbol
_atom_site_label
_atom_site_fract_x
_atom_site_fract_y
_atom_site_fract_z
Si Si1 0.204510 0.166372 0.220019
Si Si2 0.206896 0.833338 0.562134
Si Si3 0.792629 0.666132 0.000000
Si Si4 0.710651 0.417250 0.670718
Si Si5 0.705526 0.081520 0.891471
O O1 0.250000 0.250000 0.217390
O O2 0.270781 0.129012 0.276441
O O3 0.263002 0.123902 0.165433
O O4 0.000000 0.160983 0.221562
O O5 0.271155 0.852059 0.500000
O O6 0.250000 0.750000 0.572535
O O7 0.269539 0.882067 0.612799
O O8 0.000000 0.839558 0.560929
O O9 0.750000 0.750000 0.000000
O O10 0.727934 0.626045 0.055459
O O11 0.000000 0.661211 0.000000
O O12 0.500000 0.415821 0.670463
O O13 0.762671 0.500000 0.675799
O O14 0.500000 0.076623 0.898315
O O15 0.773600 0.000000 0.889314
#
# Coordination Sequence:
#
# PCOD9492075 Si02
#       5
#    16  16   8  16  16
#     4  11  22  36  55  78 106 140 177 217 262 312
#     4   9  17  30  50  74  99 130 168 209 253 303
#     4  10  21  37  57  81 109 142 177 214 258 306
#     4   9  18  32  50  74 103 133 168 213 261 306
#     4  10  21  38  59  82 109 140 175 216 262 311
#
# _framework density 20.691234000000001
#
# number of rings (size 3 to 8) (size 9 to 14) (size 15 to 20)
#    0.000    2.222    0.000    3.000    0.000    5.778 
#    0.000    3.333    0.000    5.333    0.000    3.111 
#    0.000    0.000    0.000    0.000    0.000    0.000 
#
# Total GULP energy -201109.297138 kJ/mol
# GULP energy per Si atom -5586.369365 kJ/mol
# Density = 2.064414 g / cm^3
# Si number density = 20.691234 Si / 1000 Ang^3
#
#
#
# Elastic Constant Matrix: (Units=GPa)
#
#
# Indices 1 2 3 4 5 6 
#
# 1 28.7694 2.5635 7.0346 0.0000 0.0000 0.0000
# 2 2.5635 212.3539 146.1213 0.0000 0.0000 0.0000
# 3 7.0346 146.1213 215.7258 0.0000 0.0000 0.0000
# 4 0.0000 0.0000 0.0000 18.1924 0.0000 0.0000
# 5 0.0000 0.0000 0.0000 0.0000 21.3994 0.0000
# 6 0.0000 0.0000 0.0000 0.0000 0.0000 17.8088
#
#
#
# Elastic Compliance Matrix: (Units=1/GPa)
#
#
# Indices 1 2 3 4 5 6 
#
# 1 0.035091 0.000681 -0.001606 0.000000 0.000000 0.000000
# 2 0.000681 0.008833 -0.006005 0.000000 0.000000 0.000000
# 3 -0.001606 -0.006005 0.008756 0.000000 0.000000 0.000000
# 4 0.000000 0.000000 0.000000 0.054968 0.000000 0.000000
# 5 0.000000 0.000000 0.000000 0.000000 0.046730 0.000000
# 6 0.000000 0.000000 0.000000 0.000000 0.000000 0.056152
#
#
# Mechanical properties :
#
#
# Convention : Reuss Voigt Hill
#
# Bulk Modulus (GPa) = 25.75977 85.36532 55.56254
# Shear Modulus (GPa) = 21.06770 31.55542 26.31156
#
# Velocity S-wave (km/s) = 3.19438 3.90944 3.56986
# Velocity P-wave (km/s) = 5.10706 7.85650 6.62596
#
# Compressibility (1/GPa) = 0.03882023
#
# Stress axis : x y z
#
# Youngs Moduli (GPa) = 28.49729 113.20919 114.21267
#
# Poissons Ratio (x) = -0.07713 0.18340
# Poissons Ratio (y) = -0.01942 0.68589
# Poissons Ratio (z) = 0.04576 0.67986
#
# Static dielectric constant tensor:
#      x y z
#    x 1.768400 0.000000 0.000000 
#    y 0.000000 1.685410 0.000000 
#    z 0.000000 0.000000 1.731140 
# 
# From -- ./inp_files/67119.got.cif
#   From: 2010.05.17/outbox.cif.g08.bks.cpg/sg65_34_cif.got.tgz:67119.got - 2010.06.03 17:01:31.
