data_PCOD9492292
_publ_section_title
;
Structure prediction by ZEFSAII (Michael W. Deem and Ramdas Pophale) SiO2 
 PCOD9492292
Probable space group: C M M M
;
_chemical_formula_sum "Si O2"
_cell_formula_units_Z 72
_cell_length_a 18.266405
_cell_length_b 9.618241
_cell_length_c 21.933989
_cell_angle_alpha 90.000000
_cell_angle_beta 90.000000
_cell_angle_gamma 90.000000
_cell_volume 3853.597563
_symmetry_space_group_name_H-M "C M M M"
_symmetry_group_IT_number 65
_symmetry_cell_setting 'orthorhombic'
loop_
_space_group_symop_operation_xyz
x,y,z
-x,-y,z
x,-y,-z
-x,y,-z
-x,-y,-z
x,y,-z
-x,y,z
x,-y,z
1/2+x,1/2+y,z
1/2-x,1/2-y,z
1/2+x,1/2-y,-z
1/2-x,1/2+y,-z
1/2-x,1/2-y,-z
1/2+x,1/2+y,-z
1/2-x,1/2+y,z
1/2+x,1/2-y,z
loop_
_atom_site_type_symbol
_atom_site_label
_atom_site_fract_x
_atom_site_fract_y
_atom_site_fract_z
Si Si1 0.411829 0.500000 0.072762
Si Si2 0.917658 0.500000 0.928148
Si Si3 0.411587 0.663916 0.379666
Si Si4 0.172543 0.330895 0.276346
Si Si5 0.089032 0.662903 0.500000
Si Si6 0.162549 0.258207 0.137149
O O1 0.500000 0.500000 0.075420
O O2 0.377458 0.374833 0.110691
O O3 0.392392 0.500000 0.000000
O O4 0.871033 0.373173 0.905540
O O5 0.000000 0.500000 0.902216
O O6 0.923644 0.500000 0.000000
O O7 0.500000 0.663186 0.377842
O O8 0.388362 0.500000 0.378987
O O9 0.380640 0.755037 0.324065
O O10 0.388776 0.747693 0.440734
O O11 0.178144 0.500000 0.284055
O O12 0.250000 0.250000 0.283635
O O13 0.147166 0.297390 0.207394
O O14 0.113373 0.500000 0.500000
O O15 0.000000 0.658555 0.500000
O O16 0.250000 0.250000 0.131641
#
# Coordination Sequence:
#
# PCOD9492292 Si02
#       6
#     8   8  16  16   8  16
#     4  11  25  43  63  91 127 162 201 258 323 379
#     4  11  23  41  63  91 125 158 199 258 321 373
#     4  10  21  37  61  93 127 166 210 255 306 367
#     4  11  24  42  63  88 122 162 204 257 314 368
#     4   9  17  33  58  89 128 167 208 259 307 357
#     4  11  24  41  64  90 120 164 211 257 309 379
#
# _framework density 18.683841000000001
#
# number of rings (size 3 to 8) (size 9 to 14) (size 15 to 20)
#    0.000    1.444    1.111    3.667    6.222    8.889 
#    0.000    0.556    0.000    0.000    0.000    0.000 
#    0.000    0.000    0.000    0.000    0.000    0.000 
#
# Total GULP energy -200744.419496 kJ/mol
# GULP energy per Si atom -5576.233875 kJ/mol
# Density = 1.864132 g / cm^3
# Si number density = 18.683841 Si / 1000 Ang^3
#
#
#
# Elastic Constant Matrix: (Units=GPa)
#
#
# Indices 1 2 3 4 5 6 
#
# 1 52.8150 48.2046 61.6880 0.0000 0.0000 0.0000
# 2 48.2046 230.7618 87.4229 0.0000 0.0000 0.0000
# 3 61.6880 87.4229 137.5220 0.0000 0.0000 0.0000
# 4 0.0000 0.0000 0.0000 37.4918 0.0000 0.0000
# 5 0.0000 0.0000 0.0000 0.0000 50.3274 0.0000
# 6 0.0000 0.0000 0.0000 0.0000 0.0000 40.5603
#
#
#
# Elastic Compliance Matrix: (Units=1/GPa)
#
#
# Indices 1 2 3 4 5 6 
#
# 1 0.040515 -0.002079 -0.016852 0.000000 0.000000 0.000000
# 2 -0.002079 0.005815 -0.002764 0.000000 0.000000 0.000000
# 3 -0.016852 -0.002764 0.016588 0.000000 0.000000 0.000000
# 4 0.000000 0.000000 0.000000 0.026672 0.000000 0.000000
# 5 0.000000 0.000000 0.000000 0.000000 0.019870 0.000000
# 6 0.000000 0.000000 0.000000 0.000000 0.000000 0.024655
#
#
# Mechanical properties :
#
#
# Convention : Reuss Voigt Hill
#
# Bulk Modulus (GPa) = 51.20960 90.63665 70.92313
# Shear Modulus (GPa) = 27.17192 40.59481 33.88336
#
# Velocity S-wave (km/s) = 3.81767 4.66630 4.26315
# Velocity P-wave (km/s) = 6.84841 8.81184 7.89143
#
# Compressibility (1/GPa) = 0.01952759
#
# Stress axis : x y z
#
# Youngs Moduli (GPa) = 24.68241 171.97306 60.28488
#
# Poissons Ratio (x) = 0.35752 1.01592
# Poissons Ratio (y) = 0.05131 0.16663
# Poissons Ratio (z) = 0.41595 0.47533
#
# Static dielectric constant tensor:
#      x y z
#    x 1.630300 0.000000 0.000000 
#    y 0.000000 1.599490 0.000000 
#    z 0.000000 0.000000 1.639750 
# 
# From -- ./inp_files/64388.got.cif
#   From: 2010.05.17/outbox.cif.g08.bks.cpg/sg65_33_cif.got.tgz:64388.got - 2010.06.03 17:01:31.
