data_PCOD9492446
_publ_section_title
;
Structure prediction by ZEFSAII (Michael W. Deem and Ramdas Pophale) SiO2 
 PCOD9492446
Probable space group: C M M M
;
_chemical_formula_sum "Si O2"
_cell_formula_units_Z 64
_cell_length_a 18.152609
_cell_length_b 24.863728
_cell_length_c 7.344756
_cell_angle_alpha 90.000000
_cell_angle_beta 90.000000
_cell_angle_gamma 90.000000
_cell_volume 3314.993430
_symmetry_space_group_name_H-M "C M M M"
_symmetry_group_IT_number 65
_symmetry_cell_setting 'orthorhombic'
loop_
_space_group_symop_operation_xyz
x,y,z
-x,-y,z
x,-y,-z
-x,y,-z
-x,-y,-z
x,y,-z
-x,y,z
x,-y,z
1/2+x,1/2+y,z
1/2-x,1/2-y,z
1/2+x,1/2-y,-z
1/2-x,1/2+y,-z
1/2-x,1/2-y,-z
1/2+x,1/2+y,-z
1/2-x,1/2+y,z
1/2+x,1/2-y,z
loop_
_atom_site_type_symbol
_atom_site_label
_atom_site_fract_x
_atom_site_fract_y
_atom_site_fract_z
Si Si1 0.412773 0.637703 0.500000
Si Si2 0.837735 0.746116 0.500000
Si Si3 0.335922 0.562366 0.217119
Si Si4 0.835443 0.559942 0.220763
Si Si5 0.913582 0.331034 0.218258
O O1 0.500000 0.644844 0.500000
O O2 0.372846 0.694938 0.500000
O O3 0.386080 0.603050 0.327079
O O4 0.750000 0.750000 0.500000
O O5 0.866948 0.712900 0.673872
O O6 0.354643 0.500000 0.256313
O O7 0.249963 0.569752 0.270331
O O8 0.341437 0.570150 0.000000
O O9 0.856902 0.500000 0.283300
O O10 0.885780 0.609668 0.275643
O O11 0.837189 0.558465 0.000000
O O12 0.000000 0.324747 0.258339
O O13 0.903536 0.326231 0.000000
#
# Coordination Sequence:
#
# PCOD9492446 Si02
#       5
#     8   8  16  16  16
#     4  12  25  38  56  83 111 141 184 235 284 337
#     4  12  26  43  62  81 108 151 201 245 281 334
#     4   9  19  37  59  83 114 149 184 226 275 330
#     4   8  15  31  57  87 116 149 190 228 268 330
#     4  10  21  38  60  86 119 153 184 231 292 343
#
# _framework density 19.306222000000002
#
# number of rings (size 3 to 8) (size 9 to 14) (size 15 to 20)
#    0.000    2.250    0.000    4.500    0.000    3.500 
#    0.000    5.625    0.000    1.500    0.000    0.000 
#    0.000    0.000    0.000    0.000    0.000    0.000 
#
# Total GULP energy -178787.445099 kJ/mol
# GULP energy per Si atom -5587.107659 kJ/mol
# Density = 1.926228 g / cm^3
# Si number density = 19.306222 Si / 1000 Ang^3
#
#
#
# Elastic Constant Matrix: (Units=GPa)
#
#
# Indices 1 2 3 4 5 6 
#
# 1 160.3402 112.5060 57.0170 0.0000 0.0000 0.0000
# 2 112.5060 159.6769 60.9754 0.0000 0.0000 0.0000
# 3 57.0170 60.9754 90.0324 0.0000 0.0000 0.0000
# 4 0.0000 0.0000 0.0000 38.7055 0.0000 0.0000
# 5 0.0000 0.0000 0.0000 0.0000 17.1175 0.0000
# 6 0.0000 0.0000 0.0000 0.0000 0.0000 -152.0735
#
#
#
# Elastic Compliance Matrix: (Units=1/GPa)
#
#
# Indices 1 2 3 4 5 6 
#
# 1 0.012802 -0.007991 -0.002696 0.000000 0.000000 0.000000
# 2 -0.007991 0.013435 -0.004038 0.000000 0.000000 0.000000
# 3 -0.002696 -0.004038 0.015549 0.000000 0.000000 0.000000
# 4 0.000000 0.000000 0.000000 0.025836 0.000000 0.000000
# 5 0.000000 0.000000 0.000000 0.000000 0.058420 0.000000
# 6 0.000000 0.000000 0.000000 0.000000 0.000000 -0.006576
#
#
# Mechanical properties :
#
#
# Convention : Reuss Voigt Hill
#
# Bulk Modulus (GPa) = 81.05941 96.78294 88.92118
# Shear Modulus (GPa) = 32.67347 -7.28002 12.69672
#
# Velocity S-wave (km/s) = 4.11832 -1.94397 2.56725
# Velocity P-wave (km/s) = 8.04309 6.72314 7.41256
#
# Compressibility (1/GPa) = 0.01233663
#
# Stress axis : x y z
#
# Youngs Moduli (GPa) = 78.11067 74.43191 64.31129
#
# Poissons Ratio (x) = 0.59478 0.17336
# Poissons Ratio (y) = 0.62418 0.25972
# Poissons Ratio (z) = 0.21056 0.30059
#
# Static dielectric constant tensor:
#      x y z
#    x 1.634710 0.000000 0.000000 
#    y 0.000000 1.646540 0.000000 
#    z 0.000000 0.000000 1.710640 
# 
# From -- ./inp_files/6759.got.cif
#   From: 2010.05.17/outbox.cif.g08.bks.cpg/sg65_4_cif.got.tgz:6759.got - 2010.06.03 17:01:31.
