data_PCOD9492853
_publ_section_title
;
Structure prediction by ZEFSAII (Michael W. Deem and Ramdas Pophale) SiO2 
 PCOD9492853
Probable space group: C M M M
;
_chemical_formula_sum "Si O2"
_cell_formula_units_Z 80
_cell_length_a 13.872428
_cell_length_b 30.608568
_cell_length_c 9.519141
_cell_angle_alpha 90.000000
_cell_angle_beta 90.000000
_cell_angle_gamma 90.000000
_cell_volume 4041.971538
_symmetry_space_group_name_H-M "C M M M"
_symmetry_group_IT_number 65
_symmetry_cell_setting 'orthorhombic'
loop_
_space_group_symop_operation_xyz
x,y,z
-x,-y,z
x,-y,-z
-x,y,-z
-x,-y,-z
x,y,-z
-x,y,z
x,-y,z
1/2+x,1/2+y,z
1/2-x,1/2-y,z
1/2+x,1/2-y,-z
1/2-x,1/2+y,-z
1/2-x,1/2-y,-z
1/2+x,1/2+y,-z
1/2-x,1/2+y,z
1/2+x,1/2-y,z
loop_
_atom_site_type_symbol
_atom_site_label
_atom_site_fract_x
_atom_site_fract_y
_atom_site_fract_z
Si Si1 0.609872 0.405948 0.333354
Si Si2 0.301333 0.048509 0.332383
Si Si3 0.886783 0.724503 0.170907
Si Si4 0.116238 0.628932 0.837995
Si Si5 0.882360 0.819785 0.162186
O O1 0.610662 0.396865 0.500000
O O2 0.500000 0.416913 0.292851
O O3 0.687444 0.443551 0.307456
O O4 0.641240 0.362238 0.252085
O O5 0.317855 0.051448 0.500000
O O6 0.352760 0.088239 0.254894
O O7 0.330540 0.000000 0.285518
O O8 0.847875 0.676875 0.212810
O O9 0.848106 0.772076 0.214650
O O10 0.000000 0.724426 0.210681
O O11 0.882720 0.724936 0.000000
O O12 0.000000 0.631301 0.838560
O O13 0.146974 0.622641 0.000000
O O14 0.000000 0.817655 0.161734
O O15 0.852023 0.824993 0.000000
#
# Coordination Sequence:
#
# PCOD9492853 Si02
#       5
#    16  16  16  16  16
#     4   9  18  33  52  73  98 129 166 207 248 291
#     4  10  22  38  53  71  97 129 166 209 256 302
#     4   7  11  23  45  72 100 129 160 193 231 281
#     4   9  18  34  56  79 102 130 165 203 242 288
#     4   8  13  24  46  74 101 129 160 194 236 288
#
# _framework density 19.792321000000001
#
# number of rings (size 3 to 8) (size 9 to 14) (size 15 to 20)
#    0.000    3.400    0.000    2.400    0.000    2.400 
#    0.000    6.000    0.000    9.600    0.000    4.200 
#    0.000    0.000    0.000    0.000    0.000    0.000 
#
# Total GULP energy -222945.817991 kJ/mol
# GULP energy per Si atom -5573.645450 kJ/mol
# Density = 1.974727 g / cm^3
# Si number density = 19.792321 Si / 1000 Ang^3
#
#
#
# Elastic Constant Matrix: (Units=GPa)
#
#
# Indices 1 2 3 4 5 6 
#
# 1 41.6893 13.4971 7.7184 0.0000 0.0000 0.0000
# 2 13.4971 144.9802 34.8869 0.0000 0.0000 0.0000
# 3 7.7184 34.8869 15.5261 0.0000 0.0000 0.0000
# 4 0.0000 0.0000 0.0000 31.3575 0.0000 0.0000
# 5 0.0000 0.0000 0.0000 0.0000 11.1244 0.0000
# 6 0.0000 0.0000 0.0000 0.0000 0.0000 26.2320
#
#
#
# Elastic Compliance Matrix: (Units=1/GPa)
#
#
# Indices 1 2 3 4 5 6 
#
# 1 0.026574 0.001535 -0.016659 0.000000 0.000000 0.000000
# 2 0.001535 0.015106 -0.034706 0.000000 0.000000 0.000000
# 3 -0.016659 -0.034706 0.150674 0.000000 0.000000 0.000000
# 4 0.000000 0.000000 0.000000 0.031890 0.000000 0.000000
# 5 0.000000 0.000000 0.000000 0.000000 0.089893 0.000000
# 6 0.000000 0.000000 0.000000 0.000000 0.000000 0.038121
#
#
# Mechanical properties :
#
#
# Convention : Reuss Voigt Hill
#
# Bulk Modulus (GPa) = 10.78833 34.93338 22.86085
# Shear Modulus (GPa) = 10.35588 23.48232 16.91910
#
# Velocity S-wave (km/s) = 2.28990 3.44820 2.92692
# Velocity P-wave (km/s) = 3.52904 5.79153 4.79562
#
# Compressibility (1/GPa) = 0.09269274
#
# Stress axis : x y z
#
# Youngs Moduli (GPa) = 37.63023 66.19883 6.63686
#
# Poissons Ratio (x) = -0.10160 0.11057
# Poissons Ratio (y) = -0.05776 0.23034
# Poissons Ratio (z) = 0.62690 2.29750
#
# Static dielectric constant tensor:
#      x y z
#    x 1.787820 0.000000 0.000000 
#    y 0.000000 1.694880 0.000000 
#    z 0.000000 0.000000 1.645410 
# 
# From -- ./inp_files/25286.got.cif
#   From: 2010.05.17/outbox.cif.g08.bks.cpg/sg65_13_cif.got.tgz:25286.got - 2010.06.03 17:01:31.
