data_PCOD9492211
_publ_section_title
;
Structure prediction by ZEFSAII (Michael W. Deem and Ramdas Pophale) SiO2 
 PCOD9492211
Probable space group: C M M M
;
_chemical_formula_sum "Si O2"
_cell_formula_units_Z 88
_cell_length_a 21.292387
_cell_length_b 8.824235
_cell_length_c 24.023020
_cell_angle_alpha 90.000000
_cell_angle_beta 90.000000
_cell_angle_gamma 90.000000
_cell_volume 4513.661844
_symmetry_space_group_name_H-M "C M M M"
_symmetry_group_IT_number 65
_symmetry_cell_setting 'orthorhombic'
loop_
_space_group_symop_operation_xyz
x,y,z
-x,-y,z
x,-y,-z
-x,y,-z
-x,-y,-z
x,y,-z
-x,y,z
x,-y,z
1/2+x,1/2+y,z
1/2-x,1/2-y,z
1/2+x,1/2-y,-z
1/2-x,1/2+y,-z
1/2-x,1/2-y,-z
1/2+x,1/2+y,-z
1/2-x,1/2+y,z
1/2+x,1/2-y,z
loop_
_atom_site_type_symbol
_atom_site_label
_atom_site_fract_x
_atom_site_fract_y
_atom_site_fract_z
Si Si1 0.682750 0.180257 0.066265
Si Si2 0.867059 0.320038 0.565524
Si Si3 0.500000 0.327167 0.567320
Si Si4 0.570763 0.181692 0.261987
Si Si5 0.071393 0.181039 0.138602
Si Si6 0.185783 0.820687 0.670460
O O1 0.750000 0.250000 0.083390
O O2 0.625110 0.255336 0.098669
O O3 0.683263 0.000000 0.075858
O O4 0.675854 0.207128 0.000000
O O5 0.856805 0.289036 0.500000
O O6 0.861835 0.500000 0.574447
O O7 0.937119 0.263792 0.580951
O O8 0.821717 0.230810 0.606449
O O9 0.500000 0.500000 0.589239
O O10 0.500000 0.337797 0.500000
O O11 0.500000 0.222988 0.281320
O O12 0.576844 0.240400 0.198801
O O13 0.625504 0.255355 0.297866
O O14 0.576163 0.000000 0.263691
O O15 0.000000 0.211167 0.118005
O O16 0.078142 0.000000 0.144896
O O17 0.250000 0.750000 0.693289
O O18 0.187506 0.000000 0.674683
#
# Coordination Sequence:
#
# PCOD9492211 Si02
#       6
#    16  16   8  16  16  16
#     4  10  21  37  58  86 122 164 209 254 301 355
#     4  10  21  38  60  86 118 155 195 240 293 354
#     4   9  17  31  53  83 115 147 187 233 280 333
#     4  10  22  42  67  92 120 155 197 246 301 359
#     4  10  21  38  61  90 123 158 200 249 301 356
#     4  12  26  43  63  88 121 156 198 246 298 360
#
# _framework density 19.496365000000001
#
# number of rings (size 3 to 8) (size 9 to 14) (size 15 to 20)
#    0.000    1.727    0.000    4.091    1.273    6.909 
#    0.000    5.455    0.000    0.000    0.000    0.000 
#    0.000    0.000    0.000    0.000    0.000    0.000 
#
# Total GULP energy -245959.923804 kJ/mol
# GULP energy per Si atom -5589.998268 kJ/mol
# Density = 1.945199 g / cm^3
# Si number density = 19.496365 Si / 1000 Ang^3
#
#
#
# Elastic Constant Matrix: (Units=GPa)
#
#
# Indices 1 2 3 4 5 6 
#
# 1 180.3365 91.8166 74.5499 0.0000 0.0000 0.0000
# 2 91.8166 132.1883 53.8677 0.0000 0.0000 0.0000
# 3 74.5499 53.8677 59.1780 0.0000 0.0000 0.0000
# 4 0.0000 0.0000 0.0000 33.7551 0.0000 0.0000
# 5 0.0000 0.0000 0.0000 0.0000 10.9857 0.0000
# 6 0.0000 0.0000 0.0000 0.0000 0.0000 35.9301
#
#
#
# Elastic Compliance Matrix: (Units=1/GPa)
#
#
# Indices 1 2 3 4 5 6 
#
# 1 0.012575 -0.003623 -0.012544 0.000000 0.000000 0.000000
# 2 -0.003623 0.013070 -0.007333 0.000000 0.000000 0.000000
# 3 -0.012544 -0.007333 0.039376 0.000000 0.000000 0.000000
# 4 0.000000 0.000000 0.000000 0.029625 0.000000 0.000000
# 5 0.000000 0.000000 0.000000 0.000000 0.091028 0.000000
# 6 0.000000 0.000000 0.000000 0.000000 0.000000 0.027832
#
#
# Mechanical properties :
#
#
# Convention : Reuss Voigt Hill
#
# Bulk Modulus (GPa) = 55.49139 90.24123 72.86631
# Shear Modulus (GPa) = 18.76088 26.23208 22.49648
#
# Velocity S-wave (km/s) = 3.10542 3.67207 3.40057
# Velocity P-wave (km/s) = 6.43292 8.02281 7.27145
#
# Compressibility (1/GPa) = 0.01802081
#
# Stress axis : x y z
#
# Youngs Moduli (GPa) = 79.52013 76.51360 25.39645
#
# Poissons Ratio (x) = 0.27720 0.31858
# Poissons Ratio (y) = 0.28809 0.18623
# Poissons Ratio (z) = 0.99751 0.56106
#
# Static dielectric constant tensor:
#      x y z
#    x 1.687720 0.000000 0.000000 
#    y 0.000000 1.647360 0.000000 
#    z 0.000000 0.000000 1.680330 
# 
# From -- ./inp_files/70937.got.cif
#   From: 2010.05.17/outbox.cif.g08.bks.cpg/sg65_36_cif.got.tgz:70937.got - 2010.06.03 17:01:31.
