data_PCOD9492245
_publ_section_title
;
Structure prediction by ZEFSAII (Michael W. Deem and Ramdas Pophale) SiO2 
 PCOD9492245
Probable space group: C M M M
;
_chemical_formula_sum "Si O2"
_cell_formula_units_Z 72
_cell_length_a 24.206466
_cell_length_b 19.972812
_cell_length_c 7.326752
_cell_angle_alpha 90.000000
_cell_angle_beta 90.000000
_cell_angle_gamma 90.000000
_cell_volume 3542.273542
_symmetry_space_group_name_H-M "C M M M"
_symmetry_group_IT_number 65
_symmetry_cell_setting 'orthorhombic'
loop_
_space_group_symop_operation_xyz
x,y,z
-x,-y,z
x,-y,-z
-x,y,-z
-x,-y,-z
x,y,-z
-x,y,z
x,-y,z
1/2+x,1/2+y,z
1/2-x,1/2-y,z
1/2+x,1/2-y,-z
1/2-x,1/2+y,-z
1/2-x,1/2-y,-z
1/2+x,1/2+y,-z
1/2-x,1/2+y,z
1/2+x,1/2-y,z
loop_
_atom_site_type_symbol
_atom_site_label
_atom_site_fract_x
_atom_site_fract_y
_atom_site_fract_z
Si Si1 0.153920 0.076040 0.283524
Si Si2 0.064136 0.727476 0.000000
Si Si3 0.624793 0.136753 0.719655
Si Si4 0.563674 0.000000 0.721532
Si Si5 0.063858 0.887816 0.000000
Si Si6 0.247999 0.672968 0.721461
O O1 0.145335 0.084965 0.500000
O O2 0.097686 0.086413 0.174161
O O3 0.199891 0.129044 0.219665
O O4 0.173975 0.000000 0.253983
O O5 0.093947 0.696173 0.175906
O O6 0.066921 0.807257 0.000000
O O7 0.000000 0.707118 0.000000
O O8 0.620231 0.144121 0.500000
O O9 0.596042 0.067119 0.774513
O O10 0.689338 0.140309 0.769542
O O11 0.500000 0.000000 0.783262
O O12 0.562664 0.000000 0.500000
O O13 0.000000 0.908020 0.000000
O O14 0.250064 0.673978 0.500000
O O15 0.250000 0.750000 0.783258
#
# Coordination Sequence:
#
# PCOD9492245 Si02
#       6
#    16   8  16   8   8  16
#     4  10  22  40  64  92 123 157 195 245 304 364
#     4  11  24  39  58  85 115 158 211 254 300 355
#     4  10  21  37  59  86 121 159 201 252 304 364
#     4   9  18  33  55  83 116 159 201 239 294 355
#     4  11  25  43  62  87 119 156 203 253 302 362
#     4   9  18  34  59  89 120 155 195 242 301 362
#
# _framework density 20.325928000000001
#
# number of rings (size 3 to 8) (size 9 to 14) (size 15 to 20)
#    0.000    2.111    0.000    2.333    1.556    6.667 
#    0.000    6.667    0.000    0.000    0.000    0.000 
#    0.000    0.000    0.000    0.000    0.000    0.000 
#
# Total GULP energy -201231.558610 kJ/mol
# GULP energy per Si atom -5589.765517 kJ/mol
# Density = 2.027967 g / cm^3
# Si number density = 20.325928 Si / 1000 Ang^3
#
#
#
# Elastic Constant Matrix: (Units=GPa)
#
#
# Indices 1 2 3 4 5 6 
#
# 1 177.9337 75.0705 40.0317 0.0000 0.0000 0.0000
# 2 75.0705 121.3322 31.0271 0.0000 0.0000 0.0000
# 3 40.0317 31.0271 89.3987 0.0000 0.0000 0.0000
# 4 0.0000 0.0000 0.0000 41.0972 0.0000 0.0000
# 5 0.0000 0.0000 0.0000 0.0000 13.7268 0.0000
# 6 0.0000 0.0000 0.0000 0.0000 0.0000 39.1506
#
#
#
# Elastic Compliance Matrix: (Units=1/GPa)
#
#
# Indices 1 2 3 4 5 6 
#
# 1 0.007927 -0.004386 -0.002027 0.000000 0.000000 0.000000
# 2 -0.004386 0.011471 -0.002017 0.000000 0.000000 0.000000
# 3 -0.002027 -0.002017 0.012794 0.000000 0.000000 0.000000
# 4 0.000000 0.000000 0.000000 0.024333 0.000000 0.000000
# 5 0.000000 0.000000 0.000000 0.000000 0.072850 0.000000
# 6 0.000000 0.000000 0.000000 0.000000 0.000000 0.025542
#
#
# Mechanical properties :
#
#
# Convention : Reuss Voigt Hill
#
# Bulk Modulus (GPa) = 65.22849 75.65813 70.44331
# Shear Modulus (GPa) = 28.26643 34.96392 31.61518
#
# Velocity S-wave (km/s) = 3.73320 4.15199 3.94815
# Velocity P-wave (km/s) = 7.12343 7.76457 7.45090
#
# Compressibility (1/GPa) = 0.01533072
#
# Stress axis : x y z
#
# Youngs Moduli (GPa) = 126.15763 87.17356 78.16311
#
# Poissons Ratio (x) = 0.38234 0.15846
# Poissons Ratio (y) = 0.55332 0.15768
# Poissons Ratio (z) = 0.25575 0.17586
#
# Static dielectric constant tensor:
#      x y z
#    x 1.685550 0.000000 0.000000 
#    y 0.000000 1.700320 0.000000 
#    z 0.000000 0.000000 1.770780 
# 
# From -- ./inp_files/11302.got.cif
#   From: 2010.05.17/outbox.cif.g08.bks.cpg/sg65_6_cif.got.tgz:11302.got - 2010.06.03 17:01:31.
