data_PCOD9492428
_publ_section_title
;
Structure prediction by ZEFSAII (Michael W. Deem and Ramdas Pophale) SiO2 
 PCOD9492428
Probable space group: C M M M
;
_chemical_formula_sum "Si O2"
_cell_formula_units_Z 72
_cell_length_a 24.041308
_cell_length_b 18.387071
_cell_length_c 8.231731
_cell_angle_alpha 90.000000
_cell_angle_beta 90.000000
_cell_angle_gamma 90.000000
_cell_volume 3638.830409
_symmetry_space_group_name_H-M "C M M M"
_symmetry_group_IT_number 65
_symmetry_cell_setting 'orthorhombic'
loop_
_space_group_symop_operation_xyz
x,y,z
-x,-y,z
x,-y,-z
-x,y,-z
-x,-y,-z
x,y,-z
-x,y,z
x,-y,z
1/2+x,1/2+y,z
1/2-x,1/2-y,z
1/2+x,1/2-y,-z
1/2-x,1/2+y,-z
1/2-x,1/2-y,-z
1/2+x,1/2+y,-z
1/2-x,1/2+y,z
1/2+x,1/2-y,z
loop_
_atom_site_type_symbol
_atom_site_label
_atom_site_fract_x
_atom_site_fract_y
_atom_site_fract_z
Si Si1 0.500000 0.604649 0.816430
Si Si2 0.935437 0.500000 0.803364
Si Si3 0.125235 0.919657 0.694864
Si Si4 0.000000 0.253363 0.322746
Si Si5 0.814488 0.768502 0.695553
Si Si6 0.598292 0.843186 0.190659
O O1 0.440682 0.584798 0.736831
O O2 0.500000 0.691622 0.810518
O O3 0.500000 0.578562 0.000000
O O4 0.903151 0.427030 0.757687
O O5 0.000000 0.500000 0.745784
O O6 0.938489 0.500000 0.000000
O O7 0.129961 0.919513 0.500000
O O8 0.159506 0.847263 0.750085
O O9 0.144901 0.000000 0.753743
O O10 0.052864 0.302810 0.298197
O O11 0.000000 0.217630 0.500000
O O12 0.823491 0.765229 0.500000
O O13 0.750000 0.750000 0.724677
O O14 0.847071 0.703194 0.781196
O O15 0.582326 0.840065 0.000000
#
# Coordination Sequence:
#
# PCOD9492428 Si02
#       6
#     8   8  16   8  16  16
#     4  12  23  35  57  90 121 152 188 239 294 350
#     4   9  18  34  56  86 124 156 184 225 290 355
#     4  10  21  38  60  85 118 159 194 233 293 354
#     4  12  22  34  56  86 120 155 191 236 291 355
#     4  10  22  41  61  83 115 156 201 246 290 341
#     4  11  21  37  61  86 115 155 197 239 289 347
#
# _framework density 19.786577999999999
#
# number of rings (size 3 to 8) (size 9 to 14) (size 15 to 20)
#    0.000    1.444    3.333    3.000    0.000    2.222 
#    2.000    2.778    0.000    0.000    0.000    0.000 
#    0.000    0.000    0.000    0.000    0.000    0.000 
#
# Total GULP energy -200736.387595 kJ/mol
# GULP energy per Si atom -5576.010767 kJ/mol
# Density = 1.974154 g / cm^3
# Si number density = 19.786578 Si / 1000 Ang^3
#
#
#
# Elastic Constant Matrix: (Units=GPa)
#
#
# Indices 1 2 3 4 5 6 
#
# 1 83.1398 61.3609 17.3417 0.0000 0.0000 0.0000
# 2 61.3609 202.9281 19.7306 0.0000 0.0000 0.0000
# 3 17.3417 19.7306 31.4956 0.0000 0.0000 0.0000
# 4 0.0000 0.0000 0.0000 18.5083 0.0000 0.0000
# 5 0.0000 0.0000 0.0000 0.0000 4.2710 0.0000
# 6 0.0000 0.0000 0.0000 0.0000 0.0000 1.7675
#
#
#
# Elastic Compliance Matrix: (Units=1/GPa)
#
#
# Indices 1 2 3 4 5 6 
#
# 1 0.016608 -0.004401 -0.006388 0.000000 0.000000 0.000000
# 2 -0.004401 0.006414 -0.001595 0.000000 0.000000 0.000000
# 3 -0.006388 -0.001595 0.036267 0.000000 0.000000 0.000000
# 4 0.000000 0.000000 0.000000 0.054030 0.000000 0.000000
# 5 0.000000 0.000000 0.000000 0.000000 0.234139 0.000000
# 6 0.000000 0.000000 0.000000 0.000000 0.000000 0.565764
#
#
# Mechanical properties :
#
#
# Convention : Reuss Voigt Hill
#
# Bulk Modulus (GPa) = 28.96706 57.15887 43.06297
# Shear Modulus (GPa) = 5.26595 19.51804 12.39200
#
# Velocity S-wave (km/s) = 1.63314 3.14415 2.50528
# Velocity P-wave (km/s) = 4.26940 6.49087 5.49359
#
# Compressibility (1/GPa) = 0.03452197
#
# Stress axis : x y z
#
# Youngs Moduli (GPa) = 60.21052 155.91758 27.57361
#
# Poissons Ratio (x) = 0.68618 0.17613
# Poissons Ratio (y) = 0.26498 0.04397
# Poissons Ratio (z) = 0.38461 0.24864
#
# Static dielectric constant tensor:
#      x y z
#    x 1.526840 0.000000 0.000000 
#    y 0.000000 1.728500 0.000000 
#    z 0.000000 0.000000 1.701620 
# 
# From -- ./inp_files/13629.got.cif
#   From: 2010.05.17/outbox.cif.g08.bks.cpg/sg65_7_cif.got.tgz:13629.got - 2010.06.03 17:01:31.
