data_PCOD9492622
_publ_section_title
;
Structure prediction by ZEFSAII (Michael W. Deem and Ramdas Pophale) SiO2 
 PCOD9492622
Probable space group: C M M M
;
_chemical_formula_sum "Si O2"
_cell_formula_units_Z 56
_cell_length_a 13.040749
_cell_length_b 13.882573
_cell_length_c 13.189575
_cell_angle_alpha 90.000000
_cell_angle_beta 90.000000
_cell_angle_gamma 90.000000
_cell_volume 2387.829446
_symmetry_space_group_name_H-M "C M M M"
_symmetry_group_IT_number 65
_symmetry_cell_setting 'orthorhombic'
loop_
_space_group_symop_operation_xyz
x,y,z
-x,-y,z
x,-y,-z
-x,y,-z
-x,-y,-z
x,y,-z
-x,y,z
x,-y,z
1/2+x,1/2+y,z
1/2-x,1/2-y,z
1/2+x,1/2-y,-z
1/2-x,1/2+y,-z
1/2-x,1/2-y,-z
1/2+x,1/2+y,-z
1/2-x,1/2+y,z
1/2+x,1/2-y,z
loop_
_atom_site_type_symbol
_atom_site_label
_atom_site_fract_x
_atom_site_fract_y
_atom_site_fract_z
Si Si1 0.616177 0.000000 0.123046
Si Si2 0.611624 0.323167 0.681163
Si Si3 0.668654 0.889376 0.618011
Si Si4 0.292791 0.356177 0.887275
O O1 0.691305 0.912632 0.147557
O O2 0.500000 0.000000 0.161320
O O3 0.607855 0.000000 0.000000
O O4 0.500000 0.350834 0.642553
O O5 0.622852 0.206563 0.671027
O O6 0.708753 0.371416 0.626723
O O7 0.624793 0.355579 0.798394
O O8 0.638602 0.883070 0.500000
O O9 0.644169 0.000000 0.650922
O O10 0.250000 0.250000 0.896281
O O11 0.326043 0.388346 0.000000
#
# Coordination Sequence:
#
# PCOD9492622 Si02
#       4
#     8  16  16  16
#     4   9  20  40  67  93 120 167 225 271 313 365
#     4  11  23  40  65  95 130 170 213 261 320 387
#     4  10  23  45  68  92 126 163 210 273 330 384
#     4  10  21  39  61  92 135 171 211 264 313 369
#
# _framework density 23.452259999999999
#
# number of rings (size 3 to 8) (size 9 to 14) (size 15 to 20)
#    0.000    1.857    2.857    1.714    2.000    5.143 
#    0.000    5.714    0.000    2.571    0.000    0.000 
#    0.000    0.000    0.000    0.000    0.000    0.000 
#
# Total GULP energy -156299.079168 kJ/mol
# GULP energy per Si atom -5582.109970 kJ/mol
# Density = 2.339888 g / cm^3
# Si number density = 23.452260 Si / 1000 Ang^3
#
#
#
# Elastic Constant Matrix: (Units=GPa)
#
#
# Indices 1 2 3 4 5 6 
#
# 1 131.9228 28.1195 8.9518 0.0000 0.0000 0.0000
# 2 28.1195 142.4221 20.9126 0.0000 0.0000 0.0000
# 3 8.9518 20.9126 111.3346 0.0000 0.0000 0.0000
# 4 0.0000 0.0000 0.0000 29.4890 0.0000 0.0000
# 5 0.0000 0.0000 0.0000 0.0000 0.5966 0.0000
# 6 0.0000 0.0000 0.0000 0.0000 0.0000 4.1081
#
#
#
# Elastic Compliance Matrix: (Units=1/GPa)
#
#
# Indices 1 2 3 4 5 6 
#
# 1 0.007927 -0.001513 -0.000353 0.000000 0.000000 0.000000
# 2 -0.001513 0.007509 -0.001289 0.000000 0.000000 0.000000
# 3 -0.000353 -0.001289 0.009252 0.000000 0.000000 0.000000
# 4 0.000000 0.000000 0.000000 0.033911 0.000000 0.000000
# 5 0.000000 0.000000 0.000000 0.000000 1.676030 0.000000
# 6 0.000000 0.000000 0.000000 0.000000 0.000000 0.243424
#
#
# Mechanical properties :
#
#
# Convention : Reuss Voigt Hill
#
# Bulk Modulus (GPa) = 54.41232 55.73858 55.07545
# Shear Modulus (GPa) = 2.51195 28.68512 15.59853
#
# Velocity S-wave (km/s) = 1.03606 3.50112 2.58179
# Velocity P-wave (km/s) = 4.96819 6.33737 5.69408
#
# Compressibility (1/GPa) = 0.01837819
#
# Stress axis : x y z
#
# Youngs Moduli (GPa) = 126.15608 133.16658 108.07987
#
# Poissons Ratio (x) = 0.20150 0.03816
# Poissons Ratio (y) = 0.19090 0.13930
# Poissons Ratio (z) = 0.04455 0.17163
#
# Static dielectric constant tensor:
#      x y z
#    x 1.822390 0.000000 0.000000 
#    y 0.000000 1.843170 0.000000 
#    z 0.000000 0.000000 2.022070 
# 
# From -- ./inp_files/39433.got.cif
#   From: 2010.05.17/outbox.cif.g08.bks.cpg/sg65_20_cif.got.tgz:39433.got - 2010.06.03 17:01:31.
