data_PCOD9492242
_publ_section_title
;
Structure prediction by ZEFSAII (Michael W. Deem and Ramdas Pophale) SiO2 
 PCOD9492242
Probable space group: C M M M
;
_chemical_formula_sum "Si O2"
_cell_formula_units_Z 112
_cell_length_a 14.464060
_cell_length_b 15.410582
_cell_length_c 24.210687
_cell_angle_alpha 90.000000
_cell_angle_beta 90.000000
_cell_angle_gamma 90.000000
_cell_volume 5396.552029
_symmetry_space_group_name_H-M "C M M M"
_symmetry_group_IT_number 65
_symmetry_cell_setting 'orthorhombic'
loop_
_space_group_symop_operation_xyz
x,y,z
-x,-y,z
x,-y,-z
-x,y,-z
-x,-y,-z
x,y,-z
-x,y,z
x,-y,z
1/2+x,1/2+y,z
1/2-x,1/2-y,z
1/2+x,1/2-y,-z
1/2-x,1/2+y,-z
1/2-x,1/2-y,-z
1/2+x,1/2+y,-z
1/2-x,1/2+y,z
1/2+x,1/2-y,z
loop_
_atom_site_type_symbol
_atom_site_label
_atom_site_fract_x
_atom_site_fract_y
_atom_site_fract_z
Si Si1 0.892873 0.312295 0.763580
Si Si2 0.192390 0.602375 0.658225
Si Si3 0.896141 0.273633 0.937162
Si Si4 0.099549 0.098238 0.618858
Si Si5 0.698431 0.094902 0.865464
Si Si6 0.396822 0.644538 0.834489
Si Si7 0.642107 0.773962 0.561058
O O1 0.834445 0.343141 0.711860
O O2 0.865143 0.370430 0.815943
O O3 0.880770 0.214240 0.785450
O O4 0.000000 0.324030 0.749804
O O5 0.168073 0.500000 0.662331
O O6 0.303822 0.606903 0.650962
O O7 0.140870 0.650231 0.606943
O O8 0.818552 0.339227 0.915531
O O9 0.899541 0.197698 0.892138
O O10 0.000000 0.314202 0.934685
O O11 0.880921 0.245404 0.000000
O O12 0.098672 0.182205 0.579472
O O13 0.000000 0.101100 0.649609
O O14 0.103897 0.000000 0.593490
O O15 0.802376 0.093042 0.841632
O O16 0.670530 0.000000 0.883212
O O17 0.500000 0.605887 0.827016
O O18 0.610544 0.800764 0.500000
O O19 0.750000 0.750000 0.557674
#
# Coordination Sequence:
#
# PCOD9492242 Si02
#       7
#    16  16  16  16  16  16  16
#     4  10  21  39  61  80 102 138 185 230 269 318
#     4  10  21  37  59  86 114 146 184 228 283 344
#     4   9  18  34  57  82 108 144 190 234 273 317
#     4   9  19  36  57  82 112 146 187 233 277 326
#     4  11  22  34  53  83 116 145 175 221 280 335
#     4   9  20  38  58  80 107 144 188 230 271 320
#     4   9  19  35  54  79 112 148 185 226 274 329
#
# _framework density 20.753993000000001
#
# number of rings (size 3 to 8) (size 9 to 14) (size 15 to 20)
#    0.000    2.429    0.000    3.429    0.000    8.571 
#    0.000    6.429    0.000    2.571    0.000    5.000 
#    0.000    0.000    0.000    0.000    0.000    0.000 
#
# Total GULP energy -312063.219472 kJ/mol
# GULP energy per Si atom -5572.557491 kJ/mol
# Density = 2.070676 g / cm^3
# Si number density = 20.753993 Si / 1000 Ang^3
#
#
#
# Elastic Constant Matrix: (Units=GPa)
#
#
# Indices 1 2 3 4 5 6 
#
# 1 93.3712 35.3849 17.4840 0.0000 0.0000 0.0000
# 2 35.3849 83.4583 36.5824 0.0000 0.0000 0.0000
# 3 17.4840 36.5824 114.8663 0.0000 0.0000 0.0000
# 4 0.0000 0.0000 0.0000 0.7698 0.0000 0.0000
# 5 0.0000 0.0000 0.0000 0.0000 -37.5304 0.0000
# 6 0.0000 0.0000 0.0000 0.0000 0.0000 -25.1931
#
#
#
# Elastic Compliance Matrix: (Units=1/GPa)
#
#
# Indices 1 2 3 4 5 6 
#
# 1 0.012767 -0.005301 -0.000255 0.000000 0.000000 0.000000
# 2 -0.005301 0.016127 -0.004329 0.000000 0.000000 0.000000
# 3 -0.000255 -0.004329 0.010123 0.000000 0.000000 0.000000
# 4 0.000000 0.000000 0.000000 1.299063 0.000000 0.000000
# 5 0.000000 0.000000 0.000000 0.000000 -0.026645 0.000000
# 6 0.000000 0.000000 0.000000 0.000000 0.000000 -0.039693
#
#
# Mechanical properties :
#
#
# Convention : Reuss Voigt Hill
#
# Bulk Modulus (GPa) = 51.95719 52.28870 52.12295
# Shear Modulus (GPa) = 3.85229 1.09221 2.47225
#
# Velocity S-wave (km/s) = 1.36389 0.72623 1.09261
# Velocity P-wave (km/s) = 5.25066 5.09435 5.17310
#
# Compressibility (1/GPa) = 0.01924661
#
# Stress axis : x y z
#
# Youngs Moduli (GPa) = 78.32916 62.00679 98.78136
#
# Poissons Ratio (x) = 0.32870 0.02519
# Poissons Ratio (y) = 0.41523 0.42765
# Poissons Ratio (z) = 0.01997 0.26845
#
# Static dielectric constant tensor:
#      x y z
#    x 1.809980 0.000000 0.000000 
#    y 0.000000 1.792240 0.000000 
#    z 0.000000 0.000000 1.724640 
# 
# From -- ./inp_files/70034.got.cif
#   From: 2010.05.17/outbox.cif.g08.bks.cpg/sg65_36_cif.got.tgz:70034.got - 2010.06.03 17:01:31.
