data_PCOD9492925
_publ_section_title
;
Structure prediction by ZEFSAII (Michael W. Deem and Ramdas Pophale) SiO2 
 PCOD9492925
Probable space group: C M M M
;
_chemical_formula_sum "Si O2"
_cell_formula_units_Z 80
_cell_length_a 8.439589
_cell_length_b 24.280239
_cell_length_c 21.046198
_cell_angle_alpha 90.000000
_cell_angle_beta 90.000000
_cell_angle_gamma 90.000000
_cell_volume 4312.686672
_symmetry_space_group_name_H-M "C M M M"
_symmetry_group_IT_number 65
_symmetry_cell_setting 'orthorhombic'
loop_
_space_group_symop_operation_xyz
x,y,z
-x,-y,z
x,-y,-z
-x,y,-z
-x,-y,-z
x,y,-z
-x,y,z
x,-y,z
1/2+x,1/2+y,z
1/2-x,1/2-y,z
1/2+x,1/2-y,-z
1/2-x,1/2+y,-z
1/2-x,1/2-y,-z
1/2+x,1/2+y,-z
1/2-x,1/2+y,z
1/2+x,1/2-y,z
loop_
_atom_site_type_symbol
_atom_site_label
_atom_site_fract_x
_atom_site_fract_y
_atom_site_fract_z
Si Si1 0.809450 0.879304 0.068878
Si Si2 0.808945 0.936695 0.426664
Si Si3 0.810107 0.812028 0.192677
Si Si4 0.687004 0.000000 0.094749
Si Si5 0.810151 0.386476 0.695854
Si Si6 0.189149 0.500000 0.754852
O O1 0.750385 0.847945 0.132010
O O2 0.760936 0.943194 0.071178
O O3 0.000000 0.876172 0.070304
O O4 0.755543 0.856519 0.000000
O O5 0.765016 0.926122 0.500000
O O6 0.740702 0.892804 0.377209
O O7 0.000000 0.936143 0.422754
O O8 0.756501 0.000000 0.411529
O O9 0.750000 0.750000 0.186745
O O10 0.754573 0.838658 0.259083
O O11 0.000000 0.812665 0.191482
O O12 0.711066 0.000000 0.170342
O O13 0.500000 0.000000 0.080848
O O14 0.746537 0.443765 0.726053
O O15 0.000000 0.384842 0.699576
O O16 0.000000 0.500000 0.742305
#
# Coordination Sequence:
#
# PCOD9492925 Si02
#       6
#    16  16  16   8  16   8
#     4  10  22  39  57  80 112 147 183 226 279 338
#     4   9  18  32  51  81 121 158 189 223 267 324
#     4  11  24  41  60  81 105 142 189 237 286 334
#     4  11  20  34  55  83 117 147 181 223 274 334
#     4  11  20  35  57  83 115 149 186 232 278 328
#     4   9  18  30  49  80 114 144 177 223 276 323
#
# _framework density 18.549921000000001
#
# number of rings (size 3 to 8) (size 9 to 14) (size 15 to 20)
#    0.000    1.800    3.000    2.400    0.000    3.200 
#    0.000    1.000    0.000    0.600    0.000    0.000 
#    0.000    0.000    0.000    0.000    0.000    0.000 
#
# Total GULP energy -223187.913897 kJ/mol
# GULP energy per Si atom -5579.697847 kJ/mol
# Density = 1.850770 g / cm^3
# Si number density = 18.549921 Si / 1000 Ang^3
#
#
#
# Elastic Constant Matrix: (Units=GPa)
#
#
# Indices 1 2 3 4 5 6 
#
# 1 31.3614 16.3220 35.0029 0.0000 0.0000 0.0000
# 2 16.3220 101.6166 76.8114 0.0000 0.0000 0.0000
# 3 35.0029 76.8114 121.1716 0.0000 0.0000 0.0000
# 4 0.0000 0.0000 0.0000 -13.8910 0.0000 0.0000
# 5 0.0000 0.0000 0.0000 0.0000 17.0540 0.0000
# 6 0.0000 0.0000 0.0000 0.0000 0.0000 24.0702
#
#
#
# Elastic Compliance Matrix: (Units=1/GPa)
#
#
# Indices 1 2 3 4 5 6 
#
# 1 0.048544 0.005381 -0.017434 0.000000 0.000000 0.000000
# 2 0.005381 0.019491 -0.013910 0.000000 0.000000 0.000000
# 3 -0.017434 -0.013910 0.022106 0.000000 0.000000 0.000000
# 4 0.000000 0.000000 0.000000 -0.071989 0.000000 0.000000
# 5 0.000000 0.000000 0.000000 0.000000 0.058637 0.000000
# 6 0.000000 0.000000 0.000000 0.000000 0.000000 0.041545
#
#
# Mechanical properties :
#
#
# Convention : Reuss Voigt Hill
#
# Bulk Modulus (GPa) = 26.16719 56.71356 41.44037
# Shear Modulus (GPa) = 27.32251 13.84752 20.58501
#
# Velocity S-wave (km/s) = 3.84202 2.73518 3.33484
# Velocity P-wave (km/s) = 5.81537 6.37297 6.10055
#
# Compressibility (1/GPa) = 0.03821580
#
# Stress axis : x y z
#
# Youngs Moduli (GPa) = 20.59980 51.30582 45.23572
#
# Poissons Ratio (x) = -0.27607 0.78864
# Poissons Ratio (y) = -0.11085 0.62922
# Poissons Ratio (z) = 0.35914 0.71365
#
# Static dielectric constant tensor:
#      x y z
#    x 1.629780 0.000000 0.000000 
#    y 0.000000 1.614700 0.000000 
#    z 0.000000 0.000000 1.680200 
# 
# From -- ./inp_files/59696.got.cif
#   From: 2010.05.17/outbox.cif.g08.bks.cpg/sg65_30_cif.got.tgz:59696.got - 2010.06.03 17:01:31.
