data_PCOD9492525
_publ_section_title
;
Structure prediction by ZEFSAII (Michael W. Deem and Ramdas Pophale) SiO2 
 PCOD9492525
Probable space group: C M M M
;
_chemical_formula_sum "Si O2"
_cell_formula_units_Z 116
_cell_length_a 27.267556
_cell_length_b 18.035865
_cell_length_c 12.680162
_cell_angle_alpha 90.000000
_cell_angle_beta 90.000000
_cell_angle_gamma 90.000000
_cell_volume 6236.027069
_symmetry_space_group_name_H-M "C M M M"
_symmetry_group_IT_number 65
_symmetry_cell_setting 'orthorhombic'
loop_
_space_group_symop_operation_xyz
x,y,z
-x,-y,z
x,-y,-z
-x,y,-z
-x,-y,-z
x,y,-z
-x,y,z
x,-y,z
1/2+x,1/2+y,z
1/2-x,1/2-y,z
1/2+x,1/2-y,-z
1/2-x,1/2+y,-z
1/2-x,1/2-y,-z
1/2+x,1/2+y,-z
1/2-x,1/2+y,z
1/2+x,1/2-y,z
loop_
_atom_site_type_symbol
_atom_site_label
_atom_site_fract_x
_atom_site_fract_y
_atom_site_fract_z
Si Si1 0.442037 0.588364 0.620771
Si Si2 0.708761 0.417914 0.375614
Si Si3 0.805634 0.720393 0.124375
Si Si4 0.184548 0.583721 0.718343
Si Si5 0.500000 0.140249 0.500000
Si Si6 0.559032 0.086335 0.882581
Si Si7 0.868444 0.191651 0.279677
Si Si8 0.090342 0.346417 0.664538
O O1 0.426310 0.608699 0.500000
O O2 0.500000 0.604145 0.627585
O O3 0.435291 0.500000 0.630384
O O4 0.412304 0.632704 0.708720
O O5 0.702684 0.418852 0.500000
O O6 0.693076 0.500000 0.334903
O O7 0.765440 0.408712 0.346529
O O8 0.676956 0.351342 0.331080
O O9 0.750000 0.750000 0.144237
O O10 0.812935 0.644461 0.189132
O O11 0.846215 0.777211 0.170779
O O12 0.811039 0.710215 0.000000
O O13 0.181967 0.500000 0.759464
O O14 0.137065 0.600632 0.647102
O O15 0.456361 0.141000 0.591428
O O16 0.500000 0.088068 0.884318
O O17 0.576013 0.136157 0.786001
O O18 0.573025 0.000000 0.864608
O O19 0.576466 0.108195 0.000000
O O20 0.888814 0.263183 0.341947
#
# Coordination Sequence:
#
# PCOD9492525 Si02
#       8
#    16  16  16  16   4  16  16  16
#     4   9  19  35  59  92 126 160 202 250 297 351
#     4  10  21  38  61  89 121 154 193 242 295 353
#     4  10  21  41  63  89 124 157 197 252 311 365
#     4  10  22  42  64  90 118 151 203 252 296 354
#     4  12  28  44  51  84 133 176 198 234 304 384
#     4   9  18  38  64  83 104 140 196 258 300 339
#     4  11  22  36  62  87 117 160 199 247 297 360
#     4  11  25  38  57  86 120 160 203 242 297 362
#
# _framework density 18.601586999999999
#
# number of rings (size 3 to 8) (size 9 to 14) (size 15 to 20)
#    0.000    1.931    2.069    2.069    3.862    3.586 
#    0.000    5.172    0.000    2.069    0.000    0.966 
#    0.000    0.000    0.000    0.000    0.000    0.000 
#
# Total GULP energy -322975.908967 kJ/mol
# GULP energy per Si atom -5568.550155 kJ/mol
# Density = 1.855925 g / cm^3
# Si number density = 18.601587 Si / 1000 Ang^3
#
#
#
# Elastic Constant Matrix: (Units=GPa)
#
#
# Indices 1 2 3 4 5 6 
#
# 1 122.0926 46.2006 33.2909 0.0000 0.0000 0.0000
# 2 46.2006 85.4898 30.8630 0.0000 0.0000 0.0000
# 3 33.2909 30.8630 50.2357 0.0000 0.0000 0.0000
# 4 0.0000 0.0000 0.0000 13.1947 0.0000 0.0000
# 5 0.0000 0.0000 0.0000 0.0000 6.7733 0.0000
# 6 0.0000 0.0000 0.0000 0.0000 0.0000 -921.7414
#
#
#
# Elastic Compliance Matrix: (Units=1/GPa)
#
#
# Indices 1 2 3 4 5 6 
#
# 1 0.011103 -0.004297 -0.004718 0.000000 0.000000 0.000000
# 2 -0.004297 0.016694 -0.007409 0.000000 0.000000 0.000000
# 3 -0.004718 -0.007409 0.027584 0.000000 0.000000 0.000000
# 4 0.000000 0.000000 0.000000 0.075788 0.000000 0.000000
# 5 0.000000 0.000000 0.000000 0.000000 0.147639 0.000000
# 6 0.000000 0.000000 0.000000 0.000000 0.000000 -0.001085
#
#
# Mechanical properties :
#
#
# Convention : Reuss Voigt Hill
#
# Bulk Modulus (GPa) = 44.37701 53.16968 48.77334
# Shear Modulus (GPa) = 15.71921 -170.52378 -77.40229
#
# Velocity S-wave (km/s) = 2.91012 -9.58492 -6.45762
# Velocity P-wave (km/s) = 5.93297 9.68756 5.41519
#
# Compressibility (1/GPa) = 0.02253419
#
# Stress axis : x y z
#
# Youngs Moduli (GPa) = 90.06590 59.90124 36.25250
#
# Poissons Ratio (x) = 0.25740 0.17104
# Poissons Ratio (y) = 0.38702 0.26858
# Poissons Ratio (z) = 0.42492 0.44379
#
# Static dielectric constant tensor:
#      x y z
#    x 1.676610 0.000000 0.000000 
#    y 0.000000 1.676170 0.000000 
#    z 0.000000 0.000000 1.624990 
# 
# From -- ./inp_files/27582.got.cif
#   From: 2010.05.17/outbox.cif.g08.bks.cpg/sg65_14_cif.got.tgz:27582.got - 2010.06.03 17:01:31.
