data_PCOD9492706
_publ_section_title
;
Structure prediction by ZEFSAII (Michael W. Deem and Ramdas Pophale) SiO2 
 PCOD9492706
Probable space group: C M M M
;
_chemical_formula_sum "Si O2"
_cell_formula_units_Z 104
_cell_length_a 17.043589
_cell_length_b 15.935823
_cell_length_c 19.362156
_cell_angle_alpha 90.000000
_cell_angle_beta 90.000000
_cell_angle_gamma 90.000000
_cell_volume 5258.831614
_symmetry_space_group_name_H-M "C M M M"
_symmetry_group_IT_number 65
_symmetry_cell_setting 'orthorhombic'
loop_
_space_group_symop_operation_xyz
x,y,z
-x,-y,z
x,-y,-z
-x,y,-z
-x,-y,-z
x,y,-z
-x,y,z
x,-y,z
1/2+x,1/2+y,z
1/2-x,1/2-y,z
1/2+x,1/2-y,-z
1/2-x,1/2+y,-z
1/2-x,1/2-y,-z
1/2+x,1/2+y,-z
1/2-x,1/2+y,z
1/2+x,1/2-y,z
loop_
_atom_site_type_symbol
_atom_site_label
_atom_site_fract_x
_atom_site_fract_y
_atom_site_fract_z
Si Si1 0.095520 0.500000 0.579900
Si Si2 0.404629 0.651033 0.325560
Si Si3 0.362811 0.167344 0.832307
Si Si4 0.596028 0.500000 0.421244
Si Si5 0.770530 0.095971 0.920241
Si Si6 0.595660 0.845538 0.678725
Si Si7 0.500000 0.098245 0.075791
Si Si8 0.407985 0.637758 0.828687
O O1 0.122274 0.500000 0.500000
O O2 0.117874 0.415795 0.622448
O O3 0.000000 0.500000 0.578379
O O4 0.500000 0.652095 0.325388
O O5 0.378157 0.584190 0.382022
O O6 0.381539 0.748409 0.337349
O O7 0.381661 0.617230 0.249621
O O8 0.280169 0.152851 0.868854
O O9 0.367920 0.135240 0.753806
O O10 0.424357 0.121315 0.880837
O O11 0.392282 0.262748 0.831652
O O12 0.500000 0.500000 0.420046
O O13 0.621564 0.500000 0.500000
O O14 0.857466 0.097436 0.888938
O O15 0.740759 0.000000 0.917591
O O16 0.767491 0.123861 0.000000
O O17 0.500000 0.847361 0.685955
O O18 0.500000 0.000000 0.067387
O O19 0.500000 0.139440 0.000000
O O20 0.500000 0.619923 0.835348
#
# Coordination Sequence:
#
# PCOD9492706 Si02
#       8
#     8  16  16   8  16  16   8  16
#     4   9  18  28  44  77 116 157 196 232 288 349
#     4   8  16  30  49  77 108 141 189 240 283 339
#     4  11  20  38  59  84 113 151 199 246 294 354
#     4   9  16  26  46  79 113 148 182 226 295 349
#     4  11  26  42  56  83 121 155 192 247 304 357
#     4   9  17  30  51  78 111 152 198 242 285 345
#     4  11  22  32  52  84 115 149 184 237 304 356
#     4  10  21  40  62  85 110 153 205 246 293 353
#
# _framework density 19.776256
#
# number of rings (size 3 to 8) (size 9 to 14) (size 15 to 20)
#    0.000    2.231    1.538    2.308    3.231    4.308 
#    0.000    3.846    0.000    0.000    0.000    2.154 
#    0.000    4.923    0.000    0.000    0.000    0.000 
#
# Total GULP energy -290117.203049 kJ/mol
# GULP energy per Si atom -5579.176982 kJ/mol
# Density = 1.973124 g / cm^3
# Si number density = 19.776256 Si / 1000 Ang^3
#
#
#
# Elastic Constant Matrix: (Units=GPa)
#
#
# Indices 1 2 3 4 5 6 
#
# 1 44.7393 10.9017 33.1691 0.0000 0.0000 0.0000
# 2 10.9017 77.7288 77.2236 0.0000 0.0000 0.0000
# 3 33.1691 77.2236 182.4757 0.0000 0.0000 0.0000
# 4 0.0000 0.0000 0.0000 37.1451 0.0000 0.0000
# 5 0.0000 0.0000 0.0000 0.0000 21.5760 0.0000
# 6 0.0000 0.0000 0.0000 0.0000 0.0000 18.7373
#
#
#
# Elastic Compliance Matrix: (Units=1/GPa)
#
#
# Indices 1 2 3 4 5 6 
#
# 1 0.025980 0.001808 -0.005488 0.000000 0.000000 0.000000
# 2 0.001808 0.022325 -0.009776 0.000000 0.000000 0.000000
# 3 -0.005488 -0.009776 0.010615 0.000000 0.000000 0.000000
# 4 0.000000 0.000000 0.000000 0.026921 0.000000 0.000000
# 5 0.000000 0.000000 0.000000 0.000000 0.046348 0.000000
# 6 0.000000 0.000000 0.000000 0.000000 0.000000 0.053369
#
#
# Mechanical properties :
#
#
# Convention : Reuss Voigt Hill
#
# Bulk Modulus (GPa) = 31.24263 60.83695 46.03979
# Shear Modulus (GPa) = 22.40763 27.73500 25.07131
#
# Velocity S-wave (km/s) = 3.36974 3.74898 3.56441
# Velocity P-wave (km/s) = 5.56530 7.04054 6.34593
#
# Compressibility (1/GPa) = 0.03200755
#
# Stress axis : x y z
#
# Youngs Moduli (GPa) = 38.49182 44.79383 94.20586
#
# Poissons Ratio (x) = -0.08100 0.51697
# Poissons Ratio (y) = -0.06960 0.92099
# Poissons Ratio (z) = 0.21123 0.43792
#
# Static dielectric constant tensor:
#      x y z
#    x 1.755270 0.000000 0.000000 
#    y 0.000000 1.703780 0.000000 
#    z 0.000000 0.000000 1.701410 
# 
# From -- ./inp_files/54642.got.cif
#   From: 2010.05.17/outbox.cif.g08.bks.cpg/sg65_28_cif.got.tgz:54642.got - 2010.06.03 17:01:31.
