data_PCOD9492551
_publ_section_title
;
Structure prediction by ZEFSAII (Michael W. Deem and Ramdas Pophale) SiO2 
 PCOD9492551
Probable space group: C M M M
;
_chemical_formula_sum "Si O2"
_cell_formula_units_Z 64
_cell_length_a 22.749340
_cell_length_b 16.999377
_cell_length_c 8.692341
_cell_angle_alpha 90.000000
_cell_angle_beta 90.000000
_cell_angle_gamma 90.000000
_cell_volume 3361.542159
_symmetry_space_group_name_H-M "C M M M"
_symmetry_group_IT_number 65
_symmetry_cell_setting 'orthorhombic'
loop_
_space_group_symop_operation_xyz
x,y,z
-x,-y,z
x,-y,-z
-x,y,-z
-x,-y,-z
x,y,-z
-x,y,z
x,-y,z
1/2+x,1/2+y,z
1/2-x,1/2-y,z
1/2+x,1/2-y,-z
1/2-x,1/2+y,-z
1/2-x,1/2-y,-z
1/2+x,1/2+y,-z
1/2-x,1/2+y,z
1/2+x,1/2-y,z
loop_
_atom_site_type_symbol
_atom_site_label
_atom_site_fract_x
_atom_site_fract_y
_atom_site_fract_z
Si Si1 0.145765 0.148776 0.314118
Si Si2 0.567461 0.500000 0.687483
Si Si3 0.000000 0.591413 0.815548
Si Si4 0.268438 0.907552 0.815882
Si Si5 0.115504 0.674145 0.684393
O O1 0.150730 0.145988 0.500000
O O2 0.103020 0.077774 0.264868
O O3 0.209963 0.134842 0.244376
O O4 0.120772 0.234026 0.271663
O O5 0.500000 0.500000 0.740077
O O6 0.566472 0.500000 0.500000
O O7 0.057978 0.634109 0.753835
O O8 0.000000 0.500000 0.766733
O O9 0.000000 0.593609 0.000000
O O10 0.326298 0.869786 0.742856
O O11 0.264639 0.000000 0.775105
O O12 0.271791 0.901106 0.000000
O O13 0.112800 0.669545 0.500000
#
# Coordination Sequence:
#
# PCOD9492551 Si02
#       5
#    16   8   8  16  16
#     4  10  21  38  62  91 121 156 202 250 299 358
#     4   9  18  34  61  89 119 158 195 240 297 351
#     4  11  25  45  65  88 121 162 204 242 298 365
#     4  11  23  39  60  87 122 162 204 248 302 363
#     4  11  24  39  62  93 122 154 202 255 303 356
#
# _framework density 19.038879999999999
#
# number of rings (size 3 to 8) (size 9 to 14) (size 15 to 20)
#    0.000    1.500    1.250    3.375    1.750   10.500 
#    0.000    0.000    0.000    0.750    0.000    0.000 
#    0.000    0.000    0.000    0.000    0.000    0.000 
#
# Total GULP energy -178938.996802 kJ/mol
# GULP energy per Si atom -5591.843650 kJ/mol
# Density = 1.899555 g / cm^3
# Si number density = 19.038880 Si / 1000 Ang^3
#
#
#
# Elastic Constant Matrix: (Units=GPa)
#
#
# Indices 1 2 3 4 5 6 
#
# 1 212.4384 116.9976 45.9031 0.0000 0.0000 0.0000
# 2 116.9976 193.0080 59.5968 0.0000 0.0000 0.0000
# 3 45.9031 59.5968 33.5151 0.0000 0.0000 0.0000
# 4 0.0000 0.0000 0.0000 24.6930 0.0000 0.0000
# 5 0.0000 0.0000 0.0000 0.0000 183.6729 0.0000
# 6 0.0000 0.0000 0.0000 0.0000 0.0000 18.8740
#
#
#
# Elastic Compliance Matrix: (Units=1/GPa)
#
#
# Indices 1 2 3 4 5 6 
#
# 1 0.007397 -0.003006 -0.004785 0.000000 0.000000 0.000000
# 2 -0.003006 0.012712 -0.018487 0.000000 0.000000 0.000000
# 3 -0.004785 -0.018487 0.069264 0.000000 0.000000 0.000000
# 4 0.000000 0.000000 0.000000 0.040497 0.000000 0.000000
# 5 0.000000 0.000000 0.000000 0.000000 0.005444 0.000000
# 6 0.000000 0.000000 0.000000 0.000000 0.000000 0.052983
#
#
# Mechanical properties :
#
#
# Convention : Reuss Voigt Hill
#
# Bulk Modulus (GPa) = 27.16157 98.21738 62.68948
# Shear Modulus (GPa) = 19.75300 59.87893 39.81597
#
# Velocity S-wave (km/s) = 3.22453 5.61419 4.57803
# Velocity P-wave (km/s) = 5.30668 9.68118 7.80660
#
# Compressibility (1/GPa) = 0.03681672
#
# Stress axis : x y z
#
# Youngs Moduli (GPa) = 135.19221 78.66714 14.43746
#
# Poissons Ratio (x) = 0.23650 0.06908
# Poissons Ratio (y) = 0.40643 0.26690
# Poissons Ratio (z) = 0.64691 1.45430
#
# Static dielectric constant tensor:
#      x y z
#    x 1.607430 0.000000 0.000000 
#    y 0.000000 1.655420 0.000000 
#    z 0.000000 0.000000 1.642180 
# 
# From -- ./inp_files/6783.got.cif
#   From: 2010.05.17/outbox.cif.g08.bks.cpg/sg65_4_cif.got.tgz:6783.got - 2010.06.03 17:01:31.
