data_PCOD9492893
_publ_section_title
;
Structure prediction by ZEFSAII (Michael W. Deem and Ramdas Pophale) SiO2 
 PCOD9492893
Probable space group: C M M M
;
_chemical_formula_sum "Si O2"
_cell_formula_units_Z 96
_cell_length_a 20.901506
_cell_length_b 25.455742
_cell_length_c 7.394107
_cell_angle_alpha 90.000000
_cell_angle_beta 90.000000
_cell_angle_gamma 90.000000
_cell_volume 3934.133297
_symmetry_space_group_name_H-M "C M M M"
_symmetry_group_IT_number 65
_symmetry_cell_setting 'orthorhombic'
loop_
_space_group_symop_operation_xyz
x,y,z
-x,-y,z
x,-y,-z
-x,y,-z
-x,-y,-z
x,y,-z
-x,y,z
x,-y,z
1/2+x,1/2+y,z
1/2-x,1/2-y,z
1/2+x,1/2-y,-z
1/2-x,1/2+y,-z
1/2-x,1/2-y,-z
1/2+x,1/2+y,-z
1/2-x,1/2+y,z
1/2+x,1/2-y,z
loop_
_atom_site_type_symbol
_atom_site_label
_atom_site_fract_x
_atom_site_fract_y
_atom_site_fract_z
Si Si1 0.069584 0.672140 0.719515
Si Si2 0.677707 0.744722 0.211014
Si Si3 0.069011 0.832436 0.220972
Si Si4 0.740065 0.062924 0.798195
Si Si5 0.097486 0.558511 0.294668
Si Si6 0.121251 0.940425 0.779065
O O1 0.071590 0.671282 0.500000
O O2 0.132605 0.703666 0.778190
O O3 0.070919 0.611846 0.786337
O O4 0.000000 0.694513 0.774530
O O5 0.750000 0.750000 0.286206
O O6 0.630066 0.700216 0.287271
O O7 0.686754 0.731279 0.000000
O O8 0.074825 0.893606 0.270440
O O9 0.000000 0.812237 0.282117
O O10 0.069937 0.829605 0.000000
O O11 0.673605 0.069520 0.699869
O O12 0.807976 0.078238 0.718498
O O13 0.747274 0.000000 0.814658
O O14 0.733406 0.085804 0.000000
O O15 0.073939 0.555338 0.500000
O O16 0.087850 0.500000 0.213351
O O17 0.107221 0.000000 0.719254
O O18 0.124029 0.942273 0.000000
#
# Coordination Sequence:
#
# PCOD9492893 Si02
#       6
#    16  16  16  16  16  16
#     4  10  22  39  58  81 111 146 182 224 277 334
#     4  10  22  38  58  82 106 139 186 234 276 322
#     4   9  17  29  46  70 102 136 170 212 261 314
#     4   8  14  25  43  68  99 135 171 209 254 305
#     4   9  18  32  51  77 108 140 176 219 268 322
#     4   8  14  24  41  68 100 132 166 206 254 309
#
# _framework density 24.401816
#
# number of rings (size 3 to 8) (size 9 to 14) (size 15 to 20)
#    0.000    3.000    0.000    1.500    2.333    2.667 
#    0.000    3.333    0.000    0.000    0.000    3.500 
#    0.000    0.000    0.000   10.000    0.000   10.000 
#
# Total GULP energy -267683.968738 kJ/mol
# GULP energy per Si atom -5576.749349 kJ/mol
# Density = 2.434628 g / cm^3
# Si number density = 24.401816 Si / 1000 Ang^3
#
#
#
# Elastic Constant Matrix: (Units=GPa)
#
#
# Indices 1 2 3 4 5 6 
#
# 1 219.1836 83.1876 5.5152 0.0000 0.0000 0.0000
# 2 83.1876 153.6159 -5.9107 0.0000 0.0000 0.0000
# 3 5.5152 -5.9107 83.2429 0.0000 0.0000 0.0000
# 4 0.0000 0.0000 0.0000 -8.2924 0.0000 0.0000
# 5 0.0000 0.0000 0.0000 0.0000 -11.3734 0.0000
# 6 0.0000 0.0000 0.0000 0.0000 0.0000 60.0378
#
#
#
# Elastic Compliance Matrix: (Units=1/GPa)
#
#
# Indices 1 2 3 4 5 6 
#
# 1 0.005773 -0.003150 -0.000606 0.000000 0.000000 0.000000
# 2 -0.003150 0.008246 0.000794 0.000000 0.000000 0.000000
# 3 -0.000606 0.000794 0.012110 0.000000 0.000000 0.000000
# 4 0.000000 0.000000 0.000000 -0.120593 0.000000 0.000000
# 5 0.000000 0.000000 0.000000 0.000000 -0.087924 0.000000
# 6 0.000000 0.000000 0.000000 0.000000 0.000000 0.016656
#
#
# Mechanical properties :
#
#
# Convention : Reuss Voigt Hill
#
# Bulk Modulus (GPa) = 49.49167 69.06965 59.28066
# Shear Modulus (GPa) = -32.66391 32.95775 0.14692
#
# Velocity S-wave (km/s) = -3.66264 3.67907 0.24564
# Velocity P-wave (km/s) = 1.56187 6.81278 4.94234
#
# Compressibility (1/GPa) = 0.02020542
#
# Stress axis : x y z
#
# Youngs Moduli (GPa) = 173.21993 121.27253 82.57924
#
# Poissons Ratio (x) = 0.38196 0.05005
# Poissons Ratio (y) = 0.54557 -0.06558
# Poissons Ratio (z) = 0.10499 -0.09631
#
# Static dielectric constant tensor:
#      x y z
#    x 1.951350 0.000000 0.000000 
#    y 0.000000 1.938510 0.000000 
#    z 0.000000 0.000000 1.936380 
# 
# From -- ./inp_files/12279.got.cif
#   From: 2010.05.17/outbox.cif.g08.bks.cpg/sg65_7_cif.got.tgz:12279.got - 2010.06.03 17:01:31.
