data_PCOD9492710
_publ_section_title
;
Structure prediction by ZEFSAII (Michael W. Deem and Ramdas Pophale) SiO2 
 PCOD9492710
Probable space group: C M M M
;
_chemical_formula_sum "Si O2"
_cell_formula_units_Z 64
_cell_length_a 8.867422
_cell_length_b 15.498401
_cell_length_c 24.340047
_cell_angle_alpha 90.000000
_cell_angle_beta 90.000000
_cell_angle_gamma 90.000000
_cell_volume 3345.073640
_symmetry_space_group_name_H-M "C M M M"
_symmetry_group_IT_number 65
_symmetry_cell_setting 'orthorhombic'
loop_
_space_group_symop_operation_xyz
x,y,z
-x,-y,z
x,-y,-z
-x,y,-z
-x,-y,-z
x,y,-z
-x,y,z
x,-y,z
1/2+x,1/2+y,z
1/2-x,1/2-y,z
1/2+x,1/2-y,-z
1/2-x,1/2+y,-z
1/2-x,1/2-y,-z
1/2+x,1/2+y,-z
1/2-x,1/2+y,z
1/2+x,1/2-y,z
loop_
_atom_site_type_symbol
_atom_site_label
_atom_site_fract_x
_atom_site_fract_y
_atom_site_fract_z
Si Si1 0.322250 0.155976 0.000000
Si Si2 0.317666 0.500000 0.584952
Si Si3 0.818515 0.152365 0.500000
Si Si4 0.327777 0.600523 0.110771
Si Si5 0.681997 0.660528 0.229210
Si Si6 0.680576 0.000000 0.705682
O O1 0.250000 0.250000 0.000000
O O2 0.266742 0.111712 0.944169
O O3 0.500000 0.161068 0.000000
O O4 0.500000 0.500000 0.591473
O O5 0.279591 0.588027 0.551119
O O6 0.235710 0.500000 0.642971
O O7 0.750000 0.250000 0.500000
O O8 0.000000 0.162398 0.500000
O O9 0.500000 0.628169 0.098573
O O10 0.330756 0.500000 0.125968
O O11 0.273543 0.649257 0.164984
O O12 0.500000 0.658670 0.231786
O O13 0.750000 0.750000 0.249621
O O14 0.750933 0.582811 0.263667
O O15 0.500000 0.000000 0.709204
#
# Coordination Sequence:
#
# PCOD9492710 Si02
#       6
#     8   8   8  16  16   8
#     4  12  25  38  55  83 115 151 193 245 302 367
#     4   9  20  40  62  88 127 171 209 252 307 365
#     4   9  19  37  64  94 126 167 209 253 307 358
#     4  10  21  40  63  86 114 151 193 244 308 372
#     4  11  23  42  65  91 121 161 207 258 315 373
#     4  12  25  41  63  93 127 168 213 260 310 366
#
# _framework density 19.132614
#
# number of rings (size 3 to 8) (size 9 to 14) (size 15 to 20)
#    0.000    1.500    1.250    4.875    0.000    8.000 
#    0.000    3.750    0.000    0.000    0.000    0.000 
#    0.000    0.000    0.000    0.000    0.000    0.000 
#
# Total GULP energy -178722.289921 kJ/mol
# GULP energy per Si atom -5585.071560 kJ/mol
# Density = 1.908907 g / cm^3
# Si number density = 19.132614 Si / 1000 Ang^3
#
#
#
# Elastic Constant Matrix: (Units=GPa)
#
#
# Indices 1 2 3 4 5 6 
#
# 1 82.0914 50.2515 67.4886 0.0000 0.0000 0.0000
# 2 50.2515 168.6434 71.4495 0.0000 0.0000 0.0000
# 3 67.4886 71.4495 136.0260 0.0000 0.0000 0.0000
# 4 0.0000 0.0000 0.0000 127.3531 0.0000 0.0000
# 5 0.0000 0.0000 0.0000 0.0000 16.9612 0.0000
# 6 0.0000 0.0000 0.0000 0.0000 0.0000 34.6551
#
#
#
# Elastic Compliance Matrix: (Units=1/GPa)
#
#
# Indices 1 2 3 4 5 6 
#
# 1 0.021306 -0.002405 -0.009307 0.000000 0.000000 0.000000
# 2 -0.002405 0.007899 -0.002955 0.000000 0.000000 0.000000
# 3 -0.009307 -0.002955 0.013522 0.000000 0.000000 0.000000
# 4 0.000000 0.000000 0.000000 0.007852 0.000000 0.000000
# 5 0.000000 0.000000 0.000000 0.000000 0.058958 0.000000
# 6 0.000000 0.000000 0.000000 0.000000 0.000000 0.028856
#
#
# Mechanical properties :
#
#
# Convention : Reuss Voigt Hill
#
# Bulk Modulus (GPa) = 74.68366 85.01556 79.84961
# Shear Modulus (GPa) = 29.03754 48.96529 39.00141
#
# Velocity S-wave (km/s) = 3.89999 5.06440 4.51985
# Velocity P-wave (km/s) = 7.70710 8.87293 8.31048
#
# Compressibility (1/GPa) = 0.01338981
#
# Stress axis : x y z
#
# Youngs Moduli (GPa) = 46.93618 126.60597 73.95559
#
# Poissons Ratio (x) = 0.30453 0.68832
# Poissons Ratio (y) = 0.11290 0.21857
# Poissons Ratio (z) = 0.43684 0.37417
#
# Static dielectric constant tensor:
#      x y z
#    x 1.643310 0.000000 0.000000 
#    y 0.000000 1.695950 0.000000 
#    z 0.000000 0.000000 1.687450 
# 
# From -- ./inp_files/66881.got.cif
#   From: 2010.05.17/outbox.cif.g08.bks.cpg/sg65_34_cif.got.tgz:66881.got - 2010.06.03 17:01:31.
