data_PCOD9492345
_publ_section_title
;
Structure prediction by ZEFSAII (Michael W. Deem and Ramdas Pophale) SiO2 
 PCOD9492345
Probable space group: C M M M
;
_chemical_formula_sum "Si O2"
_cell_formula_units_Z 112
_cell_length_a 15.745292
_cell_length_b 25.136688
_cell_length_c 13.625440
_cell_angle_alpha 90.000000
_cell_angle_beta 90.000000
_cell_angle_gamma 90.000000
_cell_volume 5392.737855
_symmetry_space_group_name_H-M "C M M M"
_symmetry_group_IT_number 65
_symmetry_cell_setting 'orthorhombic'
loop_
_space_group_symop_operation_xyz
x,y,z
-x,-y,z
x,-y,-z
-x,y,-z
-x,-y,-z
x,y,-z
-x,y,z
x,-y,z
1/2+x,1/2+y,z
1/2-x,1/2-y,z
1/2+x,1/2-y,-z
1/2-x,1/2+y,-z
1/2-x,1/2-y,-z
1/2+x,1/2+y,-z
1/2-x,1/2+y,z
1/2+x,1/2-y,z
loop_
_atom_site_type_symbol
_atom_site_label
_atom_site_fract_x
_atom_site_fract_y
_atom_site_fract_z
Si Si1 0.905031 0.367484 0.118403
Si Si2 0.250004 0.888369 0.383404
Si Si3 0.903489 0.690103 0.619083
Si Si4 0.249995 0.560552 0.190764
Si Si5 0.349274 0.250003 0.880346
Si Si6 0.096511 0.190096 0.380917
Si Si7 0.594971 0.367492 0.881597
O O1 0.832055 0.406752 0.154632
O O2 0.889584 0.306163 0.151067
O O3 0.000000 0.384318 0.146791
O O4 0.900610 0.366832 0.000000
O O5 0.250006 0.899827 0.500000
O O6 0.332229 0.852662 0.357772
O O7 0.250008 0.937012 0.309123
O O8 0.167772 0.852668 0.357773
O O9 0.904442 0.691887 0.500000
O O10 0.881174 0.750004 0.651614
O O11 0.000000 0.677557 0.649352
O O12 0.249989 0.500000 0.155552
O O13 0.332056 0.593239 0.154636
O O14 0.250000 0.250000 0.854468
O O15 0.389579 0.306171 0.848934
O O16 0.354868 0.250004 0.000000
O O17 0.095557 0.191880 0.500000
O O18 0.000000 0.177550 0.350647
O O19 0.500000 0.384324 0.853211
O O20 0.599393 0.366840 0.000000
#
# Coordination Sequence:
#
# PCOD9492345 Si02
#       7
#    16  16  16  16  16  16  16
#     4  10  21  40  67  96 126 160 196 240 302 370
#     4  10  21  38  59  79 108 156 206 250 300 350
#     4   8  14  28  53  83 112 141 177 229 296 365
#     4  12  27  43  59  84 121 161 211 268 305 346
#     4   9  15  31  63  98 131 162 190 230 290 365
#     4   8  14  28  53  83 112 141 177 229 296 365
#     4  10  21  40  67  96 126 160 196 240 302 370
#
# _framework density 20.768671999999999
#
# number of rings (size 3 to 8) (size 9 to 14) (size 15 to 20)
#    0.000    2.429    1.429    2.143    0.000    6.571 
#    5.143    1.429    0.000    0.000    0.000    6.000 
#    0.000    0.000    0.000    0.000    0.000    0.000 
#
# Total GULP energy -313009.733556 kJ/mol
# GULP energy per Si atom -5589.459528 kJ/mol
# Density = 2.072140 g / cm^3
# Si number density = 20.768672 Si / 1000 Ang^3
#
#
#
# Elastic Constant Matrix: (Units=GPa)
#
#
# Indices 1 2 3 4 5 6 
#
# 1 161.6773 83.5190 20.3443 0.0000 0.0000 0.0000
# 2 83.5190 134.7124 30.4319 0.0000 0.0000 0.0000
# 3 20.3443 30.4319 77.6719 0.0000 0.0000 0.0000
# 4 0.0000 0.0000 0.0000 22.6015 0.0000 0.0000
# 5 0.0000 0.0000 0.0000 0.0000 7.3344 0.0000
# 6 0.0000 0.0000 0.0000 0.0000 0.0000 7.4014
#
#
#
# Elastic Compliance Matrix: (Units=1/GPa)
#
#
# Indices 1 2 3 4 5 6 
#
# 1 0.009102 -0.005600 -0.000190 0.000000 0.000000 0.000000
# 2 -0.005600 0.011590 -0.003074 0.000000 0.000000 0.000000
# 3 -0.000190 -0.003074 0.014129 0.000000 0.000000 0.000000
# 4 0.000000 0.000000 0.000000 0.044245 0.000000 0.000000
# 5 0.000000 0.000000 0.000000 0.000000 0.136343 0.000000
# 6 0.000000 0.000000 0.000000 0.000000 0.000000 0.135109
#
#
# Mechanical properties :
#
#
# Convention : Reuss Voigt Hill
#
# Bulk Modulus (GPa) = 58.50588 71.40581 64.95584
# Shear Modulus (GPa) = 13.37102 23.45190 18.41146
#
# Velocity S-wave (km/s) = 2.54009 3.36400 2.98065
# Velocity P-wave (km/s) = 6.06911 7.03880 6.57187
#
# Compressibility (1/GPa) = 0.01709230
#
# Stress axis : x y z
#
# Youngs Moduli (GPa) = 109.86640 86.28411 70.77741
#
# Poissons Ratio (x) = 0.48320 0.01344
# Poissons Ratio (y) = 0.61527 0.21757
# Poissons Ratio (z) = 0.02086 0.26524
#
# Static dielectric constant tensor:
#      x y z
#    x 1.716790 0.000000 0.000000 
#    y 0.000000 1.679900 0.000000 
#    z 0.000000 0.000000 1.831760 
# 
# From -- ./inp_files/40834.got.cif
#   From: 2010.05.17/outbox.cif.g08.bks.cpg/sg65_21_cif.got.tgz:40834.got - 2010.06.03 17:01:31.
