data_PCOD9492684
_publ_section_title
;
Structure prediction by ZEFSAII (Michael W. Deem and Ramdas Pophale) SiO2 
 PCOD9492684
Probable space group: C M M M
;
_chemical_formula_sum "Si O2"
_cell_formula_units_Z 56
_cell_length_a 7.559680
_cell_length_b 14.880708
_cell_length_c 19.679600
_cell_angle_alpha 90.000000
_cell_angle_beta 90.000000
_cell_angle_gamma 90.000000
_cell_volume 2213.824931
_symmetry_space_group_name_H-M "C M M M"
_symmetry_group_IT_number 65
_symmetry_cell_setting 'orthorhombic'
loop_
_space_group_symop_operation_xyz
x,y,z
-x,-y,z
x,-y,-z
-x,y,-z
-x,-y,-z
x,y,-z
-x,y,z
x,-y,z
1/2+x,1/2+y,z
1/2-x,1/2-y,z
1/2+x,1/2-y,-z
1/2-x,1/2+y,-z
1/2-x,1/2-y,-z
1/2+x,1/2+y,-z
1/2-x,1/2+y,z
1/2+x,1/2-y,z
loop_
_atom_site_type_symbol
_atom_site_label
_atom_site_fract_x
_atom_site_fract_y
_atom_site_fract_z
Si Si1 0.250000 0.250000 0.183547
Si Si2 0.285883 0.395450 0.920889
Si Si3 0.210548 0.143702 0.573810
Si Si4 0.706451 0.900854 0.724326
O O1 0.192006 0.325330 0.128430
O O2 0.184408 0.177096 0.239357
O O3 0.500000 0.385020 0.911341
O O4 0.242107 0.500000 0.907984
O O5 0.247646 0.377268 0.000000
O O6 0.276193 0.111020 0.500000
O O7 0.250000 0.250000 0.576236
O O8 0.283372 0.103770 0.643006
O O9 0.000000 0.130036 0.575224
O O10 0.500000 0.886156 0.742433
O O11 0.762629 0.000000 0.746233
#
# Coordination Sequence:
#
# PCOD9492684 Si02
#       4
#     8  16  16  16
#     4  12  21  36  61  86 116 162 208 254 301 374
#     4   9  19  36  58  86 118 152 197 253 309 365
#     4  10  21  39  65  93 121 157 204 257 311 368
#     4  11  25  41  58  87 127 167 208 257 313 367
#
# _framework density 25.295587999999999
#
# number of rings (size 3 to 8) (size 9 to 14) (size 15 to 20)
#    0.000    1.714    1.429    3.857    0.000    4.000 
#    0.000    2.857    0.000    0.000    0.000   12.000 
#    0.000    0.000    0.000    0.000    0.000    0.000 
#
# Total GULP energy -156171.383087 kJ/mol
# GULP energy per Si atom -5577.549396 kJ/mol
# Density = 2.523801 g / cm^3
# Si number density = 25.295588 Si / 1000 Ang^3
#
#
#
# Elastic Constant Matrix: (Units=GPa)
#
#
# Indices 1 2 3 4 5 6 
#
# 1 101.7484 36.2245 30.0597 0.0000 0.0000 0.0000
# 2 36.2245 197.4645 90.7525 0.0000 0.0000 0.0000
# 3 30.0597 90.7525 226.5177 0.0000 0.0000 0.0000
# 4 0.0000 0.0000 0.0000 171.9255 0.0000 0.0000
# 5 0.0000 0.0000 0.0000 0.0000 -101.5778 0.0000
# 6 0.0000 0.0000 0.0000 0.0000 0.0000 -14.9434
#
#
#
# Elastic Compliance Matrix: (Units=1/GPa)
#
#
# Indices 1 2 3 4 5 6 
#
# 1 0.010624 -0.001595 -0.000771 0.000000 0.000000 0.000000
# 2 -0.001595 0.006446 -0.002371 0.000000 0.000000 0.000000
# 3 -0.000771 -0.002371 0.005467 0.000000 0.000000 0.000000
# 4 0.000000 0.000000 0.000000 0.005816 0.000000 0.000000
# 5 0.000000 0.000000 0.000000 0.000000 -0.009845 0.000000
# 6 0.000000 0.000000 0.000000 0.000000 0.000000 -0.066919
#
#
# Mechanical properties :
#
#
# Convention : Reuss Voigt Hill
#
# Bulk Modulus (GPa) = 76.54756 93.31156 84.92956
# Shear Modulus (GPa) = -144.58166 35.66046 -54.46060
#
# Velocity S-wave (km/s) = -7.56842 3.75874 -4.64504
# Velocity P-wave (km/s) = 6.78584 7.47034 2.20889
#
# Compressibility (1/GPa) = 0.01306377
#
# Stress axis : x y z
#
# Youngs Moduli (GPa) = 94.12981 155.12382 182.91761
#
# Poissons Ratio (x) = 0.24736 0.14102
# Poissons Ratio (y) = 0.15010 0.43372
# Poissons Ratio (z) = 0.07257 0.36782
#
# Static dielectric constant tensor:
#      x y z
#    x 1.864460 0.000000 0.000000 
#    y 0.000000 1.930370 0.000000 
#    z 0.000000 0.000000 1.963150 
# 
# From -- ./inp_files/58568.got.cif
#   From: 2010.05.17/outbox.cif.g08.bks.cpg/sg65_30_cif.got.tgz:58568.got - 2010.06.03 17:01:31.
