data_PCOD9492541
_publ_section_title
;
Structure prediction by ZEFSAII (Michael W. Deem and Ramdas Pophale) SiO2 
 PCOD9492541
Probable space group: C M M M
;
_chemical_formula_sum "Si O2"
_cell_formula_units_Z 88
_cell_length_a 21.269167
_cell_length_b 23.673802
_cell_length_c 7.663179
_cell_angle_alpha 90.000000
_cell_angle_beta 90.000000
_cell_angle_gamma 90.000000
_cell_volume 3858.579586
_symmetry_space_group_name_H-M "C M M M"
_symmetry_group_IT_number 65
_symmetry_cell_setting 'orthorhombic'
loop_
_space_group_symop_operation_xyz
x,y,z
-x,-y,z
x,-y,-z
-x,y,-z
-x,-y,-z
x,y,-z
-x,y,z
x,-y,z
1/2+x,1/2+y,z
1/2-x,1/2-y,z
1/2+x,1/2-y,-z
1/2-x,1/2+y,-z
1/2-x,1/2-y,-z
1/2+x,1/2+y,-z
1/2-x,1/2+y,z
1/2+x,1/2-y,z
loop_
_atom_site_type_symbol
_atom_site_label
_atom_site_fract_x
_atom_site_fract_y
_atom_site_fract_z
Si Si1 0.000000 0.933920 0.795113
Si Si2 0.396470 0.338905 0.710185
Si Si3 0.879955 0.283603 0.710920
Si Si4 0.255741 0.323587 0.299506
Si Si5 0.800820 0.559622 0.788008
Si Si6 0.567517 0.904992 0.204852
O O1 0.939923 0.892416 0.757168
O O2 0.000000 0.000000 0.721998
O O3 0.000000 0.941513 0.000000
O O4 0.394545 0.341130 0.500000
O O5 0.415915 0.274372 0.757347
O O6 0.324747 0.334828 0.780420
O O7 0.878403 0.287708 0.500000
O O8 0.805139 0.287152 0.767158
O O9 0.914397 0.338956 0.779599
O O10 0.266745 0.306580 0.500000
O O11 0.229112 0.386529 0.296243
O O12 0.770655 0.500000 0.744088
O O13 0.872944 0.561380 0.728309
O O14 0.799145 0.566162 0.000000
O O15 0.500000 0.915860 0.285722
O O16 0.563815 0.918620 0.000000
#
# Coordination Sequence:
#
# PCOD9492541 Si02
#       6
#     8  16  16  16  16  16
#     4  11  27  47  61  79 111 149 190 235 280 327
#     4  10  21  38  62  86 108 140 180 220 270 329
#     4   9  18  33  55  83 113 140 172 216 269 330
#     4   9  18  34  56  83 112 140 173 221 275 327
#     4   9  18  32  49  71 102 141 184 225 264 310
#     4   9  18  31  47  71 105 143 181 221 261 306
#
# _framework density 22.806321000000001
#
# number of rings (size 3 to 8) (size 9 to 14) (size 15 to 20)
#    0.000    2.636    0.000    0.818    1.273    6.182 
#    0.000    5.455    0.000    5.455    0.000    5.091 
#    0.000    0.000    0.000    0.000    0.000    0.000 
#
# Total GULP energy -244950.302949 kJ/mol
# GULP energy per Si atom -5567.052340 kJ/mol
# Density = 2.275441 g / cm^3
# Si number density = 22.806321 Si / 1000 Ang^3
#
#
#
# Elastic Constant Matrix: (Units=GPa)
#
#
# Indices 1 2 3 4 5 6 
#
# 1 85.2582 42.2620 2.8657 0.0000 0.0000 0.0000
# 2 42.2620 166.8781 11.4418 0.0000 0.0000 0.0000
# 3 2.8657 11.4418 44.7949 0.0000 0.0000 0.0000
# 4 0.0000 0.0000 0.0000 2.0906 0.0000 0.0000
# 5 0.0000 0.0000 0.0000 0.0000 8.1103 0.0000
# 6 0.0000 0.0000 0.0000 0.0000 0.0000 1.2815
#
#
#
# Elastic Compliance Matrix: (Units=1/GPa)
#
#
# Indices 1 2 3 4 5 6 
#
# 1 0.013413 -0.003397 0.000010 0.000000 0.000000 0.000000
# 2 -0.003397 0.006960 -0.001560 0.000000 0.000000 0.000000
# 3 0.000010 -0.001560 0.022722 0.000000 0.000000 0.000000
# 4 0.000000 0.000000 0.000000 0.478338 0.000000 0.000000
# 5 0.000000 0.000000 0.000000 0.000000 0.123299 0.000000
# 6 0.000000 0.000000 0.000000 0.000000 0.000000 0.780348
#
#
# Mechanical properties :
#
#
# Convention : Reuss Voigt Hill
#
# Bulk Modulus (GPa) = 30.12201 45.56338 37.84270
# Shear Modulus (GPa) = 3.45771 18.32058 10.88915
#
# Velocity S-wave (km/s) = 1.23264 2.83735 2.18746
# Velocity P-wave (km/s) = 3.90670 5.54580 4.79678
#
# Compressibility (1/GPa) = 0.03319831
#
# Stress axis : x y z
#
# Youngs Moduli (GPa) = 74.55523 143.68230 44.01042
#
# Poissons Ratio (x) = 0.48816 -0.00043
# Poissons Ratio (y) = 0.25330 0.06867
# Poissons Ratio (z) = -0.00073 0.22420
#
# Static dielectric constant tensor:
#      x y z
#    x 1.931870 0.000000 0.000000 
#    y 0.000000 1.871870 0.000000 
#    z 0.000000 0.000000 1.847650 
# 
# From -- ./inp_files/11737.got.cif
#   From: 2010.05.17/outbox.cif.g08.bks.cpg/sg65_6_cif.got.tgz:11737.got - 2010.06.03 17:01:31.
