data_PCOD9492375
_publ_section_title
;
Structure prediction by ZEFSAII (Michael W. Deem and Ramdas Pophale) SiO2 
 PCOD9492375
Probable space group: C M M M
;
_chemical_formula_sum "Si O2"
_cell_formula_units_Z 72
_cell_length_a 24.941273
_cell_length_b 17.267899
_cell_length_c 8.999603
_cell_angle_alpha 90.000000
_cell_angle_beta 90.000000
_cell_angle_gamma 90.000000
_cell_volume 3875.979467
_symmetry_space_group_name_H-M "C M M M"
_symmetry_group_IT_number 65
_symmetry_cell_setting 'orthorhombic'
loop_
_space_group_symop_operation_xyz
x,y,z
-x,-y,z
x,-y,-z
-x,y,-z
-x,-y,-z
x,y,-z
-x,y,z
x,-y,z
1/2+x,1/2+y,z
1/2-x,1/2-y,z
1/2+x,1/2-y,-z
1/2-x,1/2+y,-z
1/2-x,1/2-y,-z
1/2+x,1/2+y,-z
1/2-x,1/2+y,z
1/2+x,1/2-y,z
loop_
_atom_site_type_symbol
_atom_site_label
_atom_site_fract_x
_atom_site_fract_y
_atom_site_fract_z
Si Si1 0.760913 0.913145 0.677284
Si Si2 0.851810 0.625833 0.179177
Si Si3 0.150953 0.806433 0.176505
Si Si4 0.938654 0.500000 0.819437
Si Si5 0.436587 0.590222 0.674752
O O1 0.759005 0.904972 0.500000
O O2 0.701711 0.905942 0.744736
O O3 0.798723 0.847538 0.745562
O O4 0.781988 0.000000 0.711338
O O5 0.855814 0.716443 0.216905
O O6 0.903466 0.575065 0.223570
O O7 0.846197 0.618974 0.000000
O O8 0.099064 0.854021 0.227100
O O9 0.158473 0.810973 0.000000
O O10 0.000000 0.500000 0.765227
O O11 0.940987 0.500000 0.000000
O O12 0.423551 0.601532 0.500000
O O13 0.500000 0.603640 0.693406
O O14 0.426124 0.500000 0.709425
#
# Coordination Sequence:
#
# PCOD9492375 Si02
#       5
#    16  16  16   8  16
#     4  11  23  38  58  83 113 151 192 233 285 347
#     4  10  21  38  59  83 113 148 188 236 286 341
#     4  11  23  35  54  87 118 147 188 237 288 343
#     4   9  18  36  63  87 109 147 192 233 284 341
#     4   9  19  37  58  79 109 151 194 232 276 336
#
# _framework density 18.575949999999999
#
# number of rings (size 3 to 8) (size 9 to 14) (size 15 to 20)
#    0.000    1.889    1.111    3.333    0.000   10.222 
#    0.000    3.333    0.000    1.333    0.000    0.000 
#    0.000    0.000    0.000    0.000    0.000    0.000 
#
# Total GULP energy -201088.677049 kJ/mol
# GULP energy per Si atom -5585.796585 kJ/mol
# Density = 1.853367 g / cm^3
# Si number density = 18.575950 Si / 1000 Ang^3
#
#
#
# Elastic Constant Matrix: (Units=GPa)
#
#
# Indices 1 2 3 4 5 6 
#
# 1 114.2438 86.1975 37.0115 0.0000 0.0000 0.0000
# 2 86.1975 149.3769 54.4040 0.0000 0.0000 0.0000
# 3 37.0115 54.4040 31.3965 0.0000 0.0000 0.0000
# 4 0.0000 0.0000 0.0000 11.5863 0.0000 0.0000
# 5 0.0000 0.0000 0.0000 0.0000 16.3888 0.0000
# 6 0.0000 0.0000 0.0000 0.0000 0.0000 -17.6789
#
#
#
# Elastic Compliance Matrix: (Units=1/GPa)
#
#
# Indices 1 2 3 4 5 6 
#
# 1 0.016187 -0.006481 -0.007851 0.000000 0.000000 0.000000
# 2 -0.006481 0.020742 -0.028302 0.000000 0.000000 0.000000
# 3 -0.007851 -0.028302 0.090147 0.000000 0.000000 0.000000
# 4 0.000000 0.000000 0.000000 0.086309 0.000000 0.000000
# 5 0.000000 0.000000 0.000000 0.000000 0.061017 0.000000
# 6 0.000000 0.000000 0.000000 0.000000 0.000000 -0.056565
#
#
# Mechanical properties :
#
#
# Convention : Reuss Voigt Hill
#
# Bulk Modulus (GPa) = 23.91882 72.24925 48.08403
# Shear Modulus (GPa) = 15.77082 9.88619 12.82851
#
# Velocity S-wave (km/s) = 2.91691 2.30946 2.63077
# Velocity P-wave (km/s) = 4.92429 6.78895 5.93037
#
# Compressibility (1/GPa) = 0.04180809
#
# Stress axis : x y z
#
# Youngs Moduli (GPa) = 61.77887 48.21138 11.09298
#
# Poissons Ratio (x) = 0.31246 0.08709
# Poissons Ratio (y) = 0.40039 0.31395
# Poissons Ratio (z) = 0.48504 1.36446
#
# Static dielectric constant tensor:
#      x y z
#    x 1.625740 0.000000 0.000000 
#    y 0.000000 1.641500 0.000000 
#    z 0.000000 0.000000 1.617090 
# 
# From -- ./inp_files/7206.got.cif
#   From: 2010.05.17/outbox.cif.g08.bks.cpg/sg65_4_cif.got.tgz:7206.got - 2010.06.03 17:01:31.
