data_PCOD9492694
_publ_section_title
;
Structure prediction by ZEFSAII (Michael W. Deem and Ramdas Pophale) SiO2 
 PCOD9492694
Probable space group: C M M M
;
_chemical_formula_sum "Si O2"
_cell_formula_units_Z 64
_cell_length_a 11.025480
_cell_length_b 28.329834
_cell_length_c 10.208992
_cell_angle_alpha 90.000000
_cell_angle_beta 90.000000
_cell_angle_gamma 90.000000
_cell_volume 3188.778837
_symmetry_space_group_name_H-M "C M M M"
_symmetry_group_IT_number 65
_symmetry_cell_setting 'orthorhombic'
loop_
_space_group_symop_operation_xyz
x,y,z
-x,-y,z
x,-y,-z
-x,y,-z
-x,-y,-z
x,y,-z
-x,y,z
x,-y,z
1/2+x,1/2+y,z
1/2-x,1/2-y,z
1/2+x,1/2-y,-z
1/2-x,1/2+y,-z
1/2-x,1/2-y,-z
1/2+x,1/2+y,-z
1/2-x,1/2+y,z
1/2+x,1/2-y,z
loop_
_atom_site_type_symbol
_atom_site_label
_atom_site_fract_x
_atom_site_fract_y
_atom_site_fract_z
Si Si1 0.000000 0.122287 0.342914
Si Si2 0.361593 0.942638 0.000000
Si Si3 0.859867 0.427349 0.500000
Si Si4 0.288847 0.553216 0.747904
Si Si5 0.354223 0.814642 0.500000
Si Si6 0.250000 0.750000 0.273495
Si Si7 0.500000 0.287008 0.155262
O O1 0.112189 0.089904 0.300279
O O2 0.000000 0.168825 0.254946
O O3 0.000000 0.131348 0.500000
O O4 0.284969 0.928989 0.873264
O O5 0.500000 0.925059 0.000000
O O6 0.367673 0.000000 0.000000
O O7 0.802916 0.448918 0.628476
O O8 0.840071 0.370781 0.500000
O O9 0.000000 0.436231 0.500000
O O10 0.336713 0.500000 0.774384
O O11 0.500000 0.803367 0.500000
O O12 0.289314 0.792178 0.372776
O O13 0.372163 0.739031 0.190715
O O14 0.500000 0.298579 0.000000
#
# Coordination Sequence:
#
# PCOD9492694 Si02
#       7
#     8   8   8  16   8   8   8
#     4  12  27  44  67  99 138 176 226 282 335 399
#     4   9  20  39  63  91 127 178 234 280 332 397
#     4  11  22  36  60  97 135 171 227 285 333 385
#     4  11  23  40  64  93 134 185 231 278 333 394
#     4  10  21  39  68 102 135 176 227 276 333 412
#     4  11  23  44  74 102 132 180 218 276 340 424
#     4  12  28  47  75 105 139 173 226 283 347 410
#
# _framework density 20.070378999999999
#
# number of rings (size 3 to 8) (size 9 to 14) (size 15 to 20)
#    0.000    1.125    2.500    3.375    5.250    2.500 
#    0.000    1.875    0.000    0.000    0.000    0.000 
#    0.000    0.000    0.000    0.000    0.000    0.000 
#
# Total GULP energy -178753.319195 kJ/mol
# GULP energy per Si atom -5586.041225 kJ/mol
# Density = 2.002470 g / cm^3
# Si number density = 20.070379 Si / 1000 Ang^3
#
#
#
# Elastic Constant Matrix: (Units=GPa)
#
#
# Indices 1 2 3 4 5 6 
#
# 1 153.5386 49.9424 77.8590 0.0000 0.0000 0.0000
# 2 49.9424 65.4833 35.8250 0.0000 0.0000 0.0000
# 3 77.8590 35.8250 194.5301 0.0000 0.0000 0.0000
# 4 0.0000 0.0000 0.0000 22.6785 0.0000 0.0000
# 5 0.0000 0.0000 0.0000 0.0000 31.8226 0.0000
# 6 0.0000 0.0000 0.0000 0.0000 0.0000 12.2630
#
#
#
# Elastic Compliance Matrix: (Units=1/GPa)
#
#
# Indices 1 2 3 4 5 6 
#
# 1 0.009916 -0.005995 -0.002865 0.000000 0.000000 0.000000
# 2 -0.005995 0.020607 -0.001395 0.000000 0.000000 0.000000
# 3 -0.002865 -0.001395 0.006544 0.000000 0.000000 0.000000
# 4 0.000000 0.000000 0.000000 0.044095 0.000000 0.000000
# 5 0.000000 0.000000 0.000000 0.000000 0.031424 0.000000
# 6 0.000000 0.000000 0.000000 0.000000 0.000000 0.081546
#
#
# Mechanical properties :
#
#
# Convention : Reuss Voigt Hill
#
# Bulk Modulus (GPa) = 60.40055 82.31165 71.35610
# Shear Modulus (GPa) = 22.71065 30.01453 26.36259
#
# Velocity S-wave (km/s) = 3.36750 3.87132 3.62817
# Velocity P-wave (km/s) = 6.72903 7.81558 7.29257
#
# Compressibility (1/GPa) = 0.01655614
#
# Stress axis : x y z
#
# Youngs Moduli (GPa) = 100.84938 48.52731 152.80920
#
# Poissons Ratio (x) = 0.29094 0.43774
# Poissons Ratio (y) = 0.60462 0.21324
# Poissons Ratio (z) = 0.28889 0.06772
#
# Static dielectric constant tensor:
#      x y z
#    x 1.709040 0.000000 0.000000 
#    y 0.000000 1.715890 0.000000 
#    z 0.000000 0.000000 1.666500 
# 
# From -- ./inp_files/5069.got.cif
#   From: 2010.05.17/outbox.cif.g08.bks.cpg/sg65_3_cif.got.tgz:5069.got - 2010.06.03 17:01:31.
