data_PCOD9492069
_publ_section_title
;
Structure prediction by ZEFSAII (Michael W. Deem and Ramdas Pophale) SiO2 
 PCOD9492069
Probable space group: C M M M
;
_chemical_formula_sum "Si O2"
_cell_formula_units_Z 88
_cell_length_a 18.402141
_cell_length_b 7.554359
_cell_length_c 30.388826
_cell_angle_alpha 90.000000
_cell_angle_beta 90.000000
_cell_angle_gamma 90.000000
_cell_volume 4224.544567
_symmetry_space_group_name_H-M "C M M M"
_symmetry_group_IT_number 65
_symmetry_cell_setting 'orthorhombic'
loop_
_space_group_symop_operation_xyz
x,y,z
-x,-y,z
x,-y,-z
-x,y,-z
-x,-y,-z
x,y,-z
-x,y,z
x,-y,z
1/2+x,1/2+y,z
1/2-x,1/2-y,z
1/2+x,1/2-y,-z
1/2-x,1/2+y,-z
1/2-x,1/2-y,-z
1/2+x,1/2+y,-z
1/2-x,1/2+y,z
1/2+x,1/2-y,z
loop_
_atom_site_type_symbol
_atom_site_label
_atom_site_fract_x
_atom_site_fract_y
_atom_site_fract_z
Si Si1 0.912620 0.212646 0.858062
Si Si2 0.581738 0.789787 0.414004
Si Si3 0.664887 0.212813 0.500000
Si Si4 0.915064 0.216575 0.762288
Si Si5 0.665154 0.290403 0.324566
Si Si6 0.086728 0.785189 0.952651
O O1 0.886949 0.277535 0.810336
O O2 0.884388 0.279923 0.905342
O O3 0.000000 0.241431 0.857837
O O4 0.902175 0.000000 0.858456
O O5 0.500000 0.716969 0.411627
O O6 0.626345 0.718510 0.455743
O O7 0.623556 0.767455 0.368308
O O8 0.575774 0.000000 0.420990
O O9 0.750000 0.250000 0.500000
O O10 0.657807 0.000000 0.500000
O O11 0.869959 0.281211 0.720488
O O12 0.000000 0.265392 0.757527
O O13 0.913241 0.000000 0.763032
O O14 0.656510 0.500000 0.322600
O O15 0.750000 0.250000 0.327477
O O16 0.000000 0.747273 0.952774
O O17 0.092831 0.000000 0.952512
O O18 0.116212 0.722269 0.000000
#
# Coordination Sequence:
#
# PCOD9492069 Si02
#       6
#    16  16   8  16  16  16
#     4   7   9  14  25  42  66  97 133 172 215 265
#     4  10  21  38  59  81 105 133 165 200 239 283
#     4  10  21  37  57  81 109 140 169 198 234 276
#     4   8  14  25  41  60  82 111 148 189 232 279
#     4  11  22  35  51  72  99 129 163 203 245 289
#     4   7   8   9  15  31  58  92 127 162 204 258
#
# _framework density 20.830646999999999
#
# number of rings (size 3 to 8) (size 9 to 14) (size 15 to 20)
#    0.000    3.273    0.000    4.636    0.000    4.364 
#    0.000    0.000    0.000    1.636    0.000    0.000 
#    0.000    0.727    0.000    0.545    0.000    5.455 
#
# Total GULP energy -245125.326995 kJ/mol
# GULP energy per Si atom -5571.030159 kJ/mol
# Density = 2.078324 g / cm^3
# Si number density = 20.830647 Si / 1000 Ang^3
#
#
#
# Elastic Constant Matrix: (Units=GPa)
#
#
# Indices 1 2 3 4 5 6 
#
# 1 98.9979 0.1032 100.5677 0.0000 0.0000 0.0000
# 2 0.1032 48.3564 7.3125 0.0000 0.0000 0.0000
# 3 100.5677 7.3125 281.6359 0.0000 0.0000 0.0000
# 4 0.0000 0.0000 0.0000 23.6842 0.0000 0.0000
# 5 0.0000 0.0000 0.0000 0.0000 -5.9968 0.0000
# 6 0.0000 0.0000 0.0000 0.0000 0.0000 764.1402
#
#
#
# Elastic Compliance Matrix: (Units=1/GPa)
#
#
# Indices 1 2 3 4 5 6 
#
# 1 0.015884 0.000827 -0.005693 0.000000 0.000000 0.000000
# 2 0.000827 0.020804 -0.000836 0.000000 0.000000 0.000000
# 3 -0.005693 -0.000836 0.005605 0.000000 0.000000 0.000000
# 4 0.000000 0.000000 0.000000 0.042222 0.000000 0.000000
# 5 0.000000 0.000000 0.000000 0.000000 -0.166755 0.000000
# 6 0.000000 0.000000 0.000000 0.000000 0.000000 0.001309
#
#
# Mechanical properties :
#
#
# Convention : Reuss Voigt Hill
#
# Bulk Modulus (GPa) = 32.37280 71.66187 52.01734
# Shear Modulus (GPa) = -84.41672 177.76597 46.67462
#
# Velocity S-wave (km/s) = -6.37285 9.24791 4.73871
# Velocity P-wave (km/s) = 6.21098 12.18642 7.41392
#
# Compressibility (1/GPa) = 0.03089013
#
# Stress axis : x y z
#
# Youngs Moduli (GPa) = 62.95615 48.06685 178.39915
#
# Poissons Ratio (x) = -0.03976 1.01570
# Poissons Ratio (y) = -0.05207 0.14905
# Poissons Ratio (z) = 0.35844 0.04016
#
# Static dielectric constant tensor:
#      x y z
#    x 1.683520 0.000000 0.000000 
#    y 0.000000 1.510320 0.000000 
#    z 0.000000 0.000000 1.816880 
# 
# From -- ./inp_files/77811.got.cif
#   From: 2010.05.17/outbox.cif.g08.bks.cpg/sg65_39_cif.got.tgz:77811.got - 2010.06.03 17:01:31.
