data_PCOD9492253
_publ_section_title
;
Structure prediction by ZEFSAII (Michael W. Deem and Ramdas Pophale) SiO2 
 PCOD9492253
Probable space group: C M M M
;
_chemical_formula_sum "Si O2"
_cell_formula_units_Z 72
_cell_length_a 21.352775
_cell_length_b 8.776968
_cell_length_c 20.236329
_cell_angle_alpha 90.000000
_cell_angle_beta 90.000000
_cell_angle_gamma 90.000000
_cell_volume 3792.543495
_symmetry_space_group_name_H-M "C M M M"
_symmetry_group_IT_number 65
_symmetry_cell_setting 'orthorhombic'
loop_
_space_group_symop_operation_xyz
x,y,z
-x,-y,z
x,-y,-z
-x,y,-z
-x,-y,-z
x,y,-z
-x,y,z
x,-y,z
1/2+x,1/2+y,z
1/2-x,1/2-y,z
1/2+x,1/2-y,-z
1/2-x,1/2+y,-z
1/2-x,1/2-y,-z
1/2+x,1/2+y,-z
1/2-x,1/2+y,z
1/2+x,1/2-y,z
loop_
_atom_site_type_symbol
_atom_site_label
_atom_site_fract_x
_atom_site_fract_y
_atom_site_fract_z
Si Si1 0.075738 0.675903 0.073142
Si Si2 0.137843 0.814706 0.423530
Si Si3 0.500000 0.328733 0.579783
Si Si4 0.313696 0.819279 0.294135
Si Si5 0.426895 0.319262 0.788248
O O1 0.095565 0.500000 0.084018
O O2 0.090703 0.778249 0.136071
O O3 0.000000 0.674515 0.070426
O O4 0.097753 0.725017 0.000000
O O5 0.151165 0.775622 0.500000
O O6 0.067129 0.759371 0.405437
O O7 0.181278 0.742021 0.369046
O O8 0.138209 0.000000 0.419314
O O9 0.500000 0.500000 0.608557
O O10 0.500000 0.343140 0.500000
O O11 0.250000 0.750000 0.264295
O O12 0.375996 0.761799 0.257312
O O13 0.310516 0.000000 0.293033
O O14 0.500000 0.271884 0.776984
O O15 0.423883 0.500000 0.777539
#
# Coordination Sequence:
#
# PCOD9492253 Si02
#       5
#    16  16   8  16  16
#     4   8  14  27  50  82 119 154 188 230 278 325
#     4   9  18  35  59  85 112 144 184 230 283 341
#     4   7  12  26  51  81 109 137 168 209 266 327
#     4  12  26  42  59  80 112 151 193 239 290 344
#     4  10  21  37  59  87 118 153 193 235 281 337
#
# _framework density 18.984621000000001
#
# number of rings (size 3 to 8) (size 9 to 14) (size 15 to 20)
#    0.000    2.556    0.000    4.667    1.556    2.667 
#    0.000    2.222    0.000    2.667    0.000    0.000 
#    0.000    0.000    0.000    0.000    0.000    0.000 
#
# Total GULP energy -200669.700688 kJ/mol
# GULP energy per Si atom -5574.158352 kJ/mol
# Density = 1.894141 g / cm^3
# Si number density = 18.984621 Si / 1000 Ang^3
#
#
#
# Elastic Constant Matrix: (Units=GPa)
#
#
# Indices 1 2 3 4 5 6 
#
# 1 101.2478 40.9398 51.8499 0.0000 0.0000 0.0000
# 2 40.9398 68.3948 45.0568 0.0000 0.0000 0.0000
# 3 51.8499 45.0568 97.8339 0.0000 0.0000 0.0000
# 4 0.0000 0.0000 0.0000 28.4577 0.0000 0.0000
# 5 0.0000 0.0000 0.0000 0.0000 4.6435 0.0000
# 6 0.0000 0.0000 0.0000 0.0000 0.0000 23.6614
#
#
#
# Elastic Compliance Matrix: (Units=1/GPa)
#
#
# Indices 1 2 3 4 5 6 
#
# 1 0.014780 -0.005292 -0.005396 0.000000 0.000000 0.000000
# 2 -0.005292 0.022884 -0.007734 0.000000 0.000000 0.000000
# 3 -0.005396 -0.007734 0.016643 0.000000 0.000000 0.000000
# 4 0.000000 0.000000 0.000000 0.035140 0.000000 0.000000
# 5 0.000000 0.000000 0.000000 0.000000 0.215354 0.000000
# 6 0.000000 0.000000 0.000000 0.000000 0.000000 0.042263
#
#
# Mechanical properties :
#
#
# Convention : Reuss Voigt Hill
#
# Bulk Modulus (GPa) = 57.26633 60.35219 58.80926
# Shear Modulus (GPa) = 12.82941 19.99451 16.41196
#
# Velocity S-wave (km/s) = 2.60240 3.24882 2.94341
# Velocity P-wave (km/s) = 6.26578 6.77733 6.52657
#
# Compressibility (1/GPa) = 0.01746227
#
# Stress axis : x y z
#
# Youngs Moduli (GPa) = 67.65927 43.69851 60.08555
#
# Poissons Ratio (x) = 0.23127 0.32420
# Poissons Ratio (y) = 0.35808 0.46472
# Poissons Ratio (z) = 0.36507 0.33797
#
# Static dielectric constant tensor:
#      x y z
#    x 1.683660 0.000000 0.000000 
#    y 0.000000 1.642160 0.000000 
#    z 0.000000 0.000000 1.686260 
# 
# From -- ./inp_files/64337.got.cif
#   From: 2010.05.17/outbox.cif.g08.bks.cpg/sg65_33_cif.got.tgz:64337.got - 2010.06.03 17:01:31.
