data_PCOD9492361
_publ_section_title
;
Structure prediction by ZEFSAII (Michael W. Deem and Ramdas Pophale) SiO2 
 PCOD9492361
Probable space group: C M M M
;
_chemical_formula_sum "Si O2"
_cell_formula_units_Z 80
_cell_length_a 14.982031
_cell_length_b 17.881884
_cell_length_c 15.821345
_cell_angle_alpha 90.000000
_cell_angle_beta 90.000000
_cell_angle_gamma 90.000000
_cell_volume 4238.648132
_symmetry_space_group_name_H-M "C M M M"
_symmetry_group_IT_number 65
_symmetry_cell_setting 'orthorhombic'
loop_
_space_group_symop_operation_xyz
x,y,z
-x,-y,z
x,-y,-z
-x,y,-z
-x,-y,-z
x,y,-z
-x,y,z
x,-y,z
1/2+x,1/2+y,z
1/2-x,1/2-y,z
1/2+x,1/2-y,-z
1/2-x,1/2+y,-z
1/2-x,1/2-y,-z
1/2+x,1/2+y,-z
1/2-x,1/2+y,z
1/2+x,1/2-y,z
loop_
_atom_site_type_symbol
_atom_site_label
_atom_site_fract_x
_atom_site_fract_y
_atom_site_fract_z
Si Si1 0.210119 0.591223 0.907091
Si Si2 0.097830 0.089523 0.353490
Si Si3 0.723839 0.165478 0.404205
Si Si4 0.394673 0.910031 0.261210
Si Si5 0.097887 0.909377 0.153352
O O1 0.210588 0.500000 0.906483
O O2 0.149814 0.613635 0.827733
O O3 0.312442 0.616402 0.892314
O O4 0.178772 0.615005 0.000000
O O5 0.182942 0.121339 0.399822
O O6 0.106039 0.107144 0.253346
O O7 0.000000 0.116407 0.382466
O O8 0.098593 0.000000 0.360624
O O9 0.688352 0.163605 0.500000
O O10 0.750000 0.250000 0.381893
O O11 0.656116 0.130242 0.337411
O O12 0.500000 0.894908 0.261615
O O13 0.381827 0.000000 0.269598
O O14 0.000000 0.882878 0.123847
O O15 0.096891 0.000000 0.145950
#
# Coordination Sequence:
#
# PCOD9492361 Si02
#       5
#    16  16  16  16  16
#     4   9  16  27  48  80 114 144 178 226 281 330
#     4   9  17  32  56  82 107 137 175 220 269 324
#     4  11  24  39  56  80 111 145 181 226 280 335
#     4  10  21  38  59  82 111 148 191 236 277 322
#     4   8  13  23  43  73 107 139 171 212 264 319
#
# _framework density 18.873942
#
# number of rings (size 3 to 8) (size 9 to 14) (size 15 to 20)
#    0.000    2.600    2.000    1.800    0.000    4.000 
#    0.000    8.000    0.000    0.600    0.000    0.000 
#    0.000    0.000    0.000    0.000    0.000    0.000 
#
# Total GULP energy -223025.231392 kJ/mol
# GULP energy per Si atom -5575.630785 kJ/mol
# Density = 1.883098 g / cm^3
# Si number density = 18.873942 Si / 1000 Ang^3
#
#
#
# Elastic Constant Matrix: (Units=GPa)
#
#
# Indices 1 2 3 4 5 6 
#
# 1 134.7103 37.4651 90.8800 0.0000 0.0000 0.0000
# 2 37.4651 18.7295 39.9612 0.0000 0.0000 0.0000
# 3 90.8800 39.9612 115.7745 0.0000 0.0000 0.0000
# 4 0.0000 0.0000 0.0000 -2.0082 0.0000 0.0000
# 5 0.0000 0.0000 0.0000 0.0000 1.0381 0.0000
# 6 0.0000 0.0000 0.0000 0.0000 0.0000 3.4698
#
#
#
# Elastic Compliance Matrix: (Units=1/GPa)
#
#
# Indices 1 2 3 4 5 6 
#
# 1 0.017908 -0.022117 -0.006423 0.000000 0.000000 0.000000
# 2 -0.022117 0.229894 -0.061990 0.000000 0.000000 0.000000
# 3 -0.006423 -0.061990 0.035076 0.000000 0.000000 0.000000
# 4 0.000000 0.000000 0.000000 -0.497967 0.000000 0.000000
# 5 0.000000 0.000000 0.000000 0.000000 0.963334 0.000000
# 6 0.000000 0.000000 0.000000 0.000000 0.000000 0.288202
#
#
# Mechanical properties :
#
#
# Convention : Reuss Voigt Hill
#
# Bulk Modulus (GPa) = 9.82145 67.31410 38.56778
# Shear Modulus (GPa) = 3.99538 7.22713 5.61126
#
# Velocity S-wave (km/s) = 1.45653 1.95895 1.72611
# Velocity P-wave (km/s) = 2.83613 6.39212 4.94484
#
# Compressibility (1/GPa) = 0.10181791
#
# Stress axis : x y z
#
# Youngs Moduli (GPa) = 55.84222 4.34984 28.50935
#
# Poissons Ratio (x) = 0.09620 0.18312
# Poissons Ratio (y) = 1.23504 1.76729
# Poissons Ratio (z) = 0.35868 0.26965
#
# Static dielectric constant tensor:
#      x y z
#    x 1.662230 0.000000 0.000000 
#    y 0.000000 1.625760 0.000000 
#    z 0.000000 0.000000 1.674300 
# 
# From -- ./inp_files/40015.got.cif
#   From: 2010.05.17/outbox.cif.g08.bks.cpg/sg65_21_cif.got.tgz:40015.got - 2010.06.03 17:01:31.
