data_PCOD9492398
_publ_section_title
;
Structure prediction by ZEFSAII (Michael W. Deem and Ramdas Pophale) SiO2 
 PCOD9492398
Probable space group: C M M M
;
_chemical_formula_sum "Si O2"
_cell_formula_units_Z 100
_cell_length_a 20.301464
_cell_length_b 17.587121
_cell_length_c 16.286125
_cell_angle_alpha 90.000000
_cell_angle_beta 90.000000
_cell_angle_gamma 90.000000
_cell_volume 5814.868163
_symmetry_space_group_name_H-M "C M M M"
_symmetry_group_IT_number 65
_symmetry_cell_setting 'orthorhombic'
loop_
_space_group_symop_operation_xyz
x,y,z
-x,-y,z
x,-y,-z
-x,y,-z
-x,-y,-z
x,y,-z
-x,y,z
x,-y,z
1/2+x,1/2+y,z
1/2-x,1/2-y,z
1/2+x,1/2-y,-z
1/2-x,1/2+y,-z
1/2-x,1/2-y,-z
1/2+x,1/2+y,-z
1/2-x,1/2+y,z
1/2+x,1/2-y,z
loop_
_atom_site_type_symbol
_atom_site_label
_atom_site_fract_x
_atom_site_fract_y
_atom_site_fract_z
Si Si1 0.305306 0.315692 0.747597
Si Si2 0.616627 0.086157 0.864249
Si Si3 0.759110 0.911768 0.407908
Si Si4 0.500000 0.095348 0.000000
Si Si5 0.730953 0.590402 0.092745
Si Si6 0.425408 0.206606 0.728894
Si Si7 0.399848 0.914846 0.595225
O O1 0.250000 0.250000 0.753679
O O2 0.287479 0.366295 0.668549
O O3 0.301284 0.363340 0.832364
O O4 0.375225 0.276339 0.730893
O O5 0.558221 0.091764 0.929737
O O6 0.689677 0.099512 0.900033
O O7 0.602013 0.147430 0.795561
O O8 0.616873 0.000000 0.830769
O O9 0.776138 0.882838 0.500000
O O10 0.679753 0.910788 0.401214
O O11 0.779423 0.000000 0.403325
O O12 0.717679 0.500000 0.101502
O O13 0.710977 0.613832 0.000000
O O14 0.500000 0.229377 0.748253
O O15 0.424994 0.156286 0.646406
O O16 0.418852 0.909933 0.500000
O O17 0.419098 0.000000 0.624911
#
# Coordination Sequence:
#
# PCOD9492398 Si02
#       7
#    16  16  16   4  16  16  16
#     4  12  22  36  56  85 112 147 185 226 277 329
#     4  11  20  33  53  79 110 147 186 216 253 322
#     4   9  18  35  61  87 109 139 184 234 276 319
#     4  12  21  32  52  78 114 156 187 210 253 324
#     4  10  21  38  60  83 107 139 185 235 276 319
#     4  12  25  37  49  77 116 153 183 219 275 327
#     4   9  18  34  56  82 112 148 187 219 256 320
#
# _framework density 17.197293999999999
#
# number of rings (size 3 to 8) (size 9 to 14) (size 15 to 20)
#    0.000    1.440    4.800    2.640    0.000    5.120 
#    1.440    0.800    0.000    1.920    0.000    2.240 
#    0.000    0.000    0.000    0.000    0.000    0.000 
#
# Total GULP energy -278505.727682 kJ/mol
# GULP energy per Si atom -5570.114554 kJ/mol
# Density = 1.715815 g / cm^3
# Si number density = 17.197294 Si / 1000 Ang^3
#
#
#
# Elastic Constant Matrix: (Units=GPa)
#
#
# Indices 1 2 3 4 5 6 
#
# 1 68.6280 42.1506 32.9790 0.0000 0.0000 0.0000
# 2 42.1506 71.6436 64.8366 0.0000 0.0000 0.0000
# 3 32.9790 64.8366 131.0238 0.0000 0.0000 0.0000
# 4 0.0000 0.0000 0.0000 -33.9527 0.0000 0.0000
# 5 0.0000 0.0000 0.0000 0.0000 69.2184 0.0000
# 6 0.0000 0.0000 0.0000 0.0000 0.0000 12.7806
#
#
#
# Elastic Compliance Matrix: (Units=1/GPa)
#
#
# Indices 1 2 3 4 5 6 
#
# 1 0.023010 -0.015025 0.001643 0.000000 0.000000 0.000000
# 2 -0.015025 0.035089 -0.013582 0.000000 0.000000 0.000000
# 3 0.001643 -0.013582 0.013940 0.000000 0.000000 0.000000
# 4 0.000000 0.000000 0.000000 -0.029453 0.000000 0.000000
# 5 0.000000 0.000000 0.000000 0.000000 0.014447 0.000000
# 6 0.000000 0.000000 0.000000 0.000000 0.000000 0.078244
#
#
# Mechanical properties :
#
#
# Convention : Reuss Voigt Hill
#
# Bulk Modulus (GPa) = 55.21294 61.24754 58.23024
# Shear Modulus (GPa) = 25.60956 18.36452 21.98704
#
# Velocity S-wave (km/s) = 3.86315 3.27138 3.57952
# Velocity P-wave (km/s) = 7.21622 7.06832 7.14266
#
# Compressibility (1/GPa) = 0.01811170
#
# Stress axis : x y z
#
# Youngs Moduli (GPa) = 43.46021 28.49899 71.73831
#
# Poissons Ratio (x) = 0.42818 -0.11789
# Poissons Ratio (y) = 0.65297 0.97434
# Poissons Ratio (z) = -0.07142 0.38707
#
# Static dielectric constant tensor:
#      x y z
#    x 1.564780 0.000000 0.000000 
#    y 0.000000 1.582740 0.000000 
#    z 0.000000 0.000000 1.613410 
# 
# From -- ./inp_files/44415.got.cif
#   From: 2010.05.17/outbox.cif.g08.bks.cpg/sg65_23_cif.got.tgz:44415.got - 2010.06.03 17:01:31.
