data_PCOD9492807
_publ_section_title
;
Structure prediction by ZEFSAII (Michael W. Deem and Ramdas Pophale) SiO2 
 PCOD9492807
Probable space group: C M M M
;
_chemical_formula_sum "Si O2"
_cell_formula_units_Z 72
_cell_length_a 27.313757
_cell_length_b 9.795192
_cell_length_c 15.712937
_cell_angle_alpha 90.000000
_cell_angle_beta 90.000000
_cell_angle_gamma 90.000000
_cell_volume 4203.894067
_symmetry_space_group_name_H-M "C M M M"
_symmetry_group_IT_number 65
_symmetry_cell_setting 'orthorhombic'
loop_
_space_group_symop_operation_xyz
x,y,z
-x,-y,z
x,-y,-z
-x,y,-z
-x,-y,-z
x,y,-z
-x,y,z
x,-y,z
1/2+x,1/2+y,z
1/2-x,1/2-y,z
1/2+x,1/2-y,-z
1/2-x,1/2+y,-z
1/2-x,1/2-y,-z
1/2+x,1/2+y,-z
1/2-x,1/2+y,z
1/2+x,1/2-y,z
loop_
_atom_site_type_symbol
_atom_site_label
_atom_site_fract_x
_atom_site_fract_y
_atom_site_fract_z
Si Si1 0.444959 0.833907 0.500000
Si Si2 0.328189 0.000000 0.100809
Si Si3 0.636131 0.715647 0.830870
Si Si4 0.126746 0.337902 0.351902
Si Si5 0.794930 0.346652 0.500000
Si Si6 0.441902 0.500000 0.102673
Si Si7 0.785948 0.000000 0.896191
O O1 0.500000 0.786272 0.500000
O O2 0.417808 0.794576 0.586803
O O3 0.443151 0.000000 0.500000
O O4 0.356409 0.135336 0.129222
O O5 0.271077 0.000000 0.130953
O O6 0.324964 0.000000 0.000000
O O7 0.632691 0.744650 0.730335
O O8 0.588787 0.630658 0.862679
O O9 0.683666 0.628521 0.859855
O O10 0.121422 0.500000 0.328735
O O11 0.172274 0.328380 0.416160
O O12 0.776649 0.500000 0.500000
O O13 0.750000 0.250000 0.500000
O O14 0.500000 0.500000 0.124930
O O15 0.438357 0.500000 0.000000
O O16 0.788701 0.000000 0.000000
#
# Coordination Sequence:
#
# PCOD9492807 Si02
#       7
#     8   8  16  16   8   8   8
#     4   8  15  30  55  77 103 138 169 218 286 336
#     4  11  21  34  56  84 112 144 186 239 283 322
#     4  11  20  36  58  83 113 147 187 236 279 329
#     4   9  18  34  52  81 113 137 182 233 271 322
#     4   9  19  36  53  75 112 155 187 218 267 327
#     4  10  23  43  61  78 109 154 190 223 286 359
#     4  10  22  37  53  79 116 157 193 224 276 342
#
# _framework density 17.126978000000001
#
# number of rings (size 3 to 8) (size 9 to 14) (size 15 to 20)
#    0.000    2.222    1.111    4.667    0.000    4.444 
#    4.000    0.556    0.000    2.000    0.000    4.667 
#    0.000    0.000    0.000    0.000    0.000    0.000 
#
# Total GULP energy -200652.622305 kJ/mol
# GULP energy per Si atom -5573.683953 kJ/mol
# Density = 1.708800 g / cm^3
# Si number density = 17.126978 Si / 1000 Ang^3
#
#
#
# Elastic Constant Matrix: (Units=GPa)
#
#
# Indices 1 2 3 4 5 6 
#
# 1 128.2672 74.9738 47.5560 0.0000 0.0000 0.0000
# 2 74.9738 118.3831 56.1465 0.0000 0.0000 0.0000
# 3 47.5560 56.1465 118.3364 0.0000 0.0000 0.0000
# 4 0.0000 0.0000 0.0000 33.1171 0.0000 0.0000
# 5 0.0000 0.0000 0.0000 0.0000 -18.0382 0.0000
# 6 0.0000 0.0000 0.0000 0.0000 0.0000 17.2419
#
#
#
# Elastic Compliance Matrix: (Units=1/GPa)
#
#
# Indices 1 2 3 4 5 6 
#
# 1 0.012624 -0.007212 -0.001651 0.000000 0.000000 0.000000
# 2 -0.007212 0.015020 -0.004228 0.000000 0.000000 0.000000
# 3 -0.001651 -0.004228 0.011120 0.000000 0.000000 0.000000
# 4 0.000000 0.000000 0.000000 0.030196 0.000000 0.000000
# 5 0.000000 0.000000 0.000000 0.000000 -0.055438 0.000000
# 6 0.000000 0.000000 0.000000 0.000000 0.000000 0.057998
#
#
# Mechanical properties :
#
#
# Convention : Reuss Voigt Hill
#
# Bulk Modulus (GPa) = 79.48331 80.25991 79.87161
# Shear Modulus (GPa) = 49.06946 18.88484 33.97715
#
# Velocity S-wave (km/s) = 5.35841 3.32420 4.45886
# Velocity P-wave (km/s) = 9.20828 7.85475 8.55832
#
# Compressibility (1/GPa) = 0.01258126
#
# Stress axis : x y z
#
# Youngs Moduli (GPa) = 79.21554 66.57931 89.92560
#
# Poissons Ratio (x) = 0.48014 0.14851
# Poissons Ratio (y) = 0.57127 0.38022
# Poissons Ratio (z) = 0.13082 0.28151
#
# Static dielectric constant tensor:
#      x y z
#    x 1.576920 0.000000 0.000000 
#    y 0.000000 1.585980 0.000000 
#    z 0.000000 0.000000 1.573320 
# 
# From -- ./inp_files/46604.got.cif
#   From: 2010.05.17/outbox.cif.g08.bks.cpg/sg65_24_cif.got.tgz:46604.got - 2010.06.03 17:01:31.
