data_PCOD9492605
_publ_section_title
;
Structure prediction by ZEFSAII (Michael W. Deem and Ramdas Pophale) SiO2 
 PCOD9492605
Probable space group: C M M M
;
_chemical_formula_sum "Si O2"
_cell_formula_units_Z 68
_cell_length_a 17.926991
_cell_length_b 23.831848
_cell_length_c 7.168959
_cell_angle_alpha 90.000000
_cell_angle_beta 90.000000
_cell_angle_gamma 90.000000
_cell_volume 3062.818188
_symmetry_space_group_name_H-M "C M M M"
_symmetry_group_IT_number 65
_symmetry_cell_setting 'orthorhombic'
loop_
_space_group_symop_operation_xyz
x,y,z
-x,-y,z
x,-y,-z
-x,y,-z
-x,-y,-z
x,y,-z
-x,y,z
x,-y,z
1/2+x,1/2+y,z
1/2-x,1/2-y,z
1/2+x,1/2-y,-z
1/2-x,1/2+y,-z
1/2-x,1/2-y,-z
1/2+x,1/2+y,-z
1/2-x,1/2+y,z
1/2+x,1/2-y,z
loop_
_atom_site_type_symbol
_atom_site_label
_atom_site_fract_x
_atom_site_fract_y
_atom_site_fract_z
Si Si1 0.166397 0.233516 0.725880
Si Si2 0.632803 0.605402 0.725050
Si Si3 0.000000 0.923298 0.000000
Si Si4 0.202843 0.562710 0.273993
Si Si5 0.584130 0.155329 0.272973
O O1 0.168667 0.233238 0.500000
O O2 0.250000 0.250000 0.786536
O O3 0.140441 0.171419 0.777475
O O4 0.110787 0.282791 0.783671
O O5 0.622687 0.601486 0.500000
O O6 0.712412 0.578056 0.773545
O O7 0.565481 0.578941 0.837992
O O8 0.200357 0.563527 0.500000
O O9 0.183727 0.500000 0.213415
O O10 0.144402 0.609571 0.211545
O O11 0.584801 0.154961 0.500000
O O12 0.500000 0.143208 0.214276
#
# Coordination Sequence:
#
# PCOD9492605 Si02
#       5
#    16  16   4  16  16
#     4   9  15  28  53  80 111 156 200 235 286 352
#     4  10  21  39  60  85 121 160 197 244 302 361
#     4  12  26  40  59  92 118 146 201 256 306 360
#     4   9  17  32  55  81 113 157 202 244 296 356
#     4   9  16  25  45  84 122 154 198 242 289 352
#
# _framework density 22.201775000000001
#
# number of rings (size 3 to 8) (size 9 to 14) (size 15 to 20)
#    0.000    2.588    2.353    0.353    1.647    0.471 
#    0.000    4.706    0.000    2.824    0.000    0.000 
#    0.000    1.882    0.000    0.235    0.000    0.000 
#
# Total GULP energy -189561.298543 kJ/mol
# GULP energy per Si atom -5575.332310 kJ/mol
# Density = 2.215124 g / cm^3
# Si number density = 22.201775 Si / 1000 Ang^3
#
#
#
# Elastic Constant Matrix: (Units=GPa)
#
#
# Indices 1 2 3 4 5 6 
#
# 1 133.6199 -0.3131 16.3984 0.0000 0.0000 0.0000
# 2 -0.3131 65.9384 -4.6679 0.0000 0.0000 0.0000
# 3 16.3984 -4.6679 130.8280 0.0000 0.0000 0.0000
# 4 0.0000 0.0000 0.0000 -34.8063 0.0000 0.0000
# 5 0.0000 0.0000 0.0000 0.0000 -57.9161 0.0000
# 6 0.0000 0.0000 0.0000 0.0000 0.0000 -17.2243
#
#
#
# Elastic Compliance Matrix: (Units=1/GPa)
#
#
# Indices 1 2 3 4 5 6 
#
# 1 0.007601 -0.000031 -0.000954 0.000000 0.000000 0.000000
# 2 -0.000031 0.015204 0.000546 0.000000 0.000000 0.000000
# 3 -0.000954 0.000546 0.007783 0.000000 0.000000 0.000000
# 4 0.000000 0.000000 0.000000 -0.028730 0.000000 0.000000
# 5 0.000000 0.000000 0.000000 0.000000 -0.017266 0.000000
# 6 0.000000 0.000000 0.000000 0.000000 0.000000 -0.058058
#
#
# Mechanical properties :
#
#
# Convention : Reuss Voigt Hill
#
# Bulk Modulus (GPa) = 33.65862 39.24679 36.45271
# Shear Modulus (GPa) = -79.76312 -0.72472 -40.24392
#
# Velocity S-wave (km/s) = -6.00037 -0.57196 -4.26213
# Velocity P-wave (km/s) = 5.72824 4.15686 2.78686
#
# Compressibility (1/GPa) = 0.02971007
#
# Stress axis : x y z
#
# Youngs Moduli (GPa) = 131.56334 65.77132 128.49048
#
# Poissons Ratio (x) = 0.00207 0.12256
# Poissons Ratio (y) = 0.00414 -0.07021
# Poissons Ratio (z) = 0.12549 -0.03594
#
# Static dielectric constant tensor:
#      x y z
#    x 1.737680 0.000000 0.000000 
#    y 0.000000 1.807130 0.000000 
#    z 0.000000 0.000000 1.869340 
# 
# From -- ./inp_files/9290.got.cif
#   From: 2010.05.17/outbox.cif.g08.bks.cpg/sg65_5_cif.got.tgz:9290.got - 2010.06.03 17:01:31.
