data_PCOD9492788
_publ_section_title
;
Structure prediction by ZEFSAII (Michael W. Deem and Ramdas Pophale) SiO2 
 PCOD9492788
Probable space group: C M M M
;
_chemical_formula_sum "Si O2"
_cell_formula_units_Z 88
_cell_length_a 10.475930
_cell_length_b 18.404728
_cell_length_c 26.123966
_cell_angle_alpha 90.000000
_cell_angle_beta 90.000000
_cell_angle_gamma 90.000000
_cell_volume 5036.874165
_symmetry_space_group_name_H-M "C M M M"
_symmetry_group_IT_number 65
_symmetry_cell_setting 'orthorhombic'
loop_
_space_group_symop_operation_xyz
x,y,z
-x,-y,z
x,-y,-z
-x,y,-z
-x,-y,-z
x,y,-z
-x,y,z
x,-y,z
1/2+x,1/2+y,z
1/2-x,1/2-y,z
1/2+x,1/2-y,-z
1/2-x,1/2+y,-z
1/2-x,1/2-y,-z
1/2+x,1/2+y,-z
1/2-x,1/2+y,z
1/2+x,1/2-y,z
loop_
_atom_site_type_symbol
_atom_site_label
_atom_site_fract_x
_atom_site_fract_y
_atom_site_fract_z
Si Si1 0.353125 0.586331 0.259856
Si Si2 0.000000 0.417846 0.061507
Si Si3 0.147462 0.686283 0.441689
Si Si4 0.853812 0.586741 0.655799
Si Si5 0.262585 0.337242 0.057621
Si Si6 0.857811 0.811769 0.162652
O O1 0.500000 0.597896 0.277253
O O2 0.337060 0.500000 0.250960
O O3 0.250294 0.609543 0.302242
O O4 0.335958 0.630507 0.207573
O O5 0.127446 0.372932 0.072834
O O6 0.000000 0.500000 0.082719
O O7 0.000000 0.423808 0.000000
O O8 0.161741 0.658144 0.500000
O O9 0.250000 0.750000 0.434807
O O10 0.166949 0.626571 0.398031
O O11 0.000000 0.712472 0.437000
O O12 0.842825 0.500000 0.649187
O O13 0.000000 0.602382 0.672535
O O14 0.250000 0.250000 0.053665
O O15 0.351133 0.348834 0.106577
O O16 0.299072 0.362867 0.000000
O O17 0.750000 0.750000 0.165015
O O18 0.000000 0.780295 0.169062
#
# Coordination Sequence:
#
# PCOD9492788 Si02
#       6
#    16   8  16  16  16  16
#     4   9  19  37  56  73  99 137 175 213 264 319
#     4   9  18  34  54  80 111 141 177 221 265 319
#     4   9  18  32  50  74 106 141 172 207 253 304
#     4   9  18  33  53  77 102 130 172 220 259 304
#     4   9  19  33  54  79 108 141 178 218 268 326
#     4  10  22  36  54  78 107 138 175 221 266 318
#
# _framework density 17.471153000000001
#
# number of rings (size 3 to 8) (size 9 to 14) (size 15 to 20)
#    0.000    2.818    0.000    0.000    5.091    3.636 
#    0.000    5.455    0.000    0.000    0.000   10.182 
#    0.000    0.000    0.000    0.000    0.000    0.000 
#
# Total GULP energy -244985.290817 kJ/mol
# GULP energy per Si atom -5567.847519 kJ/mol
# Density = 1.743139 g / cm^3
# Si number density = 17.471153 Si / 1000 Ang^3
#
#
#
# Elastic Constant Matrix: (Units=GPa)
#
#
# Indices 1 2 3 4 5 6 
#
# 1 119.3836 52.9223 83.1118 0.0000 0.0000 0.0000
# 2 52.9223 47.6194 38.4879 0.0000 0.0000 0.0000
# 3 83.1118 38.4879 134.1832 0.0000 0.0000 0.0000
# 4 0.0000 0.0000 0.0000 32.0720 0.0000 0.0000
# 5 0.0000 0.0000 0.0000 0.0000 30.8281 0.0000
# 6 0.0000 0.0000 0.0000 0.0000 0.0000 22.8695
#
#
#
# Elastic Compliance Matrix: (Units=1/GPa)
#
#
# Indices 1 2 3 4 5 6 
#
# 1 0.022330 -0.017754 -0.008739 0.000000 0.000000 0.000000
# 2 -0.017754 0.041453 -0.000893 0.000000 0.000000 0.000000
# 3 -0.008739 -0.000893 0.013121 0.000000 0.000000 0.000000
# 4 0.000000 0.000000 0.000000 0.031180 0.000000 0.000000
# 5 0.000000 0.000000 0.000000 0.000000 0.032438 0.000000
# 6 0.000000 0.000000 0.000000 0.000000 0.000000 0.043726
#
#
# Mechanical properties :
#
#
# Convention : Reuss Voigt Hill
#
# Bulk Modulus (GPa) = 45.18248 72.24780 58.71514
# Shear Modulus (GPa) = 20.29231 25.59821 22.94526
#
# Velocity S-wave (km/s) = 3.41174 3.83191 3.62791
# Velocity P-wave (km/s) = 6.43718 7.81156 7.15743
#
# Compressibility (1/GPa) = 0.02213247
#
# Stress axis : x y z
#
# Youngs Moduli (GPa) = 44.78195 24.12376 76.21090
#
# Poissons Ratio (x) = 0.42829 0.66600
# Poissons Ratio (y) = 0.79506 0.06808
# Poissons Ratio (z) = 0.39134 0.02155
#
# Static dielectric constant tensor:
#      x y z
#    x 1.703870 0.000000 0.000000 
#    y 0.000000 1.577860 0.000000 
#    z 0.000000 0.000000 1.599180 
# 
# From -- ./inp_files/67484.got.cif
#   From: 2010.05.17/outbox.cif.g08.bks.cpg/sg65_34_cif.got.tgz:67484.got - 2010.06.03 17:01:31.
