data_PCOD9492582
_publ_section_title
;
Structure prediction by ZEFSAII (Michael W. Deem and Ramdas Pophale) SiO2 
 PCOD9492582
Probable space group: C M M M
;
_chemical_formula_sum "Si O2"
_cell_formula_units_Z 104
_cell_length_a 8.806899
_cell_length_b 22.130097
_cell_length_c 26.959243
_cell_angle_alpha 90.000000
_cell_angle_beta 90.000000
_cell_angle_gamma 90.000000
_cell_volume 5254.289848
_symmetry_space_group_name_H-M "C M M M"
_symmetry_group_IT_number 65
_symmetry_cell_setting 'orthorhombic'
loop_
_space_group_symop_operation_xyz
x,y,z
-x,-y,z
x,-y,-z
-x,y,-z
-x,-y,-z
x,y,-z
-x,y,z
x,-y,z
1/2+x,1/2+y,z
1/2-x,1/2-y,z
1/2+x,1/2-y,-z
1/2-x,1/2+y,-z
1/2-x,1/2-y,-z
1/2+x,1/2+y,-z
1/2-x,1/2+y,z
1/2+x,1/2-y,z
loop_
_atom_site_type_symbol
_atom_site_label
_atom_site_fract_x
_atom_site_fract_y
_atom_site_fract_z
Si Si1 0.679296 0.376378 0.733654
Si Si2 0.318023 0.383223 0.557774
Si Si3 0.182267 0.570901 0.106105
Si Si4 0.680331 0.315162 0.834938
Si Si5 0.679817 0.187441 0.642775
Si Si6 0.818764 0.500000 0.270192
Si Si7 0.827822 0.927595 0.000000
Si Si8 0.681810 0.000000 0.611709
O O1 0.500000 0.380635 0.723196
O O2 0.704091 0.326933 0.776170
O O3 0.768743 0.360629 0.683739
O O4 0.743542 0.440318 0.751811
O O5 0.275844 0.381208 0.500000
O O6 0.500000 0.383958 0.561357
O O7 0.251354 0.328743 0.589846
O O8 0.250732 0.442298 0.584143
O O9 0.228489 0.500000 0.117039
O O10 0.249903 0.625218 0.139087
O O11 0.238124 0.586154 0.050313
O O12 0.000000 0.572268 0.109226
O O13 0.500000 0.314336 0.844311
O O14 0.750000 0.250000 0.849053
O O15 0.500000 0.189501 0.639455
O O16 0.750000 0.250000 0.660185
O O17 0.784386 0.500000 0.329537
O O18 0.000000 0.500000 0.263448
O O19 0.000000 0.902418 0.000000
O O20 0.840984 0.000000 0.000000
O O21 0.500000 0.000000 0.606777
#
# Coordination Sequence:
#
# PCOD9492582 Si02
#       8
#    16  16  16  16  16   8   8   8
#     4  11  24  42  65  92 123 161 203 254 308 366
#     4  11  24  41  62  88 117 151 190 236 291 351
#     4  10  21  38  63  96 132 173 219 269 321 376
#     4  11  25  43  64  92 128 170 215 263 320 381
#     4  12  25  42  64  88 115 153 197 243 296 357
#     4  11  23  38  62  95 125 157 198 249 304 364
#     4   9  17  33  60  93 130 173 218 269 321 375
#     4  11  22  38  61  92 121 152 187 231 289 354
#
# _framework density 19.793351999999999
#
# number of rings (size 3 to 8) (size 9 to 14) (size 15 to 20)
#    0.000    1.154    1.538    4.615    1.077    8.615 
#    0.000    0.385    0.000    0.000    0.000    0.000 
#    0.000    0.000    0.000    0.000    0.000    0.000 
#
# Total GULP energy -290585.123944 kJ/mol
# GULP energy per Si atom -5588.175460 kJ/mol
# Density = 1.974830 g / cm^3
# Si number density = 19.793352 Si / 1000 Ang^3
#
#
#
# Elastic Constant Matrix: (Units=GPa)
#
#
# Indices 1 2 3 4 5 6 
#
# 1 91.2095 40.4603 49.0757 0.0000 0.0000 0.0000
# 2 40.4603 120.4535 33.2436 0.0000 0.0000 0.0000
# 3 49.0757 33.2436 80.6181 0.0000 0.0000 0.0000
# 4 0.0000 0.0000 0.0000 22.3490 0.0000 0.0000
# 5 0.0000 0.0000 0.0000 0.0000 24.8250 0.0000
# 6 0.0000 0.0000 0.0000 0.0000 0.0000 35.0025
#
#
#
# Elastic Compliance Matrix: (Units=1/GPa)
#
#
# Indices 1 2 3 4 5 6 
#
# 1 0.017390 -0.003295 -0.009228 0.000000 0.000000 0.000000
# 2 -0.003295 0.009992 -0.002115 0.000000 0.000000 0.000000
# 3 -0.009228 -0.002115 0.018893 0.000000 0.000000 0.000000
# 4 0.000000 0.000000 0.000000 0.044745 0.000000 0.000000
# 5 0.000000 0.000000 0.000000 0.000000 0.040282 0.000000
# 6 0.000000 0.000000 0.000000 0.000000 0.000000 0.028569
#
#
# Mechanical properties :
#
#
# Convention : Reuss Voigt Hill
#
# Bulk Modulus (GPa) = 58.81717 59.76003 59.28860
# Shear Modulus (GPa) = 25.66557 27.73540 26.70048
#
# Velocity S-wave (km/s) = 3.60485 3.74739 3.67681
# Velocity P-wave (km/s) = 6.86343 6.99867 6.93138
#
# Compressibility (1/GPa) = 0.01700184
#
# Stress axis : x y z
#
# Youngs Moduli (GPa) = 57.50353 100.07708 52.92834
#
# Poissons Ratio (x) = 0.32972 0.48840
# Poissons Ratio (y) = 0.18946 0.11193
# Poissons Ratio (z) = 0.53062 0.21164
#
# Static dielectric constant tensor:
#      x y z
#    x 1.658680 0.000000 0.000000 
#    y 0.000000 1.664650 0.000000 
#    z 0.000000 0.000000 1.686630 
# 
# From -- ./inp_files/73436.got.cif
#   From: 2010.05.17/outbox.cif.g08.bks.cpg/sg65_37_cif.got.tgz:73436.got - 2010.06.03 17:01:31.
