data_PCOD9492231
_publ_section_title
;
Structure prediction by ZEFSAII (Michael W. Deem and Ramdas Pophale) SiO2 
 PCOD9492231
Probable space group: C M M M
;
_chemical_formula_sum "Si O2"
_cell_formula_units_Z 56
_cell_length_a 18.349587
_cell_length_b 8.696419
_cell_length_c 18.911414
_cell_angle_alpha 90.000000
_cell_angle_beta 90.000000
_cell_angle_gamma 90.000000
_cell_volume 3017.802071
_symmetry_space_group_name_H-M "C M M M"
_symmetry_group_IT_number 65
_symmetry_cell_setting 'orthorhombic'
loop_
_space_group_symop_operation_xyz
x,y,z
-x,-y,z
x,-y,-z
-x,y,-z
-x,-y,-z
x,y,-z
-x,y,z
x,-y,z
1/2+x,1/2+y,z
1/2-x,1/2-y,z
1/2+x,1/2-y,-z
1/2-x,1/2+y,-z
1/2-x,1/2-y,-z
1/2+x,1/2+y,-z
1/2-x,1/2+y,z
1/2+x,1/2-y,z
loop_
_atom_site_type_symbol
_atom_site_label
_atom_site_fract_x
_atom_site_fract_y
_atom_site_fract_z
Si Si1 0.667541 0.815608 0.422776
Si Si2 0.831992 0.182987 0.277271
Si Si3 0.168803 0.685647 0.000000
Si Si4 0.085325 0.314596 0.142640
O O1 0.634536 0.777678 0.500000
O O2 0.750000 0.750000 0.424439
O O3 0.635217 0.745536 0.351304
O O4 0.670322 0.000000 0.416499
O O5 0.750000 0.250000 0.270297
O O6 0.878170 0.238136 0.210575
O O7 0.827420 0.000000 0.280141
O O8 0.250000 0.750000 0.000000
O O9 0.126319 0.733243 0.070880
O O10 0.171391 0.500000 0.000000
O O11 0.092196 0.500000 0.149082
O O12 0.000000 0.277613 0.137938
#
# Coordination Sequence:
#
# PCOD9492231 Si02
#       4
#    16  16   8  16
#     4   9  16  27  46  73 104 137 175 220 269 317
#     4  11  21  33  52  78 109 143 181 223 267 317
#     4  10  21  37  59  85 109 138 175 216 264 314
#     4  10  21  38  58  79 107 142 179 219 265 318
#
# _framework density 18.556552
#
# number of rings (size 3 to 8) (size 9 to 14) (size 15 to 20)
#    0.000    2.000    0.000    6.429    0.000    7.429 
#    0.000    0.000    0.000    3.429    0.000    6.000 
#    0.000    0.000    0.000    0.000    0.000    0.000 
#
# Total GULP energy -156262.549864 kJ/mol
# GULP energy per Si atom -5580.805352 kJ/mol
# Density = 1.851432 g / cm^3
# Si number density = 18.556552 Si / 1000 Ang^3
#
#
#
# Elastic Constant Matrix: (Units=GPa)
#
#
# Indices 1 2 3 4 5 6 
#
# 1 85.3281 46.4563 84.0995 0.0000 0.0000 0.0000
# 2 46.4563 78.8570 77.8997 0.0000 0.0000 0.0000
# 3 84.0995 77.8997 240.2067 0.0000 0.0000 0.0000
# 4 0.0000 0.0000 0.0000 24.0515 0.0000 0.0000
# 5 0.0000 0.0000 0.0000 0.0000 -8.8723 0.0000
# 6 0.0000 0.0000 0.0000 0.0000 0.0000 21.9811
#
#
#
# Elastic Compliance Matrix: (Units=1/GPa)
#
#
# Indices 1 2 3 4 5 6 
#
# 1 0.020401 -0.007302 -0.004775 0.000000 0.000000 0.000000
# 2 -0.007302 0.021272 -0.004342 0.000000 0.000000 0.000000
# 3 -0.004775 -0.004342 0.007243 0.000000 0.000000 0.000000
# 4 0.000000 0.000000 0.000000 0.041577 0.000000 0.000000
# 5 0.000000 0.000000 0.000000 0.000000 -0.112711 0.000000
# 6 0.000000 0.000000 0.000000 0.000000 0.000000 0.045494
#
#
# Mechanical properties :
#
#
# Convention : Reuss Voigt Hill
#
# Bulk Modulus (GPa) = 62.19403 91.25587 76.72495
# Shear Modulus (GPa) = 81.33612 20.49449 50.91530
#
# Velocity S-wave (km/s) = 6.62772 3.32691 5.24380
# Velocity P-wave (km/s) = 9.59987 8.00260 8.83740
#
# Compressibility (1/GPa) = 0.01607871
#
# Stress axis : x y z
#
# Youngs Moduli (GPa) = 49.01781 47.00932 138.06640
#
# Poissons Ratio (x) = 0.34326 0.65920
# Poissons Ratio (y) = 0.35792 0.59951
# Poissons Ratio (z) = 0.23404 0.20412
#
# Static dielectric constant tensor:
#      x y z
#    x 1.602840 0.000000 0.000000 
#    y 0.000000 1.621960 0.000000 
#    z 0.000000 0.000000 1.675990 
# 
# From -- ./inp_files/48741.got.cif
#   From: 2010.05.17/outbox.cif.g08.bks.cpg/sg65_25_cif.got.tgz:48741.got - 2010.06.03 17:01:31.
