data_PCOD9492308
_publ_section_title
;
Structure prediction by ZEFSAII (Michael W. Deem and Ramdas Pophale) SiO2 
 PCOD9492308
Probable space group: C M M M
;
_chemical_formula_sum "Si O2"
_cell_formula_units_Z 72
_cell_length_a 18.288848
_cell_length_b 24.158094
_cell_length_c 7.466258
_cell_angle_alpha 90.000000
_cell_angle_beta 90.000000
_cell_angle_gamma 90.000000
_cell_volume 3298.769803
_symmetry_space_group_name_H-M "C M M M"
_symmetry_group_IT_number 65
_symmetry_cell_setting 'orthorhombic'
loop_
_space_group_symop_operation_xyz
x,y,z
-x,-y,z
x,-y,-z
-x,y,-z
-x,-y,-z
x,y,-z
-x,y,z
x,-y,z
1/2+x,1/2+y,z
1/2-x,1/2-y,z
1/2+x,1/2-y,-z
1/2-x,1/2+y,-z
1/2-x,1/2-y,-z
1/2+x,1/2+y,-z
1/2-x,1/2+y,z
1/2+x,1/2-y,z
loop_
_atom_site_type_symbol
_atom_site_label
_atom_site_fract_x
_atom_site_fract_y
_atom_site_fract_z
Si Si1 0.919111 0.623906 0.781165
Si Si2 0.500000 0.565220 0.719930
Si Si3 0.349094 0.613692 0.701907
Si Si4 0.219269 0.000000 0.208606
Si Si5 0.778955 0.307015 0.795021
Si Si6 0.393302 0.000000 0.208426
O O1 0.849431 0.660083 0.718948
O O2 0.915802 0.559888 0.717427
O O3 0.000000 0.646316 0.737000
O O4 0.913499 0.621344 0.000000
O O5 0.500000 0.500000 0.774424
O O6 0.500000 0.564017 0.500000
O O7 0.428474 0.598938 0.778452
O O8 0.358455 0.635143 0.500000
O O9 0.310997 0.554101 0.699578
O O10 0.291273 0.652985 0.796936
O O11 0.306010 0.000000 0.212701
O O12 0.196264 0.000000 0.000000
O O13 0.750000 0.250000 0.710596
O O14 0.800442 0.293610 0.000000
O O15 0.417046 0.000000 0.000000
#
# Coordination Sequence:
#
# PCOD9492308 Si02
#       6
#    16   8  16   8  16   8
#     4   9  16  28  49  77 106 138 175 215 264 324
#     4   9  18  34  54  80 114 146 180 221 272 337
#     4  11  21  36  58  80 107 148 191 227 271 331
#     4  11  19  31  54  83 114 143 174 223 282 330
#     4  10  21  38  56  78 110 145 184 233 278 318
#     4   9  15  25  47  77 105 129 164 211 262 318
#
# _framework density 21.826319000000002
#
# number of rings (size 3 to 8) (size 9 to 14) (size 15 to 20)
#    0.000    2.111    3.333    1.333    0.000    1.778 
#    2.000    2.778    0.000    0.667    0.000    1.556 
#    0.000    0.000    0.000    0.000    0.000    0.000 
#
# Total GULP energy -200799.592080 kJ/mol
# GULP energy per Si atom -5577.766447 kJ/mol
# Density = 2.177664 g / cm^3
# Si number density = 21.826319 Si / 1000 Ang^3
#
#
#
# Elastic Constant Matrix: (Units=GPa)
#
#
# Indices 1 2 3 4 5 6 
#
# 1 200.0002 81.2065 7.7201 0.0000 0.0000 0.0000
# 2 81.2065 143.9933 -2.1494 0.0000 0.0000 0.0000
# 3 7.7201 -2.1494 66.1141 0.0000 0.0000 0.0000
# 4 0.0000 0.0000 0.0000 3.0509 0.0000 0.0000
# 5 0.0000 0.0000 0.0000 0.0000 4.8746 0.0000
# 6 0.0000 0.0000 0.0000 0.0000 0.0000 -1.1858
#
#
#
# Elastic Compliance Matrix: (Units=1/GPa)
#
#
# Indices 1 2 3 4 5 6 
#
# 1 0.006536 -0.003699 -0.000883 0.000000 0.000000 0.000000
# 2 -0.003699 0.009042 0.000726 0.000000 0.000000 0.000000
# 3 -0.000883 0.000726 0.015252 0.000000 0.000000 0.000000
# 4 0.000000 0.000000 0.000000 0.327776 0.000000 0.000000
# 5 0.000000 0.000000 0.000000 0.000000 0.205147 0.000000
# 6 0.000000 0.000000 0.000000 0.000000 0.000000 -0.843288
#
#
# Mechanical properties :
#
#
# Convention : Reuss Voigt Hill
#
# Bulk Modulus (GPa) = 43.25937 64.85134 54.05536
# Shear Modulus (GPa) = -18.93111 22.90328 1.98608
#
# Velocity S-wave (km/s) = -2.94828 3.24287 0.95495
# Velocity P-wave (km/s) = 2.87629 6.61805 5.10253
#
# Compressibility (1/GPa) = 0.02311638
#
# Stress axis : x y z
#
# Youngs Moduli (GPa) = 152.99567 110.59667 65.56460
#
# Poissons Ratio (x) = 0.40913 0.05793
# Poissons Ratio (y) = 0.56598 -0.04759
# Poissons Ratio (z) = 0.13517 -0.08028
#
# Static dielectric constant tensor:
#      x y z
#    x 1.826030 0.000000 0.000000 
#    y 0.000000 1.770070 0.000000 
#    z 0.000000 0.000000 1.849970 
# 
# From -- ./inp_files/9329.got.cif
#   From: 2010.05.17/outbox.cif.g08.bks.cpg/sg65_5_cif.got.tgz:9329.got - 2010.06.03 17:01:31.
