data_PCOD9492591
_publ_section_title
;
Structure prediction by ZEFSAII (Michael W. Deem and Ramdas Pophale) SiO2 
 PCOD9492591
Probable space group: C M M M
;
_chemical_formula_sum "Si O2"
_cell_formula_units_Z 100
_cell_length_a 30.920046
_cell_length_b 7.258183
_cell_length_c 21.865527
_cell_angle_alpha 90.000000
_cell_angle_beta 90.000000
_cell_angle_gamma 90.000000
_cell_volume 4907.134868
_symmetry_space_group_name_H-M "C M M M"
_symmetry_group_IT_number 65
_symmetry_cell_setting 'orthorhombic'
loop_
_space_group_symop_operation_xyz
x,y,z
-x,-y,z
x,-y,-z
-x,y,-z
-x,-y,-z
x,y,-z
-x,y,z
x,-y,z
1/2+x,1/2+y,z
1/2-x,1/2-y,z
1/2+x,1/2-y,-z
1/2-x,1/2+y,-z
1/2-x,1/2-y,-z
1/2+x,1/2+y,-z
1/2-x,1/2+y,z
1/2+x,1/2-y,z
loop_
_atom_site_type_symbol
_atom_site_label
_atom_site_fract_x
_atom_site_fract_y
_atom_site_fract_z
Si Si1 0.199861 0.218619 0.308036
Si Si2 0.549313 0.277034 0.281946
Si Si3 0.549171 0.275975 0.856705
Si Si4 0.868066 0.225000 0.069400
Si Si5 0.381521 0.275782 0.385882
Si Si6 0.800293 0.780706 0.829686
Si Si7 0.891363 0.500000 0.500000
O O1 0.250000 0.250000 0.324008
O O2 0.165158 0.279013 0.357751
O O3 0.192101 0.291825 0.239203
O O4 0.193759 0.000000 0.303969
O O5 0.500000 0.218038 0.294966
O O6 0.549029 0.500000 0.280680
O O7 0.560657 0.219133 0.212781
O O8 0.583268 0.227032 0.333732
O O9 0.500000 0.217861 0.869698
O O10 0.549045 0.500000 0.856836
O O11 0.585293 0.218127 0.904546
O O12 0.831968 0.287698 0.117717
O O13 0.867404 0.000000 0.068985
O O14 0.860652 0.284564 0.000000
O O15 0.382678 0.500000 0.395154
O O16 0.390542 0.161381 0.446354
O O17 0.750000 0.750000 0.844380
O O18 0.807248 0.000000 0.826602
#
# Coordination Sequence:
#
# PCOD9492591 Si02
#       7
#    16  16  16  16  16  16   4
#     4   9  18  32  56  79 100 131 174 225 271 314
#     4   8  14  28  53  79 100 132 177 225 272 315
#     4   8  13  22  40  68  98 128 171 218 260 309
#     4   9  16  24  36  59  98 142 176 208 257 317
#     4  10  21  39  59  79 111 146 180 220 265 319
#     4   9  17  30  47  71  97 128 170 217 265 307
#     4  12  26  40  59  84 114 152 178 212 259 326
#
# _framework density 20.378492000000001
#
# number of rings (size 3 to 8) (size 9 to 14) (size 15 to 20)
#    0.000    3.040    0.000    2.160    1.120    4.480 
#    0.000    3.200    0.000    1.920    0.000    0.000 
#    0.000    0.000    0.000    1.440    0.000    1.600 
#
# Total GULP energy -278495.217544 kJ/mol
# GULP energy per Si atom -5569.904351 kJ/mol
# Density = 2.033211 g / cm^3
# Si number density = 20.378492 Si / 1000 Ang^3
#
#
#
# Elastic Constant Matrix: (Units=GPa)
#
#
# Indices 1 2 3 4 5 6 
#
# 1 18.0462 -5.0602 -7.9907 0.0000 0.0000 0.0000
# 2 -5.0602 102.8185 4.3663 0.0000 0.0000 0.0000
# 3 -7.9907 4.3663 18.6663 0.0000 0.0000 0.0000
# 4 0.0000 0.0000 0.0000 -35.9453 0.0000 0.0000
# 5 0.0000 0.0000 0.0000 0.0000 -3.1732 0.0000
# 6 0.0000 0.0000 0.0000 0.0000 0.0000 -3.9295
#
#
#
# Elastic Compliance Matrix: (Units=1/GPa)
#
#
# Indices 1 2 3 4 5 6 
#
# 1 0.068844 0.002158 0.028966 0.000000 0.000000 0.000000
# 2 0.002158 0.009891 -0.001390 0.000000 0.000000 0.000000
# 3 0.028966 -0.001390 0.066297 0.000000 0.000000 0.000000
# 4 0.000000 0.000000 0.000000 -0.027820 0.000000 0.000000
# 5 0.000000 0.000000 0.000000 0.000000 -0.315135 0.000000
# 6 0.000000 0.000000 0.000000 0.000000 0.000000 -0.254484
#
#
# Mechanical properties :
#
#
# Convention : Reuss Voigt Hill
#
# Bulk Modulus (GPa) = 4.88994 13.57352 9.23173
# Shear Modulus (GPa) = -11.26866 1.27143 -4.99862
#
# Velocity S-wave (km/s) = -2.35408 0.79073 -1.56787
# Velocity P-wave (km/s) = 2.23252 2.74023 1.12354
#
# Compressibility (1/GPa) = 0.20450148
#
# Stress axis : x y z
#
# Youngs Moduli (GPa) = 14.52553 101.10089 15.08358
#
# Poissons Ratio (x) = -0.21819 -0.43691
# Poissons Ratio (y) = -0.03135 0.02096
# Poissons Ratio (z) = -0.42075 0.14051
#
# Static dielectric constant tensor:
#      x y z
#    x 1.713020 0.000000 0.000000 
#    y 0.000000 2.065540 0.000000 
#    z 0.000000 0.000000 1.675920 
# 
# From -- ./inp_files/66415.got.cif
#   From: 2010.05.17/outbox.cif.g08.bks.cpg/sg65_34_cif.got.tgz:66415.got - 2010.06.03 17:01:31.
