data_PCOD9492979
_publ_section_title
;
Structure prediction by ZEFSAII (Michael W. Deem and Ramdas Pophale) SiO2 
 PCOD9492979
Probable space group: C M M M
;
_chemical_formula_sum "Si O2"
_cell_formula_units_Z 64
_cell_length_a 10.435005
_cell_length_b 22.591332
_cell_length_c 17.217733
_cell_angle_alpha 90.000000
_cell_angle_beta 90.000000
_cell_angle_gamma 90.000000
_cell_volume 4058.919782
_symmetry_space_group_name_H-M "C M M M"
_symmetry_group_IT_number 65
_symmetry_cell_setting 'orthorhombic'
loop_
_space_group_symop_operation_xyz
x,y,z
-x,-y,z
x,-y,-z
-x,y,-z
-x,-y,-z
x,y,-z
-x,y,z
x,-y,z
1/2+x,1/2+y,z
1/2-x,1/2-y,z
1/2+x,1/2-y,-z
1/2-x,1/2+y,-z
1/2-x,1/2-y,-z
1/2+x,1/2+y,-z
1/2-x,1/2+y,z
1/2+x,1/2-y,z
loop_
_atom_site_type_symbol
_atom_site_label
_atom_site_fract_x
_atom_site_fract_y
_atom_site_fract_z
Si Si1 0.000000 0.600252 0.000000
Si Si2 0.151696 0.000000 0.332360
Si Si3 0.284900 0.000000 0.170621
Si Si4 0.253080 0.379205 0.408378
Si Si5 0.000000 0.205065 0.409376
Si Si6 0.000000 0.602266 0.829210
Si Si7 0.716545 0.000000 0.000000
Si Si8 0.000000 0.672007 0.327898
O O1 0.000000 0.630366 0.915804
O O2 0.877817 0.556560 0.000000
O O3 0.209908 0.058122 0.371854
O O4 0.188505 0.000000 0.241829
O O5 0.000000 0.000000 0.343634
O O6 0.378326 0.942523 0.176991
O O7 0.220557 0.000000 0.084968
O O8 0.229738 0.385525 0.500000
O O9 0.373527 0.334847 0.399000
O O10 0.127119 0.354395 0.367385
O O11 0.000000 0.258750 0.348987
O O12 0.000000 0.226806 0.500000
O O13 0.000000 0.650285 0.761194
#
# Coordination Sequence:
#
# PCOD9492979 Si02
#       8
#     4   8   8  16   8   8   4   8
#     4   7  12  24  44  76 102 132 158 191 256 320
#     4  12  22  35  53  74 105 141 176 210 261 323
#     4   9  16  31  47  77 105 132 163 210 259 314
#     4  11  23  37  54  75 103 140 179 218 263 309
#     4  10  22  40  55  70 101 144 186 217 251 307
#     4   9  16  28  51  77 107 128 160 211 261 313
#     4   7  12  24  49  68 102 134 159 197 258 314
#     4  12  21  34  55  83 104 129 173 230 266 289
#
# _framework density 15.767742999999999
#
# number of rings (size 3 to 8) (size 9 to 14) (size 15 to 20)
#    0.000    1.875    3.750    3.750    0.000    3.000 
#    0.000    1.562    0.000    0.000    0.000    5.250 
#    0.000    0.000    0.000    0.000    0.000    0.000 
#
# Total GULP energy -178406.086364 kJ/mol
# GULP energy per Si atom -5575.190199 kJ/mol
# Density = 1.573185 g / cm^3
# Si number density = 15.767743 Si / 1000 Ang^3
#
#
#
# Elastic Constant Matrix: (Units=GPa)
#
#
# Indices 1 2 3 4 5 6 
#
# 1 68.5681 16.4166 34.2659 0.0000 0.0000 0.0000
# 2 16.4166 82.3498 62.8343 0.0000 0.0000 0.0000
# 3 34.2659 62.8343 162.1534 0.0000 0.0000 0.0000
# 4 0.0000 0.0000 0.0000 27.4056 0.0000 0.0000
# 5 0.0000 0.0000 0.0000 0.0000 13.4406 0.0000
# 6 0.0000 0.0000 0.0000 0.0000 0.0000 -2.2132
#
#
#
# Elastic Compliance Matrix: (Units=1/GPa)
#
#
# Indices 1 2 3 4 5 6 
#
# 1 0.016351 -0.000885 -0.003112 0.000000 0.000000 0.000000
# 2 -0.000885 0.017289 -0.006512 0.000000 0.000000 0.000000
# 3 -0.003112 -0.006512 0.009348 0.000000 0.000000 0.000000
# 4 0.000000 0.000000 0.000000 0.036489 0.000000 0.000000
# 5 0.000000 0.000000 0.000000 0.000000 0.074402 0.000000
# 6 0.000000 0.000000 0.000000 0.000000 0.000000 -0.451833
#
#
# Mechanical properties :
#
#
# Convention : Reuss Voigt Hill
#
# Bulk Modulus (GPa) = 45.51871 60.01166 52.76518
# Shear Modulus (GPa) = -18.54516 21.03023 1.24253
#
# Velocity S-wave (km/s) = -3.43322 3.65602 0.88867
# Velocity P-wave (km/s) = 3.63523 7.48093 5.88129
#
# Compressibility (1/GPa) = 0.02196899
#
# Stress axis : x y z
#
# Youngs Moduli (GPa) = 61.15730 57.84099 106.97165
#
# Poissons Ratio (x) = 0.05118 0.33295
# Poissons Ratio (y) = 0.05411 0.69664
# Poissons Ratio (z) = 0.19035 0.37668
#
# Static dielectric constant tensor:
#      x y z
#    x 1.514670 0.000000 0.000000 
#    y 0.000000 1.508510 0.000000 
#    z 0.000000 0.000000 1.544110 
# 
# From -- ./inp_files/36156.got.cif
#   From: 2010.05.17/outbox.cif.g08.bks.cpg/sg65_19_cif.got.tgz:36156.got - 2010.06.03 17:01:31.
