data_PCOD9492819
_publ_section_title
;
Structure prediction by ZEFSAII (Michael W. Deem and Ramdas Pophale) SiO2 
 PCOD9492819
Probable space group: C M M M
;
_chemical_formula_sum "Si O2"
_cell_formula_units_Z 66
_cell_length_a 18.479202
_cell_length_b 20.630702
_cell_length_c 9.490850
_cell_angle_alpha 90.000000
_cell_angle_beta 90.000000
_cell_angle_gamma 90.000000
_cell_volume 3618.281306
_symmetry_space_group_name_H-M "C M M M"
_symmetry_group_IT_number 65
_symmetry_cell_setting 'orthorhombic'
loop_
_space_group_symop_operation_xyz
x,y,z
-x,-y,z
x,-y,-z
-x,y,-z
-x,-y,-z
x,y,-z
-x,y,z
x,-y,z
1/2+x,1/2+y,z
1/2-x,1/2-y,z
1/2+x,1/2-y,-z
1/2-x,1/2+y,-z
1/2-x,1/2-y,-z
1/2+x,1/2+y,-z
1/2-x,1/2+y,z
1/2+x,1/2-y,z
loop_
_atom_site_type_symbol
_atom_site_label
_atom_site_fract_x
_atom_site_fract_y
_atom_site_fract_z
Si Si1 0.629108 0.500000 0.732032
Si Si2 0.297818 0.000000 0.660294
Si Si3 0.581264 0.751458 0.664252
Si Si4 0.202323 0.641574 0.670467
Si Si5 0.648936 0.357492 0.836252
Si Si6 0.500000 0.500000 0.500000
O O1 0.709963 0.500000 0.663567
O O2 0.627776 0.432770 0.817516
O O3 0.564210 0.500000 0.621671
O O4 0.320738 0.069365 0.720274
O O5 0.323733 0.000000 0.500000
O O6 0.591187 0.731997 0.500000
O O7 0.500000 0.777688 0.678250
O O8 0.641439 0.805175 0.697452
O O9 0.591637 0.689459 0.762371
O O10 0.215032 0.639731 0.500000
O O11 0.276846 0.655498 0.750368
O O12 0.658075 0.342563 0.000000
#
# Coordination Sequence:
#
# PCOD9492819 Si02
#       6
#     8   8  16  16  16   2
#     4  10  23  36  56  84 112 141 188 224 272 329
#     4   8  14  31  56  81 107 131 172 223 269 318
#     4  10  22  37  55  79 112 147 187 233 283 335
#     4   9  18  35  59  84 107 142 189 233 276 334
#     4  11  23  38  56  80 112 148 186 232 278 328
#     4  12  24  36  62  88 112 156 184 230 284 332
#
# _framework density 18.240704999999998
#
# number of rings (size 3 to 8) (size 9 to 14) (size 15 to 20)
#    0.000    2.182    0.606    1.818    5.091    4.364 
#    0.000    1.212    0.000    3.636    0.000    0.000 
#    0.000    7.758    0.000    0.000    0.000    0.000 
#
# Total GULP energy -183733.877891 kJ/mol
# GULP energy per Si atom -5567.693269 kJ/mol
# Density = 1.819919 g / cm^3
# Si number density = 18.240705 Si / 1000 Ang^3
#
#
#
# Elastic Constant Matrix: (Units=GPa)
#
#
# Indices 1 2 3 4 5 6 
#
# 1 81.3916 44.6449 39.8631 0.0000 0.0000 0.0000
# 2 44.6449 95.9935 34.2832 0.0000 0.0000 0.0000
# 3 39.8631 34.2832 65.9600 0.0000 0.0000 0.0000
# 4 0.0000 0.0000 0.0000 5.0265 0.0000 0.0000
# 5 0.0000 0.0000 0.0000 0.0000 -3.6048 0.0000
# 6 0.0000 0.0000 0.0000 0.0000 0.0000 1.2450
#
#
#
# Elastic Compliance Matrix: (Units=1/GPa)
#
#
# Indices 1 2 3 4 5 6 
#
# 1 0.020009 -0.006124 -0.008910 0.000000 0.000000 0.000000
# 2 -0.006124 0.014666 -0.003922 0.000000 0.000000 0.000000
# 3 -0.008910 -0.003922 0.022584 0.000000 0.000000 0.000000
# 4 0.000000 0.000000 0.000000 0.198946 0.000000 0.000000
# 5 0.000000 0.000000 0.000000 0.000000 -0.277406 0.000000
# 6 0.000000 0.000000 0.000000 0.000000 0.000000 0.803198
#
#
# Mechanical properties :
#
#
# Convention : Reuss Voigt Hill
#
# Bulk Modulus (GPa) = 51.68443 53.43639 52.56041
# Shear Modulus (GPa) = 6.05065 8.83693 7.44379
#
# Velocity S-wave (km/s) = 1.82327 2.20344 2.02231
# Velocity P-wave (km/s) = 5.72962 5.98600 5.85922
#
# Compressibility (1/GPa) = 0.01934819
#
# Stress axis : x y z
#
# Youngs Moduli (GPa) = 49.97765 68.18432 44.27991
#
# Poissons Ratio (x) = 0.41755 0.39451
# Poissons Ratio (y) = 0.30606 0.17366
# Poissons Ratio (z) = 0.44528 0.26741
#
# Static dielectric constant tensor:
#      x y z
#    x 1.601390 0.000000 0.000000 
#    y 0.000000 1.667290 0.000000 
#    z 0.000000 0.000000 1.613590 
# 
# From -- ./inp_files/8981.got.cif
#   From: 2010.05.17/outbox.cif.g08.bks.cpg/sg65_5_cif.got.tgz:8981.got - 2010.06.03 17:01:31.
