data_PCOD9492485
_publ_section_title
;
Structure prediction by ZEFSAII (Michael W. Deem and Ramdas Pophale) SiO2 
 PCOD9492485
Probable space group: C M M M
;
_chemical_formula_sum "Si O2"
_cell_formula_units_Z 88
_cell_length_a 8.303320
_cell_length_b 18.884531
_cell_length_c 29.815105
_cell_angle_alpha 90.000000
_cell_angle_beta 90.000000
_cell_angle_gamma 90.000000
_cell_volume 4675.136787
_symmetry_space_group_name_H-M "C M M M"
_symmetry_group_IT_number 65
_symmetry_cell_setting 'orthorhombic'
loop_
_space_group_symop_operation_xyz
x,y,z
-x,-y,z
x,-y,-z
-x,y,-z
-x,-y,-z
x,y,-z
-x,y,z
x,-y,z
1/2+x,1/2+y,z
1/2-x,1/2-y,z
1/2+x,1/2-y,-z
1/2-x,1/2+y,-z
1/2-x,1/2-y,-z
1/2+x,1/2+y,-z
1/2-x,1/2+y,z
1/2+x,1/2-y,z
loop_
_atom_site_type_symbol
_atom_site_label
_atom_site_fract_x
_atom_site_fract_y
_atom_site_fract_z
Si Si1 0.307581 0.669597 0.219438
Si Si2 0.195854 0.915478 0.500000
Si Si3 0.197195 0.917536 0.694293
Si Si4 0.809053 0.085944 0.403593
Si Si5 0.307049 0.670452 0.051084
Si Si6 0.307555 0.080528 0.865718
O O1 0.500000 0.669238 0.220963
O O2 0.250000 0.750000 0.217582
O O3 0.247564 0.629839 0.264302
O O4 0.254635 0.626956 0.175561
O O5 0.256918 0.888094 0.451711
O O6 0.000000 0.908309 0.500000
O O7 0.227201 0.000000 0.500000
O O8 0.254975 0.891788 0.645110
O O9 0.000000 0.916538 0.693311
O O10 0.243167 0.000000 0.700539
O O11 0.000000 0.102130 0.403867
O O12 0.796566 0.000000 0.403553
O O13 0.500000 0.669371 0.051920
O O14 0.250000 0.750000 0.062129
O O15 0.242878 0.616296 0.087675
O O16 0.252977 0.654830 0.000000
O O17 0.500000 0.079351 0.863561
O O18 0.246350 0.000000 0.862546
#
# Coordination Sequence:
#
# PCOD9492485 Si02
#       6
#    16   8  16  16  16  16
#     4  11  22  36  54  74  99 132 171 213 257 306
#     4   7   8  10  20  42  75 112 143 177 228 287
#     4   8  14  25  42  64  89 119 157 201 248 298
#     4   7   9  14  26  48  79 112 146 185 233 289
#     4  10  21  38  61  87 115 147 181 215 250 292
#     4  11  24  40  58  81 109 139 171 211 258 305
#
# _framework density 18.822979
#
# number of rings (size 3 to 8) (size 9 to 14) (size 15 to 20)
#    0.000    2.818    0.000    4.909    0.000    3.636 
#    0.000    1.818    0.000    0.000    0.000    0.636 
#    0.000    0.000    0.000    2.455    0.000   54.455 
#
# Total GULP energy -245190.482017 kJ/mol
# GULP energy per Si atom -5572.510955 kJ/mol
# Density = 1.878014 g / cm^3
# Si number density = 18.822979 Si / 1000 Ang^3
#
#
#
# Elastic Constant Matrix: (Units=GPa)
#
#
# Indices 1 2 3 4 5 6 
#
# 1 22.1673 16.0662 21.4667 0.0000 0.0000 0.0000
# 2 16.0662 108.7935 102.1755 0.0000 0.0000 0.0000
# 3 21.4667 102.1755 182.3079 0.0000 0.0000 0.0000
# 4 0.0000 0.0000 0.0000 -23.5649 0.0000 0.0000
# 5 0.0000 0.0000 0.0000 0.0000 -12.1230 0.0000
# 6 0.0000 0.0000 0.0000 0.0000 0.0000 7.5211
#
#
#
# Elastic Compliance Matrix: (Units=1/GPa)
#
#
# Indices 1 2 3 4 5 6 
#
# 1 0.051750 -0.004052 -0.003822 0.000000 0.000000 0.000000
# 2 -0.004052 0.019724 -0.010577 0.000000 0.000000 0.000000
# 3 -0.003822 -0.010577 0.011863 0.000000 0.000000 0.000000
# 4 0.000000 0.000000 0.000000 -0.042436 0.000000 0.000000
# 5 0.000000 0.000000 0.000000 0.000000 -0.082488 0.000000
# 6 0.000000 0.000000 0.000000 0.000000 0.000000 0.132959
#
#
# Mechanical properties :
#
#
# Convention : Reuss Voigt Hill
#
# Bulk Modulus (GPa) = 21.53619 65.85395 43.69507
# Shear Modulus (GPa) = 34.78161 5.93733 20.35947
#
# Velocity S-wave (km/s) = 4.30330 1.77796 3.29238
# Velocity P-wave (km/s) = 6.01311 6.26712 6.14143
#
# Compressibility (1/GPa) = 0.04643346
#
# Stress axis : x y z
#
# Youngs Moduli (GPa) = 19.32361 50.69954 84.29281
#
# Poissons Ratio (x) = 0.20546 0.32220
# Poissons Ratio (y) = 0.07831 0.89159
# Poissons Ratio (z) = 0.07386 0.53626
#
# Static dielectric constant tensor:
#      x y z
#    x 1.681490 0.000000 0.000000 
#    y 0.000000 1.616950 0.000000 
#    z 0.000000 0.000000 1.703010 
# 
# From -- ./inp_files/76475.got.cif
#   From: 2010.05.17/outbox.cif.g08.bks.cpg/sg65_39_cif.got.tgz:76475.got - 2010.06.03 17:01:31.
