data_PCOD9492787
_publ_section_title
;
Structure prediction by ZEFSAII (Michael W. Deem and Ramdas Pophale) SiO2 
 PCOD9492787
Probable space group: C M M M
;
_chemical_formula_sum "Si O2"
_cell_formula_units_Z 68
_cell_length_a 10.141290
_cell_length_b 24.771384
_cell_length_c 13.001034
_cell_angle_alpha 90.000000
_cell_angle_beta 90.000000
_cell_angle_gamma 90.000000
_cell_volume 3266.039010
_symmetry_space_group_name_H-M "C M M M"
_symmetry_group_IT_number 65
_symmetry_cell_setting 'orthorhombic'
loop_
_space_group_symop_operation_xyz
x,y,z
-x,-y,z
x,-y,-z
-x,y,-z
-x,-y,-z
x,y,-z
-x,y,z
x,-y,z
1/2+x,1/2+y,z
1/2-x,1/2-y,z
1/2+x,1/2-y,-z
1/2-x,1/2+y,-z
1/2-x,1/2-y,-z
1/2+x,1/2+y,-z
1/2-x,1/2+y,z
1/2+x,1/2-y,z
loop_
_atom_site_type_symbol
_atom_site_label
_atom_site_fract_x
_atom_site_fract_y
_atom_site_fract_z
Si Si1 0.745548 0.917405 0.613707
Si Si2 0.345645 0.797844 0.665957
Si Si3 0.500000 0.000000 0.634887
Si Si4 0.150009 0.938287 0.831957
Si Si5 0.348910 0.155546 0.887034
O O1 0.799052 0.928317 0.500000
O O2 0.701664 0.855080 0.621777
O O3 0.839779 0.931082 0.708630
O O4 0.615344 0.953425 0.629909
O O5 0.500000 0.788358 0.642520
O O6 0.250000 0.750000 0.632046
O O7 0.331764 0.805595 0.789857
O O8 0.250258 0.894603 0.876393
O O9 0.000000 0.928885 0.865478
O O10 0.186918 0.000000 0.857511
O O11 0.500000 0.135134 0.879511
O O12 0.332451 0.180662 0.000000
#
# Coordination Sequence:
#
# PCOD9492787 Si02
#       5
#    16  16   4  16  16
#     4  11  22  37  62  90 119 157 207 257 301 352
#     4  10  22  39  59  86 122 159 199 246 300 365
#     4  12  21  36  66  98 117 152 215 268 306 344
#     4  10  22  36  53  83 123 161 194 239 305 371
#     4   9  20  39  62  86 111 147 200 254 300 351
#
# _framework density 20.820326999999999
#
# number of rings (size 3 to 8) (size 9 to 14) (size 15 to 20)
#    0.000    1.882    2.353    1.059    1.647    6.588 
#    0.000    3.529    0.000    0.000    0.000    0.000 
#    0.000    0.000    0.000    0.000    0.000    0.000 
#
# Total GULP energy -189372.931724 kJ/mol
# GULP energy per Si atom -5569.792110 kJ/mol
# Density = 2.077294 g / cm^3
# Si number density = 20.820327 Si / 1000 Ang^3
#
#
#
# Elastic Constant Matrix: (Units=GPa)
#
#
# Indices 1 2 3 4 5 6 
#
# 1 68.0799 49.4062 -7.0009 0.0000 0.0000 0.0000
# 2 49.4062 130.0667 -19.8855 0.0000 0.0000 0.0000
# 3 -7.0009 -19.8855 81.0267 0.0000 0.0000 0.0000
# 4 0.0000 0.0000 0.0000 10.7325 0.0000 0.0000
# 5 0.0000 0.0000 0.0000 0.0000 -47.9729 0.0000
# 6 0.0000 0.0000 0.0000 0.0000 0.0000 -8.1527
#
#
#
# Elastic Compliance Matrix: (Units=1/GPa)
#
#
# Indices 1 2 3 4 5 6 
#
# 1 0.020280 -0.007726 -0.000144 0.000000 0.000000 0.000000
# 2 -0.007726 0.010931 0.002015 0.000000 0.000000 0.000000
# 3 -0.000144 0.002015 0.012824 0.000000 0.000000 0.000000
# 4 0.000000 0.000000 0.000000 0.093175 0.000000 0.000000
# 5 0.000000 0.000000 0.000000 0.000000 -0.020845 0.000000
# 6 0.000000 0.000000 0.000000 0.000000 0.000000 -0.122658
#
#
# Mechanical properties :
#
#
# Convention : Reuss Voigt Hill
#
# Bulk Modulus (GPa) = 30.93388 36.02363 33.47876
# Shear Modulus (GPa) = 308.82588 8.03161 158.42874
#
# Velocity S-wave (km/s) = 12.19225 1.96620 8.73261
# Velocity P-wave (km/s) = 14.59764 4.74282 10.85324
#
# Compressibility (1/GPa) = 0.03232701
#
# Stress axis : x y z
#
# Youngs Moduli (GPa) = 49.30889 91.48285 77.98024
#
# Poissons Ratio (x) = 0.70675 0.01121
# Poissons Ratio (y) = 0.38094 -0.15714
# Poissons Ratio (z) = 0.00709 -0.18435
#
# Static dielectric constant tensor:
#      x y z
#    x 1.702120 0.000000 0.000000 
#    y 0.000000 1.700740 0.000000 
#    z 0.000000 0.000000 1.816910 
# 
# From -- ./inp_files/38176.got.cif
#   From: 2010.05.17/outbox.cif.g08.bks.cpg/sg65_20_cif.got.tgz:38176.got - 2010.06.03 17:01:31.
