data_PCOD9492194
_publ_section_title
;
Structure prediction by ZEFSAII (Michael W. Deem and Ramdas Pophale) SiO2 
 PCOD9492194
Probable space group: C M M M
;
_chemical_formula_sum "Si O2"
_cell_formula_units_Z 96
_cell_length_a 14.768219
_cell_length_b 21.238212
_cell_length_c 15.829759
_cell_angle_alpha 90.000000
_cell_angle_beta 90.000000
_cell_angle_gamma 90.000000
_cell_volume 4965.012870
_symmetry_space_group_name_H-M "C M M M"
_symmetry_group_IT_number 65
_symmetry_cell_setting 'orthorhombic'
loop_
_space_group_symop_operation_xyz
x,y,z
-x,-y,z
x,-y,-z
-x,y,-z
-x,-y,-z
x,y,-z
-x,y,z
x,-y,z
1/2+x,1/2+y,z
1/2-x,1/2-y,z
1/2+x,1/2-y,-z
1/2-x,1/2+y,-z
1/2-x,1/2-y,-z
1/2+x,1/2+y,-z
1/2-x,1/2+y,z
1/2+x,1/2-y,z
loop_
_atom_site_type_symbol
_atom_site_label
_atom_site_fract_x
_atom_site_fract_y
_atom_site_fract_z
Si Si1 0.262722 0.927902 0.125278
Si Si2 0.897682 0.225506 0.249419
Si Si3 0.394086 0.500000 0.399107
Si Si4 0.781270 0.107294 0.309509
Si Si5 0.891942 0.688361 0.093554
Si Si6 0.834655 0.298931 0.405446
Si Si7 0.603404 0.424082 0.000000
O O1 0.256111 0.926023 0.226276
O O2 0.337141 0.876636 0.099825
O O3 0.166898 0.908968 0.080918
O O4 0.282337 0.000000 0.099027
O O5 0.835517 0.167063 0.272756
O O6 0.864156 0.265046 0.168873
O O7 0.895925 0.270828 0.331334
O O8 0.000000 0.204452 0.232253
O O9 0.500000 0.500000 0.377795
O O10 0.384704 0.500000 0.500000
O O11 0.346657 0.561060 0.359929
O O12 0.705745 0.135444 0.371936
O O13 0.000000 0.677270 0.103044
O O14 0.876521 0.715881 0.000000
O O15 0.873136 0.302921 0.500000
O O16 0.750000 0.250000 0.409902
O O17 0.594776 0.500000 0.000000
O O18 0.500000 0.398416 0.000000
#
# Coordination Sequence:
#
# PCOD9492194 Si02
#       7
#    16  16   8  16  16  16   8
#     4  11  21  37  60  87 118 158 201 247 302 361
#     4  10  21  37  58  85 119 156 200 249 300 359
#     4  11  24  40  60  89 122 157 200 249 304 367
#     4  11  21  38  58  84 117 157 197 242 297 360
#     4  10  21  39  63  90 121 156 201 257 310 363
#     4   9  18  33  56  82 110 146 192 241 294 353
#     4   9  20  36  53  80 119 157 200 243 283 350
#
# _framework density 19.335297000000001
#
# number of rings (size 3 to 8) (size 9 to 14) (size 15 to 20)
#    0.000    1.833    3.333    1.000    0.000    2.667 
#    1.500    1.667    0.000    0.000    0.000    0.000 
#    0.000    5.333    0.000    0.000    0.000    0.000 
#
# Total GULP energy -267906.858262 kJ/mol
# GULP energy per Si atom -5581.392880 kJ/mol
# Density = 1.929129 g / cm^3
# Si number density = 19.335297 Si / 1000 Ang^3
#
#
#
# Elastic Constant Matrix: (Units=GPa)
#
#
# Indices 1 2 3 4 5 6 
#
# 1 53.2041 26.8049 15.6613 0.0000 0.0000 0.0000
# 2 26.8049 92.4411 39.2264 0.0000 0.0000 0.0000
# 3 15.6613 39.2264 127.1081 0.0000 0.0000 0.0000
# 4 0.0000 0.0000 0.0000 27.0039 0.0000 0.0000
# 5 0.0000 0.0000 0.0000 0.0000 20.4701 0.0000
# 6 0.0000 0.0000 0.0000 0.0000 0.0000 26.5245
#
#
#
# Elastic Compliance Matrix: (Units=1/GPa)
#
#
# Indices 1 2 3 4 5 6 
#
# 1 0.022092 -0.006042 -0.000857 0.000000 0.000000 0.000000
# 2 -0.006042 0.014100 -0.003607 0.000000 0.000000 0.000000
# 3 -0.000857 -0.003607 0.009086 0.000000 0.000000 0.000000
# 4 0.000000 0.000000 0.000000 0.037032 0.000000 0.000000
# 5 0.000000 0.000000 0.000000 0.000000 0.048852 0.000000
# 6 0.000000 0.000000 0.000000 0.000000 0.000000 0.037701
#
#
# Mechanical properties :
#
#
# Convention : Reuss Voigt Hill
#
# Bulk Modulus (GPa) = 41.21086 48.45981 44.83533
# Shear Modulus (GPa) = 25.25707 27.53708 26.39708
#
# Velocity S-wave (km/s) = 3.61815 3.77793 3.69891
# Velocity P-wave (km/s) = 6.23015 6.64437 6.44059
#
# Compressibility (1/GPa) = 0.02426545
#
# Stress axis : x y z
#
# Youngs Moduli (GPa) = 45.26523 70.92047 110.05831
#
# Poissons Ratio (x) = 0.42851 0.09436
# Poissons Ratio (y) = 0.27350 0.39698
# Poissons Ratio (z) = 0.03881 0.25581
#
# Static dielectric constant tensor:
#      x y z
#    x 1.667470 0.000000 0.000000 
#    y 0.000000 1.666310 0.000000 
#    z 0.000000 0.000000 1.699870 
# 
# From -- ./inp_files/40421.got.cif
#   From: 2010.05.17/outbox.cif.g08.bks.cpg/sg65_21_cif.got.tgz:40421.got - 2010.06.03 17:01:31.
