data_PCOD9492794
_publ_section_title
;
Structure prediction by ZEFSAII (Michael W. Deem and Ramdas Pophale) SiO2 
 PCOD9492794
Probable space group: C M M M
;
_chemical_formula_sum "Si O2"
_cell_formula_units_Z 72
_cell_length_a 25.550299
_cell_length_b 9.422772
_cell_length_c 17.495105
_cell_angle_alpha 90.000000
_cell_angle_beta 90.000000
_cell_angle_gamma 90.000000
_cell_volume 4212.027741
_symmetry_space_group_name_H-M "C M M M"
_symmetry_group_IT_number 65
_symmetry_cell_setting 'orthorhombic'
loop_
_space_group_symop_operation_xyz
x,y,z
-x,-y,z
x,-y,-z
-x,y,-z
-x,-y,-z
x,y,-z
-x,y,z
x,-y,z
1/2+x,1/2+y,z
1/2-x,1/2-y,z
1/2+x,1/2-y,-z
1/2-x,1/2+y,-z
1/2-x,1/2-y,-z
1/2+x,1/2+y,-z
1/2-x,1/2+y,z
1/2+x,1/2-y,z
loop_
_atom_site_type_symbol
_atom_site_label
_atom_site_fract_x
_atom_site_fract_y
_atom_site_fract_z
Si Si1 0.196197 0.330780 0.912217
Si Si2 0.500000 0.662446 0.800946
Si Si3 0.604740 0.831325 0.619177
Si Si4 0.000000 0.836289 0.615161
Si Si5 0.805410 0.670177 0.500000
Si Si6 0.602914 0.168683 0.200132
O O1 0.204674 0.500000 0.906259
O O2 0.250000 0.250000 0.897384
O O3 0.151968 0.290850 0.851734
O O4 0.180083 0.300520 0.000000
O O5 0.500000 0.500000 0.826257
O O6 0.500000 0.664200 0.708030
O O7 0.551910 0.745247 0.824482
O O8 0.553280 0.745191 0.593201
O O9 0.656977 0.795135 0.572131
O O10 0.612523 0.805745 0.709653
O O11 0.594848 0.000000 0.608307
O O12 0.000000 0.000000 0.590282
O O13 0.796290 0.500000 0.500000
O O14 0.750000 0.750000 0.500000
O O15 0.593540 0.000000 0.191434
#
# Coordination Sequence:
#
# PCOD9492794 Si02
#       6
#    16   8  16   8   8  16
#     4   9  18  32  49  70  95 122 155 196 237 275
#     4   9  17  29  47  73 101 124 151 192 236 275
#     4   9  18  33  51  70  94 126 159 190 230 280
#     4   9  17  30  50  76  99 119 151 196 239 276
#     4  10  22  37  50  67  95 128 160 196 235 274
#     4   9  17  31  51  71  93 125 160 189 226 281
#
# _framework density 17.093904999999999
#
# number of rings (size 3 to 8) (size 9 to 14) (size 15 to 20)
#    0.000    2.889    0.000    0.667    0.000    5.778 
#    0.000    2.778    0.000    3.333    0.000    0.000 
#    0.000    0.000    0.000    0.000    0.000    0.000 
#
# Total GULP energy -200698.971744 kJ/mol
# GULP energy per Si atom -5574.971437 kJ/mol
# Density = 1.705500 g / cm^3
# Si number density = 17.093905 Si / 1000 Ang^3
#
#
#
# Elastic Constant Matrix: (Units=GPa)
#
#
# Indices 1 2 3 4 5 6 
#
# 1 185.0049 86.3604 87.2144 0.0000 0.0000 0.0000
# 2 86.3604 59.5872 50.6739 0.0000 0.0000 0.0000
# 3 87.2144 50.6739 80.1256 0.0000 0.0000 0.0000
# 4 0.0000 0.0000 0.0000 12.0326 0.0000 0.0000
# 5 0.0000 0.0000 0.0000 0.0000 74.2255 0.0000
# 6 0.0000 0.0000 0.0000 0.0000 0.0000 36.6394
#
#
#
# Elastic Compliance Matrix: (Units=1/GPa)
#
#
# Indices 1 2 3 4 5 6 
#
# 1 0.018275 -0.020706 -0.006796 0.000000 0.000000 0.000000
# 2 -0.020706 0.059772 -0.015264 0.000000 0.000000 0.000000
# 3 -0.006796 -0.015264 0.029531 0.000000 0.000000 0.000000
# 4 0.000000 0.000000 0.000000 0.083107 0.000000 0.000000
# 5 0.000000 0.000000 0.000000 0.000000 0.013472 0.000000
# 6 0.000000 0.000000 0.000000 0.000000 0.000000 0.027293
#
#
# Mechanical properties :
#
#
# Convention : Reuss Voigt Hill
#
# Bulk Modulus (GPa) = 45.36011 85.91277 65.63644
# Shear Modulus (GPa) = 15.41627 31.27745 23.34686
#
# Velocity S-wave (km/s) = 3.00635 4.28219 3.69968
# Velocity P-wave (km/s) = 6.21646 8.64974 7.53201
#
# Compressibility (1/GPa) = 0.02204580
#
# Stress axis : x y z
#
# Youngs Moduli (GPa) = 54.72005 16.73017 33.86221
#
# Poissons Ratio (x) = 0.34642 0.23014
# Poissons Ratio (y) = 1.13304 0.51687
# Poissons Ratio (z) = 0.37190 0.25537
#
# Static dielectric constant tensor:
#      x y z
#    x 1.537770 0.000000 0.000000 
#    y 0.000000 1.571010 0.000000 
#    z 0.000000 0.000000 1.590940 
# 
# From -- ./inp_files/56491.got.cif
#   From: 2010.05.17/outbox.cif.g08.bks.cpg/sg65_29_cif.got.tgz:56491.got - 2010.06.03 17:01:31.
