data_PCOD9492572
_publ_section_title
;
Structure prediction by ZEFSAII (Michael W. Deem and Ramdas Pophale) SiO2 
 PCOD9492572
Probable space group: C M M M
;
_chemical_formula_sum "Si O2"
_cell_formula_units_Z 64
_cell_length_a 15.716032
_cell_length_b 7.934813
_cell_length_c 25.233741
_cell_angle_alpha 90.000000
_cell_angle_beta 90.000000
_cell_angle_gamma 90.000000
_cell_volume 3146.742761
_symmetry_space_group_name_H-M "C M M M"
_symmetry_group_IT_number 65
_symmetry_cell_setting 'orthorhombic'
loop_
_space_group_symop_operation_xyz
x,y,z
-x,-y,z
x,-y,-z
-x,y,-z
-x,-y,-z
x,y,-z
-x,y,z
x,-y,z
1/2+x,1/2+y,z
1/2-x,1/2-y,z
1/2+x,1/2-y,-z
1/2-x,1/2+y,-z
1/2-x,1/2-y,-z
1/2+x,1/2+y,-z
1/2-x,1/2+y,z
1/2+x,1/2-y,z
loop_
_atom_site_type_symbol
_atom_site_label
_atom_site_fract_x
_atom_site_fract_y
_atom_site_fract_z
Si Si1 0.000000 0.299737 0.559683
Si Si2 0.649941 0.702406 0.752970
Si Si3 0.151567 0.695670 0.133827
Si Si4 0.651171 0.700510 0.363232
Si Si5 0.599732 0.500000 0.058667
O O1 0.915311 0.251149 0.591937
O O2 0.000000 0.500000 0.556012
O O3 0.000000 0.228305 0.500000
O O4 0.641184 0.500000 0.757506
O O5 0.750000 0.750000 0.751215
O O6 0.613605 0.779893 0.807026
O O7 0.619673 0.761648 0.695044
O O8 0.144051 0.500000 0.118130
O O9 0.250000 0.750000 0.139296
O O10 0.119039 0.831594 0.091932
O O11 0.650903 0.500000 0.359744
O O12 0.750000 0.750000 0.372400
O O13 0.500000 0.500000 0.051930
O O14 0.641273 0.500000 0.000000
#
# Coordination Sequence:
#
# PCOD9492572 Si02
#       5
#     8  16  16  16   8
#     4  11  25  43  61  85 123 165 213 266 307 362
#     4   9  16  31  57  89 125 156 193 251 314 368
#     4  11  20  38  66  95 122 160 210 259 312 371
#     4  10  21  38  63  92 123 162 204 254 315 377
#     4  11  26  46  62  86 129 167 203 265 317 366
#
# _framework density 20.338493
#
# number of rings (size 3 to 8) (size 9 to 14) (size 15 to 20)
#    0.000    1.750    2.500    3.375    0.000    6.000 
#    2.250    1.250    0.000    0.000    0.000    0.000 
#    0.000    0.000    0.000    0.000    0.000    0.000 
#
# Total GULP energy -178460.158138 kJ/mol
# GULP energy per Si atom -5576.879942 kJ/mol
# Density = 2.029220 g / cm^3
# Si number density = 20.338493 Si / 1000 Ang^3
#
#
#
# Elastic Constant Matrix: (Units=GPa)
#
#
# Indices 1 2 3 4 5 6 
#
# 1 69.6059 23.3207 63.1919 0.0000 0.0000 0.0000
# 2 23.3207 131.9813 70.6599 0.0000 0.0000 0.0000
# 3 63.1919 70.6599 207.5912 0.0000 0.0000 0.0000
# 4 0.0000 0.0000 0.0000 20.4146 0.0000 0.0000
# 5 0.0000 0.0000 0.0000 0.0000 31.8819 0.0000
# 6 0.0000 0.0000 0.0000 0.0000 0.0000 21.8311
#
#
#
# Elastic Compliance Matrix: (Units=1/GPa)
#
#
# Indices 1 2 3 4 5 6 
#
# 1 0.019865 -0.000333 -0.005934 0.000000 0.000000 0.000000
# 2 -0.000333 0.009271 -0.003054 0.000000 0.000000 0.000000
# 3 -0.005934 -0.003054 0.007663 0.000000 0.000000 0.000000
# 4 0.000000 0.000000 0.000000 0.048984 0.000000 0.000000
# 5 0.000000 0.000000 0.000000 0.000000 0.031366 0.000000
# 6 0.000000 0.000000 0.000000 0.000000 0.000000 0.045806
#
#
# Mechanical properties :
#
#
# Convention : Reuss Voigt Hill
#
# Bulk Modulus (GPa) = 55.07608 80.39149 67.73379
# Shear Modulus (GPa) = 26.64538 31.62592 29.13565
#
# Velocity S-wave (km/s) = 3.62345 3.94760 3.78899
# Velocity P-wave (km/s) = 6.68165 7.77114 7.24690
#
# Compressibility (1/GPa) = 0.01815670
#
# Stress axis : x y z
#
# Youngs Moduli (GPa) = 50.33960 107.86494 130.49843
#
# Poissons Ratio (x) = 0.03596 0.77432
# Poissons Ratio (y) = 0.01678 0.39856
# Poissons Ratio (z) = 0.29869 0.32943
#
# Static dielectric constant tensor:
#      x y z
#    x 1.706890 0.000000 0.000000 
#    y 0.000000 1.685800 0.000000 
#    z 0.000000 0.000000 1.834060 
# 
# From -- ./inp_files/66826.got.cif
#   From: 2010.05.17/outbox.cif.g08.bks.cpg/sg65_34_cif.got.tgz:66826.got - 2010.06.03 17:01:31.
