data_PCOD9492859
_publ_section_title
;
Structure prediction by ZEFSAII (Michael W. Deem and Ramdas Pophale) SiO2 
 PCOD9492859
Probable space group: C M M M
;
_chemical_formula_sum "Si O2"
_cell_formula_units_Z 112
_cell_length_a 31.736630
_cell_length_b 17.348736
_cell_length_c 10.937775
_cell_angle_alpha 90.000000
_cell_angle_beta 90.000000
_cell_angle_gamma 90.000000
_cell_volume 6022.234081
_symmetry_space_group_name_H-M "C M M M"
_symmetry_group_IT_number 65
_symmetry_cell_setting 'orthorhombic'
loop_
_space_group_symop_operation_xyz
x,y,z
-x,-y,z
x,-y,-z
-x,y,-z
-x,-y,-z
x,y,-z
-x,y,z
x,-y,z
1/2+x,1/2+y,z
1/2-x,1/2-y,z
1/2+x,1/2-y,-z
1/2-x,1/2+y,-z
1/2-x,1/2-y,-z
1/2+x,1/2+y,-z
1/2-x,1/2+y,z
1/2+x,1/2-y,z
loop_
_atom_site_type_symbol
_atom_site_label
_atom_site_fract_x
_atom_site_fract_y
_atom_site_fract_z
Si Si1 0.885705 0.692908 0.212827
Si Si2 0.161347 0.824330 0.640142
Si Si3 0.952705 0.188163 0.867900
Si Si4 0.425120 0.409102 0.637225
Si Si5 0.189119 0.408076 0.134460
Si Si6 0.047955 0.410602 0.353101
Si Si7 0.249107 0.907278 0.357516
O O1 0.855065 0.753398 0.280782
O O2 0.917920 0.745556 0.137737
O O3 0.855257 0.634947 0.143203
O O4 0.916051 0.644260 0.301686
O O5 0.163952 0.798096 0.500000
O O6 0.124481 0.888610 0.646380
O O7 0.206007 0.862103 0.670906
O O8 0.946340 0.134861 0.749484
O O9 0.000000 0.220055 0.862328
O O10 0.948375 0.147183 0.000000
O O11 0.438724 0.383337 0.500000
O O12 0.432101 0.500000 0.645659
O O13 0.182971 0.500000 0.141169
O O14 0.217142 0.386924 0.252914
O O15 0.208415 0.390900 0.000000
O O16 0.048967 0.407656 0.500000
O O17 0.055034 0.500000 0.316955
O O18 0.000000 0.389286 0.315370
O O19 0.261304 0.890397 0.500000
O O20 0.242134 0.000000 0.351450
#
# Coordination Sequence:
#
# PCOD9492859 Si02
#       7
#    16  16  16  16  16  16  16
#     4  11  20  34  54  77 104 141 180 219 262 319
#     4   9  18  32  53  82 112 141 174 215 262 309
#     4  10  22  38  54  75 106 143 180 219 266 318
#     4   9  18  34  57  83 109 139 179 224 265 309
#     4  10  22  39  57  78 105 137 174 219 269 315
#     4   9  18  32  51  78 111 144 179 223 274 323
#     4   9  18  35  58  80 104 137 176 215 256 308
#
# _framework density 18.597747999999999
#
# number of rings (size 3 to 8) (size 9 to 14) (size 15 to 20)
#    0.000    2.429    0.000    2.571    0.000    4.857 
#    0.000    8.571    0.000    3.429    0.000    6.000 
#    0.000    0.000    0.000    0.000    0.000    0.000 
#
# Total GULP energy -312114.655510 kJ/mol
# GULP energy per Si atom -5573.475991 kJ/mol
# Density = 1.855542 g / cm^3
# Si number density = 18.597748 Si / 1000 Ang^3
#
#
#
# Elastic Constant Matrix: (Units=GPa)
#
#
# Indices 1 2 3 4 5 6 
#
# 1 102.9734 41.0930 71.6474 0.0000 0.0000 0.0000
# 2 41.0930 48.5832 50.7968 0.0000 0.0000 0.0000
# 3 71.6474 50.7968 131.2571 0.0000 0.0000 0.0000
# 4 0.0000 0.0000 0.0000 9.0354 0.0000 0.0000
# 5 0.0000 0.0000 0.0000 0.0000 47.2385 0.0000
# 6 0.0000 0.0000 0.0000 0.0000 0.0000 24.6283
#
#
#
# Elastic Compliance Matrix: (Units=1/GPa)
#
#
# Indices 1 2 3 4 5 6 
#
# 1 0.017334 -0.008010 -0.006362 0.000000 0.000000 0.000000
# 2 -0.008010 0.038274 -0.010440 0.000000 0.000000 0.000000
# 3 -0.006362 -0.010440 0.015132 0.000000 0.000000 0.000000
# 4 0.000000 0.000000 0.000000 0.110676 0.000000 0.000000
# 5 0.000000 0.000000 0.000000 0.000000 0.021169 0.000000
# 6 0.000000 0.000000 0.000000 0.000000 0.000000 0.040604
#
#
# Mechanical properties :
#
#
# Convention : Reuss Voigt Hill
#
# Bulk Modulus (GPa) = 47.35724 67.76533 57.56129
# Shear Modulus (GPa) = 16.67493 24.13220 20.40356
#
# Velocity S-wave (km/s) = 2.99759 3.60611 3.31584
# Velocity P-wave (km/s) = 6.12372 7.33861 6.75852
#
# Compressibility (1/GPa) = 0.02111609
#
# Stress axis : x y z
#
# Youngs Moduli (GPa) = 57.68856 26.12766 66.08609
#
# Poissons Ratio (x) = 0.20928 0.42046
# Poissons Ratio (y) = 0.46207 0.68993
# Poissons Ratio (z) = 0.36703 0.27277
#
# Static dielectric constant tensor:
#      x y z
#    x 1.628780 0.000000 0.000000 
#    y 0.000000 1.630490 0.000000 
#    z 0.000000 0.000000 1.655810 
# 
# From -- ./inp_files/33981.got.cif
#   From: 2010.05.17/outbox.cif.g08.bks.cpg/sg65_17_cif.got.tgz:33981.got - 2010.06.03 17:01:31.
