data_PCOD9492638
_publ_section_title
;
Structure prediction by ZEFSAII (Michael W. Deem and Ramdas Pophale) SiO2 
 PCOD9492638
Probable space group: C M M M
;
_chemical_formula_sum "Si O2"
_cell_formula_units_Z 72
_cell_length_a 8.871629
_cell_length_b 31.909836
_cell_length_c 14.384828
_cell_angle_alpha 90.000000
_cell_angle_beta 90.000000
_cell_angle_gamma 90.000000
_cell_volume 4072.232986
_symmetry_space_group_name_H-M "C M M M"
_symmetry_group_IT_number 65
_symmetry_cell_setting 'orthorhombic'
loop_
_space_group_symop_operation_xyz
x,y,z
-x,-y,z
x,-y,-z
-x,y,-z
-x,-y,-z
x,y,-z
-x,y,z
x,-y,z
1/2+x,1/2+y,z
1/2-x,1/2-y,z
1/2+x,1/2-y,-z
1/2-x,1/2+y,-z
1/2-x,1/2-y,-z
1/2+x,1/2+y,-z
1/2-x,1/2+y,z
1/2+x,1/2-y,z
loop_
_atom_site_type_symbol
_atom_site_label
_atom_site_fract_x
_atom_site_fract_y
_atom_site_fract_z
Si Si1 0.828375 0.000000 0.387139
Si Si2 0.320785 0.452534 0.111639
Si Si3 0.321104 0.294677 0.889304
Si Si4 0.679226 0.126588 0.215232
Si Si5 0.817187 0.907834 0.391883
O O1 0.761732 0.045137 0.364145
O O2 0.837850 0.000000 0.500000
O O3 0.000000 0.000000 0.350758
O O4 0.500000 0.447936 0.129979
O O5 0.277067 0.500000 0.140419
O O6 0.234769 0.415179 0.161634
O O7 0.300435 0.449733 0.000000
O O8 0.500000 0.294395 0.872668
O O9 0.250000 0.250000 0.862713
O O10 0.245361 0.333047 0.836372
O O11 0.296560 0.300158 0.000000
O O12 0.500000 0.128053 0.216587
O O13 0.745739 0.123532 0.319056
O O14 0.779832 0.900411 0.500000
O O15 0.000000 0.907893 0.385038
#
# Coordination Sequence:
#
# PCOD9492638 Si02
#       5
#     8  16  16  16  16
#     4   7  12  26  49  73  94 125 176 231 275 314
#     4   9  19  36  55  74 101 142 190 233 271 318
#     4  10  21  39  63  88 113 141 178 225 275 327
#     4  12  24  34  51  81 116 149 181 221 273 333
#     4   9  18  34  55  77 103 141 190 238 279 322
#
# _framework density 17.680716
#
# number of rings (size 3 to 8) (size 9 to 14) (size 15 to 20)
#    0.000    2.333    0.000    5.333    1.556    5.333 
#    0.000    1.111    0.000    2.667    0.000    0.000 
#    0.000    0.000    0.000    0.000    0.000    0.000 
#
# Total GULP energy -200954.869046 kJ/mol
# GULP energy per Si atom -5582.079696 kJ/mol
# Density = 1.764047 g / cm^3
# Si number density = 17.680716 Si / 1000 Ang^3
#
#
#
# Elastic Constant Matrix: (Units=GPa)
#
#
# Indices 1 2 3 4 5 6 
#
# 1 76.6141 74.9887 63.8702 0.0000 0.0000 0.0000
# 2 74.9887 147.2280 80.5726 0.0000 0.0000 0.0000
# 3 63.8702 80.5726 87.1084 0.0000 0.0000 0.0000
# 4 0.0000 0.0000 0.0000 27.0092 0.0000 0.0000
# 5 0.0000 0.0000 0.0000 0.0000 6.0814 0.0000
# 6 0.0000 0.0000 0.0000 0.0000 0.0000 27.6798
#
#
#
# Elastic Compliance Matrix: (Units=1/GPa)
#
#
# Indices 1 2 3 4 5 6 
#
# 1 0.038022 -0.008321 -0.020182 0.000000 0.000000 0.000000
# 2 -0.008321 0.015576 -0.008306 0.000000 0.000000 0.000000
# 3 -0.020182 -0.008306 0.033961 0.000000 0.000000 0.000000
# 4 0.000000 0.000000 0.000000 0.037024 0.000000 0.000000
# 5 0.000000 0.000000 0.000000 0.000000 0.164437 0.000000
# 6 0.000000 0.000000 0.000000 0.000000 0.000000 0.036127
#
#
# Mechanical properties :
#
#
# Convention : Reuss Voigt Hill
#
# Bulk Modulus (GPa) = 71.73364 83.31262 77.52313
# Shear Modulus (GPa) = 12.39426 18.25534 15.32480
#
# Velocity S-wave (km/s) = 2.65052 3.21674 2.94726
# Velocity P-wave (km/s) = 7.07296 7.81150 7.45138
#
# Compressibility (1/GPa) = 0.01394046
#
# Stress axis : x y z
#
# Youngs Moduli (GPa) = 26.30072 64.20085 29.44578
#
# Poissons Ratio (x) = 0.53422 0.59427
# Poissons Ratio (y) = 0.21885 0.24458
# Poissons Ratio (z) = 0.53080 0.53326
#
# Static dielectric constant tensor:
#      x y z
#    x 1.586640 0.000000 0.000000 
#    y 0.000000 1.591940 0.000000 
#    z 0.000000 0.000000 1.621660 
# 
# From -- ./inp_files/36613.got.cif
#   From: 2010.05.17/outbox.cif.g08.bks.cpg/sg65_19_cif.got.tgz:36613.got - 2010.06.03 17:01:31.
