data_PCOD9492158
_publ_section_title
;
Structure prediction by ZEFSAII (Michael W. Deem and Ramdas Pophale) SiO2 
 PCOD9492158
Probable space group: C M M M
;
_chemical_formula_sum "Si O2"
_cell_formula_units_Z 100
_cell_length_a 7.753226
_cell_length_b 21.193457
_cell_length_c 30.108540
_cell_angle_alpha 90.000000
_cell_angle_beta 90.000000
_cell_angle_gamma 90.000000
_cell_volume 4947.364894
_symmetry_space_group_name_H-M "C M M M"
_symmetry_group_IT_number 65
_symmetry_cell_setting 'orthorhombic'
loop_
_space_group_symop_operation_xyz
x,y,z
-x,-y,z
x,-y,-z
-x,y,-z
-x,-y,-z
x,y,-z
-x,y,z
x,-y,z
1/2+x,1/2+y,z
1/2-x,1/2-y,z
1/2+x,1/2-y,-z
1/2-x,1/2+y,-z
1/2-x,1/2-y,-z
1/2+x,1/2+y,-z
1/2-x,1/2+y,z
1/2+x,1/2-y,z
loop_
_atom_site_type_symbol
_atom_site_label
_atom_site_fract_x
_atom_site_fract_y
_atom_site_fract_z
Si Si1 0.000000 0.500000 0.345140
Si Si2 0.704964 0.820752 0.050258
Si Si3 0.206710 0.822169 0.450051
Si Si4 0.793354 0.679735 0.716212
Si Si5 0.797224 0.570124 0.219674
Si Si6 0.797934 0.103375 0.635722
Si Si7 0.295884 0.429503 0.118991
O O1 0.844796 0.554392 0.346837
O O2 0.500000 0.824206 0.047575
O O3 0.750000 0.750000 0.065732
O O4 0.761152 0.875735 0.083194
O O5 0.776562 0.828244 0.000000
O O6 0.274841 0.833812 0.500000
O O7 0.250000 0.750000 0.437951
O O8 0.259375 0.872161 0.412868
O O9 0.000000 0.826141 0.451738
O O10 0.750000 0.750000 0.731032
O O11 0.727579 0.626472 0.750548
O O12 0.711365 0.662726 0.669007
O O13 0.000000 0.675637 0.712762
O O14 0.721970 0.500000 0.227759
O O15 0.782157 0.583924 0.167371
O O16 0.000000 0.565598 0.230539
O O17 0.000000 0.081768 0.634258
O O18 0.500000 0.432313 0.125610
O O19 0.236116 0.500000 0.104966
#
# Coordination Sequence:
#
# PCOD9492158 Si02
#       7
#     4  16  16  16  16  16  16
#     4  12  26  44  65  92 128 168 210 256 303 398
#     4  10  21  37  58  83 112 149 193 241 296 357
#     4   9  19  36  61  92 124 161 207 258 314 372
#     4  11  23  39  63  92 126 160 204 257 308 366
#     4   9  20  38  61  84 115 159 202 248 299 355
#     4  11  24  42  65  92 126 165 209 260 314 368
#     4  10  21  37  57  84 118 154 196 243 292 350
#
# _framework density 20.212779000000001
#
# number of rings (size 3 to 8) (size 9 to 14) (size 15 to 20)
#    0.000    1.920    0.800    2.160    2.240    5.440 
#    0.000    4.000    0.000    1.920    0.000    0.000 
#    0.000    0.000    0.000    0.000    0.000    0.000 
#
# Total GULP energy -278558.203277 kJ/mol
# GULP energy per Si atom -5571.164066 kJ/mol
# Density = 2.016677 g / cm^3
# Si number density = 20.212779 Si / 1000 Ang^3
#
#
#
# Elastic Constant Matrix: (Units=GPa)
#
#
# Indices 1 2 3 4 5 6 
#
# 1 74.5667 15.6786 3.2083 0.0000 0.0000 0.0000
# 2 15.6786 123.0220 65.3421 0.0000 0.0000 0.0000
# 3 3.2083 65.3421 72.6014 0.0000 0.0000 0.0000
# 4 0.0000 0.0000 0.0000 47.7195 0.0000 0.0000
# 5 0.0000 0.0000 0.0000 0.0000 -66.1908 0.0000
# 6 0.0000 0.0000 0.0000 0.0000 0.0000 185.9662
#
#
#
# Elastic Compliance Matrix: (Units=1/GPa)
#
#
# Indices 1 2 3 4 5 6 
#
# 1 0.013913 -0.002771 0.001879 0.000000 0.000000 0.000000
# 2 -0.002771 0.016125 -0.014390 0.000000 0.000000 0.000000
# 3 0.001879 -0.014390 0.026642 0.000000 0.000000 0.000000
# 4 0.000000 0.000000 0.000000 0.020956 0.000000 0.000000
# 5 0.000000 0.000000 0.000000 0.000000 -0.015108 0.000000
# 6 0.000000 0.000000 0.000000 0.000000 0.000000 0.005377
#
#
# Mechanical properties :
#
#
# Convention : Reuss Voigt Hill
#
# Bulk Modulus (GPa) = 38.29137 48.73866 43.51501
# Shear Modulus (GPa) = 46.65271 45.89640 46.27455
#
# Velocity S-wave (km/s) = 4.80946 4.77032 4.78993
# Velocity P-wave (km/s) = 7.05879 7.38284 7.22263
#
# Compressibility (1/GPa) = 0.02611555
#
# Stress axis : x y z
#
# Youngs Moduli (GPa) = 71.87698 62.01509 37.53440
#
# Poissons Ratio (x) = 0.17187 -0.07054
# Poissons Ratio (y) = 0.19920 0.54013
# Poissons Ratio (z) = -0.13509 0.89242
#
# Static dielectric constant tensor:
#      x y z
#    x 1.795530 0.000000 0.000000 
#    y 0.000000 1.698810 0.000000 
#    z 0.000000 0.000000 1.744940 
# 
# From -- ./inp_files/73325.got.cif
#   From: 2010.05.17/outbox.cif.g08.bks.cpg/sg65_37_cif.got.tgz:73325.got - 2010.06.03 17:01:31.
