data_PCOD9492813
_publ_section_title
;
Structure prediction by ZEFSAII (Michael W. Deem and Ramdas Pophale) SiO2 
 PCOD9492813
Probable space group: C M M M
;
_chemical_formula_sum "Si O2"
_cell_formula_units_Z 104
_cell_length_a 9.244569
_cell_length_b 20.984640
_cell_length_c 30.640612
_cell_angle_alpha 90.000000
_cell_angle_beta 90.000000
_cell_angle_gamma 90.000000
_cell_volume 5944.093426
_symmetry_space_group_name_H-M "C M M M"
_symmetry_group_IT_number 65
_symmetry_cell_setting 'orthorhombic'
loop_
_space_group_symop_operation_xyz
x,y,z
-x,-y,z
x,-y,-z
-x,y,-z
-x,-y,-z
x,y,-z
-x,y,z
x,-y,z
1/2+x,1/2+y,z
1/2-x,1/2-y,z
1/2+x,1/2-y,-z
1/2-x,1/2+y,-z
1/2-x,1/2-y,-z
1/2+x,1/2+y,-z
1/2-x,1/2+y,z
1/2+x,1/2-y,z
loop_
_atom_site_type_symbol
_atom_site_label
_atom_site_fract_x
_atom_site_fract_y
_atom_site_fract_z
Si Si1 0.162850 0.500000 0.947326
Si Si2 0.173888 0.074418 0.619025
Si Si3 0.326377 0.315994 0.449094
Si Si4 0.173621 0.870616 0.950132
Si Si5 0.665208 0.922812 0.707985
Si Si6 0.673882 0.573751 0.796979
Si Si7 0.672786 0.687496 0.138901
O O1 0.251433 0.563232 0.937031
O O2 0.000000 0.500000 0.929447
O O3 0.152495 0.500000 0.000000
O O4 0.213470 0.123718 0.580836
O O5 0.251011 0.094750 0.663880
O O6 0.000000 0.076583 0.624780
O O7 0.211254 0.000000 0.609591
O O8 0.289884 0.327737 0.500000
O O9 0.500000 0.307978 0.446218
O O10 0.250000 0.250000 0.435715
O O11 0.211809 0.821978 0.911986
O O12 0.000000 0.879232 0.949720
O O13 0.215762 0.853766 0.000000
O O14 0.500000 0.899636 0.708206
O O15 0.749919 0.905798 0.752026
O O16 0.661771 0.000000 0.707865
O O17 0.500000 0.574970 0.791280
O O18 0.713894 0.500000 0.807012
O O19 0.711948 0.623646 0.834703
O O20 0.500000 0.694935 0.141781
O O21 0.750000 0.750000 0.156611
#
# Coordination Sequence:
#
# PCOD9492813 Si02
#       7
#     8  16  16  16  16  16  16
#     4   9  17  29  47  75 105 129 159 205 253 287
#     4   9  17  30  50  75 102 132 167 208 253 301
#     4   9  18  32  49  70  99 136 175 213 252 296
#     4   9  18  33  53  75 101 136 173 206 246 300
#     4   9  17  30  50  77 105 129 159 205 257 305
#     4   9  18  34  56  77  98 130 170 208 247 300
#     4  10  22  37  54  76 105 137 170 209 253 301
#
# _framework density 17.496361
#
# number of rings (size 3 to 8) (size 9 to 14) (size 15 to 20)
#    0.000    2.846    0.000    0.692    1.077    5.231 
#    0.000    2.308    0.000    0.000    0.000    4.308 
#    0.000    0.000    0.000    0.000    0.000    0.000 
#
# Total GULP energy -289709.602094 kJ/mol
# GULP energy per Si atom -5571.338502 kJ/mol
# Density = 1.745654 g / cm^3
# Si number density = 17.496361 Si / 1000 Ang^3
#
#
#
# Elastic Constant Matrix: (Units=GPa)
#
#
# Indices 1 2 3 4 5 6 
#
# 1 18.9449 37.2431 39.8737 0.0000 0.0000 0.0000
# 2 37.2431 105.5270 72.2599 0.0000 0.0000 0.0000
# 3 39.8737 72.2599 114.8082 0.0000 0.0000 0.0000
# 4 0.0000 0.0000 0.0000 6.5483 0.0000 0.0000
# 5 0.0000 0.0000 0.0000 0.0000 14.7450 0.0000
# 6 0.0000 0.0000 0.0000 0.0000 0.0000 23.3629
#
#
#
# Elastic Compliance Matrix: (Units=1/GPa)
#
#
# Indices 1 2 3 4 5 6 
#
# 1 0.378884 -0.076644 -0.083350 0.000000 0.000000 0.000000
# 2 -0.076644 0.032158 0.006379 0.000000 0.000000 0.000000
# 3 -0.083350 0.006379 0.033643 0.000000 0.000000 0.000000
# 4 0.000000 0.000000 0.000000 0.152712 0.000000 0.000000
# 5 0.000000 0.000000 0.000000 0.000000 0.067819 0.000000
# 6 0.000000 0.000000 0.000000 0.000000 0.000000 0.042803
#
#
# Mechanical properties :
#
#
# Convention : Reuss Voigt Hill
#
# Bulk Modulus (GPa) = 7.27507 59.78152 33.52829
# Shear Modulus (GPa) = 4.71223 14.92478 9.81851
#
# Velocity S-wave (km/s) = 1.64290 2.92382 2.37148
# Velocity P-wave (km/s) = 2.78673 6.75577 5.16751
#
# Compressibility (1/GPa) = 0.13745580
#
# Stress axis : x y z
#
# Youngs Moduli (GPa) = 2.63933 31.09674 29.72349
#
# Poissons Ratio (x) = 2.38336 2.47746
# Poissons Ratio (y) = 0.20229 -0.18960
# Poissons Ratio (z) = 0.21999 -0.19836
#
# Static dielectric constant tensor:
#      x y z
#    x 1.594280 0.000000 0.000000 
#    y 0.000000 1.576090 0.000000 
#    z 0.000000 0.000000 1.595210 
# 
# From -- ./inp_files/76866.got.cif
#   From: 2010.05.17/outbox.cif.g08.bks.cpg/sg65_39_cif.got.tgz:76866.got - 2010.06.03 17:01:31.
