data_PCOD9492927
_publ_section_title
;
Structure prediction by ZEFSAII (Michael W. Deem and Ramdas Pophale) SiO2 
 PCOD9492927
Probable space group: C M M M
;
_chemical_formula_sum "Si O2"
_cell_formula_units_Z 56
_cell_length_a 28.324528
_cell_length_b 7.483260
_cell_length_c 13.517690
_cell_angle_alpha 90.000000
_cell_angle_beta 90.000000
_cell_angle_gamma 90.000000
_cell_volume 2865.206969
_symmetry_space_group_name_H-M "C M M M"
_symmetry_group_IT_number 65
_symmetry_cell_setting 'orthorhombic'
loop_
_space_group_symop_operation_xyz
x,y,z
-x,-y,z
x,-y,-z
-x,y,-z
-x,-y,-z
x,y,-z
-x,y,z
x,-y,z
1/2+x,1/2+y,z
1/2-x,1/2-y,z
1/2+x,1/2-y,-z
1/2-x,1/2+y,-z
1/2-x,1/2-y,-z
1/2+x,1/2+y,-z
1/2-x,1/2+y,z
1/2+x,1/2-y,z
loop_
_atom_site_type_symbol
_atom_site_label
_atom_site_fract_x
_atom_site_fract_y
_atom_site_fract_z
Si Si1 0.694755 0.712178 0.500000
Si Si2 0.394142 0.709106 0.888150
Si Si3 0.000000 0.713469 0.887467
Si Si4 0.871303 0.217407 0.680026
Si Si5 0.447045 0.000000 0.617722
O O1 0.689086 0.500000 0.500000
O O2 0.750000 0.750000 0.500000
O O3 0.668323 0.773079 0.399871
O O4 0.384398 0.500000 0.898008
O O5 0.448599 0.728163 0.851554
O O6 0.363161 0.771968 0.794922
O O7 0.390076 0.787403 0.000000
O O8 0.000000 0.500000 0.888692
O O9 0.000000 0.782776 0.000000
O O10 0.917765 0.324983 0.647662
O O11 0.876841 0.000000 0.676533
O O12 0.500000 0.000000 0.660385
O O13 0.450210 0.000000 0.500000
#
# Coordination Sequence:
#
# PCOD9492927 Si02
#       5
#     8  16   8  16   8
#     4  10  22  40  64  87 107 138 184 244 303 344
#     4   9  18  32  50  72 105 148 186 222 269 324
#     4   9  17  27  41  68 103 142 189 229 257 304
#     4  10  22  39  57  84 118 147 193 239 281 339
#     4  11  24  38  57  83 119 163 196 229 285 343
#
# _framework density 19.544836
#
# number of rings (size 3 to 8) (size 9 to 14) (size 15 to 20)
#    0.000    2.286    1.429    0.429    6.000    2.286 
#    0.000    1.429    0.000    0.857    0.000    0.000 
#    0.000    0.000    0.000    0.000    0.000    0.000 
#
# Total GULP energy -155899.366501 kJ/mol
# GULP energy per Si atom -5567.834518 kJ/mol
# Density = 1.950035 g / cm^3
# Si number density = 19.544836 Si / 1000 Ang^3
#
#
#
# Elastic Constant Matrix: (Units=GPa)
#
#
# Indices 1 2 3 4 5 6 
#
# 1 107.0648 14.5283 76.0195 0.0000 0.0000 0.0000
# 2 14.5283 68.0654 17.0118 0.0000 0.0000 0.0000
# 3 76.0195 17.0118 197.6979 0.0000 0.0000 0.0000
# 4 0.0000 0.0000 0.0000 8.3217 0.0000 0.0000
# 5 0.0000 0.0000 0.0000 0.0000 15.1910 0.0000
# 6 0.0000 0.0000 0.0000 0.0000 0.0000 20.3019
#
#
#
# Elastic Compliance Matrix: (Units=1/GPa)
#
#
# Indices 1 2 3 4 5 6 
#
# 1 0.013008 -0.001560 -0.004868 0.000000 0.000000 0.000000
# 2 -0.001560 0.015202 -0.000708 0.000000 0.000000 0.000000
# 3 -0.004868 -0.000708 0.006991 0.000000 0.000000 0.000000
# 4 0.000000 0.000000 0.000000 0.120167 0.000000 0.000000
# 5 0.000000 0.000000 0.000000 0.000000 0.065828 0.000000
# 6 0.000000 0.000000 0.000000 0.000000 0.000000 0.049257
#
#
# Mechanical properties :
#
#
# Convention : Reuss Voigt Hill
#
# Bulk Modulus (GPa) = 47.78075 65.32748 56.55411
# Shear Modulus (GPa) = 17.14086 26.44750 21.79418
#
# Velocity S-wave (km/s) = 2.96463 3.68254 3.34291
# Velocity P-wave (km/s) = 6.01819 7.18181 6.62559
#
# Compressibility (1/GPa) = 0.02092893
#
# Stress axis : x y z
#
# Youngs Moduli (GPa) = 76.87576 65.78198 143.04316
#
# Poissons Ratio (x) = 0.10261 0.69628
# Poissons Ratio (y) = 0.11992 0.10131
# Poissons Ratio (z) = 0.37420 0.04659
#
# Static dielectric constant tensor:
#      x y z
#    x 1.700290 0.000000 0.000000 
#    y 0.000000 1.693810 0.000000 
#    z 0.000000 0.000000 1.786090 
# 
# From -- ./inp_files/36255.got.cif
#   From: 2010.05.17/outbox.cif.g08.bks.cpg/sg65_19_cif.got.tgz:36255.got - 2010.06.03 17:01:31.
