data_PCOD9492337
_publ_section_title
;
Structure prediction by ZEFSAII (Michael W. Deem and Ramdas Pophale) SiO2 
 PCOD9492337
Probable space group: C M M M
;
_chemical_formula_sum "Si O2"
_cell_formula_units_Z 84
_cell_length_a 16.275328
_cell_length_b 23.896532
_cell_length_c 12.035288
_cell_angle_alpha 90.000000
_cell_angle_beta 90.000000
_cell_angle_gamma 90.000000
_cell_volume 4680.811103
_symmetry_space_group_name_H-M "C M M M"
_symmetry_group_IT_number 65
_symmetry_cell_setting 'orthorhombic'
loop_
_space_group_symop_operation_xyz
x,y,z
-x,-y,z
x,-y,-z
-x,y,-z
-x,-y,-z
x,y,-z
-x,y,z
x,-y,z
1/2+x,1/2+y,z
1/2-x,1/2-y,z
1/2+x,1/2-y,-z
1/2-x,1/2+y,-z
1/2-x,1/2-y,-z
1/2+x,1/2+y,-z
1/2-x,1/2+y,z
1/2+x,1/2-y,z
loop_
_atom_site_type_symbol
_atom_site_label
_atom_site_fract_x
_atom_site_fract_y
_atom_site_fract_z
Si Si1 0.320992 0.134599 0.684174
Si Si2 0.500000 0.288086 0.866901
Si Si3 0.158714 0.726536 0.500000
Si Si4 0.500000 0.694662 0.500000
Si Si5 0.591318 0.066248 0.500000
Si Si6 0.500000 0.389118 0.707779
Si Si7 0.667463 0.563834 0.633848
Si Si8 0.835991 0.718436 0.866442
O O1 0.342687 0.187714 0.608009
O O2 0.367443 0.086530 0.614484
O O3 0.228203 0.112172 0.676216
O O4 0.339504 0.158111 0.806042
O O5 0.500000 0.349837 0.815317
O O6 0.416616 0.254752 0.834060
O O7 0.500000 0.291212 0.000000
O O8 0.250000 0.750000 0.500000
O O9 0.082864 0.768622 0.500000
O O10 0.500000 0.655415 0.607067
O O11 0.500000 0.090008 0.500000
O O12 0.590962 0.000000 0.500000
O O13 0.419537 0.426330 0.691429
O O14 0.659878 0.570007 0.500000
O O15 0.696651 0.500000 0.654268
O O16 0.750000 0.750000 0.835594
O O17 0.836349 0.712567 0.000000
#
# Coordination Sequence:
#
# PCOD9492337 Si02
#       8
#    16   8   8   4   8   8  16  16
#     4  11  21  34  58  77 110 145 186 226 277 327
#     4  10  22  39  60  82 115 156 188 224 274 335
#     4  11  21  31  46  76 113 141 174 218 275 331
#     4  12  22  30  49  80 117 142 168 226 282 328
#     4  10  22  37  55  79 107 140 180 226 281 336
#     4  12  21  35  56  82 115 145 186 228 280 335
#     4  11  21  37  56  81 112 148 190 230 279 340
#     4  10  21  38  58  83 114 151 192 229 271 331
#
# _framework density 17.945609000000001
#
# number of rings (size 3 to 8) (size 9 to 14) (size 15 to 20)
#    0.000    1.238    2.857    4.857    4.000    0.762 
#    0.000    0.000    0.000    4.571    0.000    1.333 
#    0.000    0.000    0.000    0.000    0.000    0.000 
#
# Total GULP energy -234246.674144 kJ/mol
# GULP energy per Si atom -5577.301765 kJ/mol
# Density = 1.790476 g / cm^3
# Si number density = 17.945609 Si / 1000 Ang^3
#
#
#
# Elastic Constant Matrix: (Units=GPa)
#
#
# Indices 1 2 3 4 5 6 
#
# 1 91.5203 15.0576 13.4093 0.0000 0.0000 0.0000
# 2 15.0576 63.1452 24.5655 0.0000 0.0000 0.0000
# 3 13.4093 24.5655 44.8893 0.0000 0.0000 0.0000
# 4 0.0000 0.0000 0.0000 20.0460 0.0000 0.0000
# 5 0.0000 0.0000 0.0000 0.0000 116.2485 0.0000
# 6 0.0000 0.0000 0.0000 0.0000 0.0000 42.8436
#
#
#
# Elastic Compliance Matrix: (Units=1/GPa)
#
#
# Indices 1 2 3 4 5 6 
#
# 1 0.011585 -0.001799 -0.002476 0.000000 0.000000 0.000000
# 2 -0.001799 0.020399 -0.010626 0.000000 0.000000 0.000000
# 3 -0.002476 -0.010626 0.028832 0.000000 0.000000 0.000000
# 4 0.000000 0.000000 0.000000 0.049885 0.000000 0.000000
# 5 0.000000 0.000000 0.000000 0.000000 0.008602 0.000000
# 6 0.000000 0.000000 0.000000 0.000000 0.000000 0.023341
#
#
# Mechanical properties :
#
#
# Convention : Reuss Voigt Hill
#
# Bulk Modulus (GPa) = 32.24389 33.95773 33.10081
# Shear Modulus (GPa) = 27.35447 45.59579 36.47513
#
# Velocity S-wave (km/s) = 3.90846 5.04608 4.51326
# Velocity P-wave (km/s) = 6.19473 7.27422 6.75607
#
# Compressibility (1/GPa) = 0.03101362
#
# Stress axis : x y z
#
# Youngs Moduli (GPa) = 86.31577 49.02093 34.68405
#
# Poissons Ratio (x) = 0.08821 0.08588
# Poissons Ratio (y) = 0.15531 0.36855
# Poissons Ratio (z) = 0.21372 0.52090
#
# Static dielectric constant tensor:
#      x y z
#    x 1.685010 0.000000 0.000000 
#    y 0.000000 1.599580 0.000000 
#    z 0.000000 0.000000 1.619410 
# 
# From -- ./inp_files/24902.got.cif
#   From: 2010.05.17/outbox.cif.g08.bks.cpg/sg65_13_cif.got.tgz:24902.got - 2010.06.03 17:01:31.
