data_PCOD9492650
_publ_section_title
;
Structure prediction by ZEFSAII (Michael W. Deem and Ramdas Pophale) SiO2 
 PCOD9492650
Probable space group: C M M M
;
_chemical_formula_sum "Si O2"
_cell_formula_units_Z 112
_cell_length_a 14.382358
_cell_length_b 14.740488
_cell_length_c 26.672353
_cell_angle_alpha 90.000000
_cell_angle_beta 90.000000
_cell_angle_gamma 90.000000
_cell_volume 5654.618200
_symmetry_space_group_name_H-M "C M M M"
_symmetry_group_IT_number 65
_symmetry_cell_setting 'orthorhombic'
loop_
_space_group_symop_operation_xyz
x,y,z
-x,-y,z
x,-y,-z
-x,y,-z
-x,-y,-z
x,y,-z
-x,y,z
x,-y,z
1/2+x,1/2+y,z
1/2-x,1/2-y,z
1/2+x,1/2-y,-z
1/2-x,1/2+y,-z
1/2-x,1/2-y,-z
1/2+x,1/2+y,-z
1/2-x,1/2+y,z
1/2+x,1/2-y,z
loop_
_atom_site_type_symbol
_atom_site_label
_atom_site_fract_x
_atom_site_fract_y
_atom_site_fract_z
Si Si1 0.775982 0.650562 0.290818
Si Si2 0.608957 0.726670 0.941241
Si Si3 0.105503 0.605445 0.804309
Si Si4 0.277975 0.888942 0.098590
Si Si5 0.102981 0.897954 0.352095
Si Si6 0.359680 0.734683 0.554831
Si Si7 0.395876 0.102836 0.616027
O O1 0.750000 0.750000 0.273315
O O2 0.843378 0.610282 0.249182
O O3 0.678743 0.607725 0.308120
O O4 0.832065 0.650287 0.342906
O O5 0.500000 0.725136 0.925781
O O6 0.652264 0.828266 0.935705
O O7 0.676892 0.656711 0.911583
O O8 0.613595 0.701763 0.000000
O O9 0.093149 0.500000 0.815928
O O10 0.178875 0.635614 0.846714
O O11 0.000000 0.646054 0.804532
O O12 0.277197 0.000000 0.091723
O O13 0.118059 0.830911 0.398839
O O14 0.000000 0.879512 0.331662
O O15 0.106709 0.000000 0.372261
O O16 0.390007 0.701954 0.500000
O O17 0.250000 0.750000 0.553828
O O18 0.397475 0.834364 0.567611
O O19 0.500000 0.098763 0.636630
O O20 0.363285 0.000000 0.607102
#
# Coordination Sequence:
#
# PCOD9492650 Si02
#       7
#    16  16  16  16  16  16  16
#     4  12  23  38  61  89 118 152 192 241 297 350
#     4  10  22  39  61  93 133 176 223 271 320 376
#     4  10  22  40  63  91 122 158 202 252 308 370
#     4  10  21  39  63  92 128 170 217 271 324 376
#     4  11  23  40  61  83 113 154 194 233 281 344
#     4  11  23  40  60  85 115 147 186 234 287 345
#     4  11  22  38  62  87 113 147 186 234 293 349
#
# _framework density 19.806819000000001
#
# number of rings (size 3 to 8) (size 9 to 14) (size 15 to 20)
#    0.000    1.286    2.857    3.429    2.000    5.714 
#    0.000    5.000    0.000    0.857    0.000    0.000 
#    0.000    0.000    0.000    0.000    0.000    0.000 
#
# Total GULP energy -311980.969291 kJ/mol
# GULP energy per Si atom -5571.088737 kJ/mol
# Density = 1.976174 g / cm^3
# Si number density = 19.806819 Si / 1000 Ang^3
#
#
#
# Elastic Constant Matrix: (Units=GPa)
#
#
# Indices 1 2 3 4 5 6 
#
# 1 170.5758 28.3892 48.4564 0.0000 0.0000 0.0000
# 2 28.3892 71.0436 23.2136 0.0000 0.0000 0.0000
# 3 48.4564 23.2136 84.4754 0.0000 0.0000 0.0000
# 4 0.0000 0.0000 0.0000 16.5564 0.0000 0.0000
# 5 0.0000 0.0000 0.0000 0.0000 1.6998 0.0000
# 6 0.0000 0.0000 0.0000 0.0000 0.0000 21.7149
#
#
#
# Elastic Compliance Matrix: (Units=1/GPa)
#
#
# Indices 1 2 3 4 5 6 
#
# 1 0.007180 -0.001674 -0.003659 0.000000 0.000000 0.000000
# 2 -0.001674 0.015855 -0.003397 0.000000 0.000000 0.000000
# 3 -0.003659 -0.003397 0.014870 0.000000 0.000000 0.000000
# 4 0.000000 0.000000 0.000000 0.060400 0.000000 0.000000
# 5 0.000000 0.000000 0.000000 0.000000 0.588294 0.000000
# 6 0.000000 0.000000 0.000000 0.000000 0.000000 0.046051
#
#
# Mechanical properties :
#
#
# Convention : Reuss Voigt Hill
#
# Bulk Modulus (GPa) = 48.90860 58.46816 53.68838
# Shear Modulus (GPa) = 6.60568 23.06327 14.83448
#
# Velocity S-wave (km/s) = 1.82819 3.41605 2.73968
# Velocity P-wave (km/s) = 5.40396 6.71881 6.09694
#
# Compressibility (1/GPa) = 0.02044630
#
# Stress axis : x y z
#
# Youngs Moduli (GPa) = 139.26676 63.07330 67.24975
#
# Poissons Ratio (x) = 0.10557 0.24606
# Poissons Ratio (y) = 0.23310 0.22843
# Poissons Ratio (z) = 0.50956 0.21424
#
# Static dielectric constant tensor:
#      x y z
#    x 1.732390 0.000000 0.000000 
#    y 0.000000 1.728550 0.000000 
#    z 0.000000 0.000000 1.703880 
# 
# From -- ./inp_files/74869.got.cif
#   From: 2010.05.17/outbox.cif.g08.bks.cpg/sg65_38_cif.got.tgz:74869.got - 2010.06.03 17:01:31.
