data_PCOD9492086
_publ_section_title
;
Structure prediction by ZEFSAII (Michael W. Deem and Ramdas Pophale) SiO2 
 PCOD9492086
Probable space group: C M M M
;
_chemical_formula_sum "Si O2"
_cell_formula_units_Z 104
_cell_length_a 18.519919
_cell_length_b 9.006405
_cell_length_c 34.200297
_cell_angle_alpha 90.000000
_cell_angle_beta 90.000000
_cell_angle_gamma 90.000000
_cell_volume 5704.537414
_symmetry_space_group_name_H-M "C M M M"
_symmetry_group_IT_number 65
_symmetry_cell_setting 'orthorhombic'
loop_
_space_group_symop_operation_xyz
x,y,z
-x,-y,z
x,-y,-z
-x,y,-z
-x,-y,-z
x,y,-z
-x,y,z
x,-y,z
1/2+x,1/2+y,z
1/2-x,1/2-y,z
1/2+x,1/2-y,-z
1/2-x,1/2+y,-z
1/2-x,1/2-y,-z
1/2+x,1/2+y,-z
1/2-x,1/2+y,z
1/2+x,1/2-y,z
loop_
_atom_site_type_symbol
_atom_site_label
_atom_site_fract_x
_atom_site_fract_y
_atom_site_fract_z
Si Si1 0.915751 0.821868 0.919550
Si Si2 0.412182 0.171164 0.000000
Si Si3 0.671362 0.178730 0.308417
Si Si4 0.671929 0.677108 0.454747
Si Si5 0.671061 0.321537 0.158514
Si Si6 0.915860 0.678479 0.613936
Si Si7 0.915074 0.678434 0.770196
O O1 0.889358 0.749951 0.959951
O O2 0.868315 0.780409 0.882148
O O3 0.000000 0.779077 0.913200
O O4 0.913980 0.000000 0.923661
O O5 0.500000 0.178347 0.000000
O O6 0.390377 0.000000 0.000000
O O7 0.750000 0.250000 0.306321
O O8 0.630205 0.223301 0.348052
O O9 0.624162 0.218014 0.270406
O O10 0.678256 0.000000 0.308928
O O11 0.652754 0.709514 0.500000
O O12 0.677317 0.500000 0.450287
O O13 0.750000 0.750000 0.447107
O O14 0.615606 0.743622 0.424313
O O15 0.676097 0.500000 0.160508
O O16 0.750000 0.250000 0.160411
O O17 0.623469 0.261130 0.194249
O O18 0.909308 0.500000 0.609632
O O19 0.000000 0.713136 0.619780
O O20 0.907944 0.500000 0.775478
O O21 0.000000 0.713274 0.768526
#
# Coordination Sequence:
#
# PCOD9492086 Si02
#       7
#    16   8  16  16  16  16  16
#     4   9  18  34  55  77 104 140 179 220 269 323
#     4   9  17  29  50  81 110 135 171 221 270 319
#     4  10  21  37  57  82 112 146 183 223 270 323
#     4  10  21  37  57  81 110 144 183 228 277 330
#     4  11  23  38  56  80 111 146 185 227 272 324
#     4  10  21  37  57  81 111 147 186 228 273 324
#     4  10  21  38  60  84 111 144 181 223 272 324
#
# _framework density 18.231100999999999
#
# number of rings (size 3 to 8) (size 9 to 14) (size 15 to 20)
#    0.000    2.077    0.000    3.000    0.000   10.154 
#    0.000    3.462    0.000    2.769    0.000    0.000 
#    0.000    0.000    0.000    0.000    0.000    0.000 
#
# Total GULP energy -290438.491141 kJ/mol
# GULP energy per Si atom -5585.355599 kJ/mol
# Density = 1.818961 g / cm^3
# Si number density = 18.231101 Si / 1000 Ang^3
#
#
#
# Elastic Constant Matrix: (Units=GPa)
#
#
# Indices 1 2 3 4 5 6 
#
# 1 148.1255 55.6661 101.8532 0.0000 0.0000 0.0000
# 2 55.6661 36.2039 60.1569 0.0000 0.0000 0.0000
# 3 101.8532 60.1569 156.2220 0.0000 0.0000 0.0000
# 4 0.0000 0.0000 0.0000 26.1753 0.0000 0.0000
# 5 0.0000 0.0000 0.0000 0.0000 68.3501 0.0000
# 6 0.0000 0.0000 0.0000 0.0000 0.0000 27.7913
#
#
#
# Elastic Compliance Matrix: (Units=1/GPa)
#
#
# Indices 1 2 3 4 5 6 
#
# 1 0.016399 -0.020683 -0.002727 0.000000 0.000000 0.000000
# 2 -0.020683 0.102778 -0.026092 0.000000 0.000000 0.000000
# 3 -0.002727 -0.026092 0.018227 0.000000 0.000000 0.000000
# 4 0.000000 0.000000 0.000000 0.038204 0.000000 0.000000
# 5 0.000000 0.000000 0.000000 0.000000 0.014631 0.000000
# 6 0.000000 0.000000 0.000000 0.000000 0.000000 0.035982
#
#
# Mechanical properties :
#
#
# Convention : Reuss Voigt Hill
#
# Bulk Modulus (GPa) = 26.04246 86.21154 56.12700
# Shear Modulus (GPa) = 14.79173 32.65502 23.72337
#
# Velocity S-wave (km/s) = 2.85150 4.23681 3.61121
# Velocity P-wave (km/s) = 5.01568 8.44541 6.94558
#
# Compressibility (1/GPa) = 0.03839883
#
# Stress axis : x y z
#
# Youngs Moduli (GPa) = 60.97853 9.72966 54.86418
#
# Poissons Ratio (x) = 0.20124 0.14964
# Poissons Ratio (y) = 1.26122 1.43154
# Poissons Ratio (z) = 0.16631 0.25387
#
# Static dielectric constant tensor:
#      x y z
#    x 1.598160 0.000000 0.000000 
#    y 0.000000 1.612970 0.000000 
#    z 0.000000 0.000000 1.605970 
# 
# From -- ./inp_files/75490.got.cif
#   From: 2010.05.17/outbox.cif.g08.bks.cpg/sg65_38_cif.got.tgz:75490.got - 2010.06.03 17:01:31.
