data_PCOD9492310
_publ_section_title
;
Structure prediction by ZEFSAII (Michael W. Deem and Ramdas Pophale) SiO2 
 PCOD9492310
Probable space group: C M M M
;
_chemical_formula_sum "Si O2"
_cell_formula_units_Z 88
_cell_length_a 10.113602
_cell_length_b 21.878235
_cell_length_c 22.995394
_cell_angle_alpha 90.000000
_cell_angle_beta 90.000000
_cell_angle_gamma 90.000000
_cell_volume 5088.139349
_symmetry_space_group_name_H-M "C M M M"
_symmetry_group_IT_number 65
_symmetry_cell_setting 'orthorhombic'
loop_
_space_group_symop_operation_xyz
x,y,z
-x,-y,z
x,-y,-z
-x,y,-z
-x,-y,-z
x,y,-z
-x,y,z
x,-y,z
1/2+x,1/2+y,z
1/2-x,1/2-y,z
1/2+x,1/2-y,-z
1/2-x,1/2+y,-z
1/2-x,1/2-y,-z
1/2+x,1/2+y,-z
1/2-x,1/2+y,z
1/2+x,1/2-y,z
loop_
_atom_site_type_symbol
_atom_site_label
_atom_site_fract_x
_atom_site_fract_y
_atom_site_fract_z
Si Si1 0.500000 0.684760 0.067553
Si Si2 0.845525 0.806022 0.430368
Si Si3 0.756205 0.123146 0.128642
Si Si4 0.500000 0.829527 0.065174
Si Si5 0.843266 0.572047 0.753784
Si Si6 0.159002 0.000000 0.067219
Si Si7 0.656122 0.429676 0.358390
O O1 0.375322 0.664580 0.105691
O O2 0.500000 0.756877 0.061419
O O3 0.500000 0.659084 0.000000
O O4 0.830284 0.812287 0.500000
O O5 0.750000 0.750000 0.411375
O O6 0.819377 0.872309 0.401249
O O7 0.000000 0.790732 0.418510
O O8 0.626234 0.149123 0.099671
O O9 0.726610 0.112237 0.196382
O O10 0.787914 0.058346 0.100187
O O11 0.500000 0.855185 0.000000
O O12 0.838263 0.500000 0.770828
O O13 0.757196 0.577365 0.695208
O O14 0.000000 0.587289 0.747051
O O15 0.000000 0.000000 0.069523
O O16 0.199290 0.000000 0.000000
O O17 0.500000 0.425877 0.340806
O O18 0.673764 0.500000 0.381381
#
# Coordination Sequence:
#
# PCOD9492310 Si02
#       7
#     8  16  16   8  16   8  16
#     4  11  24  41  59  79 109 148 184 225 282 347
#     4   9  18  34  57  87 123 159 193 234 283 331
#     4  12  22  38  60  83 109 142 182 230 285 344
#     4  11  24  41  59  79 107 144 186 229 278 341
#     4  10  21  38  56  81 113 147 182 229 288 340
#     4  11  22  35  55  87 115 135 170 227 292 349
#     4   9  19  35  59  86 113 151 197 237 281 335
#
# _framework density 17.295124000000001
#
# number of rings (size 3 to 8) (size 9 to 14) (size 15 to 20)
#    0.000    1.727    2.727    2.182    1.273    2.909 
#    0.000    4.545    0.000    0.000    0.000    5.091 
#    0.000    0.000    0.000    0.000    0.000    0.000 
#
# Total GULP energy -245243.558712 kJ/mol
# GULP energy per Si atom -5573.717243 kJ/mol
# Density = 1.725576 g / cm^3
# Si number density = 17.295124 Si / 1000 Ang^3
#
#
#
# Elastic Constant Matrix: (Units=GPa)
#
#
# Indices 1 2 3 4 5 6 
#
# 1 109.1033 40.1717 45.0744 0.0000 0.0000 0.0000
# 2 40.1717 91.1141 43.9840 0.0000 0.0000 0.0000
# 3 45.0744 43.9840 68.1081 0.0000 0.0000 0.0000
# 4 0.0000 0.0000 0.0000 46.9925 0.0000 0.0000
# 5 0.0000 0.0000 0.0000 0.0000 27.2453 0.0000
# 6 0.0000 0.0000 0.0000 0.0000 0.0000 52.9406
#
#
#
# Elastic Compliance Matrix: (Units=1/GPa)
#
#
# Indices 1 2 3 4 5 6 
#
# 1 0.012933 -0.002282 -0.007086 0.000000 0.000000 0.000000
# 2 -0.002282 0.016349 -0.009048 0.000000 0.000000 0.000000
# 3 -0.007086 -0.009048 0.025215 0.000000 0.000000 0.000000
# 4 0.000000 0.000000 0.000000 0.021280 0.000000 0.000000
# 5 0.000000 0.000000 0.000000 0.000000 0.036704 0.000000
# 6 0.000000 0.000000 0.000000 0.000000 0.000000 0.018889
#
#
# Mechanical properties :
#
#
# Convention : Reuss Voigt Hill
#
# Bulk Modulus (GPa) = 56.60496 58.53174 57.56835
# Shear Modulus (GPa) = 28.72081 34.70872 31.71476
#
# Velocity S-wave (km/s) = 4.07950 4.48465 4.28686
# Velocity P-wave (km/s) = 7.41550 7.79310 7.60665
#
# Compressibility (1/GPa) = 0.01766630
#
# Stress axis : x y z
#
# Youngs Moduli (GPa) = 77.32111 61.16558 39.65860
#
# Poissons Ratio (x) = 0.13955 0.28101
# Poissons Ratio (y) = 0.17641 0.35884
# Poissons Ratio (z) = 0.54788 0.55344
#
# Static dielectric constant tensor:
#      x y z
#    x 1.573260 0.000000 0.000000 
#    y 0.000000 1.600170 0.000000 
#    z 0.000000 0.000000 1.570240 
# 
# From -- ./inp_files/59904.got.cif
#   From: 2010.05.17/outbox.cif.g08.bks.cpg/sg65_30_cif.got.tgz:59904.got - 2010.06.03 17:01:31.
