data_PCOD9492412
_publ_section_title
;
Structure prediction by ZEFSAII (Michael W. Deem and Ramdas Pophale) SiO2 
 PCOD9492412
Probable space group: C M M M
;
_chemical_formula_sum "Si O2"
_cell_formula_units_Z 96
_cell_length_a 8.889536
_cell_length_b 28.719539
_cell_length_c 19.425867
_cell_angle_alpha 90.000000
_cell_angle_beta 90.000000
_cell_angle_gamma 90.000000
_cell_volume 4959.489424
_symmetry_space_group_name_H-M "C M M M"
_symmetry_group_IT_number 65
_symmetry_cell_setting 'orthorhombic'
loop_
_space_group_symop_operation_xyz
x,y,z
-x,-y,z
x,-y,-z
-x,y,-z
-x,-y,-z
x,y,-z
-x,y,z
x,-y,z
1/2+x,1/2+y,z
1/2-x,1/2-y,z
1/2+x,1/2-y,-z
1/2-x,1/2+y,-z
1/2-x,1/2-y,-z
1/2+x,1/2+y,-z
1/2-x,1/2+y,z
1/2+x,1/2-y,z
loop_
_atom_site_type_symbol
_atom_site_label
_atom_site_fract_x
_atom_site_fract_y
_atom_site_fract_z
Si Si1 0.666769 0.053941 0.582071
Si Si2 0.325569 0.622357 0.328355
Si Si3 0.179697 0.301260 0.421850
Si Si4 0.681155 0.395297 0.921520
Si Si5 0.183373 0.052379 0.211746
Si Si6 0.327762 0.797508 0.916229
O O1 0.670251 0.056471 0.500000
O O2 0.500000 0.071800 0.603942
O O3 0.800298 0.082873 0.614090
O O4 0.676548 0.000000 0.601694
O O5 0.500000 0.634098 0.318087
O O6 0.240661 0.666198 0.360940
O O7 0.266613 0.594755 0.261052
O O8 0.217954 0.319019 0.500000
O O9 0.250000 0.250000 0.416273
O O10 0.000000 0.298602 0.418242
O O11 0.500000 0.393084 0.922419
O O12 0.725161 0.433978 0.866087
O O13 0.741653 0.344841 0.898570
O O14 0.732364 0.404239 0.000000
O O15 0.000000 0.051896 0.216378
O O16 0.234852 0.000000 0.229738
O O17 0.500000 0.799462 0.893380
O O18 0.250000 0.750000 0.891683
O O19 0.327046 0.795647 0.000000
#
# Coordination Sequence:
#
# PCOD9492412 Si02
#       6
#    16  16  16  16  16  16
#     4   9  18  32  49  71 101 136 174 216 258 299
#     4  11  21  33  52  77 107 142 177 214 261 318
#     4  10  21  38  60  85 113 144 180 222 264 308
#     4   9  17  31  53  78 102 133 178 228 276 328
#     4   9  19  35  53  76 107 140 176 223 276 324
#     4   9  16  27  46  73 104 133 161 199 250 308
#
# _framework density 19.356831
#
# number of rings (size 3 to 8) (size 9 to 14) (size 15 to 20)
#    0.000    2.500    0.000    3.000    0.000    6.667 
#    0.000    5.000    0.000    2.500    0.000    2.333 
#    0.000    0.000    0.000    0.000    0.000    0.000 
#
# Total GULP energy -267526.241804 kJ/mol
# GULP energy per Si atom -5573.463371 kJ/mol
# Density = 1.931277 g / cm^3
# Si number density = 19.356831 Si / 1000 Ang^3
#
#
#
# Elastic Constant Matrix: (Units=GPa)
#
#
# Indices 1 2 3 4 5 6 
#
# 1 29.9933 21.2725 22.1704 0.0000 0.0000 0.0000
# 2 21.2725 90.7329 56.4154 0.0000 0.0000 0.0000
# 3 22.1704 56.4154 84.3639 0.0000 0.0000 0.0000
# 4 0.0000 0.0000 0.0000 34.1947 0.0000 0.0000
# 5 0.0000 0.0000 0.0000 0.0000 11.3477 0.0000
# 6 0.0000 0.0000 0.0000 0.0000 0.0000 27.0425
#
#
#
# Elastic Compliance Matrix: (Units=1/GPa)
#
#
# Indices 1 2 3 4 5 6 
#
# 1 0.042766 -0.005201 -0.007761 0.000000 0.000000 0.000000
# 2 -0.005201 0.019498 -0.011672 0.000000 0.000000 0.000000
# 3 -0.007761 -0.011672 0.021698 0.000000 0.000000 0.000000
# 4 0.000000 0.000000 0.000000 0.029244 0.000000 0.000000
# 5 0.000000 0.000000 0.000000 0.000000 0.088123 0.000000
# 6 0.000000 0.000000 0.000000 0.000000 0.000000 0.036979
#
#
# Mechanical properties :
#
#
# Convention : Reuss Voigt Hill
#
# Bulk Modulus (GPa) = 28.82261 44.97850 36.90056
# Shear Modulus (GPa) = 16.71455 21.53245 19.12350
#
# Velocity S-wave (km/s) = 2.94172 3.33888 3.14657
# Velocity P-wave (km/s) = 5.14400 6.17666 5.68383
#
# Compressibility (1/GPa) = 0.03469498
#
# Stress axis : x y z
#
# Youngs Moduli (GPa) = 23.38294 51.28738 46.08747
#
# Poissons Ratio (x) = 0.26676 0.35766
# Poissons Ratio (y) = 0.12162 0.53792
# Poissons Ratio (z) = 0.18146 0.59861
#
# Static dielectric constant tensor:
#      x y z
#    x 1.679230 0.000000 0.000000 
#    y 0.000000 1.673040 0.000000 
#    z 0.000000 0.000000 1.705130 
# 
# From -- ./inp_files/60163.got.cif
#   From: 2010.05.17/outbox.cif.g08.bks.cpg/sg65_31_cif.got.tgz:60163.got - 2010.06.03 17:01:31.
