data_PCOD9492801
_publ_section_title
;
Structure prediction by ZEFSAII (Michael W. Deem and Ramdas Pophale) SiO2 
 PCOD9492801
Probable space group: C M M M
;
_chemical_formula_sum "Si O2"
_cell_formula_units_Z 104
_cell_length_a 21.046418
_cell_length_b 7.696463
_cell_length_c 31.394262
_cell_angle_alpha 90.000000
_cell_angle_beta 90.000000
_cell_angle_gamma 90.000000
_cell_volume 5085.336033
_symmetry_space_group_name_H-M "C M M M"
_symmetry_group_IT_number 65
_symmetry_cell_setting 'orthorhombic'
loop_
_space_group_symop_operation_xyz
x,y,z
-x,-y,z
x,-y,-z
-x,y,-z
-x,-y,-z
x,y,-z
-x,y,z
x,-y,z
1/2+x,1/2+y,z
1/2-x,1/2-y,z
1/2+x,1/2-y,-z
1/2-x,1/2+y,-z
1/2-x,1/2-y,-z
1/2+x,1/2+y,-z
1/2-x,1/2+y,z
1/2+x,1/2-y,z
loop_
_atom_site_type_symbol
_atom_site_label
_atom_site_fract_x
_atom_site_fract_y
_atom_site_fract_z
Si Si1 0.859331 0.702539 0.452268
Si Si2 0.928587 0.296033 0.696313
Si Si3 0.576952 0.699699 0.790404
Si Si4 0.500000 0.696263 0.448627
Si Si5 0.181405 0.290501 0.364041
Si Si6 0.678060 0.708853 0.048548
Si Si7 0.073652 0.213329 0.116176
O O1 0.851764 0.779109 0.500000
O O2 0.842604 0.500000 0.455798
O O3 0.933615 0.713488 0.438592
O O4 0.822517 0.780815 0.412376
O O5 0.933911 0.500000 0.686564
O O6 0.906339 0.283001 0.745387
O O7 0.876412 0.221887 0.664406
O O8 0.000000 0.220453 0.692655
O O9 0.500000 0.702070 0.791967
O O10 0.598010 0.500000 0.788226
O O11 0.595420 0.772409 0.836588
O O12 0.500000 0.500000 0.431842
O O13 0.500000 0.688748 0.500000
O O14 0.175578 0.500000 0.366455
O O15 0.250000 0.250000 0.345314
O O16 0.672634 0.500000 0.047113
O O17 0.750000 0.750000 0.062663
O O18 0.623055 0.771142 0.080257
O O19 0.670703 0.774787 0.000000
O O20 0.000000 0.264859 0.108621
O O21 0.073500 0.000000 0.117287
#
# Coordination Sequence:
#
# PCOD9492801 Si02
#       7
#    16  16  16   8  16  16  16
#     4   9  18  33  53  74  97 130 167 197 234 289
#     4   9  18  33  53  74  96 125 160 197 237 285
#     4   8  14  27  48  72  96 121 152 194 241 286
#     4   9  17  29  47  75 105 127 153 197 243 273
#     4  10  22  37  53  73 101 132 162 199 243 287
#     4   9  17  29  45  65  92 127 163 197 235 281
#     4   8  14  26  46  71  95 119 153 199 244 281
#
# _framework density 20.450959000000001
#
# number of rings (size 3 to 8) (size 9 to 14) (size 15 to 20)
#    0.000    3.154    0.000    1.154    1.077    2.769 
#    0.000    3.077    0.000    5.077    0.000    2.154 
#    0.000    0.000    0.000    0.000    0.000    0.000 
#
# Total GULP energy -289682.294905 kJ/mol
# GULP energy per Si atom -5570.813364 kJ/mol
# Density = 2.040441 g / cm^3
# Si number density = 20.450959 Si / 1000 Ang^3
#
#
#
# Elastic Constant Matrix: (Units=GPa)
#
#
# Indices 1 2 3 4 5 6 
#
# 1 111.4152 -0.7624 89.2719 0.0000 0.0000 0.0000
# 2 -0.7624 35.0993 7.6362 0.0000 0.0000 0.0000
# 3 89.2719 7.6362 135.1083 0.0000 0.0000 0.0000
# 4 0.0000 0.0000 0.0000 14.2336 0.0000 0.0000
# 5 0.0000 0.0000 0.0000 0.0000 -571.6856 0.0000
# 6 0.0000 0.0000 0.0000 0.0000 0.0000 12.1906
#
#
#
# Elastic Compliance Matrix: (Units=1/GPa)
#
#
# Indices 1 2 3 4 5 6 
#
# 1 0.019434 0.003256 -0.013025 0.000000 0.000000 0.000000
# 2 0.003256 0.029391 -0.003812 0.000000 0.000000 0.000000
# 3 -0.013025 -0.003812 0.016223 0.000000 0.000000 0.000000
# 4 0.000000 0.000000 0.000000 0.070256 0.000000 0.000000
# 5 0.000000 0.000000 0.000000 0.000000 -0.001749 0.000000
# 6 0.000000 0.000000 0.000000 0.000000 0.000000 0.082030
#
#
# Mechanical properties :
#
#
# Convention : Reuss Voigt Hill
#
# Bulk Modulus (GPa) = 26.39579 52.65712 39.52645
# Shear Modulus (GPa) = 19.57895 -96.68715 -38.55410
#
# Velocity S-wave (km/s) = 3.09748 -6.88333 -4.34660
# Velocity P-wave (km/s) = 5.07222 6.11308 2.41270
#
# Compressibility (1/GPa) = 0.03788483
#
# Stress axis : x y z
#
# Youngs Moduli (GPa) = 51.45637 34.02433 61.64079
#
# Poissons Ratio (x) = -0.11078 0.80286
# Poissons Ratio (y) = -0.16753 0.23500
# Poissons Ratio (z) = 0.67021 0.12971
#
# Static dielectric constant tensor:
#      x y z
#    x 1.717460 0.000000 0.000000 
#    y 0.000000 1.796180 0.000000 
#    z 0.000000 0.000000 1.761580 
# 
# From -- ./inp_files/78261.got.cif
#   From: 2010.05.17/outbox.cif.g08.bks.cpg/sg65_40_cif.got.tgz:78261.got - 2010.06.03 17:01:31.
