data_PCOD9492664
_publ_section_title
;
Structure prediction by ZEFSAII (Michael W. Deem and Ramdas Pophale) SiO2 
 PCOD9492664
Probable space group: C M M M
;
_chemical_formula_sum "Si O2"
_cell_formula_units_Z 72
_cell_length_a 15.078452
_cell_length_b 29.147500
_cell_length_c 8.793029
_cell_angle_alpha 90.000000
_cell_angle_beta 90.000000
_cell_angle_gamma 90.000000
_cell_volume 3864.529032
_symmetry_space_group_name_H-M "C M M M"
_symmetry_group_IT_number 65
_symmetry_cell_setting 'orthorhombic'
loop_
_space_group_symop_operation_xyz
x,y,z
-x,-y,z
x,-y,-z
-x,y,-z
-x,-y,-z
x,y,-z
-x,y,z
x,-y,z
1/2+x,1/2+y,z
1/2-x,1/2-y,z
1/2+x,1/2-y,-z
1/2-x,1/2+y,-z
1/2-x,1/2-y,-z
1/2+x,1/2+y,-z
1/2-x,1/2+y,z
1/2+x,1/2-y,z
loop_
_atom_site_type_symbol
_atom_site_label
_atom_site_fract_x
_atom_site_fract_y
_atom_site_fract_z
Si Si1 0.500000 0.945651 0.816953
Si Si2 0.500000 0.794279 0.681140
Si Si3 0.171362 0.136950 0.823578
Si Si4 0.393564 0.551753 0.329945
Si Si5 0.636976 0.873355 0.681207
Si Si6 0.500000 0.693936 0.816845
O O1 0.585375 0.916639 0.756351
O O2 0.500000 0.000000 0.772127
O O3 0.500000 0.943989 0.000000
O O4 0.500000 0.785332 0.500000
O O5 0.582548 0.827128 0.717957
O O6 0.500000 0.746445 0.767042
O O7 0.136692 0.085426 0.800254
O O8 0.263861 0.136285 0.735919
O O9 0.090596 0.168797 0.763768
O O10 0.186565 0.147997 0.000000
O O11 0.365522 0.567693 0.500000
O O12 0.500000 0.550692 0.330821
O O13 0.360902 0.500000 0.309896
O O14 0.633390 0.880277 0.500000
O O15 0.500000 0.689945 0.000000
#
# Coordination Sequence:
#
# PCOD9492664 Si02
#       6
#     8   8  16  16  16   8
#     4  10  21  39  64  93 121 152 191 234 284 341
#     4   9  21  41  62  83 108 142 188 239 292 347
#     4  11  22  37  56  84 118 153 194 237 285 342
#     4   9  18  33  53  77 107 146 189 230 276 330
#     4  10  22  40  61  87 117 151 192 237 287 341
#     4  10  23  39  57  83 116 151 190 236 290 347
#
# _framework density 18.630990000000001
#
# number of rings (size 3 to 8) (size 9 to 14) (size 15 to 20)
#    0.000    2.111    1.111    3.000    0.000    7.556 
#    0.000    5.556    0.000    0.000    0.000    0.000 
#    0.000    0.000    0.000    0.000    0.000    0.000 
#
# Total GULP energy -200701.974672 kJ/mol
# GULP energy per Si atom -5575.054852 kJ/mol
# Density = 1.858859 g / cm^3
# Si number density = 18.630990 Si / 1000 Ang^3
#
#
#
# Elastic Constant Matrix: (Units=GPa)
#
#
# Indices 1 2 3 4 5 6 
#
# 1 138.6518 72.8012 38.9192 0.0000 0.0000 0.0000
# 2 72.8012 118.4944 39.1253 0.0000 0.0000 0.0000
# 3 38.9192 39.1253 40.7038 0.0000 0.0000 0.0000
# 4 0.0000 0.0000 0.0000 33.3448 0.0000 0.0000
# 5 0.0000 0.0000 0.0000 0.0000 7.9775 0.0000
# 6 0.0000 0.0000 0.0000 0.0000 0.0000 -7.0687
#
#
#
# Elastic Compliance Matrix: (Units=1/GPa)
#
#
# Indices 1 2 3 4 5 6 
#
# 1 0.011634 -0.005090 -0.006231 0.000000 0.000000 0.000000
# 2 -0.005090 0.014590 -0.009157 0.000000 0.000000 0.000000
# 3 -0.006231 -0.009157 0.039328 0.000000 0.000000 0.000000
# 4 0.000000 0.000000 0.000000 0.029990 0.000000 0.000000
# 5 0.000000 0.000000 0.000000 0.000000 0.125352 0.000000
# 6 0.000000 0.000000 0.000000 0.000000 0.000000 -0.141468
#
#
# Mechanical properties :
#
#
# Convention : Reuss Voigt Hill
#
# Bulk Modulus (GPa) = 40.65910 66.61570 53.63740
# Shear Modulus (GPa) = 38.88600 16.65102 27.76851
#
# Velocity S-wave (km/s) = 4.57351 2.99277 3.86482
# Velocity P-wave (km/s) = 7.05408 6.91196 6.98338
#
# Compressibility (1/GPa) = 0.02459474
#
# Stress axis : x y z
#
# Youngs Moduli (GPa) = 85.95368 68.53865 25.42738
#
# Poissons Ratio (x) = 0.34889 0.15844
# Poissons Ratio (y) = 0.43754 0.23284
# Poissons Ratio (z) = 0.53558 0.62762
#
# Static dielectric constant tensor:
#      x y z
#    x 2.362190 0.000000 0.000000 
#    y 0.000000 1.625680 0.000000 
#    z 0.000000 0.000000 1.652180 
# 
# From -- ./inp_files/7766.got.cif
#   From: 2010.05.17/outbox.cif.g08.bks.cpg/sg65_4_cif.got.tgz:7766.got - 2010.06.03 17:01:31.
