data_PCOD9492089
_publ_section_title
;
Structure prediction by ZEFSAII (Michael W. Deem and Ramdas Pophale) SiO2 
 PCOD9492089
Probable space group: C M M M
;
_chemical_formula_sum "Si O2"
_cell_formula_units_Z 96
_cell_length_a 19.154646
_cell_length_b 8.589212
_cell_length_c 32.316044
_cell_angle_alpha 90.000000
_cell_angle_beta 90.000000
_cell_angle_gamma 90.000000
_cell_volume 5316.742696
_symmetry_space_group_name_H-M "C M M M"
_symmetry_group_IT_number 65
_symmetry_cell_setting 'orthorhombic'
loop_
_space_group_symop_operation_xyz
x,y,z
-x,-y,z
x,-y,-z
-x,y,-z
-x,-y,-z
x,y,-z
-x,y,z
x,-y,z
1/2+x,1/2+y,z
1/2-x,1/2-y,z
1/2+x,1/2-y,-z
1/2-x,1/2+y,-z
1/2-x,1/2-y,-z
1/2+x,1/2+y,-z
1/2-x,1/2+y,z
1/2+x,1/2-y,z
loop_
_atom_site_type_symbol
_atom_site_label
_atom_site_fract_x
_atom_site_fract_y
_atom_site_fract_z
Si Si1 0.828354 0.686780 0.786496
Si Si2 0.418706 0.686306 0.710941
Si Si3 0.584608 0.815512 0.955536
Si Si4 0.918492 0.314204 0.621657
Si Si5 0.081141 0.309669 0.134828
Si Si6 0.171582 0.186540 0.453543
O O1 0.826650 0.500000 0.786748
O O2 0.750000 0.750000 0.786199
O O3 0.870889 0.742799 0.746487
O O4 0.870296 0.740173 0.827488
O O5 0.500000 0.735705 0.716438
O O6 0.416088 0.500000 0.713037
O O7 0.395791 0.740938 0.665342
O O8 0.500000 0.805330 0.955050
O O9 0.606502 0.753769 0.910581
O O10 0.601308 0.000000 0.956122
O O11 0.608488 0.748773 0.000000
O O12 0.912585 0.500000 0.624555
O O13 0.875320 0.253701 0.582845
O O14 0.000000 0.272938 0.616097
O O15 0.081239 0.500000 0.133721
O O16 0.000000 0.263389 0.141090
O O17 0.146965 0.230349 0.500000
O O18 0.250000 0.250000 0.449162
O O19 0.172603 0.000000 0.450980
#
# Coordination Sequence:
#
# PCOD9492089 Si02
#       6
#    16  16  16  16  16  16
#     4  11  22  35  51  72 101 135 172 213 256 304
#     4  10  21  38  59  81 105 132 166 210 259 312
#     4   7   9  15  31  58  90 119 150 194 246 296
#     4  10  21  37  58  84 112 141 174 213 258 308
#     4   8  14  25  43  67  93 124 162 204 252 303
#     4  10  21  37  57  81 111 147 185 223 262 305
#
# _framework density 18.056168
#
# number of rings (size 3 to 8) (size 9 to 14) (size 15 to 20)
#    0.000    2.667    0.000    4.000    0.000    4.667 
#    0.000    5.000    0.000    0.500    0.000    0.000 
#    0.000    2.000    0.000   18.833    0.000   15.500 
#
# Total GULP energy -267587.529054 kJ/mol
# GULP energy per Si atom -5574.740189 kJ/mol
# Density = 1.801507 g / cm^3
# Si number density = 18.056168 Si / 1000 Ang^3
#
#
#
# Elastic Constant Matrix: (Units=GPa)
#
#
# Indices 1 2 3 4 5 6 
#
# 1 76.1668 23.9771 96.9445 0.0000 0.0000 0.0000
# 2 23.9771 27.9189 42.4450 0.0000 0.0000 0.0000
# 3 96.9445 42.4450 219.2112 0.0000 0.0000 0.0000
# 4 0.0000 0.0000 0.0000 8.0824 0.0000 0.0000
# 5 0.0000 0.0000 0.0000 0.0000 -20.1604 0.0000
# 6 0.0000 0.0000 0.0000 0.0000 0.0000 16.6916
#
#
#
# Elastic Compliance Matrix: (Units=1/GPa)
#
#
# Indices 1 2 3 4 5 6 
#
# 1 0.031330 -0.008279 -0.012252 0.000000 0.000000 0.000000
# 2 -0.008279 0.052948 -0.006591 0.000000 0.000000 0.000000
# 3 -0.012252 -0.006591 0.011256 0.000000 0.000000 0.000000
# 4 0.000000 0.000000 0.000000 0.123725 0.000000 0.000000
# 5 0.000000 0.000000 0.000000 0.000000 -0.049602 0.000000
# 6 0.000000 0.000000 0.000000 0.000000 0.000000 0.059910
#
#
# Mechanical properties :
#
#
# Convention : Reuss Voigt Hill
#
# Bulk Modulus (GPa) = 24.21895 72.22556 48.22225
# Shear Modulus (GPa) = 16.80239 11.58475 14.19357
#
# Velocity S-wave (km/s) = 3.05382 2.53572 2.80675
# Velocity P-wave (km/s) = 5.08691 6.97571 6.10480
#
# Compressibility (1/GPa) = 0.04128998
#
# Stress axis : x y z
#
# Youngs Moduli (GPa) = 31.91806 18.88633 88.83772
#
# Poissons Ratio (x) = 0.15637 1.08848
# Poissons Ratio (y) = 0.26426 0.58550
# Poissons Ratio (z) = 0.39107 0.12447
#
# Static dielectric constant tensor:
#      x y z
#    x 1.585990 0.000000 0.000000 
#    y 0.000000 1.609440 0.000000 
#    z 0.000000 0.000000 1.642250 
# 
# From -- ./inp_files/75373.got.cif
#   From: 2010.05.17/outbox.cif.g08.bks.cpg/sg65_38_cif.got.tgz:75373.got - 2010.06.03 17:01:31.
