data_PCOD9492429
_publ_section_title
;
Structure prediction by ZEFSAII (Michael W. Deem and Ramdas Pophale) SiO2 
 PCOD9492429
Probable space group: C M M M
;
_chemical_formula_sum "Si O2"
_cell_formula_units_Z 104
_cell_length_a 17.796717
_cell_length_b 15.692579
_cell_length_c 19.496681
_cell_angle_alpha 90.000000
_cell_angle_beta 90.000000
_cell_angle_gamma 90.000000
_cell_volume 5444.962637
_symmetry_space_group_name_H-M "C M M M"
_symmetry_group_IT_number 65
_symmetry_cell_setting 'orthorhombic'
loop_
_space_group_symop_operation_xyz
x,y,z
-x,-y,z
x,-y,-z
-x,y,-z
-x,-y,-z
x,y,-z
-x,y,z
x,-y,z
1/2+x,1/2+y,z
1/2-x,1/2-y,z
1/2+x,1/2-y,-z
1/2-x,1/2+y,-z
1/2-x,1/2-y,-z
1/2+x,1/2+y,-z
1/2-x,1/2+y,z
1/2+x,1/2-y,z
loop_
_atom_site_type_symbol
_atom_site_label
_atom_site_fract_x
_atom_site_fract_y
_atom_site_fract_z
Si Si1 0.339058 0.270328 0.317460
Si Si2 0.910290 0.000000 0.080781
Si Si3 0.355345 0.335310 0.165928
Si Si4 0.196769 0.594150 0.151388
Si Si5 0.584041 0.182974 0.923841
Si Si6 0.910975 0.403149 0.283787
Si Si7 0.911489 0.098320 0.417903
O O1 0.250000 0.250000 0.314096
O O2 0.364634 0.318636 0.247201
O O3 0.382289 0.179740 0.324589
O O4 0.360927 0.334154 0.378217
O O5 0.887343 0.082258 0.126242
O O6 0.000000 0.000000 0.075634
O O7 0.881926 0.000000 0.000000
O O8 0.265799 0.342388 0.155712
O O9 0.393201 0.255551 0.128986
O O10 0.229409 0.500000 0.152109
O O11 0.145680 0.610697 0.085824
O O12 0.139685 0.600754 0.215205
O O13 0.500000 0.151220 0.911060
O O14 0.586862 0.219508 0.000000
O O15 0.899676 0.500000 0.312429
O O16 0.000000 0.394753 0.269700
O O17 0.903227 0.105811 0.500000
O O18 0.000000 0.112473 0.401814
O O19 0.893553 0.000000 0.399049
#
# Coordination Sequence:
#
# PCOD9492429 Si02
#       7
#    16   8  16  16  16  16  16
#     4  12  23  37  65  98 129 165 209 264 315 379
#     4  11  26  44  62  86 122 168 214 267 328 390
#     4  12  23  41  60  87 120 155 203 255 313 379
#     4  11  22  39  58  81 113 151 194 246 310 368
#     4  11  24  40  58  80 111 151 198 254 309 365
#     4  10  21  38  60  85 120 162 203 254 311 369
#     4   9  21  42  66  96 135 175 214 257 312 377
#
# _framework density 19.100223
#
# number of rings (size 3 to 8) (size 9 to 14) (size 15 to 20)
#    0.000    1.154    3.846    2.769    1.077    7.077 
#    0.000    0.769    0.000    0.462    0.000    2.154 
#    0.000    0.000    0.000    0.000    0.000    0.000 
#
# Total GULP energy -290035.879685 kJ/mol
# GULP energy per Si atom -5577.613071 kJ/mol
# Density = 1.905675 g / cm^3
# Si number density = 19.100223 Si / 1000 Ang^3
#
#
#
# Elastic Constant Matrix: (Units=GPa)
#
#
# Indices 1 2 3 4 5 6 
#
# 1 76.1667 25.0641 19.9738 0.0000 0.0000 0.0000
# 2 25.0641 115.1435 38.6585 0.0000 0.0000 0.0000
# 3 19.9738 38.6585 62.2489 0.0000 0.0000 0.0000
# 4 0.0000 0.0000 0.0000 23.0576 0.0000 0.0000
# 5 0.0000 0.0000 0.0000 0.0000 13.7519 0.0000
# 6 0.0000 0.0000 0.0000 0.0000 0.0000 22.9666
#
#
#
# Elastic Compliance Matrix: (Units=1/GPa)
#
#
# Indices 1 2 3 4 5 6 
#
# 1 0.014706 -0.002043 -0.003450 0.000000 0.000000 0.000000
# 2 -0.002043 0.011256 -0.006335 0.000000 0.000000 0.000000
# 3 -0.003450 -0.006335 0.021106 0.000000 0.000000 0.000000
# 4 0.000000 0.000000 0.000000 0.043370 0.000000 0.000000
# 5 0.000000 0.000000 0.000000 0.000000 0.072717 0.000000
# 6 0.000000 0.000000 0.000000 0.000000 0.000000 0.043541
#
#
# Mechanical properties :
#
#
# Convention : Reuss Voigt Hill
#
# Bulk Modulus (GPa) = 42.71253 46.77243 44.74248
# Shear Modulus (GPa) = 20.99455 23.27940 22.13698
#
# Velocity S-wave (km/s) = 3.31898 3.49492 3.40809
# Velocity P-wave (km/s) = 6.09085 6.38960 6.24201
#
# Compressibility (1/GPa) = 0.02341233
#
# Stress axis : x y z
#
# Youngs Moduli (GPa) = 67.99907 88.83795 47.38019
#
# Poissons Ratio (x) = 0.18148 0.16347
# Poissons Ratio (y) = 0.13891 0.30016
# Poissons Ratio (z) = 0.23460 0.56280
#
# Static dielectric constant tensor:
#      x y z
#    x 1.661320 0.000000 0.000000 
#    y 0.000000 1.725410 0.000000 
#    z 0.000000 0.000000 1.653130 
# 
# From -- ./inp_files/54562.got.cif
#   From: 2010.05.17/outbox.cif.g08.bks.cpg/sg65_28_cif.got.tgz:54562.got - 2010.06.03 17:01:31.
