data_PCOD9492020
_publ_section_title
;
Structure prediction by ZEFSAII (Michael W. Deem and Ramdas Pophale) SiO2 
 PCOD9492020
Probable space group: C M M M
;
_chemical_formula_sum "Si O2"
_cell_formula_units_Z 58
_cell_length_a 14.504166
_cell_length_b 10.145034
_cell_length_c 22.050298
_cell_angle_alpha 90.000000
_cell_angle_beta 90.000000
_cell_angle_gamma 90.000000
_cell_volume 3244.596771
_symmetry_space_group_name_H-M "C M M M"
_symmetry_group_IT_number 65
_symmetry_cell_setting 'orthorhombic'
loop_
_space_group_symop_operation_xyz
x,y,z
-x,-y,z
x,-y,-z
-x,y,-z
-x,-y,-z
x,y,-z
-x,y,z
x,-y,z
1/2+x,1/2+y,z
1/2-x,1/2-y,z
1/2+x,1/2-y,-z
1/2-x,1/2+y,-z
1/2-x,1/2-y,-z
1/2+x,1/2+y,-z
1/2-x,1/2+y,z
1/2+x,1/2-y,z
loop_
_atom_site_type_symbol
_atom_site_label
_atom_site_fract_x
_atom_site_fract_y
_atom_site_fract_z
Si Si1 0.164034 0.151494 0.370805
Si Si2 0.335322 0.846998 0.931001
Si Si3 0.862697 0.753644 0.500000
Si Si4 0.500000 0.000000 0.500000
Si Si5 0.000000 0.846233 0.723705
Si Si6 0.000000 0.345348 0.162227
O O1 0.250000 0.250000 0.364588
O O2 0.117432 0.174875 0.436466
O O3 0.089311 0.175062 0.318526
O O4 0.195868 0.000000 0.367735
O O5 0.250000 0.750000 0.923270
O O6 0.412035 0.822308 0.880717
O O7 0.306141 0.000000 0.925888
O O8 0.371738 0.829865 0.000000
O O9 0.750000 0.750000 0.500000
O O10 0.918337 0.616531 0.500000
O O11 0.000000 0.749008 0.780274
O O12 0.000000 0.000000 0.742772
O O13 0.000000 0.500000 0.180185
#
# Coordination Sequence:
#
# PCOD9492020 Si02
#       6
#    16  16   8   2   8   8
#     4  10  22  40  63  88 119 154 196 252 306 362
#     4   9  18  34  57  84 113 143 183 233 286 342
#     4  10  23  38  65  95 126 154 207 254 318 385
#     4  12  24  40  62  98 128 172 194 252 322 386
#     4  10  23  41  55  80 116 155 199 239 289 350
#     4  10  21  37  56  80 110 153 195 233 281 344
#
# _framework density 17.875872999999999
#
# number of rings (size 3 to 8) (size 9 to 14) (size 15 to 20)
#    0.000    2.207    0.000    1.655    7.724    4.966 
#    2.483    8.276    0.000    4.138    0.000    0.000 
#    0.000    0.000    0.000    0.000    0.000    0.000 
#
# Total GULP energy -161496.192550 kJ/mol
# GULP energy per Si atom -5568.834226 kJ/mol
# Density = 1.783519 g / cm^3
# Si number density = 17.875873 Si / 1000 Ang^3
#
#
#
# Elastic Constant Matrix: (Units=GPa)
#
#
# Indices 1 2 3 4 5 6 
#
# 1 101.9740 90.2404 65.5704 0.0000 0.0000 0.0000
# 2 90.2404 141.2995 108.1439 0.0000 0.0000 0.0000
# 3 65.5704 108.1439 156.7307 0.0000 0.0000 0.0000
# 4 0.0000 0.0000 0.0000 21.1101 0.0000 0.0000
# 5 0.0000 0.0000 0.0000 0.0000 46.3581 0.0000
# 6 0.0000 0.0000 0.0000 0.0000 0.0000 35.0157
#
#
#
# Elastic Compliance Matrix: (Units=1/GPa)
#
#
# Indices 1 2 3 4 5 6 
#
# 1 0.022636 -0.015275 0.001070 0.000000 0.000000 0.000000
# 2 -0.015275 0.025305 -0.011070 0.000000 0.000000 0.000000
# 3 0.001070 -0.011070 0.013571 0.000000 0.000000 0.000000
# 4 0.000000 0.000000 0.000000 0.047371 0.000000 0.000000
# 5 0.000000 0.000000 0.000000 0.000000 0.021571 0.000000
# 6 0.000000 0.000000 0.000000 0.000000 0.000000 0.028559
#
#
# Mechanical properties :
#
#
# Convention : Reuss Voigt Hill
#
# Bulk Modulus (GPa) = 91.22815 103.10152 97.16483
# Shear Modulus (GPa) = 23.45033 29.56675 26.50854
#
# Velocity S-wave (km/s) = 3.62587 4.07136 3.85505
# Velocity P-wave (km/s) = 8.28699 8.93884 8.61908
#
# Compressibility (1/GPa) = 0.01096153
#
# Stress axis : x y z
#
# Youngs Moduli (GPa) = 44.17716 39.51813 73.68701
#
# Poissons Ratio (x) = 0.60365 -0.07883
# Poissons Ratio (y) = 0.67481 0.81569
# Poissons Ratio (z) = -0.04726 0.43745
#
# Static dielectric constant tensor:
#      x y z
#    x 1.595600 0.000000 0.000000 
#    y 0.000000 1.595720 0.000000 
#    z 0.000000 0.000000 1.608570 
# 
# From -- ./inp_files/62222.got.cif
#   From: 2010.05.17/outbox.cif.g08.bks.cpg/sg65_32_cif.got.tgz:62222.got - 2010.06.03 17:01:31.
