data_PCOD9492252
_publ_section_title
;
Structure prediction by ZEFSAII (Michael W. Deem and Ramdas Pophale) SiO2 
 PCOD9492252
Probable space group: C M M M
;
_chemical_formula_sum "Si O2"
_cell_formula_units_Z 80
_cell_length_a 13.760417
_cell_length_b 29.832941
_cell_length_c 9.210895
_cell_angle_alpha 90.000000
_cell_angle_beta 90.000000
_cell_angle_gamma 90.000000
_cell_volume 3781.198665
_symmetry_space_group_name_H-M "C M M M"
_symmetry_group_IT_number 65
_symmetry_cell_setting 'orthorhombic'
loop_
_space_group_symop_operation_xyz
x,y,z
-x,-y,z
x,-y,-z
-x,y,-z
-x,-y,-z
x,y,-z
-x,y,z
x,-y,z
1/2+x,1/2+y,z
1/2-x,1/2-y,z
1/2+x,1/2-y,-z
1/2-x,1/2+y,-z
1/2-x,1/2-y,-z
1/2+x,1/2+y,-z
1/2-x,1/2+y,z
1/2+x,1/2-y,z
loop_
_atom_site_type_symbol
_atom_site_label
_atom_site_fract_x
_atom_site_fract_y
_atom_site_fract_z
Si Si1 0.617217 0.133671 0.833812
Si Si2 0.385790 0.413794 0.172015
Si Si3 0.382059 0.676919 0.667115
Si Si4 0.881829 0.722754 0.669113
Si Si5 0.791630 0.549697 0.672889
O O1 0.500000 0.134802 0.833911
O O2 0.651219 0.180085 0.760513
O O3 0.649984 0.090186 0.745421
O O4 0.650696 0.130681 0.000000
O O5 0.500000 0.420678 0.202602
O O6 0.358132 0.363819 0.227068
O O7 0.316208 0.446289 0.260904
O O8 0.371343 0.418209 0.000000
O O9 0.350969 0.667982 0.500000
O O10 0.500000 0.678423 0.663747
O O11 0.350221 0.726959 0.711486
O O12 0.856661 0.716734 0.500000
O O13 0.000000 0.722873 0.677288
O O14 0.789162 0.555385 0.500000
O O15 0.831385 0.500000 0.705383
#
# Coordination Sequence:
#
# PCOD9492252 Si02
#       5
#    16  16  16  16  16
#     4  10  21  37  59  87 118 151 185 227 282 339
#     4  10  21  37  59  87 118 151 185 227 282 339
#     4   8  14  27  50  80 114 152 190 226 267 320
#     4   8  14  27  50  80 114 152 190 226 267 320
#     4  11  25  43  62  83 108 143 189 240 288 335
#
# _framework density 21.157312000000001
#
# number of rings (size 3 to 8) (size 9 to 14) (size 15 to 20)
#    0.000    2.600    0.000    3.000    0.000    5.600 
#    0.000    9.000    0.000    6.000    0.000    0.000 
#    0.000    0.000    0.000    0.000    0.000    0.000 
#
# Total GULP energy -223546.663908 kJ/mol
# GULP energy per Si atom -5588.666598 kJ/mol
# Density = 2.110916 g / cm^3
# Si number density = 21.157312 Si / 1000 Ang^3
#
#
#
# Elastic Constant Matrix: (Units=GPa)
#
#
# Indices 1 2 3 4 5 6 
#
# 1 49.9977 8.5546 3.9210 0.0000 0.0000 0.0000
# 2 8.5546 138.2554 70.3973 0.0000 0.0000 0.0000
# 3 3.9210 70.3973 94.1346 0.0000 0.0000 0.0000
# 4 0.0000 0.0000 0.0000 -81.1191 0.0000 0.0000
# 5 0.0000 0.0000 0.0000 0.0000 24.8185 0.0000
# 6 0.0000 0.0000 0.0000 0.0000 0.0000 28.0174
#
#
#
# Elastic Compliance Matrix: (Units=1/GPa)
#
#
# Indices 1 2 3 4 5 6 
#
# 1 0.020216 -0.001328 0.000151 0.000000 0.000000 0.000000
# 2 -0.001328 0.011768 -0.008745 0.000000 0.000000 0.000000
# 3 0.000151 -0.008745 0.017157 0.000000 0.000000 0.000000
# 4 0.000000 0.000000 0.000000 -0.012328 0.000000 0.000000
# 5 0.000000 0.000000 0.000000 0.000000 0.040292 0.000000
# 6 0.000000 0.000000 0.000000 0.000000 0.000000 0.035692
#
#
# Mechanical properties :
#
#
# Convention : Reuss Voigt Hill
#
# Bulk Modulus (GPa) = 34.13333 49.79261 41.96297
# Shear Modulus (GPa) = 35.11033 7.64437 21.37735
#
# Velocity S-wave (km/s) = 4.07810 1.90288 3.18213
# Velocity P-wave (km/s) = 6.19215 5.33043 5.77738
#
# Compressibility (1/GPa) = 0.02929688
#
# Stress axis : x y z
#
# Youngs Moduli (GPa) = 49.46516 84.97539 58.28563
#
# Poissons Ratio (x) = 0.11282 -0.00879
# Poissons Ratio (y) = 0.06567 0.50973
# Poissons Ratio (z) = -0.00746 0.74314
#
# Static dielectric constant tensor:
#      x y z
#    x 1.843720 0.000000 0.000000 
#    y 0.000000 1.748470 0.000000 
#    z 0.000000 0.000000 1.701920 
# 
# From -- ./inp_files/9601.got.cif
#   From: 2010.05.17/outbox.cif.g08.bks.cpg/sg65_5_cif.got.tgz:9601.got - 2010.06.03 17:01:31.
