data_PCOD9492120
_publ_section_title
;
Structure prediction by ZEFSAII (Michael W. Deem and Ramdas Pophale) SiO2 
 PCOD9492120
Probable space group: C M M M
;
_chemical_formula_sum "Si O2"
_cell_formula_units_Z 88
_cell_length_a 21.760887
_cell_length_b 8.918347
_cell_length_c 25.674775
_cell_angle_alpha 90.000000
_cell_angle_beta 90.000000
_cell_angle_gamma 90.000000
_cell_volume 4982.732887
_symmetry_space_group_name_H-M "C M M M"
_symmetry_group_IT_number 65
_symmetry_cell_setting 'orthorhombic'
loop_
_space_group_symop_operation_xyz
x,y,z
-x,-y,z
x,-y,-z
-x,y,-z
-x,-y,-z
x,y,-z
-x,y,z
x,-y,z
1/2+x,1/2+y,z
1/2-x,1/2-y,z
1/2+x,1/2-y,-z
1/2-x,1/2+y,-z
1/2-x,1/2-y,-z
1/2+x,1/2+y,-z
1/2-x,1/2+y,z
1/2+x,1/2-y,z
loop_
_atom_site_type_symbol
_atom_site_label
_atom_site_fract_x
_atom_site_fract_y
_atom_site_fract_z
Si Si1 0.572203 0.820255 0.216781
Si Si2 0.075065 0.673653 0.000000
Si Si3 0.815143 0.676438 0.500000
Si Si4 0.425866 0.670502 0.106419
Si Si5 0.000000 0.819487 0.561359
Si Si6 0.682535 0.680924 0.285163
Si Si7 0.629861 0.679595 0.398087
O O1 0.500000 0.776698 0.228278
O O2 0.585714 0.769120 0.157489
O O3 0.625259 0.744047 0.251504
O O4 0.575699 0.000000 0.221508
O O5 0.096063 0.755907 0.052613
O O6 0.093291 0.500000 0.000000
O O7 0.000000 0.676701 0.000000
O O8 0.813265 0.500000 0.500000
O O9 0.750000 0.750000 0.500000
O O10 0.844990 0.736395 0.447830
O O11 0.500000 0.663044 0.102192
O O12 0.403229 0.500000 0.112888
O O13 0.941697 0.780880 0.596702
O O14 0.000000 0.763639 0.500000
O O15 0.000000 0.000000 0.555824
O O16 0.685204 0.500000 0.279934
O O17 0.750000 0.750000 0.273036
O O18 0.664055 0.718791 0.344883
O O19 0.636229 0.500000 0.404914
#
# Coordination Sequence:
#
# PCOD9492120 Si02
#       7
#    16   8   8  16   8  16  16
#     4  10  21  37  57  82 115 151 188 235 290 343
#     4   9  15  23  39  67 106 149 188 229 284 339
#     4  12  24  37  56  79 107 140 178 222 273 330
#     4   9  16  27  45  72 107 146 190 235 280 334
#     4   9  16  32  60  86 112 142 174 211 262 329
#     4  11  24  40  61  84 112 147 191 238 283 339
#     4  10  21  38  60  84 111 143 180 222 271 329
#
# _framework density 17.660990999999999
#
# number of rings (size 3 to 8) (size 9 to 14) (size 15 to 20)
#    0.000    2.000    0.909    3.273    1.273    7.273 
#    0.000    0.909    0.000    0.000    0.000    0.636 
#    0.000    0.000    0.000    0.000    0.000    0.000 
#
# Total GULP energy -245164.215027 kJ/mol
# GULP energy per Si atom -5571.913978 kJ/mol
# Density = 1.762079 g / cm^3
# Si number density = 17.660991 Si / 1000 Ang^3
#
#
#
# Elastic Constant Matrix: (Units=GPa)
#
#
# Indices 1 2 3 4 5 6 
#
# 1 116.7467 48.2026 58.6196 0.0000 0.0000 0.0000
# 2 48.2026 61.2000 54.2727 0.0000 0.0000 0.0000
# 3 58.6196 54.2727 120.8244 0.0000 0.0000 0.0000
# 4 0.0000 0.0000 0.0000 35.2805 0.0000 0.0000
# 5 0.0000 0.0000 0.0000 0.0000 -14.0470 0.0000
# 6 0.0000 0.0000 0.0000 0.0000 0.0000 20.8230
#
#
#
# Elastic Compliance Matrix: (Units=1/GPa)
#
#
# Indices 1 2 3 4 5 6 
#
# 1 0.013278 -0.007887 -0.002899 0.000000 0.000000 0.000000
# 2 -0.007887 0.031843 -0.010477 0.000000 0.000000 0.000000
# 3 -0.002899 -0.010477 0.014389 0.000000 0.000000 0.000000
# 4 0.000000 0.000000 0.000000 0.028344 0.000000 0.000000
# 5 0.000000 0.000000 0.000000 0.000000 -0.071189 0.000000
# 6 0.000000 0.000000 0.000000 0.000000 0.000000 0.048024
#
#
# Mechanical properties :
#
#
# Convention : Reuss Voigt Hill
#
# Bulk Modulus (GPa) = 58.87996 68.99565 63.93780
# Shear Modulus (GPa) = 44.29685 17.58971 30.94328
#
# Velocity S-wave (km/s) = 5.01360 3.15931 4.19031
# Velocity P-wave (km/s) = 8.18085 7.24292 7.72613
#
# Compressibility (1/GPa) = 0.01698371
#
# Stress axis : x y z
#
# Youngs Moduli (GPa) = 75.31525 31.40441 69.49677
#
# Poissons Ratio (x) = 0.24768 0.20148
# Poissons Ratio (y) = 0.59399 0.72811
# Poissons Ratio (z) = 0.21835 0.32902
#
# Static dielectric constant tensor:
#      x y z
#    x 2.037160 0.000000 0.000000 
#    y 0.000000 1.596840 0.000000 
#    z 0.000000 0.000000 1.581070 
# 
# From -- ./inp_files/71059.got.cif
#   From: 2010.05.17/outbox.cif.g08.bks.cpg/sg65_36_cif.got.tgz:71059.got - 2010.06.03 17:01:31.
