data_PCOD9492618
_publ_section_title
;
Structure prediction by ZEFSAII (Michael W. Deem and Ramdas Pophale) SiO2 
 PCOD9492618
Probable space group: C M M M
;
_chemical_formula_sum "Si O2"
_cell_formula_units_Z 64
_cell_length_a 8.765712
_cell_length_b 16.460125
_cell_length_c 22.155145
_cell_angle_alpha 90.000000
_cell_angle_beta 90.000000
_cell_angle_gamma 90.000000
_cell_volume 3196.648787
_symmetry_space_group_name_H-M "C M M M"
_symmetry_group_IT_number 65
_symmetry_cell_setting 'orthorhombic'
loop_
_space_group_symop_operation_xyz
x,y,z
-x,-y,z
x,-y,-z
-x,y,-z
-x,-y,-z
x,y,-z
-x,y,z
x,-y,z
1/2+x,1/2+y,z
1/2-x,1/2-y,z
1/2+x,1/2-y,-z
1/2-x,1/2+y,-z
1/2-x,1/2-y,-z
1/2+x,1/2+y,-z
1/2-x,1/2+y,z
1/2+x,1/2-y,z
loop_
_atom_site_type_symbol
_atom_site_label
_atom_site_fract_x
_atom_site_fract_y
_atom_site_fract_z
Si Si1 0.320754 0.907099 0.755452
Si Si2 0.816264 0.663439 0.369977
Si Si3 0.178311 0.000000 0.427653
Si Si4 0.318169 0.337398 0.128150
Si Si5 0.814085 0.093722 0.000000
O O1 0.500000 0.892459 0.767233
O O2 0.271566 0.849929 0.700460
O O3 0.232352 0.894852 0.817473
O O4 0.304274 0.000000 0.734369
O O5 0.750000 0.750000 0.391290
O O6 0.755164 0.583201 0.403837
O O7 0.000000 0.664540 0.373603
O O8 0.187176 0.000000 0.500000
O O9 0.000000 0.000000 0.409415
O O10 0.500000 0.333743 0.126056
O O11 0.250000 0.250000 0.142144
O O12 0.262015 0.365194 0.062065
O O13 0.000000 0.096101 0.000000
O O14 0.768083 0.000000 0.000000
#
# Coordination Sequence:
#
# PCOD9492618 Si02
#       5
#    16  16   8  16   8
#     4  10  21  39  61  89 123 157 200 255 309 366
#     4  11  23  42  67  97 132 173 215 263 319 376
#     4  11  25  45  69  99 133 170 215 264 313 373
#     4  11  22  36  56  82 113 154 198 247 305 365
#     4   9  19  36  55  77 108 145 194 249 302 366
#
# _framework density 20.020968
#
# number of rings (size 3 to 8) (size 9 to 14) (size 15 to 20)
#    0.000    1.500    1.250    3.750    0.000    7.000 
#    0.000    1.875    0.000    4.500    0.000    0.000 
#    0.000    0.000    0.000    0.000    0.000    0.000 
#
# Total GULP energy -178773.605309 kJ/mol
# GULP energy per Si atom -5586.675166 kJ/mol
# Density = 1.997540 g / cm^3
# Si number density = 20.020968 Si / 1000 Ang^3
#
#
#
# Elastic Constant Matrix: (Units=GPa)
#
#
# Indices 1 2 3 4 5 6 
#
# 1 55.2217 41.4398 34.9992 0.0000 0.0000 0.0000
# 2 41.4398 118.3357 36.4250 0.0000 0.0000 0.0000
# 3 34.9992 36.4250 78.1372 0.0000 0.0000 0.0000
# 4 0.0000 0.0000 0.0000 20.0924 0.0000 0.0000
# 5 0.0000 0.0000 0.0000 0.0000 30.9221 0.0000
# 6 0.0000 0.0000 0.0000 0.0000 0.0000 27.8086
#
#
#
# Elastic Compliance Matrix: (Units=1/GPa)
#
#
# Indices 1 2 3 4 5 6 
#
# 1 0.030015 -0.007440 -0.009976 0.000000 0.000000 0.000000
# 2 -0.007440 0.011711 -0.002126 0.000000 0.000000 0.000000
# 3 -0.009976 -0.002126 0.018258 0.000000 0.000000 0.000000
# 4 0.000000 0.000000 0.000000 0.049770 0.000000 0.000000
# 5 0.000000 0.000000 0.000000 0.000000 0.032339 0.000000
# 6 0.000000 0.000000 0.000000 0.000000 0.000000 0.035960
#
#
# Mechanical properties :
#
#
# Convention : Reuss Voigt Hill
#
# Bulk Modulus (GPa) = 47.85143 53.04695 50.44919
# Shear Modulus (GPa) = 22.31113 25.02001 23.66557
#
# Velocity S-wave (km/s) = 3.34187 3.53893 3.44181
# Velocity P-wave (km/s) = 6.23244 6.57662 6.40684
#
# Compressibility (1/GPa) = 0.02089801
#
# Stress axis : x y z
#
# Youngs Moduli (GPa) = 33.31691 85.39317 54.77149
#
# Poissons Ratio (x) = 0.63534 0.54639
# Poissons Ratio (y) = 0.24788 0.11647
# Poissons Ratio (z) = 0.33237 0.18159
#
# Static dielectric constant tensor:
#      x y z
#    x 1.686530 0.000000 0.000000 
#    y 0.000000 1.706290 0.000000 
#    z 0.000000 0.000000 1.732190 
# 
# From -- ./inp_files/58777.got.cif
#   From: 2010.05.17/outbox.cif.g08.bks.cpg/sg65_30_cif.got.tgz:58777.got - 2010.06.03 17:01:31.
