data_PCOD9492810
_publ_section_title
;
Structure prediction by ZEFSAII (Michael W. Deem and Ramdas Pophale) SiO2 
 PCOD9492810
Probable space group: C M M M
;
_chemical_formula_sum "Si O2"
_cell_formula_units_Z 80
_cell_length_a 9.310665
_cell_length_b 21.324151
_cell_length_c 23.010434
_cell_angle_alpha 90.000000
_cell_angle_beta 90.000000
_cell_angle_gamma 90.000000
_cell_volume 4568.538194
_symmetry_space_group_name_H-M "C M M M"
_symmetry_group_IT_number 65
_symmetry_cell_setting 'orthorhombic'
loop_
_space_group_symop_operation_xyz
x,y,z
-x,-y,z
x,-y,-z
-x,y,-z
-x,-y,-z
x,y,-z
-x,y,z
x,-y,z
1/2+x,1/2+y,z
1/2-x,1/2-y,z
1/2+x,1/2-y,-z
1/2-x,1/2+y,-z
1/2-x,1/2-y,-z
1/2+x,1/2+y,-z
1/2-x,1/2+y,z
1/2+x,1/2-y,z
loop_
_atom_site_type_symbol
_atom_site_label
_atom_site_fract_x
_atom_site_fract_y
_atom_site_fract_z
Si Si1 0.171301 0.811781 0.183376
Si Si2 0.672592 0.427591 0.734272
Si Si3 0.166141 0.923399 0.500000
Si Si4 0.837759 0.500000 0.070298
Si Si5 0.664419 0.924048 0.614881
Si Si6 0.828025 0.873565 0.933250
O O1 0.250000 0.750000 0.205530
O O2 0.208925 0.875318 0.218004
O O3 0.207836 0.823070 0.115619
O O4 0.000000 0.803547 0.188024
O O5 0.500000 0.426389 0.725722
O O6 0.710387 0.500000 0.750106
O O7 0.751758 0.410603 0.674331
O O8 0.249205 0.902618 0.442024
O O9 0.000000 0.903871 0.500000
O O10 0.166566 0.000000 0.500000
O O11 0.750579 0.437612 0.084648
O O12 0.000000 0.500000 0.093430
O O13 0.846133 0.500000 0.000000
O O14 0.500000 0.901458 0.615637
O O15 0.659406 0.000000 0.611262
O O16 0.000000 0.883919 0.931655
O O17 0.789093 0.857695 0.000000
#
# Coordination Sequence:
#
# PCOD9492810 Si02
#       6
#    16  16   8   8  16  16
#     4  10  22  37  54  75 102 135 173 216 263 314
#     4   9  18  33  52  72  97 133 175 215 254 304
#     4   9  15  23  39  65 100 139 172 203 246 301
#     4   9  17  29  47  75 105 129 157 200 253 302
#     4   9  16  26  42  68 101 133 167 210 257 300
#     4   9  18  33  53  75 100 133 171 209 256 316
#
# _framework density 17.511071999999999
#
# number of rings (size 3 to 8) (size 9 to 14) (size 15 to 20)
#    0.000    2.800    0.000    1.200    1.400    6.800 
#    0.000    0.000    0.000    0.000    0.000    0.700 
#    0.000    0.000    0.000    0.000    0.000    0.000 
#
# Total GULP energy -222871.862188 kJ/mol
# GULP energy per Si atom -5571.796555 kJ/mol
# Density = 1.747122 g / cm^3
# Si number density = 17.511072 Si / 1000 Ang^3
#
#
#
# Elastic Constant Matrix: (Units=GPa)
#
#
# Indices 1 2 3 4 5 6 
#
# 1 48.3970 36.9427 50.9145 0.0000 0.0000 0.0000
# 2 36.9427 78.8044 54.2614 0.0000 0.0000 0.0000
# 3 50.9145 54.2614 114.1257 0.0000 0.0000 0.0000
# 4 0.0000 0.0000 0.0000 3.4856 0.0000 0.0000
# 5 0.0000 0.0000 0.0000 0.0000 14.9042 0.0000
# 6 0.0000 0.0000 0.0000 0.0000 0.0000 18.5815
#
#
#
# Elastic Compliance Matrix: (Units=1/GPa)
#
#
# Indices 1 2 3 4 5 6 
#
# 1 0.044203 -0.010620 -0.014671 0.000000 0.000000 0.000000
# 2 -0.010620 0.021418 -0.005445 0.000000 0.000000 0.000000
# 3 -0.014671 -0.005445 0.017896 0.000000 0.000000 0.000000
# 4 0.000000 0.000000 0.000000 0.286897 0.000000 0.000000
# 5 0.000000 0.000000 0.000000 0.000000 0.067095 0.000000
# 6 0.000000 0.000000 0.000000 0.000000 0.000000 0.053817
#
#
# Mechanical properties :
#
#
# Convention : Reuss Voigt Hill
#
# Bulk Modulus (GPa) = 45.36253 58.39604 51.87928
# Shear Modulus (GPa) = 8.92624 14.00816 11.46720
#
# Velocity S-wave (km/s) = 2.26021 2.83143 2.56179
# Velocity P-wave (km/s) = 5.72474 6.64152 6.20010
#
# Compressibility (1/GPa) = 0.02204463
#
# Stress axis : x y z
#
# Youngs Moduli (GPa) = 22.62288 46.69065 55.87805
#
# Poissons Ratio (x) = 0.49587 0.81977
# Poissons Ratio (y) = 0.24026 0.30426
# Poissons Ratio (z) = 0.33189 0.25423
#
# Static dielectric constant tensor:
#      x y z
#    x 1.595340 0.000000 0.000000 
#    y 0.000000 1.565550 0.000000 
#    z 0.000000 0.000000 1.604090 
# 
# From -- ./inp_files/67288.got.cif
#   From: 2010.05.17/outbox.cif.g08.bks.cpg/sg65_34_cif.got.tgz:67288.got - 2010.06.03 17:01:31.
