data_PCOD9492984
_publ_section_title
;
Structure prediction by ZEFSAII (Michael W. Deem and Ramdas Pophale) SiO2 
 PCOD9492984
Probable space group: C M M M
;
_chemical_formula_sum "Si O2"
_cell_formula_units_Z 104
_cell_length_a 14.598607
_cell_length_b 19.678038
_cell_length_c 21.033341
_cell_angle_alpha 90.000000
_cell_angle_beta 90.000000
_cell_angle_gamma 90.000000
_cell_volume 6042.288743
_symmetry_space_group_name_H-M "C M M M"
_symmetry_group_IT_number 65
_symmetry_cell_setting 'orthorhombic'
loop_
_space_group_symop_operation_xyz
x,y,z
-x,-y,z
x,-y,-z
-x,y,-z
-x,-y,-z
x,y,-z
-x,y,z
x,-y,z
1/2+x,1/2+y,z
1/2-x,1/2-y,z
1/2+x,1/2-y,-z
1/2-x,1/2+y,-z
1/2-x,1/2-y,-z
1/2+x,1/2+y,-z
1/2-x,1/2+y,z
1/2+x,1/2-y,z
loop_
_atom_site_type_symbol
_atom_site_label
_atom_site_fract_x
_atom_site_fract_y
_atom_site_fract_z
Si Si1 0.103621 0.369629 0.636778
Si Si2 0.609306 0.919438 0.000000
Si Si3 0.900482 0.000000 0.393304
Si Si4 0.222406 0.671958 0.242560
Si Si5 0.805601 0.500000 0.572494
Si Si6 0.110782 0.417868 0.858146
Si Si7 0.858831 0.761409 0.430295
Si Si8 0.600217 0.362559 0.314389
O O1 0.157356 0.334478 0.695134
O O2 0.158539 0.434148 0.610338
O O3 0.100427 0.312566 0.582451
O O4 0.000000 0.388775 0.655280
O O5 0.639425 0.896360 0.930137
O O6 0.500000 0.909866 0.000000
O O7 0.626113 0.000000 0.000000
O O8 0.898771 0.065340 0.348459
O O9 0.804678 0.000000 0.429913
O O10 0.000000 0.000000 0.426947
O O11 0.250000 0.750000 0.227047
O O12 0.169111 0.628017 0.189953
O O13 0.318925 0.640413 0.264013
O O14 0.841047 0.500000 0.500000
O O15 0.125772 0.500000 0.850185
O O16 0.000000 0.407965 0.850848
O O17 0.884699 0.788647 0.500000
O O18 0.750000 0.750000 0.429441
O O19 0.884356 0.809620 0.372071
O O20 0.500000 0.348907 0.286180
#
# Coordination Sequence:
#
# PCOD9492984 Si02
#       8
#    16   8   8  16   8  16  16  16
#     4  12  24  39  57  79 109 144 182 229 295 366
#     4   7  12  30  57  92 129 157 189 229 272 329
#     4  10  22  40  59  76  98 135 182 237 291 340
#     4  12  23  38  54  85 118 154 191 234 284 345
#     4  12  25  41  58  81 111 138 179 247 314 369
#     4   9  19  35  63  96 126 158 192 232 282 340
#     4  11  21  38  59  77  99 134 182 232 287 351
#     4  11  22  38  56  74 100 139 186 236 284 332
#
# _framework density 17.212021
#
# number of rings (size 3 to 8) (size 9 to 14) (size 15 to 20)
#    0.000    1.308    4.615    2.538    2.154    5.077 
#    0.000    1.923    0.000    0.000    0.000    0.538 
#    0.000    1.846    0.000    0.000    0.000    0.000 
#
# Total GULP energy -289967.280601 kJ/mol
# GULP energy per Si atom -5576.293858 kJ/mol
# Density = 1.717285 g / cm^3
# Si number density = 17.212021 Si / 1000 Ang^3
#
#
#
# Elastic Constant Matrix: (Units=GPa)
#
#
# Indices 1 2 3 4 5 6 
#
# 1 133.0810 34.9116 48.9392 0.0000 0.0000 0.0000
# 2 34.9116 109.3383 43.9540 0.0000 0.0000 0.0000
# 3 48.9392 43.9540 111.6805 0.0000 0.0000 0.0000
# 4 0.0000 0.0000 0.0000 29.1140 0.0000 0.0000
# 5 0.0000 0.0000 0.0000 0.0000 15.6938 0.0000
# 6 0.0000 0.0000 0.0000 0.0000 0.0000 27.7756
#
#
#
# Elastic Compliance Matrix: (Units=1/GPa)
#
#
# Indices 1 2 3 4 5 6 
#
# 1 0.009176 -0.001560 -0.003407 0.000000 0.000000 0.000000
# 2 -0.001560 0.011130 -0.003697 0.000000 0.000000 0.000000
# 3 -0.003407 -0.003697 0.011902 0.000000 0.000000 0.000000
# 4 0.000000 0.000000 0.000000 0.034348 0.000000 0.000000
# 5 0.000000 0.000000 0.000000 0.000000 0.063720 0.000000
# 6 0.000000 0.000000 0.000000 0.000000 0.000000 0.036003
#
#
# Mechanical properties :
#
#
# Convention : Reuss Voigt Hill
#
# Bulk Modulus (GPa) = 67.20275 67.74548 67.47412
# Shear Modulus (GPa) = 26.51571 29.60300 28.05936
#
# Velocity S-wave (km/s) = 3.92922 4.15167 4.04198
# Velocity P-wave (km/s) = 7.72748 7.90105 7.81475
#
# Compressibility (1/GPa) = 0.01488034
#
# Stress axis : x y z
#
# Youngs Moduli (GPa) = 108.97426 89.84518 84.01917
#
# Poissons Ratio (x) = 0.14019 0.28626
# Poissons Ratio (y) = 0.17004 0.31060
# Poissons Ratio (z) = 0.37128 0.33214
#
# Static dielectric constant tensor:
#      x y z
#    x 1.645190 0.000000 0.000000 
#    y 0.000000 2.175530 0.000000 
#    z 0.000000 0.000000 1.589380 
# 
# From -- ./inp_files/62916.got.cif
#   From: 2010.05.17/outbox.cif.g08.bks.cpg/sg65_32_cif.got.tgz:62916.got - 2010.06.03 17:01:31.
