data_PCOD9492726
_publ_section_title
;
Structure prediction by ZEFSAII (Michael W. Deem and Ramdas Pophale) SiO2 
 PCOD9492726
Probable space group: C M M M
;
_chemical_formula_sum "Si O2"
_cell_formula_units_Z 108
_cell_length_a 32.435296
_cell_length_b 14.860074
_cell_length_c 10.829764
_cell_angle_alpha 90.000000
_cell_angle_beta 90.000000
_cell_angle_gamma 90.000000
_cell_volume 5219.847684
_symmetry_space_group_name_H-M "C M M M"
_symmetry_group_IT_number 65
_symmetry_cell_setting 'orthorhombic'
loop_
_space_group_symop_operation_xyz
x,y,z
-x,-y,z
x,-y,-z
-x,y,-z
-x,-y,-z
x,y,-z
-x,y,z
x,-y,z
1/2+x,1/2+y,z
1/2-x,1/2-y,z
1/2+x,1/2-y,-z
1/2-x,1/2+y,-z
1/2-x,1/2-y,-z
1/2+x,1/2+y,-z
1/2-x,1/2+y,z
1/2+x,1/2-y,z
loop_
_atom_site_type_symbol
_atom_site_label
_atom_site_fract_x
_atom_site_fract_y
_atom_site_fract_z
Si Si1 0.049806 0.897489 0.000000
Si Si2 0.822508 0.643858 0.136682
Si Si3 0.190779 0.152334 0.797890
Si Si4 0.710694 0.500000 0.000000
Si Si5 0.080268 0.602044 0.855706
Si Si6 0.451599 0.284427 0.755644
Si Si7 0.262786 0.104283 0.639238
Si Si8 0.886580 0.101275 0.637522
O O1 0.060896 0.840734 0.120916
O O2 0.000000 0.903351 0.000000
O O3 0.066336 0.000000 0.000000
O O4 0.817189 0.751317 0.141130
O O5 0.870424 0.617888 0.148792
O O6 0.797638 0.609583 0.255108
O O7 0.808036 0.611239 0.000000
O O8 0.224338 0.160959 0.689264
O O9 0.148419 0.119277 0.737475
O O10 0.207632 0.079106 0.892873
O O11 0.071158 0.500000 0.816142
O O12 0.058360 0.680500 0.780295
O O13 0.068051 0.611011 0.000000
O O14 0.500000 0.297485 0.734235
O O15 0.422896 0.327260 0.652366
O O16 0.275982 0.129304 0.500000
O O17 0.249064 0.000000 0.634406
O O18 0.868493 0.107011 0.500000
O O19 0.903173 0.000000 0.654433
#
# Coordination Sequence:
#
# PCOD9492726 Si02
#       8
#     8  16  16   4  16  16  16  16
#     4   9  18  33  56  89 127 160 194 249 325 390
#     4  11  24  40  65  95 128 170 218 275 330 388
#     4  12  23  41  66  95 131 169 218 265 325 388
#     4  12  24  38  66 104 131 174 208 274 319 394
#     4  10  21  40  64  93 130 169 212 267 335 397
#     4  11  22  39  63  93 127 165 213 271 327 394
#     4  11  25  43  64  92 132 176 222 270 319 385
#     4  11  24  42  64  92 130 178 220 264 321 391
#
# _framework density 20.690258
#
# number of rings (size 3 to 8) (size 9 to 14) (size 15 to 20)
#    0.000    1.111    4.444    1.778    1.037    6.519 
#    1.333    1.481    0.000    0.444    0.000    1.037 
#    0.000    0.000    0.000    0.000    0.000    0.000 
#
# Total GULP energy -301366.174074 kJ/mol
# GULP energy per Si atom -5580.855075 kJ/mol
# Density = 2.064317 g / cm^3
# Si number density = 20.690258 Si / 1000 Ang^3
#
#
#
# Elastic Constant Matrix: (Units=GPa)
#
#
# Indices 1 2 3 4 5 6 
#
# 1 47.2474 -10.0237 21.7171 0.0000 0.0000 0.0000
# 2 -10.0237 116.7227 16.4829 0.0000 0.0000 0.0000
# 3 21.7171 16.4829 113.6721 0.0000 0.0000 0.0000
# 4 0.0000 0.0000 0.0000 24.2425 0.0000 0.0000
# 5 0.0000 0.0000 0.0000 0.0000 13.9095 0.0000
# 6 0.0000 0.0000 0.0000 0.0000 0.0000 18.5382
#
#
#
# Elastic Compliance Matrix: (Units=1/GPa)
#
#
# Indices 1 2 3 4 5 6 
#
# 1 0.024050 0.002771 -0.004996 0.000000 0.000000 0.000000
# 2 0.002771 0.009066 -0.001844 0.000000 0.000000 0.000000
# 3 -0.004996 -0.001844 0.010019 0.000000 0.000000 0.000000
# 4 0.000000 0.000000 0.000000 0.041250 0.000000 0.000000
# 5 0.000000 0.000000 0.000000 0.000000 0.071894 0.000000
# 6 0.000000 0.000000 0.000000 0.000000 0.000000 0.053943
#
#
# Mechanical properties :
#
#
# Convention : Reuss Voigt Hill
#
# Bulk Modulus (GPa) = 28.57519 37.11054 32.84286
# Shear Modulus (GPa) = 21.73677 27.96909 24.85293
#
# Velocity S-wave (km/s) = 3.24478 3.68067 3.46958
# Velocity P-wave (km/s) = 5.28006 6.00319 5.65320
#
# Compressibility (1/GPa) = 0.03499539
#
# Stress axis : x y z
#
# Youngs Moduli (GPa) = 41.58066 110.30643 99.80845
#
# Poissons Ratio (x) = -0.30564 0.49869
# Poissons Ratio (y) = -0.11521 0.18404
# Poissons Ratio (z) = 0.20776 0.20340
#
# Static dielectric constant tensor:
#      x y z
#    x 1.723070 0.000000 0.000000 
#    y 0.000000 1.746690 0.000000 
#    z 0.000000 0.000000 1.752540 
# 
# From -- ./inp_files/33995.got.cif
#   From: 2010.05.17/outbox.cif.g08.bks.cpg/sg65_17_cif.got.tgz:33995.got - 2010.06.03 17:01:31.
