data_PCOD9492003
_publ_section_title
;
Structure prediction by ZEFSAII (Michael W. Deem and Ramdas Pophale) SiO2 
 PCOD9492003
Probable space group: C M M M
;
_chemical_formula_sum "Si O2"
_cell_formula_units_Z 72
_cell_length_a 32.576524
_cell_length_b 8.077452
_cell_length_c 14.763067
_cell_angle_alpha 90.000000
_cell_angle_beta 90.000000
_cell_angle_gamma 90.000000
_cell_volume 3884.684196
_symmetry_space_group_name_H-M "C M M M"
_symmetry_group_IT_number 65
_symmetry_cell_setting 'orthorhombic'
loop_
_space_group_symop_operation_xyz
x,y,z
-x,-y,z
x,-y,-z
-x,y,-z
-x,-y,-z
x,y,-z
-x,y,z
x,-y,z
1/2+x,1/2+y,z
1/2-x,1/2-y,z
1/2+x,1/2-y,-z
1/2-x,1/2+y,-z
1/2-x,1/2-y,-z
1/2+x,1/2+y,-z
1/2-x,1/2+y,z
1/2+x,1/2-y,z
loop_
_atom_site_type_symbol
_atom_site_label
_atom_site_fract_x
_atom_site_fract_y
_atom_site_fract_z
Si Si1 0.205860 0.699268 0.603110
Si Si2 0.127519 0.698099 0.717720
Si Si3 0.046884 0.200219 0.393943
Si Si4 0.955763 0.500000 0.108708
Si Si5 0.599432 0.685970 0.895563
O O1 0.204165 0.763325 0.500000
O O2 0.204661 0.500000 0.600189
O O3 0.250000 0.750000 0.642363
O O4 0.165548 0.753705 0.656192
O O5 0.130044 0.500000 0.731253
O O6 0.084201 0.735579 0.667681
O O7 0.131083 0.788682 0.814477
O O8 0.053265 0.247200 0.500000
O O9 0.000000 0.251853 0.368817
O O10 0.047732 0.000000 0.389380
O O11 0.932538 0.330451 0.127696
O O12 0.000000 0.500000 0.152467
O O13 0.959378 0.500000 0.000000
O O14 0.582172 0.500000 0.890531
O O15 0.613410 0.710531 0.000000
#
# Coordination Sequence:
#
# PCOD9492003 Si02
#       5
#    16  16  16   8  16
#     4   9  19  35  55  82 114 145 180 226 279 336
#     4  11  21  34  55  81 110 146 187 230 281 342
#     4   9  19  35  52  73 105 144 186 229 270 321
#     4   9  18  34  54  76 105 141 185 237 288 334
#     4  10  21  37  56  79 108 145 190 237 287 340
#
# _framework density 18.534324999999999
#
# number of rings (size 3 to 8) (size 9 to 14) (size 15 to 20)
#    0.000    2.333    1.111    2.000    0.000    4.889 
#    0.000    5.556    0.000    0.667    0.000    0.000 
#    0.000    0.000    0.000    0.000    0.000    0.000 
#
# Total GULP energy -200602.204824 kJ/mol
# GULP energy per Si atom -5572.283467 kJ/mol
# Density = 1.849214 g / cm^3
# Si number density = 18.534325 Si / 1000 Ang^3
#
#
#
# Elastic Constant Matrix: (Units=GPa)
#
#
# Indices 1 2 3 4 5 6 
#
# 1 121.1302 23.8636 68.6699 0.0000 0.0000 0.0000
# 2 23.8636 65.9569 28.5491 0.0000 0.0000 0.0000
# 3 68.6699 28.5491 104.0550 0.0000 0.0000 0.0000
# 4 0.0000 0.0000 0.0000 27.0945 0.0000 0.0000
# 5 0.0000 0.0000 0.0000 0.0000 7.9007 0.0000
# 6 0.0000 0.0000 0.0000 0.0000 0.0000 3.4609
#
#
#
# Elastic Compliance Matrix: (Units=1/GPa)
#
#
# Indices 1 2 3 4 5 6 
#
# 1 0.013266 -0.001146 -0.008440 0.000000 0.000000 0.000000
# 2 -0.001146 0.017304 -0.003991 0.000000 0.000000 0.000000
# 3 -0.008440 -0.003991 0.016275 0.000000 0.000000 0.000000
# 4 0.000000 0.000000 0.000000 0.036908 0.000000 0.000000
# 5 0.000000 0.000000 0.000000 0.000000 0.126571 0.000000
# 6 0.000000 0.000000 0.000000 0.000000 0.000000 0.288943
#
#
# Mechanical properties :
#
#
# Convention : Reuss Voigt Hill
#
# Bulk Modulus (GPa) = 50.78765 59.25637 55.02201
# Shear Modulus (GPa) = 9.38111 19.02852 14.20481
#
# Velocity S-wave (km/s) = 2.25221 3.20764 2.77141
# Velocity P-wave (km/s) = 5.85019 6.76455 6.32392
#
# Compressibility (1/GPa) = 0.01968983
#
# Stress axis : x y z
#
# Youngs Moduli (GPa) = 75.37815 57.79121 61.44211
#
# Poissons Ratio (x) = 0.06626 0.51860
# Poissons Ratio (y) = 0.08642 0.24521
# Poissons Ratio (z) = 0.63623 0.23064
#
# Static dielectric constant tensor:
#      x y z
#    x 1.643670 0.000000 0.000000 
#    y 0.000000 1.805100 0.000000 
#    z 0.000000 0.000000 1.669640 
# 
# From -- ./inp_files/47467.got.cif
#   From: 2010.05.17/outbox.cif.g08.bks.cpg/sg65_24_cif.got.tgz:47467.got - 2010.06.03 17:01:31.
