data_PCOD9492309
_publ_section_title
;
Structure prediction by ZEFSAII (Michael W. Deem and Ramdas Pophale) SiO2 
 PCOD9492309
Probable space group: C M M M
;
_chemical_formula_sum "Si O2"
_cell_formula_units_Z 64
_cell_length_a 11.069121
_cell_length_b 27.526145
_cell_length_c 12.891696
_cell_angle_alpha 90.000000
_cell_angle_beta 90.000000
_cell_angle_gamma 90.000000
_cell_volume 3927.973815
_symmetry_space_group_name_H-M "C M M M"
_symmetry_group_IT_number 65
_symmetry_cell_setting 'orthorhombic'
loop_
_space_group_symop_operation_xyz
x,y,z
-x,-y,z
x,-y,-z
-x,y,-z
-x,-y,-z
x,y,-z
-x,y,z
x,-y,z
1/2+x,1/2+y,z
1/2-x,1/2-y,z
1/2+x,1/2-y,-z
1/2-x,1/2+y,-z
1/2-x,1/2-y,-z
1/2+x,1/2+y,-z
1/2-x,1/2+y,z
1/2+x,1/2-y,z
loop_
_atom_site_type_symbol
_atom_site_label
_atom_site_fract_x
_atom_site_fract_y
_atom_site_fract_z
Si Si1 0.643092 0.788906 0.125120
Si Si2 0.145193 0.944221 0.620630
Si Si3 0.266463 0.106265 0.193671
Si Si4 0.857092 0.055987 0.000000
Si Si5 0.000000 0.443000 0.881993
O O1 0.500000 0.778436 0.152927
O O2 0.750000 0.750000 0.149371
O O3 0.689274 0.839009 0.175411
O O4 0.643237 0.794628 0.000000
O O5 0.178061 0.937179 0.500000
O O6 0.204212 0.906020 0.697981
O O7 0.000000 0.941064 0.627974
O O8 0.177913 0.000000 0.650322
O O9 0.182924 0.086320 0.100376
O O10 0.384815 0.074117 0.179725
O O11 0.000000 0.051800 0.000000
O O12 0.806789 0.000000 0.000000
O O13 0.000000 0.500000 0.892007
O O14 0.000000 0.421643 0.000000
#
# Coordination Sequence:
#
# PCOD9492309 Si02
#       5
#    16  16  16   8   8
#     4  10  21  38  56  79 112 149 189 235 285 340
#     4   9  19  36  56  79 111 150 189 230 277 331
#     4  12  20  34  54  78 110 146 186 226 277 335
#     4  11  22  31  46  79 116 144 178 225 273 336
#     4  11  20  30  49  77 113 151 178 207 269 342
#
# _framework density 16.293388
#
# number of rings (size 3 to 8) (size 9 to 14) (size 15 to 20)
#    0.000    1.500    3.750    3.750    0.000    4.000 
#    0.000    0.625    0.000    3.000    0.000    0.000 
#    0.000    0.000    0.000    0.000    0.000    0.000 
#
# Total GULP energy -178367.782680 kJ/mol
# GULP energy per Si atom -5573.993209 kJ/mol
# Density = 1.625630 g / cm^3
# Si number density = 16.293388 Si / 1000 Ang^3
#
#
#
# Elastic Constant Matrix: (Units=GPa)
#
#
# Indices 1 2 3 4 5 6 
#
# 1 104.7662 58.8245 40.5824 0.0000 0.0000 0.0000
# 2 58.8245 107.9961 37.9321 0.0000 0.0000 0.0000
# 3 40.5824 37.9321 63.2833 0.0000 0.0000 0.0000
# 4 0.0000 0.0000 0.0000 57.2057 0.0000 0.0000
# 5 0.0000 0.0000 0.0000 0.0000 30.9989 0.0000
# 6 0.0000 0.0000 0.0000 0.0000 0.0000 42.1302
#
#
#
# Elastic Compliance Matrix: (Units=1/GPa)
#
#
# Indices 1 2 3 4 5 6 
#
# 1 0.015436 -0.006246 -0.006155 0.000000 0.000000 0.000000
# 2 -0.006246 0.014256 -0.004540 0.000000 0.000000 0.000000
# 3 -0.006155 -0.004540 0.022470 0.000000 0.000000 0.000000
# 4 0.000000 0.000000 0.000000 0.017481 0.000000 0.000000
# 5 0.000000 0.000000 0.000000 0.000000 0.032259 0.000000
# 6 0.000000 0.000000 0.000000 0.000000 0.000000 0.023736
#
#
# Mechanical properties :
#
#
# Convention : Reuss Voigt Hill
#
# Bulk Modulus (GPa) = 54.70171 61.19153 57.94662
# Shear Modulus (GPa) = 30.19055 35.31407 32.75231
#
# Velocity S-wave (km/s) = 4.30924 4.66057 4.48834
# Velocity P-wave (km/s) = 7.64233 8.16081 7.90582
#
# Compressibility (1/GPa) = 0.01828096
#
# Stress axis : x y z
#
# Youngs Moduli (GPa) = 64.78158 70.14417 44.50332
#
# Poissons Ratio (x) = 0.43814 0.27392
# Poissons Ratio (y) = 0.40464 0.20203
# Poissons Ratio (z) = 0.39874 0.31843
#
# Static dielectric constant tensor:
#      x y z
#    x 1.551580 0.000000 0.000000 
#    y 0.000000 1.553380 0.000000 
#    z 0.000000 0.000000 1.681740 
# 
# From -- ./inp_files/22246.got.cif
#   From: 2010.05.17/outbox.cif.g08.bks.cpg/sg65_12_cif.got.tgz:22246.got - 2010.06.03 17:01:31.
