data_PCOD9492116
_publ_section_title
;
Structure prediction by ZEFSAII (Michael W. Deem and Ramdas Pophale) SiO2 
 PCOD9492116
Probable space group: C M M M
;
_chemical_formula_sum "Si O2"
_cell_formula_units_Z 72
_cell_length_a 8.578899
_cell_length_b 18.540324
_cell_length_c 23.783178
_cell_angle_alpha 90.000000
_cell_angle_beta 90.000000
_cell_angle_gamma 90.000000
_cell_volume 3782.846862
_symmetry_space_group_name_H-M "C M M M"
_symmetry_group_IT_number 65
_symmetry_cell_setting 'orthorhombic'
loop_
_space_group_symop_operation_xyz
x,y,z
-x,-y,z
x,-y,-z
-x,y,-z
-x,-y,-z
x,y,-z
-x,y,z
x,-y,z
1/2+x,1/2+y,z
1/2-x,1/2-y,z
1/2+x,1/2-y,-z
1/2-x,1/2+y,-z
1/2-x,1/2-y,-z
1/2+x,1/2+y,-z
1/2-x,1/2+y,z
1/2+x,1/2-y,z
loop_
_atom_site_type_symbol
_atom_site_label
_atom_site_fract_x
_atom_site_fract_y
_atom_site_fract_z
Si Si1 0.188322 0.831230 0.000000
Si Si2 0.688732 0.416090 0.887656
Si Si3 0.811781 0.830536 0.563285
Si Si4 0.811154 0.916774 0.672901
Si Si5 0.185615 0.331013 0.220044
O O1 0.250000 0.750000 0.000000
O O2 0.237634 0.874112 0.944069
O O3 0.000000 0.829222 0.000000
O O4 0.500000 0.413773 0.884835
O O5 0.735067 0.500000 0.889640
O O6 0.755289 0.376650 0.833170
O O7 0.762215 0.851815 0.500000
O O8 0.750000 0.750000 0.574037
O O9 0.762008 0.883614 0.612956
O O10 0.000000 0.828355 0.563711
O O11 0.745328 0.869224 0.723392
O O12 0.000000 0.914304 0.675469
O O13 0.763191 0.000000 0.678487
O O14 0.250000 0.250000 0.216660
O O15 0.000000 0.328750 0.220101
#
# Coordination Sequence:
#
# PCOD9492116 Si02
#       5
#     8  16  16  16  16
#     4  10  21  37  59  87 117 152 191 230 274 326
#     4  10  21  39  62  87 117 151 187 229 279 333
#     4   9  18  33  54  80 109 143 184 228 274 327
#     4  10  21  37  57  82 113 148 185 228 280 334
#     4  12  25  40  59  83 112 147 189 234 280 332
#
# _framework density 19.033283999999998
#
# number of rings (size 3 to 8) (size 9 to 14) (size 15 to 20)
#    0.000    1.778    0.000    4.333    0.000   10.667 
#    0.000    2.222    0.000    2.000    0.000    4.667 
#    0.000    0.000    0.000    0.000    0.000    0.000 
#
# Total GULP energy -201195.581449 kJ/mol
# GULP energy per Si atom -5588.766151 kJ/mol
# Density = 1.898996 g / cm^3
# Si number density = 19.033284 Si / 1000 Ang^3
#
#
#
# Elastic Constant Matrix: (Units=GPa)
#
#
# Indices 1 2 3 4 5 6 
#
# 1 25.0893 41.7275 39.0145 0.0000 0.0000 0.0000
# 2 41.7275 196.3114 120.3824 0.0000 0.0000 0.0000
# 3 39.0145 120.3824 174.6878 0.0000 0.0000 0.0000
# 4 0.0000 0.0000 0.0000 173.7627 0.0000 0.0000
# 5 0.0000 0.0000 0.0000 0.0000 -1.6167 0.0000
# 6 0.0000 0.0000 0.0000 0.0000 0.0000 30.6163
#
#
#
# Elastic Compliance Matrix: (Units=1/GPa)
#
#
# Indices 1 2 3 4 5 6 
#
# 1 0.069287 -0.009072 -0.009223 0.000000 0.000000 0.000000
# 2 -0.009072 0.010010 -0.004872 0.000000 0.000000 0.000000
# 3 -0.009223 -0.004872 0.011142 0.000000 0.000000 0.000000
# 4 0.000000 0.000000 0.000000 0.005755 0.000000 0.000000
# 5 0.000000 0.000000 0.000000 0.000000 -0.618544 0.000000
# 6 0.000000 0.000000 0.000000 0.000000 0.000000 0.032662
#
#
# Mechanical properties :
#
#
# Convention : Reuss Voigt Hill
#
# Bulk Modulus (GPa) = 22.67288 88.70413 55.68851
# Shear Modulus (GPa) = -11.66446 53.55007 20.94281
#
# Velocity S-wave (km/s) = -2.47826 5.30999 3.32071
# Velocity P-wave (km/s) = 1.93625 9.18154 6.63512
#
# Compressibility (1/GPa) = 0.04410556
#
# Stress axis : x y z
#
# Youngs Moduli (GPa) = 14.43264 99.90154 89.75282
#
# Poissons Ratio (x) = 0.90630 0.82777
# Poissons Ratio (y) = 0.13093 0.43727
# Poissons Ratio (z) = 0.13311 0.48672
#
# Static dielectric constant tensor:
#      x y z
#    x 1.645220 0.000000 0.000000 
#    y 0.000000 1.622830 0.000000 
#    z 0.000000 0.000000 1.645740 
# 
# From -- ./inp_files/67124.got.cif
#   From: 2010.05.17/outbox.cif.g08.bks.cpg/sg65_34_cif.got.tgz:67124.got - 2010.06.03 17:01:31.
