data_PCOD9492836
_publ_section_title
;
Structure prediction by ZEFSAII (Michael W. Deem and Ramdas Pophale) SiO2 
 PCOD9492836
Probable space group: C M M M
;
_chemical_formula_sum "Si O2"
_cell_formula_units_Z 64
_cell_length_a 8.458524
_cell_length_b 22.205527
_cell_length_c 17.537965
_cell_angle_alpha 90.000000
_cell_angle_beta 90.000000
_cell_angle_gamma 90.000000
_cell_volume 3294.085517
_symmetry_space_group_name_H-M "C M M M"
_symmetry_group_IT_number 65
_symmetry_cell_setting 'orthorhombic'
loop_
_space_group_symop_operation_xyz
x,y,z
-x,-y,z
x,-y,-z
-x,y,-z
-x,-y,-z
x,y,-z
-x,y,z
x,-y,z
1/2+x,1/2+y,z
1/2-x,1/2-y,z
1/2+x,1/2-y,-z
1/2-x,1/2+y,-z
1/2-x,1/2-y,-z
1/2+x,1/2+y,-z
1/2-x,1/2+y,z
1/2+x,1/2-y,z
loop_
_atom_site_type_symbol
_atom_site_label
_atom_site_fract_x
_atom_site_fract_y
_atom_site_fract_z
Si Si1 0.807785 0.067281 0.910753
Si Si2 0.688359 0.000000 0.590178
Si Si3 0.811334 0.877042 0.347690
Si Si4 0.688357 0.816601 0.500000
Si Si5 0.191499 0.182146 0.189369
O O1 0.755500 0.127145 0.865854
O O2 0.000000 0.066970 0.906222
O O3 0.756351 0.000000 0.883349
O O4 0.765454 0.071933 0.000000
O O5 0.743986 0.056784 0.639119
O O6 0.500000 0.000000 0.584555
O O7 0.746452 0.000000 0.500000
O O8 0.757655 0.845219 0.424375
O O9 0.757445 0.839776 0.273757
O O10 0.000000 0.880887 0.343022
O O11 0.500000 0.822119 0.500000
O O12 0.750000 0.750000 0.500000
O O13 0.250000 0.250000 0.172555
O O14 0.000000 0.184103 0.186897
#
# Coordination Sequence:
#
# PCOD9492836 Si02
#       5
#    16   8  16   8  16
#     4   8  15  31  57  86 115 149 191 236 281 335
#     4  11  23  39  59  85 113 146 187 239 294 350
#     4  11  23  38  58  83 112 149 191 240 288 341
#     4  12  24  39  58  79 108 148 194 240 288 348
#     4  10  22  37  57  86 118 151 192 238 287 342
#
# _framework density 19.428761000000002
#
# number of rings (size 3 to 8) (size 9 to 14) (size 15 to 20)
#    0.000    1.875    1.250    3.750    1.750    5.000 
#    0.000    0.000    0.000    0.000    0.000    1.750 
#    0.000    0.000    0.000    0.000    0.000    0.000 
#
# Total GULP energy -178464.173284 kJ/mol
# GULP energy per Si atom -5577.005415 kJ/mol
# Density = 1.938454 g / cm^3
# Si number density = 19.428761 Si / 1000 Ang^3
#
#
#
# Elastic Constant Matrix: (Units=GPa)
#
#
# Indices 1 2 3 4 5 6 
#
# 1 24.7518 18.6025 10.8869 0.0000 0.0000 0.0000
# 2 18.6025 225.8482 87.2497 0.0000 0.0000 0.0000
# 3 10.8869 87.2497 101.1810 0.0000 0.0000 0.0000
# 4 0.0000 0.0000 0.0000 88.0618 0.0000 0.0000
# 5 0.0000 0.0000 0.0000 0.0000 -21.7366 0.0000
# 6 0.0000 0.0000 0.0000 0.0000 0.0000 36.1167
#
#
#
# Elastic Compliance Matrix: (Units=1/GPa)
#
#
# Indices 1 2 3 4 5 6 
#
# 1 0.043447 -0.002658 -0.002383 0.000000 0.000000 0.000000
# 2 -0.002658 0.006802 -0.005580 0.000000 0.000000 0.000000
# 3 -0.002383 -0.005580 0.014951 0.000000 0.000000 0.000000
# 4 0.000000 0.000000 0.000000 0.011356 0.000000 0.000000
# 5 0.000000 0.000000 0.000000 0.000000 -0.046005 0.000000
# 6 0.000000 0.000000 0.000000 0.000000 0.000000 0.027688
#
#
# Mechanical properties :
#
#
# Convention : Reuss Voigt Hill
#
# Bulk Modulus (GPa) = 22.74835 65.02879 43.88857
# Shear Modulus (GPa) = 53.11673 36.15784 44.63728
#
# Velocity S-wave (km/s) = 5.23436 4.31867 4.79841
# Velocity P-wave (km/s) = 6.94733 7.64270 7.30330
#
# Compressibility (1/GPa) = 0.04395924
#
# Stress axis : x y z
#
# Youngs Moduli (GPa) = 23.01665 147.01080 66.88497
#
# Poissons Ratio (x) = 0.39077 0.15936
# Poissons Ratio (y) = 0.06118 0.37319
# Poissons Ratio (z) = 0.05484 0.82027
#
# Static dielectric constant tensor:
#      x y z
#    x 1.669380 0.000000 0.000000 
#    y 0.000000 1.489490 0.000000 
#    z 0.000000 0.000000 1.660860 
# 
# From -- ./inp_files/36047.got.cif
#   From: 2010.05.17/outbox.cif.g08.bks.cpg/sg65_19_cif.got.tgz:36047.got - 2010.06.03 17:01:31.
