data_PCOD9492329
_publ_section_title
;
Structure prediction by ZEFSAII (Michael W. Deem and Ramdas Pophale) SiO2 
 PCOD9492329
Probable space group: C M M M
;
_chemical_formula_sum "Si O2"
_cell_formula_units_Z 104
_cell_length_a 29.282061
_cell_length_b 10.353567
_cell_length_c 19.133040
_cell_angle_alpha 90.000000
_cell_angle_beta 90.000000
_cell_angle_gamma 90.000000
_cell_volume 5800.636069
_symmetry_space_group_name_H-M "C M M M"
_symmetry_group_IT_number 65
_symmetry_cell_setting 'orthorhombic'
loop_
_space_group_symop_operation_xyz
x,y,z
-x,-y,z
x,-y,-z
-x,y,-z
-x,-y,-z
x,y,-z
-x,y,z
x,-y,z
1/2+x,1/2+y,z
1/2-x,1/2-y,z
1/2+x,1/2-y,-z
1/2-x,1/2+y,-z
1/2-x,1/2-y,-z
1/2+x,1/2+y,-z
1/2-x,1/2+y,z
1/2+x,1/2-y,z
loop_
_atom_site_type_symbol
_atom_site_label
_atom_site_fract_x
_atom_site_fract_y
_atom_site_fract_z
Si Si1 0.884125 0.760106 0.083168
Si Si2 0.877119 0.155998 0.578921
Si Si3 0.708650 0.348493 0.675179
Si Si4 0.207240 0.152927 0.839582
Si Si5 0.949369 0.000000 0.083721
Si Si6 0.945660 0.148205 0.697441
Si Si7 0.447193 0.857254 0.814987
O O1 0.835340 0.798106 0.114856
O O2 0.919163 0.876705 0.099553
O O3 0.910228 0.647029 0.123366
O O4 0.881012 0.742281 0.000000
O O5 0.877341 0.207538 0.500000
O O6 0.832368 0.188573 0.623789
O O7 0.920402 0.189171 0.626658
O O8 0.877311 0.000000 0.574050
O O9 0.720727 0.500000 0.663008
O O10 0.750000 0.250000 0.664307
O O11 0.695028 0.339152 0.757029
O O12 0.250000 0.250000 0.851001
O O13 0.217002 0.000000 0.854432
O O14 0.000000 0.000000 0.116239
O O15 0.954612 0.000000 0.000000
O O16 0.935086 0.248207 0.758739
O O17 0.000000 0.148089 0.687887
O O18 0.931393 0.000000 0.714905
O O19 0.500000 0.835071 0.839284
O O20 0.446347 0.000000 0.782560
#
# Coordination Sequence:
#
# PCOD9492329 Si02
#       7
#    16  16  16  16   8  16  16
#     4  11  22  36  56  81 110 144 184 230 285 341
#     4   9  17  30  51  81 114 143 172 215 272 324
#     4   9  18  33  53  75 101 138 179 222 268 319
#     4  10  21  38  58  80 108 145 190 237 282 334
#     4   9  18  32  52  80 110 138 173 221 278 334
#     4   9  18  33  55  81 107 141 185 226 264 318
#     4  10  22  38  56  80 111 147 185 230 284 338
#
# _framework density 17.929067
#
# number of rings (size 3 to 8) (size 9 to 14) (size 15 to 20)
#    0.000    2.385    0.769    1.385    1.077    4.000 
#    0.000    6.154    0.000    1.385    0.000    2.154 
#    0.000    0.000    0.000    0.000    0.000    0.000 
#
# Total GULP energy -289856.636604 kJ/mol
# GULP energy per Si atom -5574.166089 kJ/mol
# Density = 1.788826 g / cm^3
# Si number density = 17.929067 Si / 1000 Ang^3
#
#
#
# Elastic Constant Matrix: (Units=GPa)
#
#
# Indices 1 2 3 4 5 6 
#
# 1 93.1566 49.7196 77.1686 0.0000 0.0000 0.0000
# 2 49.7196 84.8511 52.9666 0.0000 0.0000 0.0000
# 3 77.1686 52.9666 124.1566 0.0000 0.0000 0.0000
# 4 0.0000 0.0000 0.0000 9.3671 0.0000 0.0000
# 5 0.0000 0.0000 0.0000 0.0000 17.9329 0.0000
# 6 0.0000 0.0000 0.0000 0.0000 0.0000 16.9959
#
#
#
# Elastic Compliance Matrix: (Units=1/GPa)
#
#
# Indices 1 2 3 4 5 6 
#
# 1 0.024594 -0.006636 -0.012455 0.000000 0.000000 0.000000
# 2 -0.006636 0.017854 -0.003492 0.000000 0.000000 0.000000
# 3 -0.012455 -0.003492 0.017285 0.000000 0.000000 0.000000
# 4 0.000000 0.000000 0.000000 0.106757 0.000000 0.000000
# 5 0.000000 0.000000 0.000000 0.000000 0.055764 0.000000
# 6 0.000000 0.000000 0.000000 0.000000 0.000000 0.058838
#
#
# Mechanical properties :
#
#
# Convention : Reuss Voigt Hill
#
# Bulk Modulus (GPa) = 68.65033 73.54156 71.09594
# Shear Modulus (GPa) = 15.10058 17.01314 16.05686
#
# Velocity S-wave (km/s) = 2.90529 3.08379 2.99587
# Velocity P-wave (km/s) = 7.04467 7.33395 7.19076
#
# Compressibility (1/GPa) = 0.01456657
#
# Stress axis : x y z
#
# Youngs Moduli (GPa) = 40.66019 56.01076 57.85236
#
# Poissons Ratio (x) = 0.37171 0.72056
# Poissons Ratio (y) = 0.26984 0.20201
# Poissons Ratio (z) = 0.50643 0.19558
#
# Static dielectric constant tensor:
#      x y z
#    x 1.604380 0.000000 0.000000 
#    y 0.000000 1.548700 0.000000 
#    z 0.000000 0.000000 1.613610 
# 
# From -- ./inp_files/66328.got.cif
#   From: 2010.05.17/outbox.cif.g08.bks.cpg/sg65_34_cif.got.tgz:66328.got - 2010.06.03 17:01:31.
