data_PCOD9492357
_publ_section_title
;
Structure prediction by ZEFSAII (Michael W. Deem and Ramdas Pophale) SiO2 
 PCOD9492357
Probable space group: C M M M
;
_chemical_formula_sum "Si O2"
_cell_formula_units_Z 88
_cell_length_a 8.849183
_cell_length_b 15.818376
_cell_length_c 30.182064
_cell_angle_alpha 90.000000
_cell_angle_beta 90.000000
_cell_angle_gamma 90.000000
_cell_volume 4224.876384
_symmetry_space_group_name_H-M "C M M M"
_symmetry_group_IT_number 65
_symmetry_cell_setting 'orthorhombic'
loop_
_space_group_symop_operation_xyz
x,y,z
-x,-y,z
x,-y,-z
-x,y,-z
-x,-y,-z
x,y,-z
-x,y,z
x,-y,z
1/2+x,1/2+y,z
1/2-x,1/2-y,z
1/2+x,1/2-y,-z
1/2-x,1/2+y,-z
1/2-x,1/2-y,-z
1/2+x,1/2+y,-z
1/2-x,1/2+y,z
1/2+x,1/2-y,z
loop_
_atom_site_type_symbol
_atom_site_label
_atom_site_fract_x
_atom_site_fract_y
_atom_site_fract_z
Si Si1 0.669525 0.600763 0.821879
Si Si2 0.670003 0.100898 0.910104
Si Si3 0.179700 0.656165 0.732610
Si Si4 0.682048 0.654470 0.643690
Si Si5 0.317684 0.655162 0.452367
Si Si6 0.179524 0.157459 0.000000
O O1 0.500000 0.635655 0.815622
O O2 0.656573 0.500000 0.827647
O O3 0.746307 0.635311 0.866520
O O4 0.768362 0.614952 0.778322
O O5 0.500000 0.135899 0.914017
O O6 0.760375 0.115271 0.955138
O O7 0.657811 0.000000 0.904275
O O8 0.250000 0.750000 0.734331
O O9 0.248552 0.614785 0.688031
O O10 0.000000 0.659533 0.729033
O O11 0.500000 0.657922 0.647850
O O12 0.750000 0.750000 0.642268
O O13 0.722339 0.615973 0.595455
O O14 0.273582 0.615674 0.500000
O O15 0.500000 0.661369 0.452138
O O16 0.250000 0.750000 0.452564
O O17 0.250000 0.250000 0.000000
O O18 0.000000 0.158936 0.000000
#
# Coordination Sequence:
#
# PCOD9492357 Si02
#       6
#    16  16  16  16  16   8
#     4  10  21  38  59  82 107 135 171 214 258 305
#     4  10  21  39  62  86 112 142 176 213 256 306
#     4  11  21  33  50  72 101 135 172 211 255 307
#     4   9  15  24  38  57  85 120 159 201 247 299
#     4   8  13  20  31  49  75 110 151 194 240 291
#     4  12  25  40  59  85 117 149 183 220 259 300
#
# _framework density 20.829011000000001
#
# number of rings (size 3 to 8) (size 9 to 14) (size 15 to 20)
#    0.000    2.182    0.000    5.455    0.000    4.727 
#    0.000    3.636    0.000    0.000    0.000    0.000 
#    0.000    0.727    0.000    8.364    0.000    5.455 
#
# Total GULP energy -245373.613291 kJ/mol
# GULP energy per Si atom -5576.673029 kJ/mol
# Density = 2.078160 g / cm^3
# Si number density = 20.829011 Si / 1000 Ang^3
#
#
#
# Elastic Constant Matrix: (Units=GPa)
#
#
# Indices 1 2 3 4 5 6 
#
# 1 156.2008 6.5967 87.0130 0.0000 0.0000 0.0000
# 2 6.5967 12.6669 5.6941 0.0000 0.0000 0.0000
# 3 87.0130 5.6941 232.1794 0.0000 0.0000 0.0000
# 4 0.0000 0.0000 0.0000 9.1075 0.0000 0.0000
# 5 0.0000 0.0000 0.0000 0.0000-8578.5025 0.0000
# 6 0.0000 0.0000 0.0000 0.0000 0.0000 13.9551
#
#
#
# Elastic Compliance Matrix: (Units=1/GPa)
#
#
# Indices 1 2 3 4 5 6 
#
# 1 0.008197 -0.002920 -0.003000 0.000000 0.000000 0.000000
# 2 -0.002920 0.080866 -0.000889 0.000000 0.000000 0.000000
# 3 -0.003000 -0.000889 0.005453 0.000000 0.000000 0.000000
# 4 0.000000 0.000000 0.000000 0.109799 0.000000 0.000000
# 5 0.000000 0.000000 0.000000 0.000000 -0.000117 0.000000
# 6 0.000000 0.000000 0.000000 0.000000 0.000000 0.071658
#
#
# Mechanical properties :
#
#
# Convention : Reuss Voigt Hill
#
# Bulk Modulus (GPa) = 12.36132 66.62831 39.49482
# Shear Modulus (GPa) = 15.80075 -1690.97174 -837.58549
#
# Velocity S-wave (km/s) = 2.75725 -28.52363 -20.07480
# Velocity P-wave (km/s) = 4.01050 32.44594 22.76680
#
# Compressibility (1/GPa) = 0.08089752
#
# Stress axis : x y z
#
# Youngs Moduli (GPa) = 122.00147 12.36616 183.37890
#
# Poissons Ratio (x) = 0.03611 0.55017
# Poissons Ratio (y) = 0.35624 0.16301
# Poissons Ratio (z) = 0.36603 0.01099
#
# Static dielectric constant tensor:
#      x y z
#    x 1.734070 0.000000 0.000000 
#    y 0.000000 1.761650 0.000000 
#    z 0.000000 0.000000 1.830820 
# 
# From -- ./inp_files/76503.got.cif
#   From: 2010.05.17/outbox.cif.g08.bks.cpg/sg65_39_cif.got.tgz:76503.got - 2010.06.03 17:01:31.
