data_PCOD9492004
_publ_section_title
;
Structure prediction by ZEFSAII (Michael W. Deem and Ramdas Pophale) SiO2 
 PCOD9492004
Probable space group: C M M M
;
_chemical_formula_sum "Si O2"
_cell_formula_units_Z 104
_cell_length_a 8.782129
_cell_length_b 21.140770
_cell_length_c 30.797407
_cell_angle_alpha 90.000000
_cell_angle_beta 90.000000
_cell_angle_gamma 90.000000
_cell_volume 5717.876436
_symmetry_space_group_name_H-M "C M M M"
_symmetry_group_IT_number 65
_symmetry_cell_setting 'orthorhombic'
loop_
_space_group_symop_operation_xyz
x,y,z
-x,-y,z
x,-y,-z
-x,y,-z
-x,-y,-z
x,y,-z
-x,y,z
x,-y,z
1/2+x,1/2+y,z
1/2-x,1/2-y,z
1/2+x,1/2-y,-z
1/2-x,1/2+y,-z
1/2-x,1/2-y,-z
1/2+x,1/2+y,-z
1/2-x,1/2+y,z
1/2+x,1/2-y,z
loop_
_atom_site_type_symbol
_atom_site_label
_atom_site_fract_x
_atom_site_fract_y
_atom_site_fract_z
Si Si1 0.826025 0.576604 0.207048
Si Si2 0.181821 0.866084 0.449683
Si Si3 0.685911 0.927539 0.303299
Si Si4 0.818069 0.314445 0.365569
Si Si5 0.171640 0.500000 0.552285
Si Si6 0.816947 0.927274 0.883968
Si Si7 0.816064 0.818116 0.949543
O O1 0.830480 0.500000 0.208138
O O2 0.765360 0.593503 0.254816
O O3 0.733366 0.593521 0.164213
O O4 0.000000 0.599345 0.202726
O O5 0.225837 0.854088 0.500000
O O6 0.260119 0.821718 0.414725
O O7 0.000000 0.862134 0.446825
O O8 0.238481 0.936516 0.437404
O O9 0.500000 0.928848 0.302385
O O10 0.732797 0.876099 0.338570
O O11 0.735321 0.000000 0.312065
O O12 0.750000 0.250000 0.346815
O O13 0.000000 0.312023 0.365040
O O14 0.158220 0.500000 0.500000
O O15 0.000000 0.500000 0.571070
O O16 0.764274 0.876172 0.919350
O O17 0.000000 0.929009 0.885648
O O18 0.762871 0.000000 0.891391
O O19 0.750000 0.750000 0.936106
O O20 0.000000 0.815062 0.947460
O O21 0.773246 0.828649 0.000000
#
# Coordination Sequence:
#
# PCOD9492004 Si02
#       7
#    16  16  16  16   8  16  16
#     4   8  14  28  51  76 101 129 164 205 251 305
#     4  10  21  37  56  79 109 141 174 216 262 306
#     4   8  16  33  57  81 101 129 172 214 252 302
#     4  11  23  38  57  79 108 140 174 216 262 314
#     4   9  17  31  53  81 109 137 171 209 251 299
#     4   9  17  29  47  73 102 128 160 206 256 303
#     4   9  18  32  48  66  93 132 173 211 252 298
#
# _framework density 18.188569999999999
#
# number of rings (size 3 to 8) (size 9 to 14) (size 15 to 20)
#    0.000    2.846    0.000    2.077    1.077    3.077 
#    0.000    3.846    0.000    5.538    0.000    4.308 
#    0.000    0.000    0.000    0.000    0.000    0.000 
#
# Total GULP energy -289785.301915 kJ/mol
# GULP energy per Si atom -5572.794268 kJ/mol
# Density = 1.814717 g / cm^3
# Si number density = 18.188570 Si / 1000 Ang^3
#
#
#
# Elastic Constant Matrix: (Units=GPa)
#
#
# Indices 1 2 3 4 5 6 
#
# 1 24.1472 23.0559 25.2568 0.0000 0.0000 0.0000
# 2 23.0559 115.3911 77.0821 0.0000 0.0000 0.0000
# 3 25.2568 77.0821 115.8404 0.0000 0.0000 0.0000
# 4 0.0000 0.0000 0.0000 7.3502 0.0000 0.0000
# 5 0.0000 0.0000 0.0000 0.0000 21.1868 0.0000
# 6 0.0000 0.0000 0.0000 0.0000 0.0000 25.2774
#
#
#
# Elastic Compliance Matrix: (Units=1/GPa)
#
#
# Indices 1 2 3 4 5 6 
#
# 1 0.055460 -0.005407 -0.008494 0.000000 0.000000 0.000000
# 2 -0.005407 0.016128 -0.009553 0.000000 0.000000 0.000000
# 3 -0.008494 -0.009553 0.016841 0.000000 0.000000 0.000000
# 4 0.000000 0.000000 0.000000 0.136051 0.000000 0.000000
# 5 0.000000 0.000000 0.000000 0.000000 0.047199 0.000000
# 6 0.000000 0.000000 0.000000 0.000000 0.000000 0.039561
#
#
# Mechanical properties :
#
#
# Convention : Reuss Voigt Hill
#
# Bulk Modulus (GPa) = 24.08428 56.24093 40.16260
# Shear Modulus (GPa) = 13.44128 19.42847 16.43488
#
# Velocity S-wave (km/s) = 2.72140 3.27183 3.00923
# Velocity P-wave (km/s) = 4.81091 6.72765 5.84834
#
# Compressibility (1/GPa) = 0.04152086
#
# Stress axis : x y z
#
# Youngs Moduli (GPa) = 18.03109 62.00414 59.37859
#
# Poissons Ratio (x) = 0.33528 0.50435
# Poissons Ratio (y) = 0.09750 0.56723
# Poissons Ratio (z) = 0.15315 0.59232
#
# Static dielectric constant tensor:
#      x y z
#    x 1.620470 0.000000 0.000000 
#    y 0.000000 1.500230 0.000000 
#    z 0.000000 0.000000 1.642430 
# 
# From -- ./inp_files/76897.got.cif
#   From: 2010.05.17/outbox.cif.g08.bks.cpg/sg65_39_cif.got.tgz:76897.got - 2010.06.03 17:01:31.
