data_PCOD9492214
_publ_section_title
;
Structure prediction by ZEFSAII (Michael W. Deem and Ramdas Pophale) SiO2 
 PCOD9492214
Probable space group: C M M M
;
_chemical_formula_sum "Si O2"
_cell_formula_units_Z 66
_cell_length_a 8.932477
_cell_length_b 16.684363
_cell_length_c 24.237294
_cell_angle_alpha 90.000000
_cell_angle_beta 90.000000
_cell_angle_gamma 90.000000
_cell_volume 3612.149093
_symmetry_space_group_name_H-M "C M M M"
_symmetry_group_IT_number 65
_symmetry_cell_setting 'orthorhombic'
loop_
_space_group_symop_operation_xyz
x,y,z
-x,-y,z
x,-y,-z
-x,y,-z
-x,-y,-z
x,y,-z
-x,y,z
x,-y,z
1/2+x,1/2+y,z
1/2-x,1/2-y,z
1/2+x,1/2-y,-z
1/2-x,1/2+y,-z
1/2-x,1/2-y,-z
1/2+x,1/2+y,-z
1/2-x,1/2+y,z
1/2+x,1/2-y,z
loop_
_atom_site_type_symbol
_atom_site_label
_atom_site_fract_x
_atom_site_fract_y
_atom_site_fract_z
Si Si1 0.677079 0.163842 0.000000
Si Si2 0.820683 0.661053 0.339480
Si Si3 0.666626 0.500000 0.385676
Si Si4 0.666763 0.593590 0.106646
Si Si5 0.000000 0.000000 0.500000
Si Si6 0.822259 0.663732 0.209578
O O1 0.750000 0.250000 0.000000
O O2 0.735419 0.124218 0.056083
O O3 0.500000 0.166417 0.000000
O O4 0.750000 0.750000 0.352337
O O5 0.750450 0.583111 0.369721
O O6 0.795426 0.645740 0.274076
O O7 0.000000 0.665226 0.349127
O O8 0.500000 0.500000 0.358078
O O9 0.628142 0.500000 0.450608
O O10 0.500000 0.631130 0.105912
O O11 0.651438 0.500000 0.098211
O O12 0.744076 0.607380 0.165410
O O13 0.750000 0.750000 0.198989
O O14 0.000000 0.665189 0.200910
#
# Coordination Sequence:
#
# PCOD9492214 Si02
#       6
#     8  16   8  16   2  16
#     4  12  25  42  63  81 105 151 197 248 311 366
#     4  10  21  38  64  98 131 172 217 266 324 383
#     4  10  21  41  67  89 135 167 215 262 315 371
#     4  11  24  40  58  83 117 151 197 247 304 368
#     4   8  24  44  66  96 132 174 222 262 320 368
#     4  10  21  37  58  87 123 156 198 250 302 367
#
# _framework density 18.271671000000001
#
# number of rings (size 3 to 8) (size 9 to 14) (size 15 to 20)
#    0.364    1.212    0.000    4.727    1.697    6.303 
#    0.000    1.818    0.000    0.000    0.000    0.000 
#    0.000    0.000    0.000    0.000    0.000    0.000 
#
# Total GULP energy -183763.264916 kJ/mol
# GULP energy per Si atom -5568.583785 kJ/mol
# Density = 1.823008 g / cm^3
# Si number density = 18.271671 Si / 1000 Ang^3
#
#
#
# Elastic Constant Matrix: (Units=GPa)
#
#
# Indices 1 2 3 4 5 6 
#
# 1 153.2903 75.0055 72.4509 0.0000 0.0000 0.0000
# 2 75.0055 127.5920 71.3538 0.0000 0.0000 0.0000
# 3 72.4509 71.3538 87.8179 0.0000 0.0000 0.0000
# 4 0.0000 0.0000 0.0000 7.6486 0.0000 0.0000
# 5 0.0000 0.0000 0.0000 0.0000 46.1367 0.0000
# 6 0.0000 0.0000 0.0000 0.0000 0.0000 27.5945
#
#
#
# Elastic Compliance Matrix: (Units=1/GPa)
#
#
# Indices 1 2 3 4 5 6 
#
# 1 0.011139 -0.002582 -0.007092 0.000000 0.000000 0.000000
# 2 -0.002582 0.014963 -0.010028 0.000000 0.000000 0.000000
# 3 -0.007092 -0.010028 0.025386 0.000000 0.000000 0.000000
# 4 0.000000 0.000000 0.000000 0.130743 0.000000 0.000000
# 5 0.000000 0.000000 0.000000 0.000000 0.021675 0.000000
# 6 0.000000 0.000000 0.000000 0.000000 0.000000 0.036239
#
#
# Mechanical properties :
#
#
# Convention : Reuss Voigt Hill
#
# Bulk Modulus (GPa) = 82.74863 89.59118 86.16991
# Shear Modulus (GPa) = 17.63202 26.26864 21.95033
#
# Velocity S-wave (km/s) = 3.10980 3.79578 3.46978
# Velocity P-wave (km/s) = 7.63418 8.26740 7.95709
#
# Compressibility (1/GPa) = 0.01208479
#
# Stress axis : x y z
#
# Youngs Moduli (GPa) = 89.77654 66.83080 39.39253
#
# Poissons Ratio (x) = 0.17256 0.27936
# Poissons Ratio (y) = 0.23181 0.39501
# Poissons Ratio (z) = 0.63666 0.67015
#
# Static dielectric constant tensor:
#      x y z
#    x 1.663800 0.000000 0.000000 
#    y 0.000000 1.642640 0.000000 
#    z 0.000000 0.000000 1.640060 
# 
# From -- ./inp_files/72434.got.cif
#   From: 2010.05.17/outbox.cif.g08.bks.cpg/sg65_37_cif.got.tgz:72434.got - 2010.06.03 17:01:31.
