data_PCOD9492732
_publ_section_title
;
Structure prediction by ZEFSAII (Michael W. Deem and Ramdas Pophale) SiO2 
 PCOD9492732
Probable space group: C M M M
;
_chemical_formula_sum "Si O2"
_cell_formula_units_Z 64
_cell_length_a 25.800647
_cell_length_b 8.338101
_cell_length_c 15.626173
_cell_angle_alpha 90.000000
_cell_angle_beta 90.000000
_cell_angle_gamma 90.000000
_cell_volume 3361.633604
_symmetry_space_group_name_H-M "C M M M"
_symmetry_group_IT_number 65
_symmetry_cell_setting 'orthorhombic'
loop_
_space_group_symop_operation_xyz
x,y,z
-x,-y,z
x,-y,-z
-x,y,-z
-x,-y,-z
x,y,-z
-x,y,z
x,-y,z
1/2+x,1/2+y,z
1/2-x,1/2-y,z
1/2+x,1/2-y,-z
1/2-x,1/2+y,-z
1/2-x,1/2-y,-z
1/2+x,1/2+y,-z
1/2-x,1/2+y,z
1/2+x,1/2-y,z
loop_
_atom_site_type_symbol
_atom_site_label
_atom_site_fract_x
_atom_site_fract_y
_atom_site_fract_z
Si Si1 0.938988 0.500000 0.402906
Si Si2 0.114812 0.811519 0.145930
Si Si3 0.690916 0.188339 0.000000
Si Si4 0.117564 0.189343 0.343674
Si Si5 0.692218 0.310420 0.500000
Si Si6 0.500000 0.689379 0.897120
O O1 0.917388 0.500000 0.500000
O O2 0.922879 0.667423 0.359277
O O3 0.000000 0.500000 0.407816
O O4 0.156740 0.739688 0.081887
O O5 0.132319 0.798915 0.244238
O O6 0.055683 0.745329 0.135262
O O7 0.111270 0.000000 0.123652
O O8 0.750000 0.250000 0.000000
O O9 0.694673 0.000000 0.000000
O O10 0.161681 0.230532 0.413033
O O11 0.101471 0.000000 0.357993
O O12 0.694436 0.500000 0.500000
O O13 0.750000 0.250000 0.500000
O O14 0.500000 0.500000 0.872828
O O15 0.500000 0.701683 0.000000
#
# Coordination Sequence:
#
# PCOD9492732 Si02
#       6
#     8  16   8  16   8   8
#     4  11  24  40  64  93 131 177 211 258 320 372
#     4  10  21  40  65  92 126 165 208 258 313 381
#     4  12  26  43  62  87 123 168 214 268 323 379
#     4  10  23  42  63  93 131 166 213 262 318 386
#     4  10  22  40  64  91 119 162 212 264 321 376
#     4   9  16  32  62  93 120 157 199 245 307 370
#
# _framework density 19.038364000000001
#
# number of rings (size 3 to 8) (size 9 to 14) (size 15 to 20)
#    0.000    1.750    2.500    1.125    5.250    1.500 
#    0.000    5.000    0.000    0.000    0.000    0.000 
#    0.000    0.000    0.000    0.000    0.000    0.000 
#
# Total GULP energy -178303.914136 kJ/mol
# GULP energy per Si atom -5571.997317 kJ/mol
# Density = 1.899503 g / cm^3
# Si number density = 19.038364 Si / 1000 Ang^3
#
#
#
# Elastic Constant Matrix: (Units=GPa)
#
#
# Indices 1 2 3 4 5 6 
#
# 1 160.2754 56.2893 80.4203 0.0000 0.0000 0.0000
# 2 56.2893 89.9458 56.6099 0.0000 0.0000 0.0000
# 3 80.4203 56.6099 117.7785 0.0000 0.0000 0.0000
# 4 0.0000 0.0000 0.0000 17.6186 0.0000 0.0000
# 5 0.0000 0.0000 0.0000 0.0000 3.3966 0.0000
# 6 0.0000 0.0000 0.0000 0.0000 0.0000 25.2666
#
#
#
# Elastic Compliance Matrix: (Units=1/GPa)
#
#
# Indices 1 2 3 4 5 6 
#
# 1 0.009960 -0.002800 -0.005455 0.000000 0.000000 0.000000
# 2 -0.002800 0.016727 -0.006128 0.000000 0.000000 0.000000
# 3 -0.005455 -0.006128 0.015161 0.000000 0.000000 0.000000
# 4 0.000000 0.000000 0.000000 0.056758 0.000000 0.000000
# 5 0.000000 0.000000 0.000000 0.000000 0.294409 0.000000
# 6 0.000000 0.000000 0.000000 0.000000 0.000000 0.039578
#
#
# Mechanical properties :
#
#
# Convention : Reuss Voigt Hill
#
# Bulk Modulus (GPa) = 76.44214 83.84876 80.14545
# Shear Modulus (GPa) = 10.73612 20.90171 15.81891
#
# Velocity S-wave (km/s) = 2.37728 3.31701 2.88566
# Velocity P-wave (km/s) = 6.91188 7.66862 7.30006
#
# Compressibility (1/GPa) = 0.01308179
#
# Stress axis : x y z
#
# Youngs Moduli (GPa) = 100.40625 59.78461 65.96085
#
# Poissons Ratio (x) = 0.16738 0.35980
# Poissons Ratio (y) = 0.28111 0.40421
# Poissons Ratio (z) = 0.54770 0.36636
#
# Static dielectric constant tensor:
#      x y z
#    x 1.648670 0.000000 0.000000 
#    y 0.000000 1.770870 0.000000 
#    z 0.000000 0.000000 1.678860 
# 
# From -- ./inp_files/45140.got.cif
#   From: 2010.05.17/outbox.cif.g08.bks.cpg/sg65_23_cif.got.tgz:45140.got - 2010.06.03 17:01:31.
