data_PCOD9492422
_publ_section_title
;
Structure prediction by ZEFSAII (Michael W. Deem and Ramdas Pophale) SiO2 
 PCOD9492422
Probable space group: C M M M
;
_chemical_formula_sum "Si O2"
_cell_formula_units_Z 72
_cell_length_a 18.187192
_cell_length_b 24.297484
_cell_length_c 8.781219
_cell_angle_alpha 90.000000
_cell_angle_beta 90.000000
_cell_angle_gamma 90.000000
_cell_volume 3880.447078
_symmetry_space_group_name_H-M "C M M M"
_symmetry_group_IT_number 65
_symmetry_cell_setting 'orthorhombic'
loop_
_space_group_symop_operation_xyz
x,y,z
-x,-y,z
x,-y,-z
-x,y,-z
-x,-y,-z
x,y,-z
-x,y,z
x,-y,z
1/2+x,1/2+y,z
1/2-x,1/2-y,z
1/2+x,1/2-y,-z
1/2-x,1/2+y,-z
1/2-x,1/2-y,-z
1/2+x,1/2+y,-z
1/2-x,1/2+y,z
1/2+x,1/2-y,z
loop_
_atom_site_type_symbol
_atom_site_label
_atom_site_fract_x
_atom_site_fract_y
_atom_site_fract_z
Si Si1 0.084143 0.648346 0.683833
Si Si2 0.664051 0.254222 0.183162
Si Si3 0.289726 0.936048 0.684245
Si Si4 0.500000 0.434306 0.678095
Si Si5 0.143807 0.879880 0.182530
O O1 0.084085 0.649289 0.500000
O O2 0.117543 0.705644 0.742566
O O3 0.138932 0.599232 0.731604
O O4 0.000000 0.640989 0.735381
O O5 0.750000 0.250000 0.225826
O O6 0.638851 0.315507 0.225509
O O7 0.659307 0.248528 0.000000
O O8 0.285492 0.934636 0.500000
O O9 0.217282 0.907018 0.749941
O O10 0.293628 0.000000 0.730715
O O11 0.500000 0.500000 0.689835
O O12 0.500000 0.419304 0.500000
O O13 0.427404 0.410835 0.756470
O O14 0.147481 0.882947 0.000000
#
# Coordination Sequence:
#
# PCOD9492422 Si02
#       5
#    16  16  16   8  16
#     4  10  22  38  58  88 120 153 196 242 290 345
#     4  10  21  39  60  84 115 150 189 235 292 348
#     4  10  21  38  60  85 116 155 196 240 293 349
#     4  11  25  43  61  85 121 159 194 239 294 349
#     4  11  23  39  61  88 117 153 197 243 292 348
#
# _framework density 18.554563000000002
#
# number of rings (size 3 to 8) (size 9 to 14) (size 15 to 20)
#    0.000    1.667    2.222    1.667    1.556    7.111 
#    0.000    2.222    0.000    0.000    0.000    3.111 
#    0.000    0.000    0.000    0.000    0.000    0.000 
#
# Total GULP energy -201146.307449 kJ/mol
# GULP energy per Si atom -5587.397429 kJ/mol
# Density = 1.851233 g / cm^3
# Si number density = 18.554563 Si / 1000 Ang^3
#
#
#
# Elastic Constant Matrix: (Units=GPa)
#
#
# Indices 1 2 3 4 5 6 
#
# 1 173.4688 85.3651 32.5523 0.0000 0.0000 0.0000
# 2 85.3651 155.9148 41.3306 0.0000 0.0000 0.0000
# 3 32.5523 41.3306 19.3148 0.0000 0.0000 0.0000
# 4 0.0000 0.0000 0.0000 10.6411 0.0000 0.0000
# 5 0.0000 0.0000 0.0000 0.0000 -21.1539 0.0000
# 6 0.0000 0.0000 0.0000 0.0000 0.0000 28.7969
#
#
#
# Elastic Compliance Matrix: (Units=1/GPa)
#
#
# Indices 1 2 3 4 5 6 
#
# 1 0.008699 -0.002025 -0.010328 0.000000 0.000000 0.000000
# 2 -0.002025 0.015292 -0.029309 0.000000 0.000000 0.000000
# 3 -0.010328 -0.029309 0.131896 0.000000 0.000000 0.000000
# 4 0.000000 0.000000 0.000000 0.093975 0.000000 0.000000
# 5 0.000000 0.000000 0.000000 0.000000 -0.047273 0.000000
# 6 0.000000 0.000000 0.000000 0.000000 0.000000 0.034726
#
#
# Mechanical properties :
#
#
# Convention : Reuss Voigt Hill
#
# Bulk Modulus (GPa) = 13.78104 74.13271 43.95688
# Shear Modulus (GPa) = 14.49995 16.28686 15.39341
#
# Velocity S-wave (km/s) = 2.79852 2.96595 2.88345
# Velocity P-wave (km/s) = 4.22915 7.19512 5.90151
#
# Compressibility (1/GPa) = 0.07256345
#
# Stress axis : x y z
#
# Youngs Moduli (GPa) = 114.94957 65.39367 7.58171
#
# Poissons Ratio (x) = 0.13244 0.07830
# Poissons Ratio (y) = 0.23281 0.22221
# Poissons Ratio (z) = 1.18718 1.91663
#
# Static dielectric constant tensor:
#      x y z
#    x 1.609690 0.000000 0.000000 
#    y 0.000000 1.621930 0.000000 
#    z 0.000000 0.000000 1.627160 
# 
# From -- ./inp_files/7234.got.cif
#   From: 2010.05.17/outbox.cif.g08.bks.cpg/sg65_4_cif.got.tgz:7234.got - 2010.06.03 17:01:31.
