data_PCOD9492286
_publ_section_title
;
Structure prediction by ZEFSAII (Michael W. Deem and Ramdas Pophale) SiO2 
 PCOD9492286
Probable space group: C M M M
;
_chemical_formula_sum "Si O2"
_cell_formula_units_Z 96
_cell_length_a 22.205575
_cell_length_b 14.541983
_cell_length_c 15.024838
_cell_angle_alpha 90.000000
_cell_angle_beta 90.000000
_cell_angle_gamma 90.000000
_cell_volume 4851.716928
_symmetry_space_group_name_H-M "C M M M"
_symmetry_group_IT_number 65
_symmetry_cell_setting 'orthorhombic'
loop_
_space_group_symop_operation_xyz
x,y,z
-x,-y,z
x,-y,-z
-x,y,-z
-x,-y,-z
x,y,-z
-x,y,z
x,-y,z
1/2+x,1/2+y,z
1/2-x,1/2-y,z
1/2+x,1/2-y,-z
1/2-x,1/2+y,-z
1/2-x,1/2-y,-z
1/2+x,1/2+y,-z
1/2-x,1/2+y,z
1/2+x,1/2-y,z
loop_
_atom_site_type_symbol
_atom_site_label
_atom_site_fract_x
_atom_site_fract_y
_atom_site_fract_z
Si Si1 0.431930 0.247024 0.355869
Si Si2 0.829671 0.602342 0.896358
Si Si3 0.927240 0.896470 0.500000
Si Si4 0.386100 0.715706 0.826600
Si Si5 0.274362 0.605736 0.248325
Si Si6 0.176738 0.609403 0.395826
Si Si7 0.072324 0.106179 0.000000
O O1 0.500000 0.220666 0.384236
O O2 0.411756 0.334771 0.414618
O O3 0.432957 0.275503 0.253083
O O4 0.382323 0.167739 0.369886
O O5 0.856162 0.500000 0.885127
O O6 0.872063 0.683322 0.863718
O O7 0.770544 0.606260 0.835877
O O8 0.814760 0.615112 0.000000
O O9 0.000000 0.904089 0.500000
O O10 0.902207 0.000000 0.500000
O O11 0.327857 0.673041 0.777429
O O12 0.403994 0.654193 0.910531
O O13 0.295511 0.500000 0.261550
O O14 0.233393 0.632871 0.332867
O O15 0.189785 0.624809 0.500000
O O16 0.165583 0.500000 0.382365
O O17 0.000000 0.111252 0.000000
O O18 0.091192 0.000000 0.000000
#
# Coordination Sequence:
#
# PCOD9492286 Si02
#       7
#    16  16   8  16  16  16   8
#     4  11  23  39  62  93 125 164 216 264 316 383
#     4  10  21  37  60  91 127 162 202 257 318 377
#     4   9  20  40  61  82 115 159 210 266 314 365
#     4  12  23  40  66  93 124 172 215 260 320 380
#     4  10  22  39  61  95 129 161 208 261 319 386
#     4  10  21  40  65  93 130 168 205 261 325 382
#     4  11  26  46  66  95 133 169 215 273 323 374
#
# _framework density 19.786809000000002
#
# number of rings (size 3 to 8) (size 9 to 14) (size 15 to 20)
#    0.000    1.500    3.333    1.500    1.167    2.333 
#    1.500    3.333    0.000    2.000    0.000    0.000 
#    0.000    0.000    0.000    0.000    0.000    0.000 
#
# Total GULP energy -268146.677829 kJ/mol
# GULP energy per Si atom -5586.389121 kJ/mol
# Density = 1.974177 g / cm^3
# Si number density = 19.786809 Si / 1000 Ang^3
#
#
#
# Elastic Constant Matrix: (Units=GPa)
#
#
# Indices 1 2 3 4 5 6 
#
# 1 67.9676 56.6187 58.0765 0.0000 0.0000 0.0000
# 2 56.6187 122.8887 62.1781 0.0000 0.0000 0.0000
# 3 58.0765 62.1781 154.8106 0.0000 0.0000 0.0000
# 4 0.0000 0.0000 0.0000 23.8925 0.0000 0.0000
# 5 0.0000 0.0000 0.0000 0.0000 12.6482 0.0000
# 6 0.0000 0.0000 0.0000 0.0000 0.0000 14.2330
#
#
#
# Elastic Compliance Matrix: (Units=1/GPa)
#
#
# Indices 1 2 3 4 5 6 
#
# 1 0.028686 -0.009754 -0.006844 0.000000 0.000000 0.000000
# 2 -0.009754 0.013529 -0.001775 0.000000 0.000000 0.000000
# 3 -0.006844 -0.001775 0.009740 0.000000 0.000000 0.000000
# 4 0.000000 0.000000 0.000000 0.041854 0.000000 0.000000
# 5 0.000000 0.000000 0.000000 0.000000 0.079062 0.000000
# 6 0.000000 0.000000 0.000000 0.000000 0.000000 0.070259
#
#
# Mechanical properties :
#
#
# Convention : Reuss Voigt Hill
#
# Bulk Modulus (GPa) = 65.74574 77.71261 71.72918
# Shear Modulus (GPa) = 17.54720 21.40766 19.47743
#
# Velocity S-wave (km/s) = 2.98117 3.29282 3.14086
# Velocity P-wave (km/s) = 6.71930 7.33601 7.03442
#
# Compressibility (1/GPa) = 0.01521011
#
# Stress axis : x y z
#
# Youngs Moduli (GPa) = 34.86040 73.91378 102.67128
#
# Poissons Ratio (x) = 0.72093 0.70267
# Poissons Ratio (y) = 0.34002 0.18223
# Poissons Ratio (z) = 0.23858 0.13119
#
# Static dielectric constant tensor:
#      x y z
#    x 1.676020 0.000000 0.000000 
#    y 0.000000 1.707380 0.000000 
#    z 0.000000 0.000000 1.699000 
# 
# From -- ./inp_files/45665.got.cif
#   From: 2010.05.17/outbox.cif.g08.bks.cpg/sg65_23_cif.got.tgz:45665.got - 2010.06.03 17:01:31.
