data_PCOD9492188
_publ_section_title
;
Structure prediction by ZEFSAII (Michael W. Deem and Ramdas Pophale) SiO2 
 PCOD9492188
Probable space group: C M M M
;
_chemical_formula_sum "Si O2"
_cell_formula_units_Z 64
_cell_length_a 7.845787
_cell_length_b 15.153207
_cell_length_c 28.627336
_cell_angle_alpha 90.000000
_cell_angle_beta 90.000000
_cell_angle_gamma 90.000000
_cell_volume 3403.470612
_symmetry_space_group_name_H-M "C M M M"
_symmetry_group_IT_number 65
_symmetry_cell_setting 'orthorhombic'
loop_
_space_group_symop_operation_xyz
x,y,z
-x,-y,z
x,-y,-z
-x,y,-z
-x,-y,-z
x,y,-z
-x,y,z
x,-y,z
1/2+x,1/2+y,z
1/2-x,1/2-y,z
1/2+x,1/2-y,-z
1/2-x,1/2+y,-z
1/2-x,1/2-y,-z
1/2+x,1/2+y,-z
1/2-x,1/2+y,z
1/2+x,1/2-y,z
loop_
_atom_site_type_symbol
_atom_site_label
_atom_site_fract_x
_atom_site_fract_y
_atom_site_fract_z
Si Si1 0.500000 0.605950 0.553346
Si Si2 0.201605 0.852804 0.126714
Si Si3 0.203695 0.000000 0.196473
Si Si4 0.703576 0.000000 0.947133
Si Si5 0.703683 0.000000 0.304071
Si Si6 0.795764 0.652502 0.624363
O O1 0.500000 0.500000 0.553150
O O2 0.500000 0.638258 0.500000
O O3 0.670939 0.635387 0.580531
O O4 0.250000 0.750000 0.124783
O O5 0.244101 0.912482 0.081493
O O6 0.000000 0.852062 0.131316
O O7 0.271747 0.912267 0.169954
O O8 0.233638 0.000000 0.251398
O O9 0.000000 0.000000 0.189713
O O10 0.500000 0.000000 0.948930
O O11 0.771136 0.000000 0.000000
O O12 0.752863 0.915997 0.335171
O O13 0.500000 0.000000 0.301510
O O14 0.750000 0.750000 0.640904
O O15 0.000000 0.644334 0.614262
#
# Coordination Sequence:
#
# PCOD9492188 Si02
#       6
#     8  16   8   8   8  16
#     4  11  24  42  66  91 119 163 201 242 304 355
#     4  10  21  38  58  85 118 154 196 244 296 348
#     4   9  21  37  58  84 112 153 194 241 295 351
#     4  10  21  37  58  85 115 155 200 243 298 351
#     4  10  23  39  60  87 118 154 197 242 295 352
#     4  11  23  41  62  90 123 158 200 247 297 357
#
# _framework density 18.804334999999998
#
# number of rings (size 3 to 8) (size 9 to 14) (size 15 to 20)
#    0.000    1.750    2.500    1.875    1.750    6.500 
#    0.000    6.250    0.000    0.000    0.000    0.000 
#    0.000    0.000    0.000    0.000    0.000    0.000 
#
# Total GULP energy -178449.383141 kJ/mol
# GULP energy per Si atom -5576.543223 kJ/mol
# Density = 1.876154 g / cm^3
# Si number density = 18.804335 Si / 1000 Ang^3
#
#
#
# Elastic Constant Matrix: (Units=GPa)
#
#
# Indices 1 2 3 4 5 6 
#
# 1 76.9856 40.3907 45.2434 0.0000 0.0000 0.0000
# 2 40.3907 198.1722 103.2965 0.0000 0.0000 0.0000
# 3 45.2434 103.2965 178.1405 0.0000 0.0000 0.0000
# 4 0.0000 0.0000 0.0000 54.0693 0.0000 0.0000
# 5 0.0000 0.0000 0.0000 0.0000 15.2651 0.0000
# 6 0.0000 0.0000 0.0000 0.0000 0.0000 24.7758
#
#
#
# Elastic Compliance Matrix: (Units=1/GPa)
#
#
# Indices 1 2 3 4 5 6 
#
# 1 0.015614 -0.001598 -0.003039 0.000000 0.000000 0.000000
# 2 -0.001598 0.007396 -0.003882 0.000000 0.000000 0.000000
# 3 -0.003039 -0.003882 0.008637 0.000000 0.000000 0.000000
# 4 0.000000 0.000000 0.000000 0.018495 0.000000 0.000000
# 5 0.000000 0.000000 0.000000 0.000000 0.065509 0.000000
# 6 0.000000 0.000000 0.000000 0.000000 0.000000 0.040362
#
#
# Mechanical properties :
#
#
# Convention : Reuss Voigt Hill
#
# Bulk Modulus (GPa) = 68.46081 92.35106 80.40593
# Shear Modulus (GPa) = 28.10254 36.44655 32.27455
#
# Velocity S-wave (km/s) = 3.87003 4.40727 4.14736
# Velocity P-wave (km/s) = 7.51369 8.66700 8.11087
#
# Compressibility (1/GPa) = 0.01460690
#
# Stress axis : x y z
#
# Youngs Moduli (GPa) = 64.04566 135.21509 115.78670
#
# Poissons Ratio (x) = 0.21614 0.35184
# Poissons Ratio (y) = 0.10237 0.44954
# Poissons Ratio (z) = 0.19461 0.52497
#
# Static dielectric constant tensor:
#      x y z
#    x 1.665140 0.000000 0.000000 
#    y 0.000000 1.650560 0.000000 
#    z 0.000000 0.000000 1.655490 
# 
# From -- ./inp_files/72423.got.cif
#   From: 2010.05.17/outbox.cif.g08.bks.cpg/sg65_37_cif.got.tgz:72423.got - 2010.06.03 17:01:31.
