data_PCOD9492230
_publ_section_title
;
Structure prediction by ZEFSAII (Michael W. Deem and Ramdas Pophale) SiO2 
 PCOD9492230
Probable space group: C M M M
;
_chemical_formula_sum "Si O2"
_cell_formula_units_Z 64
_cell_length_a 8.629817
_cell_length_b 18.328041
_cell_length_c 21.845748
_cell_angle_alpha 90.000000
_cell_angle_beta 90.000000
_cell_angle_gamma 90.000000
_cell_volume 3455.290401
_symmetry_space_group_name_H-M "C M M M"
_symmetry_group_IT_number 65
_symmetry_cell_setting 'orthorhombic'
loop_
_space_group_symop_operation_xyz
x,y,z
-x,-y,z
x,-y,-z
-x,y,-z
-x,-y,-z
x,y,-z
-x,y,z
x,-y,z
1/2+x,1/2+y,z
1/2-x,1/2-y,z
1/2+x,1/2-y,-z
1/2-x,1/2+y,-z
1/2-x,1/2-y,-z
1/2+x,1/2+y,-z
1/2-x,1/2+y,z
1/2+x,1/2-y,z
loop_
_atom_site_type_symbol
_atom_site_label
_atom_site_fract_x
_atom_site_fract_y
_atom_site_fract_z
Si Si1 0.813215 0.167190 0.000000
Si Si2 0.687208 0.331594 0.500000
Si Si3 0.184228 0.332340 0.740743
Si Si4 0.312902 0.585094 0.376700
Si Si5 0.186277 0.166895 0.867562
O O1 0.750000 0.250000 0.000000
O O2 0.768362 0.134034 0.066010
O O3 0.000000 0.170867 0.000000
O O4 0.500000 0.330005 0.500000
O O5 0.750000 0.250000 0.500000
O O6 0.736391 0.373599 0.438544
O O7 0.250000 0.250000 0.734948
O O8 0.240156 0.378094 0.682826
O O9 0.246056 0.365008 0.805023
O O10 0.000000 0.328256 0.742973
O O11 0.500000 0.590775 0.372269
O O12 0.272710 0.500000 0.380528
O O13 0.250000 0.250000 0.868722
O O14 0.000000 0.168241 0.863208
#
# Coordination Sequence:
#
# PCOD9492230 Si02
#       5
#     8   8  16  16  16
#     4   8  14  22  36  60  91 126 163 206 255 307
#     4  10  21  37  59  85 109 136 169 206 250 302
#     4  11  21  33  50  74 104 138 177 217 258 306
#     4  10  21  38  58  79 105 137 172 211 256 305
#     4   9  15  25  41  64  95 130 168 210 258 307
#
# _framework density 18.522321000000002
#
# number of rings (size 3 to 8) (size 9 to 14) (size 15 to 20)
#    0.000    2.250    0.000    5.625    0.000    6.000 
#    0.000    0.000    0.000    2.250    0.000    0.875 
#    0.000    7.000    0.000    0.000    0.000    0.000 
#
# Total GULP energy -178417.346151 kJ/mol
# GULP energy per Si atom -5575.542067 kJ/mol
# Density = 1.848016 g / cm^3
# Si number density = 18.522321 Si / 1000 Ang^3
#
#
#
# Elastic Constant Matrix: (Units=GPa)
#
#
# Indices 1 2 3 4 5 6 
#
# 1 57.5255 35.3761 63.5327 0.0000 0.0000 0.0000
# 2 35.3761 72.7079 78.1412 0.0000 0.0000 0.0000
# 3 63.5327 78.1412 251.3061 0.0000 0.0000 0.0000
# 4 0.0000 0.0000 0.0000 -10.4157 0.0000 0.0000
# 5 0.0000 0.0000 0.0000 0.0000 20.4773 0.0000
# 6 0.0000 0.0000 0.0000 0.0000 0.0000 18.4247
#
#
#
# Elastic Compliance Matrix: (Units=1/GPa)
#
#
# Indices 1 2 3 4 5 6 
#
# 1 0.027455 -0.008859 -0.004186 0.000000 0.000000 0.000000
# 2 -0.008859 0.023515 -0.005072 0.000000 0.000000 0.000000
# 3 -0.004186 -0.005072 0.006615 0.000000 0.000000 0.000000
# 4 0.000000 0.000000 0.000000 -0.096009 0.000000 0.000000
# 5 0.000000 0.000000 0.000000 0.000000 0.048834 0.000000
# 6 0.000000 0.000000 0.000000 0.000000 0.000000 0.054275
#
#
# Mechanical properties :
#
#
# Convention : Reuss Voigt Hill
#
# Bulk Modulus (GPa) = 46.83880 81.73773 64.28827
# Shear Modulus (GPa) = 46.28009 19.32990 32.80499
#
# Velocity S-wave (km/s) = 5.00403 3.23398 4.21302
# Velocity P-wave (km/s) = 7.66354 7.62693 7.64525
#
# Compressibility (1/GPa) = 0.02134982
#
# Stress axis : x y z
#
# Youngs Moduli (GPa) = 36.42306 42.52544 151.17923
#
# Poissons Ratio (x) = 0.37674 0.63287
# Poissons Ratio (y) = 0.32268 0.76680
# Poissons Ratio (z) = 0.15248 0.21570
#
# Static dielectric constant tensor:
#      x y z
#    x 1.621160 0.000000 0.000000 
#    y 0.000000 1.597540 0.000000 
#    z 0.000000 0.000000 1.695850 
# 
# From -- ./inp_files/58804.got.cif
#   From: 2010.05.17/outbox.cif.g08.bks.cpg/sg65_30_cif.got.tgz:58804.got - 2010.06.03 17:01:31.
