data_PCOD9492877
_publ_section_title
;
Structure prediction by ZEFSAII (Michael W. Deem and Ramdas Pophale) SiO2 
 PCOD9492877
Probable space group: C M M M
;
_chemical_formula_sum "Si O2"
_cell_formula_units_Z 96
_cell_length_a 16.171474
_cell_length_b 23.053427
_cell_length_c 15.447591
_cell_angle_alpha 90.000000
_cell_angle_beta 90.000000
_cell_angle_gamma 90.000000
_cell_volume 5758.983889
_symmetry_space_group_name_H-M "C M M M"
_symmetry_group_IT_number 65
_symmetry_cell_setting 'orthorhombic'
loop_
_space_group_symop_operation_xyz
x,y,z
-x,-y,z
x,-y,-z
-x,y,-z
-x,-y,-z
x,y,-z
-x,y,z
x,-y,z
1/2+x,1/2+y,z
1/2-x,1/2-y,z
1/2+x,1/2-y,-z
1/2-x,1/2+y,-z
1/2-x,1/2-y,-z
1/2+x,1/2+y,-z
1/2-x,1/2+y,z
1/2+x,1/2-y,z
loop_
_atom_site_type_symbol
_atom_site_label
_atom_site_fract_x
_atom_site_fract_y
_atom_site_fract_z
Si Si1 0.839608 0.723237 0.000000
Si Si2 0.000000 0.179604 0.602898
Si Si3 0.095377 0.672851 0.828368
Si Si4 0.173589 0.567968 0.105502
Si Si5 0.660558 0.380567 0.181072
Si Si6 0.000000 0.068379 0.724187
Si Si7 0.660139 0.732571 0.695908
Si Si8 0.590417 0.658660 0.000000
O O1 0.750000 0.750000 0.000000
O O2 0.850970 0.690415 0.911328
O O3 0.908916 0.772372 0.000000
O O4 0.083327 0.212438 0.636035
O O5 0.000000 0.176213 0.500000
O O6 0.000000 0.115340 0.646097
O O7 0.106145 0.604012 0.838953
O O8 0.129859 0.710857 0.749529
O O9 0.000000 0.688863 0.838817
O O10 0.157687 0.500000 0.109448
O O11 0.257989 0.582960 0.158023
O O12 0.178175 0.581196 0.000000
O O13 0.583605 0.415993 0.222096
O O14 0.674121 0.322940 0.239882
O O15 0.633940 0.358960 0.087131
O O16 0.000000 0.000000 0.701708
O O17 0.750000 0.750000 0.657274
O O18 0.500000 0.632774 0.000000
#
# Coordination Sequence:
#
# PCOD9492877 Si02
#       8
#     8   8  16  16  16   8  16   8
#     4  12  22  30  46  74 110 147 184 237 283 330
#     4  10  24  43  63  93 117 133 168 216 280 361
#     4  12  22  35  52  78 107 146 193 232 283 326
#     4  11  23  35  48  69 107 159 205 242 269 300
#     4  11  20  33  51  78 111 149 194 233 267 312
#     4  10  22  38  56  80 113 150 182 218 259 321
#     4  11  21  36  62  88 113 141 175 227 285 338
#     4  12  20  28  45  73 111 151 188 228 278 308
#
# _framework density 16.669608
#
# number of rings (size 3 to 8) (size 9 to 14) (size 15 to 20)
#    0.000    0.833    6.667    2.750    0.000    0.833 
#    0.000    1.250    0.000    0.000    0.000    0.000 
#    0.000    1.333    0.000    0.000    0.000    0.000 
#
# Total GULP energy -267363.985864 kJ/mol
# GULP energy per Si atom -5570.083039 kJ/mol
# Density = 1.663167 g / cm^3
# Si number density = 16.669608 Si / 1000 Ang^3
#
#
#
# Elastic Constant Matrix: (Units=GPa)
#
#
# Indices 1 2 3 4 5 6 
#
# 1 93.4614 29.7290 22.3791 0.0000 0.0000 0.0000
# 2 29.7290 96.4059 38.5633 0.0000 0.0000 0.0000
# 3 22.3791 38.5633 85.1994 0.0000 0.0000 0.0000
# 4 0.0000 0.0000 0.0000 12.0434 0.0000 0.0000
# 5 0.0000 0.0000 0.0000 0.0000 12.0604 0.0000
# 6 0.0000 0.0000 0.0000 0.0000 0.0000 5.2884
#
#
#
# Elastic Compliance Matrix: (Units=1/GPa)
#
#
# Indices 1 2 3 4 5 6 
#
# 1 0.012089 -0.003001 -0.001817 0.000000 0.000000 0.000000
# 2 -0.003001 0.013411 -0.005282 0.000000 0.000000 0.000000
# 3 -0.001817 -0.005282 0.014605 0.000000 0.000000 0.000000
# 4 0.000000 0.000000 0.000000 0.083033 0.000000 0.000000
# 5 0.000000 0.000000 0.000000 0.000000 0.082916 0.000000
# 6 0.000000 0.000000 0.000000 0.000000 0.000000 0.189093
#
#
# Mechanical properties :
#
#
# Convention : Reuss Voigt Hill
#
# Bulk Modulus (GPa) = 50.23776 50.71216 50.47496
# Shear Modulus (GPa) = 11.84882 18.17146 15.01014
#
# Velocity S-wave (km/s) = 2.66898 3.30524 3.00400
# Velocity P-wave (km/s) = 6.30085 6.71224 6.50979
#
# Compressibility (1/GPa) = 0.01990535
#
# Stress axis : x y z
#
# Youngs Moduli (GPa) = 82.71756 74.56517 68.46899
#
# Poissons Ratio (x) = 0.22378 0.12441
# Poissons Ratio (y) = 0.24825 0.36164
# Poissons Ratio (z) = 0.15030 0.39384
#
# Static dielectric constant tensor:
#      x y z
#    x 1.807440 0.000000 0.000000 
#    y 0.000000 1.647000 0.000000 
#    z 0.000000 0.000000 1.507130 
# 
# From -- ./inp_files/40736.got.cif
#   From: 2010.05.17/outbox.cif.g08.bks.cpg/sg65_21_cif.got.tgz:40736.got - 2010.06.03 17:01:31.
