data_PCOD9492283
_publ_section_title
;
Structure prediction by ZEFSAII (Michael W. Deem and Ramdas Pophale) SiO2 
 PCOD9492283
Probable space group: C M M M
;
_chemical_formula_sum "Si O2"
_cell_formula_units_Z 72
_cell_length_a 28.897434
_cell_length_b 15.148784
_cell_length_c 8.873355
_cell_angle_alpha 90.000000
_cell_angle_beta 90.000000
_cell_angle_gamma 90.000000
_cell_volume 3884.408632
_symmetry_space_group_name_H-M "C M M M"
_symmetry_group_IT_number 65
_symmetry_cell_setting 'orthorhombic'
loop_
_space_group_symop_operation_xyz
x,y,z
-x,-y,z
x,-y,-z
-x,y,-z
-x,-y,-z
x,y,-z
-x,y,z
x,-y,z
1/2+x,1/2+y,z
1/2-x,1/2-y,z
1/2+x,1/2-y,-z
1/2-x,1/2+y,-z
1/2-x,1/2-y,-z
1/2+x,1/2+y,-z
1/2-x,1/2+y,z
1/2+x,1/2-y,z
loop_
_atom_site_type_symbol
_atom_site_label
_atom_site_fract_x
_atom_site_fract_y
_atom_site_fract_z
Si Si1 0.292435 0.000000 0.822792
Si Si2 0.638784 0.662930 0.175129
Si Si3 0.054948 0.500000 0.681463
Si Si4 0.806956 0.000000 0.677946
Si Si5 0.873142 0.362695 0.181006
Si Si6 0.552184 0.393983 0.332197
O O1 0.246475 0.000000 0.725645
O O2 0.326376 0.082013 0.793993
O O3 0.279462 0.000000 0.000000
O O4 0.669037 0.588458 0.257009
O O5 0.638049 0.763505 0.232633
O O6 0.585984 0.634387 0.201656
O O7 0.651904 0.663261 0.000000
O O8 0.057143 0.500000 0.500000
O O9 0.083970 0.415123 0.743500
O O10 0.000000 0.500000 0.724179
O O11 0.812931 0.000000 0.500000
O O12 0.881909 0.361216 0.000000
O O13 0.568822 0.366106 0.500000
O O14 0.500000 0.361359 0.313055
O O15 0.551034 0.500000 0.334242
#
# Coordination Sequence:
#
# PCOD9492283 Si02
#       6
#     8  16   8   8  16  16
#     4   9  19  41  64  81 106 144 188 234 288 346
#     4  11  22  37  58  86 115 148 193 239 282 335
#     4  10  21  37  60  91 123 156 193 232 278 335
#     4  12  25  39  57  83 116 150 186 233 290 347
#     4   9  21  40  62  86 115 151 190 236 288 337
#     4   9  18  33  52  75 109 151 187 223 274 330
#
# _framework density 18.535639
#
# number of rings (size 3 to 8) (size 9 to 14) (size 15 to 20)
#    0.000    2.111    1.111    3.333    0.000    6.667 
#    0.000   10.000    0.000    0.000    0.000    0.000 
#    0.000    0.000    0.000    0.000    0.000    0.000 
#
# Total GULP energy -200687.906252 kJ/mol
# GULP energy per Si atom -5574.664063 kJ/mol
# Density = 1.849345 g / cm^3
# Si number density = 18.535639 Si / 1000 Ang^3
#
#
#
# Elastic Constant Matrix: (Units=GPa)
#
#
# Indices 1 2 3 4 5 6 
#
# 1 95.2590 62.2527 41.7823 0.0000 0.0000 0.0000
# 2 62.2527 145.6866 49.7447 0.0000 0.0000 0.0000
# 3 41.7823 49.7447 59.4534 0.0000 0.0000 0.0000
# 4 0.0000 0.0000 0.0000 5.9612 0.0000 0.0000
# 5 0.0000 0.0000 0.0000 0.0000 37.7543 0.0000
# 6 0.0000 0.0000 0.0000 0.0000 0.0000 -12.0027
#
#
#
# Elastic Compliance Matrix: (Units=1/GPa)
#
#
# Indices 1 2 3 4 5 6 
#
# 1 0.017025 -0.004465 -0.008229 0.000000 0.000000 0.000000
# 2 -0.004465 0.010780 -0.005882 0.000000 0.000000 0.000000
# 3 -0.008229 -0.005882 0.027524 0.000000 0.000000 0.000000
# 4 0.000000 0.000000 0.000000 0.167751 0.000000 0.000000
# 5 0.000000 0.000000 0.000000 0.000000 0.026487 0.000000
# 6 0.000000 0.000000 0.000000 0.000000 0.000000 -0.083315
#
#
# Mechanical properties :
#
#
# Convention : Reuss Voigt Hill
#
# Bulk Modulus (GPa) = 55.01167 67.55094 61.28130
# Shear Modulus (GPa) = 23.87046 16.11719 19.99383
#
# Velocity S-wave (km/s) = 3.59251 2.95197 3.28787
# Velocity P-wave (km/s) = 6.85211 6.93843 6.89540
#
# Compressibility (1/GPa) = 0.01817796
#
# Stress axis : x y z
#
# Youngs Moduli (GPa) = 58.73724 92.76038 36.33155
#
# Poissons Ratio (x) = 0.41419 0.29896
# Poissons Ratio (y) = 0.26227 0.21370
# Poissons Ratio (z) = 0.48333 0.54562
#
# Static dielectric constant tensor:
#      x y z
#    x 1.623470 0.000000 0.000000 
#    y 0.000000 1.455920 0.000000 
#    z 0.000000 0.000000 1.649740 
# 
# From -- ./inp_files/7357.got.cif
#   From: 2010.05.17/outbox.cif.g08.bks.cpg/sg65_4_cif.got.tgz:7357.got - 2010.06.03 17:01:31.
