data_PCOD9492451
_publ_section_title
;
Structure prediction by ZEFSAII (Michael W. Deem and Ramdas Pophale) SiO2 
 PCOD9492451
Probable space group: C M M M
;
_chemical_formula_sum "Si O2"
_cell_formula_units_Z 64
_cell_length_a 21.139543
_cell_length_b 18.310867
_cell_length_c 8.652086
_cell_angle_alpha 90.000000
_cell_angle_beta 90.000000
_cell_angle_gamma 90.000000
_cell_volume 3349.078523
_symmetry_space_group_name_H-M "C M M M"
_symmetry_group_IT_number 65
_symmetry_cell_setting 'orthorhombic'
loop_
_space_group_symop_operation_xyz
x,y,z
-x,-y,z
x,-y,-z
-x,y,-z
-x,-y,-z
x,y,-z
-x,y,z
x,-y,z
1/2+x,1/2+y,z
1/2-x,1/2-y,z
1/2+x,1/2-y,-z
1/2-x,1/2+y,-z
1/2-x,1/2-y,-z
1/2+x,1/2+y,-z
1/2-x,1/2+y,z
1/2+x,1/2-y,z
loop_
_atom_site_type_symbol
_atom_site_label
_atom_site_fract_x
_atom_site_fract_y
_atom_site_fract_z
Si Si1 0.500000 0.585149 0.685451
Si Si2 0.249204 0.085153 0.685333
Si Si3 0.627857 0.833492 0.812967
Si Si4 0.375409 0.336916 0.185510
Si Si5 0.000000 0.415844 0.188337
O O1 0.500000 0.500000 0.731993
O O2 0.500000 0.588379 0.500000
O O3 0.437673 0.624586 0.748688
O O4 0.246424 0.088866 0.500000
O O5 0.311276 0.126591 0.744536
O O6 0.186957 0.122835 0.753876
O O7 0.251690 0.000000 0.731308
O O8 0.626216 0.748380 0.769070
O O9 0.563441 0.873883 0.763280
O O10 0.631436 0.837243 0.000000
O O11 0.376984 0.340371 0.000000
O O12 0.000000 0.500000 0.239518
O O13 0.000000 0.415947 0.000000
#
# Coordination Sequence:
#
# PCOD9492451 Si02
#       5
#     8  16  16  16   8
#     4  11  24  41  61  87 120 157 196 239 290 348
#     4  11  24  40  58  84 118 154 194 241 293 350
#     4  10  21  38  60  87 117 150 193 241 288 345
#     4  11  23  39  61  88 117 152 196 244 292 345
#     4   9  17  32  57  85 112 145 184 228 280 337
#
# _framework density 19.109734
#
# number of rings (size 3 to 8) (size 9 to 14) (size 15 to 20)
#    0.000    1.500    0.000    4.875    0.000   14.000 
#    0.000    0.625    0.000    2.250    0.000    0.000 
#    0.000    0.000    0.000    0.000    0.000    0.000 
#
# Total GULP energy -178975.807431 kJ/mol
# GULP energy per Si atom -5592.993982 kJ/mol
# Density = 1.906624 g / cm^3
# Si number density = 19.109734 Si / 1000 Ang^3
#
#
#
# Elastic Constant Matrix: (Units=GPa)
#
#
# Indices 1 2 3 4 5 6 
#
# 1 240.8587 148.3984 50.5625 0.0000 0.0000 0.0000
# 2 148.3984 239.8830 62.9352 0.0000 0.0000 0.0000
# 3 50.5625 62.9352 34.3731 0.0000 0.0000 0.0000
# 4 0.0000 0.0000 0.0000 26.2525 0.0000 0.0000
# 5 0.0000 0.0000 0.0000 0.0000 -294.6641 0.0000
# 6 0.0000 0.0000 0.0000 0.0000 0.0000 46.6769
#
#
#
# Elastic Compliance Matrix: (Units=1/GPa)
#
#
# Indices 1 2 3 4 5 6 
#
# 1 0.007068 -0.003165 -0.004602 0.000000 0.000000 0.000000
# 2 -0.003165 0.009440 -0.012628 0.000000 0.000000 0.000000
# 3 -0.004602 -0.012628 0.058982 0.000000 0.000000 0.000000
# 4 0.000000 0.000000 0.000000 0.038092 0.000000 0.000000
# 5 0.000000 0.000000 0.000000 0.000000 -0.003394 0.000000
# 6 0.000000 0.000000 0.000000 0.000000 0.000000 0.021424
#
#
# Mechanical properties :
#
#
# Convention : Reuss Voigt Hill
#
# Bulk Modulus (GPa) = 28.81786 115.43411 72.12599
# Shear Modulus (GPa) = 27.17874 -27.46569 -0.14348
#
# Velocity S-wave (km/s) = 3.77536 -3.79524 -0.27430
# Velocity P-wave (km/s) = 5.84101 6.42899 6.14204
#
# Compressibility (1/GPa) = 0.03470070
#
# Stress axis : x y z
#
# Youngs Moduli (GPa) = 141.48400 105.93547 16.95431
#
# Poissons Ratio (x) = 0.33530 0.07802
# Poissons Ratio (y) = 0.44782 0.21409
# Poissons Ratio (z) = 0.65107 1.33772
#
# Static dielectric constant tensor:
#      x y z
#    x 1.610210 0.000000 0.000000 
#    y 0.000000 1.646060 0.000000 
#    z 0.000000 0.000000 1.647420 
# 
# From -- ./inp_files/10853.got.cif
#   From: 2010.05.17/outbox.cif.g08.bks.cpg/sg65_6_cif.got.tgz:10853.got - 2010.06.03 17:01:31.
