data_PCOD9492171
_publ_section_title
;
Structure prediction by ZEFSAII (Michael W. Deem and Ramdas Pophale) SiO2 
 PCOD9492171
Probable space group: C M M M
;
_chemical_formula_sum "Si O2"
_cell_formula_units_Z 90
_cell_length_a 25.245370
_cell_length_b 21.363648
_cell_length_c 7.924803
_cell_angle_alpha 90.000000
_cell_angle_beta 90.000000
_cell_angle_gamma 90.000000
_cell_volume 4274.109348
_symmetry_space_group_name_H-M "C M M M"
_symmetry_group_IT_number 65
_symmetry_cell_setting 'orthorhombic'
loop_
_space_group_symop_operation_xyz
x,y,z
-x,-y,z
x,-y,-z
-x,y,-z
-x,-y,-z
x,y,-z
-x,y,z
x,-y,z
1/2+x,1/2+y,z
1/2-x,1/2-y,z
1/2+x,1/2-y,-z
1/2-x,1/2+y,-z
1/2-x,1/2-y,-z
1/2+x,1/2+y,-z
1/2-x,1/2+y,z
1/2+x,1/2-y,z
loop_
_atom_site_type_symbol
_atom_site_label
_atom_site_fract_x
_atom_site_fract_y
_atom_site_fract_z
Si Si1 0.895690 0.177470 0.807850
Si Si2 0.222291 0.814169 0.797445
Si Si3 0.705905 0.069122 0.701517
Si Si4 0.500000 0.395365 0.305673
Si Si5 0.914986 0.431861 0.803889
Si Si6 0.560704 0.796245 0.309501
Si Si7 0.000000 0.000000 0.000000
O O1 0.836911 0.170724 0.732166
O O2 0.904905 0.252404 0.808470
O O3 0.945866 0.145558 0.717077
O O4 0.895861 0.153425 0.000000
O O5 0.250000 0.750000 0.734022
O O6 0.259011 0.873313 0.759621
O O7 0.216729 0.806937 0.000000
O O8 0.697696 0.073272 0.500000
O O9 0.648506 0.071395 0.787246
O O10 0.729185 0.000000 0.738445
O O11 0.500000 0.419314 0.500000
O O12 0.500000 0.445476 0.152708
O O13 0.931448 0.500000 0.735401
O O14 0.935611 0.370009 0.716493
O O15 0.930123 0.429240 0.000000
O O16 0.576881 0.781428 0.500000
O O17 0.500000 0.778333 0.283902
#
# Coordination Sequence:
#
# PCOD9492171 Si02
#       7
#    16  16  16   8  16  16   2
#     4  11  22  41  67  96 134 173 217 273 329 396
#     4  10  22  39  62  94 129 167 213 264 323 391
#     4  10  21  38  59  86 120 157 201 252 311 377
#     4  12  25  47  75 104 140 178 225 281 344 416
#     4  10  21  37  58  83 117 163 211 257 313 378
#     4  11  23  37  58  89 121 159 208 259 318 377
#     4  12  26  52  76 106 136 176 232 280 352 416
#
# _framework density 21.057019
#
# number of rings (size 3 to 8) (size 9 to 14) (size 15 to 20)
#    0.000    1.422    1.778    3.333    0.000    6.756 
#    1.600    1.778    0.000    0.000    0.000    0.000 
#    0.000    0.000    0.000    0.000    0.000    0.000 
#
# Total GULP energy -250976.716544 kJ/mol
# GULP energy per Si atom -5577.260368 kJ/mol
# Density = 2.100909 g / cm^3
# Si number density = 21.057019 Si / 1000 Ang^3
#
#
#
# Elastic Constant Matrix: (Units=GPa)
#
#
# Indices 1 2 3 4 5 6 
#
# 1 109.7444 30.7654 -18.9552 0.0000 0.0000 0.0000
# 2 30.7654 124.1368 38.2514 0.0000 0.0000 0.0000
# 3 -18.9552 38.2514 163.2213 0.0000 0.0000 0.0000
# 4 0.0000 0.0000 0.0000 21.8109 0.0000 0.0000
# 5 0.0000 0.0000 0.0000 0.0000 12.7736 0.0000
# 6 0.0000 0.0000 0.0000 0.0000 0.0000 26.5488
#
#
#
# Elastic Compliance Matrix: (Units=1/GPa)
#
#
# Indices 1 2 3 4 5 6 
#
# 1 0.010333 -0.003159 0.001940 0.000000 0.000000 0.000000
# 2 -0.003159 0.009648 -0.002628 0.000000 0.000000 0.000000
# 3 0.001940 -0.002628 0.006968 0.000000 0.000000 0.000000
# 4 0.000000 0.000000 0.000000 0.045849 0.000000 0.000000
# 5 0.000000 0.000000 0.000000 0.000000 0.078287 0.000000
# 6 0.000000 0.000000 0.000000 0.000000 0.000000 0.037667
#
#
# Mechanical properties :
#
#
# Convention : Reuss Voigt Hill
#
# Bulk Modulus (GPa) = 51.93187 55.24730 53.58959
# Shear Modulus (GPa) = 24.64730 35.36270 30.00500
#
# Velocity S-wave (km/s) = 3.42497 4.10247 3.77893
# Velocity P-wave (km/s) = 6.35269 6.98099 6.67424
#
# Compressibility (1/GPa) = 0.01925600
#
# Stress axis : x y z
#
# Youngs Moduli (GPa) = 96.78026 103.64609 143.51677
#
# Poissons Ratio (x) = 0.32738 -0.27845
# Poissons Ratio (y) = 0.30570 0.37715
# Poissons Ratio (z) = -0.18777 0.27237
#
# Static dielectric constant tensor:
#      x y z
#    x 1.756800 0.000000 0.000000 
#    y 0.000000 1.751060 0.000000 
#    z 0.000000 0.000000 1.770640 
# 
# From -- ./inp_files/14049.got.cif
#   From: 2010.05.17/outbox.cif.g08.bks.cpg/sg65_8_cif.got.tgz:14049.got - 2010.06.03 17:01:31.
