data_PCOD9492527
_publ_section_title
;
Structure prediction by ZEFSAII (Michael W. Deem and Ramdas Pophale) SiO2 
 PCOD9492527
Probable space group: C M M M
;
_chemical_formula_sum "Si O2"
_cell_formula_units_Z 64
_cell_length_a 8.939722
_cell_length_b 16.750455
_cell_length_c 22.011614
_cell_angle_alpha 90.000000
_cell_angle_beta 90.000000
_cell_angle_gamma 90.000000
_cell_volume 3296.116175
_symmetry_space_group_name_H-M "C M M M"
_symmetry_group_IT_number 65
_symmetry_cell_setting 'orthorhombic'
loop_
_space_group_symop_operation_xyz
x,y,z
-x,-y,z
x,-y,-z
-x,y,-z
-x,-y,-z
x,y,-z
-x,y,z
x,-y,z
1/2+x,1/2+y,z
1/2-x,1/2-y,z
1/2+x,1/2-y,-z
1/2-x,1/2+y,-z
1/2-x,1/2-y,-z
1/2+x,1/2+y,-z
1/2-x,1/2+y,z
1/2+x,1/2-y,z
loop_
_atom_site_type_symbol
_atom_site_label
_atom_site_fract_x
_atom_site_fract_y
_atom_site_fract_z
Si Si1 0.677332 0.335408 0.271214
Si Si2 0.676867 0.335737 0.500000
Si Si3 0.679004 0.661881 0.872513
Si Si4 0.333270 0.906837 0.616887
Si Si5 0.675620 0.000000 0.072863
O O1 0.500000 0.334294 0.281330
O O2 0.750000 0.250000 0.284616
O O3 0.703036 0.351073 0.199849
O O4 0.756638 0.393460 0.318218
O O5 0.500000 0.332901 0.500000
O O6 0.750000 0.250000 0.500000
O O7 0.734979 0.375493 0.561674
O O8 0.500000 0.665563 0.883891
O O9 0.750000 0.750000 0.887804
O O10 0.748713 0.583033 0.904132
O O11 0.500000 0.869692 0.616056
O O12 0.348140 0.000000 0.607021
O O13 0.500000 0.000000 0.090885
O O14 0.684431 0.000000 0.000000
#
# Coordination Sequence:
#
# PCOD9492527 Si02
#       5
#    16   8  16  16   8
#     4  10  21  38  61  89 121 156 200 248 300 362
#     4  12  25  42  63  83 111 153 197 248 301 358
#     4  10  22  41  66  96 130 171 215 267 321 379
#     4  11  24  40  59  86 119 155 195 244 301 360
#     4  11  25  43  65  95 131 172 217 264 317 381
#
# _framework density 19.416791
#
# number of rings (size 3 to 8) (size 9 to 14) (size 15 to 20)
#    0.000    1.375    0.000    4.875    1.750    8.000 
#    0.000    0.000    0.000    0.000    0.000    0.000 
#    0.000    0.000    0.000    0.000    0.000    0.000 
#
# Total GULP energy -178672.780593 kJ/mol
# GULP energy per Si atom -5583.524394 kJ/mol
# Density = 1.937260 g / cm^3
# Si number density = 19.416791 Si / 1000 Ang^3
#
#
#
# Elastic Constant Matrix: (Units=GPa)
#
#
# Indices 1 2 3 4 5 6 
#
# 1 167.5679 81.6094 68.3191 0.0000 0.0000 0.0000
# 2 81.6094 141.5612 62.7831 0.0000 0.0000 0.0000
# 3 68.3191 62.7831 61.6359 0.0000 0.0000 0.0000
# 4 0.0000 0.0000 0.0000 41.1051 0.0000 0.0000
# 5 0.0000 0.0000 0.0000 0.0000 38.7633 0.0000
# 6 0.0000 0.0000 0.0000 0.0000 0.0000 32.3096
#
#
#
# Elastic Compliance Matrix: (Units=1/GPa)
#
#
# Indices 1 2 3 4 5 6 
#
# 1 0.011114 -0.001721 -0.010566 0.000000 0.000000 0.000000
# 2 -0.001721 0.013152 -0.011489 0.000000 0.000000 0.000000
# 3 -0.010566 -0.011489 0.039638 0.000000 0.000000 0.000000
# 4 0.000000 0.000000 0.000000 0.024328 0.000000 0.000000
# 5 0.000000 0.000000 0.000000 0.000000 0.025798 0.000000
# 6 0.000000 0.000000 0.000000 0.000000 0.000000 0.030951
#
#
# Mechanical properties :
#
#
# Convention : Reuss Voigt Hill
#
# Bulk Modulus (GPa) = 61.15238 88.46534 74.80886
# Shear Modulus (GPa) = 25.25499 32.97248 29.11373
#
# Velocity S-wave (km/s) = 3.61040 4.12532 3.87642
# Velocity P-wave (km/s) = 6.99593 8.26748 7.65814
#
# Compressibility (1/GPa) = 0.01635259
#
# Stress axis : x y z
#
# Youngs Moduli (GPa) = 89.97973 76.03663 25.22830
#
# Poissons Ratio (x) = 0.13086 0.26655
# Poissons Ratio (y) = 0.15486 0.28984
# Poissons Ratio (z) = 0.95069 0.87356
#
# Static dielectric constant tensor:
#      x y z
#    x 1.686910 0.000000 0.000000 
#    y 0.000000 1.681360 0.000000 
#    z 0.000000 0.000000 1.673370 
# 
# From -- ./inp_files/58887.got.cif
#   From: 2010.05.17/outbox.cif.g08.bks.cpg/sg65_30_cif.got.tgz:58887.got - 2010.06.03 17:01:31.
