data_PCOD9492558
_publ_section_title
;
Structure prediction by ZEFSAII (Michael W. Deem and Ramdas Pophale) SiO2 
 PCOD9492558
Probable space group: C M M M
;
_chemical_formula_sum "Si O2"
_cell_formula_units_Z 64
_cell_length_a 30.308763
_cell_length_b 11.991271
_cell_length_c 8.347087
_cell_angle_alpha 90.000000
_cell_angle_beta 90.000000
_cell_angle_gamma 90.000000
_cell_volume 3033.670231
_symmetry_space_group_name_H-M "C M M M"
_symmetry_group_IT_number 65
_symmetry_cell_setting 'orthorhombic'
loop_
_space_group_symop_operation_xyz
x,y,z
-x,-y,z
x,-y,-z
-x,y,-z
-x,-y,-z
x,y,-z
-x,y,z
x,-y,z
1/2+x,1/2+y,z
1/2-x,1/2-y,z
1/2+x,1/2-y,-z
1/2-x,1/2+y,-z
1/2-x,1/2-y,-z
1/2+x,1/2+y,-z
1/2-x,1/2+y,z
1/2+x,1/2-y,z
loop_
_atom_site_type_symbol
_atom_site_label
_atom_site_fract_x
_atom_site_fract_y
_atom_site_fract_z
Si Si1 0.366482 0.129444 0.192195
Si Si2 0.950001 0.763783 0.191913
Si Si3 0.948063 0.000000 0.690490
Si Si4 0.271496 0.377897 0.000000
Si Si5 0.798855 0.196833 0.326028
O O1 0.415925 0.167677 0.235773
O O2 0.332691 0.204050 0.290093
O O3 0.359644 0.000000 0.222531
O O4 0.360422 0.149284 0.000000
O O5 0.000000 0.750965 0.256464
O O6 0.930462 0.883200 0.244845
O O7 0.952998 0.765079 0.000000
O O8 0.945611 0.000000 0.500000
O O9 0.000000 0.000000 0.740074
O O10 0.250000 0.250000 0.000000
O O11 0.298305 0.376664 0.165709
O O12 0.246227 0.500000 0.000000
O O13 0.808310 0.144784 0.500000
O O14 0.750000 0.250000 0.335135
#
# Coordination Sequence:
#
# PCOD9492558 Si02
#       5
#    16  16   8   8  16
#     4  10  21  38  62  92 127 169 213 263 326 393
#     4   9  18  34  57  87 122 161 205 255 313 380
#     4   9  17  31  53  79 111 155 205 257 313 371
#     4  10  22  42  68 100 133 170 215 271 329 390
#     4  10  22  41  64  92 125 168 217 267 323 386
#
# _framework density 21.096558000000002
#
# number of rings (size 3 to 8) (size 9 to 14) (size 15 to 20)
#    0.000    2.375    1.250    0.375    0.000    8.000 
#    2.250    7.500    0.000    0.000    0.000    5.250 
#    0.000    0.000    0.000    0.000    0.000    0.000 
#
# Total GULP energy -178344.249037 kJ/mol
# GULP energy per Si atom -5573.257782 kJ/mol
# Density = 2.104854 g / cm^3
# Si number density = 21.096558 Si / 1000 Ang^3
#
#
#
# Elastic Constant Matrix: (Units=GPa)
#
#
# Indices 1 2 3 4 5 6 
#
# 1 76.9675 32.7387 22.3265 0.0000 0.0000 0.0000
# 2 32.7387 99.8679 36.5536 0.0000 0.0000 0.0000
# 3 22.3265 36.5536 106.4055 0.0000 0.0000 0.0000
# 4 0.0000 0.0000 0.0000 -3.4002 0.0000 0.0000
# 5 0.0000 0.0000 0.0000 0.0000 -49.7192 0.0000
# 6 0.0000 0.0000 0.0000 0.0000 0.0000 20.4491
#
#
#
# Elastic Compliance Matrix: (Units=1/GPa)
#
#
# Indices 1 2 3 4 5 6 
#
# 1 0.015365 -0.004412 -0.001708 0.000000 0.000000 0.000000
# 2 -0.004412 0.012720 -0.003444 0.000000 0.000000 0.000000
# 3 -0.001708 -0.003444 0.010940 0.000000 0.000000 0.000000
# 4 0.000000 0.000000 0.000000 -0.294102 0.000000 0.000000
# 5 0.000000 0.000000 0.000000 0.000000 -0.020113 0.000000
# 6 0.000000 0.000000 0.000000 0.000000 0.000000 0.048902
#
#
# Mechanical properties :
#
#
# Convention : Reuss Voigt Hill
#
# Bulk Modulus (GPa) = 50.26071 51.83094 51.04583
# Shear Modulus (GPa) = -24.93411 6.24076 -9.34668
#
# Velocity S-wave (km/s) = -3.44161 1.72180 -2.10714
# Velocity P-wave (km/s) = 2.84305 5.34552 4.28121
#
# Compressibility (1/GPa) = 0.01989626
#
# Stress axis : x y z
#
# Youngs Moduli (GPa) = 65.08500 78.61634 91.41091
#
# Poissons Ratio (x) = 0.34682 0.15616
# Poissons Ratio (y) = 0.28712 0.31483
# Poissons Ratio (z) = 0.11119 0.27076
#
# Static dielectric constant tensor:
#      x y z
#    x 1.786770 0.000000 0.000000 
#    y 0.000000 1.756290 0.000000 
#    z 0.000000 0.000000 1.774900 
# 
# From -- ./inp_files/17823.got.cif
#   From: 2010.05.17/outbox.cif.g08.bks.cpg/sg65_9_cif.got.tgz:17823.got - 2010.06.03 17:01:31.
