data_PCOD9492006
_publ_section_title
;
Structure prediction by ZEFSAII (Michael W. Deem and Ramdas Pophale) SiO2 
 PCOD9492006
Probable space group: C M M M
;
_chemical_formula_sum "Si O2"
_cell_formula_units_Z 112
_cell_length_a 14.678436
_cell_length_b 25.547044
_cell_length_c 15.340337
_cell_angle_alpha 90.000000
_cell_angle_beta 90.000000
_cell_angle_gamma 90.000000
_cell_volume 5752.482948
_symmetry_space_group_name_H-M "C M M M"
_symmetry_group_IT_number 65
_symmetry_cell_setting 'orthorhombic'
loop_
_space_group_symop_operation_xyz
x,y,z
-x,-y,z
x,-y,-z
-x,y,-z
-x,-y,-z
x,y,-z
-x,y,z
x,-y,z
1/2+x,1/2+y,z
1/2-x,1/2-y,z
1/2+x,1/2-y,-z
1/2-x,1/2+y,-z
1/2-x,1/2-y,-z
1/2+x,1/2+y,-z
1/2-x,1/2+y,z
1/2+x,1/2-y,z
loop_
_atom_site_type_symbol
_atom_site_label
_atom_site_fract_x
_atom_site_fract_y
_atom_site_fract_z
Si Si1 0.216729 0.058459 0.104785
Si Si2 0.606871 0.267008 0.741655
Si Si3 0.890542 0.838410 0.899574
Si Si4 0.394318 0.441979 0.393979
Si Si5 0.703169 0.336097 0.400881
Si Si6 0.397686 0.157792 0.664449
Si Si7 0.101836 0.440449 0.212353
O O1 0.152391 0.106530 0.130398
O O2 0.316597 0.066733 0.144710
O O3 0.184849 0.000000 0.131399
O O4 0.221379 0.058736 0.000000
O O5 0.500000 0.280249 0.728511
O O6 0.635987 0.292775 0.832613
O O7 0.663383 0.292971 0.663787
O O8 0.613631 0.204576 0.734853
O O9 0.000000 0.842853 0.898741
O O10 0.862860 0.828273 0.000000
O O11 0.392738 0.443082 0.500000
O O12 0.500000 0.434231 0.368175
O O13 0.364550 0.500000 0.364056
O O14 0.333646 0.392637 0.368467
O O15 0.671167 0.327622 0.500000
O O16 0.812219 0.336419 0.398357
O O17 0.500000 0.163213 0.627079
O O18 0.390817 0.102364 0.712422
O O19 0.108658 0.500000 0.246228
O O20 0.000000 0.434719 0.173371
#
# Coordination Sequence:
#
# PCOD9492006 Si02
#       7
#    16  16  16  16  16  16  16
#     4   9  17  29  48  77 110 140 172 214 263 315
#     4  10  21  37  56  79 109 142 178 223 270 318
#     4   9  18  34  56  80 108 144 181 216 260 315
#     4   8  15  30  52  78 108 139 172 214 263 313
#     4  11  22  35  55  81 109 144 182 220 268 324
#     4  10  22  38  54  74 103 139 180 227 274 318
#     4   9  18  34  55  75  97 131 175 221 269 319
#
# _framework density 19.469854999999999
#
# number of rings (size 3 to 8) (size 9 to 14) (size 15 to 20)
#    0.000    2.571    0.000    2.143    0.000    3.429 
#    0.000    5.714    0.000    6.857    0.000    4.000 
#    0.000    0.000    0.000    0.000    0.000    0.000 
#
# Total GULP energy -312334.351890 kJ/mol
# GULP energy per Si atom -5577.399141 kJ/mol
# Density = 1.942554 g / cm^3
# Si number density = 19.469855 Si / 1000 Ang^3
#
#
#
# Elastic Constant Matrix: (Units=GPa)
#
#
# Indices 1 2 3 4 5 6 
#
# 1 50.8519 31.6802 22.1699 0.0000 0.0000 0.0000
# 2 31.6802 96.2469 35.0562 0.0000 0.0000 0.0000
# 3 22.1699 35.0562 53.2709 0.0000 0.0000 0.0000
# 4 0.0000 0.0000 0.0000 17.4884 0.0000 0.0000
# 5 0.0000 0.0000 0.0000 0.0000 22.3798 0.0000
# 6 0.0000 0.0000 0.0000 0.0000 0.0000 21.9780
#
#
#
# Elastic Compliance Matrix: (Units=1/GPa)
#
#
# Indices 1 2 3 4 5 6 
#
# 1 0.026572 -0.006206 -0.006975 0.000000 0.000000 0.000000
# 2 -0.006206 0.015115 -0.007364 0.000000 0.000000 0.000000
# 3 -0.006975 -0.007364 0.026521 0.000000 0.000000 0.000000
# 4 0.000000 0.000000 0.000000 0.057181 0.000000 0.000000
# 5 0.000000 0.000000 0.000000 0.000000 0.044683 0.000000
# 6 0.000000 0.000000 0.000000 0.000000 0.000000 0.045500
#
#
# Mechanical properties :
#
#
# Convention : Reuss Voigt Hill
#
# Bulk Modulus (GPa) = 36.87518 42.02025 39.44771
# Shear Modulus (GPa) = 18.81823 19.80012 19.30918
#
# Velocity S-wave (km/s) = 3.11228 3.19245 3.15262
# Velocity P-wave (km/s) = 5.64764 5.93448 5.79283
#
# Compressibility (1/GPa) = 0.02711851
#
# Stress axis : x y z
#
# Youngs Moduli (GPa) = 37.63371 66.16007 37.70649
#
# Poissons Ratio (x) = 0.41059 0.26299
# Poissons Ratio (y) = 0.23355 0.27767
# Poissons Ratio (z) = 0.26248 0.48720
#
# Static dielectric constant tensor:
#      x y z
#    x 1.690240 0.000000 0.000000 
#    y 0.000000 1.696920 0.000000 
#    z 0.000000 0.000000 1.661270 
# 
# From -- ./inp_files/40753.got.cif
#   From: 2010.05.17/outbox.cif.g08.bks.cpg/sg65_21_cif.got.tgz:40753.got - 2010.06.03 17:01:31.
