data_PCOD9492562
_publ_section_title
;
Structure prediction by ZEFSAII (Michael W. Deem and Ramdas Pophale) SiO2 
 PCOD9492562
Probable space group: C M M M
;
_chemical_formula_sum "Si O2"
_cell_formula_units_Z 72
_cell_length_a 15.799278
_cell_length_b 8.466662
_cell_length_c 27.453663
_cell_angle_alpha 90.000000
_cell_angle_beta 90.000000
_cell_angle_gamma 90.000000
_cell_volume 3672.398165
_symmetry_space_group_name_H-M "C M M M"
_symmetry_group_IT_number 65
_symmetry_cell_setting 'orthorhombic'
loop_
_space_group_symop_operation_xyz
x,y,z
-x,-y,z
x,-y,-z
-x,y,-z
-x,-y,-z
x,y,-z
-x,y,z
x,-y,z
1/2+x,1/2+y,z
1/2-x,1/2-y,z
1/2+x,1/2-y,-z
1/2-x,1/2+y,-z
1/2-x,1/2-y,-z
1/2+x,1/2+y,-z
1/2-x,1/2+y,z
1/2+x,1/2-y,z
loop_
_atom_site_type_symbol
_atom_site_label
_atom_site_fract_x
_atom_site_fract_y
_atom_site_fract_z
Si Si1 0.339845 0.310774 0.209523
Si Si2 0.599431 0.307413 0.894801
Si Si3 0.500000 0.810938 0.618300
Si Si4 0.103376 0.814425 0.000000
Si Si5 0.157270 0.810816 0.556317
Si Si6 0.000000 0.310546 0.269491
O O1 0.341060 0.500000 0.209186
O O2 0.250000 0.250000 0.227903
O O3 0.353262 0.253806 0.153617
O O4 0.417396 0.250799 0.241611
O O5 0.500000 0.266599 0.889569
O O6 0.602943 0.500000 0.896306
O O7 0.630563 0.247225 0.947624
O O8 0.417023 0.751626 0.590252
O O9 0.500000 0.756989 0.674387
O O10 0.500000 0.000000 0.617896
O O11 0.000000 0.808667 0.000000
O O12 0.126286 0.000000 0.000000
O O13 0.143015 0.759786 0.500000
O O14 0.250000 0.750000 0.571053
O O15 0.157110 0.000000 0.557334
O O16 0.000000 0.500000 0.268450
#
# Coordination Sequence:
#
# PCOD9492562 Si02
#       6
#    16  16   8   8  16   8
#     4  11  22  38  60  85 113 148 192 239 291 350
#     4   8  13  25  47  76 107 140 180 225 277 339
#     4  11  24  40  61  88 119 155 198 246 295 346
#     4   7  10  18  39  72 106 137 172 218 272 333
#     4  10  21  38  62  93 128 164 200 237 281 336
#     4  11  25  44  62  84 113 150 197 248 299 346
#
# _framework density 19.605716999999999
#
# number of rings (size 3 to 8) (size 9 to 14) (size 15 to 20)
#    0.000    2.333    1.111    3.667    0.000    5.333 
#    0.000    0.556    0.000    0.000    0.000    3.111 
#    0.000    0.000    0.000    0.000    0.000    0.000 
#
# Total GULP energy -200944.982674 kJ/mol
# GULP energy per Si atom -5581.805074 kJ/mol
# Density = 1.956109 g / cm^3
# Si number density = 19.605717 Si / 1000 Ang^3
#
#
#
# Elastic Constant Matrix: (Units=GPa)
#
#
# Indices 1 2 3 4 5 6 
#
# 1 154.0206 30.5751 103.3582 0.0000 0.0000 0.0000
# 2 30.5751 34.8476 35.8420 0.0000 0.0000 0.0000
# 3 103.3582 35.8420 153.1445 0.0000 0.0000 0.0000
# 4 0.0000 0.0000 0.0000 17.1631 0.0000 0.0000
# 5 0.0000 0.0000 0.0000 0.0000 -23.4838 0.0000
# 6 0.0000 0.0000 0.0000 0.0000 0.0000 27.4332
#
#
#
# Elastic Compliance Matrix: (Units=1/GPa)
#
#
# Indices 1 2 3 4 5 6 
#
# 1 0.012089 -0.002917 -0.007476 0.000000 0.000000 0.000000
# 2 -0.002917 0.038498 -0.007041 0.000000 0.000000 0.000000
# 3 -0.007476 -0.007041 0.013223 0.000000 0.000000 0.000000
# 4 0.000000 0.000000 0.000000 0.058264 0.000000 0.000000
# 5 0.000000 0.000000 0.000000 0.000000 -0.042583 0.000000
# 6 0.000000 0.000000 0.000000 0.000000 0.000000 0.036452
#
#
# Mechanical properties :
#
#
# Convention : Reuss Voigt Hill
#
# Bulk Modulus (GPa) = 34.55287 75.72926 55.14106
# Shear Modulus (GPa) = 31.16046 15.70501 23.43274
#
# Velocity S-wave (km/s) = 3.99100 2.83334 3.46092
# Velocity P-wave (km/s) = 6.23695 7.02949 6.64505
#
# Compressibility (1/GPa) = 0.02894116
#
# Stress axis : x y z
#
# Youngs Moduli (GPa) = 82.72268 25.97530 75.62427
#
# Poissons Ratio (x) = 0.07578 0.56536
# Poissons Ratio (y) = 0.24132 0.53249
# Poissons Ratio (z) = 0.61843 0.18290
#
# Static dielectric constant tensor:
#      x y z
#    x 1.751610 0.000000 0.000000 
#    y 0.000000 1.661380 0.000000 
#    z 0.000000 0.000000 1.715080 
# 
# From -- ./inp_files/74664.got.cif
#   From: 2010.05.17/outbox.cif.g08.bks.cpg/sg65_38_cif.got.tgz:74664.got - 2010.06.03 17:01:31.
