data_PCOD9492078
_publ_section_title
;
Structure prediction by ZEFSAII (Michael W. Deem and Ramdas Pophale) SiO2 
 PCOD9492078
Probable space group: C M M M
;
_chemical_formula_sum "Si O2"
_cell_formula_units_Z 112
_cell_length_a 14.095474
_cell_length_b 28.496445
_cell_length_c 13.281943
_cell_angle_alpha 90.000000
_cell_angle_beta 90.000000
_cell_angle_gamma 90.000000
_cell_volume 5334.969993
_symmetry_space_group_name_H-M "C M M M"
_symmetry_group_IT_number 65
_symmetry_cell_setting 'orthorhombic'
loop_
_space_group_symop_operation_xyz
x,y,z
-x,-y,z
x,-y,-z
-x,y,-z
-x,-y,-z
x,y,-z
-x,y,z
x,-y,z
1/2+x,1/2+y,z
1/2-x,1/2-y,z
1/2+x,1/2-y,-z
1/2-x,1/2+y,-z
1/2-x,1/2-y,-z
1/2+x,1/2+y,-z
1/2-x,1/2+y,z
1/2+x,1/2-y,z
loop_
_atom_site_type_symbol
_atom_site_label
_atom_site_fract_x
_atom_site_fract_y
_atom_site_fract_z
Si Si1 0.891747 0.705509 0.607572
Si Si2 0.110752 0.070179 0.112296
Si Si3 0.725097 0.947441 0.739529
Si Si4 0.385663 0.876328 0.884156
Si Si5 0.388346 0.229058 0.168508
Si Si6 0.113259 0.171768 0.811210
Si Si7 0.218379 0.135287 0.611919
O O1 0.879825 0.731319 0.500000
O O2 0.879385 0.733487 0.710089
O O3 0.816062 0.664397 0.609670
O O4 0.000000 0.687576 0.611078
O O5 0.179595 0.049373 0.194404
O O6 0.125980 0.126303 0.119805
O O7 0.000000 0.061077 0.132534
O O8 0.132964 0.054291 0.000000
O O9 0.657762 0.913508 0.806470
O O10 0.754276 0.917732 0.641650
O O11 0.687895 0.000000 0.722269
O O12 0.500000 0.876933 0.874325
O O13 0.352764 0.822675 0.861112
O O14 0.361616 0.887823 0.000000
O O15 0.500000 0.227427 0.139421
O O16 0.350102 0.279986 0.137902
O O17 0.158437 0.157550 0.703581
O O18 0.000000 0.177780 0.796268
O O19 0.175212 0.138372 0.500000
#
# Coordination Sequence:
#
# PCOD9492078 Si02
#       7
#    16  16  16  16  16  16  16
#     4   9  17  31  52  75 102 140 184 225 262 306
#     4   9  19  37  58  80 108 141 181 228 275 327
#     4  11  23  39  59  81 108 141 183 236 289 336
#     4  10  21  37  57  83 115 149 185 225 274 333
#     4   9  17  32  53  78 112 150 183 217 260 317
#     4   9  19  34  54  82 115 148 182 221 268 325
#     4  10  21  37  57  81 109 144 184 228 277 330
#
# _framework density 20.993559000000001
#
# number of rings (size 3 to 8) (size 9 to 14) (size 15 to 20)
#    0.000    2.429    1.429    0.429    0.000    4.000 
#    0.000    7.143    0.000    2.571    0.000    7.000 
#    0.000    0.000    0.000    0.000    0.000    0.000 
#
# Total GULP energy -312403.899334 kJ/mol
# GULP energy per Si atom -5578.641060 kJ/mol
# Density = 2.094578 g / cm^3
# Si number density = 20.993559 Si / 1000 Ang^3
#
#
#
# Elastic Constant Matrix: (Units=GPa)
#
#
# Indices 1 2 3 4 5 6 
#
# 1 42.7837 12.0357 6.1933 0.0000 0.0000 0.0000
# 2 12.0357 140.6611 -0.3362 0.0000 0.0000 0.0000
# 3 6.1933 -0.3362 60.9698 0.0000 0.0000 0.0000
# 4 0.0000 0.0000 0.0000 -17.5034 0.0000 0.0000
# 5 0.0000 0.0000 0.0000 0.0000 21.8447 0.0000
# 6 0.0000 0.0000 0.0000 0.0000 0.0000 17.0551
#
#
#
# Elastic Compliance Matrix: (Units=1/GPa)
#
#
# Indices 1 2 3 4 5 6 
#
# 1 0.024320 -0.002087 -0.002482 0.000000 0.000000 0.000000
# 2 -0.002087 0.007288 0.000252 0.000000 0.000000 0.000000
# 3 -0.002482 0.000252 0.016655 0.000000 0.000000 0.000000
# 4 0.000000 0.000000 0.000000 -0.057132 0.000000 0.000000
# 5 0.000000 0.000000 0.000000 0.000000 0.045778 0.000000
# 6 0.000000 0.000000 0.000000 0.000000 0.000000 0.058633
#
#
# Mechanical properties :
#
#
# Convention : Reuss Voigt Hill
#
# Bulk Modulus (GPa) = 25.23337 31.13337 28.18337
# Shear Modulus (GPa) = 42.59467 19.38075 30.98771
#
# Velocity S-wave (km/s) = 4.50926 3.04168 3.84612
# Velocity P-wave (km/s) = 6.25755 5.21516 5.75998
#
# Compressibility (1/GPa) = 0.03963006
#
# Stress axis : x y z
#
# Youngs Moduli (GPa) = 41.11883 137.20332 60.04180
#
# Poissons Ratio (x) = 0.28632 0.14902
# Poissons Ratio (y) = 0.08581 -0.01514
# Poissons Ratio (z) = 0.10205 -0.03460
#
# Static dielectric constant tensor:
#      x y z
#    x 1.783500 0.000000 0.000000 
#    y 0.000000 1.817340 0.000000 
#    z 0.000000 0.000000 1.766160 
# 
# From -- ./inp_files/41056.got.cif
#   From: 2010.05.17/outbox.cif.g08.bks.cpg/sg65_21_cif.got.tgz:41056.got - 2010.06.03 17:01:31.
