data_PCOD9492160
_publ_section_title
;
Structure prediction by ZEFSAII (Michael W. Deem and Ramdas Pophale) SiO2 
 PCOD9492160
Probable space group: C M M M
;
_chemical_formula_sum "Si O2"
_cell_formula_units_Z 88
_cell_length_a 13.573475
_cell_length_b 25.193865
_cell_length_c 13.413964
_cell_angle_alpha 90.000000
_cell_angle_beta 90.000000
_cell_angle_gamma 90.000000
_cell_volume 4587.150421
_symmetry_space_group_name_H-M "C M M M"
_symmetry_group_IT_number 65
_symmetry_cell_setting 'orthorhombic'
loop_
_space_group_symop_operation_xyz
x,y,z
-x,-y,z
x,-y,-z
-x,y,-z
-x,-y,-z
x,y,-z
-x,y,z
x,-y,z
1/2+x,1/2+y,z
1/2-x,1/2-y,z
1/2+x,1/2-y,-z
1/2-x,1/2+y,-z
1/2-x,1/2-y,-z
1/2+x,1/2+y,-z
1/2-x,1/2+y,z
1/2+x,1/2-y,z
loop_
_atom_site_type_symbol
_atom_site_label
_atom_site_fract_x
_atom_site_fract_y
_atom_site_fract_z
Si Si1 0.619255 0.746778 0.000000
Si Si2 0.256020 0.381657 0.670181
Si Si3 0.384736 0.214155 0.611749
Si Si4 0.384248 0.061401 0.188178
Si Si5 0.119415 0.367999 0.000000
Si Si6 0.883196 0.063764 0.500000
Si Si7 0.117281 0.199105 0.214085
O O1 0.645723 0.719423 0.104397
O O2 0.500000 0.748305 0.000000
O O3 0.653852 0.807647 0.000000
O O4 0.186699 0.335950 0.622882
O O5 0.183189 0.424213 0.718935
O O6 0.329452 0.409459 0.593765
O O7 0.320786 0.351491 0.752907
O O8 0.372091 0.237656 0.500000
O O9 0.500000 0.198081 0.620542
O O10 0.366341 0.255759 0.700855
O O11 0.500000 0.071287 0.209595
O O12 0.374671 0.000000 0.158959
O O13 0.352944 0.099657 0.098160
O O14 0.000000 0.366828 0.000000
O O15 0.000000 0.075137 0.500000
O O16 0.870513 0.000000 0.500000
O O17 0.000000 0.188218 0.214275
#
# Coordination Sequence:
#
# PCOD9492160 Si02
#       7
#     8  16  16  16   8   8  16
#     4   9  18  36  56  84 123 158 197 235 286 349
#     4  12  22  38  61  87 114 152 200 242 303 353
#     4  10  21  37  57  86 122 156 194 234 285 351
#     4  10  21  37  58  86 119 155 199 248 296 350
#     4   9  17  33  59  85 120 165 197 230 284 349
#     4  11  26  46  64  83 111 149 200 260 312 359
#     4  10  22  37  58  87 123 164 198 240 288 349
#
# _framework density 19.184021999999999
#
# number of rings (size 3 to 8) (size 9 to 14) (size 15 to 20)
#    0.000    1.727    0.909    3.545    1.273    5.455 
#    0.000    2.727    0.000    2.182    0.000    0.000 
#    0.000   10.182    0.000    0.000    0.000    0.000 
#
# Total GULP energy -245899.148639 kJ/mol
# GULP energy per Si atom -5588.617015 kJ/mol
# Density = 1.914036 g / cm^3
# Si number density = 19.184022 Si / 1000 Ang^3
#
#
#
# Elastic Constant Matrix: (Units=GPa)
#
#
# Indices 1 2 3 4 5 6 
#
# 1 121.5434 52.9898 55.1157 0.0000 0.0000 0.0000
# 2 52.9898 94.7399 63.0390 0.0000 0.0000 0.0000
# 3 55.1157 63.0390 148.9056 0.0000 0.0000 0.0000
# 4 0.0000 0.0000 0.0000 31.5393 0.0000 0.0000
# 5 0.0000 0.0000 0.0000 0.0000 7.8912 0.0000
# 6 0.0000 0.0000 0.0000 0.0000 0.0000 32.9725
#
#
#
# Elastic Compliance Matrix: (Units=1/GPa)
#
#
# Indices 1 2 3 4 5 6 
#
# 1 0.011335 -0.004940 -0.002104 0.000000 0.000000 0.000000
# 2 -0.004940 0.016847 -0.005304 0.000000 0.000000 0.000000
# 3 -0.002104 -0.005304 0.009740 0.000000 0.000000 0.000000
# 4 0.000000 0.000000 0.000000 0.031706 0.000000 0.000000
# 5 0.000000 0.000000 0.000000 0.000000 0.126723 0.000000
# 6 0.000000 0.000000 0.000000 0.000000 0.000000 0.030328
#
#
# Mechanical properties :
#
#
# Convention : Reuss Voigt Hill
#
# Bulk Modulus (GPa) = 75.60597 78.60866 77.10732
# Shear Modulus (GPa) = 19.54759 27.41689 23.48224
#
# Velocity S-wave (km/s) = 3.19557 3.78451 3.50244
# Velocity P-wave (km/s) = 7.28780 7.75640 7.52575
#
# Compressibility (1/GPa) = 0.01322647
#
# Stress axis : x y z
#
# Youngs Moduli (GPa) = 88.21884 59.35657 102.66976
#
# Poissons Ratio (x) = 0.29322 0.21606
# Poissons Ratio (y) = 0.43579 0.54455
# Poissons Ratio (z) = 0.18565 0.31482
#
# Static dielectric constant tensor:
#      x y z
#    x 1.679550 0.000000 0.000000 
#    y 0.000000 1.633210 0.000000 
#    z 0.000000 0.000000 1.670150 
# 
# From -- ./inp_files/24872.got.cif
#   From: 2010.05.17/outbox.cif.g08.bks.cpg/sg65_13_cif.got.tgz:24872.got - 2010.06.03 17:01:31.
