data_PCOD9492789
_publ_section_title
;
Structure prediction by ZEFSAII (Michael W. Deem and Ramdas Pophale) SiO2 
 PCOD9492789
Probable space group: C M M M
;
_chemical_formula_sum "Si O2"
_cell_formula_units_Z 40
_cell_length_a 16.434018
_cell_length_b 7.433543
_cell_length_c 17.489494
_cell_angle_alpha 90.000000
_cell_angle_beta 90.000000
_cell_angle_gamma 90.000000
_cell_volume 2136.568696
_symmetry_space_group_name_H-M "C M M M"
_symmetry_group_IT_number 65
_symmetry_cell_setting 'orthorhombic'
loop_
_space_group_symop_operation_xyz
x,y,z
-x,-y,z
x,-y,-z
-x,y,-z
-x,-y,-z
x,y,-z
-x,y,z
x,-y,z
1/2+x,1/2+y,z
1/2-x,1/2-y,z
1/2+x,1/2-y,-z
1/2-x,1/2+y,-z
1/2-x,1/2-y,-z
1/2+x,1/2+y,-z
1/2-x,1/2+y,z
1/2+x,1/2-y,z
loop_
_atom_site_type_symbol
_atom_site_label
_atom_site_fract_x
_atom_site_fract_y
_atom_site_fract_z
Si Si1 0.596710 0.000000 0.121291
Si Si2 0.099809 0.500000 0.294827
Si Si3 0.654149 0.713986 0.000000
Si Si4 0.099199 0.793141 0.584941
O O1 0.629207 0.000000 0.207795
O O2 0.621309 0.177022 0.073462
O O3 0.500000 0.000000 0.125299
O O4 0.126072 0.329307 0.345161
O O5 0.000000 0.500000 0.292885
O O6 0.750000 0.750000 0.000000
O O7 0.636864 0.500000 0.000000
O O8 0.124565 0.729976 0.500000
O O9 0.000000 0.788745 0.584786
O O10 0.123815 0.000000 0.593744
#
# Coordination Sequence:
#
# PCOD9492789 Si02
#       4
#     8   8   8  16
#     4  10  22  36  54  88 115 133 176 226 268 324
#     4   9  16  26  40  63 103 137 161 208 264 301
#     4  11  21  39  62  77 100 141 177 216 269 329
#     4   8  13  21  35  57  90 136 179 204 238 300
#
# _framework density 18.721606999999999
#
# number of rings (size 3 to 8) (size 9 to 14) (size 15 to 20)
#    0.000    2.800    2.000    3.000    0.000    5.600 
#    0.000    4.000    0.000    0.000    0.000    0.000 
#    0.000    6.400    0.000    0.000    0.000    0.000 
#
# Total GULP energy -111442.133205 kJ/mol
# GULP energy per Si atom -5572.106660 kJ/mol
# Density = 1.867900 g / cm^3
# Si number density = 18.721607 Si / 1000 Ang^3
#
#
#
# Elastic Constant Matrix: (Units=GPa)
#
#
# Indices 1 2 3 4 5 6 
#
# 1 20.3820 9.7497 16.5234 0.0000 0.0000 0.0000
# 2 9.7497 164.4519 114.3646 0.0000 0.0000 0.0000
# 3 16.5234 114.3646 222.7160 0.0000 0.0000 0.0000
# 4 0.0000 0.0000 0.0000 34.6399 0.0000 0.0000
# 5 0.0000 0.0000 0.0000 0.0000 -15.8006 0.0000
# 6 0.0000 0.0000 0.0000 0.0000 0.0000 15.6359
#
#
#
# Elastic Compliance Matrix: (Units=1/GPa)
#
#
# Indices 1 2 3 4 5 6 
#
# 1 0.052244 -0.000625 -0.003555 0.000000 0.000000 0.000000
# 2 -0.000625 0.009466 -0.004814 0.000000 0.000000 0.000000
# 3 -0.003555 -0.004814 0.007226 0.000000 0.000000 0.000000
# 4 0.000000 0.000000 0.000000 0.028868 0.000000 0.000000
# 5 0.000000 0.000000 0.000000 0.000000 -0.063289 0.000000
# 6 0.000000 0.000000 0.000000 0.000000 0.000000 0.063955
#
#
# Mechanical properties :
#
#
# Convention : Reuss Voigt Hill
#
# Bulk Modulus (GPa) = 19.62829 76.53613 48.08221
# Shear Modulus (GPa) = 37.46953 24.68922 31.07937
#
# Velocity S-wave (km/s) = 4.47856 3.63541 4.07883
# Velocity P-wave (km/s) = 6.10331 7.65451 6.92250
#
# Compressibility (1/GPa) = 0.05094688
#
# Stress axis : x y z
#
# Youngs Moduli (GPa) = 19.14098 105.64221 138.39020
#
# Poissons Ratio (x) = 0.06603 0.49198
# Poissons Ratio (y) = 0.01196 0.66626
# Poissons Ratio (z) = 0.06805 0.50860
#
# Static dielectric constant tensor:
#      x y z
#    x 1.658230 0.000000 0.000000 
#    y 0.000000 1.634200 0.000000 
#    z 0.000000 0.000000 1.662970 
# 
# From -- ./inp_files/39137.got.cif
#   From: 2010.05.17/outbox.cif.g08.bks.cpg/sg65_20_cif.got.tgz:39137.got - 2010.06.03 17:01:31.
