data_PCOD9492602
_publ_section_title
;
Structure prediction by ZEFSAII (Michael W. Deem and Ramdas Pophale) SiO2 
 PCOD9492602
Probable space group: C M M M
;
_chemical_formula_sum "Si O2"
_cell_formula_units_Z 72
_cell_length_a 17.311255
_cell_length_b 25.198000
_cell_length_c 8.438350
_cell_angle_alpha 90.000000
_cell_angle_beta 90.000000
_cell_angle_gamma 90.000000
_cell_volume 3680.884245
_symmetry_space_group_name_H-M "C M M M"
_symmetry_group_IT_number 65
_symmetry_cell_setting 'orthorhombic'
loop_
_space_group_symop_operation_xyz
x,y,z
-x,-y,z
x,-y,-z
-x,y,-z
-x,-y,-z
x,y,-z
-x,y,z
x,-y,z
1/2+x,1/2+y,z
1/2-x,1/2-y,z
1/2+x,1/2-y,-z
1/2-x,1/2+y,-z
1/2-x,1/2-y,-z
1/2+x,1/2+y,-z
1/2-x,1/2+y,z
1/2+x,1/2-y,z
loop_
_atom_site_type_symbol
_atom_site_label
_atom_site_fract_x
_atom_site_fract_y
_atom_site_fract_z
Si Si1 0.000000 0.060973 0.689070
Si Si2 0.914923 0.737336 0.808513
Si Si3 0.123708 0.143540 0.188870
Si Si4 0.202644 0.348312 0.310025
Si Si5 0.587433 0.060144 0.693035
O O1 0.074501 0.095085 0.741765
O O2 0.000000 0.058641 0.500000
O O3 0.000000 0.000000 0.749576
O O4 0.909370 0.798995 0.761239
O O5 0.843931 0.704375 0.738919
O O6 0.000000 0.716591 0.759564
O O7 0.910415 0.734749 0.000000
O O8 0.213019 0.145051 0.237559
O O9 0.116678 0.140563 0.000000
O O10 0.209289 0.349591 0.500000
O O11 0.148615 0.396787 0.253909
O O12 0.587130 0.060923 0.500000
O O13 0.500000 0.072429 0.744779
O O14 0.606132 0.000000 0.741586
#
# Coordination Sequence:
#
# PCOD9492602 Si02
#       5
#     8  16  16  16  16
#     4  11  25  45  69  95 121 153 198 257 318 367
#     4  10  21  39  60  83 116 160 203 245 301 366
#     4  11  23  42  63  85 117 160 203 244 297 367
#     4  11  22  34  55  91 123 152 197 253 308 361
#     4   8  15  30  51  75 109 151 190 232 287 348
#
# _framework density 19.560517999999998
#
# number of rings (size 3 to 8) (size 9 to 14) (size 15 to 20)
#    0.000    1.889    1.111    3.667    0.000    7.556 
#    0.000    2.222    0.000    2.000    0.000    7.778 
#    0.000    0.000    0.000    0.000    0.000    0.000 
#
# Total GULP energy -201059.921682 kJ/mol
# GULP energy per Si atom -5584.997824 kJ/mol
# Density = 1.951600 g / cm^3
# Si number density = 19.560518 Si / 1000 Ang^3
#
#
#
# Elastic Constant Matrix: (Units=GPa)
#
#
# Indices 1 2 3 4 5 6 
#
# 1 145.2952 83.4955 19.5428 0.0000 0.0000 0.0000
# 2 83.4955 140.5510 24.6845 0.0000 0.0000 0.0000
# 3 19.5428 24.6845 21.7147 0.0000 0.0000 0.0000
# 4 0.0000 0.0000 0.0000 42.0113 0.0000 0.0000
# 5 0.0000 0.0000 0.0000 0.0000 30.1654 0.0000
# 6 0.0000 0.0000 0.0000 0.0000 0.0000 -13.1490
#
#
#
# Elastic Compliance Matrix: (Units=1/GPa)
#
#
# Indices 1 2 3 4 5 6 
#
# 1 0.010602 -0.005775 -0.002976 0.000000 0.000000 0.000000
# 2 -0.005775 0.012036 -0.008484 0.000000 0.000000 0.000000
# 3 -0.002976 -0.008484 0.058375 0.000000 0.000000 0.000000
# 4 0.000000 0.000000 0.000000 0.023803 0.000000 0.000000
# 5 0.000000 0.000000 0.000000 0.000000 0.033151 0.000000
# 6 0.000000 0.000000 0.000000 0.000000 0.000000 -0.076051
#
#
# Mechanical properties :
#
#
# Convention : Reuss Voigt Hill
#
# Bulk Modulus (GPa) = 21.48646 62.55629 42.02138
# Shear Modulus (GPa) = 44.68292 23.79474 34.23883
#
# Velocity S-wave (km/s) = 4.78466 3.49157 4.18832
# Velocity P-wave (km/s) = 6.44457 6.95019 6.70215
#
# Compressibility (1/GPa) = 0.04654094
#
# Stress axis : x y z
#
# Youngs Moduli (GPa) = 94.32439 83.08554 17.13070
#
# Poissons Ratio (x) = 0.47985 0.05098
# Poissons Ratio (y) = 0.54476 0.14534
# Poissons Ratio (z) = 0.28072 0.70491
#
# Static dielectric constant tensor:
#      x y z
#    x 1.672700 0.000000 0.000000 
#    y 0.000000 1.691350 0.000000 
#    z 0.000000 0.000000 1.672520 
# 
# From -- ./inp_files/7310.got.cif
#   From: 2010.05.17/outbox.cif.g08.bks.cpg/sg65_4_cif.got.tgz:7310.got - 2010.06.03 17:01:31.
