data_PCOD9492144
_publ_section_title
;
Structure prediction by ZEFSAII (Michael W. Deem and Ramdas Pophale) SiO2 
 PCOD9492144
Probable space group: C M M M
;
_chemical_formula_sum "Si O2"
_cell_formula_units_Z 72
_cell_length_a 18.421720
_cell_length_b 8.635725
_cell_length_c 23.678435
_cell_angle_alpha 90.000000
_cell_angle_beta 90.000000
_cell_angle_gamma 90.000000
_cell_volume 3766.881652
_symmetry_space_group_name_H-M "C M M M"
_symmetry_group_IT_number 65
_symmetry_cell_setting 'orthorhombic'
loop_
_space_group_symop_operation_xyz
x,y,z
-x,-y,z
x,-y,-z
-x,y,-z
-x,-y,-z
x,y,-z
-x,y,z
x,-y,z
1/2+x,1/2+y,z
1/2-x,1/2-y,z
1/2+x,1/2-y,-z
1/2-x,1/2+y,-z
1/2-x,1/2-y,-z
1/2+x,1/2+y,-z
1/2-x,1/2+y,z
1/2+x,1/2-y,z
loop_
_atom_site_type_symbol
_atom_site_label
_atom_site_fract_x
_atom_site_fract_y
_atom_site_fract_z
Si Si1 0.414763 0.314007 0.609027
Si Si2 0.831591 0.684994 0.500000
Si Si3 0.168625 0.315237 0.282371
Si Si4 0.330809 0.313156 0.063457
Si Si5 0.915653 0.812561 0.825279
O O1 0.500000 0.273559 0.607499
O O2 0.408634 0.500000 0.607809
O O3 0.373629 0.244824 0.555183
O O4 0.377920 0.250992 0.665703
O O5 0.829314 0.500000 0.500000
O O6 0.750000 0.750000 0.500000
O O7 0.170594 0.500000 0.285382
O O8 0.250000 0.250000 0.285557
O O9 0.131462 0.261166 0.224326
O O10 0.327846 0.500000 0.063756
O O11 0.250000 0.250000 0.073975
O O12 0.383984 0.265671 0.113747
O O13 0.352885 0.264067 0.000000
O O14 0.000000 0.770158 0.819699
O O15 0.910494 0.000000 0.820948
#
# Coordination Sequence:
#
# PCOD9492144 Si02
#       5
#    16   8  16  16  16
#     4  11  24  43  66  92 124 159 196 241 294 348
#     4  12  25  42  65  93 127 163 203 246 289 342
#     4  12  25  41  62  87 117 153 196 243 292 348
#     4   9  18  33  54  80 110 147 191 237 286 342
#     4  10  21  37  57  83 116 152 191 238 292 348
#
# _framework density 19.113952999999999
#
# number of rings (size 3 to 8) (size 9 to 14) (size 15 to 20)
#    0.000    1.333    0.000    6.000    0.000    9.333 
#    0.000    2.222    0.000    0.000    0.000    4.667 
#    0.000    0.000    0.000    0.000    0.000    0.000 
#
# Total GULP energy -201351.417386 kJ/mol
# GULP energy per Si atom -5593.094927 kJ/mol
# Density = 1.907045 g / cm^3
# Si number density = 19.113953 Si / 1000 Ang^3
#
#
#
# Elastic Constant Matrix: (Units=GPa)
#
#
# Indices 1 2 3 4 5 6 
#
# 1 187.2199 75.1012 110.3980 0.0000 0.0000 0.0000
# 2 75.1012 79.1343 58.9851 0.0000 0.0000 0.0000
# 3 110.3980 58.9851 163.5444 0.0000 0.0000 0.0000
# 4 0.0000 0.0000 0.0000 -74.1236 0.0000 0.0000
# 5 0.0000 0.0000 0.0000 0.0000 112.8425 0.0000
# 6 0.0000 0.0000 0.0000 0.0000 0.0000 30.7202
#
#
#
# Elastic Compliance Matrix: (Units=1/GPa)
#
#
# Indices 1 2 3 4 5 6 
#
# 1 0.010967 -0.006688 -0.004991 0.000000 0.000000 0.000000
# 2 -0.006688 0.021361 -0.003190 0.000000 0.000000 0.000000
# 3 -0.004991 -0.003190 0.010634 0.000000 0.000000 0.000000
# 4 0.000000 0.000000 0.000000 -0.013491 0.000000 0.000000
# 5 0.000000 0.000000 0.000000 0.000000 0.008862 0.000000
# 6 0.000000 0.000000 0.000000 0.000000 0.000000 0.032552
#
#
# Mechanical properties :
#
#
# Convention : Reuss Voigt Hill
#
# Bulk Modulus (GPa) = 75.61368 102.09635 88.85501
# Shear Modulus (GPa) = 47.60462 26.24878 36.92670
#
# Velocity S-wave (km/s) = 4.99597 3.70980 4.40013
# Velocity P-wave (km/s) = 8.53961 8.47825 8.50898
#
# Compressibility (1/GPa) = 0.01322512
#
# Stress axis : x y z
#
# Youngs Moduli (GPa) = 91.18047 46.81327 94.03661
#
# Poissons Ratio (x) = 0.31309 0.46935
# Poissons Ratio (y) = 0.60982 0.29995
# Poissons Ratio (z) = 0.45509 0.14932
#
# Static dielectric constant tensor:
#      x y z
#    x 1.624810 0.000000 0.000000 
#    y 0.000000 1.642390 0.000000 
#    z 0.000000 0.000000 1.645550 
# 
# From -- ./inp_files/70301.got.cif
#   From: 2010.05.17/outbox.cif.g08.bks.cpg/sg65_36_cif.got.tgz:70301.got - 2010.06.03 17:01:31.
