data_PCOD9492336
_publ_section_title
;
Structure prediction by ZEFSAII (Michael W. Deem and Ramdas Pophale) SiO2 
 PCOD9492336
Probable space group: C M M M
;
_chemical_formula_sum "Si O2"
_cell_formula_units_Z 72
_cell_length_a 19.503111
_cell_length_b 22.050891
_cell_length_c 7.640852
_cell_angle_alpha 90.000000
_cell_angle_beta 90.000000
_cell_angle_gamma 90.000000
_cell_volume 3286.032260
_symmetry_space_group_name_H-M "C M M M"
_symmetry_group_IT_number 65
_symmetry_cell_setting 'orthorhombic'
loop_
_space_group_symop_operation_xyz
x,y,z
-x,-y,z
x,-y,-z
-x,y,-z
-x,-y,-z
x,y,-z
-x,y,z
x,-y,z
1/2+x,1/2+y,z
1/2-x,1/2-y,z
1/2+x,1/2-y,-z
1/2-x,1/2+y,-z
1/2-x,1/2-y,-z
1/2+x,1/2+y,-z
1/2-x,1/2+y,z
1/2+x,1/2-y,z
loop_
_atom_site_type_symbol
_atom_site_label
_atom_site_fract_x
_atom_site_fract_y
_atom_site_fract_z
Si Si1 0.581488 0.069377 0.500000
Si Si2 0.652589 0.854319 0.797900
Si Si3 0.923007 0.236461 0.209484
Si Si4 0.276442 0.433073 0.712775
Si Si5 0.925051 0.902532 0.702621
O O1 0.500000 0.071290 0.500000
O O2 0.610375 0.102614 0.330017
O O3 0.604925 0.000000 0.500000
O O4 0.634350 0.785599 0.742874
O O5 0.730064 0.878240 0.781154
O O6 0.631008 0.859866 0.000000
O O7 0.917034 0.170375 0.292169
O O8 0.000000 0.260288 0.251811
O O9 0.920053 0.227352 0.000000
O O10 0.276104 0.429142 0.500000
O O11 0.249232 0.500000 0.761153
O O12 0.354731 0.428352 0.776677
O O13 0.927363 0.922041 0.500000
O O14 0.000000 0.916927 0.780849
#
# Coordination Sequence:
#
# PCOD9492336 Si02
#       5
#     8  16  16  16  16
#     4  11  24  40  60  87 119 159 204 251 301 349
#     4  11  23  39  61  89 121 159 202 245 297 359
#     4   9  19  36  57  83 117 154 192 242 301 355
#     4  10  21  38  58  82 119 162 202 249 303 356
#     4   9  19  35  58  88 117 152 199 248 301 361
#
# _framework density 21.910924000000001
#
# number of rings (size 3 to 8) (size 9 to 14) (size 15 to 20)
#    0.000    2.111    1.111    1.333    1.556    5.333 
#    0.000    7.778    0.000    0.000    0.000    4.667 
#    0.000    0.000    0.000    0.000    0.000    0.000 
#
# Total GULP energy -201048.546714 kJ/mol
# GULP energy per Si atom -5584.681853 kJ/mol
# Density = 2.186105 g / cm^3
# Si number density = 21.910924 Si / 1000 Ang^3
#
#
#
# Elastic Constant Matrix: (Units=GPa)
#
#
# Indices 1 2 3 4 5 6 
#
# 1 108.9492 31.2148 2.0673 0.0000 0.0000 0.0000
# 2 31.2148 72.9764 6.2735 0.0000 0.0000 0.0000
# 3 2.0673 6.2735 68.1058 0.0000 0.0000 0.0000
# 4 0.0000 0.0000 0.0000 32.6678 0.0000 0.0000
# 5 0.0000 0.0000 0.0000 0.0000 8.5931 0.0000
# 6 0.0000 0.0000 0.0000 0.0000 0.0000 34.3842
#
#
#
# Elastic Compliance Matrix: (Units=1/GPa)
#
#
# Indices 1 2 3 4 5 6 
#
# 1 0.010461 -0.004483 0.000095 0.000000 0.000000 0.000000
# 2 -0.004483 0.015733 -0.001313 0.000000 0.000000 0.000000
# 3 0.000095 -0.001313 0.014801 0.000000 0.000000 0.000000
# 4 0.000000 0.000000 0.000000 0.030611 0.000000 0.000000
# 5 0.000000 0.000000 0.000000 0.000000 0.116372 0.000000
# 6 0.000000 0.000000 0.000000 0.000000 0.000000 0.029083
#
#
# Mechanical properties :
#
#
# Convention : Reuss Voigt Hill
#
# Bulk Modulus (GPa) = 33.79016 36.57140 35.18078
# Shear Modulus (GPa) = 20.97945 29.16075 25.07010
#
# Velocity S-wave (km/s) = 3.09769 3.65208 3.38625
# Velocity P-wave (km/s) = 5.31501 5.87458 5.60179
#
# Compressibility (1/GPa) = 0.02959441
#
# Stress axis : x y z
#
# Youngs Moduli (GPa) = 95.59175 63.55892 67.56250
#
# Poissons Ratio (x) = 0.28492 -0.00644
# Poissons Ratio (y) = 0.42852 0.08872
# Poissons Ratio (z) = -0.00912 0.08346
#
# Static dielectric constant tensor:
#      x y z
#    x 1.836070 0.000000 0.000000 
#    y 0.000000 1.773410 0.000000 
#    z 0.000000 0.000000 1.811280 
# 
# From -- ./inp_files/11245.got.cif
#   From: 2010.05.17/outbox.cif.g08.bks.cpg/sg65_6_cif.got.tgz:11245.got - 2010.06.03 17:01:31.
