data_PCOD9492209
_publ_section_title
;
Structure prediction by ZEFSAII (Michael W. Deem and Ramdas Pophale) SiO2 
 PCOD9492209
Probable space group: C M M M
;
_chemical_formula_sum "Si O2"
_cell_formula_units_Z 88
_cell_length_a 21.571307
_cell_length_b 8.559530
_cell_length_c 24.367051
_cell_angle_alpha 90.000000
_cell_angle_beta 90.000000
_cell_angle_gamma 90.000000
_cell_volume 4499.138374
_symmetry_space_group_name_H-M "C M M M"
_symmetry_group_IT_number 65
_symmetry_cell_setting 'orthorhombic'
loop_
_space_group_symop_operation_xyz
x,y,z
-x,-y,z
x,-y,-z
-x,y,-z
-x,-y,-z
x,y,-z
-x,y,z
x,-y,z
1/2+x,1/2+y,z
1/2-x,1/2-y,z
1/2+x,1/2-y,-z
1/2-x,1/2+y,-z
1/2-x,1/2-y,-z
1/2+x,1/2+y,-z
1/2-x,1/2+y,z
1/2+x,1/2-y,z
loop_
_atom_site_type_symbol
_atom_site_label
_atom_site_fract_x
_atom_site_fract_y
_atom_site_fract_z
Si Si1 0.069751 0.187137 0.135926
Si Si2 0.817050 0.312883 0.064166
Si Si3 0.430936 0.187040 0.259671
Si Si4 0.686113 0.313885 0.674900
Si Si5 0.500000 0.676356 0.433543
Si Si6 0.864312 0.191495 0.562170
O O1 0.125207 0.247667 0.098185
O O2 0.075080 0.259829 0.196548
O O3 0.000000 0.226673 0.115193
O O4 0.073642 0.000000 0.140325
O O5 0.816658 0.500000 0.067664
O O6 0.750000 0.250000 0.083413
O O7 0.823456 0.267363 0.000000
O O8 0.500000 0.237312 0.278990
O O9 0.374771 0.258100 0.293655
O O10 0.428065 0.000000 0.262570
O O11 0.687797 0.500000 0.675721
O O12 0.750000 0.250000 0.698956
O O13 0.679683 0.260318 0.611433
O O14 0.500000 0.500000 0.410351
O O15 0.500000 0.663077 0.500000
O O16 0.566465 0.749291 0.421576
O O17 0.849035 0.241390 0.500000
O O18 0.867229 0.000000 0.561030
#
# Coordination Sequence:
#
# PCOD9492209 Si02
#       6
#    16  16  16  16   8  16
#     4  10  21  38  61  89 119 151 192 240 289 342
#     4  10  21  37  58  86 122 163 204 243 285 336
#     4  10  22  41  63  85 112 146 186 236 292 346
#     4  11  23  37  56  82 114 148 188 233 280 339
#     4   7  10  20  40  68  99 127 163 211 258 309
#     4   8  15  28  48  76 108 141 178 223 275 332
#
# _framework density 19.559298999999999
#
# number of rings (size 3 to 8) (size 9 to 14) (size 15 to 20)
#    0.000    2.455    0.000    3.273    1.273    4.727 
#    0.000    5.455    0.000    1.636    0.000    1.273 
#    0.000    0.000    0.000    0.000    0.000    0.000 
#
# Total GULP energy -245473.985160 kJ/mol
# GULP energy per Si atom -5578.954208 kJ/mol
# Density = 1.951478 g / cm^3
# Si number density = 19.559299 Si / 1000 Ang^3
#
#
#
# Elastic Constant Matrix: (Units=GPa)
#
#
# Indices 1 2 3 4 5 6 
#
# 1 187.9982 44.8390 76.3349 0.0000 0.0000 0.0000
# 2 44.8390 42.3613 22.3436 0.0000 0.0000 0.0000
# 3 76.3349 22.3436 62.9403 0.0000 0.0000 0.0000
# 4 0.0000 0.0000 0.0000 11.6116 0.0000 0.0000
# 5 0.0000 0.0000 0.0000 0.0000 21.5284 0.0000
# 6 0.0000 0.0000 0.0000 0.0000 0.0000 27.1913
#
#
#
# Elastic Compliance Matrix: (Units=1/GPa)
#
#
# Indices 1 2 3 4 5 6 
#
# 1 0.011591 -0.005972 -0.011937 0.000000 0.000000 0.000000
# 2 -0.005972 0.032122 -0.004160 0.000000 0.000000 0.000000
# 3 -0.011937 -0.004160 0.031842 0.000000 0.000000 0.000000
# 4 0.000000 0.000000 0.000000 0.086121 0.000000 0.000000
# 5 0.000000 0.000000 0.000000 0.000000 0.046450 0.000000
# 6 0.000000 0.000000 0.000000 0.000000 0.000000 0.036777
#
#
# Mechanical properties :
#
#
# Convention : Reuss Voigt Hill
#
# Bulk Modulus (GPa) = 31.83053 64.48167 48.15610
# Shear Modulus (GPa) = 16.69373 22.05174 19.37274
#
# Velocity S-wave (km/s) = 2.92463 3.36137 3.15057
# Velocity P-wave (km/s) = 5.26439 6.93570 6.15702
#
# Compressibility (1/GPa) = 0.03141638
#
# Stress axis : x y z
#
# Youngs Moduli (GPa) = 86.27702 31.13110 31.40470
#
# Poissons Ratio (x) = 0.18592 0.37488
# Poissons Ratio (y) = 0.51527 0.13065
# Poissons Ratio (z) = 1.02990 0.12951
#
# Static dielectric constant tensor:
#      x y z
#    x 1.700040 0.000000 0.000000 
#    y 0.000000 1.658320 0.000000 
#    z 0.000000 0.000000 1.676190 
# 
# From -- ./inp_files/70994.got.cif
#   From: 2010.05.17/outbox.cif.g08.bks.cpg/sg65_36_cif.got.tgz:70994.got - 2010.06.03 17:01:31.
