data_PCOD9492447
_publ_section_title
;
Structure prediction by ZEFSAII (Michael W. Deem and Ramdas Pophale) SiO2 
 PCOD9492447
Probable space group: C M M M
;
_chemical_formula_sum "Si O2"
_cell_formula_units_Z 96
_cell_length_a 14.742434
_cell_length_b 21.457566
_cell_length_c 16.700806
_cell_angle_alpha 90.000000
_cell_angle_beta 90.000000
_cell_angle_gamma 90.000000
_cell_volume 5283.078702
_symmetry_space_group_name_H-M "C M M M"
_symmetry_group_IT_number 65
_symmetry_cell_setting 'orthorhombic'
loop_
_space_group_symop_operation_xyz
x,y,z
-x,-y,z
x,-y,-z
-x,y,-z
-x,-y,-z
x,y,-z
-x,y,z
x,-y,z
1/2+x,1/2+y,z
1/2-x,1/2-y,z
1/2+x,1/2-y,-z
1/2-x,1/2+y,-z
1/2-x,1/2-y,-z
1/2+x,1/2+y,-z
1/2-x,1/2+y,z
1/2+x,1/2-y,z
loop_
_atom_site_type_symbol
_atom_site_label
_atom_site_fract_x
_atom_site_fract_y
_atom_site_fract_z
Si Si1 0.104808 0.780466 0.663574
Si Si2 0.899992 0.573467 0.671221
Si Si3 0.719635 0.167247 0.593388
Si Si4 0.890685 0.617417 0.000000
Si Si5 0.107610 0.237301 0.000000
Si Si6 0.321454 0.693521 0.831341
Si Si7 0.198145 0.572792 0.163524
O O1 0.176213 0.827139 0.620949
O O2 0.155688 0.715380 0.642946
O O3 0.110267 0.795789 0.757839
O O4 0.000000 0.781080 0.637132
O O5 0.903952 0.500000 0.659472
O O6 0.823982 0.601813 0.614678
O O7 0.871174 0.583957 0.763243
O O8 0.000000 0.600369 0.655583
O O9 0.712351 0.181950 0.500000
O O10 0.851053 0.585678 0.920648
O O11 0.860877 0.690334 0.000000
O O12 0.000000 0.614346 0.000000
O O13 0.139148 0.203644 0.080465
O O14 0.000000 0.239670 0.000000
O O15 0.250000 0.750000 0.820550
O O16 0.274895 0.625723 0.826425
O O17 0.227680 0.500000 0.167328
#
# Coordination Sequence:
#
# PCOD9492447 Si02
#       7
#    16  16  16   8   8  16  16
#     4  11  22  38  62  88 117 156 196 241 299 354
#     4  10  21  38  60  86 120 160 195 235 295 365
#     4  11  23  39  59  89 123 150 191 251 302 360
#     4  11  22  34  54  88 123 160 197 239 293 353
#     4  11  24  36  55  89 123 157 201 246 290 344
#     4  12  20  39  61  84 118 158 200 246 289 350
#     4  11  22  37  58  85 119 158 199 246 296 351
#
# _framework density 18.171223000000001
#
# number of rings (size 3 to 8) (size 9 to 14) (size 15 to 20)
#    0.000    1.000    5.000    3.500    0.000    4.000 
#    0.000    0.833    0.000    4.000    0.000    1.167 
#    0.000    0.000    0.000    0.000    0.000    0.000 
#
# Total GULP energy -267907.803233 kJ/mol
# GULP energy per Si atom -5581.412567 kJ/mol
# Density = 1.812986 g / cm^3
# Si number density = 18.171223 Si / 1000 Ang^3
#
#
#
# Elastic Constant Matrix: (Units=GPa)
#
#
# Indices 1 2 3 4 5 6 
#
# 1 120.3522 37.3961 35.1873 0.0000 0.0000 0.0000
# 2 37.3961 73.6844 24.9955 0.0000 0.0000 0.0000
# 3 35.1873 24.9955 98.3452 0.0000 0.0000 0.0000
# 4 0.0000 0.0000 0.0000 36.7766 0.0000 0.0000
# 5 0.0000 0.0000 0.0000 0.0000 3.6744 0.0000
# 6 0.0000 0.0000 0.0000 0.0000 0.0000 26.0652
#
#
#
# Elastic Compliance Matrix: (Units=1/GPa)
#
#
# Indices 1 2 3 4 5 6 
#
# 1 0.010445 -0.004414 -0.002615 0.000000 0.000000 0.000000
# 2 -0.004414 0.016717 -0.002670 0.000000 0.000000 0.000000
# 3 -0.002615 -0.002670 0.011783 0.000000 0.000000 0.000000
# 4 0.000000 0.000000 0.000000 0.027191 0.000000 0.000000
# 5 0.000000 0.000000 0.000000 0.000000 0.272153 0.000000
# 6 0.000000 0.000000 0.000000 0.000000 0.000000 0.038365
#
#
# Mechanical properties :
#
#
# Convention : Reuss Voigt Hill
#
# Bulk Modulus (GPa) = 51.15848 54.17105 52.66477
# Shear Modulus (GPa) = 12.42027 26.29011 19.35519
#
# Velocity S-wave (km/s) = 2.61725 3.80781 3.26721
# Velocity P-wave (km/s) = 6.11130 7.01489 6.57863
#
# Compressibility (1/GPa) = 0.01954710
#
# Stress axis : x y z
#
# Youngs Moduli (GPa) = 95.73886 59.81904 84.87143
#
# Poissons Ratio (x) = 0.26403 0.22197
# Poissons Ratio (y) = 0.42258 0.22657
# Poissons Ratio (z) = 0.25039 0.15969
#
# Static dielectric constant tensor:
#      x y z
#    x 1.624030 0.000000 0.000000 
#    y 0.000000 1.648670 0.000000 
#    z 0.000000 0.000000 1.651650 
# 
# From -- ./inp_files/40432.got.cif
#   From: 2010.05.17/outbox.cif.g08.bks.cpg/sg65_21_cif.got.tgz:40432.got - 2010.06.03 17:01:31.
