data_PCOD9492704
_publ_section_title
;
Structure prediction by ZEFSAII (Michael W. Deem and Ramdas Pophale) SiO2 
 PCOD9492704
Probable space group: C M M M
;
_chemical_formula_sum "Si O2"
_cell_formula_units_Z 104
_cell_length_a 21.172080
_cell_length_b 30.646686
_cell_length_c 8.698747
_cell_angle_alpha 90.000000
_cell_angle_beta 90.000000
_cell_angle_gamma 90.000000
_cell_volume 5644.217549
_symmetry_space_group_name_H-M "C M M M"
_symmetry_group_IT_number 65
_symmetry_cell_setting 'orthorhombic'
loop_
_space_group_symop_operation_xyz
x,y,z
-x,-y,z
x,-y,-z
-x,y,-z
-x,-y,-z
x,y,-z
-x,y,z
x,-y,z
1/2+x,1/2+y,z
1/2-x,1/2-y,z
1/2+x,1/2-y,-z
1/2-x,1/2+y,-z
1/2-x,1/2-y,-z
1/2+x,1/2+y,-z
1/2-x,1/2+y,z
1/2+x,1/2-y,z
loop_
_atom_site_type_symbol
_atom_site_label
_atom_site_fract_x
_atom_site_fract_y
_atom_site_fract_z
Si Si1 0.138768 0.550448 0.186352
Si Si2 0.500000 0.052880 0.824072
Si Si3 0.858737 0.130899 0.180745
Si Si4 0.924243 0.950615 0.679917
Si Si5 0.779410 0.372049 0.682844
Si Si6 0.814004 0.275569 0.685681
Si Si7 0.571887 0.719510 0.185407
O O1 0.151352 0.500000 0.233351
O O2 0.189061 0.585606 0.241739
O O3 0.068324 0.564012 0.244338
O O4 0.136600 0.550376 0.000000
O O5 0.500000 0.000000 0.831327
O O6 0.500000 0.069396 0.000000
O O7 0.892605 0.085537 0.216294
O O8 0.793755 0.132048 0.273002
O O9 0.904231 0.170866 0.226126
O O10 0.844875 0.135118 0.000000
O O11 0.908541 0.942885 0.500000
O O12 0.000000 0.948378 0.693260
O O13 0.904632 0.000000 0.718827
O O14 0.785847 0.375712 0.500000
O O15 0.810404 0.326164 0.733352
O O16 0.814891 0.273932 0.500000
O O17 0.750000 0.250000 0.735736
O O18 0.876116 0.252274 0.748884
O O19 0.500000 0.726899 0.238678
O O20 0.572123 0.722611 0.000000
#
# Coordination Sequence:
#
# PCOD9492704 Si02
#       7
#    16   8  16  16  16  16  16
#     4   9  18  35  59  85 113 146 186 230 279 337
#     4   7  12  28  55  81 105 139 181 223 269 327
#     4  11  22  36  57  83 112 146 187 233 281 333
#     4   9  19  36  56  79 110 148 188 229 275 328
#     4  11  23  38  57  82 113 148 188 231 278 332
#     4  10  21  40  62  83 112 151 193 234 278 334
#     4  10  22  39  60  88 117 144 183 235 286 338
#
# _framework density 18.425937999999999
#
# number of rings (size 3 to 8) (size 9 to 14) (size 15 to 20)
#    0.000    2.231    1.538    2.769    0.000    4.615 
#    1.385    1.154    0.000    1.385    0.000    0.000 
#    0.000    0.000    0.000    0.000    0.000    0.000 
#
# Total GULP energy -290085.544329 kJ/mol
# GULP energy per Si atom -5578.568160 kJ/mol
# Density = 1.838400 g / cm^3
# Si number density = 18.425938 Si / 1000 Ang^3
#
#
#
# Elastic Constant Matrix: (Units=GPa)
#
#
# Indices 1 2 3 4 5 6 
#
# 1 118.1577 58.5364 18.1400 0.0000 0.0000 0.0000
# 2 58.5364 115.3829 27.7308 0.0000 0.0000 0.0000
# 3 18.1400 27.7308 10.6186 0.0000 0.0000 0.0000
# 4 0.0000 0.0000 0.0000 22.8646 0.0000 0.0000
# 5 0.0000 0.0000 0.0000 0.0000 22.3624 0.0000
# 6 0.0000 0.0000 0.0000 0.0000 0.0000 35.5437
#
#
#
# Elastic Compliance Matrix: (Units=1/GPa)
#
#
# Indices 1 2 3 4 5 6 
#
# 1 0.011867 -0.003083 -0.012220 0.000000 0.000000 0.000000
# 2 -0.003083 0.024077 -0.057611 0.000000 0.000000 0.000000
# 3 -0.012220 -0.057611 0.265503 0.000000 0.000000 0.000000
# 4 0.000000 0.000000 0.000000 0.043736 0.000000 0.000000
# 5 0.000000 0.000000 0.000000 0.000000 0.044718 0.000000
# 6 0.000000 0.000000 0.000000 0.000000 0.000000 0.028134
#
#
# Mechanical properties :
#
#
# Convention : Reuss Voigt Hill
#
# Bulk Modulus (GPa) = 6.42596 50.33038 28.37817
# Shear Modulus (GPa) = 8.12035 25.47092 16.79564
#
# Velocity S-wave (km/s) = 2.10157 3.72202 3.02242
# Velocity P-wave (km/s) = 3.06330 6.77093 5.25496
#
# Compressibility (1/GPa) = 0.15561885
#
# Stress axis : x y z
#
# Youngs Moduli (GPa) = 84.26805 41.53339 3.76643
#
# Poissons Ratio (x) = 0.12806 0.04603
# Poissons Ratio (y) = 0.25983 0.21699
# Poissons Ratio (z) = 1.02977 2.39277
#
# Static dielectric constant tensor:
#      x y z
#    x 1.630120 0.000000 0.000000 
#    y 0.000000 1.622900 0.000000 
#    z 0.000000 0.000000 1.632110 
# 
# From -- ./inp_files/12808.got.cif
#   From: 2010.05.17/outbox.cif.g08.bks.cpg/sg65_7_cif.got.tgz:12808.got - 2010.06.03 17:01:31.
