data_PCOD9492669
_publ_section_title
;
Structure prediction by ZEFSAII (Michael W. Deem and Ramdas Pophale) SiO2 
 PCOD9492669
Probable space group: C M M M
;
_chemical_formula_sum "Si O2"
_cell_formula_units_Z 84
_cell_length_a 23.684049
_cell_length_b 15.785405
_cell_length_c 12.017932
_cell_angle_alpha 90.000000
_cell_angle_beta 90.000000
_cell_angle_gamma 90.000000
_cell_volume 4493.051765
_symmetry_space_group_name_H-M "C M M M"
_symmetry_group_IT_number 65
_symmetry_cell_setting 'orthorhombic'
loop_
_space_group_symop_operation_xyz
x,y,z
-x,-y,z
x,-y,-z
-x,y,-z
-x,-y,-z
x,y,-z
-x,y,z
x,-y,z
1/2+x,1/2+y,z
1/2-x,1/2-y,z
1/2+x,1/2-y,-z
1/2-x,1/2+y,-z
1/2-x,1/2-y,-z
1/2+x,1/2+y,-z
1/2-x,1/2+y,z
1/2+x,1/2-y,z
loop_
_atom_site_type_symbol
_atom_site_label
_atom_site_fract_x
_atom_site_fract_y
_atom_site_fract_z
Si Si1 0.567725 0.000000 0.372960
Si Si2 0.761825 0.500000 0.000000
Si Si3 0.108255 0.339025 0.764232
Si Si4 0.181962 0.099434 0.625291
Si Si5 0.936014 0.180096 0.370490
Si Si6 0.262337 0.842887 0.179267
Si Si7 0.567641 0.097395 0.000000
O O1 0.588914 0.918181 0.308759
O O2 0.500000 0.000000 0.371135
O O3 0.587199 0.000000 0.500000
O O4 0.761303 0.423572 0.096783
O O5 0.079859 0.256775 0.710709
O O6 0.175540 0.336425 0.767661
O O7 0.088155 0.356044 0.889882
O O8 0.195600 0.131109 0.500000
O O9 0.114843 0.113706 0.641470
O O10 0.217069 0.143208 0.722347
O O11 0.194506 0.000000 0.628890
O O12 0.934597 0.209323 0.500000
O O13 0.000000 0.149630 0.349180
O O14 0.250000 0.750000 0.127833
O O15 0.500000 0.093104 0.000000
O O16 0.590390 0.000000 0.000000
#
# Coordination Sequence:
#
# PCOD9492669 Si02
#       7
#     8   4  16  16  16  16   8
#     4  11  23  37  56  87 127 170 210 252 310 380
#     4  12  26  44  68  92 128 164 222 272 310 388
#     4  12  23  38  61  86 126 165 212 257 312 378
#     4  10  22  42  66  95 129 165 210 265 325 390
#     4  10  21  39  64  93 124 161 209 264 319 377
#     4  12  25  44  66  97 129 171 216 267 328 384
#     4  11  23  38  57  81 116 161 207 255 301 359
#
# _framework density 18.695533000000001
#
# number of rings (size 3 to 8) (size 9 to 14) (size 15 to 20)
#    0.000    0.952    3.810    3.714    1.333    3.810 
#    0.000    1.905    0.000    0.000    0.000    0.667 
#    0.000    0.000    0.000    0.000    0.000    0.000 
#
# Total GULP energy -234045.834457 kJ/mol
# GULP energy per Si atom -5572.519868 kJ/mol
# Density = 1.865298 g / cm^3
# Si number density = 18.695533 Si / 1000 Ang^3
#
#
#
# Elastic Constant Matrix: (Units=GPa)
#
#
# Indices 1 2 3 4 5 6 
#
# 1 107.4929 6.6024 45.3516 0.0000 0.0000 0.0000
# 2 6.6024 87.3772 31.6493 0.0000 0.0000 0.0000
# 3 45.3516 31.6493 116.0394 0.0000 0.0000 0.0000
# 4 0.0000 0.0000 0.0000 36.4123 0.0000 0.0000
# 5 0.0000 0.0000 0.0000 0.0000 7.0902 0.0000
# 6 0.0000 0.0000 0.0000 0.0000 0.0000 25.0794
#
#
#
# Elastic Compliance Matrix: (Units=1/GPa)
#
#
# Indices 1 2 3 4 5 6 
#
# 1 0.011192 0.000820 -0.004598 0.000000 0.000000 0.000000
# 2 0.000820 0.012759 -0.003800 0.000000 0.000000 0.000000
# 3 -0.004598 -0.003800 0.011451 0.000000 0.000000 0.000000
# 4 0.000000 0.000000 0.000000 0.027463 0.000000 0.000000
# 5 0.000000 0.000000 0.000000 0.000000 0.141040 0.000000
# 6 0.000000 0.000000 0.000000 0.000000 0.000000 0.039873
#
#
# Mechanical properties :
#
#
# Convention : Reuss Voigt Hill
#
# Bulk Modulus (GPa) = 49.39294 53.12401 51.25847
# Shear Modulus (GPa) = 18.81926 28.87012 23.84469
#
# Velocity S-wave (km/s) = 3.17617 3.93393 3.57518
# Velocity P-wave (km/s) = 6.31884 7.00795 6.67230
#
# Compressibility (1/GPa) = 0.02024581
#
# Stress axis : x y z
#
# Youngs Moduli (GPa) = 89.34585 78.37447 87.32628
#
# Poissons Ratio (x) = -0.06424 0.40152
# Poissons Ratio (y) = -0.07324 0.33188
# Poissons Ratio (z) = 0.41080 0.29785
#
# Static dielectric constant tensor:
#      x y z
#    x 1.637290 0.000000 0.000000 
#    y 0.000000 1.638290 0.000000 
#    z 0.000000 0.000000 1.631400 
# 
# From -- ./inp_files/30567.got.cif
#   From: 2010.05.17/outbox.cif.g08.bks.cpg/sg65_16_cif.got.tgz:30567.got - 2010.06.03 17:01:31.
