data_PCOD9492219
_publ_section_title
;
Structure prediction by ZEFSAII (Michael W. Deem and Ramdas Pophale) SiO2 
 PCOD9492219
Probable space group: C M M M
;
_chemical_formula_sum "Si O2"
_cell_formula_units_Z 52
_cell_length_a 7.430309
_cell_length_b 28.613634
_cell_length_c 10.932767
_cell_angle_alpha 90.000000
_cell_angle_beta 90.000000
_cell_angle_gamma 90.000000
_cell_volume 2324.395281
_symmetry_space_group_name_H-M "C M M M"
_symmetry_group_IT_number 65
_symmetry_cell_setting 'orthorhombic'
loop_
_space_group_symop_operation_xyz
x,y,z
-x,-y,z
x,-y,-z
-x,y,-z
-x,-y,-z
x,y,-z
-x,y,z
x,-y,z
1/2+x,1/2+y,z
1/2-x,1/2-y,z
1/2+x,1/2-y,-z
1/2-x,1/2+y,-z
1/2-x,1/2-y,-z
1/2+x,1/2+y,-z
1/2-x,1/2+y,z
1/2+x,1/2-y,z
loop_
_atom_site_type_symbol
_atom_site_label
_atom_site_fract_x
_atom_site_fract_y
_atom_site_fract_z
Si Si1 0.280944 0.054819 0.864059
Si Si2 0.000000 0.667916 0.000000
Si Si3 0.282548 0.883809 0.635805
Si Si4 0.795275 0.804698 0.198634
O O1 0.500000 0.058780 0.866779
O O2 0.217019 0.083353 0.746845
O O3 0.238128 0.000000 0.851691
O O4 0.220705 0.070206 0.000000
O O5 0.843992 0.671687 0.106266
O O6 0.220473 0.896702 0.500000
O O7 0.500000 0.886501 0.635175
O O8 0.226914 0.831717 0.673850
O O9 0.750000 0.750000 0.205712
O O10 0.000000 0.809034 0.155862
#
# Coordination Sequence:
#
# PCOD9492219 Si02
#       4
#    16   4  16  16
#     4   8  15  29  53  86 123 165 214 268 324 380
#     4  12  24  44  64  98 133 162 213 264 322 382
#     4  10  21  37  58  88 127 174 221 266 318 379
#     4  12  25  41  65  95 128 171 210 265 320 379
#
# _framework density 22.371410000000001
#
# number of rings (size 3 to 8) (size 9 to 14) (size 15 to 20)
#    0.000    1.846    3.077    1.846    2.154    1.846 
#    0.000    3.077    0.000    0.923    0.000    4.308 
#    0.000    0.000    0.000    0.000    0.000    0.000 
#
# Total GULP energy -144860.756724 kJ/mol
# GULP energy per Si atom -5571.567566 kJ/mol
# Density = 2.232049 g / cm^3
# Si number density = 22.371410 Si / 1000 Ang^3
#
#
#
# Elastic Constant Matrix: (Units=GPa)
#
#
# Indices 1 2 3 4 5 6 
#
# 1 146.1730 15.9724 39.5148 0.0000 0.0000 0.0000
# 2 15.9724 66.8998 65.4722 0.0000 0.0000 0.0000
# 3 39.5148 65.4722 205.0084 0.0000 0.0000 0.0000
# 4 0.0000 0.0000 0.0000 -45.2424 0.0000 0.0000
# 5 0.0000 0.0000 0.0000 0.0000 14.0570 0.0000
# 6 0.0000 0.0000 0.0000 0.0000 0.0000 -7.1686
#
#
#
# Elastic Compliance Matrix: (Units=1/GPa)
#
#
# Indices 1 2 3 4 5 6 
#
# 1 0.007230 -0.000527 -0.001225 0.000000 0.000000 0.000000
# 2 -0.000527 0.021782 -0.006855 0.000000 0.000000 0.000000
# 3 -0.001225 -0.006855 0.007303 0.000000 0.000000 0.000000
# 4 0.000000 0.000000 0.000000 -0.022103 0.000000 0.000000
# 5 0.000000 0.000000 0.000000 0.000000 0.071139 0.000000
# 6 0.000000 0.000000 0.000000 0.000000 0.000000 -0.139497
#
#
# Mechanical properties :
#
#
# Convention : Reuss Voigt Hill
#
# Bulk Modulus (GPa) = 52.35314 73.33334 62.84324
# Shear Modulus (GPa) = -163.59083 12.13731 -75.72676
#
# Velocity S-wave (km/s) = -8.56059 2.33177 -5.82437
# Velocity P-wave (km/s) = 8.61737 6.33251 4.13270
#
# Compressibility (1/GPa) = 0.01910105
#
# Stress axis : x y z
#
# Youngs Moduli (GPa) = 138.31217 45.90920 136.92647
#
# Poissons Ratio (x) = 0.02420 0.16777
# Poissons Ratio (y) = 0.07290 0.93861
# Poissons Ratio (z) = 0.16947 0.31470
#
# Static dielectric constant tensor:
#      x y z
#    x 1.841330 0.000000 0.000000 
#    y 0.000000 1.856990 0.000000 
#    z 0.000000 0.000000 1.809540 
# 
# From -- ./inp_files/20297.got.cif
#   From: 2010.05.17/outbox.cif.g08.bks.cpg/sg65_11_cif.got.tgz:20297.got - 2010.06.03 17:01:31.
