data_PCOD9492574
_publ_section_title
;
Structure prediction by ZEFSAII (Michael W. Deem and Ramdas Pophale) SiO2 
 PCOD9492574
Probable space group: C M M M
;
_chemical_formula_sum "Si O2"
_cell_formula_units_Z 58
_cell_length_a 10.094491
_cell_length_b 23.247965
_cell_length_c 14.350108
_cell_angle_alpha 90.000000
_cell_angle_beta 90.000000
_cell_angle_gamma 90.000000
_cell_volume 3367.631304
_symmetry_space_group_name_H-M "C M M M"
_symmetry_group_IT_number 65
_symmetry_cell_setting 'orthorhombic'
loop_
_space_group_symop_operation_xyz
x,y,z
-x,-y,z
x,-y,-z
-x,y,-z
-x,-y,-z
x,y,-z
-x,y,z
x,-y,z
1/2+x,1/2+y,z
1/2-x,1/2-y,z
1/2+x,1/2-y,-z
1/2-x,1/2+y,-z
1/2-x,1/2-y,-z
1/2+x,1/2+y,-z
1/2-x,1/2+y,z
1/2+x,1/2-y,z
loop_
_atom_site_type_symbol
_atom_site_label
_atom_site_fract_x
_atom_site_fract_y
_atom_site_fract_z
Si Si1 0.500000 0.000000 0.000000
Si Si2 0.500000 0.187075 0.110085
Si Si3 0.241793 0.626543 0.785312
Si Si4 0.500000 0.675034 0.887376
Si Si5 0.647775 0.000000 0.191640
Si Si6 0.842939 0.693922 0.608074
O O1 0.387227 0.000000 0.917687
O O2 0.374403 0.156373 0.154855
O O3 0.500000 0.255633 0.125796
O O4 0.500000 0.176728 0.000000
O O5 0.374158 0.648138 0.835285
O O6 0.223914 0.558270 0.786121
O O7 0.217213 0.649211 0.681048
O O8 0.500000 0.664809 0.000000
O O9 0.500000 0.000000 0.237901
O O10 0.836242 0.675479 0.500000
O O11 0.750000 0.750000 0.617519
O O12 0.000000 0.704853 0.629112
#
# Coordination Sequence:
#
# PCOD9492574 Si02
#       6
#     2   8  16   8   8  16
#     4   8  20  36  60  86 102 160 220 258 272 350
#     4  11  21  37  60  83 114 157 200 241 300 366
#     4  12  23  39  60  86 123 158 202 251 296 359
#     4  11  26  38  56  90 124 157 196 251 317 355
#     4  10  22  37  61  86 112 161 213 245 294 351
#     4  10  21  38  63  93 121 154 198 251 310 366
#
# _framework density 17.222788000000001
#
# number of rings (size 3 to 8) (size 9 to 14) (size 15 to 20)
#    0.414    0.828    2.759    3.310    7.724    2.759 
#    0.000    1.379    0.000    2.483    0.000    1.931 
#    0.000    0.000    0.000    0.000    0.000    0.000 
#
# Total GULP energy -161556.550308 kJ/mol
# GULP energy per Si atom -5570.915528 kJ/mol
# Density = 1.718359 g / cm^3
# Si number density = 17.222788 Si / 1000 Ang^3
#
#
#
# Elastic Constant Matrix: (Units=GPa)
#
#
# Indices 1 2 3 4 5 6 
#
# 1 153.1249 68.1263 57.7094 0.0000 0.0000 0.0000
# 2 68.1263 148.5068 86.8764 0.0000 0.0000 0.0000
# 3 57.7094 86.8764 124.7090 0.0000 0.0000 0.0000
# 4 0.0000 0.0000 0.0000 -7.7539 0.0000 0.0000
# 5 0.0000 0.0000 0.0000 0.0000 31.7350 0.0000
# 6 0.0000 0.0000 0.0000 0.0000 0.0000 -13.8002
#
#
#
# Elastic Compliance Matrix: (Units=1/GPa)
#
#
# Indices 1 2 3 4 5 6 
#
# 1 0.008506 -0.002700 -0.002056 0.000000 0.000000 0.000000
# 2 -0.002700 0.012222 -0.007265 0.000000 0.000000 0.000000
# 3 -0.002056 -0.007265 0.014031 0.000000 0.000000 0.000000
# 4 0.000000 0.000000 0.000000 -0.128967 0.000000 0.000000
# 5 0.000000 0.000000 0.000000 0.000000 0.031511 0.000000
# 6 0.000000 0.000000 0.000000 0.000000 0.000000 -0.072463
#
#
# Mechanical properties :
#
#
# Convention : Reuss Voigt Hill
#
# Bulk Modulus (GPa) = 93.29438 94.64053 93.96745
# Shear Modulus (GPa) = -46.49211 16.27810 -15.10700
#
# Velocity S-wave (km/s) = -5.20126 3.07766 -2.96489
# Velocity P-wave (km/s) = 4.26801 8.22796 6.55421
#
# Compressibility (1/GPa) = 0.01071876
#
# Stress axis : x y z
#
# Youngs Moduli (GPa) = 117.55750 81.81795 71.27032
#
# Poissons Ratio (x) = 0.22088 0.14651
# Poissons Ratio (y) = 0.31737 0.51779
# Poissons Ratio (z) = 0.24166 0.59442
#
# Static dielectric constant tensor:
#      x y z
#    x 1.811070 0.000000 0.000000 
#    y 0.000000 1.566930 0.000000 
#    z 0.000000 0.000000 1.588870 
# 
# From -- ./inp_files/35919.got.cif
#   From: 2010.05.17/outbox.cif.g08.bks.cpg/sg65_18_cif.got.tgz:35919.got - 2010.06.03 17:01:31.
