data_PCOD9492042
_publ_section_title
;
Structure prediction by ZEFSAII (Michael W. Deem and Ramdas Pophale) SiO2 
 PCOD9492042
Probable space group: C M M M
;
_chemical_formula_sum "Si O2"
_cell_formula_units_Z 60
_cell_length_a 7.276853
_cell_length_b 14.725511
_cell_length_c 21.695341
_cell_angle_alpha 90.000000
_cell_angle_beta 90.000000
_cell_angle_gamma 90.000000
_cell_volume 2324.772485
_symmetry_space_group_name_H-M "C M M M"
_symmetry_group_IT_number 65
_symmetry_cell_setting 'orthorhombic'
loop_
_space_group_symop_operation_xyz
x,y,z
-x,-y,z
x,-y,-z
-x,y,-z
-x,-y,-z
x,y,-z
-x,y,z
x,-y,z
1/2+x,1/2+y,z
1/2-x,1/2-y,z
1/2+x,1/2-y,-z
1/2-x,1/2+y,-z
1/2-x,1/2-y,-z
1/2+x,1/2+y,-z
1/2-x,1/2+y,z
1/2+x,1/2-y,z
loop_
_atom_site_type_symbol
_atom_site_label
_atom_site_fract_x
_atom_site_fract_y
_atom_site_fract_z
Si Si1 0.780601 0.359187 0.132825
Si Si2 0.780660 0.640814 0.000000
Si Si3 0.000000 0.825561 0.500000
Si Si4 0.717850 0.858032 0.734395
Si Si5 0.283479 0.895838 0.402896
O O1 0.750000 0.250000 0.132923
O O2 0.709853 0.391671 0.199322
O O3 0.000000 0.374998 0.132693
O O4 0.710336 0.392392 0.066414
O O5 0.750000 0.750000 0.000000
O O6 0.000000 0.625004 0.000000
O O7 0.841294 0.836834 0.553599
O O8 0.500000 0.876348 0.735306
O O9 0.750000 0.750000 0.733184
O O10 0.780080 0.892833 0.668276
O O11 0.500000 0.870525 0.406119
O O12 0.267128 0.000000 0.424272
#
# Coordination Sequence:
#
# PCOD9492042 Si02
#       5
#    16   8   4  16  16
#     4   8  13  22  36  59  87 123 158 193 237 280
#     4   8  12  18  32  54  85 117 156 196 230 274
#     4  12  23  38  62  82  98 126 163 208 257 296
#     4   9  18  31  49  70 100 133 163 199 248 295
#     4  10  21  37  57  79 101 128 165 206 247 296
#
# _framework density 25.808976000000001
#
# number of rings (size 3 to 8) (size 9 to 14) (size 15 to 20)
#    0.000    2.933    0.000    1.600    1.867    1.067 
#    0.000    0.667    0.000    0.000    0.000    0.933 
#    0.000    7.467    0.000    2.533    0.000    7.333 
#
# Total GULP energy -167092.463922 kJ/mol
# GULP energy per Si atom -5569.748797 kJ/mol
# Density = 2.575023 g / cm^3
# Si number density = 25.808976 Si / 1000 Ang^3
#
#
#
# Elastic Constant Matrix: (Units=GPa)
#
#
# Indices 1 2 3 4 5 6 
#
# 1 143.1602 14.2231 59.9054 0.0000 0.0000 0.0000
# 2 14.2231 92.4128 31.1061 0.0000 0.0000 0.0000
# 3 59.9054 31.1061 315.6015 0.0000 0.0000 0.0000
# 4 0.0000 0.0000 0.0000 -68.9926 0.0000 0.0000
# 5 0.0000 0.0000 0.0000 0.0000 -3.5115 0.0000
# 6 0.0000 0.0000 0.0000 0.0000 0.0000 -8.9994
#
#
#
# Elastic Compliance Matrix: (Units=1/GPa)
#
#
# Indices 1 2 3 4 5 6 
#
# 1 0.007633 -0.000711 -0.001379 0.000000 0.000000 0.000000
# 2 -0.000711 0.011258 -0.000975 0.000000 0.000000 0.000000
# 3 -0.001379 -0.000975 0.003526 0.000000 0.000000 0.000000
# 4 0.000000 0.000000 0.000000 -0.014494 0.000000 0.000000
# 5 0.000000 0.000000 0.000000 0.000000 -0.284778 0.000000
# 6 0.000000 0.000000 0.000000 0.000000 0.000000 -0.111118
#
#
# Mechanical properties :
#
#
# Convention : Reuss Voigt Hill
#
# Bulk Modulus (GPa) = 61.39030 84.62708 73.00869
# Shear Modulus (GPa) = -13.28322 13.42862 0.07270
#
# Velocity S-wave (km/s) = -2.27110 2.28350 0.16802
# Velocity P-wave (km/s) = 4.11835 6.30979 5.32796
#
# Compressibility (1/GPa) = 0.01628922
#
# Stress axis : x y z
#
# Youngs Moduli (GPa) = 131.01482 88.82185 283.58073
#
# Poissons Ratio (x) = 0.06312 0.39099
# Poissons Ratio (y) = 0.09311 0.27642
# Poissons Ratio (z) = 0.18064 0.08658
#
# Static dielectric constant tensor:
#      x y z
#    x 1.990710 0.000000 0.000000 
#    y 0.000000 2.006730 0.000000 
#    z 0.000000 0.000000 2.051010 
# 
# From -- ./inp_files/66961.got.cif
#   From: 2010.05.17/outbox.cif.g08.bks.cpg/sg65_34_cif.got.tgz:66961.got - 2010.06.03 17:01:31.
