data_PCOD9492408
_publ_section_title
;
Structure prediction by ZEFSAII (Michael W. Deem and Ramdas Pophale) SiO2 
 PCOD9492408
Probable space group: C M M M
;
_chemical_formula_sum "Si O2"
_cell_formula_units_Z 72
_cell_length_a 8.822842
_cell_length_b 15.704126
_cell_length_c 27.187715
_cell_angle_alpha 90.000000
_cell_angle_beta 90.000000
_cell_angle_gamma 90.000000
_cell_volume 3766.994462
_symmetry_space_group_name_H-M "C M M M"
_symmetry_group_IT_number 65
_symmetry_cell_setting 'orthorhombic'
loop_
_space_group_symop_operation_xyz
x,y,z
-x,-y,z
x,-y,-z
-x,y,-z
-x,-y,-z
x,y,-z
-x,y,z
x,-y,z
1/2+x,1/2+y,z
1/2-x,1/2-y,z
1/2+x,1/2-y,-z
1/2-x,1/2+y,-z
1/2-x,1/2-y,-z
1/2+x,1/2+y,-z
1/2-x,1/2+y,z
1/2+x,1/2-y,z
loop_
_atom_site_type_symbol
_atom_site_label
_atom_site_fract_x
_atom_site_fract_y
_atom_site_fract_z
Si Si1 0.682390 0.658734 0.443380
Si Si2 0.681416 0.000000 0.733326
Si Si3 0.317374 0.339604 0.208992
Si Si4 0.181497 0.099976 0.101477
Si Si5 0.822707 0.603236 0.000000
Si Si6 0.816164 0.000000 0.624720
O O1 0.728443 0.640334 0.500000
O O2 0.500000 0.664239 0.442795
O O3 0.750000 0.750000 0.429382
O O4 0.726172 0.583186 0.406922
O O5 0.749361 0.917286 0.760291
O O6 0.500000 0.000000 0.736547
O O7 0.736858 0.000000 0.677187
O O8 0.500000 0.340626 0.212359
O O9 0.250000 0.250000 0.225965
O O10 0.273951 0.353734 0.151656
O O11 0.000000 0.103055 0.097278
O O12 0.224930 0.000000 0.106757
O O13 0.250897 0.134313 0.050919
O O14 0.799441 0.500000 0.000000
O O15 0.000000 0.620443 0.000000
O O16 0.000000 0.000000 0.630894
#
# Coordination Sequence:
#
# PCOD9492408 Si02
#       6
#    16   8  16  16   8   8
#     4   9  18  34  58  88 121 158 198 240 290 346
#     4  12  26  43  63  88 119 158 202 253 305 357
#     4  11  23  42  65  90 117 152 198 248 304 362
#     4   9  17  33  56  80 111 150 188 231 287 353
#     4   9  17  27  46  81 116 146 184 232 282 340
#     4  10  21  38  60  84 117 159 200 245 294 351
#
# _framework density 19.113379999999999
#
# number of rings (size 3 to 8) (size 9 to 14) (size 15 to 20)
#    0.000    2.111    1.111    2.333    0.000    6.222 
#    0.000    2.778    0.000    3.333    0.000    0.000 
#    0.000    0.000    0.000    0.000    0.000    0.000 
#
# Total GULP energy -201077.878895 kJ/mol
# GULP energy per Si atom -5585.496636 kJ/mol
# Density = 1.906988 g / cm^3
# Si number density = 19.113380 Si / 1000 Ang^3
#
#
#
# Elastic Constant Matrix: (Units=GPa)
#
#
# Indices 1 2 3 4 5 6 
#
# 1 48.6901 54.5624 57.3592 0.0000 0.0000 0.0000
# 2 54.5624 149.5471 99.1063 0.0000 0.0000 0.0000
# 3 57.3592 99.1063 148.4939 0.0000 0.0000 0.0000
# 4 0.0000 0.0000 0.0000 1.3025 0.0000 0.0000
# 5 0.0000 0.0000 0.0000 0.0000 22.8669 0.0000
# 6 0.0000 0.0000 0.0000 0.0000 0.0000 26.3484
#
#
#
# Elastic Compliance Matrix: (Units=1/GPa)
#
#
# Indices 1 2 3 4 5 6 
#
# 1 0.042816 -0.008358 -0.010961 0.000000 0.000000 0.000000
# 2 -0.008358 0.013621 -0.005863 0.000000 0.000000 0.000000
# 3 -0.010961 -0.005863 0.014881 0.000000 0.000000 0.000000
# 4 0.000000 0.000000 0.000000 0.767728 0.000000 0.000000
# 5 0.000000 0.000000 0.000000 0.000000 0.043731 0.000000
# 6 0.000000 0.000000 0.000000 0.000000 0.000000 0.037953
#
#
# Mechanical properties :
#
#
# Convention : Reuss Voigt Hill
#
# Bulk Modulus (GPa) = 47.71875 85.42075 66.56975
# Shear Modulus (GPa) = 5.11207 19.15047 12.13127
#
# Velocity S-wave (km/s) = 1.63720 3.16878 2.52206
# Velocity P-wave (km/s) = 5.34736 7.62737 6.58677
#
# Compressibility (1/GPa) = 0.02095612
#
# Stress axis : x y z
#
# Youngs Moduli (GPa) = 23.35588 73.41355 67.20022
#
# Poissons Ratio (x) = 0.61357 0.73655
# Poissons Ratio (y) = 0.19520 0.39398
# Poissons Ratio (z) = 0.25599 0.43040
#
# Static dielectric constant tensor:
#      x y z
#    x 1.635180 0.000000 0.000000 
#    y 0.000000 1.670250 0.000000 
#    z 0.000000 0.000000 1.653380 
# 
# From -- ./inp_files/72623.got.cif
#   From: 2010.05.17/outbox.cif.g08.bks.cpg/sg65_37_cif.got.tgz:72623.got - 2010.06.03 17:01:31.
