data_PCOD9492949
_publ_section_title
;
Structure prediction by ZEFSAII (Michael W. Deem and Ramdas Pophale) SiO2 
 PCOD9492949
Probable space group: C M M M
;
_chemical_formula_sum "Si O2"
_cell_formula_units_Z 100
_cell_length_a 15.151729
_cell_length_b 18.017882
_cell_length_c 20.534343
_cell_angle_alpha 90.000000
_cell_angle_beta 90.000000
_cell_angle_gamma 90.000000
_cell_volume 5605.918047
_symmetry_space_group_name_H-M "C M M M"
_symmetry_group_IT_number 65
_symmetry_cell_setting 'orthorhombic'
loop_
_space_group_symop_operation_xyz
x,y,z
-x,-y,z
x,-y,-z
-x,y,-z
-x,-y,-z
x,y,-z
-x,y,z
x,-y,z
1/2+x,1/2+y,z
1/2-x,1/2-y,z
1/2+x,1/2-y,-z
1/2-x,1/2+y,-z
1/2-x,1/2-y,-z
1/2+x,1/2+y,-z
1/2-x,1/2+y,z
1/2+x,1/2-y,z
loop_
_atom_site_type_symbol
_atom_site_label
_atom_site_fract_x
_atom_site_fract_y
_atom_site_fract_z
Si Si1 0.395126 0.801161 0.239425
Si Si2 0.104224 0.411898 0.651967
Si Si3 0.844568 0.766321 0.894147
Si Si4 0.241951 0.839324 0.425222
Si Si5 0.104536 0.147663 0.686306
Si Si6 0.893360 0.916935 0.825515
Si Si7 0.500000 0.752392 0.000000
O O1 0.500000 0.802742 0.226999
O O2 0.369591 0.874077 0.279289
O O3 0.350667 0.784573 0.170932
O O4 0.379117 0.731274 0.287130
O O5 0.114701 0.500000 0.653472
O O6 0.166410 0.375657 0.597909
O O7 0.000000 0.394841 0.641588
O O8 0.750000 0.750000 0.923889
O O9 0.853721 0.850866 0.868209
O O10 0.923143 0.750100 0.943079
O O11 0.222432 0.858453 0.500000
O O12 0.250000 0.750000 0.420743
O O13 0.166252 0.865334 0.375298
O O14 0.125572 0.097212 0.749152
O O15 0.000000 0.140529 0.671721
O O16 0.000000 0.910685 0.831777
O O17 0.866864 0.000000 0.844698
#
# Coordination Sequence:
#
# PCOD9492949 Si02
#       7
#    16  16  16  16  16  16   4
#     4   9  17  35  58  85 115 147 191 248 293 342
#     4  10  22  39  60  86 114 150 200 256 308 351
#     4  11  22  36  61  90 122 160 197 238 289 344
#     4  11  23  36  54  83 119 162 202 243 301 364
#     4   9  18  33  56  83 116 154 191 240 295 355
#     4   9  18  36  60  90 121 150 192 248 305 346
#     4  12  22  44  57  90 129 162 204 230 286 354
#
# _framework density 17.838291999999999
#
# number of rings (size 3 to 8) (size 9 to 14) (size 15 to 20)
#    0.000    2.080    3.200    1.200    4.480    1.600 
#    0.000    3.200    0.000    0.000    0.000    7.280 
#    0.000    0.000    0.000    0.000    0.000    0.000 
#
# Total GULP energy -278484.956218 kJ/mol
# GULP energy per Si atom -5569.699124 kJ/mol
# Density = 1.779769 g / cm^3
# Si number density = 17.838292 Si / 1000 Ang^3
#
#
#
# Elastic Constant Matrix: (Units=GPa)
#
#
# Indices 1 2 3 4 5 6 
#
# 1 108.3428 32.3424 61.8832 0.0000 0.0000 0.0000
# 2 32.3424 65.8932 19.5327 0.0000 0.0000 0.0000
# 3 61.8832 19.5327 100.3926 0.0000 0.0000 0.0000
# 4 0.0000 0.0000 0.0000 -19.9189 0.0000 0.0000
# 5 0.0000 0.0000 0.0000 0.0000 45.6033 0.0000
# 6 0.0000 0.0000 0.0000 0.0000 0.0000 21.2494
#
#
#
# Elastic Compliance Matrix: (Units=1/GPa)
#
#
# Indices 1 2 3 4 5 6 
#
# 1 0.015733 -0.005144 -0.008697 0.000000 0.000000 0.000000
# 2 -0.005144 0.017787 -0.000290 0.000000 0.000000 0.000000
# 3 -0.008697 -0.000290 0.015378 0.000000 0.000000 0.000000
# 4 0.000000 0.000000 0.000000 -0.050204 0.000000 0.000000
# 5 0.000000 0.000000 0.000000 0.000000 0.021928 0.000000
# 6 0.000000 0.000000 0.000000 0.000000 0.000000 0.047060
#
#
# Mechanical properties :
#
#
# Convention : Reuss Voigt Hill
#
# Bulk Modulus (GPa) = 48.45884 55.79391 52.12638
# Shear Modulus (GPa) = 48.62642 20.11146 34.36894
#
# Velocity S-wave (km/s) = 5.22673 3.36137 4.39417
# Velocity P-wave (km/s) = 7.97807 6.81253 7.41823
#
# Compressibility (1/GPa) = 0.02063607
#
# Stress axis : x y z
#
# Youngs Moduli (GPa) = 63.55919 56.22111 65.02629
#
# Poissons Ratio (x) = 0.28922 0.56556
# Poissons Ratio (y) = 0.32697 0.01884
# Poissons Ratio (z) = 0.55280 0.01629
#
# Static dielectric constant tensor:
#      x y z
#    x 1.622100 0.000000 0.000000 
#    y 0.000000 1.612620 0.000000 
#    z 0.000000 0.000000 1.591940 
# 
# From -- ./inp_files/62832.got.cif
#   From: 2010.05.17/outbox.cif.g08.bks.cpg/sg65_32_cif.got.tgz:62832.got - 2010.06.03 17:01:31.
