data_PCOD9492831
_publ_section_title
;
Structure prediction by ZEFSAII (Michael W. Deem and Ramdas Pophale) SiO2 
 PCOD9492831
Probable space group: C M M M
;
_chemical_formula_sum "Si O2"
_cell_formula_units_Z 72
_cell_length_a 10.741816
_cell_length_b 18.383326
_cell_length_c 19.899804
_cell_angle_alpha 90.000000
_cell_angle_beta 90.000000
_cell_angle_gamma 90.000000
_cell_volume 3929.620372
_symmetry_space_group_name_H-M "C M M M"
_symmetry_group_IT_number 65
_symmetry_cell_setting 'orthorhombic'
loop_
_space_group_symop_operation_xyz
x,y,z
-x,-y,z
x,-y,-z
-x,y,-z
-x,-y,-z
x,y,-z
-x,y,z
x,-y,z
1/2+x,1/2+y,z
1/2-x,1/2-y,z
1/2+x,1/2-y,-z
1/2-x,1/2+y,-z
1/2-x,1/2-y,-z
1/2+x,1/2+y,-z
1/2-x,1/2+y,z
1/2+x,1/2-y,z
loop_
_atom_site_type_symbol
_atom_site_label
_atom_site_fract_x
_atom_site_fract_y
_atom_site_fract_z
Si Si1 0.858205 0.808578 0.577600
Si Si2 0.639994 0.413055 0.702376
Si Si3 0.755873 0.663248 0.078587
Si Si4 0.000000 0.917589 0.918783
Si Si5 0.637085 0.913370 0.800023
O O1 0.845895 0.833186 0.500000
O O2 0.750000 0.750000 0.589949
O O3 0.846628 0.872769 0.631406
O O4 0.000000 0.778641 0.584714
O O5 0.500000 0.396946 0.728685
O O6 0.648938 0.500000 0.693980
O O7 0.750342 0.389749 0.751931
O O8 0.750000 0.750000 0.085667
O O9 0.624128 0.626387 0.097758
O O10 0.852124 0.628236 0.129758
O O11 0.781384 0.647108 0.000000
O O12 0.000000 0.000000 0.890922
O O13 0.000000 0.923135 0.000000
O O14 0.500000 0.901079 0.769953
O O15 0.650884 0.000000 0.811945
#
# Coordination Sequence:
#
# PCOD9492831 Si02
#       5
#    16  16  16   8  16
#     4   9  18  33  54  82 114 146 181 221 267 320
#     4   9  19  36  57  80 107 143 185 227 270 319
#     4  10  22  37  56  81 110 141 180 232 287 339
#     4   9  18  34  56  80 105 139 182 226 277 338
#     4  10  22  38  56  79 108 143 181 225 278 336
#
# _framework density 18.322379999999999
#
# number of rings (size 3 to 8) (size 9 to 14) (size 15 to 20)
#    0.000    2.556    0.000    0.667    3.111    4.000 
#    0.000    5.556    0.000    0.000    0.000    6.222 
#    0.000    0.000    0.000    0.000    0.000    0.000 
#
# Total GULP energy -200761.358049 kJ/mol
# GULP energy per Si atom -5576.704390 kJ/mol
# Density = 1.828068 g / cm^3
# Si number density = 18.322380 Si / 1000 Ang^3
#
#
#
# Elastic Constant Matrix: (Units=GPa)
#
#
# Indices 1 2 3 4 5 6 
#
# 1 138.0501 51.1479 68.2773 0.0000 0.0000 0.0000
# 2 51.1479 50.8828 36.0385 0.0000 0.0000 0.0000
# 3 68.2773 36.0385 83.4986 0.0000 0.0000 0.0000
# 4 0.0000 0.0000 0.0000 30.9184 0.0000 0.0000
# 5 0.0000 0.0000 0.0000 0.0000 22.4114 0.0000
# 6 0.0000 0.0000 0.0000 0.0000 0.0000 22.3355
#
#
#
# Elastic Compliance Matrix: (Units=1/GPa)
#
#
# Indices 1 2 3 4 5 6 
#
# 1 0.014510 -0.008904 -0.008022 0.000000 0.000000 0.000000
# 2 -0.008904 0.033770 -0.007294 0.000000 0.000000 0.000000
# 3 -0.008022 -0.007294 0.021684 0.000000 0.000000 0.000000
# 4 0.000000 0.000000 0.000000 0.032343 0.000000 0.000000
# 5 0.000000 0.000000 0.000000 0.000000 0.044620 0.000000
# 6 0.000000 0.000000 0.000000 0.000000 0.000000 0.044772
#
#
# Mechanical properties :
#
#
# Convention : Reuss Voigt Hill
#
# Bulk Modulus (GPa) = 46.46125 64.81767 55.63946
# Shear Modulus (GPa) = 20.21710 22.93090 21.57400
#
# Velocity S-wave (km/s) = 3.32537 3.54153 3.43515
# Velocity P-wave (km/s) = 6.33694 7.22331 6.79459
#
# Compressibility (1/GPa) = 0.02152331
#
# Stress axis : x y z
#
# Youngs Moduli (GPa) = 68.91617 29.61219 46.11645
#
# Poissons Ratio (x) = 0.26367 0.36995
# Poissons Ratio (y) = 0.61364 0.33639
# Poissons Ratio (z) = 0.55285 0.21600
#
# Static dielectric constant tensor:
#      x y z
#    x 1.669880 0.000000 0.000000 
#    y 0.000000 1.589480 0.000000 
#    z 0.000000 0.000000 1.618530 
# 
# From -- ./inp_files/59291.got.cif
#   From: 2010.05.17/outbox.cif.g08.bks.cpg/sg65_30_cif.got.tgz:59291.got - 2010.06.03 17:01:31.
