data_PCOD9492653
_publ_section_title
;
Structure prediction by ZEFSAII (Michael W. Deem and Ramdas Pophale) SiO2 
 PCOD9492653
Probable space group: C M M M
;
_chemical_formula_sum "Si O2"
_cell_formula_units_Z 48
_cell_length_a 28.460317
_cell_length_b 11.236274
_cell_length_c 7.481251
_cell_angle_alpha 90.000000
_cell_angle_beta 90.000000
_cell_angle_gamma 90.000000
_cell_volume 2392.413696
_symmetry_space_group_name_H-M "C M M M"
_symmetry_group_IT_number 65
_symmetry_cell_setting 'orthorhombic'
loop_
_space_group_symop_operation_xyz
x,y,z
-x,-y,z
x,-y,-z
-x,y,-z
-x,-y,-z
x,y,-z
-x,y,z
x,-y,z
1/2+x,1/2+y,z
1/2-x,1/2-y,z
1/2+x,1/2-y,-z
1/2-x,1/2+y,-z
1/2-x,1/2-y,-z
1/2+x,1/2+y,-z
1/2-x,1/2+y,z
1/2+x,1/2-y,z
loop_
_atom_site_type_symbol
_atom_site_label
_atom_site_fract_x
_atom_site_fract_y
_atom_site_fract_z
Si Si1 0.554176 0.360825 0.000000
Si Si2 0.283460 0.140299 0.214275
Si Si3 0.889099 0.271667 0.710770
Si Si4 0.447711 0.000000 0.283272
O O1 0.586788 0.328122 0.169590
O O2 0.548014 0.500000 0.000000
O O3 0.500000 0.309310 0.000000
O O4 0.250000 0.250000 0.278953
O O5 0.335658 0.188893 0.254233
O O6 0.277630 0.000000 0.277583
O O7 0.277280 0.133987 0.000000
O O8 0.894485 0.248214 0.500000
O O9 0.919446 0.385082 0.768552
O O10 0.500000 0.000000 0.214357
O O11 0.449278 0.000000 0.500000
#
# Coordination Sequence:
#
# PCOD9492653 Si02
#       4
#     8  16  16   8
#     4  11  26  45  64  91 130 174 218 265 321 392
#     4  10  21  39  63  94 133 176 222 275 333 395
#     4  11  22  40  66  95 128 166 213 268 325 386
#     4   9  18  33  59  95 128 157 199 258 319 378
#
# _framework density 20.063421000000002
#
# number of rings (size 3 to 8) (size 9 to 14) (size 15 to 20)
#    0.000    1.667    3.333    1.000    0.000    5.333 
#    0.000    3.333    0.000    0.000    0.000    0.000 
#    0.000    0.000    0.000    0.000    0.000    0.000 
#
# Total GULP energy -133714.053902 kJ/mol
# GULP energy per Si atom -5571.418913 kJ/mol
# Density = 2.001776 g / cm^3
# Si number density = 20.063421 Si / 1000 Ang^3
#
#
#
# Elastic Constant Matrix: (Units=GPa)
#
#
# Indices 1 2 3 4 5 6 
#
# 1 195.6622 90.3921 23.2005 0.0000 0.0000 0.0000
# 2 90.3921 144.9732 42.9324 0.0000 0.0000 0.0000
# 3 23.2005 42.9324 83.8648 0.0000 0.0000 0.0000
# 4 0.0000 0.0000 0.0000 6.1921 0.0000 0.0000
# 5 0.0000 0.0000 0.0000 0.0000 9.1186 0.0000
# 6 0.0000 0.0000 0.0000 0.0000 0.0000 48.3805
#
#
#
# Elastic Compliance Matrix: (Units=1/GPa)
#
#
# Indices 1 2 3 4 5 6 
#
# 1 0.007188 -0.004588 0.000360 0.000000 0.000000 0.000000
# 2 -0.004588 0.011060 -0.004392 0.000000 0.000000 0.000000
# 3 0.000360 -0.004392 0.014073 0.000000 0.000000 0.000000
# 4 0.000000 0.000000 0.000000 0.161495 0.000000 0.000000
# 5 0.000000 0.000000 0.000000 0.000000 0.109665 0.000000
# 6 0.000000 0.000000 0.000000 0.000000 0.000000 0.020669
#
#
# Mechanical properties :
#
#
# Convention : Reuss Voigt Hill
#
# Bulk Modulus (GPa) = 66.31466 81.95001 74.13234
# Shear Modulus (GPa) = 14.43345 30.60327 22.51836
#
# Velocity S-wave (km/s) = 2.68506 3.90978 3.35380
# Velocity P-wave (km/s) = 6.53735 7.83045 7.21294
#
# Compressibility (1/GPa) = 0.01507962
#
# Stress axis : x y z
#
# Youngs Moduli (GPa) = 139.12297 90.41997 71.05941
#
# Poissons Ratio (x) = 0.41489 -0.02562
# Poissons Ratio (y) = 0.63836 0.31211
# Poissons Ratio (z) = -0.05015 0.39715
#
# Static dielectric constant tensor:
#      x y z
#    x 1.697850 0.000000 0.000000 
#    y 0.000000 1.711110 0.000000 
#    z 0.000000 0.000000 1.724860 
# 
# From -- ./inp_files/17535.got.cif
#   From: 2010.05.17/outbox.cif.g08.bks.cpg/sg65_9_cif.got.tgz:17535.got - 2010.06.03 17:01:31.
