data_PCOD9492161
_publ_section_title
;
Structure prediction by ZEFSAII (Michael W. Deem and Ramdas Pophale) SiO2 
 PCOD9492161
Probable space group: C M M M
;
_chemical_formula_sum "Si O2"
_cell_formula_units_Z 64
_cell_length_a 8.724901
_cell_length_b 28.482402
_cell_length_c 13.299023
_cell_angle_alpha 90.000000
_cell_angle_beta 90.000000
_cell_angle_gamma 90.000000
_cell_volume 3304.888841
_symmetry_space_group_name_H-M "C M M M"
_symmetry_group_IT_number 65
_symmetry_cell_setting 'orthorhombic'
loop_
_space_group_symop_operation_xyz
x,y,z
-x,-y,z
x,-y,-z
-x,y,-z
-x,-y,-z
x,y,-z
-x,y,z
x,-y,z
1/2+x,1/2+y,z
1/2-x,1/2-y,z
1/2+x,1/2-y,-z
1/2-x,1/2+y,-z
1/2-x,1/2-y,-z
1/2+x,1/2+y,-z
1/2-x,1/2+y,z
1/2+x,1/2-y,z
loop_
_atom_site_type_symbol
_atom_site_label
_atom_site_fract_x
_atom_site_fract_y
_atom_site_fract_z
Si Si1 0.673822 0.443042 0.000000
Si Si2 0.682888 0.945053 0.214929
Si Si3 0.183213 0.302688 0.500000
Si Si4 0.683985 0.642018 0.309906
Si Si5 0.815319 0.197590 0.110518
O O1 0.756865 0.430961 0.896161
O O2 0.666664 0.500000 0.000000
O O3 0.500000 0.424218 0.000000
O O4 0.500000 0.940312 0.217845
O O5 0.759830 0.911196 0.296165
O O6 0.721621 0.000000 0.229832
O O7 0.250000 0.250000 0.500000
O O8 0.242351 0.330728 0.402623
O O9 0.000000 0.300301 0.500000
O O10 0.500000 0.643656 0.318050
O O11 0.732912 0.667724 0.206421
O O12 0.750000 0.250000 0.119233
O O13 0.000000 0.199790 0.112169
O O14 0.768922 0.178909 0.000000
#
# Coordination Sequence:
#
# PCOD9492161 Si02
#       5
#     8  16   8  16  16
#     4   9  17  31  53  81 116 161 208 253 301 355
#     4  10  21  37  57  86 125 165 207 255 308 367
#     4  12  26  46  69  92 123 158 204 259 313 367
#     4  11  23  39  63  91 121 158 207 255 307 371
#     4   9  19  35  55  83 118 153 189 237 296 360
#
# _framework density 19.365248999999999
#
# number of rings (size 3 to 8) (size 9 to 14) (size 15 to 20)
#    0.000    1.875    0.000    3.750    1.750    7.000 
#    0.000    0.625    0.000    3.750    0.000    0.000 
#    0.000    0.000    0.000    0.000    0.000    0.000 
#
# Total GULP energy -178823.561241 kJ/mol
# GULP energy per Si atom -5588.236289 kJ/mol
# Density = 1.932117 g / cm^3
# Si number density = 19.365249 Si / 1000 Ang^3
#
#
#
# Elastic Constant Matrix: (Units=GPa)
#
#
# Indices 1 2 3 4 5 6 
#
# 1 85.1762 59.5533 63.0247 0.0000 0.0000 0.0000
# 2 59.5533 125.2537 91.3580 0.0000 0.0000 0.0000
# 3 63.0247 91.3580 149.0524 0.0000 0.0000 0.0000
# 4 0.0000 0.0000 0.0000 30.8081 0.0000 0.0000
# 5 0.0000 0.0000 0.0000 0.0000 30.3932 0.0000
# 6 0.0000 0.0000 0.0000 0.0000 0.0000 31.5201
#
#
#
# Elastic Compliance Matrix: (Units=1/GPa)
#
#
# Indices 1 2 3 4 5 6 
#
# 1 0.019155 -0.005787 -0.004552 0.000000 0.000000 0.000000
# 2 -0.005787 0.016187 -0.007475 0.000000 0.000000 0.000000
# 3 -0.004552 -0.007475 0.013215 0.000000 0.000000 0.000000
# 4 0.000000 0.000000 0.000000 0.032459 0.000000 0.000000
# 5 0.000000 0.000000 0.000000 0.000000 0.032902 0.000000
# 6 0.000000 0.000000 0.000000 0.000000 0.000000 0.031726
#
#
# Mechanical properties :
#
#
# Convention : Reuss Voigt Hill
#
# Bulk Modulus (GPa) = 77.34254 87.48380 82.41317
# Shear Modulus (GPa) = 26.94227 28.24736 27.59482
#
# Velocity S-wave (km/s) = 3.73402 3.82339 3.77897
# Velocity P-wave (km/s) = 7.65611 8.04766 7.85433
#
# Compressibility (1/GPa) = 0.01292950
#
# Stress axis : x y z
#
# Youngs Moduli (GPa) = 52.20571 61.77769 75.66982
#
# Poissons Ratio (x) = 0.35751 0.34448
# Poissons Ratio (y) = 0.30211 0.56560
# Poissons Ratio (z) = 0.23766 0.46176
#
# Static dielectric constant tensor:
#      x y z
#    x 1.647950 0.000000 0.000000 
#    y 0.000000 1.694500 0.000000 
#    z 0.000000 0.000000 1.658660 
# 
# From -- ./inp_files/20947.got.cif
#   From: 2010.05.17/outbox.cif.g08.bks.cpg/sg65_11_cif.got.tgz:20947.got - 2010.06.03 17:01:31.
