data_PCOD9492163
_publ_section_title
;
Structure prediction by ZEFSAII (Michael W. Deem and Ramdas Pophale) SiO2 
 PCOD9492163
Probable space group: C M M M
;
_chemical_formula_sum "Si O2"
_cell_formula_units_Z 90
_cell_length_a 25.027080
_cell_length_b 21.511075
_cell_length_c 8.958211
_cell_angle_alpha 90.000000
_cell_angle_beta 90.000000
_cell_angle_gamma 90.000000
_cell_volume 4822.737053
_symmetry_space_group_name_H-M "C M M M"
_symmetry_group_IT_number 65
_symmetry_cell_setting 'orthorhombic'
loop_
_space_group_symop_operation_xyz
x,y,z
-x,-y,z
x,-y,-z
-x,y,-z
-x,-y,-z
x,y,-z
-x,y,z
x,-y,z
1/2+x,1/2+y,z
1/2-x,1/2-y,z
1/2+x,1/2-y,-z
1/2-x,1/2+y,-z
1/2-x,1/2-y,-z
1/2+x,1/2+y,-z
1/2-x,1/2+y,z
1/2+x,1/2-y,z
loop_
_atom_site_type_symbol
_atom_site_label
_atom_site_fract_x
_atom_site_fract_y
_atom_site_fract_z
Si Si1 0.292085 0.069923 0.177339
Si Si2 0.500000 0.629505 0.164974
Si Si3 0.500000 0.500000 0.000000
Si Si4 0.226085 0.181604 0.319991
Si Si5 0.591318 0.069469 0.677108
Si Si6 0.898047 0.190182 0.676944
Si Si7 0.438898 0.807557 0.829833
O O1 0.256730 0.126165 0.237741
O O2 0.347547 0.071511 0.267255
O O3 0.268873 0.000000 0.199698
O O4 0.302060 0.076927 0.000000
O O5 0.500000 0.556037 0.128249
O O6 0.554485 0.650870 0.246191
O O7 0.500000 0.659866 0.000000
O O8 0.232120 0.175426 0.500000
O O9 0.250000 0.250000 0.280715
O O10 0.163159 0.174827 0.283515
O O11 0.588223 0.080541 0.500000
O O12 0.562826 0.123311 0.767084
O O13 0.570738 0.000000 0.707175
O O14 0.904152 0.184537 0.500000
O O15 0.905861 0.261410 0.726873
O O16 0.500000 0.785889 0.825255
O O17 0.419476 0.805729 0.000000
#
# Coordination Sequence:
#
# PCOD9492163 Si02
#       7
#    16   8   2  16  16  16  16
#     4  10  21  38  59  86 116 153 198 243 295 360
#     4  10  21  43  65  89 118 157 205 245 312 373
#     4   8  24  44  70  88 116 168 204 252 316 390
#     4  10  22  39  59  88 123 159 200 247 305 368
#     4  10  21  37  58  82 116 161 203 248 298 347
#     4  11  22  38  64  93 122 157 202 258 308 367
#     4  11  23  37  57  87 118 155 199 246 299 356
#
# _framework density 18.661601999999998
#
# number of rings (size 3 to 8) (size 9 to 14) (size 15 to 20)
#    0.267    1.422    0.889    3.467    0.000    6.756 
#    1.600    2.667    0.000    0.000    0.000    0.000 
#    0.000    0.000    0.000    0.000    0.000    0.000 
#
# Total GULP energy -250874.983299 kJ/mol
# GULP energy per Si atom -5574.999629 kJ/mol
# Density = 1.861913 g / cm^3
# Si number density = 18.661602 Si / 1000 Ang^3
#
#
#
# Elastic Constant Matrix: (Units=GPa)
#
#
# Indices 1 2 3 4 5 6 
#
# 1 72.1247 32.7732 26.4335 0.0000 0.0000 0.0000
# 2 32.7732 103.3872 22.1259 0.0000 0.0000 0.0000
# 3 26.4335 22.1259 37.6111 0.0000 0.0000 0.0000
# 4 0.0000 0.0000 0.0000 38.1018 0.0000 0.0000
# 5 0.0000 0.0000 0.0000 0.0000 24.9974 0.0000
# 6 0.0000 0.0000 0.0000 0.0000 0.0000 28.7941
#
#
#
# Elastic Compliance Matrix: (Units=1/GPa)
#
#
# Indices 1 2 3 4 5 6 
#
# 1 0.019895 -0.003792 -0.011752 0.000000 0.000000 0.000000
# 2 -0.003792 0.011788 -0.004270 0.000000 0.000000 0.000000
# 3 -0.011752 -0.004270 0.037359 0.000000 0.000000 0.000000
# 4 0.000000 0.000000 0.000000 0.026245 0.000000 0.000000
# 5 0.000000 0.000000 0.000000 0.000000 0.040004 0.000000
# 6 0.000000 0.000000 0.000000 0.000000 0.000000 0.034729
#
#
# Mechanical properties :
#
#
# Convention : Reuss Voigt Hill
#
# Bulk Modulus (GPa) = 33.99582 41.75425 37.87503
# Shear Modulus (GPa) = 22.78399 27.16469 24.97434
#
# Velocity S-wave (km/s) = 3.49793 3.81943 3.66221
# Velocity P-wave (km/s) = 5.87967 6.47099 6.18241
#
# Compressibility (1/GPa) = 0.02941539
#
# Stress axis : x y z
#
# Youngs Moduli (GPa) = 50.26472 84.83131 26.76730
#
# Poissons Ratio (x) = 0.32164 0.31456
# Poissons Ratio (y) = 0.19058 0.11430
# Poissons Ratio (z) = 0.59069 0.36223
#
# Static dielectric constant tensor:
#      x y z
#    x 1.663060 0.000000 0.000000 
#    y 0.000000 1.647070 0.000000 
#    z 0.000000 0.000000 1.625560 
# 
# From -- ./inp_files/14022.got.cif
#   From: 2010.05.17/outbox.cif.g08.bks.cpg/sg65_8_cif.got.tgz:14022.got - 2010.06.03 17:01:31.
