data_PCOD9492780
_publ_section_title
;
Structure prediction by ZEFSAII (Michael W. Deem and Ramdas Pophale) SiO2 
 PCOD9492780
Probable space group: C M M M
;
_chemical_formula_sum "Si O2"
_cell_formula_units_Z 96
_cell_length_a 27.945437
_cell_length_b 14.478976
_cell_length_c 12.549309
_cell_angle_alpha 90.000000
_cell_angle_beta 90.000000
_cell_angle_gamma 90.000000
_cell_volume 5077.717868
_symmetry_space_group_name_H-M "C M M M"
_symmetry_group_IT_number 65
_symmetry_cell_setting 'orthorhombic'
loop_
_space_group_symop_operation_xyz
x,y,z
-x,-y,z
x,-y,-z
-x,y,-z
-x,-y,-z
x,y,-z
-x,y,z
x,-y,z
1/2+x,1/2+y,z
1/2-x,1/2-y,z
1/2+x,1/2-y,-z
1/2-x,1/2+y,-z
1/2-x,1/2-y,-z
1/2+x,1/2+y,-z
1/2-x,1/2+y,z
1/2+x,1/2-y,z
loop_
_atom_site_type_symbol
_atom_site_label
_atom_site_fract_x
_atom_site_fract_y
_atom_site_fract_z
Si Si1 0.131479 0.892705 0.623094
Si Si2 0.388468 0.596836 0.000000
Si Si3 0.692605 0.746950 0.000000
Si Si4 0.293288 0.306516 0.779608
Si Si5 0.365474 0.000000 0.129200
Si Si6 0.054593 0.144728 0.210286
Si Si7 0.747601 0.000000 0.870349
Si Si8 0.945239 0.650618 0.127347
O O1 0.129767 0.864732 0.500000
O O2 0.167093 0.833304 0.695177
O O3 0.081099 0.884272 0.682992
O O4 0.146740 0.000000 0.627770
O O5 0.419424 0.605043 0.893992
O O6 0.362570 0.500000 0.000000
O O7 0.347301 0.669722 0.000000
O O8 0.750000 0.750000 0.000000
O O9 0.687628 0.764765 0.871963
O O10 0.250000 0.250000 0.728588
O O11 0.273791 0.404758 0.830647
O O12 0.309421 0.000000 0.163386
O O13 0.400699 0.085585 0.156687
O O14 0.362287 0.000000 0.000000
O O15 0.056865 0.254842 0.192126
O O16 0.000000 0.115656 0.210115
O O17 0.747623 0.000000 0.000000
O O18 0.000000 0.612571 0.139864
O O19 0.940411 0.671388 0.000000
#
# Coordination Sequence:
#
# PCOD9492780 Si02
#       8
#    16   8   8  16   8  16   8  16
#     4  11  25  44  64  84 110 151 201 248 298 352
#     4  12  23  34  60  88 122 159 192 232 292 358
#     4  10  22  35  57  90 117 151 188 226 283 347
#     4  11  23  39  61  87 119 158 196 242 294 355
#     4   9  19  30  49  83 123 158 192 232 275 343
#     4  11  23  38  59  88 120 153 193 240 295 356
#     4  11  22  33  55  90 128 155 191 235 293 356
#     4   9  17  32  53  81 121 161 192 227 281 346
#
# _framework density 18.906131999999999
#
# number of rings (size 3 to 8) (size 9 to 14) (size 15 to 20)
#    0.000    1.500    4.167    1.000    3.500    3.333 
#    0.000    0.833    0.000    0.000    0.000    0.583 
#    0.000    2.667    0.000    0.000    0.000    0.000 
#
# Total GULP energy -267278.605977 kJ/mol
# GULP energy per Si atom -5568.304291 kJ/mol
# Density = 1.886310 g / cm^3
# Si number density = 18.906132 Si / 1000 Ang^3
#
#
#
# Elastic Constant Matrix: (Units=GPa)
#
#
# Indices 1 2 3 4 5 6 
#
# 1 106.0077 13.7588 34.1641 0.0000 0.0000 0.0000
# 2 13.7588 46.0181 5.7692 0.0000 0.0000 0.0000
# 3 34.1641 5.7692 98.1803 0.0000 0.0000 0.0000
# 4 0.0000 0.0000 0.0000 13.5129 0.0000 0.0000
# 5 0.0000 0.0000 0.0000 0.0000 -27.8698 0.0000
# 6 0.0000 0.0000 0.0000 0.0000 0.0000 299.3665
#
#
#
# Elastic Compliance Matrix: (Units=1/GPa)
#
#
# Indices 1 2 3 4 5 6 
#
# 1 0.010977 -0.002824 -0.003654 0.000000 0.000000 0.000000
# 2 -0.002824 0.022618 -0.000346 0.000000 0.000000 0.000000
# 3 -0.003654 -0.000346 0.011477 0.000000 0.000000 0.000000
# 4 0.000000 0.000000 0.000000 0.074004 0.000000 0.000000
# 5 0.000000 0.000000 0.000000 0.000000 -0.035881 0.000000
# 6 0.000000 0.000000 0.000000 0.000000 0.000000 0.003340
#
#
# Mechanical properties :
#
#
# Convention : Reuss Voigt Hill
#
# Bulk Modulus (GPa) = 31.82254 39.73225 35.77739
# Shear Modulus (GPa) = 45.18382 70.10284 57.64333
#
# Velocity S-wave (km/s) = 4.89397 6.09589 5.52770
# Velocity P-wave (km/s) = 6.98591 8.40284 7.72692
#
# Compressibility (1/GPa) = 0.03142427
#
# Stress axis : x y z
#
# Youngs Moduli (GPa) = 91.09638 44.21195 87.12958
#
# Poissons Ratio (x) = 0.12485 0.31836
# Poissons Ratio (y) = 0.25726 0.03018
# Poissons Ratio (z) = 0.33286 0.01531
#
# Static dielectric constant tensor:
#      x y z
#    x 1.686560 0.000000 0.000000 
#    y 0.000000 1.751850 0.000000 
#    z 0.000000 0.000000 1.634840 
# 
# From -- ./inp_files/33954.got.cif
#   From: 2010.05.17/outbox.cif.g08.bks.cpg/sg65_17_cif.got.tgz:33954.got - 2010.06.03 17:01:31.
