data_PCOD9492894
_publ_section_title
;
Structure prediction by ZEFSAII (Michael W. Deem and Ramdas Pophale) SiO2 
 PCOD9492894
Probable space group: C M M M
;
_chemical_formula_sum "Si O2"
_cell_formula_units_Z 88
_cell_length_a 17.144861
_cell_length_b 17.420973
_cell_length_c 15.725479
_cell_angle_alpha 90.000000
_cell_angle_beta 90.000000
_cell_angle_gamma 90.000000
_cell_volume 4696.888593
_symmetry_space_group_name_H-M "C M M M"
_symmetry_group_IT_number 65
_symmetry_cell_setting 'orthorhombic'
loop_
_space_group_symop_operation_xyz
x,y,z
-x,-y,z
x,-y,-z
-x,y,-z
-x,-y,-z
x,y,-z
-x,y,z
x,-y,z
1/2+x,1/2+y,z
1/2-x,1/2-y,z
1/2+x,1/2-y,-z
1/2-x,1/2+y,-z
1/2-x,1/2-y,-z
1/2+x,1/2+y,-z
1/2-x,1/2+y,z
1/2+x,1/2-y,z
loop_
_atom_site_type_symbol
_atom_site_label
_atom_site_fract_x
_atom_site_fract_y
_atom_site_fract_z
Si Si1 0.906307 0.585026 0.834870
Si Si2 0.091175 0.203545 0.724656
Si Si3 0.668104 0.143685 0.665865
Si Si4 0.591527 0.915514 0.500000
Si Si5 0.663178 0.407969 0.600046
Si Si6 0.905908 0.750849 0.907427
O O1 0.890660 0.500000 0.871703
O O2 0.861529 0.594065 0.745742
O O3 0.885487 0.661467 0.888032
O O4 0.000000 0.589273 0.819866
O O5 0.148857 0.269280 0.690593
O O6 0.101446 0.131028 0.663563
O O7 0.113528 0.197933 0.824732
O O8 0.000000 0.228987 0.721835
O O9 0.616386 0.126631 0.584205
O O10 0.754524 0.122144 0.636821
O O11 0.500000 0.923190 0.500000
O O12 0.629819 0.000000 0.500000
O O13 0.654607 0.385905 0.500000
O O14 0.660612 0.500000 0.604164
O O15 0.000000 0.752943 0.912204
O O16 0.874634 0.774011 0.000000
#
# Coordination Sequence:
#
# PCOD9492894 Si02
#       6
#    16  16  16   8  16  16
#     4   9  16  26  44  74 111 148 183 219 265 322
#     4  10  22  38  58  84 110 141 183 230 278 327
#     4  11  20  34  53  75 108 144 183 226 268 319
#     4  11  20  28  45  74 108 146 183 223 268 310
#     4  11  24  40  57  78 108 148 190 228 271 327
#     4   8  15  30  52  78 106 136 175 226 280 329
#
# _framework density 18.735807999999999
#
# number of rings (size 3 to 8) (size 9 to 14) (size 15 to 20)
#    0.000    2.091    0.909    4.909    1.273    3.273 
#    0.000    2.727    0.000    9.273    0.000    2.545 
#    0.000    0.000    0.000    0.000    0.000    0.000 
#
# Total GULP energy -245198.556723 kJ/mol
# GULP energy per Si atom -5572.694471 kJ/mol
# Density = 1.869316 g / cm^3
# Si number density = 18.735808 Si / 1000 Ang^3
#
#
#
# Elastic Constant Matrix: (Units=GPa)
#
#
# Indices 1 2 3 4 5 6 
#
# 1 25.6330 15.0108 21.3549 0.0000 0.0000 0.0000
# 2 15.0108 60.6692 42.4999 0.0000 0.0000 0.0000
# 3 21.3549 42.4999 149.4724 0.0000 0.0000 0.0000
# 4 0.0000 0.0000 0.0000 14.8302 0.0000 0.0000
# 5 0.0000 0.0000 0.0000 0.0000 -20.2437 0.0000
# 6 0.0000 0.0000 0.0000 0.0000 0.0000 29.2702
#
#
#
# Elastic Compliance Matrix: (Units=1/GPa)
#
#
# Indices 1 2 3 4 5 6 
#
# 1 0.047761 -0.008787 -0.004325 0.000000 0.000000 0.000000
# 2 -0.008787 0.022199 -0.005057 0.000000 0.000000 0.000000
# 3 -0.004325 -0.005057 0.008746 0.000000 0.000000 0.000000
# 4 0.000000 0.000000 0.000000 0.067430 0.000000 0.000000
# 5 0.000000 0.000000 0.000000 0.000000 -0.049398 0.000000
# 6 0.000000 0.000000 0.000000 0.000000 0.000000 0.034164
#
#
# Mechanical properties :
#
#
# Convention : Reuss Voigt Hill
#
# Bulk Modulus (GPa) = 23.60240 43.72283 33.66262
# Shear Modulus (GPa) = 27.56896 15.23194 21.40045
#
# Velocity S-wave (km/s) = 3.84012 2.85438 3.38334
# Velocity P-wave (km/s) = 5.68215 5.85239 5.76790
#
# Compressibility (1/GPa) = 0.04236857
#
# Stress axis : x y z
#
# Youngs Moduli (GPa) = 20.93741 45.04669 114.33999
#
# Poissons Ratio (x) = 0.39584 0.49453
# Poissons Ratio (y) = 0.18398 0.57816
# Poissons Ratio (z) = 0.09056 0.22778
#
# Static dielectric constant tensor:
#      x y z
#    x 1.687970 0.000000 0.000000 
#    y 0.000000 1.700990 0.000000 
#    z 0.000000 0.000000 1.656720 
# 
# From -- ./inp_files/42475.got.cif
#   From: 2010.05.17/outbox.cif.g08.bks.cpg/sg65_22_cif.got.tgz:42475.got - 2010.06.03 17:01:31.
