data_PCOD9492748
_publ_section_title
;
Structure prediction by ZEFSAII (Michael W. Deem and Ramdas Pophale) SiO2 
 PCOD9492748
Probable space group: C M M M
;
_chemical_formula_sum "Si O2"
_cell_formula_units_Z 32
_cell_length_a 16.616862
_cell_length_b 10.877429
_cell_length_c 7.914434
_cell_angle_alpha 90.000000
_cell_angle_beta 90.000000
_cell_angle_gamma 90.000000
_cell_volume 1430.523946
_symmetry_space_group_name_H-M "C M M M"
_symmetry_group_IT_number 65
_symmetry_cell_setting 'orthorhombic'
loop_
_space_group_symop_operation_xyz
x,y,z
-x,-y,z
x,-y,-z
-x,y,-z
-x,-y,-z
x,y,-z
-x,y,z
x,-y,z
1/2+x,1/2+y,z
1/2-x,1/2-y,z
1/2+x,1/2-y,-z
1/2-x,1/2+y,-z
1/2-x,1/2-y,-z
1/2+x,1/2+y,-z
1/2-x,1/2+y,z
1/2+x,1/2-y,z
loop_
_atom_site_type_symbol
_atom_site_label
_atom_site_fract_x
_atom_site_fract_y
_atom_site_fract_z
Si Si1 0.308670 0.866005 0.500000
Si Si2 0.597073 0.231092 0.808482
Si Si3 0.094119 0.000000 0.296489
O O1 0.250000 0.750000 0.500000
O O2 0.363219 0.851555 0.665988
O O3 0.268979 0.000000 0.500000
O O4 0.500000 0.229164 0.788934
O O5 0.626468 0.371529 0.774172
O O6 0.616552 0.195604 0.000000
O O7 0.094869 0.000000 0.500000
O O8 0.000000 0.000000 0.244425
#
# Coordination Sequence:
#
# PCOD9492748 Si02
#       3
#     8  16   8
#     4  12  29  47  66  94 134 181 222 267 329 399
#     4  10  21  40  70 103 133 169 219 278 333 386
#     4   9  15  29  61 102 137 167 204 257 324 388
#
# _framework density 22.369429
#
# number of rings (size 3 to 8) (size 9 to 14) (size 15 to 20)
#    0.000    1.750    2.500    1.500    3.500    7.000 
#    0.000    2.500    0.000    0.000    0.000    0.000 
#    0.000    0.000    0.000    0.000    0.000    0.000 
#
# Total GULP energy -89492.097443 kJ/mol
# GULP energy per Si atom -5593.256090 kJ/mol
# Density = 2.231851 g / cm^3
# Si number density = 22.369429 Si / 1000 Ang^3
#
#
#
# Elastic Constant Matrix: (Units=GPa)
#
#
# Indices 1 2 3 4 5 6 
#
# 1 42.7263 33.6148 45.0482 0.0000 0.0000 0.0000
# 2 33.6148 128.7597 47.2225 0.0000 0.0000 0.0000
# 3 45.0482 47.2225 145.2364 0.0000 0.0000 0.0000
# 4 0.0000 0.0000 0.0000 2.9666 0.0000 0.0000
# 5 0.0000 0.0000 0.0000 0.0000 7.3318 0.0000
# 6 0.0000 0.0000 0.0000 0.0000 0.0000 32.5685
#
#
#
# Elastic Compliance Matrix: (Units=1/GPa)
#
#
# Indices 1 2 3 4 5 6 
#
# 1 0.039091 -0.006538 -0.009999 0.000000 0.000000 0.000000
# 2 -0.006538 0.009911 -0.001195 0.000000 0.000000 0.000000
# 3 -0.009999 -0.001195 0.010375 0.000000 0.000000 0.000000
# 4 0.000000 0.000000 0.000000 0.337082 0.000000 0.000000
# 5 0.000000 0.000000 0.000000 0.000000 0.136393 0.000000
# 6 0.000000 0.000000 0.000000 0.000000 0.000000 0.030705
#
#
# Mechanical properties :
#
#
# Convention : Reuss Voigt Hill
#
# Bulk Modulus (GPa) = 41.81674 63.16594 52.49134
# Shear Modulus (GPa) = 8.23733 21.29583 14.76658
#
# Velocity S-wave (km/s) = 1.92104 3.08881 2.57207
# Velocity P-wave (km/s) = 4.86362 6.40468 5.68659
#
# Compressibility (1/GPa) = 0.02391387
#
# Stress axis : x y z
#
# Youngs Moduli (GPa) = 25.58115 100.89325 96.38360
#
# Poissons Ratio (x) = 0.65966 0.96375
# Poissons Ratio (y) = 0.16726 0.11515
# Poissons Ratio (z) = 0.25579 0.12053
#
# Static dielectric constant tensor:
#      x y z
#    x 1.846150 0.000000 0.000000 
#    y 0.000000 1.842140 0.000000 
#    z 0.000000 0.000000 1.778090 
# 
# From -- ./inp_files/3381.got.cif
#   From: 2010.05.17/outbox.cif.g08.bks.cpg/sg65_2_cif.got.tgz:3381.got - 2010.06.03 17:01:31.
