data_PCOD9492335
_publ_section_title
;
Structure prediction by ZEFSAII (Michael W. Deem and Ramdas Pophale) SiO2 
 PCOD9492335
Probable space group: C M M M
;
_chemical_formula_sum "Si O2"
_cell_formula_units_Z 72
_cell_length_a 15.859725
_cell_length_b 8.800477
_cell_length_c 27.377039
_cell_angle_alpha 90.000000
_cell_angle_beta 90.000000
_cell_angle_gamma 90.000000
_cell_volume 3821.099436
_symmetry_space_group_name_H-M "C M M M"
_symmetry_group_IT_number 65
_symmetry_cell_setting 'orthorhombic'
loop_
_space_group_symop_operation_xyz
x,y,z
-x,-y,z
x,-y,-z
-x,y,-z
-x,-y,-z
x,y,-z
-x,y,z
x,-y,z
1/2+x,1/2+y,z
1/2-x,1/2-y,z
1/2+x,1/2-y,-z
1/2-x,1/2+y,-z
1/2-x,1/2-y,-z
1/2+x,1/2+y,-z
1/2-x,1/2+y,z
1/2+x,1/2-y,z
loop_
_atom_site_type_symbol
_atom_site_label
_atom_site_fract_x
_atom_site_fract_y
_atom_site_fract_z
Si Si1 0.000000 0.682023 0.269747
Si Si2 0.901329 0.333632 0.000000
Si Si3 0.345511 0.683263 0.791681
Si Si4 0.159952 0.817103 0.556432
Si Si5 0.342466 0.319351 0.901221
Si Si6 0.000000 0.184400 0.377861
O O1 0.915412 0.747999 0.244222
O O2 0.000000 0.500000 0.266161
O O3 0.000000 0.736917 0.325620
O O4 0.881764 0.247522 0.049951
O O5 0.858200 0.500000 0.000000
O O6 0.000000 0.353221 0.000000
O O7 0.340985 0.500000 0.786385
O O8 0.250000 0.750000 0.785593
O O9 0.377212 0.717541 0.847236
O O10 0.144256 0.770448 0.500000
O O11 0.250000 0.750000 0.571681
O O12 0.082932 0.773051 0.591120
O O13 0.165263 0.000000 0.557071
O O14 0.340572 0.500000 0.905295
O O15 0.250000 0.250000 0.900048
O O16 0.000000 0.000000 0.372079
#
# Coordination Sequence:
#
# PCOD9492335 Si02
#       6
#     8   8  16  16  16   8
#     4  12  26  41  61  88 121 160 202 251 303 357
#     4  11  24  37  52  81 117 151 184 225 276 337
#     4  10  22  42  66  91 117 152 198 248 303 360
#     4   9  18  34  58  87 118 155 197 241 292 348
#     4  10  21  38  61  84 110 144 183 230 283 345
#     4  10  21  38  58  82 117 159 200 245 294 351
#
# _framework density 18.842744
#
# number of rings (size 3 to 8) (size 9 to 14) (size 15 to 20)
#    0.000    1.889    0.000    3.333    1.556    6.667 
#    0.000    2.222    0.000    3.333    0.000    0.000 
#    0.000    0.000    0.000    0.000    0.000    0.000 
#
# Total GULP energy -200871.358973 kJ/mol
# GULP energy per Si atom -5579.759971 kJ/mol
# Density = 1.879986 g / cm^3
# Si number density = 18.842744 Si / 1000 Ang^3
#
#
#
# Elastic Constant Matrix: (Units=GPa)
#
#
# Indices 1 2 3 4 5 6 
#
# 1 133.3670 55.4519 110.9506 0.0000 0.0000 0.0000
# 2 55.4519 78.0456 69.9822 0.0000 0.0000 0.0000
# 3 110.9506 69.9822 165.9228 0.0000 0.0000 0.0000
# 4 0.0000 0.0000 0.0000 27.0829 0.0000 0.0000
# 5 0.0000 0.0000 0.0000 0.0000 10.7813 0.0000
# 6 0.0000 0.0000 0.0000 0.0000 0.0000 26.4455
#
#
#
# Elastic Compliance Matrix: (Units=1/GPa)
#
#
# Indices 1 2 3 4 5 6 
#
# 1 0.017352 -0.003095 -0.010297 0.000000 0.000000 0.000000
# 2 -0.003095 0.021158 -0.006855 0.000000 0.000000 0.000000
# 3 -0.010297 -0.006855 0.015804 0.000000 0.000000 0.000000
# 4 0.000000 0.000000 0.000000 0.036924 0.000000 0.000000
# 5 0.000000 0.000000 0.000000 0.000000 0.092753 0.000000
# 6 0.000000 0.000000 0.000000 0.000000 0.000000 0.037814
#
#
# Mechanical properties :
#
#
# Convention : Reuss Voigt Hill
#
# Bulk Modulus (GPa) = 72.35936 94.45607 83.40772
# Shear Modulus (GPa) = 18.73331 22.25865 20.49598
#
# Velocity S-wave (km/s) = 3.15650 3.44071 3.30167
# Velocity P-wave (km/s) = 7.19512 8.12540 7.67437
#
# Compressibility (1/GPa) = 0.01381991
#
# Stress axis : x y z
#
# Youngs Moduli (GPa) = 57.63190 47.26270 63.27605
#
# Poissons Ratio (x) = 0.14627 0.65158
# Poissons Ratio (y) = 0.17836 0.43373
# Poissons Ratio (z) = 0.59346 0.32397
#
# Static dielectric constant tensor:
#      x y z
#    x 1.625450 0.000000 0.000000 
#    y 0.000000 1.846720 0.000000 
#    z 0.000000 0.000000 1.717990 
# 
# From -- ./inp_files/74672.got.cif
#   From: 2010.05.17/outbox.cif.g08.bks.cpg/sg65_38_cif.got.tgz:74672.got - 2010.06.03 17:01:31.
