data_PCOD9492988
_publ_section_title
;
Structure prediction by ZEFSAII (Michael W. Deem and Ramdas Pophale) SiO2 
 PCOD9492988
Probable space group: C M M M
;
_chemical_formula_sum "Si O2"
_cell_formula_units_Z 80
_cell_length_a 18.602345
_cell_length_b 8.757590
_cell_length_c 26.703602
_cell_angle_alpha 90.000000
_cell_angle_beta 90.000000
_cell_angle_gamma 90.000000
_cell_volume 4350.329480
_symmetry_space_group_name_H-M "C M M M"
_symmetry_group_IT_number 65
_symmetry_cell_setting 'orthorhombic'
loop_
_space_group_symop_operation_xyz
x,y,z
-x,-y,z
x,-y,-z
-x,y,-z
-x,-y,-z
x,y,-z
-x,y,z
x,-y,z
1/2+x,1/2+y,z
1/2-x,1/2-y,z
1/2+x,1/2-y,-z
1/2-x,1/2+y,-z
1/2-x,1/2-y,-z
1/2+x,1/2+y,-z
1/2-x,1/2+y,z
1/2+x,1/2-y,z
loop_
_atom_site_type_symbol
_atom_site_label
_atom_site_fract_x
_atom_site_fract_y
_atom_site_fract_z
Si Si1 0.083994 0.316122 0.942946
Si Si2 0.584187 0.316121 0.249193
Si Si3 0.169345 0.318043 0.342517
Si Si4 0.169001 0.816876 0.554790
Si Si5 0.329375 0.682656 0.149295
O O1 0.089574 0.500000 0.939728
O O2 0.132891 0.241374 0.901021
O O3 0.000000 0.276166 0.934995
O O4 0.103220 0.271900 0.000000
O O5 0.500000 0.278293 0.246989
O O6 0.590856 0.500000 0.254828
O O7 0.622621 0.236727 0.295816
O O8 0.623362 0.272162 0.197577
O O9 0.174299 0.500000 0.344598
O O10 0.250000 0.250000 0.337224
O O11 0.137161 0.254970 0.394919
O O12 0.136223 0.781482 0.500000
O O13 0.250000 0.750000 0.553355
O O14 0.172221 0.000000 0.559835
O O15 0.325517 0.500000 0.148109
O O16 0.250000 0.750000 0.153953
#
# Coordination Sequence:
#
# PCOD9492988 Si02
#       5
#    16  16  16  16  16
#     4   9  19  37  60  85 114 148 184 223 269 320
#     4  10  22  40  59  79 106 139 177 223 274 328
#     4  11  21  33  53  80 110 143 180 222 268 318
#     4   9  16  27  46  73 105 140 177 218 266 317
#     4  11  23  38  58  84 112 144 182 225 273 321
#
# _framework density 18.389412
#
# number of rings (size 3 to 8) (size 9 to 14) (size 15 to 20)
#    0.000    2.000    0.000    6.000    0.000    6.800 
#    0.000    1.000    0.000    0.600    0.000    4.200 
#    0.000    0.000    0.000    0.000    0.000    0.000 
#
# Total GULP energy -223305.949885 kJ/mol
# GULP energy per Si atom -5582.648747 kJ/mol
# Density = 1.834756 g / cm^3
# Si number density = 18.389412 Si / 1000 Ang^3
#
#
#
# Elastic Constant Matrix: (Units=GPa)
#
#
# Indices 1 2 3 4 5 6 
#
# 1 100.9383 54.3820 99.1896 0.0000 0.0000 0.0000
# 2 54.3820 73.4242 75.5489 0.0000 0.0000 0.0000
# 3 99.1896 75.5489 200.4776 0.0000 0.0000 0.0000
# 4 0.0000 0.0000 0.0000 56.7378 0.0000 0.0000
# 5 0.0000 0.0000 0.0000 0.0000 -32.5299 0.0000
# 6 0.0000 0.0000 0.0000 0.0000 0.0000 10.2781
#
#
#
# Elastic Compliance Matrix: (Units=1/GPa)
#
#
# Indices 1 2 3 4 5 6 
#
# 1 0.022011 -0.008325 -0.007753 0.000000 0.000000 0.000000
# 2 -0.008325 0.025394 -0.005450 0.000000 0.000000 0.000000
# 3 -0.007753 -0.005450 0.010878 0.000000 0.000000 0.000000
# 4 0.000000 0.000000 0.000000 0.017625 0.000000 0.000000
# 5 0.000000 0.000000 0.000000 0.000000 -0.030741 0.000000
# 6 0.000000 0.000000 0.000000 0.000000 0.000000 0.097294
#
#
# Mechanical properties :
#
#
# Convention : Reuss Voigt Hill
#
# Bulk Modulus (GPa) = 65.67960 92.56455 79.12207
# Shear Modulus (GPa) = 26.23379 16.61182 21.42281
#
# Velocity S-wave (km/s) = 3.78109 3.00882 3.41684
# Velocity P-wave (km/s) = 7.40647 7.90669 7.66066
#
# Compressibility (1/GPa) = 0.01522543
#
# Stress axis : x y z
#
# Youngs Moduli (GPa) = 45.43162 39.37963 91.92864
#
# Poissons Ratio (x) = 0.32785 0.71272
# Poissons Ratio (y) = 0.37823 0.50105
# Poissons Ratio (z) = 0.35223 0.21464
#
# Static dielectric constant tensor:
#      x y z
#    x 1.604370 0.000000 0.000000 
#    y 0.000000 1.608090 0.000000 
#    z 0.000000 0.000000 1.649950 
# 
# From -- ./inp_files/75025.got.cif
#   From: 2010.05.17/outbox.cif.g08.bks.cpg/sg65_38_cif.got.tgz:75025.got - 2010.06.03 17:01:31.
