data_PCOD9492712
_publ_section_title
;
Structure prediction by ZEFSAII (Michael W. Deem and Ramdas Pophale) SiO2 
 PCOD9492712
Probable space group: C M M M
;
_chemical_formula_sum "Si O2"
_cell_formula_units_Z 64
_cell_length_a 8.619097
_cell_length_b 15.425390
_cell_length_c 24.504433
_cell_angle_alpha 90.000000
_cell_angle_beta 90.000000
_cell_angle_gamma 90.000000
_cell_volume 3257.936231
_symmetry_space_group_name_H-M "C M M M"
_symmetry_group_IT_number 65
_symmetry_cell_setting 'orthorhombic'
loop_
_space_group_symop_operation_xyz
x,y,z
-x,-y,z
x,-y,-z
-x,y,-z
-x,-y,-z
x,y,-z
-x,y,z
x,-y,z
1/2+x,1/2+y,z
1/2-x,1/2-y,z
1/2+x,1/2-y,-z
1/2-x,1/2+y,-z
1/2-x,1/2-y,-z
1/2+x,1/2+y,-z
1/2-x,1/2+y,z
1/2+x,1/2-y,z
loop_
_atom_site_type_symbol
_atom_site_label
_atom_site_fract_x
_atom_site_fract_y
_atom_site_fract_z
Si Si1 0.317741 0.154105 0.000000
Si Si2 0.313627 0.500000 0.578625
Si Si3 0.687473 0.149296 0.500000
Si Si4 0.323378 0.600993 0.112936
Si Si5 0.687472 0.658916 0.229365
Si Si6 0.685596 0.000000 0.700630
O O1 0.250000 0.250000 0.000000
O O2 0.262595 0.110740 0.944028
O O3 0.500000 0.157050 0.000000
O O4 0.500000 0.500000 0.572412
O O5 0.246486 0.587751 0.550060
O O6 0.263455 0.500000 0.641324
O O7 0.500000 0.152553 0.500000
O O8 0.750000 0.250000 0.500000
O O9 0.500000 0.631598 0.103717
O O10 0.327711 0.500000 0.127929
O O11 0.258988 0.648330 0.166202
O O12 0.500000 0.654389 0.229672
O O13 0.750000 0.750000 0.250222
O O14 0.756981 0.582755 0.265409
O O15 0.500000 0.000000 0.695566
#
# Coordination Sequence:
#
# PCOD9492712 Si02
#       6
#     8   8   8  16  16   8
#     4  12  25  38  55  83 115 151 197 251 308 377
#     4  11  23  42  67  98 135 177 221 270 321 375
#     4  11  22  41  68 102 140 179 222 267 318 376
#     4  10  21  40  63  86 116 154 196 249 314 380
#     4  11  23  42  65  93 124 164 211 262 320 384
#     4  12  25  43  66  95 130 172 217 268 320 376
#
# _framework density 19.644338000000001
#
# number of rings (size 3 to 8) (size 9 to 14) (size 15 to 20)
#    0.000    1.000    1.250    7.125    0.000    7.000 
#    0.000    5.000    0.000    0.000    0.000    0.000 
#    0.000    0.000    0.000    0.000    0.000    0.000 
#
# Total GULP energy -178809.807186 kJ/mol
# GULP energy per Si atom -5587.806475 kJ/mol
# Density = 1.959963 g / cm^3
# Si number density = 19.644338 Si / 1000 Ang^3
#
#
#
# Elastic Constant Matrix: (Units=GPa)
#
#
# Indices 1 2 3 4 5 6 
#
# 1 134.8643 49.6635 56.3739 0.0000 0.0000 0.0000
# 2 49.6635 164.0582 66.5436 0.0000 0.0000 0.0000
# 3 56.3739 66.5436 143.8570 0.0000 0.0000 0.0000
# 4 0.0000 0.0000 0.0000 90.0332 0.0000 0.0000
# 5 0.0000 0.0000 0.0000 0.0000 25.1993 0.0000
# 6 0.0000 0.0000 0.0000 0.0000 0.0000 33.5959
#
#
#
# Elastic Compliance Matrix: (Units=1/GPa)
#
#
# Indices 1 2 3 4 5 6 
#
# 1 0.009208 -0.001630 -0.002855 0.000000 0.000000 0.000000
# 2 -0.001630 0.007792 -0.002966 0.000000 0.000000 0.000000
# 3 -0.002855 -0.002966 0.009442 0.000000 0.000000 0.000000
# 4 0.000000 0.000000 0.000000 0.011107 0.000000 0.000000
# 5 0.000000 0.000000 0.000000 0.000000 0.039684 0.000000
# 6 0.000000 0.000000 0.000000 0.000000 0.000000 0.029766
#
#
# Mechanical properties :
#
#
# Convention : Reuss Voigt Hill
#
# Bulk Modulus (GPa) = 86.64044 87.54907 87.09475
# Shear Modulus (GPa) = 39.76312 47.77892 43.77102
#
# Velocity S-wave (km/s) = 4.50394 4.93708 4.72548
# Velocity P-wave (km/s) = 8.44083 8.78428 8.61426
#
# Compressibility (1/GPa) = 0.01154195
#
# Stress axis : x y z
#
# Youngs Moduli (GPa) = 108.59856 128.34396 105.91237
#
# Poissons Ratio (x) = 0.20915 0.30234
# Poissons Ratio (y) = 0.17698 0.31409
# Poissons Ratio (z) = 0.31001 0.38061
#
# Static dielectric constant tensor:
#      x y z
#    x 1.673530 0.000000 0.000000 
#    y 0.000000 1.742930 0.000000 
#    z 0.000000 0.000000 1.710550 
# 
# From -- ./inp_files/66882.got.cif
#   From: 2010.05.17/outbox.cif.g08.bks.cpg/sg65_34_cif.got.tgz:66882.got - 2010.06.03 17:01:31.
