data_PCOD9492696
_publ_section_title
;
Structure prediction by ZEFSAII (Michael W. Deem and Ramdas Pophale) SiO2 
 PCOD9492696
Probable space group: C M M M
;
_chemical_formula_sum "Si O2"
_cell_formula_units_Z 104
_cell_length_a 25.905706
_cell_length_b 24.514603
_cell_length_c 8.930093
_cell_angle_alpha 90.000000
_cell_angle_beta 90.000000
_cell_angle_gamma 90.000000
_cell_volume 5671.217177
_symmetry_space_group_name_H-M "C M M M"
_symmetry_group_IT_number 65
_symmetry_cell_setting 'orthorhombic'
loop_
_space_group_symop_operation_xyz
x,y,z
-x,-y,z
x,-y,-z
-x,y,-z
-x,-y,-z
x,y,-z
-x,y,z
x,-y,z
1/2+x,1/2+y,z
1/2-x,1/2-y,z
1/2+x,1/2-y,-z
1/2-x,1/2+y,-z
1/2-x,1/2-y,-z
1/2+x,1/2+y,-z
1/2-x,1/2+y,z
1/2+x,1/2-y,z
loop_
_atom_site_type_symbol
_atom_site_label
_atom_site_fract_x
_atom_site_fract_y
_atom_site_fract_z
Si Si1 0.689392 0.739266 0.667289
Si Si2 0.837986 0.113243 0.321386
Si Si3 0.562622 0.000000 0.330632
Si Si4 0.155165 0.342993 0.825310
Si Si5 0.558997 0.435156 0.820037
Si Si6 0.764059 0.562660 0.818934
Si Si7 0.058274 0.616766 0.680683
O O1 0.666961 0.751046 0.500000
O O2 0.750000 0.750000 0.653083
O O3 0.675183 0.677109 0.705483
O O4 0.674670 0.782650 0.792346
O O5 0.837279 0.104574 0.500000
O O6 0.893844 0.096387 0.257050
O O7 0.791847 0.078305 0.247143
O O8 0.575058 0.057130 0.257660
O O9 0.500000 0.000000 0.343145
O O10 0.583824 0.000000 0.500000
O O11 0.194878 0.390452 0.770721
O O12 0.101520 0.344297 0.738241
O O13 0.147130 0.352568 0.000000
O O14 0.500000 0.419256 0.775989
O O15 0.564398 0.500000 0.788594
O O16 0.562755 0.428444 0.000000
O O17 0.778190 0.500000 0.777049
O O18 0.761143 0.564823 0.000000
O O19 0.057829 0.613403 0.500000
O O20 0.000000 0.628911 0.728409
#
# Coordination Sequence:
#
# PCOD9492696 Si02
#       7
#    16  16   8  16  16  16  16
#     4  10  21  40  60  78 108 148 189 233 281 333
#     4  11  22  36  59  88 113 143 188 240 285 326
#     4   7  12  26  49  75  99 131 177 217 254 311
#     4  11  23  36  56  83 110 144 187 232 277 329
#     4   9  19  37  60  86 120 161 194 222 273 345
#     4  10  22  38  54  78 116 154 182 218 276 341
#     4   9  18  34  55  77 105 142 181 222 271 326
#
# _framework density 18.338215000000002
#
# number of rings (size 3 to 8) (size 9 to 14) (size 15 to 20)
#    0.000    2.231    1.538    2.769    1.077    5.231 
#    0.000    1.538    0.000    2.308    0.000    0.000 
#    0.000    0.000    0.000    0.000    0.000    0.000 
#
# Total GULP energy -289687.733697 kJ/mol
# GULP energy per Si atom -5570.917956 kJ/mol
# Density = 1.829648 g / cm^3
# Si number density = 18.338215 Si / 1000 Ang^3
#
#
#
# Elastic Constant Matrix: (Units=GPa)
#
#
# Indices 1 2 3 4 5 6 
#
# 1 108.4314 39.0517 31.3633 0.0000 0.0000 0.0000
# 2 39.0517 79.3972 26.8132 0.0000 0.0000 0.0000
# 3 31.3633 26.8132 26.3410 0.0000 0.0000 0.0000
# 4 0.0000 0.0000 0.0000 26.5419 0.0000 0.0000
# 5 0.0000 0.0000 0.0000 0.0000 6.3280 0.0000
# 6 0.0000 0.0000 0.0000 0.0000 0.0000 27.9753
#
#
#
# Elastic Compliance Matrix: (Units=1/GPa)
#
#
# Indices 1 2 3 4 5 6 
#
# 1 0.014263 -0.001951 -0.014996 0.000000 0.000000 0.000000
# 2 -0.001951 0.019459 -0.017486 0.000000 0.000000 0.000000
# 3 -0.014996 -0.017486 0.073618 0.000000 0.000000 0.000000
# 4 0.000000 0.000000 0.000000 0.037676 0.000000 0.000000
# 5 0.000000 0.000000 0.000000 0.000000 0.158027 0.000000
# 6 0.000000 0.000000 0.000000 0.000000 0.000000 0.035746
#
#
# Mechanical properties :
#
#
# Convention : Reuss Voigt Hill
#
# Bulk Modulus (GPa) = 25.99087 45.40288 35.69688
# Shear Modulus (GPa) = 11.89118 19.96515 15.92816
#
# Velocity S-wave (km/s) = 2.54921 3.30315 2.95036
# Velocity P-wave (km/s) = 4.78210 6.27376 5.57802
#
# Compressibility (1/GPa) = 0.03847504
#
# Stress axis : x y z
#
# Youngs Moduli (GPa) = 70.11359 51.38897 13.58359
#
# Poissons Ratio (x) = 0.10024 0.20370
# Poissons Ratio (y) = 0.13677 0.23752
# Poissons Ratio (z) = 1.05144 0.89857
#
# Static dielectric constant tensor:
#      x y z
#    x 1.617260 0.000000 0.000000 
#    y 0.000000 1.634080 0.000000 
#    z 0.000000 0.000000 1.652040 
# 
# From -- ./inp_files/16799.got.cif
#   From: 2010.05.17/outbox.cif.g08.bks.cpg/sg65_9_cif.got.tgz:16799.got - 2010.06.03 17:01:31.
