data_PCOD9492557
_publ_section_title
;
Structure prediction by ZEFSAII (Michael W. Deem and Ramdas Pophale) SiO2 
 PCOD9492557
Probable space group: C M M M
;
_chemical_formula_sum "Si O2"
_cell_formula_units_Z 72
_cell_length_a 8.607690
_cell_length_b 14.999036
_cell_length_c 28.292707
_cell_angle_alpha 90.000000
_cell_angle_beta 90.000000
_cell_angle_gamma 90.000000
_cell_volume 3652.787999
_symmetry_space_group_name_H-M "C M M M"
_symmetry_group_IT_number 65
_symmetry_cell_setting 'orthorhombic'
loop_
_space_group_symop_operation_xyz
x,y,z
-x,-y,z
x,-y,-z
-x,y,-z
-x,-y,-z
x,y,-z
-x,y,z
x,-y,z
1/2+x,1/2+y,z
1/2-x,1/2-y,z
1/2+x,1/2-y,-z
1/2-x,1/2+y,-z
1/2-x,1/2-y,-z
1/2+x,1/2+y,-z
1/2-x,1/2+y,z
1/2+x,1/2-y,z
loop_
_atom_site_type_symbol
_atom_site_label
_atom_site_fract_x
_atom_site_fract_y
_atom_site_fract_z
Si Si1 0.686863 0.500000 0.769650
Si Si2 0.814210 0.000000 0.120969
Si Si3 0.687500 0.648574 0.500000
Si Si4 0.813915 0.349411 0.946467
Si Si5 0.312728 0.648260 0.397708
Si Si6 0.185373 0.649212 0.701350
O O1 0.500000 0.500000 0.767194
O O2 0.735501 0.500000 0.824405
O O3 0.750957 0.413738 0.742404
O O4 0.752720 0.914808 0.092616
O O5 0.000000 0.000000 0.119992
O O6 0.500000 0.651666 0.500000
O O7 0.750000 0.750000 0.500000
O O8 0.732303 0.608585 0.550980
O O9 0.750000 0.250000 0.940057
O O10 0.000000 0.348826 0.943846
O O11 0.770300 0.378522 0.000000
O O12 0.500000 0.647705 0.393945
O O13 0.250000 0.750000 0.398998
O O14 0.242372 0.611364 0.349436
O O15 0.250000 0.750000 0.705948
O O16 0.000000 0.651942 0.701823
#
# Coordination Sequence:
#
# PCOD9492557 Si02
#       6
#     8   8   8  16  16  16
#     4  11  25  44  62  84 113 150 196 245 295 344
#     4  11  24  40  61  88 119 155 196 243 294 344
#     4   8  14  22  38  67 102 137 175 218 270 331
#     4  10  21  38  62  92 126 163 200 237 281 335
#     4   9  15  26  45  72 105 141 180 225 276 335
#     4  11  22  38  60  85 112 148 191 237 290 347
#
# _framework density 19.710971000000001
#
# number of rings (size 3 to 8) (size 9 to 14) (size 15 to 20)
#    0.000    2.000    0.000    5.667    0.000    6.222 
#    0.000    0.000    0.000    0.667    0.000    4.667 
#    0.000    0.000    0.000    0.000    0.000    0.000 
#
# Total GULP energy -200997.542373 kJ/mol
# GULP energy per Si atom -5583.265066 kJ/mol
# Density = 1.966611 g / cm^3
# Si number density = 19.710971 Si / 1000 Ang^3
#
#
#
# Elastic Constant Matrix: (Units=GPa)
#
#
# Indices 1 2 3 4 5 6 
#
# 1 93.0935 34.3010 74.9276 0.0000 0.0000 0.0000
# 2 34.3010 95.9953 92.0935 0.0000 0.0000 0.0000
# 3 74.9276 92.0935 240.6510 0.0000 0.0000 0.0000
# 4 0.0000 0.0000 0.0000-2628.8993 0.0000 0.0000
# 5 0.0000 0.0000 0.0000 0.0000 32.2707 0.0000
# 6 0.0000 0.0000 0.0000 0.0000 0.0000 24.9564
#
#
#
# Elastic Compliance Matrix: (Units=1/GPa)
#
#
# Indices 1 2 3 4 5 6 
#
# 1 0.014442 -0.001338 -0.003985 0.000000 0.000000 0.000000
# 2 -0.001338 0.016584 -0.005930 0.000000 0.000000 0.000000
# 3 -0.003985 -0.005930 0.007665 0.000000 0.000000 0.000000
# 4 0.000000 0.000000 0.000000 -0.000380 0.000000 0.000000
# 5 0.000000 0.000000 0.000000 0.000000 0.030988 0.000000
# 6 0.000000 0.000000 0.000000 0.000000 0.000000 0.040070
#
#
# Mechanical properties :
#
#
# Convention : Reuss Voigt Hill
#
# Bulk Modulus (GPa) = 61.77913 92.48710 77.13311
# Shear Modulus (GPa) = 36.42486 -499.10661 -231.34087
#
# Velocity S-wave (km/s) = 4.30344 -15.92992 -10.84534
# Velocity P-wave (km/s) = 7.49022 17.06828 10.84488
#
# Compressibility (1/GPa) = 0.01618670
#
# Stress axis : x y z
#
# Youngs Moduli (GPa) = 69.24322 60.29858 130.45742
#
# Poissons Ratio (x) = 0.08066 0.51982
# Poissons Ratio (y) = 0.09263 0.77361
# Poissons Ratio (z) = 0.27591 0.35757
#
# Static dielectric constant tensor:
#      x y z
#    x 1.657270 0.000000 0.000000 
#    y 0.000000 1.734470 0.000000 
#    z 0.000000 0.000000 1.718280 
# 
# From -- ./inp_files/72608.got.cif
#   From: 2010.05.17/outbox.cif.g08.bks.cpg/sg65_37_cif.got.tgz:72608.got - 2010.06.03 17:01:31.
