data_PCOD9492911
_publ_section_title
;
Structure prediction by ZEFSAII (Michael W. Deem and Ramdas Pophale) SiO2 
 PCOD9492911
Probable space group: C M M M
;
_chemical_formula_sum "Si O2"
_cell_formula_units_Z 58
_cell_length_a 8.315543
_cell_length_b 19.393586
_cell_length_c 17.153464
_cell_angle_alpha 90.000000
_cell_angle_beta 90.000000
_cell_angle_gamma 90.000000
_cell_volume 2766.308234
_symmetry_space_group_name_H-M "C M M M"
_symmetry_group_IT_number 65
_symmetry_cell_setting 'orthorhombic'
loop_
_space_group_symop_operation_xyz
x,y,z
-x,-y,z
x,-y,-z
-x,y,-z
-x,-y,-z
x,y,-z
-x,y,z
x,-y,z
1/2+x,1/2+y,z
1/2-x,1/2-y,z
1/2+x,1/2-y,-z
1/2-x,1/2+y,-z
1/2-x,1/2-y,-z
1/2+x,1/2+y,-z
1/2-x,1/2+y,z
1/2+x,1/2-y,z
loop_
_atom_site_type_symbol
_atom_site_label
_atom_site_fract_x
_atom_site_fract_y
_atom_site_fract_z
Si Si1 0.500000 0.732752 0.905927
Si Si2 0.000000 0.500000 0.000000
Si Si3 0.174046 0.866378 0.795649
Si Si4 0.000000 0.393891 0.858208
Si Si5 0.192105 0.918591 0.500000
Si Si6 0.690285 0.821503 0.365871
O O1 0.355726 0.688543 0.865894
O O2 0.500000 0.811586 0.877356
O O3 0.500000 0.729234 0.000000
O O4 0.000000 0.439954 0.066518
O O5 0.334070 0.908361 0.813368
O O6 0.210415 0.829517 0.714159
O O7 0.000000 0.903013 0.790337
O O8 0.268205 0.882970 0.575787
O O9 0.000000 0.906251 0.500000
O O10 0.220304 0.000000 0.500000
O O11 0.500000 0.819231 0.349597
O O12 0.750000 0.750000 0.402620
#
# Coordination Sequence:
#
# PCOD9492911 Si02
#       6
#     8   2  16   8   8  16
#     4  10  22  38  72 101 128 169 219 293 353 393
#     4  12  32  40  70  88 140 192 236 270 350 420
#     4  10  24  40  71 104 129 172 223 290 353 396
#     4  12  22  46  60  97 135 178 226 279 339 418
#     4  11  26  47  70  99 141 187 234 280 340 418
#     4  12  23  42  71 107 142 179 228 288 349 413
#
# _framework density 20.966570000000001
#
# number of rings (size 3 to 8) (size 9 to 14) (size 15 to 20)
#    0.828    0.138    2.069    5.793    1.931    2.207 
#    2.483    1.379    0.000    0.000    0.000    0.000 
#    0.000    0.000    0.000    0.000    0.000    0.000 
#
# Total GULP energy -161611.054536 kJ/mol
# GULP energy per Si atom -5572.794984 kJ/mol
# Density = 2.091885 g / cm^3
# Si number density = 20.966570 Si / 1000 Ang^3
#
#
#
# Elastic Constant Matrix: (Units=GPa)
#
#
# Indices 1 2 3 4 5 6 
#
# 1 188.4311 30.4453 30.2064 0.0000 0.0000 0.0000
# 2 30.4453 60.2933 18.2917 0.0000 0.0000 0.0000
# 3 30.2064 18.2917 105.8750 0.0000 0.0000 0.0000
# 4 0.0000 0.0000 0.0000 71.2324 0.0000 0.0000
# 5 0.0000 0.0000 0.0000 0.0000 101.5218 0.0000
# 6 0.0000 0.0000 0.0000 0.0000 0.0000 5.6748
#
#
#
# Elastic Compliance Matrix: (Units=1/GPa)
#
#
# Indices 1 2 3 4 5 6 
#
# 1 0.005929 -0.002618 -0.001239 0.000000 0.000000 0.000000
# 2 -0.002618 0.018659 -0.002477 0.000000 0.000000 0.000000
# 3 -0.001239 -0.002477 0.010227 0.000000 0.000000 0.000000
# 4 0.000000 0.000000 0.000000 0.014039 0.000000 0.000000
# 5 0.000000 0.000000 0.000000 0.000000 0.009850 0.000000
# 6 0.000000 0.000000 0.000000 0.000000 0.000000 0.176217
#
#
# Mechanical properties :
#
#
# Convention : Reuss Voigt Hill
#
# Bulk Modulus (GPa) = 45.15371 56.94291 51.04831
# Shear Modulus (GPa) = 19.61024 54.06289 36.83657
#
# Velocity S-wave (km/s) = 3.06160 5.08343 4.19611
# Velocity P-wave (km/s) = 5.83787 7.85321 6.91930
#
# Compressibility (1/GPa) = 0.02214657
#
# Stress axis : x y z
#
# Youngs Moduli (GPa) = 168.67458 53.59399 97.78470
#
# Poissons Ratio (x) = 0.14029 0.12117
# Poissons Ratio (y) = 0.44154 0.24219
# Poissons Ratio (z) = 0.20902 0.13274
#
# Static dielectric constant tensor:
#      x y z
#    x 1.817640 0.000000 0.000000 
#    y 0.000000 1.726020 0.000000 
#    z 0.000000 0.000000 1.730550 
# 
# From -- ./inp_files/48893.got.cif
#   From: 2010.05.17/outbox.cif.g08.bks.cpg/sg65_25_cif.got.tgz:48893.got - 2010.06.03 17:01:31.
