data_PCOD9492471
_publ_section_title
;
Structure prediction by ZEFSAII (Michael W. Deem and Ramdas Pophale) SiO2 
 PCOD9492471
Probable space group: C M M M
;
_chemical_formula_sum "Si O2"
_cell_formula_units_Z 116
_cell_length_a 13.940143
_cell_length_b 24.464887
_cell_length_c 17.594432
_cell_angle_alpha 90.000000
_cell_angle_beta 90.000000
_cell_angle_gamma 90.000000
_cell_volume 6000.475876
_symmetry_space_group_name_H-M "C M M M"
_symmetry_group_IT_number 65
_symmetry_cell_setting 'orthorhombic'
loop_
_space_group_symop_operation_xyz
x,y,z
-x,-y,z
x,-y,-z
-x,y,-z
-x,-y,-z
x,y,-z
-x,y,z
x,-y,z
1/2+x,1/2+y,z
1/2-x,1/2-y,z
1/2+x,1/2-y,-z
1/2-x,1/2+y,-z
1/2-x,1/2-y,-z
1/2+x,1/2+y,-z
1/2-x,1/2+y,z
1/2+x,1/2-y,z
loop_
_atom_site_type_symbol
_atom_site_label
_atom_site_fract_x
_atom_site_fract_y
_atom_site_fract_z
Si Si1 0.149056 0.280330 0.618713
Si Si2 0.608063 0.228239 0.207086
Si Si3 0.772028 0.661229 0.084699
Si Si4 0.112997 0.438629 0.867871
Si Si5 0.247334 0.438487 0.278967
Si Si6 0.388312 0.641832 0.197568
Si Si7 0.612528 0.095045 0.414339
Si Si8 0.500000 0.737734 0.500000
O O1 0.250000 0.250000 0.618461
O O2 0.123449 0.291429 0.707055
O O3 0.136700 0.340421 0.583440
O O4 0.081501 0.242450 0.567689
O O5 0.500000 0.214464 0.182030
O O6 0.680463 0.202309 0.146233
O O7 0.615076 0.293625 0.215082
O O8 0.842724 0.609483 0.083223
O O9 0.671556 0.639387 0.118980
O O10 0.761385 0.683941 0.000000
O O11 0.130190 0.500000 0.897741
O O12 0.167993 0.434114 0.787619
O O13 0.000000 0.431747 0.857554
O O14 0.287831 0.500000 0.276635
O O15 0.328499 0.393911 0.258430
O O16 0.188606 0.429807 0.356185
O O17 0.500000 0.625577 0.192630
O O18 0.621317 0.073135 0.500000
O O19 0.500000 0.088640 0.391208
#
# Coordination Sequence:
#
# PCOD9492471 Si02
#       8
#    16  16  16  16  16  16  16   4
#     4  12  21  37  57  83 122 165 210 253 308 365
#     4  11  22  38  61  85 120 161 196 243 301 365
#     4  11  23  38  58  90 125 158 199 244 294 354
#     4   9  18  34  56  83 115 153 193 237 291 348
#     4  10  21  38  61  85 109 145 196 250 303 369
#     4  10  23  42  61  84 110 152 200 245 302 355
#     4  11  21  35  54  84 124 160 195 243 309 379
#     4  12  22  36  52  90 115 164 215 266 308 356
#
# _framework density 19.331800000000001
#
# number of rings (size 3 to 8) (size 9 to 14) (size 15 to 20)
#    0.000    1.379    2.069    4.759    0.000    4.138 
#    0.000    2.759    0.000    0.414    0.000    4.828 
#    0.000    0.000    0.000    0.000    0.000    0.000 
#
# Total GULP energy -323172.947107 kJ/mol
# GULP energy per Si atom -5571.947364 kJ/mol
# Density = 1.928780 g / cm^3
# Si number density = 19.331800 Si / 1000 Ang^3
#
#
#
# Elastic Constant Matrix: (Units=GPa)
#
#
# Indices 1 2 3 4 5 6 
#
# 1 133.0613 46.7751 53.0581 0.0000 0.0000 0.0000
# 2 46.7751 75.8223 28.4986 0.0000 0.0000 0.0000
# 3 53.0581 28.4986 129.8135 0.0000 0.0000 0.0000
# 4 0.0000 0.0000 0.0000 1.8200 0.0000 0.0000
# 5 0.0000 0.0000 0.0000 0.0000 10.0818 0.0000
# 6 0.0000 0.0000 0.0000 0.0000 0.0000 -20.1049
#
#
#
# Elastic Compliance Matrix: (Units=1/GPa)
#
#
# Indices 1 2 3 4 5 6 
#
# 1 0.010679 -0.005393 -0.003181 0.000000 0.000000 0.000000
# 2 -0.005393 0.017098 -0.001549 0.000000 0.000000 0.000000
# 3 -0.003181 -0.001549 0.009344 0.000000 0.000000 0.000000
# 4 0.000000 0.000000 0.000000 0.549464 0.000000 0.000000
# 5 0.000000 0.000000 0.000000 0.000000 0.099189 0.000000
# 6 0.000000 0.000000 0.000000 0.000000 0.000000 -0.049739
#
#
# Mechanical properties :
#
#
# Convention : Reuss Voigt Hill
#
# Bulk Modulus (GPa) = 59.26036 66.15119 62.70578
# Shear Modulus (GPa) = 7.55394 12.38372 9.96883
#
# Velocity S-wave (km/s) = 1.97889 2.53373 2.27330
# Velocity P-wave (km/s) = 5.99518 6.54621 6.27675
#
# Compressibility (1/GPa) = 0.01687469
#
# Stress axis : x y z
#
# Youngs Moduli (GPa) = 93.63789 58.48705 107.02364
#
# Poissons Ratio (x) = 0.31539 0.34045
# Poissons Ratio (y) = 0.50495 0.16583
# Poissons Ratio (z) = 0.29787 0.09063
#
# Static dielectric constant tensor:
#      x y z
#    x 1.656410 0.000000 0.000000 
#    y 0.000000 1.710770 0.000000 
#    z 0.000000 0.000000 1.701290 
# 
# From -- ./inp_files/53553.got.cif
#   From: 2010.05.17/outbox.cif.g08.bks.cpg/sg65_27_cif.got.tgz:53553.got - 2010.06.03 17:01:31.
