data_PCOD9492095
_publ_section_title
;
Structure prediction by ZEFSAII (Michael W. Deem and Ramdas Pophale) SiO2 
 PCOD9492095
Probable space group: C M M M
;
_chemical_formula_sum "Si O2"
_cell_formula_units_Z 80
_cell_length_a 19.240130
_cell_length_b 8.900476
_cell_length_c 25.784218
_cell_angle_alpha 90.000000
_cell_angle_beta 90.000000
_cell_angle_gamma 90.000000
_cell_volume 4415.452325
_symmetry_space_group_name_H-M "C M M M"
_symmetry_group_IT_number 65
_symmetry_cell_setting 'orthorhombic'
loop_
_space_group_symop_operation_xyz
x,y,z
-x,-y,z
x,-y,-z
-x,y,-z
-x,-y,-z
x,y,-z
-x,y,z
x,-y,z
1/2+x,1/2+y,z
1/2-x,1/2-y,z
1/2+x,1/2-y,-z
1/2-x,1/2+y,-z
1/2-x,1/2-y,-z
1/2+x,1/2+y,-z
1/2-x,1/2+y,z
1/2+x,1/2-y,z
loop_
_atom_site_type_symbol
_atom_site_label
_atom_site_fract_x
_atom_site_fract_y
_atom_site_fract_z
Si Si1 0.673565 0.821131 0.851466
Si Si2 0.580745 0.678794 0.061304
Si Si3 0.826376 0.179586 0.559367
Si Si4 0.582798 0.823206 0.649366
Si Si5 0.082029 0.179475 0.239598
O O1 0.750000 0.750000 0.850989
O O2 0.632725 0.770497 0.903088
O O3 0.628909 0.757430 0.803538
O O4 0.678272 0.000000 0.848527
O O5 0.500000 0.714542 0.073409
O O6 0.589957 0.500000 0.070825
O O7 0.591287 0.704805 0.000000
O O8 0.848917 0.211788 0.500000
O O9 0.750000 0.250000 0.565878
O O10 0.876883 0.250162 0.601695
O O11 0.822806 0.000000 0.565527
O O12 0.500000 0.807364 0.641651
O O13 0.600081 0.741451 0.703424
O O14 0.599040 0.000000 0.653363
O O15 0.000000 0.211928 0.230425
O O16 0.091074 0.000000 0.237671
#
# Coordination Sequence:
#
# PCOD9492095 Si02
#       5
#    16  16  16  16  16
#     4  12  25  39  57  83 116 151 189 233 280 331
#     4   9  19  38  63  88 115 149 188 229 276 332
#     4  10  21  37  57  81 111 148 189 231 277 332
#     4  10  21  37  58  85 115 146 184 230 278 329
#     4  10  21  39  62  85 112 146 184 228 279 335
#
# _framework density 18.118189000000001
#
# number of rings (size 3 to 8) (size 9 to 14) (size 15 to 20)
#    0.000    1.800    0.000    4.800    0.000    8.400 
#    0.000    7.000    0.000    0.000    0.000    0.000 
#    0.000    0.000    0.000    0.000    0.000    0.000 
#
# Total GULP energy -223551.265504 kJ/mol
# GULP energy per Si atom -5588.781638 kJ/mol
# Density = 1.807695 g / cm^3
# Si number density = 18.118189 Si / 1000 Ang^3
#
#
#
# Elastic Constant Matrix: (Units=GPa)
#
#
# Indices 1 2 3 4 5 6 
#
# 1 101.9202 88.1971 93.3236 0.0000 0.0000 0.0000
# 2 88.1971 131.9516 91.4727 0.0000 0.0000 0.0000
# 3 93.3236 91.4727 123.3644 0.0000 0.0000 0.0000
# 4 0.0000 0.0000 0.0000 38.0520 0.0000 0.0000
# 5 0.0000 0.0000 0.0000 0.0000 176.6897 0.0000
# 6 0.0000 0.0000 0.0000 0.0000 0.0000 33.0638
#
#
#
# Elastic Compliance Matrix: (Units=1/GPa)
#
#
# Indices 1 2 3 4 5 6 
#
# 1 0.038921 -0.011532 -0.020893 0.000000 0.000000 0.000000
# 2 -0.011532 0.019011 -0.005373 0.000000 0.000000 0.000000
# 3 -0.020893 -0.005373 0.027895 0.000000 0.000000 0.000000
# 4 0.000000 0.000000 0.000000 0.026280 0.000000 0.000000
# 5 0.000000 0.000000 0.000000 0.000000 0.005660 0.000000
# 6 0.000000 0.000000 0.000000 0.000000 0.000000 0.030245
#
#
# Mechanical properties :
#
#
# Convention : Reuss Voigt Hill
#
# Bulk Modulus (GPa) = 97.72619 100.35810 99.04214
# Shear Modulus (GPa) = 22.02486 55.17729 38.60108
#
# Velocity S-wave (km/s) = 3.49036 5.52451 4.62076
# Velocity P-wave (km/s) = 8.38443 9.80840 9.12424
#
# Compressibility (1/GPa) = 0.01023267
#
# Stress axis : x y z
#
# Youngs Moduli (GPa) = 25.69301 52.60160 35.84862
#
# Poissons Ratio (x) = 0.60658 0.74898
# Poissons Ratio (y) = 0.29628 0.19261
# Poissons Ratio (z) = 0.53680 0.28262
#
# Static dielectric constant tensor:
#      x y z
#    x 1.591410 0.000000 0.000000 
#    y 0.000000 1.601700 0.000000 
#    z 0.000000 0.000000 1.600670 
# 
# From -- ./inp_files/75022.got.cif
#   From: 2010.05.17/outbox.cif.g08.bks.cpg/sg65_38_cif.got.tgz:75022.got - 2010.06.03 17:01:31.
