data_PCOD9492299
_publ_section_title
;
Structure prediction by ZEFSAII (Michael W. Deem and Ramdas Pophale) SiO2 
 PCOD9492299
Probable space group: C M M M
;
_chemical_formula_sum "Si O2"
_cell_formula_units_Z 64
_cell_length_a 14.312080
_cell_length_b 18.880189
_cell_length_c 11.998746
_cell_angle_alpha 90.000000
_cell_angle_beta 90.000000
_cell_angle_gamma 90.000000
_cell_volume 3242.238455
_symmetry_space_group_name_H-M "C M M M"
_symmetry_group_IT_number 65
_symmetry_cell_setting 'orthorhombic'
loop_
_space_group_symop_operation_xyz
x,y,z
-x,-y,z
x,-y,-z
-x,y,-z
-x,-y,-z
x,y,-z
-x,y,z
x,-y,z
1/2+x,1/2+y,z
1/2-x,1/2-y,z
1/2+x,1/2-y,-z
1/2-x,1/2+y,-z
1/2-x,1/2-y,-z
1/2+x,1/2+y,-z
1/2-x,1/2+y,z
1/2+x,1/2-y,z
loop_
_atom_site_type_symbol
_atom_site_label
_atom_site_fract_x
_atom_site_fract_y
_atom_site_fract_z
Si Si1 0.104968 0.632911 0.500000
Si Si2 0.731671 0.920105 0.867354
Si Si3 0.607871 0.196390 0.256762
Si Si4 0.888528 0.140086 0.731068
Si Si5 0.690472 0.581547 0.500000
O O1 0.112111 0.679505 0.388438
O O2 0.196599 0.584375 0.500000
O O3 0.000000 0.600151 0.500000
O O4 0.669284 0.860714 0.807868
O O5 0.835545 0.908202 0.820230
O O6 0.700507 0.000000 0.837951
O O7 0.728391 0.912293 0.000000
O O8 0.500000 0.188469 0.221545
O O9 0.634740 0.278083 0.241489
O O10 0.848106 0.119756 0.610080
O O11 0.000000 0.132125 0.730926
O O12 0.659638 0.500000 0.500000
#
# Coordination Sequence:
#
# PCOD9492299 Si02
#       5
#     8  16  16  16   8
#     4  10  21  37  62  97 131 161 197 247 311 378
#     4  11  25  43  63  90 125 167 212 260 317 374
#     4  10  22  41  66  95 126 162 205 257 316 374
#     4  11  24  41  64  94 127 166 211 258 308 368
#     4  12  24  38  63  98 133 170 206 250 313 378
#
# _framework density 19.739449
#
# number of rings (size 3 to 8) (size 9 to 14) (size 15 to 20)
#    0.000    1.250    2.500    2.625    0.000    9.250 
#    0.000    7.500    0.000    0.000    0.000    0.000 
#    0.000    0.000    0.000    0.000    0.000    0.000 
#
# Total GULP energy -178838.740808 kJ/mol
# GULP energy per Si atom -5588.710650 kJ/mol
# Density = 1.969452 g / cm^3
# Si number density = 19.739449 Si / 1000 Ang^3
#
#
#
# Elastic Constant Matrix: (Units=GPa)
#
#
# Indices 1 2 3 4 5 6 
#
# 1 98.6593 55.4508 31.0813 0.0000 0.0000 0.0000
# 2 55.4508 127.7645 46.4653 0.0000 0.0000 0.0000
# 3 31.0813 46.4653 77.4795 0.0000 0.0000 0.0000
# 4 0.0000 0.0000 0.0000 22.1020 0.0000 0.0000
# 5 0.0000 0.0000 0.0000 0.0000 -65.7405 0.0000
# 6 0.0000 0.0000 0.0000 0.0000 0.0000 18.6464
#
#
#
# Elastic Compliance Matrix: (Units=1/GPa)
#
#
# Indices 1 2 3 4 5 6 
#
# 1 0.013769 -0.005074 -0.002481 0.000000 0.000000 0.000000
# 2 -0.005074 0.011880 -0.005089 0.000000 0.000000 0.000000
# 3 -0.002481 -0.005089 0.016954 0.000000 0.000000 0.000000
# 4 0.000000 0.000000 0.000000 0.045245 0.000000 0.000000
# 5 0.000000 0.000000 0.000000 0.000000 -0.015211 0.000000
# 6 0.000000 0.000000 0.000000 0.000000 0.000000 0.053630
#
#
# Mechanical properties :
#
#
# Convention : Reuss Voigt Hill
#
# Bulk Modulus (GPa) = 57.75172 63.32201 60.53687
# Shear Modulus (GPa) = 31.78146 6.39531 19.08838
#
# Velocity S-wave (km/s) = 4.01689 1.80191 3.11306
# Velocity P-wave (km/s) = 7.12983 6.03968 6.60728
#
# Compressibility (1/GPa) = 0.01731550
#
# Stress axis : x y z
#
# Youngs Moduli (GPa) = 72.62664 84.17729 58.98384
#
# Poissons Ratio (x) = 0.42709 0.14633
# Poissons Ratio (y) = 0.36848 0.30017
# Poissons Ratio (z) = 0.18017 0.42838
#
# Static dielectric constant tensor:
#      x y z
#    x 1.712230 0.000000 0.000000 
#    y 0.000000 1.684830 0.000000 
#    z 0.000000 0.000000 1.650150 
# 
# From -- ./inp_files/23931.got.cif
#   From: 2010.05.17/outbox.cif.g08.bks.cpg/sg65_12_cif.got.tgz:23931.got - 2010.06.03 17:01:31.
