data_PCOD9492045
_publ_section_title
;
Structure prediction by ZEFSAII (Michael W. Deem and Ramdas Pophale) SiO2 
 PCOD9492045
Probable space group: C M M M
;
_chemical_formula_sum "Si O2"
_cell_formula_units_Z 116
_cell_length_a 7.829647
_cell_length_b 29.390917
_cell_length_c 28.280829
_cell_angle_alpha 90.000000
_cell_angle_beta 90.000000
_cell_angle_gamma 90.000000
_cell_volume 6507.998655
_symmetry_space_group_name_H-M "C M M M"
_symmetry_group_IT_number 65
_symmetry_cell_setting 'orthorhombic'
loop_
_space_group_symop_operation_xyz
x,y,z
-x,-y,z
x,-y,-z
-x,y,-z
-x,-y,-z
x,y,-z
-x,y,z
x,-y,z
1/2+x,1/2+y,z
1/2-x,1/2-y,z
1/2+x,1/2-y,-z
1/2-x,1/2+y,-z
1/2-x,1/2-y,-z
1/2+x,1/2+y,-z
1/2-x,1/2+y,z
1/2+x,1/2-y,z
loop_
_atom_site_type_symbol
_atom_site_label
_atom_site_fract_x
_atom_site_fract_y
_atom_site_fract_z
Si Si1 0.798539 0.354405 0.333183
Si Si2 0.700626 0.355162 0.144806
Si Si3 0.708429 0.051076 0.294105
Si Si4 0.702039 0.801618 0.947401
Si Si5 0.205692 0.449508 0.814904
Si Si6 0.500000 0.825754 0.500000
Si Si7 0.698303 0.302997 0.574248
Si Si8 0.705106 0.696903 0.762570
O O1 0.735092 0.406133 0.325014
O O2 0.707936 0.327915 0.375324
O O3 0.776305 0.328118 0.283671
O O4 0.000000 0.356024 0.344145
O O5 0.500000 0.348793 0.147807
O O6 0.752206 0.335652 0.094322
O O7 0.739990 0.407960 0.152802
O O8 0.773797 0.327054 0.189592
O O9 0.500000 0.051588 0.294195
O O10 0.762559 0.058211 0.239483
O O11 0.761297 0.000000 0.308538
O O12 0.500000 0.802872 0.951446
O O13 0.750000 0.750000 0.934119
O O14 0.775926 0.810993 0.000000
O O15 0.264273 0.500000 0.829326
O O16 0.000000 0.450070 0.813969
O O17 0.345872 0.823460 0.540717
O O18 0.500000 0.305081 0.557102
O O19 0.750000 0.250000 0.579208
O O20 0.500000 0.692492 0.760678
O O21 0.750000 0.750000 0.762580
#
# Coordination Sequence:
#
# PCOD9492045 Si02
#       8
#    16  16  16  16  16   4  16  16
#     4  11  20  35  55  82 116 150 188 229 283 340
#     4  11  22  34  52  79 109 146 185 226 278 336
#     4   8  15  29  53  81 110 147 189 230 274 330
#     4  10  21  37  57  79 105 137 182 236 283 331
#     4   9  17  32  54  79 106 142 186 229 274 328
#     4  12  24  44  62  90 113 152 203 236 292 336
#     4  12  24  39  61  86 118 153 192 245 286 336
#     4  11  23  35  48  71 108 149 187 222 268 333
#
# _framework density 17.82422
#
# number of rings (size 3 to 8) (size 9 to 14) (size 15 to 20)
#    0.000    1.655    2.759    3.724    0.000    3.862 
#    0.000    0.000    0.000    2.069    0.000    3.862 
#    0.000    1.103    0.000    0.000    0.000    0.000 
#
# Total GULP energy -323122.323024 kJ/mol
# GULP energy per Si atom -5571.074535 kJ/mol
# Density = 1.778365 g / cm^3
# Si number density = 17.824220 Si / 1000 Ang^3
#
#
#
# Elastic Constant Matrix: (Units=GPa)
#
#
# Indices 1 2 3 4 5 6 
#
# 1 79.2146 13.6136 25.2963 0.0000 0.0000 0.0000
# 2 13.6136 52.1944 33.1290 0.0000 0.0000 0.0000
# 3 25.2963 33.1290 91.0306 0.0000 0.0000 0.0000
# 4 0.0000 0.0000 0.0000 45.1461 0.0000 0.0000
# 5 0.0000 0.0000 0.0000 0.0000 27.9912 0.0000
# 6 0.0000 0.0000 0.0000 0.0000 0.0000 11.0666
#
#
#
# Elastic Compliance Matrix: (Units=1/GPa)
#
#
# Indices 1 2 3 4 5 6 
#
# 1 0.013947 -0.001531 -0.003318 0.000000 0.000000 0.000000
# 2 -0.001531 0.025082 -0.008703 0.000000 0.000000 0.000000
# 3 -0.003318 -0.008703 0.015075 0.000000 0.000000 0.000000
# 4 0.000000 0.000000 0.000000 0.022150 0.000000 0.000000
# 5 0.000000 0.000000 0.000000 0.000000 0.035726 0.000000
# 6 0.000000 0.000000 0.000000 0.000000 0.000000 0.090362
#
#
# Mechanical properties :
#
#
# Convention : Reuss Voigt Hill
#
# Bulk Modulus (GPa) = 37.03860 40.72416 38.88138
# Shear Modulus (GPa) = 20.96909 26.86750 23.91830
#
# Velocity S-wave (km/s) = 3.43365 3.88668 3.66717
# Velocity P-wave (km/s) = 6.04524 6.56041 6.30809
#
# Compressibility (1/GPa) = 0.02699886
#
# Stress axis : x y z
#
# Youngs Moduli (GPa) = 71.70113 39.86857 66.33662
#
# Poissons Ratio (x) = 0.06106 0.22012
# Poissons Ratio (y) = 0.10981 0.57731
# Poissons Ratio (z) = 0.23793 0.34697
#
# Static dielectric constant tensor:
#      x y z
#    x 2.162000 0.000000 0.000000 
#    y 0.000000 1.602770 0.000000 
#    z 0.000000 0.000000 1.667740 
# 
# From -- ./inp_files/68639.got.cif
#   From: 2010.05.17/outbox.cif.g08.bks.cpg/sg65_35_cif.got.tgz:68639.got - 2010.06.03 17:01:31.
