data_PCOD9492955
_publ_section_title
;
Structure prediction by ZEFSAII (Michael W. Deem and Ramdas Pophale) SiO2 
 PCOD9492955
Probable space group: C M M M
;
_chemical_formula_sum "Si O2"
_cell_formula_units_Z 68
_cell_length_a 15.134228
_cell_length_b 25.704718
_cell_length_c 10.849980
_cell_angle_alpha 90.000000
_cell_angle_beta 90.000000
_cell_angle_gamma 90.000000
_cell_volume 4220.870752
_symmetry_space_group_name_H-M "C M M M"
_symmetry_group_IT_number 65
_symmetry_cell_setting 'orthorhombic'
loop_
_space_group_symop_operation_xyz
x,y,z
-x,-y,z
x,-y,-z
-x,y,-z
-x,-y,-z
x,y,-z
-x,y,z
x,-y,z
1/2+x,1/2+y,z
1/2-x,1/2-y,z
1/2+x,1/2-y,-z
1/2-x,1/2+y,-z
1/2-x,1/2-y,-z
1/2+x,1/2+y,-z
1/2-x,1/2+y,z
1/2+x,1/2-y,z
loop_
_atom_site_type_symbol
_atom_site_label
_atom_site_fract_x
_atom_site_fract_y
_atom_site_fract_z
Si Si1 0.000000 0.208240 0.726765
Si Si2 0.500000 0.700066 0.000000
Si Si3 0.662071 0.136160 0.789163
Si Si4 0.395244 0.062034 0.000000
Si Si5 0.158155 0.279404 0.000000
Si Si6 0.000000 0.326151 0.354056
Si Si7 0.799619 0.805330 0.355781
O O1 0.000000 0.179110 0.860066
O O2 0.000000 0.271545 0.720382
O O3 0.095114 0.196323 0.665684
O O4 0.585404 0.735890 0.000000
O O5 0.585921 0.141731 0.687182
O O6 0.754576 0.149243 0.724281
O O7 0.649169 0.086498 0.877321
O O8 0.648404 0.183695 0.883540
O O9 0.500000 0.077239 0.000000
O O10 0.389632 0.000000 0.000000
O O11 0.250000 0.250000 0.000000
O O12 0.000000 0.314808 0.500000
O O13 0.781927 0.813448 0.500000
O O14 0.750000 0.750000 0.324093
#
# Coordination Sequence:
#
# PCOD9492955 Si02
#       7
#     8   4  16   8   8   8  16
#     4  12  22  32  46  74 114 157 191 224 257 297
#     4  12  18  28  44  58  99 134 185 218 246 288
#     4  11  20  33  52  75 102 142 183 214 266 329
#     4  10  22  39  61  83 107 132 168 233 292 332
#     4  11  19  29  43  67 100 130 173 218 245 297
#     4  12  20  30  48  72 107 148 182 214 251 309
#     4  11  21  33  48  75 114 154 191 220 253 310
#
# _framework density 16.110420000000001
#
# number of rings (size 3 to 8) (size 9 to 14) (size 15 to 20)
#    0.000    0.824    5.882    3.882    1.647    0.941 
#    0.000    0.000    0.000    3.529    0.000    1.647 
#    0.000    1.882    0.000    0.000    0.000    0.000 
#
# Total GULP energy -189500.183466 kJ/mol
# GULP energy per Si atom -5573.534808 kJ/mol
# Density = 1.607375 g / cm^3
# Si number density = 16.110420 Si / 1000 Ang^3
#
#
#
# Elastic Constant Matrix: (Units=GPa)
#
#
# Indices 1 2 3 4 5 6 
#
# 1 121.7184 29.0570 22.3430 0.0000 0.0000 0.0000
# 2 29.0570 52.3872 22.2102 0.0000 0.0000 0.0000
# 3 22.3430 22.2102 94.0891 0.0000 0.0000 0.0000
# 4 0.0000 0.0000 0.0000 7.0499 0.0000 0.0000
# 5 0.0000 0.0000 0.0000 0.0000 -5.5446 0.0000
# 6 0.0000 0.0000 0.0000 0.0000 0.0000 15.3286
#
#
#
# Elastic Compliance Matrix: (Units=1/GPa)
#
#
# Indices 1 2 3 4 5 6 
#
# 1 0.009577 -0.004831 -0.001134 0.000000 0.000000 0.000000
# 2 -0.004831 0.023649 -0.004435 0.000000 0.000000 0.000000
# 3 -0.001134 -0.004435 0.011944 0.000000 0.000000 0.000000
# 4 0.000000 0.000000 0.000000 0.141845 0.000000 0.000000
# 5 0.000000 0.000000 0.000000 0.000000 -0.180356 0.000000
# 6 0.000000 0.000000 0.000000 0.000000 0.000000 0.065237
#
#
# Mechanical properties :
#
#
# Convention : Reuss Voigt Hill
#
# Bulk Modulus (GPa) = 41.03451 46.15725 43.59588
# Shear Modulus (GPa) = 49.59315 16.33910 32.96612
#
# Velocity S-wave (km/s) = 5.55429 3.18810 4.52847
# Velocity P-wave (km/s) = 8.16453 6.50113 7.37985
#
# Compressibility (1/GPa) = 0.02436973
#
# Stress axis : x y z
#
# Youngs Moduli (GPa) = 104.41501 42.28559 83.72136
#
# Poissons Ratio (x) = 0.20430 0.09492
# Poissons Ratio (y) = 0.50447 0.37131
# Poissons Ratio (z) = 0.11838 0.18754
#
# Static dielectric constant tensor:
#      x y z
#    x 1.564340 0.000000 0.000000 
#    y 0.000000 1.510260 0.000000 
#    z 0.000000 0.000000 1.590850 
# 
# From -- ./inp_files/24581.got.cif
#   From: 2010.05.17/outbox.cif.g08.bks.cpg/sg65_13_cif.got.tgz:24581.got - 2010.06.03 17:01:31.
