data_PCOD9492858
_publ_section_title
;
Structure prediction by ZEFSAII (Michael W. Deem and Ramdas Pophale) SiO2 
 PCOD9492858
Probable space group: C M M M
;
_chemical_formula_sum "Si O2"
_cell_formula_units_Z 112
_cell_length_a 17.934943
_cell_length_b 15.091506
_cell_length_c 20.557876
_cell_angle_alpha 90.000000
_cell_angle_beta 90.000000
_cell_angle_gamma 90.000000
_cell_volume 5564.303673
_symmetry_space_group_name_H-M "C M M M"
_symmetry_group_IT_number 65
_symmetry_cell_setting 'orthorhombic'
loop_
_space_group_symop_operation_xyz
x,y,z
-x,-y,z
x,-y,-z
-x,y,-z
-x,-y,-z
x,y,-z
-x,y,z
x,-y,z
1/2+x,1/2+y,z
1/2-x,1/2-y,z
1/2+x,1/2-y,-z
1/2-x,1/2+y,-z
1/2-x,1/2-y,-z
1/2+x,1/2+y,-z
1/2-x,1/2+y,z
1/2+x,1/2-y,z
loop_
_atom_site_type_symbol
_atom_site_label
_atom_site_fract_x
_atom_site_fract_y
_atom_site_fract_z
Si Si1 0.654787 0.351869 0.928904
Si Si2 0.415640 0.649499 0.795752
Si Si3 0.088656 0.645954 0.343431
Si Si4 0.723541 0.101806 0.572708
Si Si5 0.183839 0.810241 0.687864
Si Si6 0.914552 0.633842 0.801081
Si Si7 0.671704 0.136856 0.071834
O O1 0.607934 0.381790 0.867111
O O2 0.660048 0.243976 0.927923
O O3 0.740456 0.381888 0.923775
O O4 0.625282 0.377680 0.000000
O O5 0.500000 0.623448 0.779266
O O6 0.354086 0.627410 0.741349
O O7 0.413441 0.757937 0.799050
O O8 0.139242 0.606137 0.399856
O O9 0.117736 0.747056 0.338021
O O10 0.108401 0.606416 0.271909
O O11 0.000000 0.639440 0.352041
O O12 0.728241 0.139963 0.500000
O O13 0.775210 0.147679 0.626355
O O14 0.746042 0.000000 0.569774
O O15 0.250000 0.750000 0.719739
O O16 0.867880 0.604065 0.863049
O O17 0.000000 0.607427 0.810184
O O18 0.645300 0.106688 0.000000
#
# Coordination Sequence:
#
# PCOD9492858 Si02
#       7
#    16  16  16  16  16  16  16
#     4   8  14  20  29  49  82 123 161 195 235 286
#     4   9  16  24  39  62  88 121 160 200 242 288
#     4   9  18  32  52  79 106 133 165 206 252 296
#     4  10  22  38  54  75 102 132 165 200 244 300
#     4   9  18  30  52  75  98 130 164 206 248 293
#     4   8  14  23  36  58  91 124 159 200 240 285
#     4   8  13  19  29  48  81 125 166 195 229 284
#
# _framework density 20.128305000000001
#
# number of rings (size 3 to 8) (size 9 to 14) (size 15 to 20)
#    0.000    3.286    0.000    2.143    8.000    3.714 
#    0.000    3.571    0.000    3.000    0.000    4.000 
#    0.000    2.286    0.000    4.429    0.000   10.571 
#
# Total GULP energy -312058.315090 kJ/mol
# GULP energy per Si atom -5572.469912 kJ/mol
# Density = 2.008249 g / cm^3
# Si number density = 20.128305 Si / 1000 Ang^3
#
#
#
# Elastic Constant Matrix: (Units=GPa)
#
#
# Indices 1 2 3 4 5 6 
#
# 1 101.7499 7.6357 93.7556 0.0000 0.0000 0.0000
# 2 7.6357 33.1614 12.7204 0.0000 0.0000 0.0000
# 3 93.7556 12.7204 171.3354 0.0000 0.0000 0.0000
# 4 0.0000 0.0000 0.0000 140.5099 0.0000 0.0000
# 5 0.0000 0.0000 0.0000 0.0000 18.4871 0.0000
# 6 0.0000 0.0000 0.0000 0.0000 0.0000 -6.1997
#
#
#
# Elastic Compliance Matrix: (Units=1/GPa)
#
#
# Indices 1 2 3 4 5 6 
#
# 1 0.019829 -0.000415 -0.010819 0.000000 0.000000 0.000000
# 2 -0.000415 0.031048 -0.002078 0.000000 0.000000 0.000000
# 3 -0.010819 -0.002078 0.011911 0.000000 0.000000 0.000000
# 4 0.000000 0.000000 0.000000 0.007117 0.000000 0.000000
# 5 0.000000 0.000000 0.000000 0.000000 0.054092 0.000000
# 6 0.000000 0.000000 0.000000 0.000000 0.000000 -0.161298
#
#
# Mechanical properties :
#
#
# Convention : Reuss Voigt Hill
#
# Bulk Modulus (GPa) = 27.65285 59.38557 43.51921
# Shear Modulus (GPa) = 3627.84812 43.36847 1835.60830
#
# Velocity S-wave (km/s) = 42.50029 4.64680 30.23133
# Velocity P-wave (km/s) = 49.21518 7.63924 35.21712
#
# Compressibility (1/GPa) = 0.03616263
#
# Stress axis : x y z
#
# Youngs Moduli (GPa) = 50.43218 32.20802 83.95437
#
# Poissons Ratio (x) = 0.01338 0.90834
# Poissons Ratio (y) = 0.02095 0.17444
# Poissons Ratio (z) = 0.54565 0.06692
#
# Static dielectric constant tensor:
#      x y z
#    x 1.684920 0.000000 0.000000 
#    y 0.000000 1.800550 0.000000 
#    z 0.000000 0.000000 1.747160 
# 
# From -- ./inp_files/54879.got.cif
#   From: 2010.05.17/outbox.cif.g08.bks.cpg/sg65_28_cif.got.tgz:54879.got - 2010.06.03 17:01:31.
