data_PCOD9492476
_publ_section_title
;
Structure prediction by ZEFSAII (Michael W. Deem and Ramdas Pophale) SiO2 
 PCOD9492476
Probable space group: C M M M
;
_chemical_formula_sum "Si O2"
_cell_formula_units_Z 72
_cell_length_a 15.835575
_cell_length_b 8.357955
_cell_length_c 27.903275
_cell_angle_alpha 90.000000
_cell_angle_beta 90.000000
_cell_angle_gamma 90.000000
_cell_volume 3693.082805
_symmetry_space_group_name_H-M "C M M M"
_symmetry_group_IT_number 65
_symmetry_cell_setting 'orthorhombic'
loop_
_space_group_symop_operation_xyz
x,y,z
-x,-y,z
x,-y,-z
-x,y,-z
-x,-y,-z
x,y,-z
-x,y,z
x,-y,z
1/2+x,1/2+y,z
1/2-x,1/2-y,z
1/2+x,1/2-y,-z
1/2-x,1/2+y,-z
1/2-x,1/2-y,-z
1/2+x,1/2+y,-z
1/2-x,1/2+y,z
1/2+x,1/2-y,z
loop_
_atom_site_type_symbol
_atom_site_label
_atom_site_fract_x
_atom_site_fract_y
_atom_site_fract_z
Si Si1 0.400656 0.680798 0.000000
Si Si2 0.500000 0.191779 0.273122
Si Si3 0.842857 0.808484 0.444844
Si Si4 0.152716 0.192240 0.792172
Si Si5 0.000000 0.308703 0.382941
Si Si6 0.654196 0.306455 0.897766
O O1 0.378583 0.756984 0.948825
O O2 0.361845 0.500000 0.000000
O O3 0.500000 0.664157 0.000000
O O4 0.584632 0.248967 0.246105
O O5 0.500000 0.249616 0.328095
O O6 0.500000 0.000000 0.273024
O O7 0.856494 0.753176 0.500000
O O8 0.750000 0.750000 0.429830
O O9 0.917101 0.748104 0.411086
O O10 0.843534 0.000000 0.444868
O O11 0.250000 0.250000 0.785110
O O12 0.120677 0.244271 0.845553
O O13 0.154937 0.000000 0.791526
O O14 0.000000 0.500000 0.382242
O O15 0.645300 0.500000 0.899069
O O16 0.750000 0.250000 0.896234
#
# Coordination Sequence:
#
# PCOD9492476 Si02
#       6
#     8   8  16  16   8  16
#     4   9  17  28  47  75 106 137 170 212 263 326
#     4  11  25  42  60  84 115 152 197 246 295 344
#     4  10  21  38  62  92 125 161 199 238 283 338
#     4  10  21  38  61  86 112 147 192 239 291 349
#     4  11  24  40  59  86 119 157 198 244 295 344
#     4   9  18  32  53  77 102 136 175 218 270 333
#
# _framework density 19.495906999999999
#
# number of rings (size 3 to 8) (size 9 to 14) (size 15 to 20)
#    0.000    2.111    0.000    2.667    1.556    6.222 
#    0.000    0.000    0.000    0.667    0.000    0.000 
#    0.000    0.000    0.000    0.000    0.000    0.000 
#
# Total GULP energy -200725.295463 kJ/mol
# GULP energy per Si atom -5575.702652 kJ/mol
# Density = 1.945153 g / cm^3
# Si number density = 19.495907 Si / 1000 Ang^3
#
#
#
# Elastic Constant Matrix: (Units=GPa)
#
#
# Indices 1 2 3 4 5 6 
#
# 1 129.9497 25.2580 117.2045 0.0000 0.0000 0.0000
# 2 25.2580 34.6106 32.8734 0.0000 0.0000 0.0000
# 3 117.2045 32.8734 187.3742 0.0000 0.0000 0.0000
# 4 0.0000 0.0000 0.0000 23.7213 0.0000 0.0000
# 5 0.0000 0.0000 0.0000 0.0000 2.6061 0.0000
# 6 0.0000 0.0000 0.0000 0.0000 0.0000 32.7437
#
#
#
# Elastic Compliance Matrix: (Units=1/GPa)
#
#
# Indices 1 2 3 4 5 6 
#
# 1 0.017898 -0.002914 -0.010684 0.000000 0.000000 0.000000
# 2 -0.002914 0.035145 -0.004343 0.000000 0.000000 0.000000
# 3 -0.010684 -0.004343 0.012782 0.000000 0.000000 0.000000
# 4 0.000000 0.000000 0.000000 0.042156 0.000000 0.000000
# 5 0.000000 0.000000 0.000000 0.000000 0.383720 0.000000
# 6 0.000000 0.000000 0.000000 0.000000 0.000000 0.030540
#
#
# Mechanical properties :
#
#
# Convention : Reuss Voigt Hill
#
# Bulk Modulus (GPa) = 33.39768 78.06736 55.73252
# Shear Modulus (GPa) = 8.80121 23.58746 16.19434
#
# Velocity S-wave (km/s) = 2.12701 3.48209 2.88523
# Velocity P-wave (km/s) = 4.81664 7.50310 6.30462
#
# Compressibility (1/GPa) = 0.02994220
#
# Stress axis : x y z
#
# Youngs Moduli (GPa) = 55.87280 28.45394 78.23541
#
# Poissons Ratio (x) = 0.08290 0.83587
# Poissons Ratio (y) = 0.16279 0.33981
# Poissons Ratio (z) = 0.59695 0.12359
#
# Static dielectric constant tensor:
#      x y z
#    x 1.632050 0.000000 0.000000 
#    y 0.000000 1.699270 0.000000 
#    z 0.000000 0.000000 1.745570 
# 
# From -- ./inp_files/74698.got.cif
#   From: 2010.05.17/outbox.cif.g08.bks.cpg/sg65_38_cif.got.tgz:74698.got - 2010.06.03 17:01:31.
