data_PCOD9492641
_publ_section_title
;
Structure prediction by ZEFSAII (Michael W. Deem and Ramdas Pophale) SiO2 
 PCOD9492641
Probable space group: C M M M
;
_chemical_formula_sum "Si O2"
_cell_formula_units_Z 80
_cell_length_a 19.050327
_cell_length_b 17.459590
_cell_length_c 12.946288
_cell_angle_alpha 90.000000
_cell_angle_beta 90.000000
_cell_angle_gamma 90.000000
_cell_volume 4306.076488
_symmetry_space_group_name_H-M "C M M M"
_symmetry_group_IT_number 65
_symmetry_cell_setting 'orthorhombic'
loop_
_space_group_symop_operation_xyz
x,y,z
-x,-y,z
x,-y,-z
-x,y,-z
-x,-y,-z
x,y,-z
-x,y,z
x,-y,z
1/2+x,1/2+y,z
1/2-x,1/2-y,z
1/2+x,1/2-y,-z
1/2-x,1/2+y,-z
1/2-x,1/2-y,-z
1/2+x,1/2+y,-z
1/2-x,1/2+y,z
1/2+x,1/2-y,z
loop_
_atom_site_type_symbol
_atom_site_label
_atom_site_fract_x
_atom_site_fract_y
_atom_site_fract_z
Si Si1 0.838421 0.090491 0.292485
Si Si2 0.082114 0.184762 0.120587
Si Si3 0.414880 0.000000 0.117699
Si Si4 0.290315 0.831158 0.379666
Si Si5 0.919706 0.906885 0.500000
Si Si6 0.582245 0.156067 0.233757
O O1 0.869247 0.134858 0.194904
O O2 0.757995 0.110111 0.316147
O O3 0.880068 0.117048 0.396002
O O4 0.848888 0.000000 0.280340
O O5 0.089020 0.273233 0.154450
O O6 0.000000 0.163410 0.136718
O O7 0.098489 0.175364 0.000000
O O8 0.396115 0.077102 0.178460
O O9 0.500000 0.000000 0.112122
O O10 0.388221 0.000000 0.000000
O O11 0.293391 0.852595 0.500000
O O12 0.250000 0.750000 0.371461
O O13 0.366632 0.827524 0.329044
O O14 0.000000 0.880621 0.500000
O O15 0.919541 0.000000 0.500000
O O16 0.500000 0.150878 0.263310
#
# Coordination Sequence:
#
# PCOD9492641 Si02
#       6
#    16  16   8  16   8  16
#     4  11  22  38  59  88 124 162 201 244 298 360
#     4  10  21  39  63  90 123 162 200 245 303 362
#     4   9  18  36  63  91 117 151 200 255 304 353
#     4  11  23  41  62  86 120 160 199 248 308 363
#     4   9  18  34  57  86 117 154 203 252 291 343
#     4  10  21  39  63  90 119 156 204 253 301 359
#
# _framework density 18.578396999999999
#
# number of rings (size 3 to 8) (size 9 to 14) (size 15 to 20)
#    0.000    1.800    3.000    1.200    1.400    4.400 
#    0.000    4.000    0.000    1.800    0.000    0.000 
#    0.000    0.000    0.000    0.000    0.000    0.000 
#
# Total GULP energy -223366.867073 kJ/mol
# GULP energy per Si atom -5584.171677 kJ/mol
# Density = 1.853611 g / cm^3
# Si number density = 18.578397 Si / 1000 Ang^3
#
#
#
# Elastic Constant Matrix: (Units=GPa)
#
#
# Indices 1 2 3 4 5 6 
#
# 1 95.3527 33.2527 73.1099 0.0000 0.0000 0.0000
# 2 33.2527 89.9983 52.6162 0.0000 0.0000 0.0000
# 3 73.1099 52.6162 140.2601 0.0000 0.0000 0.0000
# 4 0.0000 0.0000 0.0000 14.6610 0.0000 0.0000
# 5 0.0000 0.0000 0.0000 0.0000 25.3794 0.0000
# 6 0.0000 0.0000 0.0000 0.0000 0.0000 25.8141
#
#
#
# Elastic Compliance Matrix: (Units=1/GPa)
#
#
# Indices 1 2 3 4 5 6 
#
# 1 0.017618 -0.001461 -0.008635 0.000000 0.000000 0.000000
# 2 -0.001461 0.014354 -0.004623 0.000000 0.000000 0.000000
# 3 -0.008635 -0.004623 0.013365 0.000000 0.000000 0.000000
# 4 0.000000 0.000000 0.000000 0.068208 0.000000 0.000000
# 5 0.000000 0.000000 0.000000 0.000000 0.039402 0.000000
# 6 0.000000 0.000000 0.000000 0.000000 0.000000 0.038739
#
#
# Mechanical properties :
#
#
# Convention : Reuss Voigt Hill
#
# Bulk Modulus (GPa) = 62.90043 71.50763 67.20403
# Shear Modulus (GPa) = 22.08259 24.27972 23.18115
#
# Velocity S-wave (km/s) = 3.45137 3.61900 3.53618
# Velocity P-wave (km/s) = 7.05782 7.48573 7.27492
#
# Compressibility (1/GPa) = 0.01589814
#
# Stress axis : x y z
#
# Youngs Moduli (GPa) = 56.76132 69.66711 74.82315
#
# Poissons Ratio (x) = 0.10179 0.64610
# Poissons Ratio (y) = 0.08293 0.34591
# Poissons Ratio (z) = 0.49014 0.32208
#
# Static dielectric constant tensor:
#      x y z
#    x 1.646590 0.000000 0.000000 
#    y 0.000000 1.646420 0.000000 
#    z 0.000000 0.000000 1.607660 
# 
# From -- ./inp_files/28556.got.cif
#   From: 2010.05.17/outbox.cif.g08.bks.cpg/sg65_15_cif.got.tgz:28556.got - 2010.06.03 17:01:31.
