data_PCOD9492410
_publ_section_title
;
Structure prediction by ZEFSAII (Michael W. Deem and Ramdas Pophale) SiO2 
 PCOD9492410
Probable space group: C M M M
;
_chemical_formula_sum "Si O2"
_cell_formula_units_Z 104
_cell_length_a 8.038049
_cell_length_b 27.384239
_cell_length_c 23.248027
_cell_angle_alpha 90.000000
_cell_angle_beta 90.000000
_cell_angle_gamma 90.000000
_cell_volume 5117.259338
_symmetry_space_group_name_H-M "C M M M"
_symmetry_group_IT_number 65
_symmetry_cell_setting 'orthorhombic'
loop_
_space_group_symop_operation_xyz
x,y,z
-x,-y,z
x,-y,-z
-x,y,-z
-x,-y,-z
x,y,-z
-x,y,z
x,-y,z
1/2+x,1/2+y,z
1/2-x,1/2-y,z
1/2+x,1/2-y,-z
1/2-x,1/2+y,-z
1/2-x,1/2-y,-z
1/2+x,1/2+y,-z
1/2-x,1/2+y,z
1/2+x,1/2-y,z
loop_
_atom_site_type_symbol
_atom_site_label
_atom_site_fract_x
_atom_site_fract_y
_atom_site_fract_z
Si Si1 0.798710 0.401189 0.759107
Si Si2 0.796602 0.654188 0.936169
Si Si3 0.803703 0.902615 0.629019
Si Si4 0.800609 0.302525 0.818211
Si Si5 0.796394 0.000000 0.433485
Si Si6 0.797229 0.553479 0.121289
Si Si7 0.697620 0.804251 0.434363
O O1 0.731970 0.410915 0.696179
O O2 0.743576 0.347240 0.779137
O O3 0.749271 0.435779 0.812423
O O4 0.000000 0.402347 0.756357
O O5 0.740228 0.688254 0.883617
O O6 0.746461 0.599182 0.917871
O O7 0.000000 0.655128 0.936825
O O8 0.738423 0.666965 0.000000
O O9 0.735204 0.949968 0.595599
O O10 0.742152 0.850424 0.605261
O O11 0.000000 0.901835 0.619780
O O12 0.750000 0.250000 0.796610
O O13 0.000000 0.305369 0.819838
O O14 0.751992 0.000000 0.500000
O O15 0.000000 0.000000 0.429279
O O16 0.739966 0.500000 0.102875
O O17 0.000000 0.553667 0.120174
O O18 0.765582 0.810806 0.500000
O O19 0.500000 0.803421 0.438013
O O20 0.750000 0.750000 0.413917
#
# Coordination Sequence:
#
# PCOD9492410 Si02
#       7
#    16  16  16  16   8  16  16
#     4   9  19  34  49  70 101 133 168 215 264 310
#     4   8  14  25  41  65  97 127 160 206 256 308
#     4  11  22  36  57  83 110 144 185 225 267 319
#     4   9  18  32  49  69  97 133 169 207 258 311
#     4   9  20  38  57  79 111 147 178 215 266 320
#     4   8  14  25  43  66  92 127 166 205 257 313
#     4  10  21  38  60  85 112 142 177 218 266 320
#
# _framework density 20.323378000000002
#
# number of rings (size 3 to 8) (size 9 to 14) (size 15 to 20)
#    0.000    2.846    0.000    3.231    1.077    3.385 
#    0.000    4.231    0.000    2.769    0.000    0.000 
#    0.000    0.000    0.000    6.769    0.000    6.769 
#
# Total GULP energy -289977.515469 kJ/mol
# GULP energy per Si atom -5576.490682 kJ/mol
# Density = 2.027712 g / cm^3
# Si number density = 20.323378 Si / 1000 Ang^3
#
#
#
# Elastic Constant Matrix: (Units=GPa)
#
#
# Indices 1 2 3 4 5 6 
#
# 1 17.8660 5.7075 1.1791 0.0000 0.0000 0.0000
# 2 5.7075 65.3038 3.0902 0.0000 0.0000 0.0000
# 3 1.1791 3.0902 73.2175 0.0000 0.0000 0.0000
# 4 0.0000 0.0000 0.0000 2.3245 0.0000 0.0000
# 5 0.0000 0.0000 0.0000 0.0000 9.0512 0.0000
# 6 0.0000 0.0000 0.0000 0.0000 0.0000 11.1062
#
#
#
# Elastic Compliance Matrix: (Units=1/GPa)
#
#
# Indices 1 2 3 4 5 6 
#
# 1 0.057618 -0.005002 -0.000717 0.000000 0.000000 0.000000
# 2 -0.005002 0.015778 -0.000585 0.000000 0.000000 0.000000
# 3 -0.000717 -0.000585 0.013694 0.000000 0.000000 0.000000
# 4 0.000000 0.000000 0.000000 0.430206 0.000000 0.000000
# 5 0.000000 0.000000 0.000000 0.000000 0.110482 0.000000
# 6 0.000000 0.000000 0.000000 0.000000 0.000000 0.090040
#
#
# Mechanical properties :
#
#
# Convention : Reuss Voigt Hill
#
# Bulk Modulus (GPa) = 13.42610 19.59342 16.50976
# Shear Modulus (GPa) = 6.62030 14.25708 10.43869
#
# Velocity S-wave (km/s) = 1.80681 2.65148 2.26880
# Velocity P-wave (km/s) = 3.31260 4.36297 3.87355
#
# Compressibility (1/GPa) = 0.07448179
#
# Stress axis : x y z
#
# Youngs Moduli (GPa) = 17.35582 63.37979 73.02374
#
# Poissons Ratio (x) = 0.31701 0.05234
# Poissons Ratio (y) = 0.08681 0.04275
# Poissons Ratio (z) = 0.01244 0.03710
#
# Static dielectric constant tensor:
#      x y z
#    x 1.732550 0.000000 0.000000 
#    y 0.000000 1.723220 0.000000 
#    z 0.000000 0.000000 1.708350 
# 
# From -- ./inp_files/60374.got.cif
#   From: 2010.05.17/outbox.cif.g08.bks.cpg/sg65_31_cif.got.tgz:60374.got - 2010.06.03 17:01:31.
