data_PCOD9492948
_publ_section_title
;
Structure prediction by ZEFSAII (Michael W. Deem and Ramdas Pophale) SiO2 
 PCOD9492948
Probable space group: C M M M
;
_chemical_formula_sum "Si O2"
_cell_formula_units_Z 112
_cell_length_a 13.406830
_cell_length_b 25.483133
_cell_length_c 13.938273
_cell_angle_alpha 90.000000
_cell_angle_beta 90.000000
_cell_angle_gamma 90.000000
_cell_volume 4761.983540
_symmetry_space_group_name_H-M "C M M M"
_symmetry_group_IT_number 65
_symmetry_cell_setting 'orthorhombic'
loop_
_space_group_symop_operation_xyz
x,y,z
-x,-y,z
x,-y,-z
-x,y,-z
-x,-y,-z
x,y,-z
-x,y,z
x,-y,z
1/2+x,1/2+y,z
1/2-x,1/2-y,z
1/2+x,1/2-y,-z
1/2-x,1/2+y,-z
1/2-x,1/2-y,-z
1/2+x,1/2+y,-z
1/2-x,1/2+y,z
1/2+x,1/2-y,z
loop_
_atom_site_type_symbol
_atom_site_label
_atom_site_fract_x
_atom_site_fract_y
_atom_site_fract_z
Si Si1 0.620067 0.167668 0.607698
Si Si2 0.879099 0.899734 0.611745
Si Si3 0.381811 0.221285 0.115464
Si Si4 0.190640 0.056456 0.800577
Si Si5 0.384623 0.717745 0.616934
Si Si6 0.380316 0.664407 0.109655
Si Si7 0.882867 0.389841 0.202519
O O1 0.656926 0.157526 0.500000
O O2 0.500000 0.174232 0.600912
O O3 0.655921 0.224889 0.643739
O O4 0.632439 0.122668 0.684972
O O5 0.857137 0.909787 0.500000
O O6 0.832106 0.939109 0.687278
O O7 0.843976 0.840149 0.638365
O O8 0.000000 0.900554 0.620774
O O9 0.500000 0.219617 0.139344
O O10 0.345189 0.278776 0.150447
O O11 0.347702 0.164497 0.152112
O O12 0.372068 0.222742 0.000000
O O13 0.141689 0.109273 0.841366
O O14 0.307590 0.064180 0.822743
O O15 0.154641 0.000000 0.836485
O O16 0.385643 0.719874 0.500000
O O17 0.500000 0.715871 0.650258
O O18 0.500000 0.669363 0.107504
O O19 0.344147 0.661342 0.000000
O O20 0.000000 0.398739 0.182959
#
# Coordination Sequence:
#
# PCOD9492948 Si02
#       7
#    16  16  16  16  16  16  16
#     4   8  14  27  50  80 112 145 185 235 291 350
#     4   9  19  37  60  85 117 157 196 240 300 362
#     4   8  16  35  64  95 122 148 183 231 293 364
#     4  12  27  41  56  84 119 158 210 259 289 333
#     4   7  11  23  46  76 108 140 171 212 276 350
#     4   9  20  41  68  96 126 155 181 225 296 369
#     4  10  22  39  60  84 114 159 205 248 300 347
#
# _framework density 23.51961
#
# number of rings (size 3 to 8) (size 9 to 14) (size 15 to 20)
#    0.000    3.000    0.000    3.000    2.000    3.714 
#    0.000    2.857    0.000    2.571    0.000    6.000 
#    0.000    0.000    0.000    0.000    0.000    0.000 
#
# Total GULP energy -312832.528673 kJ/mol
# GULP energy per Si atom -5586.295155 kJ/mol
# Density = 2.346608 g / cm^3
# Si number density = 23.519610 Si / 1000 Ang^3
#
#
#
# Elastic Constant Matrix: (Units=GPa)
#
#
# Indices 1 2 3 4 5 6 
#
# 1 75.1201 13.6927 -7.0863 0.0000 0.0000 0.0000
# 2 13.6927 125.3758 29.7901 0.0000 0.0000 0.0000
# 3 -7.0863 29.7901 52.4870 0.0000 0.0000 0.0000
# 4 0.0000 0.0000 0.0000 3.6452 0.0000 0.0000
# 5 0.0000 0.0000 0.0000 0.0000 5.5035 0.0000
# 6 0.0000 0.0000 0.0000 0.0000 0.0000 16.0113
#
#
#
# Elastic Compliance Matrix: (Units=1/GPa)
#
#
# Indices 1 2 3 4 5 6 
#
# 1 0.014031 -0.002292 0.003195 0.000000 0.000000 0.000000
# 2 -0.002292 0.009594 -0.005754 0.000000 0.000000 0.000000
# 3 0.003195 -0.005754 0.022750 0.000000 0.000000 0.000000
# 4 0.000000 0.000000 0.000000 0.274334 0.000000 0.000000
# 5 0.000000 0.000000 0.000000 0.000000 0.181704 0.000000
# 6 0.000000 0.000000 0.000000 0.000000 0.000000 0.062456
#
#
# Mechanical properties :
#
#
# Convention : Reuss Voigt Hill
#
# Bulk Modulus (GPa) = 27.26848 36.19734 31.73291
# Shear Modulus (GPa) = 8.52088 19.47108 13.99598
#
# Velocity S-wave (km/s) = 1.90545 2.88039 2.44207
# Velocity P-wave (km/s) = 4.05710 5.14644 4.63389
#
# Compressibility (1/GPa) = 0.03667238
#
# Stress axis : x y z
#
# Youngs Moduli (GPa) = 71.27026 104.23652 43.95664
#
# Poissons Ratio (x) = 0.23886 -0.14044
# Poissons Ratio (y) = 0.16332 0.25294
# Poissons Ratio (z) = -0.22770 0.59982
#
# Static dielectric constant tensor:
#      x y z
#    x 1.983020 0.000000 0.000000 
#    y 0.000000 1.841480 0.000000 
#    z 0.000000 0.000000 1.905450 
# 
# From -- ./inp_files/40867.got.cif
#   From: 2010.05.17/outbox.cif.g08.bks.cpg/sg65_21_cif.got.tgz:40867.got - 2010.06.03 17:01:31.
