data_PCOD9492928
_publ_section_title
;
Structure prediction by ZEFSAII (Michael W. Deem and Ramdas Pophale) SiO2 
 PCOD9492928
Probable space group: C M M M
;
_chemical_formula_sum "Si O2"
_cell_formula_units_Z 64
_cell_length_a 29.767210
_cell_length_b 14.124034
_cell_length_c 7.432352
_cell_angle_alpha 90.000000
_cell_angle_beta 90.000000
_cell_angle_gamma 90.000000
_cell_volume 3124.806689
_symmetry_space_group_name_H-M "C M M M"
_symmetry_group_IT_number 65
_symmetry_cell_setting 'orthorhombic'
loop_
_space_group_symop_operation_xyz
x,y,z
-x,-y,z
x,-y,-z
-x,y,-z
-x,-y,-z
x,y,-z
-x,y,z
x,-y,z
1/2+x,1/2+y,z
1/2-x,1/2-y,z
1/2+x,1/2-y,-z
1/2-x,1/2+y,-z
1/2-x,1/2-y,-z
1/2+x,1/2+y,-z
1/2-x,1/2+y,z
1/2+x,1/2-y,z
loop_
_atom_site_type_symbol
_atom_site_label
_atom_site_fract_x
_atom_site_fract_y
_atom_site_fract_z
Si Si1 0.948108 0.762341 0.000000
Si Si2 0.900646 0.113393 0.714497
Si Si3 0.698695 0.390725 0.718607
Si Si4 0.703682 0.115114 0.703994
Si Si5 0.630545 0.886331 0.000000
O O1 0.935750 0.827287 0.171659
O O2 0.914870 0.672805 0.000000
O O3 0.000000 0.735567 0.000000
O O4 0.905189 0.126729 0.500000
O O5 0.850163 0.146404 0.770439
O O6 0.904153 0.000000 0.747953
O O7 0.699886 0.389944 0.500000
O O8 0.697720 0.500000 0.776158
O O9 0.747329 0.353290 0.774408
O O10 0.697567 0.150815 0.500000
O O11 0.706174 0.000000 0.696268
O O12 0.662085 0.137172 0.829579
O O13 0.622648 0.000000 0.000000
#
# Coordination Sequence:
#
# PCOD9492928 Si02
#       5
#     8  16  16  16   8
#     4  12  27  42  57  80 108 141 191 252 297 327
#     4   9  19  38  63  89 119 152 180 212 266 338
#     4   7  11  24  50  83 116 148 176 204 252 323
#     4   8  14  28  53  83 113 144 179 220 266 323
#     4  10  22  39  58  79 105 146 195 237 285 335
#
# _framework density 20.481266999999999
#
# number of rings (size 3 to 8) (size 9 to 14) (size 15 to 20)
#    0.000    3.250    0.000    3.375    0.000    3.750 
#    0.000    7.500    0.000    4.500    0.000    5.250 
#    0.000    0.000    0.000    0.000    0.000    0.000 
#
# Total GULP energy -178585.761772 kJ/mol
# GULP energy per Si atom -5580.805055 kJ/mol
# Density = 2.043465 g / cm^3
# Si number density = 20.481267 Si / 1000 Ang^3
#
#
#
# Elastic Constant Matrix: (Units=GPa)
#
#
# Indices 1 2 3 4 5 6 
#
# 1 305.4711 168.0572 126.6025 0.0000 0.0000 0.0000
# 2 168.0572 231.9130 97.5167 0.0000 0.0000 0.0000
# 3 126.6025 97.5167 124.8209 0.0000 0.0000 0.0000
# 4 0.0000 0.0000 0.0000 68.2924 0.0000 0.0000
# 5 0.0000 0.0000 0.0000 0.0000 25.7540 0.0000
# 6 0.0000 0.0000 0.0000 0.0000 0.0000 33.3892
#
#
#
# Elastic Compliance Matrix: (Units=1/GPa)
#
#
# Indices 1 2 3 4 5 6 
#
# 1 0.006833 -0.003034 -0.004560 0.000000 0.000000 0.000000
# 2 -0.003034 0.007769 -0.002992 0.000000 0.000000 0.000000
# 3 -0.004560 -0.002992 0.014974 0.000000 0.000000 0.000000
# 4 0.000000 0.000000 0.000000 0.014643 0.000000 0.000000
# 5 0.000000 0.000000 0.000000 0.000000 0.038829 0.000000
# 6 0.000000 0.000000 0.000000 0.000000 0.000000 0.029950
#
#
# Mechanical properties :
#
#
# Convention : Reuss Voigt Hill
#
# Bulk Modulus (GPa) = 118.99738 160.72866 139.86302
# Shear Modulus (GPa) = 36.50442 43.48903 39.99673
#
# Velocity S-wave (km/s) = 4.22635 4.61299 4.42389
# Velocity P-wave (km/s) = 9.05775 10.34501 9.72270
#
# Compressibility (1/GPa) = 0.00840355
#
# Stress axis : x y z
#
# Youngs Moduli (GPa) = 146.35725 128.72286 66.78253
#
# Poissons Ratio (x) = 0.39053 0.30452
# Poissons Ratio (y) = 0.44404 0.19982
# Poissons Ratio (z) = 0.66737 0.38515
#
# Static dielectric constant tensor:
#      x y z
#    x 1.706520 0.000000 0.000000 
#    y 0.000000 1.774140 0.000000 
#    z 0.000000 0.000000 1.731490 
# 
# From -- ./inp_files/15626.got.cif
#   From: 2010.05.17/outbox.cif.g08.bks.cpg/sg65_8_cif.got.tgz:15626.got - 2010.06.03 17:01:31.
