data_PCOD9492303
_publ_section_title
;
Structure prediction by ZEFSAII (Michael W. Deem and Ramdas Pophale) SiO2 
 PCOD9492303
Probable space group: C M M M
;
_chemical_formula_sum "Si O2"
_cell_formula_units_Z 48
_cell_length_a 16.610878
_cell_length_b 12.821571
_cell_length_c 10.223146
_cell_angle_alpha 90.000000
_cell_angle_beta 90.000000
_cell_angle_gamma 90.000000
_cell_volume 2177.300605
_symmetry_space_group_name_H-M "C M M M"
_symmetry_group_IT_number 65
_symmetry_cell_setting 'orthorhombic'
loop_
_space_group_symop_operation_xyz
x,y,z
-x,-y,z
x,-y,-z
-x,y,-z
-x,-y,-z
x,y,-z
-x,y,z
x,-y,z
1/2+x,1/2+y,z
1/2-x,1/2-y,z
1/2+x,1/2-y,-z
1/2-x,1/2+y,-z
1/2-x,1/2-y,-z
1/2+x,1/2+y,-z
1/2-x,1/2+y,z
1/2+x,1/2-y,z
loop_
_atom_site_type_symbol
_atom_site_label
_atom_site_fract_x
_atom_site_fract_y
_atom_site_fract_z
Si Si1 0.593258 0.500000 0.142686
Si Si2 0.407232 0.875568 0.000000
Si Si3 0.647885 0.342385 0.354925
Si Si4 0.835618 0.621315 0.716847
O O1 0.500000 0.500000 0.121563
O O2 0.610565 0.401086 0.232849
O O3 0.635481 0.500000 0.000000
O O4 0.355822 0.854835 0.130882
O O5 0.500000 0.831682 0.000000
O O6 0.417239 0.000000 0.000000
O O7 0.628724 0.382274 0.500000
O O8 0.742882 0.364211 0.326906
O O9 0.624884 0.220464 0.352876
O O10 0.858548 0.500000 0.690842
#
# Coordination Sequence:
#
# PCOD9492303 Si02
#       4
#     8   8  16  16
#     4  11  27  47  69  97 133 174 221 272 326 393
#     4   9  20  37  58  91 129 172 216 267 328 388
#     4  11  24  40  66 100 134 174 223 271 330 394
#     4  10  21  37  65  96 134 174 221 276 326 386
#
# _framework density 22.045646999999999
#
# number of rings (size 3 to 8) (size 9 to 14) (size 15 to 20)
#    0.000    1.667    1.667    2.500    4.667    6.000 
#    0.000    0.000    0.000    3.000    0.000   21.000 
#    0.000    0.000    0.000    0.000    0.000    0.000 
#
# Total GULP energy -133634.555636 kJ/mol
# GULP energy per Si atom -5568.106485 kJ/mol
# Density = 2.199547 g / cm^3
# Si number density = 22.045647 Si / 1000 Ang^3
#
#
#
# Elastic Constant Matrix: (Units=GPa)
#
#
# Indices 1 2 3 4 5 6 
#
# 1 12.2196 6.5520 21.4482 0.0000 0.0000 0.0000
# 2 6.5520 179.2351 65.7657 0.0000 0.0000 0.0000
# 3 21.4482 65.7657 201.7919 0.0000 0.0000 0.0000
# 4 0.0000 0.0000 0.0000 31.3814 0.0000 0.0000
# 5 0.0000 0.0000 0.0000 0.0000 45.9147 0.0000
# 6 0.0000 0.0000 0.0000 0.0000 0.0000 225.7363
#
#
#
# Elastic Compliance Matrix: (Units=1/GPa)
#
#
# Indices 1 2 3 4 5 6 
#
# 1 0.100617 0.000279 -0.010785 0.000000 0.000000 0.000000
# 2 0.000279 0.006338 -0.002095 0.000000 0.000000 0.000000
# 3 -0.010785 -0.002095 0.006785 0.000000 0.000000 0.000000
# 4 0.000000 0.000000 0.000000 0.031866 0.000000 0.000000
# 5 0.000000 0.000000 0.000000 0.000000 0.021780 0.000000
# 6 0.000000 0.000000 0.000000 0.000000 0.000000 0.004430
#
#
# Mechanical properties :
#
#
# Convention : Reuss Voigt Hill
#
# Bulk Modulus (GPa) = 11.29471 64.53092 37.91281
# Shear Modulus (GPa) = 22.07209 80.57186 51.32197
#
# Velocity S-wave (km/s) = 3.16761 6.05203 4.83016
# Velocity P-wave (km/s) = 4.30265 8.84145 6.95284
#
# Compressibility (1/GPa) = 0.08853703
#
# Stress axis : x y z
#
# Youngs Moduli (GPa) = 9.93866 157.78218 147.38754
#
# Poissons Ratio (x) = -0.04408 1.58965
# Poissons Ratio (y) = -0.00278 0.30881
# Poissons Ratio (z) = 0.10719 0.33059
#
# Static dielectric constant tensor:
#      x y z
#    x 1.867290 0.000000 0.000000 
#    y 0.000000 1.360030 0.000000 
#    z 0.000000 0.000000 1.878950 
# 
# From -- ./inp_files/8193.got.cif
#   From: 2010.05.17/outbox.cif.g08.bks.cpg/sg65_5_cif.got.tgz:8193.got - 2010.06.03 17:01:31.
