data_PCOD9492248
_publ_section_title
;
Structure prediction by ZEFSAII (Michael W. Deem and Ramdas Pophale) SiO2 
 PCOD9492248
Probable space group: C M M M
;
_chemical_formula_sum "Si O2"
_cell_formula_units_Z 72
_cell_length_a 18.446747
_cell_length_b 8.500304
_cell_length_c 24.382645
_cell_angle_alpha 90.000000
_cell_angle_beta 90.000000
_cell_angle_gamma 90.000000
_cell_volume 3823.270843
_symmetry_space_group_name_H-M "C M M M"
_symmetry_group_IT_number 65
_symmetry_cell_setting 'orthorhombic'
loop_
_space_group_symop_operation_xyz
x,y,z
-x,-y,z
x,-y,-z
-x,y,-z
-x,-y,-z
x,y,-z
-x,y,z
x,-y,z
1/2+x,1/2+y,z
1/2-x,1/2-y,z
1/2+x,1/2-y,-z
1/2-x,1/2+y,-z
1/2-x,1/2-y,-z
1/2+x,1/2+y,-z
1/2-x,1/2+y,z
1/2+x,1/2-y,z
loop_
_atom_site_type_symbol
_atom_site_label
_atom_site_fract_x
_atom_site_fract_y
_atom_site_fract_z
Si Si1 0.331556 0.686997 0.784709
Si Si2 0.585180 0.809318 0.678749
Si Si3 0.331842 0.190255 0.000000
Si Si4 0.416288 0.809594 0.109393
Si Si5 0.587625 0.812258 0.441126
O O1 0.330464 0.500000 0.785996
O O2 0.250000 0.750000 0.788144
O O3 0.368840 0.744138 0.728662
O O4 0.377135 0.749352 0.836301
O O5 0.500000 0.767176 0.685051
O O6 0.611745 0.752656 0.618465
O O7 0.588606 0.000000 0.679200
O O8 0.250000 0.250000 0.000000
O O9 0.373835 0.242008 0.945204
O O10 0.331250 0.000000 0.000000
O O11 0.500000 0.759076 0.107678
O O12 0.415314 0.000000 0.110406
O O13 0.613795 0.746931 0.500000
O O14 0.500000 0.796137 0.440691
O O15 0.602010 0.000000 0.441732
#
# Coordination Sequence:
#
# PCOD9492248 Si02
#       5
#    16  16   8  16  16
#     4  12  25  39  55  76 105 141 182 226 271 320
#     4   9  17  31  53  80 109 140 174 215 265 319
#     4  10  21  37  59  87 117 150 183 216 258 308
#     4  10  21  39  62  86 113 144 179 219 264 315
#     4   7  10  19  40  72 105 134 167 208 254 308
#
# _framework density 18.832044
#
# number of rings (size 3 to 8) (size 9 to 14) (size 15 to 20)
#    0.000    2.444    0.000    5.667    0.000    7.556 
#    0.000    0.000    0.000    3.333    0.000    3.111 
#    0.000    0.000    0.000    0.000    0.000    0.000 
#
# Total GULP energy -200795.062459 kJ/mol
# GULP energy per Si atom -5577.640624 kJ/mol
# Density = 1.878918 g / cm^3
# Si number density = 18.832044 Si / 1000 Ang^3
#
#
#
# Elastic Constant Matrix: (Units=GPa)
#
#
# Indices 1 2 3 4 5 6 
#
# 1 133.8613 29.9629 107.9682 0.0000 0.0000 0.0000
# 2 29.9629 20.2171 33.8854 0.0000 0.0000 0.0000
# 3 107.9682 33.8854 240.5097 0.0000 0.0000 0.0000
# 4 0.0000 0.0000 0.0000 -10.7309 0.0000 0.0000
# 5 0.0000 0.0000 0.0000 0.0000 -28.8481 0.0000
# 6 0.0000 0.0000 0.0000 0.0000 0.0000 23.4481
#
#
#
# Elastic Compliance Matrix: (Units=1/GPa)
#
#
# Indices 1 2 3 4 5 6 
#
# 1 0.014025 -0.013397 -0.004408 0.000000 0.000000 0.000000
# 2 -0.013397 0.077551 -0.004912 0.000000 0.000000 0.000000
# 3 -0.004408 -0.004912 0.006829 0.000000 0.000000 0.000000
# 4 0.000000 0.000000 0.000000 -0.093189 0.000000 0.000000
# 5 0.000000 0.000000 0.000000 0.000000 -0.034664 0.000000
# 6 0.000000 0.000000 0.000000 0.000000 0.000000 0.042647
#
#
# Mechanical properties :
#
#
# Convention : Reuss Voigt Hill
#
# Bulk Modulus (GPa) = 18.87855 82.02458 50.45157
# Shear Modulus (GPa) = 65.53914 11.62525 38.58219
#
# Velocity S-wave (km/s) = 5.90572 2.48727 4.53122
# Velocity P-wave (km/s) = 7.51996 7.20410 7.36372
#
# Compressibility (1/GPa) = 0.05297016
#
# Stress axis : x y z
#
# Youngs Moduli (GPa) = 71.30233 12.89472 146.43535
#
# Poissons Ratio (x) = 0.17275 0.64556
# Poissons Ratio (y) = 0.95521 0.71933
# Poissons Ratio (z) = 0.31433 0.06334
#
# Static dielectric constant tensor:
#      x y z
#    x 1.616310 0.000000 0.000000 
#    y 0.000000 1.640800 0.000000 
#    z 0.000000 0.000000 1.680240 
# 
# From -- ./inp_files/70329.got.cif
#   From: 2010.05.17/outbox.cif.g08.bks.cpg/sg65_36_cif.got.tgz:70329.got - 2010.06.03 17:01:31.
