data_PCOD9492059
_publ_section_title
;
Structure prediction by ZEFSAII (Michael W. Deem and Ramdas Pophale) SiO2 
 PCOD9492059
Probable space group: C M M M
;
_chemical_formula_sum "Si O2"
_cell_formula_units_Z 104
_cell_length_a 26.121088
_cell_length_b 8.744328
_cell_length_c 26.699027
_cell_angle_alpha 90.000000
_cell_angle_beta 90.000000
_cell_angle_gamma 90.000000
_cell_volume 6098.361099
_symmetry_space_group_name_H-M "C M M M"
_symmetry_group_IT_number 65
_symmetry_cell_setting 'orthorhombic'
loop_
_space_group_symop_operation_xyz
x,y,z
-x,-y,z
x,-y,-z
-x,y,-z
-x,-y,-z
x,y,-z
-x,y,z
x,-y,z
1/2+x,1/2+y,z
1/2-x,1/2-y,z
1/2+x,1/2-y,-z
1/2-x,1/2+y,-z
1/2-x,1/2-y,-z
1/2+x,1/2+y,-z
1/2-x,1/2+y,z
1/2+x,1/2-y,z
loop_
_atom_site_type_symbol
_atom_site_label
_atom_site_fract_x
_atom_site_fract_y
_atom_site_fract_z
Si Si1 0.194091 0.183428 0.664259
Si Si2 0.440874 0.185773 0.500000
Si Si3 0.601167 0.182735 0.843301
Si Si4 0.805657 0.817262 0.218976
Si Si5 0.000000 0.182858 0.669003
Si Si6 0.596601 0.184308 0.391129
Si Si7 0.940088 0.184197 0.056827
Si Si8 0.000000 0.315566 0.219837
O O1 0.250000 0.250000 0.651919
O O2 0.183490 0.222929 0.722716
O O3 0.149720 0.253560 0.630352
O O4 0.194697 0.000000 0.659891
O O5 0.500000 0.238324 0.500000
O O6 0.413399 0.231756 0.551310
O O7 0.442224 0.000000 0.500000
O O8 0.650472 0.251955 0.816379
O O9 0.592891 0.242028 0.899498
O O10 0.550529 0.226506 0.811543
O O11 0.604626 0.000000 0.843268
O O12 0.750000 0.750000 0.206547
O O13 0.804122 0.000000 0.215347
O O14 0.949986 0.249931 0.641694
O O15 0.000000 0.235789 0.726520
O O16 0.000000 0.000000 0.665799
O O17 0.595636 0.000000 0.388336
O O18 0.000000 0.226764 0.063947
O O19 0.937164 0.000000 0.060214
O O20 0.925630 0.227995 0.000000
O O21 0.000000 0.500000 0.226689
#
# Coordination Sequence:
#
# PCOD9492059 Si02
#       8
#    16   8  16  16   8  16  16   8
#     4  10  21  38  59  85 113 144 184 226 274 328
#     4   9  18  36  59  82 107 142 187 225 270 330
#     4  11  21  34  53  80 112 144 182 227 273 324
#     4  10  21  37  57  80 108 145 184 225 270 324
#     4  12  24  35  51  79 112 144 182 224 272 331
#     4  11  21  37  60  82 108 144 183 227 275 327
#     4   9  18  33  53  77 107 146 188 227 272 325
#     4  10  22  36  50  76 112 149 181 217 272 329
#
# _framework density 17.053761999999999
#
# number of rings (size 3 to 8) (size 9 to 14) (size 15 to 20)
#    0.000    1.769    1.538    3.923    0.000    5.846 
#    0.000    3.077    0.000    0.462    0.000    0.000 
#    0.000    0.000    0.000    0.000    0.000    0.000 
#
# Total GULP energy -290464.395596 kJ/mol
# GULP energy per Si atom -5585.853761 kJ/mol
# Density = 1.701495 g / cm^3
# Si number density = 17.053762 Si / 1000 Ang^3
#
#
#
# Elastic Constant Matrix: (Units=GPa)
#
#
# Indices 1 2 3 4 5 6 
#
# 1 155.0074 54.7758 110.3823 0.0000 0.0000 0.0000
# 2 54.7758 55.0866 56.9784 0.0000 0.0000 0.0000
# 3 110.3823 56.9784 159.7824 0.0000 0.0000 0.0000
# 4 0.0000 0.0000 0.0000 22.2239 0.0000 0.0000
# 5 0.0000 0.0000 0.0000 0.0000 8.6549 0.0000
# 6 0.0000 0.0000 0.0000 0.0000 0.0000 29.8212
#
#
#
# Elastic Compliance Matrix: (Units=1/GPa)
#
#
# Indices 1 2 3 4 5 6 
#
# 1 0.013905 -0.006164 -0.007408 0.000000 0.000000 0.000000
# 2 -0.006164 0.031495 -0.006973 0.000000 0.000000 0.000000
# 3 -0.007408 -0.006973 0.013862 0.000000 0.000000 0.000000
# 4 0.000000 0.000000 0.000000 0.044997 0.000000 0.000000
# 5 0.000000 0.000000 0.000000 0.000000 0.115541 0.000000
# 6 0.000000 0.000000 0.000000 0.000000 0.000000 0.033533
#
#
# Mechanical properties :
#
#
# Convention : Reuss Voigt Hill
#
# Bulk Modulus (GPa) = 55.02704 90.46104 72.74404
# Shear Modulus (GPa) = 16.64013 21.98934 19.31473
#
# Velocity S-wave (km/s) = 3.12708 3.59473 3.36903
# Velocity P-wave (km/s) = 6.73610 8.38983 7.60803
#
# Compressibility (1/GPa) = 0.01817288
#
# Stress axis : x y z
#
# Youngs Moduli (GPa) = 71.91901 31.75141 72.13834
#
# Poissons Ratio (x) = 0.19572 0.53436
# Poissons Ratio (y) = 0.44332 0.50299
# Poissons Ratio (z) = 0.53274 0.22139
#
# Static dielectric constant tensor:
#      x y z
#    x 1.544460 0.000000 0.000000 
#    y 0.000000 1.569740 0.000000 
#    z 0.000000 0.000000 1.564730 
# 
# From -- ./inp_files/71934.got.cif
#   From: 2010.05.17/outbox.cif.g08.bks.cpg/sg65_36_cif.got.tgz:71934.got - 2010.06.03 17:01:31.
