data_PCOD9492244
_publ_section_title
;
Structure prediction by ZEFSAII (Michael W. Deem and Ramdas Pophale) SiO2 
 PCOD9492244
Probable space group: C M M M
;
_chemical_formula_sum "Si O2"
_cell_formula_units_Z 96
_cell_length_a 20.278362
_cell_length_b 14.946143
_cell_length_c 14.952353
_cell_angle_alpha 90.000000
_cell_angle_beta 90.000000
_cell_angle_gamma 90.000000
_cell_volume 4531.808464
_symmetry_space_group_name_H-M "C M M M"
_symmetry_group_IT_number 65
_symmetry_cell_setting 'orthorhombic'
loop_
_space_group_symop_operation_xyz
x,y,z
-x,-y,z
x,-y,-z
-x,y,-z
-x,-y,-z
x,y,-z
-x,y,z
x,-y,z
1/2+x,1/2+y,z
1/2-x,1/2-y,z
1/2+x,1/2-y,-z
1/2-x,1/2+y,-z
1/2-x,1/2-y,-z
1/2+x,1/2+y,-z
1/2-x,1/2+y,z
1/2+x,1/2-y,z
loop_
_atom_site_type_symbol
_atom_site_label
_atom_site_fract_x
_atom_site_fract_y
_atom_site_fract_z
Si Si1 0.185788 0.312539 0.596842
Si Si2 0.000000 0.792306 0.898339
Si Si3 0.613030 0.603149 0.204532
Si Si4 0.144494 0.605268 0.774554
Si Si5 0.421407 0.340864 0.400377
Si Si6 0.500000 0.893016 0.176050
Si Si7 0.244652 0.108934 0.898785
O O1 0.188285 0.358878 0.500000
O O2 0.250000 0.250000 0.602981
O O3 0.180762 0.373268 0.682906
O O4 0.121203 0.249675 0.598791
O O5 0.937858 0.831726 0.844613
O O6 0.000000 0.684232 0.898284
O O7 0.000000 0.825091 0.000000
O O8 0.600195 0.500000 0.177845
O O9 0.603641 0.609503 0.311447
O O10 0.685565 0.628609 0.169745
O O11 0.145235 0.500000 0.788300
O O12 0.186943 0.644046 0.856721
O O13 0.067392 0.627829 0.771443
O O14 0.410810 0.382330 0.500000
O O15 0.500000 0.326924 0.391117
O O16 0.500000 0.000000 0.151317
O O17 0.247450 0.000000 0.903157
O O18 0.232873 0.140376 0.000000
#
# Coordination Sequence:
#
# PCOD9492244 Si02
#       7
#    16   8  16  16  16   8  16
#     4  10  21  37  59  88 124 165 207 255 312 371
#     4  12  25  39  59  89 124 164 209 256 312 374
#     4  11  22  38  62  93 128 165 202 251 311 377
#     4  10  21  38  62  90 119 156 205 265 323 374
#     4  10  21  37  59  86 120 166 211 247 295 363
#     4  10  24  44  64  88 120 160 214 272 319 364
#     4   9  19  37  60  86 120 161 202 247 310 386
#
# _framework density 21.183596000000001
#
# number of rings (size 3 to 8) (size 9 to 14) (size 15 to 20)
#    0.000    1.833    0.833    2.750    1.167    2.833 
#    0.000    2.500    0.000   13.000    0.000    0.000 
#    0.000    0.000    0.000    0.000    0.000    0.000 
#
# Total GULP energy -267791.934628 kJ/mol
# GULP energy per Si atom -5578.998638 kJ/mol
# Density = 2.113538 g / cm^3
# Si number density = 21.183596 Si / 1000 Ang^3
#
#
#
# Elastic Constant Matrix: (Units=GPa)
#
#
# Indices 1 2 3 4 5 6 
#
# 1 134.0432 8.7271 68.5634 0.0000 0.0000 0.0000
# 2 8.7271 39.7811 4.6854 0.0000 0.0000 0.0000
# 3 68.5634 4.6854 151.6756 0.0000 0.0000 0.0000
# 4 0.0000 0.0000 0.0000 31.6735 0.0000 0.0000
# 5 0.0000 0.0000 0.0000 0.0000 22.6568 0.0000
# 6 0.0000 0.0000 0.0000 0.0000 0.0000 4.0819
#
#
#
# Elastic Compliance Matrix: (Units=1/GPa)
#
#
# Indices 1 2 3 4 5 6 
#
# 1 0.009809 -0.001636 -0.004384 0.000000 0.000000 0.000000
# 2 -0.001636 0.025502 -0.000048 0.000000 0.000000 0.000000
# 3 -0.004384 -0.000048 0.008576 0.000000 0.000000 0.000000
# 4 0.000000 0.000000 0.000000 0.031572 0.000000 0.000000
# 5 0.000000 0.000000 0.000000 0.000000 0.044137 0.000000
# 6 0.000000 0.000000 0.000000 0.000000 0.000000 0.244987
#
#
# Mechanical properties :
#
#
# Convention : Reuss Voigt Hill
#
# Bulk Modulus (GPa) = 31.49408 54.38352 42.93880
# Shear Modulus (GPa) = 12.90983 27.91736 20.41359
#
# Velocity S-wave (km/s) = 2.47133 3.63420 3.10764
# Velocity P-wave (km/s) = 4.80029 6.58316 5.76111
#
# Compressibility (1/GPa) = 0.03175200
#
# Stress axis : x y z
#
# Youngs Moduli (GPa) = 101.94776 39.21251 116.60395
#
# Poissons Ratio (x) = 0.06414 0.51113
# Poissons Ratio (y) = 0.16674 0.00565
# Poissons Ratio (z) = 0.44689 0.00190
#
# Static dielectric constant tensor:
#      x y z
#    x 1.777440 0.000000 0.000000 
#    y 0.000000 1.775990 0.000000 
#    z 0.000000 0.000000 1.759230 
# 
# From -- ./inp_files/44194.got.cif
#   From: 2010.05.17/outbox.cif.g08.bks.cpg/sg65_23_cif.got.tgz:44194.got - 2010.06.03 17:01:31.
