data_PCOD9492409
_publ_section_title
;
Structure prediction by ZEFSAII (Michael W. Deem and Ramdas Pophale) SiO2 
 PCOD9492409
Probable space group: C M M M
;
_chemical_formula_sum "Si O2"
_cell_formula_units_Z 88
_cell_length_a 29.117664
_cell_length_b 15.408275
_cell_length_c 10.514486
_cell_angle_alpha 90.000000
_cell_angle_beta 90.000000
_cell_angle_gamma 90.000000
_cell_volume 4717.355417
_symmetry_space_group_name_H-M "C M M M"
_symmetry_group_IT_number 65
_symmetry_cell_setting 'orthorhombic'
loop_
_space_group_symop_operation_xyz
x,y,z
-x,-y,z
x,-y,-z
-x,y,-z
-x,-y,-z
x,y,-z
-x,y,z
x,-y,z
1/2+x,1/2+y,z
1/2-x,1/2-y,z
1/2+x,1/2-y,-z
1/2-x,1/2+y,-z
1/2-x,1/2-y,-z
1/2+x,1/2+y,-z
1/2-x,1/2+y,z
1/2+x,1/2-y,z
loop_
_atom_site_type_symbol
_atom_site_label
_atom_site_fract_x
_atom_site_fract_y
_atom_site_fract_z
Si Si1 0.448061 0.895382 0.500000
Si Si2 0.195225 0.647748 0.645536
Si Si3 0.948481 0.760212 0.853431
Si Si4 0.698972 0.357716 0.646234
Si Si5 0.623221 0.598740 0.850058
Si Si6 0.602484 0.100528 0.239882
O O1 0.500000 0.861399 0.500000
O O2 0.420152 0.872787 0.374771
O O3 0.450838 0.000000 0.500000
O O4 0.183954 0.620651 0.500000
O O5 0.247583 0.620137 0.670254
O O6 0.194773 0.752641 0.649321
O O7 0.156826 0.612838 0.740944
O O8 0.914673 0.833386 0.799391
O O9 0.921977 0.668780 0.850679
O O10 0.000000 0.753895 0.798266
O O11 0.953545 0.785889 0.000000
O O12 0.687811 0.384345 0.500000
O O13 0.666508 0.393607 0.756132
O O14 0.605917 0.500000 0.846661
O O15 0.634525 0.618109 0.000000
O O16 0.592214 0.000000 0.212093
#
# Coordination Sequence:
#
# PCOD9492409 Si02
#       6
#     8  16  16  16  16  16
#     4   9  18  30  46  73 105 139 179 220 265 314
#     4   9  17  32  54  83 115 149 188 226 268 326
#     4  10  22  40  59  78 104 142 185 227 278 336
#     4   9  18  34  58  85 114 149 189 230 276 330
#     4  10  21  38  60  85 111 141 184 236 284 332
#     4  11  20  32  53  80 111 144 180 223 267 321
#
# _framework density 18.654520000000002
#
# number of rings (size 3 to 8) (size 9 to 14) (size 15 to 20)
#    0.000    2.273    2.727    1.636    0.000    2.909 
#    0.000    7.273    0.000    0.000    0.000    1.273 
#    0.000    0.000    0.000    0.000    0.000    0.000 
#
# Total GULP energy -245183.462142 kJ/mol
# GULP energy per Si atom -5572.351412 kJ/mol
# Density = 1.861206 g / cm^3
# Si number density = 18.654520 Si / 1000 Ang^3
#
#
#
# Elastic Constant Matrix: (Units=GPa)
#
#
# Indices 1 2 3 4 5 6 
#
# 1 128.7704 39.5700 37.3782 0.0000 0.0000 0.0000
# 2 39.5700 74.8050 14.2264 0.0000 0.0000 0.0000
# 3 37.3782 14.2264 49.5360 0.0000 0.0000 0.0000
# 4 0.0000 0.0000 0.0000 14.8739 0.0000 0.0000
# 5 0.0000 0.0000 0.0000 0.0000 26.6123 0.0000
# 6 0.0000 0.0000 0.0000 0.0000 0.0000 11.1453
#
#
#
# Elastic Compliance Matrix: (Units=1/GPa)
#
#
# Indices 1 2 3 4 5 6 
#
# 1 0.011260 -0.004591 -0.007178 0.000000 0.000000 0.000000
# 2 -0.004591 0.016012 -0.001134 0.000000 0.000000 0.000000
# 3 -0.007178 -0.001134 0.025929 0.000000 0.000000 0.000000
# 4 0.000000 0.000000 0.000000 0.067232 0.000000 0.000000
# 5 0.000000 0.000000 0.000000 0.000000 0.037577 0.000000
# 6 0.000000 0.000000 0.000000 0.000000 0.000000 0.089724
#
#
# Mechanical properties :
#
#
# Convention : Reuss Voigt Hill
#
# Bulk Modulus (GPa) = 36.50303 48.38453 42.44378
# Shear Modulus (GPa) = 17.68829 21.32209 19.50519
#
# Velocity S-wave (km/s) = 3.08263 3.38449 3.23708
# Velocity P-wave (km/s) = 5.68160 6.42390 6.06412
#
# Compressibility (1/GPa) = 0.02739499
#
# Stress axis : x y z
#
# Youngs Moduli (GPa) = 88.80870 62.45138 38.56639
#
# Poissons Ratio (x) = 0.28673 0.27683
# Poissons Ratio (y) = 0.40774 0.04374
# Poissons Ratio (z) = 0.63746 0.07084
#
# Static dielectric constant tensor:
#      x y z
#    x 1.673350 0.000000 0.000000 
#    y 0.000000 1.650050 0.000000 
#    z 0.000000 0.000000 1.669770 
# 
# From -- ./inp_files/32233.got.cif
#   From: 2010.05.17/outbox.cif.g08.bks.cpg/sg65_17_cif.got.tgz:32233.got - 2010.06.03 17:01:31.
