data_PCOD9492112
_publ_section_title
;
Structure prediction by ZEFSAII (Michael W. Deem and Ramdas Pophale) SiO2 
 PCOD9492112
Probable space group: C M M M
;
_chemical_formula_sum "Si O2"
_cell_formula_units_Z 104
_cell_length_a 20.996437
_cell_length_b 8.975469
_cell_length_c 30.567590
_cell_angle_alpha 90.000000
_cell_angle_beta 90.000000
_cell_angle_gamma 90.000000
_cell_volume 5760.550046
_symmetry_space_group_name_H-M "C M M M"
_symmetry_group_IT_number 65
_symmetry_cell_setting 'orthorhombic'
loop_
_space_group_symop_operation_xyz
x,y,z
-x,-y,z
x,-y,-z
-x,y,-z
-x,-y,-z
x,y,-z
-x,y,z
x,-y,z
1/2+x,1/2+y,z
1/2-x,1/2-y,z
1/2+x,1/2-y,-z
1/2-x,1/2+y,-z
1/2-x,1/2-y,-z
1/2+x,1/2+y,-z
1/2-x,1/2+y,z
1/2+x,1/2-y,z
loop_
_atom_site_type_symbol
_atom_site_label
_atom_site_fract_x
_atom_site_fract_y
_atom_site_fract_z
Si Si1 0.922830 0.830012 0.289802
Si Si2 0.182382 0.679562 0.550835
Si Si3 0.366818 0.677950 0.051125
Si Si4 0.426038 0.820341 0.619103
Si Si5 0.813488 0.678161 0.866022
Si Si6 0.426750 0.820747 0.198553
Si Si7 0.500000 0.168269 0.052639
O O1 0.904903 0.746547 0.334349
O O2 0.905865 0.746833 0.245043
O O3 0.000000 0.832006 0.290035
O O4 0.899974 0.000000 0.289708
O O5 0.170961 0.720462 0.500000
O O6 0.187536 0.500000 0.553020
O O7 0.250000 0.750000 0.564209
O O8 0.123506 0.725218 0.581500
O O9 0.364639 0.500000 0.055884
O O10 0.321335 0.758028 0.085235
O O11 0.436711 0.741048 0.062907
O O12 0.354285 0.713666 0.000000
O O13 0.500000 0.775931 0.610550
O O14 0.425444 0.000000 0.621960
O O15 0.808740 0.500000 0.867036
O O16 0.750000 0.750000 0.846312
O O17 0.876101 0.721079 0.838423
O O18 0.500000 0.773792 0.189006
O O19 0.427004 0.000000 0.201919
O O20 0.500000 0.000000 0.071600
O O21 0.500000 0.154015 0.000000
#
# Coordination Sequence:
#
# PCOD9492112 Si02
#       7
#    16  16  16  16  16  16   8
#     4   9  17  30  51  80 109 135 167 212 264 316
#     4   9  18  32  49  70  99 137 179 220 263 312
#     4  10  21  37  57  82 112 145 182 224 269 317
#     4   9  17  30  50  75 103 135 171 215 264 312
#     4  11  24  40  59  82 112 146 180 222 271 324
#     4   9  19  37  60  83 106 137 177 218 263 319
#     4   9  17  31  53  81 111 141 175 217 263 309
#
# _framework density 18.053830999999999
#
# number of rings (size 3 to 8) (size 9 to 14) (size 15 to 20)
#    0.000    2.538    0.000    1.615    1.077    6.154 
#    0.000    2.308    0.000    0.000    0.000    4.308 
#    0.000    0.000    0.000    0.000    0.000    0.000 
#
# Total GULP energy -289984.992127 kJ/mol
# GULP energy per Si atom -5576.634464 kJ/mol
# Density = 1.801274 g / cm^3
# Si number density = 18.053831 Si / 1000 Ang^3
#
#
#
# Elastic Constant Matrix: (Units=GPa)
#
#
# Indices 1 2 3 4 5 6 
#
# 1 111.2116 37.8833 75.9482 0.0000 0.0000 0.0000
# 2 37.8833 38.2564 42.1680 0.0000 0.0000 0.0000
# 3 75.9482 42.1680 116.7050 0.0000 0.0000 0.0000
# 4 0.0000 0.0000 0.0000 18.4595 0.0000 0.0000
# 5 0.0000 0.0000 0.0000 0.0000 7.2293 0.0000
# 6 0.0000 0.0000 0.0000 0.0000 0.0000 26.3971
#
#
#
# Elastic Compliance Matrix: (Units=1/GPa)
#
#
# Indices 1 2 3 4 5 6 
#
# 1 0.017528 -0.007951 -0.008534 0.000000 0.000000 0.000000
# 2 -0.007951 0.047046 -0.011825 0.000000 0.000000 0.000000
# 3 -0.008534 -0.011825 0.018395 0.000000 0.000000 0.000000
# 4 0.000000 0.000000 0.000000 0.054173 0.000000 0.000000
# 5 0.000000 0.000000 0.000000 0.000000 0.138326 0.000000
# 6 0.000000 0.000000 0.000000 0.000000 0.000000 0.037883
#
#
# Mechanical properties :
#
#
# Convention : Reuss Voigt Hill
#
# Bulk Modulus (GPa) = 37.95007 64.24134 51.09570
# Shear Modulus (GPa) = 13.20119 17.76208 15.48163
#
# Velocity S-wave (km/s) = 2.70703 3.14003 2.93153
# Velocity P-wave (km/s) = 5.55309 6.98619 6.31045
#
# Compressibility (1/GPa) = 0.02635041
#
# Stress axis : x y z
#
# Youngs Moduli (GPa) = 57.05051 21.25561 54.36254
#
# Poissons Ratio (x) = 0.16899 0.46394
# Poissons Ratio (y) = 0.45358 0.64283
# Poissons Ratio (z) = 0.48688 0.25135
#
# Static dielectric constant tensor:
#      x y z
#    x 1.662460 0.000000 0.000000 
#    y 0.000000 1.607790 0.000000 
#    z 0.000000 0.000000 1.614420 
# 
# From -- ./inp_files/75476.got.cif
#   From: 2010.05.17/outbox.cif.g08.bks.cpg/sg65_38_cif.got.tgz:75476.got - 2010.06.03 17:01:31.
