data_PCOD9492224
_publ_section_title
;
Structure prediction by ZEFSAII (Michael W. Deem and Ramdas Pophale) SiO2 
 PCOD9492224
Probable space group: C M M M
;
_chemical_formula_sum "Si O2"
_cell_formula_units_Z 64
_cell_length_a 12.807467
_cell_length_b 14.687908
_cell_length_c 17.728401
_cell_angle_alpha 90.000000
_cell_angle_beta 90.000000
_cell_angle_gamma 90.000000
_cell_volume 3334.976328
_symmetry_space_group_name_H-M "C M M M"
_symmetry_group_IT_number 65
_symmetry_cell_setting 'orthorhombic'
loop_
_space_group_symop_operation_xyz
x,y,z
-x,-y,z
x,-y,-z
-x,y,-z
-x,-y,-z
x,y,-z
-x,y,z
x,-y,z
1/2+x,1/2+y,z
1/2-x,1/2-y,z
1/2+x,1/2-y,-z
1/2-x,1/2+y,-z
1/2-x,1/2-y,-z
1/2+x,1/2+y,-z
1/2-x,1/2+y,z
1/2+x,1/2-y,z
loop_
_atom_site_type_symbol
_atom_site_label
_atom_site_fract_x
_atom_site_fract_y
_atom_site_fract_z
Si Si1 0.750000 0.250000 0.186458
Si Si2 0.124761 0.896410 0.910542
Si Si3 0.000000 0.891656 0.414246
Si Si4 0.376564 0.102176 0.282766
Si Si5 0.727217 0.643726 0.585848
O O1 0.817737 0.181340 0.135752
O O2 0.676564 0.183544 0.235938
O O3 0.000000 0.888876 0.900374
O O4 0.154828 0.000000 0.888060
O O5 0.146118 0.887199 0.000000
O O6 0.888985 0.866096 0.379339
O O7 0.000000 0.852183 0.500000
O O8 0.000000 0.000000 0.419100
O O9 0.500000 0.118351 0.292408
O O10 0.315335 0.101627 0.362030
O O11 0.364090 0.000000 0.249036
O O12 0.724931 0.606970 0.500000
O O13 0.750000 0.750000 0.581324
#
# Coordination Sequence:
#
# PCOD9492224 Si02
#       5
#     8  16   8  16  16
#     4  12  21  38  61  86 116 162 196 228 281 350
#     4   9  19  37  62  92 121 148 187 238 283 330
#     4   9  18  34  56  80 105 133 176 241 303 347
#     4  11  25  41  56  82 120 158 197 243 292 344
#     4  10  21  37  59  83 108 144 195 249 299 347
#
# _framework density 19.190541
#
# number of rings (size 3 to 8) (size 9 to 14) (size 15 to 20)
#    0.000    1.875    1.250    3.375    1.750    2.000 
#    2.250    1.250    0.000    0.000    0.000   10.500 
#    0.000    0.000    0.000    0.000    0.000    0.000 
#
# Total GULP energy -178556.007943 kJ/mol
# GULP energy per Si atom -5579.875248 kJ/mol
# Density = 1.914686 g / cm^3
# Si number density = 19.190541 Si / 1000 Ang^3
#
#
#
# Elastic Constant Matrix: (Units=GPa)
#
#
# Indices 1 2 3 4 5 6 
#
# 1 159.9075 81.0243 63.0157 0.0000 0.0000 0.0000
# 2 81.0243 152.2271 58.0508 0.0000 0.0000 0.0000
# 3 63.0157 58.0508 72.4766 0.0000 0.0000 0.0000
# 4 0.0000 0.0000 0.0000 39.2090 0.0000 0.0000
# 5 0.0000 0.0000 0.0000 0.0000 21.5043 0.0000
# 6 0.0000 0.0000 0.0000 0.0000 0.0000 38.0930
#
#
#
# Elastic Compliance Matrix: (Units=1/GPa)
#
#
# Indices 1 2 3 4 5 6 
#
# 1 0.010385 -0.003001 -0.006626 0.000000 0.000000 0.000000
# 2 -0.003001 0.010325 -0.005661 0.000000 0.000000 0.000000
# 3 -0.006626 -0.005661 0.024093 0.000000 0.000000 0.000000
# 4 0.000000 0.000000 0.000000 0.025504 0.000000 0.000000
# 5 0.000000 0.000000 0.000000 0.000000 0.046502 0.000000
# 6 0.000000 0.000000 0.000000 0.000000 0.000000 0.026252
#
#
# Mechanical properties :
#
#
# Convention : Reuss Voigt Hill
#
# Bulk Modulus (GPa) = 70.28577 87.64365 78.96471
# Shear Modulus (GPa) = 28.03010 31.92927 29.97968
#
# Velocity S-wave (km/s) = 3.82595 4.08340 3.95677
# Velocity P-wave (km/s) = 7.49813 8.24631 7.88110
#
# Compressibility (1/GPa) = 0.01422763
#
# Stress axis : x y z
#
# Youngs Moduli (GPa) = 96.28980 96.85137 41.50622
#
# Poissons Ratio (x) = 0.29064 0.27502
# Poissons Ratio (y) = 0.28895 0.23496
# Poissons Ratio (z) = 0.63802 0.54826
#
# Static dielectric constant tensor:
#      x y z
#    x 1.667900 0.000000 0.000000 
#    y 0.000000 1.668910 0.000000 
#    z 0.000000 0.000000 1.684680 
# 
# From -- ./inp_files/50929.got.cif
#   From: 2010.05.17/outbox.cif.g08.bks.cpg/sg65_26_cif.got.tgz:50929.got - 2010.06.03 17:01:31.
