data_PCOD9492202
_publ_section_title
;
Structure prediction by ZEFSAII (Michael W. Deem and Ramdas Pophale) SiO2 
 PCOD9492202
Probable space group: C M M M
;
_chemical_formula_sum "Si O2"
_cell_formula_units_Z 116
_cell_length_a 14.085164
_cell_length_b 17.573636
_cell_length_c 24.549041
_cell_angle_alpha 90.000000
_cell_angle_beta 90.000000
_cell_angle_gamma 90.000000
_cell_volume 6076.563854
_symmetry_space_group_name_H-M "C M M M"
_symmetry_group_IT_number 65
_symmetry_cell_setting 'orthorhombic'
loop_
_space_group_symop_operation_xyz
x,y,z
-x,-y,z
x,-y,-z
-x,y,-z
-x,-y,-z
x,y,-z
-x,y,z
x,-y,z
1/2+x,1/2+y,z
1/2-x,1/2-y,z
1/2+x,1/2-y,-z
1/2-x,1/2+y,-z
1/2-x,1/2-y,-z
1/2+x,1/2+y,-z
1/2-x,1/2+y,z
1/2+x,1/2-y,z
loop_
_atom_site_type_symbol
_atom_site_label
_atom_site_fract_x
_atom_site_fract_y
_atom_site_fract_z
Si Si1 0.843080 0.705362 0.594872
Si Si2 0.106196 0.642028 0.935692
Si Si3 0.610832 0.844183 0.773371
Si Si4 0.253211 0.414212 0.138944
Si Si5 0.614181 0.318455 0.936557
Si Si6 0.500000 0.805733 0.500000
Si Si7 0.280657 0.911980 0.678713
Si Si8 0.607572 0.697368 0.297230
O O1 0.750000 0.750000 0.575239
O O2 0.918076 0.695913 0.547876
O O3 0.810491 0.626095 0.621841
O O4 0.881578 0.754501 0.646655
O O5 0.178233 0.584132 0.910189
O O6 0.136237 0.729684 0.925021
O O7 0.000000 0.631521 0.914445
O O8 0.103495 0.634508 0.000000
O O9 0.500000 0.853325 0.789637
O O10 0.691056 0.868048 0.816665
O O11 0.634474 0.896589 0.721188
O O12 0.622662 0.757859 0.751478
O O13 0.276579 0.500000 0.157601
O O14 0.340095 0.369841 0.110575
O O15 0.500000 0.325451 0.936020
O O16 0.644744 0.334986 0.000000
O O17 0.189357 0.865428 0.700835
O O18 0.259521 0.000000 0.673933
O O19 0.500000 0.667615 0.293642
#
# Coordination Sequence:
#
# PCOD9492202 Si02
#       8
#    16  16  16  16  16   4  16  16
#     4   9  19  34  55  86 120 157 204 253 297 340
#     4   9  19  36  56  77 105 143 185 226 271 328
#     4  10  22  40  59  78 108 150 194 237 280 338
#     4  12  24  35  53  85 117 143 179 230 289 349
#     4   9  20  40  62  81 107 150 198 238 281 339
#     4  12  18  32  61  90 117 158 218 266 292 324
#     4  10  21  37  58  86 120 155 189 235 298 360
#     4   9  18  38  63  86 111 147 200 244 282 342
#
# _framework density 19.089735999999998
#
# number of rings (size 3 to 8) (size 9 to 14) (size 15 to 20)
#    0.000    2.207    0.690    3.931    0.966    6.897 
#    0.000    4.138    0.000    1.655    0.000    1.931 
#    0.000    0.000    0.000    0.000    0.000    0.000 
#
# Total GULP energy -323044.874495 kJ/mol
# GULP energy per Si atom -5569.739215 kJ/mol
# Density = 1.904629 g / cm^3
# Si number density = 19.089736 Si / 1000 Ang^3
#
#
#
# Elastic Constant Matrix: (Units=GPa)
#
#
# Indices 1 2 3 4 5 6 
#
# 1 101.8415 40.5372 46.0418 0.0000 0.0000 0.0000
# 2 40.5372 90.6188 50.5999 0.0000 0.0000 0.0000
# 3 46.0418 50.5999 87.6072 0.0000 0.0000 0.0000
# 4 0.0000 0.0000 0.0000 -0.1932 0.0000 0.0000
# 5 0.0000 0.0000 0.0000 0.0000 54.6680 0.0000
# 6 0.0000 0.0000 0.0000 0.0000 0.0000 -7.3940
#
#
#
# Elastic Compliance Matrix: (Units=1/GPa)
#
#
# Indices 1 2 3 4 5 6 
#
# 1 0.013427 -0.003050 -0.005295 0.000000 0.000000 0.000000
# 2 -0.003050 0.016981 -0.008205 0.000000 0.000000 0.000000
# 3 -0.005295 -0.008205 0.018936 0.000000 0.000000 0.000000
# 4 0.000000 0.000000 0.000000 -5.177165 0.000000 0.000000
# 5 0.000000 0.000000 0.000000 0.000000 0.018292 0.000000
# 6 0.000000 0.000000 0.000000 0.000000 0.000000 -0.135244
#
#
# Mechanical properties :
#
#
# Convention : Reuss Voigt Hill
#
# Bulk Modulus (GPa) = 61.55837 61.60278 61.58058
# Shear Modulus (GPa) = -0.96038 18.94207 8.99084
#
# Velocity S-wave (km/s) = -0.71006 3.15344 2.17256
# Velocity P-wave (km/s) = 5.62535 6.75271 6.21465
#
# Compressibility (1/GPa) = 0.01624474
#
# Stress axis : x y z
#
# Youngs Moduli (GPa) = 74.47706 58.88911 52.80814
#
# Poissons Ratio (x) = 0.17959 0.27962
# Poissons Ratio (y) = 0.22713 0.43330
# Poissons Ratio (z) = 0.39436 0.48319
#
# Static dielectric constant tensor:
#      x y z
#    x 1.679820 0.000000 0.000000 
#    y 0.000000 1.672480 0.000000 
#    z 0.000000 0.000000 1.687270 
# 
# From -- ./inp_files/70194.got.cif
#   From: 2010.05.17/outbox.cif.g08.bks.cpg/sg65_36_cif.got.tgz:70194.got - 2010.06.03 17:01:31.
