data_PCOD9492139
_publ_section_title
;
Structure prediction by ZEFSAII (Michael W. Deem and Ramdas Pophale) SiO2 
 PCOD9492139
Probable space group: C M M M
;
_chemical_formula_sum "Si O2"
_cell_formula_units_Z 88
_cell_length_a 8.203256
_cell_length_b 18.553638
_cell_length_c 29.257049
_cell_angle_alpha 90.000000
_cell_angle_beta 90.000000
_cell_angle_gamma 90.000000
_cell_volume 4452.929945
_symmetry_space_group_name_H-M "C M M M"
_symmetry_group_IT_number 65
_symmetry_cell_setting 'orthorhombic'
loop_
_space_group_symop_operation_xyz
x,y,z
-x,-y,z
x,-y,-z
-x,y,-z
-x,-y,-z
x,y,-z
-x,y,z
x,-y,z
1/2+x,1/2+y,z
1/2-x,1/2-y,z
1/2+x,1/2-y,-z
1/2-x,1/2+y,-z
1/2-x,1/2-y,-z
1/2+x,1/2+y,-z
1/2-x,1/2+y,z
1/2+x,1/2-y,z
loop_
_atom_site_type_symbol
_atom_site_label
_atom_site_fract_x
_atom_site_fract_y
_atom_site_fract_z
Si Si1 0.195169 0.332651 0.680542
Si Si2 0.196852 0.417431 0.770418
Si Si3 0.195131 0.832099 0.859957
Si Si4 0.198716 0.916424 0.051128
Si Si5 0.802828 0.832838 0.500000
Si Si6 0.696875 0.417249 0.409564
O O1 0.250000 0.250000 0.679253
O O2 0.255580 0.372381 0.726489
O O3 0.252974 0.375511 0.635991
O O4 0.000000 0.334006 0.681155
O O5 0.255185 0.500000 0.768828
O O6 0.247104 0.378849 0.817046
O O7 0.000000 0.418679 0.768649
O O8 0.250000 0.750000 0.855200
O O9 0.256561 0.866856 0.907485
O O10 0.000000 0.834069 0.860779
O O11 0.000000 0.914867 0.051165
O O12 0.245596 0.000000 0.058502
O O13 0.251774 0.894689 0.000000
O O14 0.750000 0.750000 0.500000
O O15 0.745918 0.874340 0.545495
O O16 0.000000 0.834579 0.500000
O O17 0.500000 0.418923 0.411318
O O18 0.755083 0.500000 0.409267
#
# Coordination Sequence:
#
# PCOD9492139 Si02
#       6
#    16  16  16  16   8  16
#     4  11  23  39  59  84 114 147 184 226 274 328
#     4  10  22  40  60  82 110 143 179 225 279 329
#     4  11  22  35  54  81 111 145 185 226 270 323
#     4   8  15  30  52  77 105 138 178 224 272 322
#     4  10  21  37  57  83 115 150 187 228 276 328
#     4  10  21  38  60  85 114 149 188 230 276 326
#
# _framework density 19.762270000000001
#
# number of rings (size 3 to 8) (size 9 to 14) (size 15 to 20)
#    0.000    2.000    0.000    4.091    0.000    8.727 
#    0.000    0.000    0.000    3.273    0.000    6.364 
#    0.000    0.000    0.000    0.000    0.000    0.000 
#
# Total GULP energy -245849.715338 kJ/mol
# GULP energy per Si atom -5587.493530 kJ/mol
# Density = 1.971729 g / cm^3
# Si number density = 19.762270 Si / 1000 Ang^3
#
#
#
# Elastic Constant Matrix: (Units=GPa)
#
#
# Indices 1 2 3 4 5 6 
#
# 1 14.5139 18.1355 18.1191 0.0000 0.0000 0.0000
# 2 18.1355 210.4449 134.0284 0.0000 0.0000 0.0000
# 3 18.1191 134.0284 209.9696 0.0000 0.0000 0.0000
# 4 0.0000 0.0000 0.0000 49.6154 0.0000 0.0000
# 5 0.0000 0.0000 0.0000 0.0000 -137.3663 0.0000
# 6 0.0000 0.0000 0.0000 0.0000 0.0000 10.7264
#
#
#
# Elastic Compliance Matrix: (Units=1/GPa)
#
#
# Indices 1 2 3 4 5 6 
#
# 1 0.079335 -0.004173 -0.004182 0.000000 0.000000 0.000000
# 2 -0.004173 0.008226 -0.004891 0.000000 0.000000 0.000000
# 3 -0.004182 -0.004891 0.008246 0.000000 0.000000 0.000000
# 4 0.000000 0.000000 0.000000 0.020155 0.000000 0.000000
# 5 0.000000 0.000000 0.000000 0.000000 -0.007280 0.000000
# 6 0.000000 0.000000 0.000000 0.000000 0.000000 0.093228
#
#
# Mechanical properties :
#
#
# Convention : Reuss Voigt Hill
#
# Bulk Modulus (GPa) = 14.42711 86.16603 50.29657
# Shear Modulus (GPa) = 19.88008 2.23813 11.05910
#
# Velocity S-wave (km/s) = 3.17513 1.06536 2.36817
# Velocity P-wave (km/s) = 4.55611 6.72378 5.74314
#
# Compressibility (1/GPa) = 0.06931397
#
# Stress axis : x y z
#
# Youngs Moduli (GPa) = 12.60478 121.55873 121.27762
#
# Poissons Ratio (x) = 0.50730 0.50721
# Poissons Ratio (y) = 0.05260 0.59317
# Poissons Ratio (z) = 0.05272 0.59455
#
# Static dielectric constant tensor:
#      x y z
#    x 1.704670 0.000000 0.000000 
#    y 0.000000 1.700990 0.000000 
#    z 0.000000 0.000000 1.676300 
# 
# From -- ./inp_files/67576.got.cif
#   From: 2010.05.17/outbox.cif.g08.bks.cpg/sg65_34_cif.got.tgz:67576.got - 2010.06.03 17:01:31.
