data_PCOD9492594
_publ_section_title
;
Structure prediction by ZEFSAII (Michael W. Deem and Ramdas Pophale) SiO2 
 PCOD9492594
Probable space group: C M M M
;
_chemical_formula_sum "Si O2"
_cell_formula_units_Z 88
_cell_length_a 27.553247
_cell_length_b 19.645993
_cell_length_c 8.771410
_cell_angle_alpha 90.000000
_cell_angle_beta 90.000000
_cell_angle_gamma 90.000000
_cell_volume 4748.059821
_symmetry_space_group_name_H-M "C M M M"
_symmetry_group_IT_number 65
_symmetry_cell_setting 'orthorhombic'
loop_
_space_group_symop_operation_xyz
x,y,z
-x,-y,z
x,-y,-z
-x,y,-z
-x,-y,-z
x,y,-z
-x,y,z
x,-y,z
1/2+x,1/2+y,z
1/2-x,1/2-y,z
1/2+x,1/2-y,-z
1/2-x,1/2+y,-z
1/2-x,1/2-y,-z
1/2+x,1/2+y,-z
1/2-x,1/2+y,z
1/2+x,1/2-y,z
loop_
_atom_site_type_symbol
_atom_site_label
_atom_site_fract_x
_atom_site_fract_y
_atom_site_fract_z
Si Si1 0.193749 0.421561 0.816167
Si Si2 0.500000 0.080032 0.316894
Si Si3 0.441859 0.423438 0.179701
Si Si4 0.405570 0.154634 0.183122
Si Si5 0.616121 0.301238 0.318664
Si Si6 0.772916 0.177318 0.683358
O O1 0.192993 0.500000 0.765998
O O2 0.144192 0.383424 0.768872
O O3 0.240254 0.381590 0.754323
O O4 0.195091 0.420353 0.000000
O O5 0.500000 0.084575 0.500000
O O6 0.452163 0.117006 0.252588
O O7 0.500000 0.000000 0.273915
O O8 0.500000 0.420097 0.194310
O O9 0.426455 0.500000 0.224403
O O10 0.417417 0.364478 0.275490
O O11 0.430458 0.414436 0.000000
O O12 0.401528 0.232394 0.238010
O O13 0.408883 0.152363 0.000000
O O14 0.616370 0.289393 0.500000
O O15 0.670935 0.320279 0.270198
O O16 0.770772 0.171168 0.500000
O O17 0.750000 0.250000 0.726382
#
# Coordination Sequence:
#
# PCOD9492594 Si02
#       6
#    16   8  16  16  16  16
#     4  10  22  39  61  90 120 153 198 247 295 351
#     4  11  25  43  63  89 122 159 200 247 299 355
#     4   9  20  40  63  86 116 155 197 241 296 360
#     4  11  23  40  63  89 121 160 201 246 298 354
#     4  11  23  38  60  89 122 157 200 249 297 355
#     4  10  21  39  59  82 117 158 198 239 291 350
#
# _framework density 18.533885999999999
#
# number of rings (size 3 to 8) (size 9 to 14) (size 15 to 20)
#    0.000    1.727    1.818    2.455    1.273    5.818 
#    0.000    4.545    0.000    0.000    0.000    0.000 
#    0.000    0.000    0.000    0.000    0.000    0.000 
#
# Total GULP energy -245829.904083 kJ/mol
# GULP energy per Si atom -5587.043275 kJ/mol
# Density = 1.849170 g / cm^3
# Si number density = 18.533886 Si / 1000 Ang^3
#
#
#
# Elastic Constant Matrix: (Units=GPa)
#
#
# Indices 1 2 3 4 5 6 
#
# 1 103.9740 69.0545 38.5330 0.0000 0.0000 0.0000
# 2 69.0545 151.4217 41.2981 0.0000 0.0000 0.0000
# 3 38.5330 41.2981 37.6704 0.0000 0.0000 0.0000
# 4 0.0000 0.0000 0.0000 30.4421 0.0000 0.0000
# 5 0.0000 0.0000 0.0000 0.0000 31.4963 0.0000
# 6 0.0000 0.0000 0.0000 0.0000 0.0000 35.7876
#
#
#
# Elastic Compliance Matrix: (Units=1/GPa)
#
#
# Indices 1 2 3 4 5 6 
#
# 1 0.017305 -0.004371 -0.012909 0.000000 0.000000 0.000000
# 2 -0.004371 0.010525 -0.007067 0.000000 0.000000 0.000000
# 3 -0.012909 -0.007067 0.047499 0.000000 0.000000 0.000000
# 4 0.000000 0.000000 0.000000 0.032849 0.000000 0.000000
# 5 0.000000 0.000000 0.000000 0.000000 0.031750 0.000000
# 6 0.000000 0.000000 0.000000 0.000000 0.000000 0.027943
#
#
# Mechanical properties :
#
#
# Convention : Reuss Voigt Hill
#
# Bulk Modulus (GPa) = 37.54681 65.64860 51.59770
# Shear Modulus (GPa) = 22.17846 29.15724 25.66785
#
# Velocity S-wave (km/s) = 3.46301 3.97064 3.72548
# Velocity P-wave (km/s) = 6.02431 7.51792 6.81217
#
# Compressibility (1/GPa) = 0.02663342
#
# Stress axis : x y z
#
# Youngs Moduli (GPa) = 57.78683 95.01224 21.05306
#
# Poissons Ratio (x) = 0.41529 0.27178
# Poissons Ratio (y) = 0.25258 0.14879
# Poissons Ratio (z) = 0.74599 0.67150
#
# Static dielectric constant tensor:
#      x y z
#    x 1.625860 0.000000 0.000000 
#    y 0.000000 1.609360 0.000000 
#    z 0.000000 0.000000 1.630310 
# 
# From -- ./inp_files/13947.got.cif
#   From: 2010.05.17/outbox.cif.g08.bks.cpg/sg65_7_cif.got.tgz:13947.got - 2010.06.03 17:01:31.
