data_PCOD9492790
_publ_section_title
;
Structure prediction by ZEFSAII (Michael W. Deem and Ramdas Pophale) SiO2 
 PCOD9492790
Probable space group: C M M M
;
_chemical_formula_sum "Si O2"
_cell_formula_units_Z 96
_cell_length_a 28.525457
_cell_length_b 11.036317
_cell_length_c 18.152051
_cell_angle_alpha 90.000000
_cell_angle_beta 90.000000
_cell_angle_gamma 90.000000
_cell_volume 5714.555834
_symmetry_space_group_name_H-M "C M M M"
_symmetry_group_IT_number 65
_symmetry_cell_setting 'orthorhombic'
loop_
_space_group_symop_operation_xyz
x,y,z
-x,-y,z
x,-y,-z
-x,y,-z
-x,-y,-z
x,y,-z
-x,y,z
x,-y,z
1/2+x,1/2+y,z
1/2-x,1/2-y,z
1/2+x,1/2-y,-z
1/2-x,1/2+y,-z
1/2-x,1/2-y,-z
1/2+x,1/2+y,-z
1/2-x,1/2+y,z
1/2+x,1/2-y,z
loop_
_atom_site_type_symbol
_atom_site_label
_atom_site_fract_x
_atom_site_fract_y
_atom_site_fract_z
Si Si1 0.946877 0.000000 0.826007
Si Si2 0.445630 0.298229 0.300528
Si Si3 0.785728 0.360826 0.413673
Si Si4 0.641905 0.140349 0.282961
Si Si5 0.786989 0.637311 0.000000
Si Si6 0.194196 0.248556 0.854927
Si Si7 0.056967 0.000000 0.583526
Si Si8 0.149810 0.000000 0.911829
O O1 0.943045 0.115492 0.771424
O O2 0.903614 0.000000 0.881808
O O3 0.000000 0.000000 0.857542
O O4 0.500000 0.264449 0.310747
O O5 0.410380 0.188675 0.292524
O O6 0.429948 0.382301 0.369168
O O7 0.798924 0.353503 0.500000
O O8 0.767111 0.500000 0.401808
O O9 0.750000 0.250000 0.399384
O O10 0.828969 0.345600 0.358413
O O11 0.667221 0.213512 0.218059
O O12 0.642654 0.000000 0.262784
O O13 0.750000 0.750000 0.000000
O O14 0.814184 0.660503 0.923898
O O15 0.767651 0.500000 0.000000
O O16 0.250000 0.250000 0.840163
O O17 0.176627 0.117842 0.881585
O O18 0.074267 0.000000 0.500000
O O19 0.000000 0.000000 0.582325
O O20 0.150110 0.000000 0.000000
#
# Coordination Sequence:
#
# PCOD9492790 Si02
#       8
#     8  16  16  16   8  16   8   8
#     4   9  18  38  60  80 111 143 181 238 291 330
#     4   9  18  34  55  79 109 143 178 229 287 336
#     4   9  19  38  58  78 110 148 186 231 280 331
#     4  11  22  36  54  80 108 148 193 229 276 337
#     4  10  22  36  56  78 110 149 187 229 289 340
#     4  11  24  36  56  80 117 147 188 233 282 338
#     4   8  15  30  54  81 108 137 171 220 286 346
#     4  12  23  38  61  92 111 152 193 233 291 355
#
# _framework density 16.799206000000002
#
# number of rings (size 3 to 8) (size 9 to 14) (size 15 to 20)
#    0.000    2.083    2.500    2.000    5.833    1.167 
#    4.500    0.000    0.000    0.000    0.000    4.667 
#    0.000    5.333    0.000    0.000    0.000    0.000 
#
# Total GULP energy -267590.878283 kJ/mol
# GULP energy per Si atom -5574.809964 kJ/mol
# Density = 1.676097 g / cm^3
# Si number density = 16.799206 Si / 1000 Ang^3
#
#
#
# Elastic Constant Matrix: (Units=GPa)
#
#
# Indices 1 2 3 4 5 6 
#
# 1 98.6106 55.2958 50.4755 0.0000 0.0000 0.0000
# 2 55.2958 112.0086 48.7401 0.0000 0.0000 0.0000
# 3 50.4755 48.7401 83.7173 0.0000 0.0000 0.0000
# 4 0.0000 0.0000 0.0000 19.3235 0.0000 0.0000
# 5 0.0000 0.0000 0.0000 0.0000 18.3565 0.0000
# 6 0.0000 0.0000 0.0000 0.0000 0.0000 30.2545
#
#
#
# Elastic Compliance Matrix: (Units=1/GPa)
#
#
# Indices 1 2 3 4 5 6 
#
# 1 0.016625 -0.005150 -0.007025 0.000000 0.000000 0.000000
# 2 -0.005150 0.013553 -0.004785 0.000000 0.000000 0.000000
# 3 -0.007025 -0.004785 0.018966 0.000000 0.000000 0.000000
# 4 0.000000 0.000000 0.000000 0.051750 0.000000 0.000000
# 5 0.000000 0.000000 0.000000 0.000000 0.054477 0.000000
# 6 0.000000 0.000000 0.000000 0.000000 0.000000 0.033053
#
#
# Mechanical properties :
#
#
# Convention : Reuss Voigt Hill
#
# Bulk Modulus (GPa) = 65.69001 67.03992 66.36496
# Shear Modulus (GPa) = 21.98583 22.90857 22.44720
#
# Velocity S-wave (km/s) = 3.62158 3.69680 3.65938
# Velocity P-wave (km/s) = 7.52833 7.62987 7.57927
#
# Compressibility (1/GPa) = 0.01522302
#
# Stress axis : x y z
#
# Youngs Moduli (GPa) = 60.15094 73.78611 52.72467
#
# Poissons Ratio (x) = 0.38002 0.37039
# Poissons Ratio (y) = 0.30980 0.25229
# Poissons Ratio (z) = 0.42256 0.35307
#
# Static dielectric constant tensor:
#      x y z
#    x 1.551660 0.000000 0.000000 
#    y 0.000000 1.573070 0.000000 
#    z 0.000000 0.000000 1.575520 
# 
# From -- ./inp_files/57526.got.cif
#   From: 2010.05.17/outbox.cif.g08.bks.cpg/sg65_29_cif.got.tgz:57526.got - 2010.06.03 17:01:31.
