data_PCOD9492651
_publ_section_title
;
Structure prediction by ZEFSAII (Michael W. Deem and Ramdas Pophale) SiO2 
 PCOD9492651
Probable space group: C M M M
;
_chemical_formula_sum "Si O2"
_cell_formula_units_Z 56
_cell_length_a 27.511281
_cell_length_b 10.117178
_cell_length_c 11.571776
_cell_angle_alpha 90.000000
_cell_angle_beta 90.000000
_cell_angle_gamma 90.000000
_cell_volume 3220.847942
_symmetry_space_group_name_H-M "C M M M"
_symmetry_group_IT_number 65
_symmetry_cell_setting 'orthorhombic'
loop_
_space_group_symop_operation_xyz
x,y,z
-x,-y,z
x,-y,-z
-x,y,-z
-x,-y,-z
x,y,-z
-x,y,z
x,-y,z
1/2+x,1/2+y,z
1/2-x,1/2-y,z
1/2+x,1/2-y,-z
1/2-x,1/2+y,-z
1/2-x,1/2-y,-z
1/2+x,1/2+y,-z
1/2-x,1/2+y,z
1/2+x,1/2-y,z
loop_
_atom_site_type_symbol
_atom_site_label
_atom_site_fract_x
_atom_site_fract_y
_atom_site_fract_z
Si Si1 0.558665 0.500000 0.860598
Si Si2 0.297037 0.842487 0.637591
Si Si3 0.444812 0.000000 0.862804
Si Si4 0.602256 0.244028 0.262211
Si Si5 0.942033 0.346197 0.500000
O O1 0.500000 0.500000 0.838672
O O2 0.584787 0.624658 0.801473
O O3 0.564675 0.500000 0.000000
O O4 0.308978 0.835260 0.500000
O O5 0.250000 0.750000 0.655631
O O6 0.341162 0.781065 0.710885
O O7 0.290070 0.000000 0.663330
O O8 0.417263 0.126299 0.816606
O O9 0.500000 0.000000 0.816311
O O10 0.446792 0.000000 0.000000
O O11 0.576538 0.226465 0.386162
O O12 0.924359 0.500000 0.500000
O O13 0.000000 0.349437 0.500000
#
# Coordination Sequence:
#
# PCOD9492651 Si02
#       5
#     8  16   8  16   8
#     4  11  26  45  62  87 128 175 219 258 300 362
#     4  10  21  39  63  93 126 161 203 252 313 382
#     4  11  22  37  62  91 118 163 219 254 294 370
#     4  12  22  39  63  90 127 165 203 260 315 369
#     4  11  20  33  58  93 129 158 190 251 323 382
#
# _framework density 17.386725999999999
#
# number of rings (size 3 to 8) (size 9 to 14) (size 15 to 20)
#    0.000    1.000    4.286    3.429    2.000    2.857 
#    0.000    1.429    0.000    5.143    0.000    0.000 
#    0.000    0.000    0.000    0.000    0.000    0.000 
#
# Total GULP energy -156355.127385 kJ/mol
# GULP energy per Si atom -5584.111692 kJ/mol
# Density = 1.734715 g / cm^3
# Si number density = 17.386726 Si / 1000 Ang^3
#
#
#
# Elastic Constant Matrix: (Units=GPa)
#
#
# Indices 1 2 3 4 5 6 
#
# 1 161.0382 91.4024 60.7413 0.0000 0.0000 0.0000
# 2 91.4024 192.6684 74.7765 0.0000 0.0000 0.0000
# 3 60.7413 74.7765 104.9244 0.0000 0.0000 0.0000
# 4 0.0000 0.0000 0.0000 36.3890 0.0000 0.0000
# 5 0.0000 0.0000 0.0000 0.0000 28.9767 0.0000
# 6 0.0000 0.0000 0.0000 0.0000 0.0000 30.2735
#
#
#
# Elastic Compliance Matrix: (Units=1/GPa)
#
#
# Indices 1 2 3 4 5 6 
#
# 1 0.009152 -0.003159 -0.003047 0.000000 0.000000 0.000000
# 2 -0.003159 0.008265 -0.004062 0.000000 0.000000 0.000000
# 3 -0.003047 -0.004062 0.014189 0.000000 0.000000 0.000000
# 4 0.000000 0.000000 0.000000 0.027481 0.000000 0.000000
# 5 0.000000 0.000000 0.000000 0.000000 0.034510 0.000000
# 6 0.000000 0.000000 0.000000 0.000000 0.000000 0.033032
#
#
# Mechanical properties :
#
#
# Convention : Reuss Voigt Hill
#
# Bulk Modulus (GPa) = 90.32301 101.38571 95.85436
# Shear Modulus (GPa) = 33.14439 34.57524 33.85981
#
# Velocity S-wave (km/s) = 4.37086 4.46421 4.41778
# Velocity P-wave (km/s) = 8.80538 9.22014 9.01515
#
# Compressibility (1/GPa) = 0.01107138
#
# Stress axis : x y z
#
# Youngs Moduli (GPa) = 109.26561 120.98651 70.47764
#
# Poissons Ratio (x) = 0.38224 0.21472
# Poissons Ratio (y) = 0.34521 0.28625
# Poissons Ratio (z) = 0.33289 0.49139
#
# Static dielectric constant tensor:
#      x y z
#    x 1.603200 0.000000 0.000000 
#    y 0.000000 1.574410 0.000000 
#    z 0.000000 0.000000 1.449820 
# 
# From -- ./inp_files/20498.got.cif
#   From: 2010.05.17/outbox.cif.g08.bks.cpg/sg65_11_cif.got.tgz:20498.got - 2010.06.03 17:01:31.
