data_PCOD9492088
_publ_section_title
;
Structure prediction by ZEFSAII (Michael W. Deem and Ramdas Pophale) SiO2 
 PCOD9492088
Probable space group: C M M M
;
_chemical_formula_sum "Si O2"
_cell_formula_units_Z 104
_cell_length_a 26.118508
_cell_length_b 8.662483
_cell_length_c 26.774119
_cell_angle_alpha 90.000000
_cell_angle_beta 90.000000
_cell_angle_gamma 90.000000
_cell_volume 6057.674720
_symmetry_space_group_name_H-M "C M M M"
_symmetry_group_IT_number 65
_symmetry_cell_setting 'orthorhombic'
loop_
_space_group_symop_operation_xyz
x,y,z
-x,-y,z
x,-y,-z
-x,y,-z
-x,-y,-z
x,y,-z
-x,y,z
x,-y,z
1/2+x,1/2+y,z
1/2-x,1/2-y,z
1/2+x,1/2-y,-z
1/2-x,1/2+y,-z
1/2-x,1/2-y,-z
1/2+x,1/2+y,-z
1/2-x,1/2+y,z
1/2+x,1/2-y,z
loop_
_atom_site_type_symbol
_atom_site_label
_atom_site_fract_x
_atom_site_fract_y
_atom_site_fract_z
Si Si1 0.193591 0.185183 0.663864
Si Si2 0.439844 0.314720 0.500000
Si Si3 0.601610 0.184871 0.843723
Si Si4 0.806208 0.815295 0.220636
Si Si5 0.000000 0.312260 0.669776
Si Si6 0.598017 0.185625 0.395504
Si Si7 0.940317 0.186054 0.056866
Si Si8 0.000000 0.311877 0.215700
O O1 0.250000 0.250000 0.652348
O O2 0.181818 0.229069 0.721674
O O3 0.150416 0.252781 0.627965
O O4 0.194278 0.000000 0.660626
O O5 0.437342 0.500000 0.500000
O O6 0.500000 0.268823 0.500000
O O7 0.413447 0.249572 0.549599
O O8 0.651215 0.250734 0.816392
O O9 0.594019 0.241003 0.900259
O O10 0.551030 0.237586 0.813222
O O11 0.603320 0.000000 0.842406
O O12 0.750000 0.750000 0.209109
O O13 0.805042 0.000000 0.218055
O O14 0.949264 0.264178 0.640033
O O15 0.000000 0.258965 0.726977
O O16 0.000000 0.500000 0.670571
O O17 0.598870 0.000000 0.396843
O O18 0.000000 0.230850 0.065018
O O19 0.937901 0.000000 0.060055
O O20 0.926721 0.230092 0.000000
O O21 0.000000 0.500000 0.215960
#
# Coordination Sequence:
#
# PCOD9492088 Si02
#       8
#    16   8  16  16   8  16  16   8
#     4  10  21  38  59  84 113 146 185 227 275 327
#     4  11  23  39  58  81 114 149 185 230 274 324
#     4  11  20  32  52  79 113 146 182 229 276 326
#     4  10  21  37  57  81 110 147 188 228 271 327
#     4   9  18  31  50  76 109 144 179 216 263 324
#     4  11  21  36  59  84 111 146 186 228 273 326
#     4   9  18  33  52  74 105 146 188 229 276 329
#     4   9  18  30  45  75 113 145 173 212 269 324
#
# _framework density 17.168303000000002
#
# number of rings (size 3 to 8) (size 9 to 14) (size 15 to 20)
#    0.000    1.923    1.538    3.462    0.000    3.692 
#    0.000    1.154    0.000    4.154    0.000    0.000 
#    0.000    0.000    0.000    0.000    0.000    0.000 
#
# Total GULP energy -290396.870321 kJ/mol
# GULP energy per Si atom -5584.555198 kJ/mol
# Density = 1.712923 g / cm^3
# Si number density = 17.168303 Si / 1000 Ang^3
#
#
#
# Elastic Constant Matrix: (Units=GPa)
#
#
# Indices 1 2 3 4 5 6 
#
# 1 143.3779 48.3967 107.3032 0.0000 0.0000 0.0000
# 2 48.3967 50.1040 48.1615 0.0000 0.0000 0.0000
# 3 107.3032 48.1615 163.1817 0.0000 0.0000 0.0000
# 4 0.0000 0.0000 0.0000 25.3499 0.0000 0.0000
# 5 0.0000 0.0000 0.0000 0.0000 18.8427 0.0000
# 6 0.0000 0.0000 0.0000 0.0000 0.0000 23.2374
#
#
#
# Elastic Compliance Matrix: (Units=1/GPa)
#
#
# Indices 1 2 3 4 5 6 
#
# 1 0.015379 -0.007168 -0.007997 0.000000 0.000000 0.000000
# 2 -0.007168 0.031204 -0.004496 0.000000 0.000000 0.000000
# 3 -0.007997 -0.004496 0.012714 0.000000 0.000000 0.000000
# 4 0.000000 0.000000 0.000000 0.039448 0.000000 0.000000
# 5 0.000000 0.000000 0.000000 0.000000 0.053071 0.000000
# 6 0.000000 0.000000 0.000000 0.000000 0.000000 0.043034
#
#
# Mechanical properties :
#
#
# Convention : Reuss Voigt Hill
#
# Bulk Modulus (GPa) = 50.06430 84.93181 67.49806
# Shear Modulus (GPa) = 20.76143 23.67281 22.21712
#
# Velocity S-wave (km/s) = 3.48125 3.71734 3.60123
# Velocity P-wave (km/s) = 6.73669 8.24635 7.52945
#
# Compressibility (1/GPa) = 0.01997431
#
# Stress axis : x y z
#
# Youngs Moduli (GPa) = 65.02254 32.04721 78.65364
#
# Poissons Ratio (x) = 0.22971 0.62902
# Poissons Ratio (y) = 0.46607 0.35364
# Poissons Ratio (z) = 0.52001 0.14409
#
# Static dielectric constant tensor:
#      x y z
#    x 1.550610 0.000000 0.000000 
#    y 0.000000 1.573660 0.000000 
#    z 0.000000 0.000000 1.567640 
# 
# From -- ./inp_files/71936.got.cif
#   From: 2010.05.17/outbox.cif.g08.bks.cpg/sg65_36_cif.got.tgz:71936.got - 2010.06.03 17:01:31.
