data_PCOD9492978
_publ_section_title
;
Structure prediction by ZEFSAII (Michael W. Deem and Ramdas Pophale) SiO2 
 PCOD9492978
Probable space group: C M M M
;
_chemical_formula_sum "Si O2"
_cell_formula_units_Z 72
_cell_length_a 22.585694
_cell_length_b 10.416164
_cell_length_c 20.106934
_cell_angle_alpha 90.000000
_cell_angle_beta 90.000000
_cell_angle_gamma 90.000000
_cell_volume 4730.282752
_symmetry_space_group_name_H-M "C M M M"
_symmetry_group_IT_number 65
_symmetry_cell_setting 'orthorhombic'
loop_
_space_group_symop_operation_xyz
x,y,z
-x,-y,z
x,-y,-z
-x,y,-z
-x,-y,-z
x,y,-z
-x,y,z
x,-y,z
1/2+x,1/2+y,z
1/2-x,1/2-y,z
1/2+x,1/2-y,-z
1/2-x,1/2+y,-z
1/2-x,1/2-y,-z
1/2+x,1/2+y,-z
1/2-x,1/2+y,z
1/2+x,1/2-y,z
loop_
_atom_site_type_symbol
_atom_site_label
_atom_site_fract_x
_atom_site_fract_y
_atom_site_fract_z
Si Si1 0.100397 0.500000 0.928607
Si Si2 0.294877 0.500000 0.422544
Si Si3 0.000000 0.715318 0.782035
Si Si4 0.879182 0.247413 0.578379
Si Si5 0.172306 0.500000 0.352165
Si Si6 0.500000 0.651899 0.356618
Si Si7 0.000000 0.718111 0.928458
Si Si8 0.897699 0.500000 0.217897
O O1 0.056510 0.622650 0.928713
O O2 0.130127 0.500000 0.856361
O O3 0.133006 0.500000 0.000000
O O4 0.272725 0.500000 0.500000
O O5 0.334889 0.373418 0.413939
O O6 0.241530 0.500000 0.370378
O O7 0.000000 0.811713 0.720971
O O8 0.000000 0.779648 0.855379
O O9 0.057522 0.621851 0.776619
O O10 0.885511 0.271736 0.500000
O O11 0.854173 0.372854 0.613953
O O12 0.941881 0.210324 0.609601
O O13 0.150573 0.500000 0.275891
O O14 0.500000 0.500000 0.366465
O O15 0.000000 0.788656 0.000000
#
# Coordination Sequence:
#
# PCOD9492978 Si02
#       8
#     8   8   8  16   8   8   8   8
#     4   7  10  18  34  61  94 125 151 177 222 286
#     4  10  22  40  55  68  93 131 168 206 249 292
#     4   9  16  29  42  67 100 126 154 191 244 290
#     4  11  23  37  54  73  94 127 166 207 251 295
#     4  12  21  34  53  77 102 122 159 208 253 293
#     4  12  22  35  52  69  96 131 165 202 244 301
#     4   7  10  18  37  60  88 125 155 181 222 282
#     4   9  16  26  45  69 100 126 147 193 249 283
#
# _framework density 15.221076
#
# number of rings (size 3 to 8) (size 9 to 14) (size 15 to 20)
#    0.000    2.222    3.333    4.000    0.000    2.667 
#    0.000    1.111    0.000    0.333    0.000    0.000 
#    0.000    5.333    0.000    0.000    0.000    0.000 
#
# Total GULP energy -200494.104742 kJ/mol
# GULP energy per Si atom -5569.280687 kJ/mol
# Density = 1.518643 g / cm^3
# Si number density = 15.221076 Si / 1000 Ang^3
#
#
#
# Elastic Constant Matrix: (Units=GPa)
#
#
# Indices 1 2 3 4 5 6 
#
# 1 66.9515 11.5509 54.0915 0.0000 0.0000 0.0000
# 2 11.5509 55.1924 28.0645 0.0000 0.0000 0.0000
# 3 54.0915 28.0645 165.4364 0.0000 0.0000 0.0000
# 4 0.0000 0.0000 0.0000 8.0328 0.0000 0.0000
# 5 0.0000 0.0000 0.0000 0.0000 20.6185 0.0000
# 6 0.0000 0.0000 0.0000 0.0000 0.0000 -8.8527
#
#
#
# Elastic Compliance Matrix: (Units=1/GPa)
#
#
# Indices 1 2 3 4 5 6 
#
# 1 0.020344 -0.000958 -0.006489 0.000000 0.000000 0.000000
# 2 -0.000958 0.019874 -0.003058 0.000000 0.000000 0.000000
# 3 -0.006489 -0.003058 0.008685 0.000000 0.000000 0.000000
# 4 0.000000 0.000000 0.000000 0.124490 0.000000 0.000000
# 5 0.000000 0.000000 0.000000 0.000000 0.048500 0.000000
# 6 0.000000 0.000000 0.000000 0.000000 0.000000 -0.112960
#
#
# Mechanical properties :
#
#
# Convention : Reuss Voigt Hill
#
# Bulk Modulus (GPa) = 35.85198 52.77709 44.31454
# Shear Modulus (GPa) = 35.90862 16.88461 26.39661
#
# Velocity S-wave (km/s) = 4.86237 3.33422 4.16891
# Velocity P-wave (km/s) = 7.42487 7.04071 7.23534
#
# Compressibility (1/GPa) = 0.02789246
#
# Stress axis : x y z
#
# Youngs Moduli (GPa) = 49.15379 50.31708 115.13892
#
# Poissons Ratio (x) = 0.04820 0.74717
# Poissons Ratio (y) = 0.04709 0.35211
# Poissons Ratio (z) = 0.31897 0.15388
#
# Static dielectric constant tensor:
#      x y z
#    x 1.486210 0.000000 0.000000 
#    y 0.000000 1.496960 0.000000 
#    z 0.000000 0.000000 1.543360 
# 
# From -- ./inp_files/51568.got.cif
#   From: 2010.05.17/outbox.cif.g08.bks.cpg/sg65_26_cif.got.tgz:51568.got - 2010.06.03 17:01:31.
