data_PCOD9492356
_publ_section_title
;
Structure prediction by ZEFSAII (Michael W. Deem and Ramdas Pophale) SiO2 
 PCOD9492356
Probable space group: C M M M
;
_chemical_formula_sum "Si O2"
_cell_formula_units_Z 72
_cell_length_a 33.621084
_cell_length_b 14.135739
_cell_length_c 7.748406
_cell_angle_alpha 90.000000
_cell_angle_beta 90.000000
_cell_angle_gamma 90.000000
_cell_volume 3682.498667
_symmetry_space_group_name_H-M "C M M M"
_symmetry_group_IT_number 65
_symmetry_cell_setting 'orthorhombic'
loop_
_space_group_symop_operation_xyz
x,y,z
-x,-y,z
x,-y,-z
-x,y,-z
-x,-y,-z
x,y,-z
-x,y,z
x,-y,z
1/2+x,1/2+y,z
1/2-x,1/2-y,z
1/2+x,1/2-y,-z
1/2-x,1/2+y,-z
1/2-x,1/2-y,-z
1/2+x,1/2+y,-z
1/2-x,1/2+y,z
1/2+x,1/2-y,z
loop_
_atom_site_type_symbol
_atom_site_label
_atom_site_fract_x
_atom_site_fract_y
_atom_site_fract_z
Si Si1 0.163348 0.385989 0.299609
Si Si2 0.813648 0.885696 0.000000
Si Si3 0.875334 0.110478 0.704839
Si Si4 0.000000 0.394426 0.202618
Si Si5 0.223152 0.615806 0.000000
Si Si6 0.581303 0.208444 0.294363
O O1 0.169709 0.356433 0.500000
O O2 0.161447 0.500000 0.298412
O O3 0.120807 0.347197 0.235052
O O4 0.198245 0.356461 0.169803
O O5 0.838750 0.861689 0.828592
O O6 0.768592 0.850521 0.000000
O O7 0.811397 0.000000 0.000000
O O8 0.866081 0.121215 0.500000
O O9 0.911032 0.181860 0.749899
O O10 0.884547 0.000000 0.734686
O O11 0.960029 0.337197 0.242669
O O12 0.000000 0.500000 0.283685
O O13 0.000000 0.406415 0.000000
O O14 0.224078 0.500000 0.000000
O O15 0.582226 0.201541 0.500000
#
# Coordination Sequence:
#
# PCOD9492356 Si02
#       6
#    16   8  16   8   8  16
#     4   9  18  32  51  76 108 146 185 227 277 335
#     4   9  18  33  55  81 108 147 191 232 284 334
#     4   9  19  36  58  83 111 146 190 236 279 326
#     4  11  25  39  58  91 120 144 178 222 272 330
#     4   9  18  31  51  79 109 145 188 230 281 336
#     4  10  21  38  59  81 109 149 188 226 278 333
#
# _framework density 19.551942
#
# number of rings (size 3 to 8) (size 9 to 14) (size 15 to 20)
#    0.000    2.556    0.000    1.000    3.111    2.667 
#    0.000    7.222    0.000    7.333    0.000    0.000 
#    0.000    0.000    0.000    0.000    0.000    0.000 
#
# Total GULP energy -200819.004214 kJ/mol
# GULP energy per Si atom -5578.305673 kJ/mol
# Density = 1.950744 g / cm^3
# Si number density = 19.551942 Si / 1000 Ang^3
#
#
#
# Elastic Constant Matrix: (Units=GPa)
#
#
# Indices 1 2 3 4 5 6 
#
# 1 185.1612 83.3701 65.6634 0.0000 0.0000 0.0000
# 2 83.3701 108.4948 42.5157 0.0000 0.0000 0.0000
# 3 65.6634 42.5157 77.9045 0.0000 0.0000 0.0000
# 4 0.0000 0.0000 0.0000 11.0101 0.0000 0.0000
# 5 0.0000 0.0000 0.0000 0.0000 29.6199 0.0000
# 6 0.0000 0.0000 0.0000 0.0000 0.0000 42.9635
#
#
#
# Elastic Compliance Matrix: (Units=1/GPa)
#
#
# Indices 1 2 3 4 5 6 
#
# 1 0.009678 -0.005394 -0.005214 0.000000 0.000000 0.000000
# 2 -0.005394 0.014731 -0.003493 0.000000 0.000000 0.000000
# 3 -0.005214 -0.003493 0.019137 0.000000 0.000000 0.000000
# 4 0.000000 0.000000 0.000000 0.090826 0.000000 0.000000
# 5 0.000000 0.000000 0.000000 0.000000 0.033761 0.000000
# 6 0.000000 0.000000 0.000000 0.000000 0.000000 0.023276
#
#
# Mechanical properties :
#
#
# Convention : Reuss Voigt Hill
#
# Bulk Modulus (GPa) = 65.16855 83.85100 74.50978
# Shear Modulus (GPa) = 22.24951 28.71945 25.48448
#
# Velocity S-wave (km/s) = 3.37704 3.83675 3.61421
# Velocity P-wave (km/s) = 6.97203 7.91246 7.45708
#
# Compressibility (1/GPa) = 0.01534483
#
# Stress axis : x y z
#
# Youngs Moduli (GPa) = 103.32347 67.88632 52.25482
#
# Poissons Ratio (x) = 0.36617 0.27245
# Poissons Ratio (y) = 0.55732 0.18251
# Poissons Ratio (z) = 0.53872 0.23711
#
# Static dielectric constant tensor:
#      x y z
#    x 1.692730 0.000000 0.000000 
#    y 0.000000 1.744970 0.000000 
#    z 0.000000 0.000000 1.699660 
# 
# From -- ./inp_files/15809.got.cif
#   From: 2010.05.17/outbox.cif.g08.bks.cpg/sg65_8_cif.got.tgz:15809.got - 2010.06.03 17:01:31.
