data_PCOD9492025
_publ_section_title
;
Structure prediction by ZEFSAII (Michael W. Deem and Ramdas Pophale) SiO2 
 PCOD9492025
Probable space group: C M M M
;
_chemical_formula_sum "Si O2"
_cell_formula_units_Z 64
_cell_length_a 20.882247
_cell_length_b 8.102318
_cell_length_c 19.040599
_cell_angle_alpha 90.000000
_cell_angle_beta 90.000000
_cell_angle_gamma 90.000000
_cell_volume 3221.566641
_symmetry_space_group_name_H-M "C M M M"
_symmetry_group_IT_number 65
_symmetry_cell_setting 'orthorhombic'
loop_
_space_group_symop_operation_xyz
x,y,z
-x,-y,z
x,-y,-z
-x,y,-z
-x,-y,-z
x,y,-z
-x,y,z
x,-y,z
1/2+x,1/2+y,z
1/2-x,1/2-y,z
1/2+x,1/2-y,-z
1/2-x,1/2+y,-z
1/2-x,1/2-y,-z
1/2+x,1/2+y,-z
1/2-x,1/2+y,z
1/2+x,1/2-y,z
loop_
_atom_site_type_symbol
_atom_site_label
_atom_site_fract_x
_atom_site_fract_y
_atom_site_fract_z
Si Si1 0.422653 0.500000 0.079536
Si Si2 0.140367 0.693587 0.580711
Si Si3 0.180748 0.190048 0.275641
Si Si4 0.424950 0.187583 0.824037
Si Si5 0.500000 0.686119 0.415629
O O1 0.500000 0.500000 0.075794
O O2 0.406493 0.667818 0.121351
O O3 0.397501 0.500000 0.000000
O O4 0.150238 0.749903 0.500000
O O5 0.155435 0.500000 0.584099
O O6 0.178097 0.789150 0.640357
O O7 0.065573 0.720961 0.599883
O O8 0.250000 0.250000 0.250484
O O9 0.123203 0.291912 0.240896
O O10 0.171168 0.000000 0.257661
O O11 0.500000 0.212892 0.804206
O O12 0.419746 0.000000 0.851828
O O13 0.500000 0.500000 0.385415
O O14 0.500000 0.671245 0.500000
#
# Coordination Sequence:
#
# PCOD9492025 Si02
#       5
#     8  16  16  16   8
#     4   9  18  36  64 100 135 165 202 248 302 359
#     4  10  21  37  56  80 112 151 201 258 313 371
#     4  12  25  41  61  86 118 162 209 256 315 371
#     4  10  21  39  64  96 130 166 208 253 303 364
#     4   9  17  31  51  77 107 143 185 240 309 364
#
# _framework density 19.866111
#
# number of rings (size 3 to 8) (size 9 to 14) (size 15 to 20)
#    0.000    1.750    1.250    3.375    1.750    4.000 
#    0.000    2.500    0.000    0.750    0.000    0.000 
#    0.000    0.000    0.000    0.000    0.000    0.000 
#
# Total GULP energy -178626.409512 kJ/mol
# GULP energy per Si atom -5582.075297 kJ/mol
# Density = 1.982089 g / cm^3
# Si number density = 19.866111 Si / 1000 Ang^3
#
#
#
# Elastic Constant Matrix: (Units=GPa)
#
#
# Indices 1 2 3 4 5 6 
#
# 1 71.9773 24.9340 31.7806 0.0000 0.0000 0.0000
# 2 24.9340 120.1889 36.3927 0.0000 0.0000 0.0000
# 3 31.7806 36.3927 88.3441 0.0000 0.0000 0.0000
# 4 0.0000 0.0000 0.0000 16.0924 0.0000 0.0000
# 5 0.0000 0.0000 0.0000 0.0000 1.8633 0.0000
# 6 0.0000 0.0000 0.0000 0.0000 0.0000 23.9856
#
#
#
# Elastic Compliance Matrix: (Units=1/GPa)
#
#
# Indices 1 2 3 4 5 6 
#
# 1 0.016889 -0.001901 -0.005292 0.000000 0.000000 0.000000
# 2 -0.001901 0.009720 -0.003320 0.000000 0.000000 0.000000
# 3 -0.005292 -0.003320 0.014591 0.000000 0.000000 0.000000
# 4 0.000000 0.000000 0.000000 0.062141 0.000000 0.000000
# 5 0.000000 0.000000 0.000000 0.000000 0.536685 0.000000
# 6 0.000000 0.000000 0.000000 0.000000 0.000000 0.041692
#
#
# Mechanical properties :
#
#
# Convention : Reuss Voigt Hill
#
# Bulk Modulus (GPa) = 49.57293 51.85830 50.71561
# Shear Modulus (GPa) = 7.04753 20.88179 13.96466
#
# Velocity S-wave (km/s) = 1.88553 3.24562 2.65418
# Velocity P-wave (km/s) = 5.45417 6.34082 5.91414
#
# Compressibility (1/GPa) = 0.02017230
#
# Stress axis : x y z
#
# Youngs Moduli (GPa) = 59.21153 102.88093 68.53583
#
# Poissons Ratio (x) = 0.19559 0.36271
# Poissons Ratio (y) = 0.11257 0.22755
# Poissons Ratio (z) = 0.31336 0.34158
#
# Static dielectric constant tensor:
#      x y z
#    x 1.698230 0.000000 0.000000 
#    y 0.000000 1.708100 0.000000 
#    z 0.000000 0.000000 1.701880 
# 
# From -- ./inp_files/63290.got.cif
#   From: 2010.05.17/outbox.cif.g08.bks.cpg/sg65_32_cif.got.tgz:63290.got - 2010.06.03 17:01:31.
