data_PCOD9492880
_publ_section_title
;
Structure prediction by ZEFSAII (Michael W. Deem and Ramdas Pophale) SiO2 
 PCOD9492880
Probable space group: C M M M
;
_chemical_formula_sum "Si O2"
_cell_formula_units_Z 88
_cell_length_a 18.773613
_cell_length_b 18.243605
_cell_length_c 13.266285
_cell_angle_alpha 90.000000
_cell_angle_beta 90.000000
_cell_angle_gamma 90.000000
_cell_volume 4543.681121
_symmetry_space_group_name_H-M "C M M M"
_symmetry_group_IT_number 65
_symmetry_cell_setting 'orthorhombic'
loop_
_space_group_symop_operation_xyz
x,y,z
-x,-y,z
x,-y,-z
-x,y,-z
-x,-y,-z
x,y,-z
-x,y,z
x,-y,z
1/2+x,1/2+y,z
1/2-x,1/2-y,z
1/2+x,1/2-y,-z
1/2-x,1/2+y,-z
1/2-x,1/2-y,-z
1/2+x,1/2+y,-z
1/2-x,1/2+y,z
1/2+x,1/2-y,z
loop_
_atom_site_type_symbol
_atom_site_label
_atom_site_fract_x
_atom_site_fract_y
_atom_site_fract_z
Si Si1 0.344994 0.651182 0.693431
Si Si2 0.417934 0.887117 0.884959
Si Si3 0.662254 0.751364 0.500000
Si Si4 0.584191 0.500000 0.621084
Si Si5 0.582528 0.289272 0.891346
Si Si6 0.866813 0.418879 0.500000
Si Si7 0.298415 0.079534 0.279566
O O1 0.356751 0.706660 0.600923
O O2 0.377917 0.573130 0.661359
O O3 0.380559 0.679025 0.794564
O O4 0.261757 0.640822 0.719399
O O5 0.500000 0.909247 0.863276
O O6 0.416084 0.798857 0.886583
O O7 0.362677 0.910320 0.799085
O O8 0.400730 0.911438 0.000000
O O9 0.750000 0.750000 0.500000
O O10 0.619864 0.829624 0.500000
O O11 0.500000 0.500000 0.646637
O O12 0.590767 0.500000 0.500000
O O13 0.500000 0.311448 0.889944
O O14 0.613862 0.311607 0.000000
O O15 0.907841 0.500000 0.500000
O O16 0.825462 0.422875 0.605559
O O17 0.265754 0.000000 0.255963
#
# Coordination Sequence:
#
# PCOD9492880 Si02
#       7
#    16  16   8   8  16   8  16
#     4  12  22  37  63  91 124 163 212 256 317 371
#     4   9  20  40  62  84 114 152 201 263 318 365
#     4  12  22  35  60  91 125 163 208 253 306 381
#     4  11  24  42  61  91 132 169 207 262 317 364
#     4   9  20  39  60  83 115 157 204 258 319 378
#     4  10  22  38  56  85 127 165 193 242 313 369
#     4  11  22  36  58  86 120 160 201 250 309 371
#
# _framework density 19.367557999999999
#
# number of rings (size 3 to 8) (size 9 to 14) (size 15 to 20)
#    0.000    1.545    3.636    2.727    0.000    1.455 
#    0.000    3.636    0.000    6.545    0.000    0.000 
#    0.000    0.000    0.000    0.000    0.000    0.000 
#
# Total GULP energy -245171.693578 kJ/mol
# GULP energy per Si atom -5572.083945 kJ/mol
# Density = 1.932348 g / cm^3
# Si number density = 19.367558 Si / 1000 Ang^3
#
#
#
# Elastic Constant Matrix: (Units=GPa)
#
#
# Indices 1 2 3 4 5 6 
#
# 1 70.5067 27.5394 69.0370 0.0000 0.0000 0.0000
# 2 27.5394 115.2210 55.5104 0.0000 0.0000 0.0000
# 3 69.0370 55.5104 175.3689 0.0000 0.0000 0.0000
# 4 0.0000 0.0000 0.0000 45.1905 0.0000 0.0000
# 5 0.0000 0.0000 0.0000 0.0000 13.7157 0.0000
# 6 0.0000 0.0000 0.0000 0.0000 0.0000 14.3403
#
#
#
# Elastic Compliance Matrix: (Units=1/GPa)
#
#
# Indices 1 2 3 4 5 6 
#
# 1 0.023257 -0.001354 -0.008727 0.000000 0.000000 0.000000
# 2 -0.001354 0.010320 -0.002733 0.000000 0.000000 0.000000
# 3 -0.008727 -0.002733 0.010003 0.000000 0.000000 0.000000
# 4 0.000000 0.000000 0.000000 0.022129 0.000000 0.000000
# 5 0.000000 0.000000 0.000000 0.000000 0.072909 0.000000
# 6 0.000000 0.000000 0.000000 0.000000 0.000000 0.069734
#
#
# Mechanical properties :
#
#
# Convention : Reuss Voigt Hill
#
# Bulk Modulus (GPa) = 55.70908 73.91892 64.81400
# Shear Modulus (GPa) = 20.83651 28.58328 24.70990
#
# Velocity S-wave (km/s) = 3.28357 3.84582 3.57576
# Velocity P-wave (km/s) = 6.57285 7.61378 7.11238
#
# Compressibility (1/GPa) = 0.01795039
#
# Stress axis : x y z
#
# Youngs Moduli (GPa) = 42.99790 96.90367 99.97098
#
# Poissons Ratio (x) = 0.13125 0.87243
# Poissons Ratio (y) = 0.05824 0.27325
# Poissons Ratio (z) = 0.37523 0.26487
#
# Static dielectric constant tensor:
#      x y z
#    x 1.676730 0.000000 0.000000 
#    y 0.000000 1.737570 0.000000 
#    z 0.000000 0.000000 1.650950 
# 
# From -- ./inp_files/28760.got.cif
#   From: 2010.05.17/outbox.cif.g08.bks.cpg/sg65_15_cif.got.tgz:28760.got - 2010.06.03 17:01:31.
