data_PCOD9492438
_publ_section_title
;
Structure prediction by ZEFSAII (Michael W. Deem and Ramdas Pophale) SiO2 
 PCOD9492438
Probable space group: C M M M
;
_chemical_formula_sum "Si O2"
_cell_formula_units_Z 64
_cell_length_a 26.673608
_cell_length_b 8.429450
_cell_length_c 14.301827
_cell_angle_alpha 90.000000
_cell_angle_beta 90.000000
_cell_angle_gamma 90.000000
_cell_volume 3215.677773
_symmetry_space_group_name_H-M "C M M M"
_symmetry_group_IT_number 65
_symmetry_cell_setting 'orthorhombic'
loop_
_space_group_symop_operation_xyz
x,y,z
-x,-y,z
x,-y,-z
-x,y,-z
-x,-y,-z
x,y,-z
-x,y,z
x,-y,z
1/2+x,1/2+y,z
1/2-x,1/2-y,z
1/2+x,1/2-y,-z
1/2-x,1/2+y,-z
1/2-x,1/2-y,-z
1/2+x,1/2+y,-z
1/2-x,1/2+y,z
1/2+x,1/2-y,z
loop_
_atom_site_type_symbol
_atom_site_label
_atom_site_fract_x
_atom_site_fract_y
_atom_site_fract_z
Si Si1 0.000000 0.311436 0.891645
Si Si2 0.883078 0.319651 0.388008
Si Si3 0.943044 0.000000 0.613786
Si Si4 0.305696 0.183938 0.232656
Si Si5 0.894869 0.811647 0.107378
O O1 0.052997 0.255000 0.851571
O O2 0.000000 0.500000 0.892294
O O3 0.000000 0.251524 0.000000
O O4 0.878216 0.315170 0.500000
O O5 0.902215 0.500000 0.363944
O O6 0.830209 0.302225 0.335494
O O7 0.915651 0.165025 0.360053
O O8 0.944292 0.000000 0.500000
O O9 0.000000 0.000000 0.648562
O O10 0.250000 0.250000 0.227750
O O11 0.345993 0.265099 0.164898
O O12 0.304115 0.000000 0.207237
O O13 0.899356 0.000000 0.105785
O O14 0.890051 0.752833 0.000000
#
# Coordination Sequence:
#
# PCOD9492438 Si02
#       5
#     8  16   8  16  16
#     4   9  17  33  59  87 116 149 188 237 287 344
#     4   9  20  39  60  86 121 157 198 244 294 351
#     4   9  18  34  60  90 119 157 199 240 292 349
#     4  11  24  40  60  85 115 152 195 245 297 349
#     4  10  21  38  60  86 117 153 193 238 290 348
#
# _framework density 19.902491000000001
#
# number of rings (size 3 to 8) (size 9 to 14) (size 15 to 20)
#    0.000    2.250    0.000    1.875    3.500    4.500 
#    2.250    2.500    0.000    0.000    0.000    0.000 
#    0.000    0.000    0.000    0.000    0.000    0.000 
#
# Total GULP energy -178555.621845 kJ/mol
# GULP energy per Si atom -5579.863183 kJ/mol
# Density = 1.985719 g / cm^3
# Si number density = 19.902491 Si / 1000 Ang^3
#
#
#
# Elastic Constant Matrix: (Units=GPa)
#
#
# Indices 1 2 3 4 5 6 
#
# 1 182.9103 89.9375 40.2457 0.0000 0.0000 0.0000
# 2 89.9375 121.6146 34.2534 0.0000 0.0000 0.0000
# 3 40.2457 34.2534 54.4827 0.0000 0.0000 0.0000
# 4 0.0000 0.0000 0.0000 20.0273 0.0000 0.0000
# 5 0.0000 0.0000 0.0000 0.0000 26.6424 0.0000
# 6 0.0000 0.0000 0.0000 0.0000 0.0000 34.4527
#
#
#
# Elastic Compliance Matrix: (Units=1/GPa)
#
#
# Indices 1 2 3 4 5 6 
#
# 1 0.008974 -0.005795 -0.002985 0.000000 0.000000 0.000000
# 2 -0.005795 0.013735 -0.004354 0.000000 0.000000 0.000000
# 3 -0.002985 -0.004354 0.023297 0.000000 0.000000 0.000000
# 4 0.000000 0.000000 0.000000 0.049932 0.000000 0.000000
# 5 0.000000 0.000000 0.000000 0.000000 0.037534 0.000000
# 6 0.000000 0.000000 0.000000 0.000000 0.000000 0.029025
#
#
# Mechanical properties :
#
#
# Convention : Reuss Voigt Hill
#
# Bulk Modulus (GPa) = 50.66849 76.43119 63.54984
# Shear Modulus (GPa) = 25.59573 29.19587 27.39580
#
# Velocity S-wave (km/s) = 3.59005 3.83423 3.71415
# Velocity P-wave (km/s) = 6.53439 7.62154 7.09881
#
# Compressibility (1/GPa) = 0.01973613
#
# Stress axis : x y z
#
# Youngs Moduli (GPa) = 111.43771 72.80659 42.92402
#
# Poissons Ratio (x) = 0.42195 0.12813
# Poissons Ratio (y) = 0.64584 0.18690
# Poissons Ratio (z) = 0.33265 0.31701
#
# Static dielectric constant tensor:
#      x y z
#    x 1.612050 0.000000 0.000000 
#    y 0.000000 1.703080 0.000000 
#    z 0.000000 0.000000 1.740210 
# 
# From -- ./inp_files/45118.got.cif
#   From: 2010.05.17/outbox.cif.g08.bks.cpg/sg65_23_cif.got.tgz:45118.got - 2010.06.03 17:01:31.
