data_PCOD9492083
_publ_section_title
;
Structure prediction by ZEFSAII (Michael W. Deem and Ramdas Pophale) SiO2 
 PCOD9492083
Probable space group: C M M M
;
_chemical_formula_sum "Si O2"
_cell_formula_units_Z 104
_cell_length_a 18.790121
_cell_length_b 8.917911
_cell_length_c 33.963070
_cell_angle_alpha 90.000000
_cell_angle_beta 90.000000
_cell_angle_gamma 90.000000
_cell_volume 5691.145000
_symmetry_space_group_name_H-M "C M M M"
_symmetry_group_IT_number 65
_symmetry_cell_setting 'orthorhombic'
loop_
_space_group_symop_operation_xyz
x,y,z
-x,-y,z
x,-y,-z
-x,y,-z
-x,-y,-z
x,y,-z
-x,y,z
x,-y,z
1/2+x,1/2+y,z
1/2-x,1/2-y,z
1/2+x,1/2-y,-z
1/2-x,1/2+y,-z
1/2-x,1/2-y,-z
1/2+x,1/2+y,-z
1/2-x,1/2+y,z
1/2+x,1/2-y,z
loop_
_atom_site_type_symbol
_atom_site_label
_atom_site_fract_x
_atom_site_fract_y
_atom_site_fract_z
Si Si1 0.827251 0.178323 0.266413
Si Si2 0.828268 0.179761 0.357783
Si Si3 0.329092 0.680307 0.500000
Si Si4 0.584437 0.820419 0.572534
Si Si5 0.085464 0.325139 0.197197
Si Si6 0.914637 0.175959 0.885032
Si Si7 0.671886 0.179167 0.044617
O O1 0.750000 0.250000 0.259816
O O2 0.846797 0.208830 0.312008
O O3 0.880688 0.246822 0.234923
O O4 0.823183 0.000000 0.261588
O O5 0.750000 0.250000 0.365066
O O6 0.884105 0.256157 0.386901
O O7 0.825600 0.000000 0.363913
O O8 0.325061 0.500000 0.500000
O O9 0.250000 0.750000 0.500000
O O10 0.372036 0.739916 0.462142
O O11 0.500000 0.791546 0.569019
O O12 0.595336 0.000000 0.570325
O O13 0.104839 0.500000 0.196517
O O14 0.108657 0.247978 0.156409
O O15 0.000000 0.313213 0.199248
O O16 0.878466 0.255670 0.921887
O O17 0.000000 0.192759 0.887625
O O18 0.897562 0.000000 0.885242
O O19 0.750000 0.250000 0.049169
O O20 0.676559 0.000000 0.048108
O O21 0.647067 0.214986 0.000000
#
# Coordination Sequence:
#
# PCOD9492083 Si02
#       7
#    16  16   8  16  16  16  16
#     4  10  21  37  58  84 114 148 188 234 280 330
#     4  10  21  38  60  85 115 151 191 234 280 333
#     4  12  25  42  65  89 117 153 193 236 283 338
#     4  11  24  41  61  87 120 154 190 235 284 334
#     4  10  21  37  57  81 111 146 184 228 278 332
#     4  10  21  37  57  81 110 144 183 227 274 327
#     4  10  21  37  57  81 110 143 180 224 273 326
#
# _framework density 18.274003
#
# number of rings (size 3 to 8) (size 9 to 14) (size 15 to 20)
#    0.000    1.692    0.000    4.154    0.000    8.308 
#    0.000    7.692    0.000    0.000    0.000    0.000 
#    0.000    0.000    0.000    0.000    0.000    0.000 
#
# Total GULP energy -290592.502404 kJ/mol
# GULP energy per Si atom -5588.317354 kJ/mol
# Density = 1.823241 g / cm^3
# Si number density = 18.274003 Si / 1000 Ang^3
#
#
#
# Elastic Constant Matrix: (Units=GPa)
#
#
# Indices 1 2 3 4 5 6 
#
# 1 73.9856 74.1073 74.9929 0.0000 0.0000 0.0000
# 2 74.1073 137.3624 95.3044 0.0000 0.0000 0.0000
# 3 74.9929 95.3044 136.9943 0.0000 0.0000 0.0000
# 4 0.0000 0.0000 0.0000 38.7511 0.0000 0.0000
# 5 0.0000 0.0000 0.0000 0.0000 -287.2735 0.0000
# 6 0.0000 0.0000 0.0000 0.0000 0.0000 34.1270
#
#
#
# Elastic Compliance Matrix: (Units=1/GPa)
#
#
# Indices 1 2 3 4 5 6 
#
# 1 0.038224 -0.011799 -0.012716 0.000000 0.000000 0.000000
# 2 -0.011799 0.017715 -0.005865 0.000000 0.000000 0.000000
# 3 -0.012716 -0.005865 0.018340 0.000000 0.000000 0.000000
# 4 0.000000 0.000000 0.000000 0.025806 0.000000 0.000000
# 5 0.000000 0.000000 0.000000 0.000000 -0.003481 0.000000
# 6 0.000000 0.000000 0.000000 0.000000 0.000000 0.029302
#
#
# Mechanical properties :
#
#
# Convention : Reuss Voigt Hill
#
# Bulk Modulus (GPa) = 73.96821 93.01684 83.49252
# Shear Modulus (GPa) = 26.15445 -35.94991 -4.89773
#
# Velocity S-wave (km/s) = 3.78728 -4.44020 -1.63890
# Velocity P-wave (km/s) = 7.72592 4.97237 6.49670
#
# Compressibility (1/GPa) = 0.01351932
#
# Stress axis : x y z
#
# Youngs Moduli (GPa) = 26.16174 56.44974 54.52473
#
# Poissons Ratio (x) = 0.66608 0.69332
# Poissons Ratio (y) = 0.30869 0.31977
# Poissons Ratio (z) = 0.33266 0.33106
#
# Static dielectric constant tensor:
#      x y z
#    x 1.597620 0.000000 0.000000 
#    y 0.000000 1.609350 0.000000 
#    z 0.000000 0.000000 1.615270 
# 
# From -- ./inp_files/75471.got.cif
#   From: 2010.05.17/outbox.cif.g08.bks.cpg/sg65_38_cif.got.tgz:75471.got - 2010.06.03 17:01:31.
