data_PCOD9492700
_publ_section_title
;
Structure prediction by ZEFSAII (Michael W. Deem and Ramdas Pophale) SiO2 
 PCOD9492700
Probable space group: C M M M
;
_chemical_formula_sum "Si O2"
_cell_formula_units_Z 76
_cell_length_a 17.735409
_cell_length_b 27.121950
_cell_length_c 7.186099
_cell_angle_alpha 90.000000
_cell_angle_beta 90.000000
_cell_angle_gamma 90.000000
_cell_volume 3456.649265
_symmetry_space_group_name_H-M "C M M M"
_symmetry_group_IT_number 65
_symmetry_cell_setting 'orthorhombic'
loop_
_space_group_symop_operation_xyz
x,y,z
-x,-y,z
x,-y,-z
-x,y,-z
-x,-y,-z
x,y,-z
-x,y,z
x,-y,z
1/2+x,1/2+y,z
1/2-x,1/2-y,z
1/2+x,1/2-y,-z
1/2-x,1/2+y,-z
1/2-x,1/2-y,-z
1/2+x,1/2+y,-z
1/2-x,1/2+y,z
1/2+x,1/2-y,z
loop_
_atom_site_type_symbol
_atom_site_label
_atom_site_fract_x
_atom_site_fract_y
_atom_site_fract_z
Si Si1 0.849753 0.885704 0.225682
Si Si2 0.638622 0.000000 0.500000
Si Si3 0.500000 0.442876 0.773318
Si Si4 0.816819 0.585404 0.224132
Si Si5 0.830273 0.226932 0.773649
Si Si6 0.416251 0.821403 0.774792
O O1 0.771765 0.912709 0.274524
O O2 0.844847 0.828823 0.287472
O O3 0.924498 0.914310 0.286036
O O4 0.851581 0.884656 0.000000
O O5 0.642989 0.042962 0.662083
O O6 0.500000 0.500000 0.716165
O O7 0.500000 0.442673 0.000000
O O8 0.854414 0.637849 0.273536
O O9 0.822911 0.578968 0.000000
O O10 0.750000 0.250000 0.717889
O O11 0.892329 0.266787 0.716118
O O12 0.829276 0.225289 0.000000
O O13 0.500000 0.834794 0.712410
O O14 0.417011 0.820616 0.000000
#
# Coordination Sequence:
#
# PCOD9492700 Si02
#       6
#    16   4   8  16  16  16
#     4   9  17  29  50  79 118 160 197 241 296 351
#     4  12  26  40  65  91 106 148 212 250 294 365
#     4   9  18  28  42  74 116 158 204 246 287 343
#     4  10  21  40  61  86 119 154 193 247 303 354
#     4   9  14  24  45  80 119 154 192 236 291 354
#     4   9  17  30  53  84 121 160 196 239 299 362
#
# _framework density 21.986609000000001
#
# number of rings (size 3 to 8) (size 9 to 14) (size 15 to 20)
#    0.000    2.632    2.105    0.316    2.947    0.000 
#    0.000    1.579    0.000    6.316    0.000    0.000 
#    0.000    0.000    0.000    0.000    0.000    0.000 
#
# Total GULP energy -211798.298520 kJ/mol
# GULP energy per Si atom -5573.639435 kJ/mol
# Density = 2.193657 g / cm^3
# Si number density = 21.986609 Si / 1000 Ang^3
#
#
#
# Elastic Constant Matrix: (Units=GPa)
#
#
# Indices 1 2 3 4 5 6 
#
# 1 103.1176 12.0110 -2.7583 0.0000 0.0000 0.0000
# 2 12.0110 111.9733 9.8929 0.0000 0.0000 0.0000
# 3 -2.7583 9.8929 121.1080 0.0000 0.0000 0.0000
# 4 0.0000 0.0000 0.0000 307.7063 0.0000 0.0000
# 5 0.0000 0.0000 0.0000 0.0000 -25.9956 0.0000
# 6 0.0000 0.0000 0.0000 0.0000 0.0000 -59.9468
#
#
#
# Elastic Compliance Matrix: (Units=1/GPa)
#
#
# Indices 1 2 3 4 5 6 
#
# 1 0.009832 -0.001082 0.000312 0.000000 0.000000 0.000000
# 2 -0.001082 0.009115 -0.000769 0.000000 0.000000 0.000000
# 3 0.000312 -0.000769 0.008327 0.000000 0.000000 0.000000
# 4 0.000000 0.000000 0.000000 0.003250 0.000000 0.000000
# 5 0.000000 0.000000 0.000000 0.000000 -0.038468 0.000000
# 6 0.000000 0.000000 0.000000 0.000000 0.000000 -0.016681
#
#
# Mechanical properties :
#
#
# Convention : Reuss Voigt Hill
#
# Bulk Modulus (GPa) = 41.32974 41.60999 41.46986
# Shear Modulus (GPa) = -370.85392 65.48968 -152.68212
#
# Velocity S-wave (km/s) = -13.00149 5.46359 -8.34230
# Velocity P-wave (km/s) = 14.37173 7.66599 8.59591
#
# Compressibility (1/GPa) = 0.02419565
#
# Stress axis : x y z
#
# Youngs Moduli (GPa) = 101.70790 109.71228 120.09064
#
# Poissons Ratio (x) = 0.11874 -0.03751
# Poissons Ratio (y) = 0.11007 0.09237
# Poissons Ratio (z) = -0.03177 0.08439
#
# Static dielectric constant tensor:
#      x y z
#    x 1.783890 0.000000 0.000000 
#    y 0.000000 1.744480 0.000000 
#    z 0.000000 0.000000 1.855210 
# 
# From -- ./inp_files/9732.got.cif
#   From: 2010.05.17/outbox.cif.g08.bks.cpg/sg65_5_cif.got.tgz:9732.got - 2010.06.03 17:01:31.
