data_PCOD9492320
_publ_section_title
;
Structure prediction by ZEFSAII (Michael W. Deem and Ramdas Pophale) SiO2 
 PCOD9492320
Probable space group: C M M M
;
_chemical_formula_sum "Si O2"
_cell_formula_units_Z 72
_cell_length_a 8.719911
_cell_length_b 26.118727
_cell_length_c 20.459115
_cell_angle_alpha 90.000000
_cell_angle_beta 90.000000
_cell_angle_gamma 90.000000
_cell_volume 4659.624305
_symmetry_space_group_name_H-M "C M M M"
_symmetry_group_IT_number 65
_symmetry_cell_setting 'orthorhombic'
loop_
_space_group_symop_operation_xyz
x,y,z
-x,-y,z
x,-y,-z
-x,y,-z
-x,-y,-z
x,y,-z
-x,y,z
x,-y,z
1/2+x,1/2+y,z
1/2-x,1/2-y,z
1/2+x,1/2-y,-z
1/2-x,1/2+y,-z
1/2-x,1/2-y,-z
1/2+x,1/2+y,-z
1/2-x,1/2+y,z
1/2+x,1/2-y,z
loop_
_atom_site_type_symbol
_atom_site_label
_atom_site_fract_x
_atom_site_fract_y
_atom_site_fract_z
Si Si1 0.184202 0.061487 0.429751
Si Si2 0.183567 0.194088 0.923560
Si Si3 0.185230 0.939019 0.286269
Si Si4 0.682654 0.098054 0.152330
Si Si5 0.183427 0.000000 0.922698
O O1 0.244590 0.081018 0.500000
O O2 0.238760 0.079117 0.358450
O O3 0.000000 0.069372 0.430090
O O4 0.206711 0.000000 0.429657
O O5 0.250000 0.250000 0.907695
O O6 0.253721 0.149977 0.879035
O O7 0.000000 0.194521 0.917255
O O8 0.220904 0.183570 0.000000
O O9 0.260764 0.909829 0.226408
O O10 0.000000 0.934170 0.282891
O O11 0.218713 0.000000 0.280017
O O12 0.500000 0.097366 0.149584
O O13 0.748408 0.050263 0.111146
O O14 0.000000 0.000000 0.913407
O O15 0.215647 0.000000 0.000000
#
# Coordination Sequence:
#
# PCOD9492320 Si02
#       5
#    16  16  16  16   8
#     4   7  10  18  35  60  86 115 156 199 232 268
#     4  10  21  38  58  76  94 119 154 198 245 290
#     4   9  16  27  44  64  92 129 163 196 236 281
#     4  12  23  33  48  71  99 129 160 196 237 286
#     4  11  23  37  51  67  90 123 162 201 241 286
#
# _framework density 15.451890000000001
#
# number of rings (size 3 to 8) (size 9 to 14) (size 15 to 20)
#    0.000    2.333    1.111    5.667    0.000    4.889 
#    0.000    0.000    0.000    0.667    0.000    3.111 
#    0.000    0.889    0.000    2.444    0.000    3.556 
#
# Total GULP energy -200650.547507 kJ/mol
# GULP energy per Si atom -5573.626320 kJ/mol
# Density = 1.541672 g / cm^3
# Si number density = 15.451890 Si / 1000 Ang^3
#
#
#
# Elastic Constant Matrix: (Units=GPa)
#
#
# Indices 1 2 3 4 5 6 
#
# 1 45.6297 35.3948 62.2926 0.0000 0.0000 0.0000
# 2 35.3948 82.0439 82.8951 0.0000 0.0000 0.0000
# 3 62.2926 82.8951 174.3430 0.0000 0.0000 0.0000
# 4 0.0000 0.0000 0.0000 70.8084 0.0000 0.0000
# 5 0.0000 0.0000 0.0000 0.0000 1.9379 0.0000
# 6 0.0000 0.0000 0.0000 0.0000 0.0000 21.3444
#
#
#
# Elastic Compliance Matrix: (Units=1/GPa)
#
#
# Indices 1 2 3 4 5 6 
#
# 1 0.044268 -0.005998 -0.012965 0.000000 0.000000 0.000000
# 2 -0.005998 0.024271 -0.009397 0.000000 0.000000 0.000000
# 3 -0.012965 -0.009397 0.014836 0.000000 0.000000 0.000000
# 4 0.000000 0.000000 0.000000 0.014123 0.000000 0.000000
# 5 0.000000 0.000000 0.000000 0.000000 0.516026 0.000000
# 6 0.000000 0.000000 0.000000 0.000000 0.000000 0.046851
#
#
# Mechanical properties :
#
#
# Convention : Reuss Voigt Hill
#
# Bulk Modulus (GPa) = 37.51709 73.68685 55.60197
# Shear Modulus (GPa) = 6.88726 26.91374 16.90050
#
# Velocity S-wave (km/s) = 2.11351 4.17799 3.31078
# Velocity P-wave (km/s) = 5.50350 8.43004 7.11878
#
# Compressibility (1/GPa) = 0.02665452
#
# Stress axis : x y z
#
# Youngs Moduli (GPa) = 22.58987 41.20206 67.40355
#
# Poissons Ratio (x) = 0.24714 0.87387
# Poissons Ratio (y) = 0.13550 0.63338
# Poissons Ratio (z) = 0.29287 0.38717
#
# Static dielectric constant tensor:
#      x y z
#    x 1.510500 0.000000 0.000000 
#    y 0.000000 1.472920 0.000000 
#    z 0.000000 0.000000 1.558580 
# 
# From -- ./inp_files/59210.got.cif
#   From: 2010.05.17/outbox.cif.g08.bks.cpg/sg65_30_cif.got.tgz:59210.got - 2010.06.03 17:01:31.
