data_PCOD9492479
_publ_section_title
;
Structure prediction by ZEFSAII (Michael W. Deem and Ramdas Pophale) SiO2 
 PCOD9492479
Probable space group: C M M M
;
_chemical_formula_sum "Si O2"
_cell_formula_units_Z 72
_cell_length_a 18.784998
_cell_length_b 8.703574
_cell_length_c 24.213028
_cell_angle_alpha 90.000000
_cell_angle_beta 90.000000
_cell_angle_gamma 90.000000
_cell_volume 3958.748242
_symmetry_space_group_name_H-M "C M M M"
_symmetry_group_IT_number 65
_symmetry_cell_setting 'orthorhombic'
loop_
_space_group_symop_operation_xyz
x,y,z
-x,-y,z
x,-y,-z
-x,y,-z
-x,-y,-z
x,y,-z
-x,y,z
x,-y,z
1/2+x,1/2+y,z
1/2-x,1/2-y,z
1/2+x,1/2-y,-z
1/2-x,1/2+y,-z
1/2-x,1/2-y,-z
1/2+x,1/2+y,-z
1/2-x,1/2+y,z
1/2+x,1/2-y,z
loop_
_atom_site_type_symbol
_atom_site_label
_atom_site_fract_x
_atom_site_fract_y
_atom_site_fract_z
Si Si1 0.916335 0.183242 0.836025
Si Si2 0.828770 0.316102 0.936136
Si Si3 0.330002 0.817023 0.266431
Si Si4 0.830733 0.815131 0.619593
Si Si5 0.169675 0.815041 0.500000
O O1 0.882745 0.243736 0.892824
O O2 0.875794 0.261752 0.785221
O O3 0.000000 0.217464 0.833850
O O4 0.906389 0.000000 0.832412
O O5 0.827311 0.500000 0.929944
O O6 0.750000 0.250000 0.925256
O O7 0.846717 0.279974 0.000000
O O8 0.250000 0.750000 0.260842
O O9 0.361774 0.754514 0.324351
O O10 0.325529 0.000000 0.268448
O O11 0.750000 0.750000 0.618218
O O12 0.863068 0.771994 0.559562
O O13 0.828998 0.000000 0.624170
O O14 0.250000 0.750000 0.500000
O O15 0.174492 0.000000 0.500000
#
# Coordination Sequence:
#
# PCOD9492479 Si02
#       5
#    16  16  16  16   8
#     4  11  24  40  57  78 106 140 177 218 264 312
#     4  10  21  38  61  87 114 143 175 212 254 303
#     4  11  21  34  53  76 104 138 177 219 263 312
#     4   9  15  25  41  65  97 131 169 210 257 309
#     4   8  14  22  36  60  93 130 163 204 255 307
#
# _framework density 18.187567999999999
#
# number of rings (size 3 to 8) (size 9 to 14) (size 15 to 20)
#    0.000    2.000    0.000    6.000    0.000    4.444 
#    0.000    2.222    0.000    0.000    0.000    0.778 
#    0.000    6.222    0.000    0.000    0.000    0.000 
#
# Total GULP energy -200819.562546 kJ/mol
# GULP energy per Si atom -5578.321182 kJ/mol
# Density = 1.814617 g / cm^3
# Si number density = 18.187568 Si / 1000 Ang^3
#
#
#
# Elastic Constant Matrix: (Units=GPa)
#
#
# Indices 1 2 3 4 5 6 
#
# 1 53.7172 51.4988 73.1428 0.0000 0.0000 0.0000
# 2 51.4988 99.9619 77.4112 0.0000 0.0000 0.0000
# 3 73.1428 77.4112 164.5830 0.0000 0.0000 0.0000
# 4 0.0000 0.0000 0.0000 25.1795 0.0000 0.0000
# 5 0.0000 0.0000 0.0000 0.0000 -7.8192 0.0000
# 6 0.0000 0.0000 0.0000 0.0000 0.0000 20.0918
#
#
#
# Elastic Compliance Matrix: (Units=1/GPa)
#
#
# Indices 1 2 3 4 5 6 
#
# 1 0.060196 -0.016193 -0.019135 0.000000 0.000000 0.000000
# 2 -0.016193 0.020091 -0.002253 0.000000 0.000000 0.000000
# 3 -0.019135 -0.002253 0.015640 0.000000 0.000000 0.000000
# 4 0.000000 0.000000 0.000000 0.039715 0.000000 0.000000
# 5 0.000000 0.000000 0.000000 0.000000 -0.127890 0.000000
# 6 0.000000 0.000000 0.000000 0.000000 0.000000 0.049772
#
#
# Mechanical properties :
#
#
# Convention : Reuss Voigt Hill
#
# Bulk Modulus (GPa) = 48.16294 80.26307 64.21301
# Shear Modulus (GPa) = 35.81448 15.23770 25.52609
#
# Velocity S-wave (km/s) = 4.44235 2.89763 3.75038
# Velocity P-wave (km/s) = 7.26990 7.44457 7.35775
#
# Compressibility (1/GPa) = 0.02076285
#
# Stress axis : x y z
#
# Youngs Moduli (GPa) = 16.61250 49.77248 63.93947
#
# Poissons Ratio (x) = 0.80598 1.22350
# Poissons Ratio (y) = 0.26901 0.14408
# Poissons Ratio (z) = 0.31788 0.11216
#
# Static dielectric constant tensor:
#      x y z
#    x 1.581800 0.000000 0.000000 
#    y 0.000000 1.608020 0.000000 
#    z 0.000000 0.000000 1.676980 
# 
# From -- ./inp_files/67246.got.cif
#   From: 2010.05.17/outbox.cif.g08.bks.cpg/sg65_34_cif.got.tgz:67246.got - 2010.06.03 17:01:31.
