data_PCOD9492731
_publ_section_title
;
Structure prediction by ZEFSAII (Michael W. Deem and Ramdas Pophale) SiO2 
 PCOD9492731
Probable space group: C M M M
;
_chemical_formula_sum "Si O2"
_cell_formula_units_Z 64
_cell_length_a 24.471991
_cell_length_b 15.885562
_cell_length_c 8.759494
_cell_angle_alpha 90.000000
_cell_angle_beta 90.000000
_cell_angle_gamma 90.000000
_cell_volume 3405.264945
_symmetry_space_group_name_H-M "C M M M"
_symmetry_group_IT_number 65
_symmetry_cell_setting 'orthorhombic'
loop_
_space_group_symop_operation_xyz
x,y,z
-x,-y,z
x,-y,-z
-x,y,-z
-x,-y,-z
x,y,-z
-x,y,z
x,-y,z
1/2+x,1/2+y,z
1/2-x,1/2-y,z
1/2+x,1/2-y,-z
1/2-x,1/2+y,-z
1/2-x,1/2-y,-z
1/2+x,1/2+y,-z
1/2-x,1/2+y,z
1/2+x,1/2-y,z
loop_
_atom_site_type_symbol
_atom_site_label
_atom_site_fract_x
_atom_site_fract_y
_atom_site_fract_z
Si Si1 0.584008 0.500000 0.183154
Si Si2 0.000000 0.129707 0.317903
Si Si3 0.787746 0.000000 0.817168
Si Si4 0.500000 0.184528 0.183930
Si Si5 0.224683 0.339587 0.682909
Si Si6 0.614266 0.902077 0.816131
O O1 0.552426 0.580396 0.251108
O O2 0.647935 0.500000 0.220693
O O3 0.577899 0.500000 0.000000
O O4 0.000000 0.123164 0.500000
O O5 0.000000 0.225367 0.263704
O O6 0.758817 0.917089 0.751584
O O7 0.781739 0.000000 0.000000
O O8 0.554715 0.133461 0.223698
O O9 0.500000 0.196427 0.000000
O O10 0.226200 0.344874 0.500000
O O11 0.250000 0.250000 0.729963
O O12 0.162797 0.349927 0.740288
O O13 0.619311 0.000000 0.771590
O O14 0.619995 0.897699 0.000000
#
# Coordination Sequence:
#
# PCOD9492731 Si02
#       6
#     8   8   8   8  16  16
#     4  10  22  41  64  88 119 157 203 252 305 360
#     4  11  23  39  60  90 124 161 201 246 304 365
#     4  11  24  42  67  95 121 162 213 258 308 367
#     4  10  22  39  62  91 123 159 203 254 304 357
#     4  11  25  42  62  92 130 167 203 251 314 376
#     4  10  21  40  65  91 120 158 205 254 304 360
#
# _framework density 18.794425
#
# number of rings (size 3 to 8) (size 9 to 14) (size 15 to 20)
#    0.000    1.500    1.250    3.750    3.500    6.500 
#    0.000    0.000    0.000    2.250    0.000    0.000 
#    0.000    0.000    0.000    0.000    0.000    0.000 
#
# Total GULP energy -178919.347638 kJ/mol
# GULP energy per Si atom -5591.229614 kJ/mol
# Density = 1.875165 g / cm^3
# Si number density = 18.794425 Si / 1000 Ang^3
#
#
#
# Elastic Constant Matrix: (Units=GPa)
#
#
# Indices 1 2 3 4 5 6 
#
# 1 185.6124 87.1436 61.6809 0.0000 0.0000 0.0000
# 2 87.1436 153.0256 47.4740 0.0000 0.0000 0.0000
# 3 61.6809 47.4740 51.2475 0.0000 0.0000 0.0000
# 4 0.0000 0.0000 0.0000 21.4940 0.0000 0.0000
# 5 0.0000 0.0000 0.0000 0.0000 -60.4104 0.0000
# 6 0.0000 0.0000 0.0000 0.0000 0.0000 -15.5103
#
#
#
# Elastic Compliance Matrix: (Units=1/GPa)
#
#
# Indices 1 2 3 4 5 6 
#
# 1 0.009698 -0.002668 -0.009200 0.000000 0.000000 0.000000
# 2 -0.002668 0.009905 -0.005964 0.000000 0.000000 0.000000
# 3 -0.009200 -0.005964 0.036111 0.000000 0.000000 0.000000
# 4 0.000000 0.000000 0.000000 0.046525 0.000000 0.000000
# 5 0.000000 0.000000 0.000000 0.000000 -0.016553 0.000000
# 6 0.000000 0.000000 0.000000 0.000000 0.000000 -0.064473
#
#
# Mechanical properties :
#
#
# Convention : Reuss Voigt Hill
#
# Bulk Modulus (GPa) = 49.87836 86.94250 68.41043
# Shear Modulus (GPa) = 78.66868 2.02047 40.34458
#
# Velocity S-wave (km/s) = 6.47675 1.03797 4.63819
# Velocity P-wave (km/s) = 9.08447 6.91351 8.07231
#
# Compressibility (1/GPa) = 0.02004877
#
# Stress axis : x y z
#
# Youngs Moduli (GPa) = 103.11834 100.96394 27.69256
#
# Poissons Ratio (x) = 0.26940 0.25477
# Poissons Ratio (y) = 0.27515 0.16515
# Poissons Ratio (z) = 0.94870 0.60212
#
# Static dielectric constant tensor:
#      x y z
#    x 1.632420 0.000000 0.000000 
#    y 0.000000 1.619280 0.000000 
#    z 0.000000 0.000000 1.630750 
# 
# From -- ./inp_files/13410.got.cif
#   From: 2010.05.17/outbox.cif.g08.bks.cpg/sg65_7_cif.got.tgz:13410.got - 2010.06.03 17:01:31.
