data_PCOD9492611
_publ_section_title
;
Structure prediction by ZEFSAII (Michael W. Deem and Ramdas Pophale) SiO2 
 PCOD9492611
Probable space group: C M M M
;
_chemical_formula_sum "Si O2"
_cell_formula_units_Z 52
_cell_length_a 20.331668
_cell_length_b 17.443068
_cell_length_c 7.308847
_cell_angle_alpha 90.000000
_cell_angle_beta 90.000000
_cell_angle_gamma 90.000000
_cell_volume 2592.058232
_symmetry_space_group_name_H-M "C M M M"
_symmetry_group_IT_number 65
_symmetry_cell_setting 'orthorhombic'
loop_
_space_group_symop_operation_xyz
x,y,z
-x,-y,z
x,-y,-z
-x,y,-z
-x,-y,-z
x,y,-z
-x,y,z
x,-y,z
1/2+x,1/2+y,z
1/2-x,1/2-y,z
1/2+x,1/2-y,-z
1/2-x,1/2+y,-z
1/2-x,1/2-y,-z
1/2+x,1/2+y,-z
1/2-x,1/2+y,z
1/2+x,1/2-y,z
loop_
_atom_site_type_symbol
_atom_site_label
_atom_site_fract_x
_atom_site_fract_y
_atom_site_fract_z
Si Si1 0.379221 0.086881 0.222020
Si Si2 0.500000 0.195571 0.779175
Si Si3 0.000000 0.832006 0.500000
Si Si4 0.359331 0.408701 0.500000
Si Si5 0.259531 0.340045 0.218402
O O1 0.435972 0.146053 0.274867
O O2 0.307119 0.116097 0.275013
O O3 0.391588 0.000000 0.283764
O O4 0.380152 0.085747 0.000000
O O5 0.500000 0.275511 0.674854
O O6 0.500000 0.205002 0.000000
O O7 0.065646 0.882013 0.500000
O O8 0.353900 0.500000 0.500000
O O9 0.320839 0.373843 0.326364
O O10 0.250000 0.250000 0.257270
O O11 0.267914 0.348622 0.000000
#
# Coordination Sequence:
#
# PCOD9492611 Si02
#       5
#    16   8   4   8  16
#     4   9  17  32  57  89 123 156 190 232 287 352
#     4  10  21  39  61  85 119 159 193 235 292 351
#     4  12  27  44  61  84 110 148 208 258 297 354
#     4  12  26  43  63  86 118 158 200 252 307 353
#     4  10  21  39  64  93 123 157 199 244 293 354
#
# _framework density 20.061278000000001
#
# number of rings (size 3 to 8) (size 9 to 14) (size 15 to 20)
#    0.000    1.846    0.000    3.923    0.000    8.615 
#    0.000    3.077    0.000    2.769    0.000    0.000 
#    0.000    0.000    0.000    0.000    0.000    0.000 
#
# Total GULP energy -145448.155599 kJ/mol
# GULP energy per Si atom -5594.159831 kJ/mol
# Density = 2.001562 g / cm^3
# Si number density = 20.061278 Si / 1000 Ang^3
#
#
#
# Elastic Constant Matrix: (Units=GPa)
#
#
# Indices 1 2 3 4 5 6 
#
# 1 165.4442 63.1651 46.4340 0.0000 0.0000 0.0000
# 2 63.1651 139.8947 52.4054 0.0000 0.0000 0.0000
# 3 46.4340 52.4054 98.6824 0.0000 0.0000 0.0000
# 4 0.0000 0.0000 0.0000 434.4927 0.0000 0.0000
# 5 0.0000 0.0000 0.0000 0.0000 24.3379 0.0000
# 6 0.0000 0.0000 0.0000 0.0000 0.0000 47.5542
#
#
#
# Elastic Compliance Matrix: (Units=1/GPa)
#
#
# Indices 1 2 3 4 5 6 
#
# 1 0.007671 -0.002636 -0.002210 0.000000 0.000000 0.000000
# 2 -0.002636 0.009829 -0.003980 0.000000 0.000000 0.000000
# 3 -0.002210 -0.003980 0.013287 0.000000 0.000000 0.000000
# 4 0.000000 0.000000 0.000000 0.002302 0.000000 0.000000
# 5 0.000000 0.000000 0.000000 0.000000 0.041088 0.000000
# 6 0.000000 0.000000 0.000000 0.000000 0.000000 0.021029
#
#
# Mechanical properties :
#
#
# Convention : Reuss Voigt Hill
#
# Bulk Modulus (GPa) = 76.12348 80.89226 78.50787
# Shear Modulus (GPa) = 42.64985 117.41141 80.03063
#
# Velocity S-wave (km/s) = 4.61584 7.65855 6.32295
# Velocity P-wave (km/s) = 8.15081 10.89104 9.61900
#
# Compressibility (1/GPa) = 0.01313655
#
# Stress axis : x y z
#
# Youngs Moduli (GPa) = 130.36413 101.73893 75.26375
#
# Poissons Ratio (x) = 0.26816 0.16631
# Poissons Ratio (y) = 0.34361 0.29951
# Poissons Ratio (z) = 0.28807 0.40487
#
# Static dielectric constant tensor:
#      x y z
#    x 1.668020 0.000000 0.000000 
#    y 0.000000 1.665730 0.000000 
#    z 0.000000 0.000000 1.747130 
# 
# From -- ./inp_files/8422.got.cif
#   From: 2010.05.17/outbox.cif.g08.bks.cpg/sg65_5_cif.got.tgz:8422.got - 2010.06.03 17:01:31.
