data_PCOD9492085
_publ_section_title
;
Structure prediction by ZEFSAII (Michael W. Deem and Ramdas Pophale) SiO2 
 PCOD9492085
Probable space group: C M M M
;
_chemical_formula_sum "Si O2"
_cell_formula_units_Z 88
_cell_length_a 18.583227
_cell_length_b 8.404176
_cell_length_c 29.105868
_cell_angle_alpha 90.000000
_cell_angle_beta 90.000000
_cell_angle_gamma 90.000000
_cell_volume 4545.658716
_symmetry_space_group_name_H-M "C M M M"
_symmetry_group_IT_number 65
_symmetry_cell_setting 'orthorhombic'
loop_
_space_group_symop_operation_xyz
x,y,z
-x,-y,z
x,-y,-z
-x,y,-z
-x,-y,-z
x,y,-z
-x,y,z
x,-y,z
1/2+x,1/2+y,z
1/2-x,1/2-y,z
1/2+x,1/2-y,-z
1/2-x,1/2+y,-z
1/2-x,1/2-y,-z
1/2+x,1/2+y,-z
1/2-x,1/2+y,z
1/2+x,1/2-y,z
loop_
_atom_site_type_symbol
_atom_site_label
_atom_site_fract_x
_atom_site_fract_y
_atom_site_fract_z
Si Si1 0.917757 0.192128 0.861264
Si Si2 0.669044 0.809392 0.947943
Si Si3 0.582992 0.307490 0.319680
Si Si4 0.583104 0.805792 0.500000
Si Si5 0.668391 0.692472 0.771356
Si Si6 0.831851 0.690828 0.408878
O O1 0.883680 0.245761 0.909127
O O2 0.869572 0.247603 0.818341
O O3 0.000000 0.246809 0.856486
O O4 0.917931 0.000000 0.860155
O O5 0.750000 0.750000 0.938544
O O6 0.668925 0.000000 0.946830
O O7 0.650030 0.757592 0.000000
O O8 0.500000 0.253786 0.321000
O O9 0.582870 0.500000 0.319871
O O10 0.622703 0.255347 0.273003
O O11 0.626734 0.249236 0.363742
O O12 0.500000 0.753435 0.500000
O O13 0.625332 0.754203 0.454354
O O14 0.582568 0.000000 0.500000
O O15 0.668396 0.500000 0.771610
O O16 0.750000 0.750000 0.768503
O O17 0.831332 0.500000 0.408899
O O18 0.750000 0.750000 0.409370
#
# Coordination Sequence:
#
# PCOD9492085 Si02
#       6
#    16  16  16   8  16  16
#     4  10  21  37  57  81 110 145 184 225 271 324
#     4  10  21  37  57  81 110 144 182 225 273 325
#     4  10  21  38  59  83 113 147 183 226 276 328
#     4   9  19  36  57  81 110 145 184 229 280 328
#     4  10  21  37  57  81 110 145 183 224 272 324
#     4  11  22  37  58  83 113 148 187 229 274 327
#
# _framework density 19.359131000000001
#
# number of rings (size 3 to 8) (size 9 to 14) (size 15 to 20)
#    0.000    1.909    0.000    3.545    0.000    9.455 
#    0.000    3.182    0.000    6.545    0.000    0.000 
#    0.000    0.000    0.000    0.000    0.000    0.000 
#
# Total GULP energy -245882.308642 kJ/mol
# GULP energy per Si atom -5588.234287 kJ/mol
# Density = 1.931507 g / cm^3
# Si number density = 19.359131 Si / 1000 Ang^3
#
#
#
# Elastic Constant Matrix: (Units=GPa)
#
#
# Indices 1 2 3 4 5 6 
#
# 1 208.9230 24.0311 123.7743 0.0000 0.0000 0.0000
# 2 24.0311 12.4837 22.6493 0.0000 0.0000 0.0000
# 3 123.7743 22.6493 171.2976 0.0000 0.0000 0.0000
# 4 0.0000 0.0000 0.0000 23.0431 0.0000 0.0000
# 5 0.0000 0.0000 0.0000 0.0000 149.4625 0.0000
# 6 0.0000 0.0000 0.0000 0.0000 0.0000 25.6444
#
#
#
# Elastic Compliance Matrix: (Units=1/GPa)
#
#
# Indices 1 2 3 4 5 6 
#
# 1 0.008827 -0.007130 -0.005435 0.000000 0.000000 0.000000
# 2 -0.007130 0.111146 -0.009544 0.000000 0.000000 0.000000
# 3 -0.005435 -0.009544 0.011027 0.000000 0.000000 0.000000
# 4 0.000000 0.000000 0.000000 0.043397 0.000000 0.000000
# 5 0.000000 0.000000 0.000000 0.000000 0.006691 0.000000
# 6 0.000000 0.000000 0.000000 0.000000 0.000000 0.038995
#
#
# Mechanical properties :
#
#
# Convention : Reuss Voigt Hill
#
# Bulk Modulus (GPa) = 11.52328 81.51264 46.51796
# Shear Modulus (GPa) = 17.05168 54.44664 35.74916
#
# Velocity S-wave (km/s) = 2.97106 5.30901 4.30191
# Velocity P-wave (km/s) = 4.21128 8.93184 6.98257
#
# Compressibility (1/GPa) = 0.08678087
#
# Stress axis : x y z
#
# Youngs Moduli (GPa) = 113.29516 8.99721 90.68793
#
# Poissons Ratio (x) = 0.06415 0.49289
# Poissons Ratio (y) = 0.80783 0.86550
# Poissons Ratio (z) = 0.61576 0.08587
#
# Static dielectric constant tensor:
#      x y z
#    x 1.638000 0.000000 0.000000 
#    y 0.000000 1.637290 0.000000 
#    z 0.000000 0.000000 1.655540 
# 
# From -- ./inp_files/77924.got.cif
#   From: 2010.05.17/outbox.cif.g08.bks.cpg/sg65_39_cif.got.tgz:77924.got - 2010.06.03 17:01:31.
