data_PCOD9492208
_publ_section_title
;
Structure prediction by ZEFSAII (Michael W. Deem and Ramdas Pophale) SiO2 
 PCOD9492208
Probable space group: C M M M
;
_chemical_formula_sum "Si O2"
_cell_formula_units_Z 88
_cell_length_a 8.605940
_cell_length_b 21.717698
_cell_length_c 23.870603
_cell_angle_alpha 90.000000
_cell_angle_beta 90.000000
_cell_angle_gamma 90.000000
_cell_volume 4461.444487
_symmetry_space_group_name_H-M "C M M M"
_symmetry_group_IT_number 65
_symmetry_cell_setting 'orthorhombic'
loop_
_space_group_symop_operation_xyz
x,y,z
-x,-y,z
x,-y,-z
-x,y,-z
-x,-y,-z
x,y,-z
-x,y,z
x,-y,z
1/2+x,1/2+y,z
1/2-x,1/2-y,z
1/2+x,1/2-y,-z
1/2-x,1/2+y,-z
1/2-x,1/2-y,-z
1/2+x,1/2+y,-z
1/2-x,1/2+y,z
1/2+x,1/2-y,z
loop_
_atom_site_type_symbol
_atom_site_label
_atom_site_fract_x
_atom_site_fract_y
_atom_site_fract_z
Si Si1 0.675544 0.687063 0.681912
Si Si2 0.000000 0.567295 0.432880
Si Si3 0.824772 0.863346 0.435002
Si Si4 0.686302 0.569361 0.135777
Si Si5 0.185976 0.683812 0.065567
Si Si6 0.685758 0.932057 0.738225
O O1 0.500000 0.683713 0.702207
O O2 0.750000 0.750000 0.702464
O O3 0.673970 0.686589 0.614137
O O4 0.758647 0.625389 0.702127
O O5 0.833025 0.598740 0.421911
O O6 0.000000 0.500000 0.405959
O O7 0.000000 0.561961 0.500000
O O8 0.812115 0.842652 0.500000
O O9 0.000000 0.893441 0.430835
O O10 0.500000 0.572587 0.136617
O O11 0.730533 0.500000 0.115751
O O12 0.750929 0.625216 0.099080
O O13 0.749618 0.575021 0.198935
O O14 0.250000 0.750000 0.085873
O O15 0.000000 0.684891 0.069245
O O16 0.231075 0.678064 0.000000
O O17 0.500000 0.931560 0.739873
O O18 0.737567 0.000000 0.717558
#
# Coordination Sequence:
#
# PCOD9492208 Si02
#       6
#    16   8  16  16  16  16
#     4  11  24  40  61  88 119 153 195 247 299 356
#     4   9  18  32  54  82 112 150 191 233 282 346
#     4   9  20  38  57  82 118 156 195 243 300 359
#     4  10  21  38  61  88 119 155 198 247 296 351
#     4  10  21  37  58  86 122 162 203 247 295 349
#     4  10  22  41  64  88 117 154 196 244 299 359
#
# _framework density 19.724553
#
# number of rings (size 3 to 8) (size 9 to 14) (size 15 to 20)
#    0.000    2.091    0.000    2.182    2.545    5.818 
#    0.000    9.091    0.000    0.000    0.000    0.000 
#    0.000    0.000    0.000    0.000    0.000    0.000 
#
# Total GULP energy -245292.427995 kJ/mol
# GULP energy per Si atom -5574.827909 kJ/mol
# Density = 1.967966 g / cm^3
# Si number density = 19.724553 Si / 1000 Ang^3
#
#
#
# Elastic Constant Matrix: (Units=GPa)
#
#
# Indices 1 2 3 4 5 6 
#
# 1 107.5930 61.3263 27.5578 0.0000 0.0000 0.0000
# 2 61.3263 166.1823 70.9976 0.0000 0.0000 0.0000
# 3 27.5578 70.9976 64.0697 0.0000 0.0000 0.0000
# 4 0.0000 0.0000 0.0000 88.5318 0.0000 0.0000
# 5 0.0000 0.0000 0.0000 0.0000 26.1586 0.0000
# 6 0.0000 0.0000 0.0000 0.0000 0.0000 29.3548
#
#
#
# Elastic Compliance Matrix: (Units=1/GPa)
#
#
# Indices 1 2 3 4 5 6 
#
# 1 0.011778 -0.004144 -0.000474 0.000000 0.000000 0.000000
# 2 -0.004144 0.012886 -0.012496 0.000000 0.000000 0.000000
# 3 -0.000474 -0.012496 0.029660 0.000000 0.000000 0.000000
# 4 0.000000 0.000000 0.000000 0.011295 0.000000 0.000000
# 5 0.000000 0.000000 0.000000 0.000000 0.038228 0.000000
# 6 0.000000 0.000000 0.000000 0.000000 0.000000 0.034066
#
#
# Mechanical properties :
#
#
# Convention : Reuss Voigt Hill
#
# Bulk Modulus (GPa) = 49.76552 73.06759 61.41656
# Shear Modulus (GPa) = 27.95814 40.67327 34.31570
#
# Velocity S-wave (km/s) = 3.76896 4.54592 4.17555
# Velocity P-wave (km/s) = 6.65019 8.04228 7.37914
#
# Compressibility (1/GPa) = 0.02009423
#
# Stress axis : x y z
#
# Youngs Moduli (GPa) = 84.90716 77.60658 33.71595
#
# Poissons Ratio (x) = 0.32159 0.01598
# Poissons Ratio (y) = 0.35184 0.42133
# Poissons Ratio (z) = 0.04024 0.96981
#
# Static dielectric constant tensor:
#      x y z
#    x 1.708800 0.000000 0.000000 
#    y 0.000000 1.677120 0.000000 
#    z 0.000000 0.000000 1.686120 
# 
# From -- ./inp_files/67452.got.cif
#   From: 2010.05.17/outbox.cif.g08.bks.cpg/sg65_34_cif.got.tgz:67452.got - 2010.06.03 17:01:31.
