data_PCOD9492821
_publ_section_title
;
Structure prediction by ZEFSAII (Michael W. Deem and Ramdas Pophale) SiO2 
 PCOD9492821
Probable space group: C M M M
;
_chemical_formula_sum "Si O2"
_cell_formula_units_Z 66
_cell_length_a 7.695693
_cell_length_b 19.686292
_cell_length_c 21.085343
_cell_angle_alpha 90.000000
_cell_angle_beta 90.000000
_cell_angle_gamma 90.000000
_cell_volume 3194.422286
_symmetry_space_group_name_H-M "C M M M"
_symmetry_group_IT_number 65
_symmetry_cell_setting 'orthorhombic'
loop_
_space_group_symop_operation_xyz
x,y,z
-x,-y,z
x,-y,-z
-x,y,-z
-x,-y,-z
x,y,-z
-x,y,z
x,-y,z
1/2+x,1/2+y,z
1/2-x,1/2-y,z
1/2+x,1/2-y,-z
1/2-x,1/2+y,-z
1/2-x,1/2-y,-z
1/2+x,1/2+y,-z
1/2-x,1/2+y,z
1/2+x,1/2-y,z
loop_
_atom_site_type_symbol
_atom_site_label
_atom_site_fract_x
_atom_site_fract_y
_atom_site_fract_z
Si Si1 0.295386 0.076289 0.751545
Si Si2 0.500000 0.000000 0.000000
Si Si3 0.788606 0.121067 0.000000
Si Si4 0.291743 0.830119 0.500000
Si Si5 0.709831 0.829838 0.638597
Si Si6 0.204415 0.826057 0.862376
O O1 0.500000 0.069758 0.738067
O O2 0.221778 0.123730 0.695584
O O3 0.282522 0.116451 0.817441
O O4 0.222064 0.000000 0.754785
O O5 0.344330 0.058570 0.000000
O O6 0.750382 0.162556 0.935802
O O7 0.000000 0.104756 0.000000
O O8 0.500000 0.839422 0.500000
O O9 0.250000 0.750000 0.500000
O O10 0.226808 0.853933 0.431161
O O11 0.500000 0.833949 0.637906
O O12 0.750000 0.750000 0.647467
O O13 0.250000 0.750000 0.841602
O O14 0.000000 0.834051 0.856405
#
# Coordination Sequence:
#
# PCOD9492821 Si02
#       6
#    16   2   8   8  16  16
#     4  10  22  37  55  80 114 151 194 237 290 357
#     4  12  26  40  76  94 132 176 192 246 324 346
#     4  10  26  44  65 100 129 160 212 251 295 368
#     4   8  14  26  47  73 103 137 179 230 287 336
#     4   9  17  31  51  77 106 141 185 236 285 345
#     4  11  24  42  64  88 119 152 195 250 296 353
#
# _framework density 20.661013000000001
#
# number of rings (size 3 to 8) (size 9 to 14) (size 15 to 20)
#    0.000    2.182    0.000    2.000    5.091    3.394 
#    0.000    0.606    0.000    3.636    0.000    0.000 
#    0.000   11.636    0.000    0.000    0.000    0.000 
#
# Total GULP energy -183782.358137 kJ/mol
# GULP energy per Si atom -5569.162368 kJ/mol
# Density = 2.061399 g / cm^3
# Si number density = 20.661013 Si / 1000 Ang^3
#
#
#
# Elastic Constant Matrix: (Units=GPa)
#
#
# Indices 1 2 3 4 5 6 
#
# 1 37.6430 13.0694 7.0522 0.0000 0.0000 0.0000
# 2 13.0694 141.4445 74.5356 0.0000 0.0000 0.0000
# 3 7.0522 74.5356 161.0012 0.0000 0.0000 0.0000
# 4 0.0000 0.0000 0.0000 91.4118 0.0000 0.0000
# 5 0.0000 0.0000 0.0000 0.0000 21.5937 0.0000
# 6 0.0000 0.0000 0.0000 0.0000 0.0000 22.5259
#
#
#
# Elastic Compliance Matrix: (Units=1/GPa)
#
#
# Indices 1 2 3 4 5 6 
#
# 1 0.027446 -0.002516 -0.000037 0.000000 0.000000 0.000000
# 2 -0.002516 0.009582 -0.004326 0.000000 0.000000 0.000000
# 3 -0.000037 -0.004326 0.008215 0.000000 0.000000 0.000000
# 4 0.000000 0.000000 0.000000 0.010940 0.000000 0.000000
# 5 0.000000 0.000000 0.000000 0.000000 0.046310 0.000000
# 6 0.000000 0.000000 0.000000 0.000000 0.000000 0.044393
#
#
# Mechanical properties :
#
#
# Convention : Reuss Voigt Hill
#
# Bulk Modulus (GPa) = 31.76153 58.82255 45.29204
# Shear Modulus (GPa) = 29.21593 43.46838 36.34216
#
# Velocity S-wave (km/s) = 3.76448 4.59179 4.19856
# Velocity P-wave (km/s) = 5.85672 7.52627 6.74337
#
# Compressibility (1/GPa) = 0.03148462
#
# Stress axis : x y z
#
# Youngs Moduli (GPa) = 36.43515 104.36340 121.72324
#
# Poissons Ratio (x) = 0.26262 0.00453
# Poissons Ratio (y) = 0.09168 0.52654
# Poissons Ratio (z) = 0.00136 0.45145
#
# Static dielectric constant tensor:
#      x y z
#    x 1.765550 0.000000 0.000000 
#    y 0.000000 1.693460 0.000000 
#    z 0.000000 0.000000 1.784380 
# 
# From -- ./inp_files/59022.got.cif
#   From: 2010.05.17/outbox.cif.g08.bks.cpg/sg65_30_cif.got.tgz:59022.got - 2010.06.03 17:01:31.
