data_PCOD9492258
_publ_section_title
;
Structure prediction by ZEFSAII (Michael W. Deem and Ramdas Pophale) SiO2 
 PCOD9492258
Probable space group: C M M M
;
_chemical_formula_sum "Si O2"
_cell_formula_units_Z 90
_cell_length_a 19.125537
_cell_length_b 21.357176
_cell_length_c 11.285300
_cell_angle_alpha 90.000000
_cell_angle_beta 90.000000
_cell_angle_gamma 90.000000
_cell_volume 4609.677824
_symmetry_space_group_name_H-M "C M M M"
_symmetry_group_IT_number 65
_symmetry_cell_setting 'orthorhombic'
loop_
_space_group_symop_operation_xyz
x,y,z
-x,-y,z
x,-y,-z
-x,y,-z
-x,-y,-z
x,y,-z
-x,y,z
x,-y,z
1/2+x,1/2+y,z
1/2-x,1/2-y,z
1/2+x,1/2-y,-z
1/2-x,1/2+y,-z
1/2-x,1/2-y,-z
1/2+x,1/2+y,-z
1/2-x,1/2+y,z
1/2+x,1/2-y,z
loop_
_atom_site_type_symbol
_atom_site_label
_atom_site_fract_x
_atom_site_fract_y
_atom_site_fract_z
Si Si1 0.671196 0.867765 0.748741
Si Si2 0.353625 0.000000 0.134987
Si Si3 0.351933 0.573791 0.500000
Si Si4 0.921231 0.926327 0.245164
Si Si5 0.816685 0.832906 0.861473
Si Si6 0.000000 0.500000 0.000000
Si Si7 0.225694 0.675389 0.500000
Si Si8 0.421599 0.227833 0.143153
O O1 0.740865 0.839054 0.807484
O O2 0.680635 0.845553 0.614142
O O3 0.602340 0.838122 0.806594
O O4 0.668973 0.939957 0.787993
O O5 0.436385 0.000000 0.102036
O O6 0.320675 0.000000 0.000000
O O7 0.326674 0.500000 0.500000
O O8 0.397751 0.581914 0.618361
O O9 0.292340 0.627337 0.500000
O O10 0.863619 0.893185 0.165407
O O11 0.000000 0.902212 0.225246
O O12 0.921529 0.000000 0.221281
O O13 0.864038 0.776744 0.812099
O O14 0.808240 0.823019 0.000000
O O15 0.250000 0.750000 0.500000
O O16 0.500000 0.244672 0.178302
O O17 0.419406 0.226357 0.000000
#
# Coordination Sequence:
#
# PCOD9492258 Si02
#       8
#    16   8   8  16  16   2   8  16
#     4  12  25  41  68  96 134 174 229 281 350 408
#     4  10  24  43  75 109 134 179 226 295 357 436
#     4  10  21  40  66  86 117 171 227 285 329 399
#     4  10  21  37  59  87 120 166 215 263 322 393
#     4  11  22  37  59  93 130 164 212 272 337 413
#     4   8  24  48  76 110 148 172 246 288 388 436
#     4  12  26  43  66  96 140 184 229 290 362 419
#     4  10  22  40  65  90 123 171 219 273 342 417
#
# _framework density 19.524142000000001
#
# number of rings (size 3 to 8) (size 9 to 14) (size 15 to 20)
#    0.267    1.067    1.778    4.000    3.733    3.911 
#    0.000    1.333    0.000    0.533    0.000    0.000 
#    0.000    0.000    0.000    0.000    0.000    0.000 
#
# Total GULP energy -250809.414242 kJ/mol
# GULP energy per Si atom -5573.542539 kJ/mol
# Density = 1.947970 g / cm^3
# Si number density = 19.524142 Si / 1000 Ang^3
#
#
#
# Elastic Constant Matrix: (Units=GPa)
#
#
# Indices 1 2 3 4 5 6 
#
# 1 93.9851 31.6476 31.0355 0.0000 0.0000 0.0000
# 2 31.6476 108.6235 33.8838 0.0000 0.0000 0.0000
# 3 31.0355 33.8838 37.8765 0.0000 0.0000 0.0000
# 4 0.0000 0.0000 0.0000 24.5122 0.0000 0.0000
# 5 0.0000 0.0000 0.0000 0.0000 16.9655 0.0000
# 6 0.0000 0.0000 0.0000 0.0000 0.0000 59.8105
#
#
#
# Elastic Compliance Matrix: (Units=1/GPa)
#
#
# Indices 1 2 3 4 5 6 
#
# 1 0.014628 -0.000725 -0.011337 0.000000 0.000000 0.000000
# 2 -0.000725 0.012805 -0.010861 0.000000 0.000000 0.000000
# 3 -0.011337 -0.010861 0.045407 0.000000 0.000000 0.000000
# 4 0.000000 0.000000 0.000000 0.040796 0.000000 0.000000
# 5 0.000000 0.000000 0.000000 0.000000 0.058943 0.000000
# 6 0.000000 0.000000 0.000000 0.000000 0.000000 0.016719
#
#
# Mechanical properties :
#
#
# Convention : Reuss Voigt Hill
#
# Bulk Modulus (GPa) = 37.04600 48.17988 42.61294
# Shear Modulus (GPa) = 20.47968 29.85219 25.16594
#
# Velocity S-wave (km/s) = 3.24225 3.91447 3.59411
# Velocity P-wave (km/s) = 5.74734 6.72022 6.25273
#
# Compressibility (1/GPa) = 0.02699347
#
# Stress axis : x y z
#
# Youngs Moduli (GPa) = 68.36243 78.09148 22.02290
#
# Poissons Ratio (x) = 0.05665 0.24967
# Poissons Ratio (y) = 0.04959 0.23920
# Poissons Ratio (z) = 0.77502 0.84817
#
# Static dielectric constant tensor:
#      x y z
#    x 1.668100 0.000000 0.000000 
#    y 0.000000 1.737130 0.000000 
#    z 0.000000 0.000000 1.695110 
# 
# From -- ./inp_files/26886.got.cif
#   From: 2010.05.17/outbox.cif.g08.bks.cpg/sg65_14_cif.got.tgz:26886.got - 2010.06.03 17:01:31.
