data_PCOD9492433
_publ_section_title
;
Structure prediction by ZEFSAII (Michael W. Deem and Ramdas Pophale) SiO2 
 PCOD9492433
Probable space group: C M M M
;
_chemical_formula_sum "Si O2"
_cell_formula_units_Z 104
_cell_length_a 26.924524
_cell_length_b 23.887655
_cell_length_c 8.583177
_cell_angle_alpha 90.000000
_cell_angle_beta 90.000000
_cell_angle_gamma 90.000000
_cell_volume 5520.388223
_symmetry_space_group_name_H-M "C M M M"
_symmetry_group_IT_number 65
_symmetry_cell_setting 'orthorhombic'
loop_
_space_group_symop_operation_xyz
x,y,z
-x,-y,z
x,-y,-z
-x,y,-z
-x,-y,-z
x,y,-z
-x,y,z
x,-y,z
1/2+x,1/2+y,z
1/2-x,1/2-y,z
1/2+x,1/2-y,-z
1/2-x,1/2+y,-z
1/2-x,1/2-y,-z
1/2+x,1/2+y,-z
1/2-x,1/2+y,z
1/2+x,1/2-y,z
loop_
_atom_site_type_symbol
_atom_site_label
_atom_site_fract_x
_atom_site_fract_y
_atom_site_fract_z
Si Si1 0.943018 0.566727 0.826787
Si Si2 0.823049 0.063279 0.686334
Si Si3 0.211936 0.563423 0.814315
Si Si4 0.942210 0.259458 0.311613
Si Si5 0.370468 0.141825 0.322256
Si Si6 0.908090 0.139655 0.186841
Si Si7 0.000000 0.063054 0.189532
O O1 0.942020 0.500000 0.820755
O O2 0.911325 0.593111 0.691631
O O3 0.000000 0.584974 0.816937
O O4 0.923513 0.582904 0.000000
O O5 0.826644 0.066177 0.500000
O O6 0.765872 0.069254 0.736995
O O7 0.856956 0.111247 0.760196
O O8 0.838987 0.000000 0.736083
O O9 0.192824 0.500000 0.773177
O O10 0.176281 0.613899 0.762864
O O11 0.217253 0.564542 0.000000
O O12 0.943220 0.263021 0.500000
O O13 0.901715 0.305443 0.256489
O O14 0.922122 0.199169 0.259871
O O15 0.000000 0.267444 0.258676
O O16 0.356548 0.154011 0.500000
O O17 0.951328 0.096764 0.236887
O O18 0.908798 0.144983 0.000000
O O19 0.000000 0.000000 0.248342
O O20 0.000000 0.061384 0.000000
#
# Coordination Sequence:
#
# PCOD9492433 Si02
#       7
#    16  16  16  16  16  16   8
#     4   9  18  32  49  72 104 140 179 230 290 346
#     4  10  21  38  61  89 120 153 187 227 282 346
#     4  10  21  38  60  86 116 150 189 238 293 344
#     4  10  22  40  58  78 113 157 197 240 288 339
#     4  11  22  35  54  80 109 147 193 239 289 343
#     4  11  21  36  59  87 118 153 192 234 282 336
#     4   9  18  32  53  85 121 149 178 223 276 331
#
# _framework density 18.839255000000001
#
# number of rings (size 3 to 8) (size 9 to 14) (size 15 to 20)
#    0.000    1.923    0.769    3.692    0.000    6.769 
#    0.000    1.538    0.000    6.462    0.000    0.000 
#    0.000    0.000    0.000    0.000    0.000    0.000 
#
# Total GULP energy -290070.596535 kJ/mol
# GULP energy per Si atom -5578.280703 kJ/mol
# Density = 1.879638 g / cm^3
# Si number density = 18.839255 Si / 1000 Ang^3
#
#
#
# Elastic Constant Matrix: (Units=GPa)
#
#
# Indices 1 2 3 4 5 6 
#
# 1 82.8546 56.1808 10.8338 0.0000 0.0000 0.0000
# 2 56.1808 108.4643 13.6597 0.0000 0.0000 0.0000
# 3 10.8338 13.6597 20.8721 0.0000 0.0000 0.0000
# 4 0.0000 0.0000 0.0000 24.0996 0.0000 0.0000
# 5 0.0000 0.0000 0.0000 0.0000 23.4138 0.0000
# 6 0.0000 0.0000 0.0000 0.0000 0.0000 31.9274
#
#
#
# Elastic Compliance Matrix: (Units=1/GPa)
#
#
# Indices 1 2 3 4 5 6 
#
# 1 0.018862 -0.009304 -0.003702 0.000000 0.000000 0.000000
# 2 -0.009304 0.014637 -0.004750 0.000000 0.000000 0.000000
# 3 -0.003702 -0.004750 0.052941 0.000000 0.000000 0.000000
# 4 0.000000 0.000000 0.000000 0.041494 0.000000 0.000000
# 5 0.000000 0.000000 0.000000 0.000000 0.042710 0.000000
# 6 0.000000 0.000000 0.000000 0.000000 0.000000 0.031321
#
#
# Mechanical properties :
#
#
# Convention : Reuss Voigt Hill
#
# Bulk Modulus (GPa) = 19.63513 41.50440 30.56976
# Shear Modulus (GPa) = 19.65011 24.65593 22.15302
#
# Velocity S-wave (km/s) = 3.23312 3.62159 3.43286
# Velocity P-wave (km/s) = 4.93786 6.29020 5.65460
#
# Compressibility (1/GPa) = 0.05092914
#
# Stress axis : x y z
#
# Youngs Moduli (GPa) = 53.01720 68.32112 18.88901
#
# Poissons Ratio (x) = 0.63563 0.06992
# Poissons Ratio (y) = 0.49325 0.08972
# Poissons Ratio (z) = 0.19625 0.32452
#
# Static dielectric constant tensor:
#      x y z
#    x 1.649310 0.000000 0.000000 
#    y 0.000000 1.652420 0.000000 
#    z 0.000000 0.000000 1.670850 
# 
# From -- ./inp_files/16744.got.cif
#   From: 2010.05.17/outbox.cif.g08.bks.cpg/sg65_9_cif.got.tgz:16744.got - 2010.06.03 17:01:31.
