data_PCOD9492963
_publ_section_title
;
Structure prediction by ZEFSAII (Michael W. Deem and Ramdas Pophale) SiO2 
 PCOD9492963
Probable space group: C M M M
;
_chemical_formula_sum "Si O2"
_cell_formula_units_Z 104
_cell_length_a 21.479596
_cell_length_b 17.558909
_cell_length_c 14.326542
_cell_angle_alpha 90.000000
_cell_angle_beta 90.000000
_cell_angle_gamma 90.000000
_cell_volume 5403.373818
_symmetry_space_group_name_H-M "C M M M"
_symmetry_group_IT_number 65
_symmetry_cell_setting 'orthorhombic'
loop_
_space_group_symop_operation_xyz
x,y,z
-x,-y,z
x,-y,-z
-x,y,-z
-x,-y,-z
x,y,-z
-x,y,z
x,-y,z
1/2+x,1/2+y,z
1/2-x,1/2-y,z
1/2+x,1/2-y,-z
1/2-x,1/2+y,-z
1/2-x,1/2-y,-z
1/2+x,1/2+y,-z
1/2-x,1/2+y,z
1/2+x,1/2-y,z
loop_
_atom_site_type_symbol
_atom_site_label
_atom_site_fract_x
_atom_site_fract_y
_atom_site_fract_z
Si Si1 0.867085 0.160237 0.388619
Si Si2 0.726227 0.414233 0.262158
Si Si3 0.428097 0.908744 0.603706
Si Si4 0.344863 0.810314 0.733611
Si Si5 0.500000 0.411875 0.613508
Si Si6 0.881160 0.083919 0.890547
Si Si7 0.569169 0.252799 0.110733
O O1 0.865529 0.170303 0.500000
O O2 0.816655 0.099201 0.353060
O O3 0.848771 0.236799 0.333639
O O4 0.936340 0.131599 0.360444
O O5 0.752865 0.500000 0.263464
O O6 0.777760 0.348705 0.256096
O O7 0.678906 0.408472 0.175118
O O8 0.406216 0.884965 0.500000
O O9 0.500000 0.884650 0.612443
O O10 0.387335 0.872660 0.683092
O O11 0.426434 0.000000 0.607109
O O12 0.376800 0.786559 0.830386
O O13 0.500000 0.500000 0.645762
O O14 0.500000 0.414114 0.500000
O O15 0.924470 0.156352 0.874008
O O16 0.909027 0.000000 0.872451
O O17 0.863610 0.086462 0.000000
O O18 0.500000 0.227857 0.140541
O O19 0.575487 0.239077 0.000000
#
# Coordination Sequence:
#
# PCOD9492963 Si02
#       7
#    16  16  16  16   8  16  16
#     4  11  24  39  59  89 123 157 199 251 303 360
#     4  11  24  41  59  84 117 158 207 248 295 359
#     4   9  19  36  58  84 114 152 202 255 303 352
#     4  12  23  37  59  87 120 161 200 251 301 359
#     4   9  20  40  62  84 114 156 198 235 292 366
#     4   9  19  38  62  87 117 152 195 248 299 355
#     4  10  22  39  61  92 125 157 196 246 310 373
#
# _framework density 19.247233999999999
#
# number of rings (size 3 to 8) (size 9 to 14) (size 15 to 20)
#    0.000    1.769    1.538    2.769    2.154    3.692 
#    0.000    3.077    0.000    1.385    0.000    5.385 
#    0.000    0.000    0.000    0.000    0.000    0.000 
#
# Total GULP energy -290364.031506 kJ/mol
# GULP energy per Si atom -5583.923683 kJ/mol
# Density = 1.920343 g / cm^3
# Si number density = 19.247234 Si / 1000 Ang^3
#
#
#
# Elastic Constant Matrix: (Units=GPa)
#
#
# Indices 1 2 3 4 5 6 
#
# 1 92.8468 46.1031 35.4297 0.0000 0.0000 0.0000
# 2 46.1031 67.5981 21.9600 0.0000 0.0000 0.0000
# 3 35.4297 21.9600 75.5194 0.0000 0.0000 0.0000
# 4 0.0000 0.0000 0.0000 29.8786 0.0000 0.0000
# 5 0.0000 0.0000 0.0000 0.0000 117.8696 0.0000
# 6 0.0000 0.0000 0.0000 0.0000 0.0000 220.1282
#
#
#
# Elastic Compliance Matrix: (Units=1/GPa)
#
#
# Indices 1 2 3 4 5 6 
#
# 1 0.018087 -0.010579 -0.005410 0.000000 0.000000 0.000000
# 2 -0.010579 0.022524 -0.001587 0.000000 0.000000 0.000000
# 3 -0.005410 -0.001587 0.016241 0.000000 0.000000 0.000000
# 4 0.000000 0.000000 0.000000 0.033469 0.000000 0.000000
# 5 0.000000 0.000000 0.000000 0.000000 0.008484 0.000000
# 6 0.000000 0.000000 0.000000 0.000000 0.000000 0.004543
#
#
# Mechanical properties :
#
#
# Convention : Reuss Voigt Hill
#
# Bulk Modulus (GPa) = 46.07804 49.21664 47.64734
# Shear Modulus (GPa) = 34.30975 82.40672 58.35824
#
# Velocity S-wave (km/s) = 4.22664 6.55040 5.51236
# Velocity P-wave (km/s) = 6.91458 9.10146 8.08233
#
# Compressibility (1/GPa) = 0.02170231
#
# Stress axis : x y z
#
# Youngs Moduli (GPa) = 55.28683 44.39800 61.57301
#
# Poissons Ratio (x) = 0.46967 0.33308
# Poissons Ratio (y) = 0.58486 0.09769
# Poissons Ratio (z) = 0.29908 0.07044
#
# Static dielectric constant tensor:
#      x y z
#    x 1.665010 0.000000 0.000000 
#    y 0.000000 1.692070 0.000000 
#    z 0.000000 0.000000 1.661980 
# 
# From -- ./inp_files/44438.got.cif
#   From: 2010.05.17/outbox.cif.g08.bks.cpg/sg65_23_cif.got.tgz:44438.got - 2010.06.03 17:01:31.
