data_PCOD9492456
_publ_section_title
;
Structure prediction by ZEFSAII (Michael W. Deem and Ramdas Pophale) SiO2 
 PCOD9492456
Probable space group: C M M M
;
_chemical_formula_sum "Si O2"
_cell_formula_units_Z 96
_cell_length_a 8.646415
_cell_length_b 26.065769
_cell_length_c 24.059529
_cell_angle_alpha 90.000000
_cell_angle_beta 90.000000
_cell_angle_gamma 90.000000
_cell_volume 5422.427321
_symmetry_space_group_name_H-M "C M M M"
_symmetry_group_IT_number 65
_symmetry_cell_setting 'orthorhombic'
loop_
_space_group_symop_operation_xyz
x,y,z
-x,-y,z
x,-y,-z
-x,y,-z
-x,-y,-z
x,y,-z
-x,y,z
x,-y,z
1/2+x,1/2+y,z
1/2-x,1/2-y,z
1/2+x,1/2-y,-z
1/2-x,1/2+y,-z
1/2-x,1/2-y,-z
1/2+x,1/2+y,-z
1/2-x,1/2+y,z
1/2+x,1/2-y,z
loop_
_atom_site_type_symbol
_atom_site_label
_atom_site_fract_x
_atom_site_fract_y
_atom_site_fract_z
Si Si1 0.686461 0.194011 0.063905
Si Si2 0.188218 0.500000 0.436519
Si Si3 0.685555 0.560209 0.250886
Si Si4 0.184453 0.000000 0.065704
Si Si5 0.185397 0.806692 0.435759
Si Si6 0.185911 0.404285 0.866437
Si Si7 0.314138 0.099445 0.366129
O O1 0.500000 0.195777 0.064494
O O2 0.750000 0.250000 0.078569
O O3 0.736186 0.149253 0.105594
O O4 0.734716 0.182550 0.000000
O O5 0.242545 0.500000 0.500000
O O6 0.236596 0.449082 0.403823
O O7 0.000000 0.500000 0.437329
O O8 0.500000 0.561662 0.251677
O O9 0.733684 0.500000 0.252299
O O10 0.746471 0.585475 0.194390
O O11 0.751374 0.588897 0.304648
O O12 0.256937 0.950181 0.094263
O O13 0.000000 0.000000 0.075276
O O14 0.213759 0.000000 0.000000
O O15 0.229124 0.819142 0.500000
O O16 0.250000 0.750000 0.423725
O O17 0.252289 0.849063 0.394481
O O18 0.000000 0.805950 0.432355
O O19 0.000000 0.405047 0.863653
O O20 0.500000 0.100599 0.364958
#
# Coordination Sequence:
#
# PCOD9492456 Si02
#       7
#    16   8  16   8  16  16  16
#     4   9  19  36  58  85 115 148 185 228 281 338
#     4   9  18  31  51  82 115 144 178 225 280 337
#     4  11  23  39  58  81 115 154 195 240 288 344
#     4  11  23  36  53  82 117 150 186 231 288 349
#     4  10  21  38  60  87 119 155 194 238 292 349
#     4  11  22  37  59  84 113 148 193 240 286 342
#     4  11  21  36  59  85 116 152 195 239 286 344
#
# _framework density 17.704248
#
# number of rings (size 3 to 8) (size 9 to 14) (size 15 to 20)
#    0.000    1.667    1.667    3.250    0.000    5.000 
#    0.000    2.500    0.000    4.000    0.000    0.000 
#    0.000    0.000    0.000    0.000    0.000    0.000 
#
# Total GULP energy -268183.349354 kJ/mol
# GULP energy per Si atom -5587.153112 kJ/mol
# Density = 1.766395 g / cm^3
# Si number density = 17.704248 Si / 1000 Ang^3
#
#
#
# Elastic Constant Matrix: (Units=GPa)
#
#
# Indices 1 2 3 4 5 6 
#
# 1 52.2033 48.8318 55.2724 0.0000 0.0000 0.0000
# 2 48.8318 167.1900 114.9362 0.0000 0.0000 0.0000
# 3 55.2724 114.9362 155.7406 0.0000 0.0000 0.0000
# 4 0.0000 0.0000 0.0000 19.3291 0.0000 0.0000
# 5 0.0000 0.0000 0.0000 0.0000 29.1965 0.0000
# 6 0.0000 0.0000 0.0000 0.0000 0.0000 28.9358
#
#
#
# Elastic Compliance Matrix: (Units=1/GPa)
#
#
# Indices 1 2 3 4 5 6 
#
# 1 0.031444 -0.003070 -0.008894 0.000000 0.000000 0.000000
# 2 -0.003070 0.012440 -0.008092 0.000000 0.000000 0.000000
# 3 -0.008894 -0.008092 0.015549 0.000000 0.000000 0.000000
# 4 0.000000 0.000000 0.000000 0.051735 0.000000 0.000000
# 5 0.000000 0.000000 0.000000 0.000000 0.034251 0.000000
# 6 0.000000 0.000000 0.000000 0.000000 0.000000 0.034559
#
#
# Mechanical properties :
#
#
# Convention : Reuss Voigt Hill
#
# Bulk Modulus (GPa) = 51.75192 90.35719 71.05456
# Shear Modulus (GPa) = 22.07202 25.89852 23.98527
#
# Velocity S-wave (km/s) = 3.53471 3.82886 3.68472
# Velocity P-wave (km/s) = 6.77891 8.40801 7.63703
#
# Compressibility (1/GPa) = 0.01932295
#
# Stress axis : x y z
#
# Youngs Moduli (GPa) = 31.80215 80.38332 64.31266
#
# Poissons Ratio (x) = 0.24675 0.57201
# Poissons Ratio (y) = 0.09762 0.52039
# Poissons Ratio (z) = 0.28286 0.65043
#
# Static dielectric constant tensor:
#      x y z
#    x 1.597750 0.000000 0.000000 
#    y 0.000000 1.549610 0.000000 
#    z 0.000000 0.000000 1.582050 
# 
# From -- ./inp_files/67869.got.cif
#   From: 2010.05.17/outbox.cif.g08.bks.cpg/sg65_34_cif.got.tgz:67869.got - 2010.06.03 17:01:31.
