data_PCOD9492151
_publ_section_title
;
Structure prediction by ZEFSAII (Michael W. Deem and Ramdas Pophale) SiO2 
 PCOD9492151
Probable space group: C M M M
;
_chemical_formula_sum "Si O2"
_cell_formula_units_Z 104
_cell_length_a 25.354116
_cell_length_b 20.818433
_cell_length_c 8.768344
_cell_angle_alpha 90.000000
_cell_angle_beta 90.000000
_cell_angle_gamma 90.000000
_cell_volume 4628.221014
_symmetry_space_group_name_H-M "C M M M"
_symmetry_group_IT_number 65
_symmetry_cell_setting 'orthorhombic'
loop_
_space_group_symop_operation_xyz
x,y,z
-x,-y,z
x,-y,-z
-x,y,-z
-x,-y,-z
x,y,-z
-x,y,z
x,-y,z
1/2+x,1/2+y,z
1/2-x,1/2-y,z
1/2+x,1/2-y,-z
1/2-x,1/2+y,-z
1/2-x,1/2-y,-z
1/2+x,1/2+y,-z
1/2-x,1/2+y,z
1/2+x,1/2-y,z
loop_
_atom_site_type_symbol
_atom_site_label
_atom_site_fract_x
_atom_site_fract_y
_atom_site_fract_z
Si Si1 0.442818 0.388854 0.819735
Si Si2 0.061430 0.391456 0.831849
Si Si3 0.440672 0.924568 0.500000
Si Si4 0.833783 0.075971 0.667582
Si Si5 0.097614 0.248712 0.829595
Si Si6 0.724770 0.074305 0.819694
Si Si7 0.800095 0.292635 0.320339
O O1 0.500000 0.412137 0.765161
O O2 0.391257 0.412263 0.734201
O O3 0.439064 0.311999 0.803005
O O4 0.438690 0.404291 0.000000
O O5 0.084253 0.410282 0.665904
O O6 0.065645 0.314646 0.829905
O O7 0.000000 0.412373 0.830297
O O8 0.083180 0.412680 0.000000
O O9 0.500000 0.893857 0.500000
O O10 0.446537 0.000000 0.500000
O O11 0.826964 0.106360 0.500000
O O12 0.785274 0.092181 0.776745
O O13 0.829249 0.000000 0.651351
O O14 0.146384 0.254341 0.715695
O O15 0.120841 0.240830 0.000000
O O16 0.694907 0.136830 0.755785
O O17 0.713667 0.000000 0.763852
O O18 0.718226 0.072604 0.000000
O O19 0.793942 0.302769 0.500000
O O20 0.750000 0.250000 0.266526
#
# Coordination Sequence:
#
# PCOD9492151 Si02
#       7
#    16  16   8  16  16  16  16
#     4  10  21  37  58  85 117 154 198 246 294 347
#     4   9  18  34  56  81 111 147 186 232 285 341
#     4   9  18  32  52  80 109 140 183 227 272 333
#     4  10  21  37  57  83 118 157 195 238 291 351
#     4  10  21  37  58  82 111 147 189 238 291 347
#     4  10  21  39  64  90 116 152 201 251 300 359
#     4  11  24  39  58  87 121 154 193 242 297 360
#
# _framework density 22.470838000000001
#
# number of rings (size 3 to 8) (size 9 to 14) (size 15 to 20)
#    0.000    2.077    0.000    2.769    1.077    8.923 
#    0.000    3.846    0.000    0.923    0.000    0.000 
#    0.000    0.000    0.000    0.000    0.000    0.000 
#
# Total GULP energy -290093.151951 kJ/mol
# GULP energy per Si atom -5578.714461 kJ/mol
# Density = 2.241969 g / cm^3
# Si number density = 22.470838 Si / 1000 Ang^3
#
#
#
# Elastic Constant Matrix: (Units=GPa)
#
#
# Indices 1 2 3 4 5 6 
#
# 1 80.2708 1.7751 17.9159 0.0000 0.0000 0.0000
# 2 1.7751 44.1288 28.3988 0.0000 0.0000 0.0000
# 3 17.9159 28.3988 110.6676 0.0000 0.0000 0.0000
# 4 0.0000 0.0000 0.0000 26.4900 0.0000 0.0000
# 5 0.0000 0.0000 0.0000 0.0000 -82.5443 0.0000
# 6 0.0000 0.0000 0.0000 0.0000 0.0000 4.0554
#
#
#
# Elastic Compliance Matrix: (Units=1/GPa)
#
#
# Indices 1 2 3 4 5 6 
#
# 1 0.012961 0.000993 -0.002353 0.000000 0.000000 0.000000
# 2 0.000993 0.027220 -0.007146 0.000000 0.000000 0.000000
# 3 -0.002353 -0.007146 0.011251 0.000000 0.000000 0.000000
# 4 0.000000 0.000000 0.000000 0.037750 0.000000 0.000000
# 5 0.000000 0.000000 0.000000 0.000000 -0.012115 0.000000
# 6 0.000000 0.000000 0.000000 0.000000 0.000000 0.246582
#
#
# Mechanical properties :
#
#
# Convention : Reuss Voigt Hill
#
# Bulk Modulus (GPa) = 29.05313 36.80521 32.92917
# Shear Modulus (GPa) = 14.19915 2.06539 8.13227
#
# Velocity S-wave (km/s) = 2.51647 0.95976 1.90444
# Velocity P-wave (km/s) = 4.62611 4.20034 4.41835
#
# Compressibility (1/GPa) = 0.03441970
#
# Stress axis : x y z
#
# Youngs Moduli (GPa) = 77.15420 36.73833 88.88360
#
# Poissons Ratio (x) = -0.03648 0.20915
# Poissons Ratio (y) = -0.07661 0.63513
# Poissons Ratio (z) = 0.18155 0.26252
#
# Static dielectric constant tensor:
#      x y z
#    x 1.909350 0.000000 0.000000 
#    y 0.000000 1.846080 0.000000 
#    z 0.000000 0.000000 1.875210 
# 
# From -- ./inp_files/16441.got.cif
#   From: 2010.05.17/outbox.cif.g08.bks.cpg/sg65_9_cif.got.tgz:16441.got - 2010.06.03 17:01:31.
