data_PCOD9492830
_publ_section_title
;
Structure prediction by ZEFSAII (Michael W. Deem and Ramdas Pophale) SiO2 
 PCOD9492830
Probable space group: C M M M
;
_chemical_formula_sum "Si O2"
_cell_formula_units_Z 96
_cell_length_a 15.693794
_cell_length_b 10.957166
_cell_length_c 28.920140
_cell_angle_alpha 90.000000
_cell_angle_beta 90.000000
_cell_angle_gamma 90.000000
_cell_volume 4973.092989
_symmetry_space_group_name_H-M "C M M M"
_symmetry_group_IT_number 65
_symmetry_cell_setting 'orthorhombic'
loop_
_space_group_symop_operation_xyz
x,y,z
-x,-y,z
x,-y,-z
-x,y,-z
-x,-y,-z
x,y,-z
-x,y,z
x,-y,z
1/2+x,1/2+y,z
1/2-x,1/2-y,z
1/2+x,1/2-y,-z
1/2-x,1/2+y,-z
1/2-x,1/2-y,-z
1/2+x,1/2+y,-z
1/2-x,1/2+y,z
1/2+x,1/2-y,z
loop_
_atom_site_type_symbol
_atom_site_label
_atom_site_fract_x
_atom_site_fract_y
_atom_site_fract_z
Si Si1 0.323236 0.645698 0.103872
Si Si2 0.149169 0.740617 0.447514
Si Si3 0.898975 0.132193 0.693582
Si Si4 0.500000 0.647438 0.947124
Si Si5 0.102252 0.629584 0.356281
Si Si6 0.688719 0.363744 0.212222
Si Si7 0.600064 0.500000 0.551828
O O1 0.301778 0.500000 0.092913
O O2 0.250000 0.750000 0.094717
O O3 0.411136 0.679977 0.077994
O O4 0.340168 0.647763 0.159102
O O5 0.114909 0.725997 0.500000
O O6 0.250000 0.750000 0.450595
O O7 0.120512 0.642231 0.410743
O O8 0.121821 0.871347 0.426921
O O9 0.862002 0.251957 0.669358
O O10 0.882930 0.141004 0.748439
O O11 0.000000 0.130429 0.684428
O O12 0.864231 0.000000 0.678130
O O13 0.500000 0.500000 0.947807
O O14 0.500000 0.691874 0.000000
O O15 0.135823 0.500000 0.338825
O O16 0.000000 0.629754 0.350238
O O17 0.728936 0.500000 0.216209
O O18 0.750000 0.250000 0.221322
O O19 0.500000 0.500000 0.546866
O O20 0.640910 0.500000 0.500000
#
# Coordination Sequence:
#
# PCOD9492830 Si02
#       7
#    16  16  16   8  16  16   8
#     4   9  18  33  54  80 114 152 193 245 294 346
#     4  10  22  37  56  80 106 134 169 215 264 313
#     4   9  19  35  55  77 101 133 174 217 260 315
#     4   9  18  32  53  83 115 155 205 249 294 347
#     4  10  22  38  55  77 106 138 171 209 260 322
#     4   9  18  32  52  79 107 138 178 223 276 329
#     4   9  18  34  56  80 103 133 173 213 254 306
#
# _framework density 19.303882000000002
#
# number of rings (size 3 to 8) (size 9 to 14) (size 15 to 20)
#    0.000    2.667    0.000    0.500    3.500    3.000 
#    0.000    2.917    0.000    0.500    0.000    0.000 
#    0.000    0.000    0.000    0.000    0.000    0.000 
#
# Total GULP energy -267267.111907 kJ/mol
# GULP energy per Si atom -5568.064831 kJ/mol
# Density = 1.925995 g / cm^3
# Si number density = 19.303882 Si / 1000 Ang^3
#
#
#
# Elastic Constant Matrix: (Units=GPa)
#
#
# Indices 1 2 3 4 5 6 
#
# 1 50.2244 45.2557 25.2791 0.0000 0.0000 0.0000
# 2 45.2557 159.0755 56.4942 0.0000 0.0000 0.0000
# 3 25.2791 56.4942 73.8464 0.0000 0.0000 0.0000
# 4 0.0000 0.0000 0.0000 15.4889 0.0000 0.0000
# 5 0.0000 0.0000 0.0000 0.0000 18.1815 0.0000
# 6 0.0000 0.0000 0.0000 0.0000 0.0000 1348.1312
#
#
#
# Elastic Compliance Matrix: (Units=1/GPa)
#
#
# Indices 1 2 3 4 5 6 
#
# 1 0.027954 -0.006253 -0.004785 0.000000 0.000000 0.000000
# 2 -0.006253 0.010030 -0.005533 0.000000 0.000000 0.000000
# 3 -0.004785 -0.005533 0.019412 0.000000 0.000000 0.000000
# 4 0.000000 0.000000 0.000000 0.064562 0.000000 0.000000
# 5 0.000000 0.000000 0.000000 0.000000 0.055001 0.000000
# 6 0.000000 0.000000 0.000000 0.000000 0.000000 0.000742
#
#
# Mechanical properties :
#
#
# Convention : Reuss Voigt Hill
#
# Bulk Modulus (GPa) = 41.23049 59.68938 50.45994
# Shear Modulus (GPa) = 22.83850 286.76814 154.80332
#
# Velocity S-wave (km/s) = 3.44336 12.20152 8.96476
# Velocity P-wave (km/s) = 6.10033 15.14896 11.54783
#
# Compressibility (1/GPa) = 0.02425390
#
# Stress axis : x y z
#
# Youngs Moduli (GPa) = 35.77337 99.69876 51.51334
#
# Poissons Ratio (x) = 0.62343 0.24651
# Poissons Ratio (y) = 0.22370 0.28501
# Poissons Ratio (z) = 0.17119 0.55161
#
# Static dielectric constant tensor:
#      x y z
#    x 1.646570 0.000000 0.000000 
#    y 0.000000 1.731430 0.000000 
#    z 0.000000 0.000000 1.688030 
# 
# From -- ./inp_files/77614.got.cif
#   From: 2010.05.17/outbox.cif.g08.bks.cpg/sg65_39_cif.got.tgz:77614.got - 2010.06.03 17:01:31.
