data_PCOD9492105
_publ_section_title
;
Structure prediction by ZEFSAII (Michael W. Deem and Ramdas Pophale) SiO2 
 PCOD9492105
Probable space group: C M M M
;
_chemical_formula_sum "Si O2"
_cell_formula_units_Z 88
_cell_length_a 8.160766
_cell_length_b 18.983049
_cell_length_c 29.831546
_cell_angle_alpha 90.000000
_cell_angle_beta 90.000000
_cell_angle_gamma 90.000000
_cell_volume 4621.390369
_symmetry_space_group_name_H-M "C M M M"
_symmetry_group_IT_number 65
_symmetry_cell_setting 'orthorhombic'
loop_
_space_group_symop_operation_xyz
x,y,z
-x,-y,z
x,-y,-z
-x,y,-z
-x,-y,-z
x,y,-z
-x,y,z
x,-y,z
1/2+x,1/2+y,z
1/2-x,1/2-y,z
1/2+x,1/2-y,-z
1/2-x,1/2+y,-z
1/2-x,1/2-y,-z
1/2+x,1/2+y,-z
1/2-x,1/2+y,z
1/2+x,1/2-y,z
loop_
_atom_site_type_symbol
_atom_site_label
_atom_site_fract_x
_atom_site_fract_y
_atom_site_fract_z
Si Si1 0.801923 0.169174 0.828684
Si Si2 0.697924 0.419476 0.086315
Si Si3 0.697117 0.580642 0.644025
Si Si4 0.697999 0.330474 0.271559
Si Si5 0.694464 0.831108 0.000000
Si Si6 0.802918 0.583012 0.548422
O O1 0.750000 0.250000 0.836693
O O2 0.742949 0.118414 0.868216
O O3 0.746357 0.148209 0.778524
O O4 0.000000 0.167454 0.828853
O O5 0.500000 0.421876 0.088280
O O6 0.757121 0.500000 0.082136
O O7 0.744219 0.372346 0.043826
O O8 0.500000 0.578443 0.646441
O O9 0.758653 0.500000 0.645596
O O10 0.758853 0.623075 0.687041
O O11 0.741243 0.612695 0.595524
O O12 0.500000 0.333998 0.271579
O O13 0.750000 0.250000 0.278010
O O14 0.750000 0.750000 0.000000
O O15 0.500000 0.832161 0.000000
O O16 0.747079 0.612391 0.500000
O O17 0.754933 0.500000 0.548535
O O18 0.000000 0.585704 0.548971
#
# Coordination Sequence:
#
# PCOD9492105 Si02
#       6
#    16  16  16  16   8  16
#     4   9  18  33  53  75  99 131 169 206 244 290
#     4  10  21  37  57  82 111 140 171 210 256 303
#     4   9  17  28  44  68  95 121 152 194 241 287
#     4   9  18  32  49  70  97 129 164 200 240 288
#     4  12  25  40  59  81 107 141 179 216 255 300
#     4   8  14  25  41  62  89 120 153 190 234 285
#
# _framework density 19.041889000000001
#
# number of rings (size 3 to 8) (size 9 to 14) (size 15 to 20)
#    0.000    2.727    0.000    2.182    0.000    5.455 
#    0.000    5.455    0.000    0.545    0.000    7.636 
#    0.000    0.000    0.000    0.000    0.000    0.000 
#
# Total GULP energy -245250.987297 kJ/mol
# GULP energy per Si atom -5573.886075 kJ/mol
# Density = 1.899855 g / cm^3
# Si number density = 19.041889 Si / 1000 Ang^3
#
#
#
# Elastic Constant Matrix: (Units=GPa)
#
#
# Indices 1 2 3 4 5 6 
#
# 1 9.1292 8.7193 15.8558 0.0000 0.0000 0.0000
# 2 8.7193 95.5695 106.8475 0.0000 0.0000 0.0000
# 3 15.8558 106.8475 226.2081 0.0000 0.0000 0.0000
# 4 0.0000 0.0000 0.0000 34.7738 0.0000 0.0000
# 5 0.0000 0.0000 0.0000 0.0000 7.1026 0.0000
# 6 0.0000 0.0000 0.0000 0.0000 0.0000 19.7227
#
#
#
# Elastic Compliance Matrix: (Units=1/GPa)
#
#
# Indices 1 2 3 4 5 6 
#
# 1 0.125246 -0.003416 -0.007166 0.000000 0.000000 0.000000
# 2 -0.003416 0.022266 -0.010278 0.000000 0.000000 0.000000
# 3 -0.007166 -0.010278 0.009777 0.000000 0.000000 0.000000
# 4 0.000000 0.000000 0.000000 0.028757 0.000000 0.000000
# 5 0.000000 0.000000 0.000000 0.000000 0.140794 0.000000
# 6 0.000000 0.000000 0.000000 0.000000 0.000000 0.050703
#
#
# Mechanical properties :
#
#
# Convention : Reuss Voigt Hill
#
# Bulk Modulus (GPa) = 8.65265 65.97242 37.31253
# Shear Modulus (GPa) = 10.92217 25.61876 18.27046
#
# Velocity S-wave (km/s) = 2.39756 3.67193 3.10092
# Velocity P-wave (km/s) = 3.49547 7.25938 5.69723
#
# Compressibility (1/GPa) = 0.11557155
#
# Stress axis : x y z
#
# Youngs Moduli (GPa) = 7.98429 44.91233 102.27565
#
# Poissons Ratio (x) = 0.15340 0.73287
# Poissons Ratio (y) = 0.02727 1.05114
# Poissons Ratio (z) = 0.05721 0.46159
#
# Static dielectric constant tensor:
#      x y z
#    x 1.672180 0.000000 0.000000 
#    y 0.000000 1.617530 0.000000 
#    z 0.000000 0.000000 1.700710 
# 
# From -- ./inp_files/76647.got.cif
#   From: 2010.05.17/outbox.cif.g08.bks.cpg/sg65_39_cif.got.tgz:76647.got - 2010.06.03 17:01:31.
