data_PCOD9492432
_publ_section_title
;
Structure prediction by ZEFSAII (Michael W. Deem and Ramdas Pophale) SiO2 
 PCOD9492432
Probable space group: C M M M
;
_chemical_formula_sum "Si O2"
_cell_formula_units_Z 56
_cell_length_a 8.868344
_cell_length_b 28.167316
_cell_length_c 11.691341
_cell_angle_alpha 90.000000
_cell_angle_beta 90.000000
_cell_angle_gamma 90.000000
_cell_volume 2920.467144
_symmetry_space_group_name_H-M "C M M M"
_symmetry_group_IT_number 65
_symmetry_cell_setting 'orthorhombic'
loop_
_space_group_symop_operation_xyz
x,y,z
-x,-y,z
x,-y,-z
-x,y,-z
-x,-y,-z
x,y,-z
-x,y,z
x,-y,z
1/2+x,1/2+y,z
1/2-x,1/2-y,z
1/2+x,1/2-y,-z
1/2-x,1/2+y,-z
1/2-x,1/2-y,-z
1/2+x,1/2+y,-z
1/2-x,1/2+y,z
1/2+x,1/2-y,z
loop_
_atom_site_type_symbol
_atom_site_label
_atom_site_fract_x
_atom_site_fract_y
_atom_site_fract_z
Si Si1 0.834838 0.053900 0.136128
Si Si2 0.326865 0.880102 0.284089
Si Si3 0.684287 0.943955 0.500000
Si Si4 0.680122 0.697602 0.129977
O O1 0.695558 0.082967 0.181299
O O2 0.000000 0.074216 0.171479
O O3 0.827636 0.000000 0.178032
O O4 0.835062 0.053098 0.000000
O O5 0.500000 0.867554 0.306100
O O6 0.269367 0.911663 0.391123
O O7 0.240601 0.834639 0.233701
O O8 0.500000 0.945831 0.500000
O O9 0.733331 0.000000 0.500000
O O10 0.500000 0.700221 0.135580
O O11 0.750000 0.750000 0.138038
O O12 0.718269 0.679231 0.000000
#
# Coordination Sequence:
#
# PCOD9492432 Si02
#       4
#    16  16   8  16
#     4   9  18  32  49  72 105 141 175 218 275 333
#     4  11  21  34  55  80 107 143 187 230 275 328
#     4   9  20  38  56  77 110 151 192 235 278 317
#     4  10  21  38  60  86 116 146 178 222 277 335
#
# _framework density 19.175013
#
# number of rings (size 3 to 8) (size 9 to 14) (size 15 to 20)
#    0.000    2.143    0.000    4.286    0.000    7.429 
#    0.000    5.000    0.000    5.143    0.000    0.000 
#    0.000    0.000    0.000    0.000    0.000    0.000 
#
# Total GULP energy -155909.173459 kJ/mol
# GULP energy per Si atom -5568.184766 kJ/mol
# Density = 1.913137 g / cm^3
# Si number density = 19.175013 Si / 1000 Ang^3
#
#
#
# Elastic Constant Matrix: (Units=GPa)
#
#
# Indices 1 2 3 4 5 6 
#
# 1 42.0358 35.6112 28.2126 0.0000 0.0000 0.0000
# 2 35.6112 112.2692 64.3154 0.0000 0.0000 0.0000
# 3 28.2126 64.3154 88.9927 0.0000 0.0000 0.0000
# 4 0.0000 0.0000 0.0000 39.6371 0.0000 0.0000
# 5 0.0000 0.0000 0.0000 0.0000 17.5954 0.0000
# 6 0.0000 0.0000 0.0000 0.0000 0.0000 33.6698
#
#
#
# Elastic Compliance Matrix: (Units=1/GPa)
#
#
# Indices 1 2 3 4 5 6 
#
# 1 0.033818 -0.007825 -0.005066 0.000000 0.000000 0.000000
# 2 -0.007825 0.017011 -0.009813 0.000000 0.000000 0.000000
# 3 -0.005066 -0.009813 0.019935 0.000000 0.000000 0.000000
# 4 0.000000 0.000000 0.000000 0.025229 0.000000 0.000000
# 5 0.000000 0.000000 0.000000 0.000000 0.056833 0.000000
# 6 0.000000 0.000000 0.000000 0.000000 0.000000 0.029700
#
#
# Mechanical properties :
#
#
# Convention : Reuss Voigt Hill
#
# Bulk Modulus (GPa) = 39.43855 55.50846 47.47350
# Shear Modulus (GPa) = 21.15184 25.85770 23.50477
#
# Velocity S-wave (km/s) = 3.32489 3.67619 3.50494
# Velocity P-wave (km/s) = 5.94577 6.85787 6.41804
#
# Compressibility (1/GPa) = 0.02535590
#
# Stress axis : x y z
#
# Youngs Moduli (GPa) = 29.56986 58.78641 50.16319
#
# Poissons Ratio (x) = 0.45999 0.25413
# Poissons Ratio (y) = 0.23138 0.49226
# Poissons Ratio (z) = 0.14981 0.57688
#
# Static dielectric constant tensor:
#      x y z
#    x 1.710620 0.000000 0.000000 
#    y 0.000000 1.690410 0.000000 
#    z 0.000000 0.000000 1.699830 
# 
# From -- ./inp_files/20435.got.cif
#   From: 2010.05.17/outbox.cif.g08.bks.cpg/sg65_11_cif.got.tgz:20435.got - 2010.06.03 17:01:31.
