data_PCOD9492745
_publ_section_title
;
Structure prediction by ZEFSAII (Michael W. Deem and Ramdas Pophale) SiO2 
 PCOD9492745
Probable space group: C M M M
;
_chemical_formula_sum "Si O2"
_cell_formula_units_Z 82
_cell_length_a 21.383421
_cell_length_b 23.543977
_cell_length_c 8.211896
_cell_angle_alpha 90.000000
_cell_angle_beta 90.000000
_cell_angle_gamma 90.000000
_cell_volume 4134.285382
_symmetry_space_group_name_H-M "C M M M"
_symmetry_group_IT_number 65
_symmetry_cell_setting 'orthorhombic'
loop_
_space_group_symop_operation_xyz
x,y,z
-x,-y,z
x,-y,-z
-x,y,-z
-x,-y,-z
x,y,-z
-x,y,z
x,-y,z
1/2+x,1/2+y,z
1/2-x,1/2-y,z
1/2+x,1/2-y,-z
1/2-x,1/2+y,-z
1/2-x,1/2-y,-z
1/2+x,1/2+y,-z
1/2-x,1/2+y,z
1/2+x,1/2-y,z
loop_
_atom_site_type_symbol
_atom_site_label
_atom_site_fract_x
_atom_site_fract_y
_atom_site_fract_z
Si Si1 0.567780 0.933194 0.500000
Si Si2 0.633666 0.114540 0.813510
Si Si3 0.073773 0.738600 0.807113
Si Si4 0.500000 0.416954 0.181804
Si Si5 0.615053 0.644693 0.312705
Si Si6 0.000000 0.000000 0.500000
Si Si7 0.226374 0.066816 0.808522
O O1 0.500000 0.904631 0.500000
O O2 0.601264 0.917609 0.333389
O O3 0.561973 0.000000 0.500000
O O4 0.611109 0.179414 0.789799
O O5 0.706519 0.097771 0.797650
O O6 0.615302 0.098638 0.000000
O O7 0.113472 0.788208 0.721803
O O8 0.000000 0.735815 0.752306
O O9 0.071752 0.750557 0.000000
O O10 0.438430 0.379405 0.196703
O O11 0.500000 0.452853 0.349578
O O12 0.500000 0.442575 0.000000
O O13 0.597631 0.636497 0.500000
O O14 0.676351 0.606916 0.279854
O O15 0.228098 0.000000 0.752900
O O16 0.209630 0.065001 0.000000
#
# Coordination Sequence:
#
# PCOD9492745 Si02
#       7
#     8  16  16   8  16   2  16
#     4  11  24  40  64 101 136 175 224 275 336 402
#     4  10  23  44  69  99 134 176 224 276 335 405
#     4  10  21  40  68  97 131 176 222 275 345 406
#     4  12  25  45  67  94 139 177 224 293 343 406
#     4  12  25  41  63  98 135 177 230 281 340 407
#     4  12  26  44  60 106 124 176 242 256 360 402
#     4  10  23  43  67  94 129 180 231 277 339 403
#
# _framework density 19.834142
#
# number of rings (size 3 to 8) (size 9 to 14) (size 15 to 20)
#    0.000    1.268    1.951    3.073    4.098    3.512 
#    0.000    4.878    0.000    0.000    0.000    0.000 
#    0.000    0.000    0.000    0.000    0.000    0.000 
#
# Total GULP energy -228299.244649 kJ/mol
# GULP energy per Si atom -5568.274260 kJ/mol
# Density = 1.978900 g / cm^3
# Si number density = 19.834142 Si / 1000 Ang^3
#
#
#
# Elastic Constant Matrix: (Units=GPa)
#
#
# Indices 1 2 3 4 5 6 
#
# 1 90.4210 55.7257 53.7730 0.0000 0.0000 0.0000
# 2 55.7257 132.3348 67.7107 0.0000 0.0000 0.0000
# 3 53.7730 67.7107 129.5966 0.0000 0.0000 0.0000
# 4 0.0000 0.0000 0.0000 226.4886 0.0000 0.0000
# 5 0.0000 0.0000 0.0000 0.0000 9.9098 0.0000
# 6 0.0000 0.0000 0.0000 0.0000 0.0000 36.8242
#
#
#
# Elastic Compliance Matrix: (Units=1/GPa)
#
#
# Indices 1 2 3 4 5 6 
#
# 1 0.016602 -0.004731 -0.004417 0.000000 0.000000 0.000000
# 2 -0.004731 0.011662 -0.004130 0.000000 0.000000 0.000000
# 3 -0.004417 -0.004130 0.011707 0.000000 0.000000 0.000000
# 4 0.000000 0.000000 0.000000 0.004415 0.000000 0.000000
# 5 0.000000 0.000000 0.000000 0.000000 0.100910 0.000000
# 6 0.000000 0.000000 0.000000 0.000000 0.000000 0.027156
#
#
# Mechanical properties :
#
#
# Convention : Reuss Voigt Hill
#
# Bulk Modulus (GPa) = 74.54413 78.53013 76.53713
# Shear Modulus (GPa) = 24.57256 66.32070 45.44663
#
# Velocity S-wave (km/s) = 3.52362 5.78880 4.79198
# Velocity P-wave (km/s) = 7.36342 9.18475 8.32405
#
# Compressibility (1/GPa) = 0.01341487
#
# Stress axis : x y z
#
# Youngs Moduli (GPa) = 60.23503 85.74843 85.42162
#
# Poissons Ratio (x) = 0.40568 0.37727
# Poissons Ratio (y) = 0.28498 0.35279
# Poissons Ratio (z) = 0.26603 0.35414
#
# Static dielectric constant tensor:
#      x y z
#    x 1.677630 0.000000 0.000000 
#    y 0.000000 1.745540 0.000000 
#    z 0.000000 0.000000 1.914440 
# 
# From -- ./inp_files/11647.got.cif
#   From: 2010.05.17/outbox.cif.g08.bks.cpg/sg65_6_cif.got.tgz:11647.got - 2010.06.03 17:01:31.
