data_PCOD9492702
_publ_section_title
;
Structure prediction by ZEFSAII (Michael W. Deem and Ramdas Pophale) SiO2 
 PCOD9492702
Probable space group: C M M M
;
_chemical_formula_sum "Si O2"
_cell_formula_units_Z 84
_cell_length_a 23.770558
_cell_length_b 14.844436
_cell_length_c 11.429478
_cell_angle_alpha 90.000000
_cell_angle_beta 90.000000
_cell_angle_gamma 90.000000
_cell_volume 4033.011629
_symmetry_space_group_name_H-M "C M M M"
_symmetry_group_IT_number 65
_symmetry_cell_setting 'orthorhombic'
loop_
_space_group_symop_operation_xyz
x,y,z
-x,-y,z
x,-y,-z
-x,y,-z
-x,-y,-z
x,y,-z
-x,y,z
x,-y,z
1/2+x,1/2+y,z
1/2-x,1/2-y,z
1/2+x,1/2-y,-z
1/2-x,1/2+y,-z
1/2-x,1/2-y,-z
1/2+x,1/2+y,-z
1/2-x,1/2+y,z
1/2+x,1/2-y,z
loop_
_atom_site_type_symbol
_atom_site_label
_atom_site_fract_x
_atom_site_fract_y
_atom_site_fract_z
Si Si1 0.064623 0.650883 0.000000
Si Si2 0.234137 0.853909 0.000000
Si Si3 0.937634 0.280940 0.743733
Si Si4 0.718124 0.607502 0.257207
Si Si5 0.101805 0.104456 0.636838
Si Si6 0.662770 0.000000 0.000000
Si Si7 0.335428 0.106476 0.360387
O O1 0.070660 0.707683 0.118176
O O2 0.113155 0.577160 0.000000
O O3 0.000000 0.614547 0.000000
O O4 0.250000 0.750000 0.000000
O O5 0.203619 0.870889 0.876700
O O6 0.287697 0.921023 0.000000
O O7 0.933146 0.177462 0.706661
O O8 0.889595 0.338135 0.679114
O O9 0.000000 0.315611 0.713535
O O10 0.724002 0.500000 0.267164
O O11 0.666987 0.631760 0.341465
O O12 0.779475 0.642512 0.295062
O O13 0.088680 0.110390 0.500000
O O14 0.094917 0.000000 0.673096
O O15 0.327086 0.111459 0.500000
O O16 0.343226 0.000000 0.328632
#
# Coordination Sequence:
#
# PCOD9492702 Si02
#       7
#     8   8  16  16  16   4  16
#     4  10  25  44  69  98 129 175 219 270 339 400
#     4  12  26  37  59 100 134 177 217 265 333 381
#     4  11  25  43  64  95 130 166 222 281 332 392
#     4  10  21  40  61  91 130 164 211 266 321 399
#     4  10  23  43  68  94 126 176 227 274 331 395
#     4  12  23  44  68  96 138 174 223 266 308 404
#     4  10  22  39  62  92 127 169 209 261 335 402
#
# _framework density 20.828106999999999
#
# number of rings (size 3 to 8) (size 9 to 14) (size 15 to 20)
#    0.000    1.524    0.952    2.429    9.333    4.571 
#    0.000    5.238    0.000    1.714    0.000    0.000 
#    0.000    0.000    0.000    0.000    0.000    0.000 
#
# Total GULP energy -234214.990911 kJ/mol
# GULP energy per Si atom -5576.547403 kJ/mol
# Density = 2.078070 g / cm^3
# Si number density = 20.828107 Si / 1000 Ang^3
#
#
#
# Elastic Constant Matrix: (Units=GPa)
#
#
# Indices 1 2 3 4 5 6 
#
# 1 38.5317 38.9199 18.8686 0.0000 0.0000 0.0000
# 2 38.9199 93.9083 31.7346 0.0000 0.0000 0.0000
# 3 18.8686 31.7346 68.9684 0.0000 0.0000 0.0000
# 4 0.0000 0.0000 0.0000 22.8469 0.0000 0.0000
# 5 0.0000 0.0000 0.0000 0.0000 33.3689 0.0000
# 6 0.0000 0.0000 0.0000 0.0000 0.0000 13.7036
#
#
#
# Elastic Compliance Matrix: (Units=1/GPa)
#
#
# Indices 1 2 3 4 5 6 
#
# 1 0.045787 -0.017457 -0.004494 0.000000 0.000000 0.000000
# 2 -0.017457 0.019266 -0.004089 0.000000 0.000000 0.000000
# 3 -0.004494 -0.004089 0.017610 0.000000 0.000000 0.000000
# 4 0.000000 0.000000 0.000000 0.043770 0.000000 0.000000
# 5 0.000000 0.000000 0.000000 0.000000 0.029968 0.000000
# 6 0.000000 0.000000 0.000000 0.000000 0.000000 0.072974
#
#
# Mechanical properties :
#
#
# Convention : Reuss Voigt Hill
#
# Bulk Modulus (GPa) = 32.69832 42.27275 37.48553
# Shear Modulus (GPa) = 17.14399 21.44289 19.29344
#
# Velocity S-wave (km/s) = 2.87212 3.21209 3.04685
# Velocity P-wave (km/s) = 5.17029 5.83924 5.51492
#
# Compressibility (1/GPa) = 0.03058261
#
# Stress axis : x y z
#
# Youngs Moduli (GPa) = 21.84047 51.90614 56.78556
#
# Poissons Ratio (x) = 0.90615 0.25518
# Poissons Ratio (y) = 0.38128 0.23218
# Poissons Ratio (z) = 0.09814 0.21223
#
# Static dielectric constant tensor:
#      x y z
#    x 1.772190 0.000000 0.000000 
#    y 0.000000 1.744030 0.000000 
#    z 0.000000 0.000000 1.779980 
# 
# From -- ./inp_files/30580.got.cif
#   From: 2010.05.17/outbox.cif.g08.bks.cpg/sg65_16_cif.got.tgz:30580.got - 2010.06.03 17:01:31.
