data_PCOD9492071
_publ_section_title
;
Structure prediction by ZEFSAII (Michael W. Deem and Ramdas Pophale) SiO2 
 PCOD9492071
Probable space group: C M M M
;
_chemical_formula_sum "Si O2"
_cell_formula_units_Z 88
_cell_length_a 7.619120
_cell_length_b 18.814376
_cell_length_c 29.657437
_cell_angle_alpha 90.000000
_cell_angle_beta 90.000000
_cell_angle_gamma 90.000000
_cell_volume 4251.363595
_symmetry_space_group_name_H-M "C M M M"
_symmetry_group_IT_number 65
_symmetry_cell_setting 'orthorhombic'
loop_
_space_group_symop_operation_xyz
x,y,z
-x,-y,z
x,-y,-z
-x,y,-z
-x,-y,-z
x,y,-z
-x,y,z
x,-y,z
1/2+x,1/2+y,z
1/2-x,1/2-y,z
1/2+x,1/2-y,-z
1/2-x,1/2+y,-z
1/2-x,1/2-y,-z
1/2+x,1/2+y,-z
1/2-x,1/2+y,z
1/2+x,1/2-y,z
loop_
_atom_site_type_symbol
_atom_site_label
_atom_site_fract_x
_atom_site_fract_y
_atom_site_fract_z
Si Si1 0.791177 0.580608 0.413205
Si Si2 0.291617 0.666908 0.323275
Si Si3 0.210888 0.833380 0.049451
Si Si4 0.211370 0.333526 0.500000
Si Si5 0.713898 0.582628 0.136268
Si Si6 0.714315 0.417259 0.236436
O O1 0.720436 0.500000 0.411348
O O2 0.766021 0.622666 0.366813
O O3 0.721622 0.626465 0.455267
O O4 0.000000 0.574785 0.420043
O O5 0.500000 0.660416 0.321478
O O6 0.250000 0.750000 0.327071
O O7 0.221518 0.631561 0.277213
O O8 0.250000 0.750000 0.053251
O O9 0.279122 0.873673 0.093419
O O10 0.000000 0.842292 0.049046
O O11 0.276110 0.857587 0.000000
O O12 0.250000 0.250000 0.500000
O O13 0.000000 0.339016 0.500000
O O14 0.500000 0.586236 0.136169
O O15 0.760986 0.500000 0.131516
O O16 0.770938 0.606214 0.186298
O O17 0.500000 0.416136 0.236424
O O18 0.764570 0.500000 0.243039
#
# Coordination Sequence:
#
# PCOD9492071 Si02
#       6
#    16  16  16   8  16  16
#     4  10  21  38  59  81 106 137 172 209 251 298
#     4  11  22  35  52  76 105 135 170 210 251 296
#     4   9  17  28  43  65  92 121 153 191 236 285
#     4  10  21  37  57  81 109 140 171 206 248 294
#     4   8  14  26  45  68  92 119 155 199 243 285
#     4   8  15  29  48  69  94 125 160 199 245 295
#
# _framework density 20.69924
#
# number of rings (size 3 to 8) (size 9 to 14) (size 15 to 20)
#    0.000    2.727    0.000    3.000    0.000    5.455 
#    0.000    1.818    0.000    3.273    0.000    7.636 
#    0.000    0.000    0.000    0.000    0.000    0.000 
#
# Total GULP energy -245538.284535 kJ/mol
# GULP energy per Si atom -5580.415558 kJ/mol
# Density = 2.065213 g / cm^3
# Si number density = 20.699240 Si / 1000 Ang^3
#
#
#
# Elastic Constant Matrix: (Units=GPa)
#
#
# Indices 1 2 3 4 5 6 
#
# 1 43.2590 1.6278 6.1671 0.0000 0.0000 0.0000
# 2 1.6278 149.9073 135.9995 0.0000 0.0000 0.0000
# 3 6.1671 135.9995 251.4377 0.0000 0.0000 0.0000
# 4 0.0000 0.0000 0.0000 36.4751 0.0000 0.0000
# 5 0.0000 0.0000 0.0000 0.0000 82.2207 0.0000
# 6 0.0000 0.0000 0.0000 0.0000 0.0000 9.7911
#
#
#
# Elastic Compliance Matrix: (Units=1/GPa)
#
#
# Indices 1 2 3 4 5 6 
#
# 1 0.023218 0.000519 -0.000850 0.000000 0.000000 0.000000
# 2 0.000519 0.013110 -0.007104 0.000000 0.000000 0.000000
# 3 -0.000850 -0.007104 0.007840 0.000000 0.000000 0.000000
# 4 0.000000 0.000000 0.000000 0.027416 0.000000 0.000000
# 5 0.000000 0.000000 0.000000 0.000000 0.012162 0.000000
# 6 0.000000 0.000000 0.000000 0.000000 0.000000 0.102134
#
#
# Mechanical properties :
#
#
# Convention : Reuss Voigt Hill
#
# Bulk Modulus (GPa) = 34.13092 81.35477 57.74285
# Shear Modulus (GPa) = 23.75117 45.75134 34.75126
#
# Velocity S-wave (km/s) = 3.39107 4.70647 4.10184
# Velocity P-wave (km/s) = 5.64422 8.30199 7.09860
#
# Compressibility (1/GPa) = 0.02929895
#
# Stress axis : x y z
#
# Youngs Moduli (GPa) = 43.06953 76.27917 127.54685
#
# Poissons Ratio (x) = -0.03962 0.10847
# Poissons Ratio (y) = -0.02237 0.90605
# Poissons Ratio (z) = 0.03663 0.54186
#
# Static dielectric constant tensor:
#      x y z
#    x 1.802320 0.000000 0.000000 
#    y 0.000000 1.688110 0.000000 
#    z 0.000000 0.000000 1.755360 
# 
# From -- ./inp_files/76566.got.cif
#   From: 2010.05.17/outbox.cif.g08.bks.cpg/sg65_39_cif.got.tgz:76566.got - 2010.06.03 17:01:31.
