data_PCOD9492875
_publ_section_title
;
Structure prediction by ZEFSAII (Michael W. Deem and Ramdas Pophale) SiO2 
 PCOD9492875
Probable space group: C M M M
;
_chemical_formula_sum "Si O2"
_cell_formula_units_Z 112
_cell_length_a 13.983162
_cell_length_b 28.592467
_cell_length_c 14.640424
_cell_angle_alpha 90.000000
_cell_angle_beta 90.000000
_cell_angle_gamma 90.000000
_cell_volume 5853.433276
_symmetry_space_group_name_H-M "C M M M"
_symmetry_group_IT_number 65
_symmetry_cell_setting 'orthorhombic'
loop_
_space_group_symop_operation_xyz
x,y,z
-x,-y,z
x,-y,-z
-x,y,-z
-x,-y,-z
x,y,-z
-x,y,z
x,-y,z
1/2+x,1/2+y,z
1/2-x,1/2-y,z
1/2+x,1/2-y,-z
1/2-x,1/2+y,-z
1/2-x,1/2-y,-z
1/2+x,1/2+y,-z
1/2-x,1/2+y,z
1/2+x,1/2-y,z
loop_
_atom_site_type_symbol
_atom_site_label
_atom_site_fract_x
_atom_site_fract_y
_atom_site_fract_z
Si Si1 0.115584 0.685465 0.102305
Si Si2 0.387560 0.874231 0.724918
Si Si3 0.610684 0.713065 0.888820
Si Si4 0.384153 0.609353 0.108710
Si Si5 0.230315 0.303320 0.390371
Si Si6 0.392346 0.378023 0.608838
Si Si7 0.280782 0.555358 0.734473
O O1 0.131860 0.644758 0.173202
O O2 0.150096 0.736152 0.137514
O O3 0.000000 0.689813 0.095589
O O4 0.153114 0.677239 0.000000
O O5 0.500000 0.883536 0.713504
O O6 0.353930 0.831782 0.659238
O O7 0.319788 0.918953 0.713653
O O8 0.500000 0.712107 0.859098
O O9 0.649191 0.662128 0.863345
O O10 0.611167 0.714133 0.000000
O O11 0.500000 0.605985 0.122968
O O12 0.326073 0.573122 0.169919
O O13 0.368950 0.603759 0.000000
O O14 0.214128 0.303307 0.500000
O O15 0.250000 0.250000 0.361979
O O16 0.324023 0.334373 0.370239
O O17 0.390242 0.384740 0.500000
O O18 0.500000 0.368121 0.638326
O O19 0.352454 0.423374 0.659212
O O20 0.273017 0.500000 0.731950
#
# Coordination Sequence:
#
# PCOD9492875 Si02
#       7
#    16  16  16  16  16  16  16
#     4   8  14  27  49  76 105 137 175 219 264 312
#     4  10  22  38  56  79 107 145 192 236 277 321
#     4   7  11  23  45  72 101 133 165 198 246 310
#     4   9  18  33  53  79 113 148 179 218 275 344
#     4   9  19  36  58  87 122 153 179 209 252 317
#     4   9  19  37  60  85 112 140 172 215 269 328
#     4  11  24  39  55  76 103 138 185 240 292 338
#
# _framework density 19.134069
#
# number of rings (size 3 to 8) (size 9 to 14) (size 15 to 20)
#    0.000    3.000    0.000    2.143    0.000    5.714 
#    0.000    4.286    0.000    3.000    0.000    7.000 
#    0.000    0.000    0.000    0.000    0.000    0.000 
#
# Total GULP energy -312414.278757 kJ/mol
# GULP energy per Si atom -5578.826406 kJ/mol
# Density = 1.909052 g / cm^3
# Si number density = 19.134069 Si / 1000 Ang^3
#
#
#
# Elastic Constant Matrix: (Units=GPa)
#
#
# Indices 1 2 3 4 5 6 
#
# 1 75.5042 1.8062 13.7251 0.0000 0.0000 0.0000
# 2 1.8062 111.2675 22.6888 0.0000 0.0000 0.0000
# 3 13.7251 22.6888 50.1101 0.0000 0.0000 0.0000
# 4 0.0000 0.0000 0.0000 21.9583 0.0000 0.0000
# 5 0.0000 0.0000 0.0000 0.0000 21.5370 0.0000
# 6 0.0000 0.0000 0.0000 0.0000 0.0000 1.4125
#
#
#
# Elastic Compliance Matrix: (Units=1/GPa)
#
#
# Indices 1 2 3 4 5 6 
#
# 1 0.013976 0.000610 -0.004104 0.000000 0.000000 0.000000
# 2 0.000610 0.009928 -0.004662 0.000000 0.000000 0.000000
# 3 -0.004104 -0.004662 0.023191 0.000000 0.000000 0.000000
# 4 0.000000 0.000000 0.000000 0.045541 0.000000 0.000000
# 5 0.000000 0.000000 0.000000 0.000000 0.046432 0.000000
# 6 0.000000 0.000000 0.000000 0.000000 0.000000 0.707979
#
#
# Mechanical properties :
#
#
# Convention : Reuss Voigt Hill
#
# Bulk Modulus (GPa) = 32.48637 34.81357 33.64997
# Shear Modulus (GPa) = 5.72331 22.22567 13.97449
#
# Velocity S-wave (km/s) = 1.73137 3.41189 2.70542
# Velocity P-wave (km/s) = 4.58389 5.80993 5.23294
#
# Compressibility (1/GPa) = 0.03078214
#
# Stress axis : x y z
#
# Youngs Moduli (GPa) = 71.55255 100.72363 43.11980
#
# Poissons Ratio (x) = -0.06144 0.17697
# Poissons Ratio (y) = -0.04365 0.20104
# Poissons Ratio (z) = 0.29366 0.46961
#
# Static dielectric constant tensor:
#      x y z
#    x 1.704870 0.000000 0.000000 
#    y 0.000000 1.640460 0.000000 
#    z 0.000000 0.000000 1.687540 
# 
# From -- ./inp_files/41108.got.cif
#   From: 2010.05.17/outbox.cif.g08.bks.cpg/sg65_21_cif.got.tgz:41108.got - 2010.06.03 17:01:31.
