data_PCOD9492991
_publ_section_title
;
Structure prediction by ZEFSAII (Michael W. Deem and Ramdas Pophale) SiO2 
 PCOD9492991
Probable space group: C M M M
;
_chemical_formula_sum "Si O2"
_cell_formula_units_Z 112
_cell_length_a 28.725121
_cell_length_b 15.124002
_cell_length_c 14.428429
_cell_angle_alpha 90.000000
_cell_angle_beta 90.000000
_cell_angle_gamma 90.000000
_cell_volume 6268.269200
_symmetry_space_group_name_H-M "C M M M"
_symmetry_group_IT_number 65
_symmetry_cell_setting 'orthorhombic'
loop_
_space_group_symop_operation_xyz
x,y,z
-x,-y,z
x,-y,-z
-x,y,-z
-x,-y,-z
x,y,-z
-x,y,z
x,-y,z
1/2+x,1/2+y,z
1/2-x,1/2-y,z
1/2+x,1/2-y,-z
1/2-x,1/2+y,-z
1/2-x,1/2-y,-z
1/2+x,1/2+y,-z
1/2-x,1/2+y,z
1/2+x,1/2-y,z
loop_
_atom_site_type_symbol
_atom_site_label
_atom_site_fract_x
_atom_site_fract_y
_atom_site_fract_z
Si Si1 0.687601 0.152860 0.394884
Si Si2 0.447181 0.790155 0.110212
Si Si3 0.136478 0.394140 0.206444
Si Si4 0.231209 0.650429 0.896907
Si Si5 0.204666 0.135593 0.603197
Si Si6 0.178410 0.904644 0.201747
Si Si7 0.088692 0.897474 0.889944
O O1 0.671963 0.130866 0.500000
O O2 0.653490 0.124891 0.312322
O O3 0.740308 0.115924 0.383931
O O4 0.696175 0.258763 0.391047
O O5 0.500000 0.821874 0.126268
O O6 0.409432 0.842579 0.171993
O O7 0.446268 0.683719 0.127355
O O8 0.436117 0.802468 0.000000
O O9 0.131354 0.500000 0.194967
O O10 0.180176 0.360861 0.144271
O O11 0.250000 0.750000 0.904057
O O12 0.269203 0.613401 0.826682
O O13 0.233758 0.611100 0.000000
O O14 0.191606 0.106962 0.500000
O O15 0.176310 0.097489 0.688309
O O16 0.135770 0.855205 0.155518
O O17 0.168758 0.000000 0.161136
O O18 0.076161 0.000000 0.860037
O O19 0.095926 0.902649 0.000000
#
# Coordination Sequence:
#
# PCOD9492991 Si02
#       7
#    16  16  16  16  16  16  16
#     4   9  18  33  53  75 101 137 180 224 266 307
#     4  10  22  40  60  80 104 137 177 226 282 330
#     4  12  24  36  54  80 108 143 185 224 264 318
#     4  11  22  34  49  69  99 141 183 221 258 301
#     4   9  17  30  49  72 102 143 184 218 256 305
#     4  11  20  29  45  73 109 143 169 203 254 311
#     4   9  18  33  55  83 111 139 175 219 268 325
#
# _framework density 17.867771000000001
#
# number of rings (size 3 to 8) (size 9 to 14) (size 15 to 20)
#    0.000    1.857    1.429    4.714    0.000    6.000 
#    0.000    3.571    0.000    0.429    0.000    1.000 
#    0.000    0.000    0.000   12.286    0.000    0.286 
#
# Total GULP energy -311742.316988 kJ/mol
# GULP energy per Si atom -5566.827089 kJ/mol
# Density = 1.782710 g / cm^3
# Si number density = 17.867771 Si / 1000 Ang^3
#
#
#
# Elastic Constant Matrix: (Units=GPa)
#
#
# Indices 1 2 3 4 5 6 
#
# 1 100.8775 35.0561 45.7473 0.0000 0.0000 0.0000
# 2 35.0561 83.3982 30.5600 0.0000 0.0000 0.0000
# 3 45.7473 30.5600 92.1170 0.0000 0.0000 0.0000
# 4 0.0000 0.0000 0.0000 -2.5893 0.0000 0.0000
# 5 0.0000 0.0000 0.0000 0.0000 14.8295 0.0000
# 6 0.0000 0.0000 0.0000 0.0000 0.0000 0.4768
#
#
#
# Elastic Compliance Matrix: (Units=1/GPa)
#
#
# Indices 1 2 3 4 5 6 
#
# 1 0.013743 -0.003729 -0.005588 0.000000 0.000000 0.000000
# 2 -0.003729 0.014662 -0.003012 0.000000 0.000000 0.000000
# 3 -0.005588 -0.003012 0.014630 0.000000 0.000000 0.000000
# 4 0.000000 0.000000 0.000000 -0.386206 0.000000 0.000000
# 5 0.000000 0.000000 0.000000 0.000000 0.067433 0.000000
# 6 0.000000 0.000000 0.000000 0.000000 0.000000 2.097279
#
#
# Mechanical properties :
#
#
# Convention : Reuss Voigt Hill
#
# Bulk Modulus (GPa) = 54.41701 55.45771 54.93736
# Shear Modulus (GPa) = 2.69931 13.54536 8.12234
#
# Velocity S-wave (km/s) = 1.23044 2.75633 2.13440
# Velocity P-wave (km/s) = 5.70440 6.42145 6.07352
#
# Compressibility (1/GPa) = 0.01837661
#
# Stress axis : x y z
#
# Youngs Moduli (GPa) = 72.76405 68.20363 68.35212
#
# Poissons Ratio (x) = 0.25435 0.38195
# Poissons Ratio (y) = 0.27135 0.20589
# Poissons Ratio (z) = 0.40660 0.20544
#
# Static dielectric constant tensor:
#      x y z
#    x 1.956870 0.000000 0.000000 
#    y 0.000000 1.613810 0.000000 
#    z 0.000000 0.000000 1.624460 
# 
# From -- ./inp_files/47035.got.cif
#   From: 2010.05.17/outbox.cif.g08.bks.cpg/sg65_24_cif.got.tgz:47035.got - 2010.06.03 17:01:31.
