data_PCOD9492844
_publ_section_title
;
Structure prediction by ZEFSAII (Michael W. Deem and Ramdas Pophale) SiO2 
 PCOD9492844
Probable space group: C M M M
;
_chemical_formula_sum "Si O2"
_cell_formula_units_Z 52
_cell_length_a 7.718136
_cell_length_b 15.356837
_cell_length_c 24.496781
_cell_angle_alpha 90.000000
_cell_angle_beta 90.000000
_cell_angle_gamma 90.000000
_cell_volume 2903.509298
_symmetry_space_group_name_H-M "C M M M"
_symmetry_group_IT_number 65
_symmetry_cell_setting 'orthorhombic'
loop_
_space_group_symop_operation_xyz
x,y,z
-x,-y,z
x,-y,-z
-x,y,-z
-x,-y,-z
x,y,-z
-x,y,z
x,-y,z
1/2+x,1/2+y,z
1/2-x,1/2-y,z
1/2+x,1/2-y,-z
1/2-x,1/2+y,-z
1/2-x,1/2-y,-z
1/2+x,1/2+y,-z
1/2-x,1/2+y,z
1/2+x,1/2-y,z
loop_
_atom_site_type_symbol
_atom_site_label
_atom_site_fract_x
_atom_site_fract_y
_atom_site_fract_z
Si Si1 0.708601 0.000000 0.437521
Si Si2 0.793525 0.146692 0.000000
Si Si3 0.500000 0.098951 0.715930
Si Si4 0.289150 0.500000 0.087310
Si Si5 0.500000 0.000000 0.177830
Si Si6 0.198762 0.842889 0.640891
O O1 0.771462 0.916700 0.403845
O O2 0.500000 0.000000 0.438106
O O3 0.769528 0.000000 0.500000
O O4 0.750000 0.250000 0.000000
O O5 0.741327 0.086695 0.948046
O O6 0.000000 0.143498 0.000000
O O7 0.670523 0.142449 0.691330
O O8 0.500000 0.000000 0.693029
O O9 0.500000 0.082377 0.780559
O O10 0.500000 0.500000 0.095640
O O11 0.171502 0.500000 0.140951
O O12 0.250000 0.750000 0.616481
O O13 0.000000 0.843961 0.658727
#
# Coordination Sequence:
#
# PCOD9492844 Si02
#       6
#     8   8   8   8   4  16
#     4  11  22  39  60  90 125 151 188 243 299 355
#     4   9  19  34  59  87 118 155 203 233 274 353
#     4  10  22  42  59  90 112 151 210 239 292 348
#     4   9  20  38  57  87 120 160 190 235 295 339
#     4  10  22  37  66  80 123 150 196 250 294 340
#     4  12  22  39  66  85 115 157 199 243 292 356
#
# _framework density 17.909362999999999
#
# number of rings (size 3 to 8) (size 9 to 14) (size 15 to 20)
#    0.462    1.077    4.615    1.385    2.154    3.692 
#    0.000    1.538    0.000    0.000    0.000    0.000 
#    0.000    0.000    0.000    0.000    0.000    0.000 
#
# Total GULP energy -144898.685702 kJ/mol
# GULP energy per Si atom -5573.026373 kJ/mol
# Density = 1.786860 g / cm^3
# Si number density = 17.909363 Si / 1000 Ang^3
#
#
#
# Elastic Constant Matrix: (Units=GPa)
#
#
# Indices 1 2 3 4 5 6 
#
# 1 139.4765 37.3831 61.2509 0.0000 0.0000 0.0000
# 2 37.3831 154.9456 58.8526 0.0000 0.0000 0.0000
# 3 61.2509 58.8526 141.1314 0.0000 0.0000 0.0000
# 4 0.0000 0.0000 0.0000 -22.9551 0.0000 0.0000
# 5 0.0000 0.0000 0.0000 0.0000 15.7762 0.0000
# 6 0.0000 0.0000 0.0000 0.0000 0.0000 30.9494
#
#
#
# Elastic Compliance Matrix: (Units=1/GPa)
#
#
# Indices 1 2 3 4 5 6 
#
# 1 0.008943 -0.000812 -0.003543 0.000000 0.000000 0.000000
# 2 -0.000812 0.007742 -0.002876 0.000000 0.000000 0.000000
# 3 -0.003543 -0.002876 0.009822 0.000000 0.000000 0.000000
# 4 0.000000 0.000000 0.000000 -0.043563 0.000000 0.000000
# 5 0.000000 0.000000 0.000000 0.000000 0.063387 0.000000
# 6 0.000000 0.000000 0.000000 0.000000 0.000000 0.032311
#
#
# Mechanical properties :
#
#
# Convention : Reuss Voigt Hill
#
# Bulk Modulus (GPa) = 83.01442 83.39183 83.20312
# Shear Modulus (GPa) = 51.48319 23.29188 37.38753
#
# Velocity S-wave (km/s) = 5.36739 3.61022 4.57398
# Velocity P-wave (km/s) = 9.21222 8.00266 8.62866
#
# Compressibility (1/GPa) = 0.01204610
#
# Stress axis : x y z
#
# Youngs Moduli (GPa) = 111.81845 129.16176 101.80755
#
# Poissons Ratio (x) = 0.10489 0.36067
# Poissons Ratio (y) = 0.09080 0.29281
# Poissons Ratio (z) = 0.39613 0.37148
#
# Static dielectric constant tensor:
#      x y z
#    x 1.621130 0.000000 0.000000 
#    y 0.000000 1.636320 0.000000 
#    z 0.000000 0.000000 1.595490 
# 
# From -- ./inp_files/58506.got.cif
#   From: 2010.05.17/outbox.cif.g08.bks.cpg/sg65_30_cif.got.tgz:58506.got - 2010.06.03 17:01:31.
