data_PCOD9492362
_publ_section_title
;
Structure prediction by ZEFSAII (Michael W. Deem and Ramdas Pophale) SiO2 
 PCOD9492362
Probable space group: C M M M
;
_chemical_formula_sum "Si O2"
_cell_formula_units_Z 82
_cell_length_a 21.274204
_cell_length_b 24.303369
_cell_length_c 7.695366
_cell_angle_alpha 90.000000
_cell_angle_beta 90.000000
_cell_angle_gamma 90.000000
_cell_volume 3978.772252
_symmetry_space_group_name_H-M "C M M M"
_symmetry_group_IT_number 65
_symmetry_cell_setting 'orthorhombic'
loop_
_space_group_symop_operation_xyz
x,y,z
-x,-y,z
x,-y,-z
-x,y,-z
-x,-y,-z
x,y,-z
-x,y,z
x,-y,z
1/2+x,1/2+y,z
1/2-x,1/2-y,z
1/2+x,1/2-y,-z
1/2-x,1/2+y,-z
1/2-x,1/2-y,-z
1/2+x,1/2+y,-z
1/2-x,1/2+y,z
1/2+x,1/2-y,z
loop_
_atom_site_type_symbol
_atom_site_label
_atom_site_fract_x
_atom_site_fract_y
_atom_site_fract_z
Si Si1 0.130052 0.877291 0.697552
Si Si2 0.000000 0.094622 0.192436
Si Si3 0.306539 0.000000 0.200814
Si Si4 0.842468 0.000000 0.200250
Si Si5 0.756875 0.688216 0.791694
Si Si6 0.000000 0.565188 0.211785
Si Si7 0.366868 0.889099 0.786768
Si Si8 0.500000 0.500000 0.500000
O O1 0.122026 0.860507 0.500000
O O2 0.138092 0.943513 0.710907
O O3 0.194140 0.848381 0.761184
O O4 0.063517 0.869108 0.791635
O O5 0.000000 0.048866 0.345760
O O6 0.000000 0.069204 0.000000
O O7 0.331894 0.944126 0.276376
O O8 0.232415 0.000000 0.199465
O O9 0.329064 0.000000 0.000000
O O10 0.864162 0.000000 0.000000
O O11 0.750000 0.750000 0.722733
O O12 0.821315 0.659872 0.727296
O O13 0.762796 0.691504 0.000000
O O14 0.938435 0.599484 0.265463
O O15 0.000000 0.500000 0.266979
O O16 0.000000 0.562681 0.000000
O O17 0.366519 0.886814 0.000000
#
# Coordination Sequence:
#
# PCOD9492362 Si02
#       8
#    16   8   8   8  16   8  16   2
#     4  12  24  40  59  89 126 160 211 263 314 386
#     4  12  25  43  64  89 133 179 209 255 322 383
#     4   9  14  23  45  74 106 138 178 228 287 369
#     4  11  20  33  56  86 117 155 197 241 309 377
#     4  10  21  38  59  82 111 156 214 266 312 369
#     4   9  14  20  39  72 111 143 166 218 297 365
#     4   9  15  26  44  74 110 142 183 236 299 369
#     4  12  22  44  60 102 136 168 218 254 300 396
#
# _framework density 20.609370999999999
#
# number of rings (size 3 to 8) (size 9 to 14) (size 15 to 20)
#    0.000    1.659    3.902    2.780    0.000    0.390 
#    0.000    0.976    0.000    3.512    0.000    0.683 
#    0.000    2.341    0.000    0.000    0.000    0.000 
#
# Total GULP energy -228375.442612 kJ/mol
# GULP energy per Si atom -5570.132747 kJ/mol
# Density = 2.056246 g / cm^3
# Si number density = 20.609371 Si / 1000 Ang^3
#
#
#
# Elastic Constant Matrix: (Units=GPa)
#
#
# Indices 1 2 3 4 5 6 
#
# 1 181.8996 88.7631 12.0980 0.0000 0.0000 0.0000
# 2 88.7631 123.9635 1.7371 0.0000 0.0000 0.0000
# 3 12.0980 1.7371 75.6849 0.0000 0.0000 0.0000
# 4 0.0000 0.0000 0.0000 12.0940 0.0000 0.0000
# 5 0.0000 0.0000 0.0000 0.0000 147.4261 0.0000
# 6 0.0000 0.0000 0.0000 0.0000 0.0000 -4.7304
#
#
#
# Elastic Compliance Matrix: (Units=1/GPa)
#
#
# Indices 1 2 3 4 5 6 
#
# 1 0.008563 -0.006114 -0.001228 0.000000 0.000000 0.000000
# 2 -0.006114 0.012435 0.000692 0.000000 0.000000 0.000000
# 3 -0.001228 0.000692 0.013393 0.000000 0.000000 0.000000
# 4 0.000000 0.000000 0.000000 0.082686 0.000000 0.000000
# 5 0.000000 0.000000 0.000000 0.000000 0.006783 0.000000
# 6 0.000000 0.000000 0.000000 0.000000 0.000000 -0.211399
#
#
# Mechanical properties :
#
#
# Convention : Reuss Voigt Hill
#
# Bulk Modulus (GPa) = 47.41607 65.19383 56.30495
# Shear Modulus (GPa) = -74.39643 49.55459 -12.42092
#
# Velocity S-wave (km/s) = -6.01471 4.90886 -2.45762
# Velocity P-wave (km/s) = 5.01783 7.98943 4.39615
#
# Compressibility (1/GPa) = 0.02108990
#
# Stress axis : x y z
#
# Youngs Moduli (GPa) = 116.78434 80.41716 74.66506
#
# Poissons Ratio (x) = 0.49168 0.09172
# Poissons Ratio (y) = 0.71403 -0.05166
# Poissons Ratio (z) = 0.14346 -0.05564
#
# Static dielectric constant tensor:
#      x y z
#    x 1.786560 0.000000 0.000000 
#    y 0.000000 1.726450 0.000000 
#    z 0.000000 0.000000 1.768060 
# 
# From -- ./inp_files/11671.got.cif
#   From: 2010.05.17/outbox.cif.g08.bks.cpg/sg65_6_cif.got.tgz:11671.got - 2010.06.03 17:01:31.
