data_PCOD9492981
_publ_section_title
;
Structure prediction by ZEFSAII (Michael W. Deem and Ramdas Pophale) SiO2 
 PCOD9492981
Probable space group: C M M M
;
_chemical_formula_sum "Si O2"
_cell_formula_units_Z 72
_cell_length_a 22.578166
_cell_length_b 19.850111
_cell_length_c 8.967258
_cell_angle_alpha 90.000000
_cell_angle_beta 90.000000
_cell_angle_gamma 90.000000
_cell_volume 4018.937631
_symmetry_space_group_name_H-M "C M M M"
_symmetry_group_IT_number 65
_symmetry_cell_setting 'orthorhombic'
loop_
_space_group_symop_operation_xyz
x,y,z
-x,-y,z
x,-y,-z
-x,y,-z
-x,-y,-z
x,y,-z
-x,y,z
x,-y,z
1/2+x,1/2+y,z
1/2-x,1/2-y,z
1/2+x,1/2-y,-z
1/2-x,1/2+y,-z
1/2-x,1/2-y,-z
1/2+x,1/2+y,-z
1/2-x,1/2+y,z
1/2+x,1/2-y,z
loop_
_atom_site_type_symbol
_atom_site_label
_atom_site_fract_x
_atom_site_fract_y
_atom_site_fract_z
Si Si1 0.431078 0.805435 0.679485
Si Si2 0.716749 0.578505 0.178825
Si Si3 0.354626 0.923000 0.179489
Si Si4 0.500000 0.579856 0.177938
Si Si5 0.889452 0.843034 0.321145
O O1 0.429478 0.810431 0.500000
O O2 0.500000 0.803441 0.725321
O O3 0.397079 0.868321 0.748719
O O4 0.400269 0.734826 0.721164
O O5 0.702921 0.500000 0.213115
O O6 0.785615 0.590087 0.217343
O O7 0.672130 0.627460 0.262267
O O8 0.710383 0.586509 0.000000
O O9 0.368649 0.000000 0.224776
O O10 0.359079 0.919917 0.000000
O O11 0.500000 0.500000 0.205957
O O12 0.557746 0.613672 0.249352
O O13 0.500000 0.590460 0.000000
O O14 0.892713 0.848023 0.500000
#
# Coordination Sequence:
#
# PCOD9492981 Si02
#       5
#    16  16  16   8  16
#     4  10  22  40  57  78 114 152 186 229 282 336
#     4   9  19  37  58  82 115 149 184 231 283 334
#     4   9  20  39  61  85 112 143 184 235 285 335
#     4  11  23  37  55  81 112 149 192 233 277 328
#     4  11  22  37  56  81 115 151 189 231 275 329
#
# _framework density 17.915182000000001
#
# number of rings (size 3 to 8) (size 9 to 14) (size 15 to 20)
#    0.000    2.111    1.111    3.000    0.000    8.889 
#    0.000    8.889    0.000    0.000    0.000    0.000 
#    0.000    0.000    0.000    0.000    0.000    0.000 
#
# Total GULP energy -201037.607627 kJ/mol
# GULP energy per Si atom -5584.377990 kJ/mol
# Density = 1.787441 g / cm^3
# Si number density = 17.915182 Si / 1000 Ang^3
#
#
#
# Elastic Constant Matrix: (Units=GPa)
#
#
# Indices 1 2 3 4 5 6 
#
# 1 107.8035 106.6046 43.7875 0.0000 0.0000 0.0000
# 2 106.6046 165.8368 61.1165 0.0000 0.0000 0.0000
# 3 43.7875 61.1165 34.3967 0.0000 0.0000 0.0000
# 4 0.0000 0.0000 0.0000 35.4071 0.0000 0.0000
# 5 0.0000 0.0000 0.0000 0.0000 56.9957 0.0000
# 6 0.0000 0.0000 0.0000 0.0000 0.0000 52.4298
#
#
#
# Elastic Compliance Matrix: (Units=1/GPa)
#
#
# Indices 1 2 3 4 5 6 
#
# 1 0.026617 -0.013392 -0.010088 0.000000 0.000000 0.000000
# 2 -0.013392 0.024207 -0.025963 0.000000 0.000000 0.000000
# 3 -0.010088 -0.025963 0.088047 0.000000 0.000000 0.000000
# 4 0.000000 0.000000 0.000000 0.028243 0.000000 0.000000
# 5 0.000000 0.000000 0.000000 0.000000 0.017545 0.000000
# 6 0.000000 0.000000 0.000000 0.000000 0.000000 0.019073
#
#
# Mechanical properties :
#
#
# Convention : Reuss Voigt Hill
#
# Bulk Modulus (GPa) = 25.01034 81.22825 53.11929
# Shear Modulus (GPa) = 15.82538 35.40175 25.61357
#
# Velocity S-wave (km/s) = 2.97535 4.45013 3.78526
# Velocity P-wave (km/s) = 5.07881 8.47607 6.98706
#
# Compressibility (1/GPa) = 0.03998347
#
# Stress axis : x y z
#
# Youngs Moduli (GPa) = 37.56949 41.30983 11.35762
#
# Poissons Ratio (x) = 0.55324 0.11458
# Poissons Ratio (y) = 0.50315 0.29488
# Poissons Ratio (z) = 0.37902 1.07253
#
# Static dielectric constant tensor:
#      x y z
#    x 1.593570 0.000000 0.000000 
#    y 0.000000 1.591420 0.000000 
#    z 0.000000 0.000000 1.597890 
# 
# From -- ./inp_files/9230.got.cif
#   From: 2010.05.17/outbox.cif.g08.bks.cpg/sg65_5_cif.got.tgz:9230.got - 2010.06.03 17:01:31.
