data_PCOD9492607
_publ_section_title
;
Structure prediction by ZEFSAII (Michael W. Deem and Ramdas Pophale) SiO2 
 PCOD9492607
Probable space group: C M M M
;
_chemical_formula_sum "Si O2"
_cell_formula_units_Z 80
_cell_length_a 8.168109
_cell_length_b 32.061235
_cell_length_c 14.992800
_cell_angle_alpha 90.000000
_cell_angle_beta 90.000000
_cell_angle_gamma 90.000000
_cell_volume 3926.309399
_symmetry_space_group_name_H-M "C M M M"
_symmetry_group_IT_number 65
_symmetry_cell_setting 'orthorhombic'
loop_
_space_group_symop_operation_xyz
x,y,z
-x,-y,z
x,-y,-z
-x,y,-z
-x,-y,-z
x,y,-z
-x,y,z
x,-y,z
1/2+x,1/2+y,z
1/2-x,1/2-y,z
1/2+x,1/2-y,-z
1/2-x,1/2+y,-z
1/2-x,1/2-y,-z
1/2+x,1/2+y,-z
1/2-x,1/2+y,z
1/2+x,1/2-y,z
loop_
_atom_site_type_symbol
_atom_site_label
_atom_site_fract_x
_atom_site_fract_y
_atom_site_fract_z
Si Si1 0.198820 0.078263 0.097617
Si Si2 0.700600 0.453821 0.712560
Si Si3 0.691228 0.795336 0.288600
Si Si4 0.804062 0.125531 0.600682
Si Si5 0.802608 0.176840 0.901060
O O1 0.254695 0.054477 0.185550
O O2 0.237298 0.127483 0.106471
O O3 0.000000 0.075484 0.096538
O O4 0.256854 0.063803 0.000000
O O5 0.500000 0.452794 0.712858
O O6 0.749957 0.500000 0.682928
O O7 0.758242 0.415770 0.651176
O O8 0.500000 0.798566 0.302930
O O9 0.750000 0.750000 0.318996
O O10 0.772009 0.833514 0.341027
O O11 0.729083 0.800213 0.183495
O O12 0.739464 0.129380 0.500000
O O13 0.000000 0.120912 0.595322
O O14 0.000000 0.180303 0.896610
O O15 0.749762 0.190990 0.000000
#
# Coordination Sequence:
#
# PCOD9492607 Si02
#       5
#    16  16  16  16  16
#     4   8  13  23  44  75 112 151 186 225 273 323
#     4   9  16  27  49  83 119 151 187 232 282 337
#     4  12  25  40  61  86 115 149 189 237 287 348
#     4  10  21  39  61  83 113 150 190 241 296 346
#     4   9  17  33  58  85 117 156 194 233 278 331
#
# _framework density 20.375367000000001
#
# number of rings (size 3 to 8) (size 9 to 14) (size 15 to 20)
#    0.000    2.400    2.000    3.000    0.000    2.400 
#    0.000    4.000    0.000    0.600    0.000    1.400 
#    0.000    3.200    0.000    0.000    0.000    0.000 
#
# Total GULP energy -223251.115992 kJ/mol
# GULP energy per Si atom -5581.277900 kJ/mol
# Density = 2.032899 g / cm^3
# Si number density = 20.375367 Si / 1000 Ang^3
#
#
#
# Elastic Constant Matrix: (Units=GPa)
#
#
# Indices 1 2 3 4 5 6 
#
# 1 9.4697 0.7516 3.6265 0.0000 0.0000 0.0000
# 2 0.7516 134.5980 69.9451 0.0000 0.0000 0.0000
# 3 3.6265 69.9451 126.6843 0.0000 0.0000 0.0000
# 4 0.0000 0.0000 0.0000 -3.1008 0.0000 0.0000
# 5 0.0000 0.0000 0.0000 0.0000 8.5209 0.0000
# 6 0.0000 0.0000 0.0000 0.0000 0.0000 10.6084
#
#
#
# Elastic Compliance Matrix: (Units=1/GPa)
#
#
# Indices 1 2 3 4 5 6 
#
# 1 0.106957 0.001394 -0.003831 0.000000 0.000000 0.000000
# 2 0.001394 0.010437 -0.005802 0.000000 0.000000 0.000000
# 3 -0.003831 -0.005802 0.011207 0.000000 0.000000 0.000000
# 4 0.000000 0.000000 0.000000 -0.322497 0.000000 0.000000
# 5 0.000000 0.000000 0.000000 0.000000 0.117358 0.000000
# 6 0.000000 0.000000 0.000000 0.000000 0.000000 0.094265
#
#
# Mechanical properties :
#
#
# Convention : Reuss Voigt Hill
#
# Bulk Modulus (GPa) = 8.91894 46.59983 27.75938
# Shear Modulus (GPa) = 69.85068 16.30094 43.07581
#
# Velocity S-wave (km/s) = 5.86143 2.83155 4.60294
# Velocity P-wave (km/s) = 7.08486 5.79746 6.47325
#
# Compressibility (1/GPa) = 0.11212096
#
# Stress axis : x y z
#
# Youngs Moduli (GPa) = 9.34956 95.81277 89.23043
#
# Poissons Ratio (x) = -0.13353 0.34187
# Poissons Ratio (y) = -0.01303 0.51775
# Poissons Ratio (z) = 0.03582 0.55594
#
# Static dielectric constant tensor:
#      x y z
#    x 1.723520 0.000000 0.000000 
#    y 0.000000 1.658730 0.000000 
#    z 0.000000 0.000000 1.728190 
# 
# From -- ./inp_files/50146.got.cif
#   From: 2010.05.17/outbox.cif.g08.bks.cpg/sg65_26_cif.got.tgz:50146.got - 2010.06.03 17:01:31.
