data_PCOD9492577
_publ_section_title
;
Structure prediction by ZEFSAII (Michael W. Deem and Ramdas Pophale) SiO2 
 PCOD9492577
Probable space group: C M M M
;
_chemical_formula_sum "Si O2"
_cell_formula_units_Z 68
_cell_length_a 9.500857
_cell_length_b 18.661552
_cell_length_c 20.173860
_cell_angle_alpha 90.000000
_cell_angle_beta 90.000000
_cell_angle_gamma 90.000000
_cell_volume 3576.840245
_symmetry_space_group_name_H-M "C M M M"
_symmetry_group_IT_number 65
_symmetry_cell_setting 'orthorhombic'
loop_
_space_group_symop_operation_xyz
x,y,z
-x,-y,z
x,-y,-z
-x,y,-z
-x,-y,-z
x,y,-z
-x,y,z
x,-y,z
1/2+x,1/2+y,z
1/2-x,1/2-y,z
1/2+x,1/2-y,-z
1/2-x,1/2+y,-z
1/2-x,1/2-y,-z
1/2+x,1/2+y,-z
1/2-x,1/2+y,z
1/2+x,1/2-y,z
loop_
_atom_site_type_symbol
_atom_site_label
_atom_site_fract_x
_atom_site_fract_y
_atom_site_fract_z
Si Si1 0.000000 0.415108 0.920721
Si Si2 0.837155 0.176846 0.732545
Si Si3 0.836264 0.912722 0.500000
Si Si4 0.278242 0.333884 0.114244
Si Si5 0.000000 0.132287 0.000000
Si Si6 0.335752 0.086361 0.368879
O O1 0.134648 0.377515 0.889680
O O2 0.000000 0.500000 0.909957
O O3 0.000000 0.401907 0.000000
O O4 0.750000 0.250000 0.722026
O O5 0.835839 0.162416 0.811291
O O6 0.751197 0.117057 0.692750
O O7 0.000000 0.182259 0.710764
O O8 0.748773 0.890642 0.434969
O O9 0.000000 0.889044 0.500000
O O10 0.839059 0.000000 0.500000
O O11 0.250000 0.250000 0.099019
O O12 0.379341 0.364414 0.058267
O O13 0.500000 0.109317 0.369258
O O14 0.335299 0.000000 0.367224
#
# Coordination Sequence:
#
# PCOD9492577 Si02
#       6
#     8  16   8  16   4  16
#     4  11  25  43  60  89 128 162 197 259 334 388
#     4  11  24  41  60  89 126 164 206 261 320 376
#     4   9  17  33  60  93 126 163 210 261 307 363
#     4  11  24  39  66  92 120 161 216 267 316 390
#     4  12  20  40  63  94 113 152 216 268 312 374
#     4  10  21  38  63  93 126 166 212 259 310 373
#
# _framework density 19.011192000000001
#
# number of rings (size 3 to 8) (size 9 to 14) (size 15 to 20)
#    0.000    1.412    2.353    2.824    8.235    3.765 
#    0.000    1.765    0.000    0.000    0.000    0.000 
#    0.000    0.000    0.000    0.000    0.000    0.000 
#
# Total GULP energy -189357.263650 kJ/mol
# GULP energy per Si atom -5569.331284 kJ/mol
# Density = 1.896792 g / cm^3
# Si number density = 19.011192 Si / 1000 Ang^3
#
#
#
# Elastic Constant Matrix: (Units=GPa)
#
#
# Indices 1 2 3 4 5 6 
#
# 1 206.9836 33.1047 47.6234 0.0000 0.0000 0.0000
# 2 33.1047 33.4706 14.3916 0.0000 0.0000 0.0000
# 3 47.6234 14.3916 58.0715 0.0000 0.0000 0.0000
# 4 0.0000 0.0000 0.0000 -22.7375 0.0000 0.0000
# 5 0.0000 0.0000 0.0000 0.0000 30.4770 0.0000
# 6 0.0000 0.0000 0.0000 0.0000 0.0000 22.6109
#
#
#
# Elastic Compliance Matrix: (Units=1/GPa)
#
#
# Indices 1 2 3 4 5 6 
#
# 1 0.006546 -0.004663 -0.004213 0.000000 0.000000 0.000000
# 2 -0.004663 0.036762 -0.005286 0.000000 0.000000 0.000000
# 3 -0.004213 -0.005286 0.021985 0.000000 0.000000 0.000000
# 4 0.000000 0.000000 0.000000 -0.043980 0.000000 0.000000
# 5 0.000000 0.000000 0.000000 0.000000 0.032812 0.000000
# 6 0.000000 0.000000 0.000000 0.000000 0.000000 0.044227
#
#
# Mechanical properties :
#
#
# Convention : Reuss Voigt Hill
#
# Bulk Modulus (GPa) = 27.04981 54.30723 40.67852
# Shear Modulus (GPa) = 35.97120 19.63049 27.80084
#
# Velocity S-wave (km/s) = 4.35455 3.21686 3.82821
# Velocity P-wave (km/s) = 6.28825 6.51349 6.40186
#
# Compressibility (1/GPa) = 0.03696884
#
# Stress axis : x y z
#
# Youngs Moduli (GPa) = 152.75347 27.20169 45.48524
#
# Poissons Ratio (x) = 0.12685 0.19163
# Poissons Ratio (y) = 0.71236 0.24044
# Poissons Ratio (z) = 0.64354 0.14379
#
# Static dielectric constant tensor:
#      x y z
#    x 1.646030 0.000000 0.000000 
#    y 0.000000 1.648630 0.000000 
#    z 0.000000 0.000000 1.644430 
# 
# From -- ./inp_files/49250.got.cif
#   From: 2010.05.17/outbox.cif.g08.bks.cpg/sg65_25_cif.got.tgz:49250.got - 2010.06.03 17:01:31.
