data_PCOD9492297
_publ_section_title
;
Structure prediction by ZEFSAII (Michael W. Deem and Ramdas Pophale) SiO2 
 PCOD9492297
Probable space group: C M M M
;
_chemical_formula_sum "Si O2"
_cell_formula_units_Z 88
_cell_length_a 17.318982
_cell_length_b 15.198282
_cell_length_c 18.017545
_cell_angle_alpha 90.000000
_cell_angle_beta 90.000000
_cell_angle_gamma 90.000000
_cell_volume 4742.556076
_symmetry_space_group_name_H-M "C M M M"
_symmetry_group_IT_number 65
_symmetry_cell_setting 'orthorhombic'
loop_
_space_group_symop_operation_xyz
x,y,z
-x,-y,z
x,-y,-z
-x,y,-z
-x,-y,-z
x,y,-z
-x,y,z
x,-y,z
1/2+x,1/2+y,z
1/2-x,1/2-y,z
1/2+x,1/2-y,-z
1/2-x,1/2+y,-z
1/2-x,1/2-y,-z
1/2+x,1/2+y,-z
1/2-x,1/2+y,z
1/2+x,1/2-y,z
loop_
_atom_site_type_symbol
_atom_site_label
_atom_site_fract_x
_atom_site_fract_y
_atom_site_fract_z
Si Si1 0.500000 0.759720 0.086973
Si Si2 0.088475 0.339089 0.411619
Si Si3 0.084889 0.601273 0.826962
Si Si4 0.000000 0.106129 0.793741
Si Si5 0.791832 0.600460 0.299124
Si Si6 0.370937 0.663320 0.323168
Si Si7 0.087390 0.000000 0.587104
O O1 0.571777 0.823435 0.111637
O O2 0.500000 0.670022 0.134476
O O3 0.500000 0.743550 0.000000
O O4 0.100850 0.326512 0.500000
O O5 0.155856 0.395464 0.373297
O O6 0.097341 0.248758 0.364945
O O7 0.000000 0.371827 0.402748
O O8 0.095234 0.500000 0.854290
O O9 0.150584 0.622370 0.768459
O O10 0.000000 0.602262 0.788021
O O11 0.074010 0.134413 0.744248
O O12 0.000000 0.000000 0.806898
O O13 0.765147 0.500000 0.287924
O O14 0.717962 0.662792 0.299908
O O15 0.373260 0.586439 0.383670
O O16 0.084209 0.000000 0.500000
O O17 0.000000 0.000000 0.617530
#
# Coordination Sequence:
#
# PCOD9492297 Si02
#       7
#     8  16  16   8  16  16   8
#     4  10  21  37  62  93 120 153 186 234 293 355
#     4  11  24  39  55  77 112 158 201 248 304 354
#     4   8  17  35  61  90 117 148 187 236 285 356
#     4  12  22  38  61  84 117 154 204 242 286 355
#     4  11  22  37  58  86 117 151 194 246 297 352
#     4  12  21  39  58  83 111 151 205 251 291 340
#     4  11  20  34  56  80 111 151 196 255 302 330
#
# _framework density 18.555395999999998
#
# number of rings (size 3 to 8) (size 9 to 14) (size 15 to 20)
#    0.545    0.818    3.636    2.727    0.000    6.000 
#    0.000    0.909    0.000    2.182    0.000    2.545 
#    0.000    0.000    0.000    0.000    0.000    0.000 
#
# Total GULP energy -245251.245493 kJ/mol
# GULP energy per Si atom -5573.891943 kJ/mol
# Density = 1.851316 g / cm^3
# Si number density = 18.555396 Si / 1000 Ang^3
#
#
#
# Elastic Constant Matrix: (Units=GPa)
#
#
# Indices 1 2 3 4 5 6 
#
# 1 118.0135 22.0950 40.6814 0.0000 0.0000 0.0000
# 2 22.0950 89.8113 49.9734 0.0000 0.0000 0.0000
# 3 40.6814 49.9734 124.2276 0.0000 0.0000 0.0000
# 4 0.0000 0.0000 0.0000 14.3061 0.0000 0.0000
# 5 0.0000 0.0000 0.0000 0.0000 5.8502 0.0000
# 6 0.0000 0.0000 0.0000 0.0000 0.0000 14.2915
#
#
#
# Elastic Compliance Matrix: (Units=1/GPa)
#
#
# Indices 1 2 3 4 5 6 
#
# 1 0.009595 -0.000789 -0.002825 0.000000 0.000000 0.000000
# 2 -0.000789 0.014410 -0.005539 0.000000 0.000000 0.000000
# 3 -0.002825 -0.005539 0.011203 0.000000 0.000000 0.000000
# 4 0.000000 0.000000 0.000000 0.069900 0.000000 0.000000
# 5 0.000000 0.000000 0.000000 0.000000 0.170935 0.000000
# 6 0.000000 0.000000 0.000000 0.000000 0.000000 0.069972
#
#
# Mechanical properties :
#
#
# Convention : Reuss Voigt Hill
#
# Bulk Modulus (GPa) = 59.15803 61.95021 60.55412
# Shear Modulus (GPa) = 13.51521 21.50975 17.51248
#
# Velocity S-wave (km/s) = 2.70176 3.40842 3.07546
# Velocity P-wave (km/s) = 6.45630 6.99635 6.73174
#
# Compressibility (1/GPa) = 0.01690388
#
# Stress axis : x y z
#
# Youngs Moduli (GPa) = 104.22042 69.39479 89.26311
#
# Poissons Ratio (x) = 0.05473 0.25216
# Poissons Ratio (y) = 0.08220 0.49439
# Poissons Ratio (z) = 0.29441 0.38435
#
# Static dielectric constant tensor:
#      x y z
#    x 1.807060 0.000000 0.000000 
#    y 0.000000 1.681600 0.000000 
#    z 0.000000 0.000000 1.598490 
# 
# From -- ./inp_files/54357.got.cif
#   From: 2010.05.17/outbox.cif.g08.bks.cpg/sg65_28_cif.got.tgz:54357.got - 2010.06.03 17:01:31.
