data_PCOD9492990
_publ_section_title
;
Structure prediction by ZEFSAII (Michael W. Deem and Ramdas Pophale) SiO2 
 PCOD9492990
Probable space group: C M M M
;
_chemical_formula_sum "Si O2"
_cell_formula_units_Z 56
_cell_length_a 13.911288
_cell_length_b 10.117479
_cell_length_c 19.425113
_cell_angle_alpha 90.000000
_cell_angle_beta 90.000000
_cell_angle_gamma 90.000000
_cell_volume 2734.029569
_symmetry_space_group_name_H-M "C M M M"
_symmetry_group_IT_number 65
_symmetry_cell_setting 'orthorhombic'
loop_
_space_group_symop_operation_xyz
x,y,z
-x,-y,z
x,-y,-z
-x,y,-z
-x,-y,-z
x,y,-z
-x,y,z
x,-y,z
1/2+x,1/2+y,z
1/2-x,1/2-y,z
1/2+x,1/2-y,-z
1/2-x,1/2+y,-z
1/2-x,1/2-y,-z
1/2+x,1/2+y,-z
1/2-x,1/2+y,z
1/2+x,1/2-y,z
loop_
_atom_site_type_symbol
_atom_site_label
_atom_site_fract_x
_atom_site_fract_y
_atom_site_fract_z
Si Si1 0.382893 0.150544 0.500000
Si Si2 0.613680 0.648513 0.121517
Si Si3 0.250000 0.750000 0.763396
Si Si4 0.116149 0.349358 0.000000
Si Si5 0.607746 0.842882 0.648304
O O1 0.500000 0.143691 0.500000
O O2 0.359149 0.213527 0.573953
O O3 0.344323 0.000000 0.500000
O O4 0.500000 0.665649 0.139063
O O5 0.623331 0.500000 0.092387
O O6 0.682737 0.663359 0.186846
O O7 0.640011 0.762243 0.066843
O O8 0.322423 0.822033 0.711720
O O9 0.153652 0.500000 0.000000
O O10 0.000000 0.358015 0.000000
O O11 0.500000 0.792530 0.663523
O O12 0.600484 0.000000 0.637524
#
# Coordination Sequence:
#
# PCOD9492990 Si02
#       5
#     8  16   8   8  16
#     4   7  12  27  50  72  98 136 180 226 277 325
#     4  10  22  40  59  81 114 152 184 221 278 341
#     4  12  22  32  52  82 112 144 186 228 268 324
#     4   9  19  38  65  90 108 136 186 240 277 315
#     4   9  18  33  52  75 105 141 182 230 279 323
#
# _framework density 20.482586000000001
#
# number of rings (size 3 to 8) (size 9 to 14) (size 15 to 20)
#    0.000    2.571    0.000    3.857    0.000    5.143 
#    0.000    2.857    0.000    0.000    0.000    0.000 
#    0.000   18.286    0.000    0.000    0.000    0.000 
#
# Total GULP energy -156041.428441 kJ/mol
# GULP energy per Si atom -5572.908159 kJ/mol
# Density = 2.043597 g / cm^3
# Si number density = 20.482586 Si / 1000 Ang^3
#
#
#
# Elastic Constant Matrix: (Units=GPa)
#
#
# Indices 1 2 3 4 5 6 
#
# 1 119.9638 31.8151 62.3005 0.0000 0.0000 0.0000
# 2 31.8151 89.3612 52.3736 0.0000 0.0000 0.0000
# 3 62.3005 52.3736 158.5031 0.0000 0.0000 0.0000
# 4 0.0000 0.0000 0.0000 24.8937 0.0000 0.0000
# 5 0.0000 0.0000 0.0000 0.0000 64.5117 0.0000
# 6 0.0000 0.0000 0.0000 0.0000 0.0000 -4.6102
#
#
#
# Elastic Compliance Matrix: (Units=1/GPa)
#
#
# Indices 1 2 3 4 5 6 
#
# 1 0.010669 -0.001663 -0.003644 0.000000 0.000000 0.000000
# 2 -0.001663 0.014137 -0.004018 0.000000 0.000000 0.000000
# 3 -0.003644 -0.004018 0.009069 0.000000 0.000000 0.000000
# 4 0.000000 0.000000 0.000000 0.040171 0.000000 0.000000
# 5 0.000000 0.000000 0.000000 0.000000 0.015501 0.000000
# 6 0.000000 0.000000 0.000000 0.000000 0.000000 -0.216912
#
#
# Mechanical properties :
#
#
# Convention : Reuss Voigt Hill
#
# Bulk Modulus (GPa) = 65.67657 73.42293 69.54975
# Shear Modulus (GPa) = -48.24408 31.71497 -8.26455
#
# Velocity S-wave (km/s) = -4.85848 3.93922 -2.01089
# Velocity P-wave (km/s) = 0.81307 7.52425 5.35142
#
# Compressibility (1/GPa) = 0.01522613
#
# Stress axis : x y z
#
# Youngs Moduli (GPa) = 93.72628 70.73484 110.26579
#
# Poissons Ratio (x) = 0.11761 0.40183
# Poissons Ratio (y) = 0.15584 0.44302
# Poissons Ratio (z) = 0.34156 0.28420
#
# Static dielectric constant tensor:
#      x y z
#    x 1.764250 0.000000 0.000000 
#    y 0.000000 1.727990 0.000000 
#    z 0.000000 0.000000 1.754220 
# 
# From -- ./inp_files/53948.got.cif
#   From: 2010.05.17/outbox.cif.g08.bks.cpg/sg65_27_cif.got.tgz:53948.got - 2010.06.03 17:01:31.
