data_PCOD9492094
_publ_section_title
;
Structure prediction by ZEFSAII (Michael W. Deem and Ramdas Pophale) SiO2 
 PCOD9492094
Probable space group: C M M M
;
_chemical_formula_sum "Si O2"
_cell_formula_units_Z 96
_cell_length_a 8.900059
_cell_length_b 18.957759
_cell_length_c 31.235422
_cell_angle_alpha 90.000000
_cell_angle_beta 90.000000
_cell_angle_gamma 90.000000
_cell_volume 5270.202000
_symmetry_space_group_name_H-M "C M M M"
_symmetry_group_IT_number 65
_symmetry_cell_setting 'orthorhombic'
loop_
_space_group_symop_operation_xyz
x,y,z
-x,-y,z
x,-y,-z
-x,y,-z
-x,-y,-z
x,y,-z
-x,y,z
x,-y,z
1/2+x,1/2+y,z
1/2-x,1/2-y,z
1/2+x,1/2-y,-z
1/2-x,1/2+y,-z
1/2-x,1/2-y,-z
1/2+x,1/2+y,-z
1/2-x,1/2+y,z
1/2+x,1/2-y,z
loop_
_atom_site_type_symbol
_atom_site_label
_atom_site_fract_x
_atom_site_fract_y
_atom_site_fract_z
Si Si1 0.679604 0.916691 0.284080
Si Si2 0.680727 0.418343 0.123083
Si Si3 0.179459 0.673918 0.049806
Si Si4 0.819449 0.827792 0.792926
Si Si5 0.323813 0.415684 0.624657
Si Si6 0.679623 0.172368 0.451298
O O1 0.500000 0.908182 0.282959
O O2 0.756357 0.869775 0.247847
O O3 0.742254 0.897045 0.330868
O O4 0.714047 0.000000 0.277117
O O5 0.500000 0.415313 0.118468
O O6 0.723900 0.500000 0.128860
O O7 0.755676 0.384258 0.081524
O O8 0.721250 0.372094 0.164571
O O9 0.250000 0.750000 0.060767
O O10 0.000000 0.678078 0.053816
O O11 0.216463 0.659141 0.000000
O O12 0.750000 0.750000 0.794988
O O13 0.000000 0.823387 0.790463
O O14 0.500000 0.397796 0.627454
O O15 0.310367 0.500000 0.619476
O O16 0.249154 0.377331 0.584607
O O17 0.712751 0.148005 0.500000
O O18 0.500000 0.176244 0.446569
O O19 0.750000 0.250000 0.446683
#
# Coordination Sequence:
#
# PCOD9492094 Si02
#       6
#    16  16  16  16  16  16
#     4  10  21  38  60  85 113 145 183 227 276 330
#     4  10  22  39  59  84 114 149 187 229 279 333
#     4  10  21  37  58  84 114 149 189 233 280 330
#     4  11  23  39  59  84 114 146 185 230 276 329
#     4  10  21  37  58  84 114 148 185 227 276 330
#     4  10  21  37  57  81 111 147 187 232 280 330
#
# _framework density 18.215620999999999
#
# number of rings (size 3 to 8) (size 9 to 14) (size 15 to 20)
#    0.000    1.833    0.000    3.500    0.000    9.000 
#    0.000    6.667    0.000    0.000    0.000    0.000 
#    0.000    0.000    0.000    0.000    0.000    0.000 
#
# Total GULP energy -268229.923388 kJ/mol
# GULP energy per Si atom -5588.123404 kJ/mol
# Density = 1.817416 g / cm^3
# Si number density = 18.215621 Si / 1000 Ang^3
#
#
#
# Elastic Constant Matrix: (Units=GPa)
#
#
# Indices 1 2 3 4 5 6 
#
# 1 72.0755 64.8054 68.0876 0.0000 0.0000 0.0000
# 2 64.8054 119.9510 100.8235 0.0000 0.0000 0.0000
# 3 68.0876 100.8235 144.4170 0.0000 0.0000 0.0000
# 4 0.0000 0.0000 0.0000 41.6069 0.0000 0.0000
# 5 0.0000 0.0000 0.0000 0.0000 36.7589 0.0000
# 6 0.0000 0.0000 0.0000 0.0000 0.0000 32.5160
#
#
#
# Elastic Compliance Matrix: (Units=1/GPa)
#
#
# Indices 1 2 3 4 5 6 
#
# 1 0.029450 -0.010262 -0.006720 0.000000 0.000000 0.000000
# 2 -0.010262 0.023753 -0.011745 0.000000 0.000000 0.000000
# 3 -0.006720 -0.011745 0.018292 0.000000 0.000000 0.000000
# 4 0.000000 0.000000 0.000000 0.024035 0.000000 0.000000
# 5 0.000000 0.000000 0.000000 0.000000 0.027204 0.000000
# 6 0.000000 0.000000 0.000000 0.000000 0.000000 0.030754
#
#
# Mechanical properties :
#
#
# Convention : Reuss Voigt Hill
#
# Bulk Modulus (GPa) = 71.22046 89.31963 80.27004
# Shear Modulus (GPa) = 23.18882 29.02482 26.10682
#
# Velocity S-wave (km/s) = 3.57181 3.99608 3.78988
# Velocity P-wave (km/s) = 7.49626 8.39241 7.95696
#
# Compressibility (1/GPa) = 0.01404091
#
# Stress axis : x y z
#
# Youngs Moduli (GPa) = 33.95632 42.10026 54.66863
#
# Poissons Ratio (x) = 0.43204 0.36737
# Poissons Ratio (y) = 0.34847 0.64206
# Poissons Ratio (z) = 0.22819 0.49445
#
# Static dielectric constant tensor:
#      x y z
#    x 1.608360 0.000000 0.000000 
#    y 0.000000 1.596500 0.000000 
#    z 0.000000 0.000000 1.600140 
# 
# From -- ./inp_files/73213.got.cif
#   From: 2010.05.17/outbox.cif.g08.bks.cpg/sg65_37_cif.got.tgz:73213.got - 2010.06.03 17:01:31.
