data_PCOD9492799
_publ_section_title
;
Structure prediction by ZEFSAII (Michael W. Deem and Ramdas Pophale) SiO2 
 PCOD9492799
Probable space group: C M M M
;
_chemical_formula_sum "Si O2"
_cell_formula_units_Z 72
_cell_length_a 11.468419
_cell_length_b 14.394218
_cell_length_c 22.851519
_cell_angle_alpha 90.000000
_cell_angle_beta 90.000000
_cell_angle_gamma 90.000000
_cell_volume 3772.304150
_symmetry_space_group_name_H-M "C M M M"
_symmetry_group_IT_number 65
_symmetry_cell_setting 'orthorhombic'
loop_
_space_group_symop_operation_xyz
x,y,z
-x,-y,z
x,-y,-z
-x,y,-z
-x,-y,-z
x,y,-z
-x,y,z
x,-y,z
1/2+x,1/2+y,z
1/2-x,1/2-y,z
1/2+x,1/2-y,-z
1/2-x,1/2+y,-z
1/2-x,1/2-y,-z
1/2+x,1/2+y,-z
1/2-x,1/2+y,z
1/2+x,1/2-y,z
loop_
_atom_site_type_symbol
_atom_site_label
_atom_site_fract_x
_atom_site_fract_y
_atom_site_fract_z
Si Si1 0.250000 0.750000 0.345562
Si Si2 0.628583 0.647426 0.069989
Si Si3 0.860196 0.104891 0.433307
Si Si4 0.867730 0.355997 0.878906
Si Si5 0.138042 0.395746 0.742530
O O1 0.176912 0.816715 0.388178
O O2 0.183876 0.679320 0.302810
O O3 0.500000 0.605722 0.083855
O O4 0.751396 0.603960 0.090456
O O5 0.626933 0.749403 0.099499
O O6 0.633972 0.657122 0.000000
O O7 0.819677 0.124042 0.500000
O O8 0.000000 0.102309 0.434637
O O9 0.819591 0.000000 0.417476
O O10 0.844906 0.364632 0.809718
O O11 0.000000 0.393496 0.890218
O O12 0.187918 0.500000 0.734737
O O13 0.000000 0.401670 0.734207
#
# Coordination Sequence:
#
# PCOD9492799 Si02
#       5
#     8  16  16  16  16
#     4  12  19  32  58  82 101 138 186 220 260 324
#     4   9  16  26  45  75 104 129 166 221 278 324
#     4   9  19  35  53  77 110 142 174 217 265 313
#     4   9  16  28  46  66  94 135 176 210 256 322
#     4  10  22  37  52  76 110 142 176 226 277 316
#
# _framework density 19.086478
#
# number of rings (size 3 to 8) (size 9 to 14) (size 15 to 20)
#    0.000    2.444    0.000    5.000    0.000    1.333 
#    0.000    1.111    0.000    6.000    0.000   24.889 
#    0.000    0.000    0.000    0.000    0.000    0.000 
#
# Total GULP energy -200468.214480 kJ/mol
# GULP energy per Si atom -5568.561513 kJ/mol
# Density = 1.904304 g / cm^3
# Si number density = 19.086478 Si / 1000 Ang^3
#
#
#
# Elastic Constant Matrix: (Units=GPa)
#
#
# Indices 1 2 3 4 5 6 
#
# 1 126.1543 42.7918 62.7116 0.0000 0.0000 0.0000
# 2 42.7918 130.7438 79.3832 0.0000 0.0000 0.0000
# 3 62.7116 79.3832 125.8793 0.0000 0.0000 0.0000
# 4 0.0000 0.0000 0.0000 203.8396 0.0000 0.0000
# 5 0.0000 0.0000 0.0000 0.0000 37.3246 0.0000
# 6 0.0000 0.0000 0.0000 0.0000 0.0000 9.7365
#
#
#
# Elastic Compliance Matrix: (Units=1/GPa)
#
#
# Indices 1 2 3 4 5 6 
#
# 1 0.010551 -0.000424 -0.004989 0.000000 0.000000 0.000000
# 2 -0.000424 0.012411 -0.007616 0.000000 0.000000 0.000000
# 3 -0.004989 -0.007616 0.015232 0.000000 0.000000 0.000000
# 4 0.000000 0.000000 0.000000 0.004906 0.000000 0.000000
# 5 0.000000 0.000000 0.000000 0.000000 0.026792 0.000000
# 6 0.000000 0.000000 0.000000 0.000000 0.000000 0.102706
#
#
# Mechanical properties :
#
#
# Convention : Reuss Voigt Hill
#
# Bulk Modulus (GPa) = 82.39279 83.61673 83.00476
# Shear Modulus (GPa) = 24.66693 63.37286 44.01989
#
# Velocity S-wave (km/s) = 3.59886 5.76846 4.80765
# Velocity P-wave (km/s) = 7.78016 9.39528 8.62561
#
# Compressibility (1/GPa) = 0.01213698
#
# Stress axis : x y z
#
# Youngs Moduli (GPa) = 94.78168 80.57159 65.65116
#
# Poissons Ratio (x) = 0.03418 0.32751
# Poissons Ratio (y) = 0.04021 0.49997
# Poissons Ratio (z) = 0.47283 0.61360
#
# Static dielectric constant tensor:
#      x y z
#    x 1.717400 0.000000 0.000000 
#    y 0.000000 1.664990 0.000000 
#    z 0.000000 0.000000 1.632410 
# 
# From -- ./inp_files/51134.got.cif
#   From: 2010.05.17/outbox.cif.g08.bks.cpg/sg65_26_cif.got.tgz:51134.got - 2010.06.03 17:01:31.
