data_PCOD9492276
_publ_section_title
;
Structure prediction by ZEFSAII (Michael W. Deem and Ramdas Pophale) SiO2 
 PCOD9492276
Probable space group: C M M M
;
_chemical_formula_sum "Si O2"
_cell_formula_units_Z 116
_cell_length_a 25.436766
_cell_length_b 22.139396
_cell_length_c 10.172749
_cell_angle_alpha 90.000000
_cell_angle_beta 90.000000
_cell_angle_gamma 90.000000
_cell_volume 5728.830754
_symmetry_space_group_name_H-M "C M M M"
_symmetry_group_IT_number 65
_symmetry_cell_setting 'orthorhombic'
loop_
_space_group_symop_operation_xyz
x,y,z
-x,-y,z
x,-y,-z
-x,y,-z
-x,-y,-z
x,y,-z
-x,y,z
x,-y,z
1/2+x,1/2+y,z
1/2-x,1/2-y,z
1/2+x,1/2-y,-z
1/2-x,1/2+y,-z
1/2-x,1/2-y,-z
1/2+x,1/2+y,-z
1/2-x,1/2+y,z
1/2+x,1/2-y,z
loop_
_atom_site_type_symbol
_atom_site_label
_atom_site_fract_x
_atom_site_fract_y
_atom_site_fract_z
Si Si1 0.234693 0.426807 0.142756
Si Si2 0.189769 0.241211 0.651122
Si Si3 0.165586 0.896107 0.717268
Si Si4 0.060257 0.600573 0.149731
Si Si5 0.101408 0.732408 0.851382
Si Si6 0.651061 0.928513 0.648688
Si Si7 0.559292 0.366416 0.844098
Si Si8 0.680358 0.500000 0.500000
O O1 0.234196 0.500000 0.144788
O O2 0.293746 0.404514 0.163291
O O3 0.199305 0.404214 0.263851
O O4 0.213709 0.407524 0.000000
O O5 0.185091 0.261461 0.500000
O O6 0.250000 0.250000 0.693363
O O7 0.175803 0.170297 0.659811
O O8 0.147911 0.272620 0.746355
O O9 0.105564 0.899266 0.765792
O O10 0.179198 0.947371 0.613803
O O11 0.065499 0.673278 0.153904
O O12 0.099396 0.577926 0.261776
O O13 0.000000 0.582426 0.171496
O O14 0.075271 0.581674 0.000000
O O15 0.069942 0.794501 0.827771
O O16 0.123170 0.736596 0.000000
O O17 0.646962 0.904167 0.500000
O O18 0.661173 0.000000 0.635650
O O19 0.500000 0.381078 0.801533
O O20 0.563641 0.379077 0.000000
#
# Coordination Sequence:
#
# PCOD9492276 Si02
#       8
#    16  16  16  16  16  16  16   4
#     4  10  21  37  60  87 117 152 198 248 297 357
#     4  10  22  38  57  85 121 159 195 241 299 353
#     4  11  22  38  61  87 122 159 203 244 301 361
#     4  10  21  38  60  87 119 154 195 246 301 355
#     4   9  19  36  59  88 117 151 197 243 299 363
#     4  10  23  39  58  83 115 157 202 247 301 361
#     4   9  18  37  64  89 116 153 199 252 307 362
#     4  12  24  40  61  86 120 172 203 244 296 370
#
# _framework density 20.248460000000001
#
# number of rings (size 3 to 8) (size 9 to 14) (size 15 to 20)
#    0.000    2.069    1.379    1.241    2.897    4.414 
#    0.000    2.414    0.000    1.655    0.000    0.000 
#    0.000    0.000    0.000    0.000    0.000    0.000 
#
# Total GULP energy -323374.868325 kJ/mol
# GULP energy per Si atom -5575.428764 kJ/mol
# Density = 2.020237 g / cm^3
# Si number density = 20.248460 Si / 1000 Ang^3
#
#
#
# Elastic Constant Matrix: (Units=GPa)
#
#
# Indices 1 2 3 4 5 6 
#
# 1 130.4973 -6.4048 64.0363 0.0000 0.0000 0.0000
# 2 -6.4048 43.6207 2.4055 0.0000 0.0000 0.0000
# 3 64.0363 2.4055 120.2511 0.0000 0.0000 0.0000
# 4 0.0000 0.0000 0.0000 50.0511 0.0000 0.0000
# 5 0.0000 0.0000 0.0000 0.0000 258.0652 0.0000
# 6 0.0000 0.0000 0.0000 0.0000 0.0000 13.4327
#
#
#
# Elastic Compliance Matrix: (Units=1/GPa)
#
#
# Indices 1 2 3 4 5 6 
#
# 1 0.010522 0.001856 -0.005640 0.000000 0.000000 0.000000
# 2 0.001856 0.023278 -0.001454 0.000000 0.000000 0.000000
# 3 -0.005640 -0.001454 0.011349 0.000000 0.000000 0.000000
# 4 0.000000 0.000000 0.000000 0.019980 0.000000 0.000000
# 5 0.000000 0.000000 0.000000 0.000000 0.003875 0.000000
# 6 0.000000 0.000000 0.000000 0.000000 0.000000 0.074445
#
#
# Mechanical properties :
#
#
# Convention : Reuss Voigt Hill
#
# Bulk Modulus (GPa) = 28.84219 46.04924 37.44572
# Shear Modulus (GPa) = 30.21489 79.93194 55.07341
#
# Velocity S-wave (km/s) = 3.86710 6.28977 5.22091
# Velocity P-wave (km/s) = 5.84930 8.69136 7.40791
#
# Compressibility (1/GPa) = 0.03467143
#
# Stress axis : x y z
#
# Youngs Moduli (GPa) = 95.04088 42.95981 88.11703
#
# Poissons Ratio (x) = -0.07973 0.49700
# Poissons Ratio (y) = -0.17639 0.12812
# Poissons Ratio (z) = 0.53605 0.06246
#
# Static dielectric constant tensor:
#      x y z
#    x 1.698580 0.000000 0.000000 
#    y 0.000000 1.734170 0.000000 
#    z 0.000000 0.000000 1.730050 
# 
# From -- ./inp_files/14868.got.cif
#   From: 2010.05.17/outbox.cif.g08.bks.cpg/sg65_8_cif.got.tgz:14868.got - 2010.06.03 17:01:31.
