data_PCOD9492272
_publ_section_title
;
Structure prediction by ZEFSAII (Michael W. Deem and Ramdas Pophale) SiO2 
 PCOD9492272
Probable space group: C M M M
;
_chemical_formula_sum "Si O2"
_cell_formula_units_Z 88
_cell_length_a 9.706074
_cell_length_b 22.002725
_cell_length_c 21.695308
_cell_angle_alpha 90.000000
_cell_angle_beta 90.000000
_cell_angle_gamma 90.000000
_cell_volume 4633.251648
_symmetry_space_group_name_H-M "C M M M"
_symmetry_group_IT_number 65
_symmetry_cell_setting 'orthorhombic'
loop_
_space_group_symop_operation_xyz
x,y,z
-x,-y,z
x,-y,-z
-x,y,-z
-x,-y,-z
x,y,-z
-x,y,z
x,-y,z
1/2+x,1/2+y,z
1/2-x,1/2-y,z
1/2+x,1/2-y,-z
1/2-x,1/2+y,-z
1/2-x,1/2-y,-z
1/2+x,1/2+y,-z
1/2-x,1/2+y,z
1/2+x,1/2-y,z
loop_
_atom_site_type_symbol
_atom_site_label
_atom_site_fract_x
_atom_site_fract_y
_atom_site_fract_z
Si Si1 0.857466 0.500000 0.251814
Si Si2 0.000000 0.209626 0.069504
Si Si3 0.668209 0.686519 0.731340
Si Si4 0.500000 0.145432 0.071818
Si Si5 0.785598 0.129351 0.864231
Si Si6 0.141804 0.000000 0.146789
Si Si7 0.336394 0.500000 0.573785
Si Si8 0.162565 0.398600 0.354802
O O1 0.750393 0.500000 0.199494
O O2 0.849867 0.557154 0.296240
O O3 0.000000 0.500000 0.217269
O O4 0.000000 0.281614 0.069399
O O5 0.867355 0.183470 0.103380
O O6 0.000000 0.187068 0.000000
O O7 0.500000 0.693482 0.724658
O O8 0.750000 0.750000 0.742807
O O9 0.694452 0.643723 0.791554
O O10 0.743887 0.656578 0.671488
O O11 0.368174 0.127450 0.111375
O O12 0.500000 0.123939 0.000000
O O13 0.846856 0.064540 0.885599
O O14 0.000000 0.000000 0.182409
O O15 0.500000 0.500000 0.594222
O O16 0.336661 0.500000 0.500000
O O17 0.250976 0.559426 0.597770
O O18 0.000000 0.384945 0.372865
#
# Coordination Sequence:
#
# PCOD9492272 Si02
#       8
#     8   8  16   8  16   8   8  16
#     4   9  19  33  54  81 116 155 191 232 289 349
#     4  11  22  45  67  87 115 152 205 260 320 385
#     4  12  24  38  60  91 128 165 208 265 326 388
#     4  11  26  45  67  87 113 154 205 266 320 385
#     4  12  25  40  63  92 119 158 206 259 323 392
#     4  12  23  39  57  85 118 156 191 243 310 383
#     4  10  21  39  66  99 136 179 223 267 307 363
#     4  10  21  37  59  92 129 168 212 261 312 369
#
# _framework density 18.99314
#
# number of rings (size 3 to 8) (size 9 to 14) (size 15 to 20)
#    0.000    1.000    3.636    4.091    3.818    3.636 
#    0.000    2.727    0.000    0.545    0.000    0.000 
#    0.000    0.000    0.000    0.000    0.000    0.000 
#
# Total GULP energy -245050.995988 kJ/mol
# GULP energy per Si atom -5569.340818 kJ/mol
# Density = 1.894991 g / cm^3
# Si number density = 18.993140 Si / 1000 Ang^3
#
#
#
# Elastic Constant Matrix: (Units=GPa)
#
#
# Indices 1 2 3 4 5 6 
#
# 1 195.2686 28.4355 42.4231 0.0000 0.0000 0.0000
# 2 28.4355 84.5802 8.8760 0.0000 0.0000 0.0000
# 3 42.4231 8.8760 60.6323 0.0000 0.0000 0.0000
# 4 0.0000 0.0000 0.0000 5.6943 0.0000 0.0000
# 5 0.0000 0.0000 0.0000 0.0000 17.6319 0.0000
# 6 0.0000 0.0000 0.0000 0.0000 0.0000 25.2028
#
#
#
# Elastic Compliance Matrix: (Units=1/GPa)
#
#
# Indices 1 2 3 4 5 6 
#
# 1 0.006264 -0.001672 -0.004138 0.000000 0.000000 0.000000
# 2 -0.001672 0.012454 -0.000654 0.000000 0.000000 0.000000
# 3 -0.004138 -0.000654 0.019484 0.000000 0.000000 0.000000
# 4 0.000000 0.000000 0.000000 0.175614 0.000000 0.000000
# 5 0.000000 0.000000 0.000000 0.000000 0.056715 0.000000
# 6 0.000000 0.000000 0.000000 0.000000 0.000000 0.039678
#
#
# Mechanical properties :
#
#
# Convention : Reuss Voigt Hill
#
# Bulk Modulus (GPa) = 39.56461 55.55001 47.55731
# Shear Modulus (GPa) = 15.08029 27.08891 21.08460
#
# Velocity S-wave (km/s) = 2.82083 3.78067 3.33546
# Velocity P-wave (km/s) = 5.61121 6.95477 6.31880
#
# Compressibility (1/GPa) = 0.02527511
#
# Stress axis : x y z
#
# Youngs Moduli (GPa) = 159.65486 80.29773 51.32517
#
# Poissons Ratio (x) = 0.13422 0.21237
# Poissons Ratio (y) = 0.26687 0.03354
# Poissons Ratio (z) = 0.66061 0.05248
#
# Static dielectric constant tensor:
#      x y z
#    x 1.720050 0.000000 0.000000 
#    y 0.000000 1.729060 0.000000 
#    z 0.000000 0.000000 1.628780 
# 
# From -- ./inp_files/67741.got.cif
#   From: 2010.05.17/outbox.cif.g08.bks.cpg/sg65_34_cif.got.tgz:67741.got - 2010.06.03 17:01:31.
