data_PCOD9492366
_publ_section_title
;
Structure prediction by ZEFSAII (Michael W. Deem and Ramdas Pophale) SiO2 
 PCOD9492366
Probable space group: C M M M
;
_chemical_formula_sum "Si O2"
_cell_formula_units_Z 72
_cell_length_a 17.413502
_cell_length_b 24.902838
_cell_length_c 7.863065
_cell_angle_alpha 90.000000
_cell_angle_beta 90.000000
_cell_angle_gamma 90.000000
_cell_volume 3409.783692
_symmetry_space_group_name_H-M "C M M M"
_symmetry_group_IT_number 65
_symmetry_cell_setting 'orthorhombic'
loop_
_space_group_symop_operation_xyz
x,y,z
-x,-y,z
x,-y,-z
-x,y,-z
-x,-y,-z
x,y,-z
-x,y,z
x,-y,z
1/2+x,1/2+y,z
1/2-x,1/2-y,z
1/2+x,1/2-y,-z
1/2-x,1/2+y,-z
1/2-x,1/2-y,-z
1/2+x,1/2+y,-z
1/2-x,1/2+y,z
1/2+x,1/2-y,z
loop_
_atom_site_type_symbol
_atom_site_label
_atom_site_fract_x
_atom_site_fract_y
_atom_site_fract_z
Si Si1 0.378014 0.352311 0.302482
Si Si2 0.087030 0.437294 0.294503
Si Si3 0.083977 0.266162 0.199725
Si Si4 0.206144 0.651401 0.802641
Si Si5 0.000000 0.938823 0.707714
O O1 0.398037 0.345134 0.500000
O O2 0.402500 0.297149 0.213938
O O3 0.287030 0.358793 0.285235
O O4 0.425990 0.403666 0.240095
O O5 0.091862 0.432531 0.500000
O O6 0.098039 0.500000 0.252347
O O7 0.150130 0.399385 0.213089
O O8 0.000000 0.422075 0.243870
O O9 0.155947 0.299241 0.271347
O O10 0.000000 0.279571 0.273995
O O11 0.081613 0.280494 0.000000
O O12 0.224434 0.662825 0.000000
O O13 0.000000 0.941573 0.500000
O O14 0.000000 0.000000 0.769756
#
# Coordination Sequence:
#
# PCOD9492366 Si02
#       5
#    16  16  16  16   8
#     4  11  22  38  60  86 113 147 194 246 298 352
#     4   9  19  37  59  83 114 152 193 239 290 341
#     4  10  21  38  59  82 116 157 192 233 292 354
#     4  11  23  37  56  86 120 156 196 236 289 356
#     4   9  20  40  63  85 111 147 192 243 300 355
#
# _framework density 21.11571
#
# number of rings (size 3 to 8) (size 9 to 14) (size 15 to 20)
#    0.000    1.889    1.111    3.333    0.000    7.111 
#    0.000    3.333    0.000    4.667    0.000    0.000 
#    0.000    0.000    0.000    0.000    0.000    0.000 
#
# Total GULP energy -201145.973210 kJ/mol
# GULP energy per Si atom -5587.388145 kJ/mol
# Density = 2.106765 g / cm^3
# Si number density = 21.115710 Si / 1000 Ang^3
#
#
#
# Elastic Constant Matrix: (Units=GPa)
#
#
# Indices 1 2 3 4 5 6 
#
# 1 161.9389 75.7450 1.4956 0.0000 0.0000 0.0000
# 2 75.7450 124.8444 -3.5755 0.0000 0.0000 0.0000
# 3 1.4956 -3.5755 26.9654 0.0000 0.0000 0.0000
# 4 0.0000 0.0000 0.0000 26.1588 0.0000 0.0000
# 5 0.0000 0.0000 0.0000 0.0000 17.5028 0.0000
# 6 0.0000 0.0000 0.0000 0.0000 0.0000 1.5058
#
#
#
# Elastic Compliance Matrix: (Units=1/GPa)
#
#
# Indices 1 2 3 4 5 6 
#
# 1 0.008659 -0.005288 -0.001181 0.000000 0.000000 0.000000
# 2 -0.005288 0.011269 0.001788 0.000000 0.000000 0.000000
# 3 -0.001181 0.001788 0.037387 0.000000 0.000000 0.000000
# 4 0.000000 0.000000 0.000000 0.038228 0.000000 0.000000
# 5 0.000000 0.000000 0.000000 0.000000 0.057134 0.000000
# 6 0.000000 0.000000 0.000000 0.000000 0.000000 0.664096
#
#
# Mechanical properties :
#
#
# Convention : Reuss Voigt Hill
#
# Bulk Modulus (GPa) = 20.85389 51.23100 36.04244
# Shear Modulus (GPa) = 5.93740 25.03905 15.48822
#
# Velocity S-wave (km/s) = 1.67867 3.44728 2.71125
# Velocity P-wave (km/s) = 3.69523 6.33717 5.18722
#
# Compressibility (1/GPa) = 0.04795269
#
# Stress axis : x y z
#
# Youngs Moduli (GPa) = 115.48329 88.73751 26.74723
#
# Poissons Ratio (x) = 0.46920 0.03160
# Poissons Ratio (y) = 0.61062 -0.04781
# Poissons Ratio (z) = 0.13643 -0.15862
#
# Static dielectric constant tensor:
#      x y z
#    x 1.763670 0.000000 0.000000 
#    y 0.000000 1.738330 0.000000 
#    z 0.000000 0.000000 1.779920 
# 
# From -- ./inp_files/7267.got.cif
#   From: 2010.05.17/outbox.cif.g08.bks.cpg/sg65_4_cif.got.tgz:7267.got - 2010.06.03 17:01:31.
