data_PCOD9492952
_publ_section_title
;
Structure prediction by ZEFSAII (Michael W. Deem and Ramdas Pophale) SiO2 
 PCOD9492952
Probable space group: C M M M
;
_chemical_formula_sum "Si O2"
_cell_formula_units_Z 88
_cell_length_a 18.777967
_cell_length_b 22.847612
_cell_length_c 11.483418
_cell_angle_alpha 90.000000
_cell_angle_beta 90.000000
_cell_angle_gamma 90.000000
_cell_volume 4926.750394
_symmetry_space_group_name_H-M "C M M M"
_symmetry_group_IT_number 65
_symmetry_cell_setting 'orthorhombic'
loop_
_space_group_symop_operation_xyz
x,y,z
-x,-y,z
x,-y,-z
-x,y,-z
-x,-y,-z
x,y,-z
-x,y,z
x,-y,z
1/2+x,1/2+y,z
1/2-x,1/2-y,z
1/2+x,1/2-y,-z
1/2-x,1/2+y,-z
1/2-x,1/2-y,-z
1/2+x,1/2+y,-z
1/2-x,1/2+y,z
1/2+x,1/2-y,z
loop_
_atom_site_type_symbol
_atom_site_label
_atom_site_fract_x
_atom_site_fract_y
_atom_site_fract_z
Si Si1 0.169144 0.892860 0.260293
Si Si2 0.864720 0.291005 0.500000
Si Si3 0.584903 0.500000 0.637317
Si Si4 0.582773 0.289698 0.138788
Si Si5 0.685179 0.931220 0.860698
Si Si6 0.701535 0.330633 0.500000
Si Si7 0.415871 0.833952 0.250940
O O1 0.115266 0.944234 0.294595
O O2 0.130524 0.840143 0.193633
O O3 0.236052 0.916476 0.187133
O O4 0.194613 0.867656 0.383503
O O5 0.781615 0.306995 0.500000
O O6 0.859173 0.220172 0.500000
O O7 0.900366 0.317485 0.384998
O O8 0.500000 0.500000 0.638455
O O9 0.607484 0.500000 0.500000
O O10 0.500000 0.297675 0.174506
O O11 0.604684 0.225067 0.180918
O O12 0.586646 0.292427 0.000000
O O13 0.630377 0.888147 0.795255
O O14 0.670181 0.000000 0.838736
O O15 0.681737 0.921437 0.000000
O O16 0.500000 0.844699 0.233829
#
# Coordination Sequence:
#
# PCOD9492952 Si02
#       7
#    16   8   8  16  16   8  16
#     4  12  21  41  62  90 125 161 208 256 308 370
#     4  11  21  40  59  96 131 155 197 249 317 384
#     4  11  24  38  59  91 126 167 205 246 306 376
#     4  10  22  39  60  89 125 163 203 252 310 371
#     4  11  25  43  65  91 122 166 217 263 313 371
#     4  11  22  35  65  92 124 165 195 253 315 365
#     4  11  23  41  65  92 126 163 205 260 318 375
#
# _framework density 17.861671999999999
#
# number of rings (size 3 to 8) (size 9 to 14) (size 15 to 20)
#    0.000    1.000    5.455    1.909    0.000    2.182 
#    0.000    4.091    0.000    3.273    0.000    0.000 
#    0.000    0.000    0.000    0.000    0.000    0.000 
#
# Total GULP energy -245758.841326 kJ/mol
# GULP energy per Si atom -5585.428212 kJ/mol
# Density = 1.782102 g / cm^3
# Si number density = 17.861672 Si / 1000 Ang^3
#
#
#
# Elastic Constant Matrix: (Units=GPa)
#
#
# Indices 1 2 3 4 5 6 
#
# 1 78.7053 54.6090 22.0258 0.0000 0.0000 0.0000
# 2 54.6090 114.0578 32.5840 0.0000 0.0000 0.0000
# 3 22.0258 32.5840 71.7649 0.0000 0.0000 0.0000
# 4 0.0000 0.0000 0.0000 29.5787 0.0000 0.0000
# 5 0.0000 0.0000 0.0000 0.0000 27.1260 0.0000
# 6 0.0000 0.0000 0.0000 0.0000 0.0000 31.3144
#
#
#
# Elastic Compliance Matrix: (Units=1/GPa)
#
#
# Indices 1 2 3 4 5 6 
#
# 1 0.019268 -0.008659 -0.001982 0.000000 0.000000 0.000000
# 2 -0.008659 0.013966 -0.003683 0.000000 0.000000 0.000000
# 3 -0.001982 -0.003683 0.016215 0.000000 0.000000 0.000000
# 4 0.000000 0.000000 0.000000 0.033808 0.000000 0.000000
# 5 0.000000 0.000000 0.000000 0.000000 0.036865 0.000000
# 6 0.000000 0.000000 0.000000 0.000000 0.000000 0.031934
#
#
# Mechanical properties :
#
#
# Convention : Reuss Voigt Hill
#
# Bulk Modulus (GPa) = 48.07723 53.66284 50.87003
# Shear Modulus (GPa) = 26.64693 27.95777 27.30235
#
# Velocity S-wave (km/s) = 3.86664 3.96060 3.91390
# Velocity P-wave (km/s) = 6.84904 7.14310 6.99762
#
# Compressibility (1/GPa) = 0.02079987
#
# Stress axis : x y z
#
# Youngs Moduli (GPa) = 51.89846 71.60472 61.67091
#
# Poissons Ratio (x) = 0.62003 0.12224
# Poissons Ratio (y) = 0.44939 0.22715
# Poissons Ratio (z) = 0.10287 0.26374
#
# Static dielectric constant tensor:
#      x y z
#    x 1.592640 0.000000 0.000000 
#    y 0.000000 1.608840 0.000000 
#    z 0.000000 0.000000 1.586410 
# 
# From -- ./inp_files/26861.got.cif
#   From: 2010.05.17/outbox.cif.g08.bks.cpg/sg65_14_cif.got.tgz:26861.got - 2010.06.03 17:01:31.
