data_PCOD9492987
_publ_section_title
;
Structure prediction by ZEFSAII (Michael W. Deem and Ramdas Pophale) SiO2 
 PCOD9492987
Probable space group: C M M M
;
_chemical_formula_sum "Si O2"
_cell_formula_units_Z 80
_cell_length_a 18.846520
_cell_length_b 26.400829
_cell_length_c 8.420300
_cell_angle_alpha 90.000000
_cell_angle_beta 90.000000
_cell_angle_gamma 90.000000
_cell_volume 4189.636059
_symmetry_space_group_name_H-M "C M M M"
_symmetry_group_IT_number 65
_symmetry_cell_setting 'orthorhombic'
loop_
_space_group_symop_operation_xyz
x,y,z
-x,-y,z
x,-y,-z
-x,y,-z
-x,-y,-z
x,y,-z
-x,y,z
x,-y,z
1/2+x,1/2+y,z
1/2-x,1/2-y,z
1/2+x,1/2-y,-z
1/2-x,1/2+y,-z
1/2-x,1/2-y,-z
1/2+x,1/2+y,-z
1/2-x,1/2+y,z
1/2+x,1/2-y,z
loop_
_atom_site_type_symbol
_atom_site_label
_atom_site_fract_x
_atom_site_fract_y
_atom_site_fract_z
Si Si1 0.581469 0.749681 0.192000
Si Si2 0.081874 0.942144 0.691776
Si Si3 0.669353 0.846030 0.309686
Si Si4 0.170517 0.847990 0.810193
Si Si5 0.418068 0.943045 0.306502
O O1 0.500000 0.750971 0.247839
O O2 0.624644 0.798586 0.247272
O O3 0.621665 0.698830 0.245894
O O4 0.580620 0.749247 0.000000
O O5 0.084787 0.940237 0.500000
O O6 0.133996 0.900363 0.760052
O O7 0.000000 0.931812 0.738956
O O8 0.098983 0.000000 0.739386
O O9 0.666481 0.845726 0.500000
O O10 0.750552 0.843159 0.256737
O O11 0.632931 0.898259 0.251912
O O12 0.174340 0.845575 0.000000
O O13 0.416841 0.943137 0.500000
O O14 0.500000 0.933615 0.259895
O O15 0.398174 0.000000 0.255115
#
# Coordination Sequence:
#
# PCOD9492987 Si02
#       5
#    16  16  16  16  16
#     4  10  22  40  59  78 105 143 184 228 280 335
#     4   9  19  37  60  85 113 145 183 230 282 331
#     4  11  22  35  55  84 113 142 181 229 280 332
#     4  11  23  38  56  80 112 150 189 226 271 332
#     4   8  15  30  52  77 105 137 174 217 265 318
#
# _framework density 19.094739000000001
#
# number of rings (size 3 to 8) (size 9 to 14) (size 15 to 20)
#    0.000    2.200    0.000    4.200    0.000    7.600 
#    0.000    3.000    0.000    1.800    0.000    7.000 
#    0.000    0.000    0.000    0.000    0.000    0.000 
#
# Total GULP energy -223391.439447 kJ/mol
# GULP energy per Si atom -5584.785986 kJ/mol
# Density = 1.905128 g / cm^3
# Si number density = 19.094739 Si / 1000 Ang^3
#
#
#
# Elastic Constant Matrix: (Units=GPa)
#
#
# Indices 1 2 3 4 5 6 
#
# 1 176.1761 122.9248 20.3006 0.0000 0.0000 0.0000
# 2 122.9248 165.3859 19.4535 0.0000 0.0000 0.0000
# 3 20.3006 19.4535 10.3381 0.0000 0.0000 0.0000
# 4 0.0000 0.0000 0.0000 41.8329 0.0000 0.0000
# 5 0.0000 0.0000 0.0000 0.0000 28.4920 0.0000
# 6 0.0000 0.0000 0.0000 0.0000 0.0000 -22.5034
#
#
#
# Elastic Compliance Matrix: (Units=1/GPa)
#
#
# Indices 1 2 3 4 5 6 
#
# 1 0.012411 -0.008165 -0.009006 0.000000 0.000000 0.000000
# 2 -0.008165 0.013137 -0.008687 0.000000 0.000000 0.000000
# 3 -0.009006 -0.008687 0.130761 0.000000 0.000000 0.000000
# 4 0.000000 0.000000 0.000000 0.023905 0.000000 0.000000
# 5 0.000000 0.000000 0.000000 0.000000 0.035098 0.000000
# 6 0.000000 0.000000 0.000000 0.000000 0.000000 -0.044438
#
#
# Mechanical properties :
#
#
# Convention : Reuss Voigt Hill
#
# Bulk Modulus (GPa) = 9.56094 75.25089 42.40592
# Shear Modulus (GPa) = 19.42090 22.17906 20.79998
#
# Velocity S-wave (km/s) = 3.19263 3.41182 3.30404
# Velocity P-wave (km/s) = 4.31376 7.41724 6.06729
#
# Compressibility (1/GPa) = 0.10459222
#
# Stress axis : x y z
#
# Youngs Moduli (GPa) = 80.57192 76.11940 7.64756
#
# Poissons Ratio (x) = 0.62155 0.06888
# Poissons Ratio (y) = 0.65790 0.06643
# Poissons Ratio (z) = 0.72567 0.66122
#
# Static dielectric constant tensor:
#      x y z
#    x 1.633310 0.000000 0.000000 
#    y 0.000000 1.651230 0.000000 
#    z 0.000000 0.000000 1.665850 
# 
# From -- ./inp_files/9636.got.cif
#   From: 2010.05.17/outbox.cif.g08.bks.cpg/sg65_5_cif.got.tgz:9636.got - 2010.06.03 17:01:31.
