data_PCOD9492140
_publ_section_title
;
Structure prediction by ZEFSAII (Michael W. Deem and Ramdas Pophale) SiO2 
 PCOD9492140
Probable space group: C M M M
;
_chemical_formula_sum "Si O2"
_cell_formula_units_Z 72
_cell_length_a 8.752724
_cell_length_b 18.542463
_cell_length_c 23.623635
_cell_angle_alpha 90.000000
_cell_angle_beta 90.000000
_cell_angle_gamma 90.000000
_cell_volume 3834.046529
_symmetry_space_group_name_H-M "C M M M"
_symmetry_group_IT_number 65
_symmetry_cell_setting 'orthorhombic'
loop_
_space_group_symop_operation_xyz
x,y,z
-x,-y,z
x,-y,-z
-x,y,-z
-x,-y,-z
x,y,-z
-x,y,z
x,-y,z
1/2+x,1/2+y,z
1/2-x,1/2-y,z
1/2+x,1/2-y,-z
1/2-x,1/2+y,-z
1/2-x,1/2-y,-z
1/2+x,1/2+y,-z
1/2-x,1/2+y,z
1/2+x,1/2-y,z
loop_
_atom_site_type_symbol
_atom_site_label
_atom_site_fract_x
_atom_site_fract_y
_atom_site_fract_z
Si Si1 0.316492 0.169778 0.219856
Si Si2 0.182818 0.829381 0.564879
Si Si3 0.684393 0.330355 0.000000
Si Si4 0.815799 0.416866 0.667747
Si Si5 0.815339 0.084203 0.886630
O O1 0.500000 0.172919 0.218207
O O2 0.250000 0.250000 0.216974
O O3 0.269284 0.131099 0.278372
O O4 0.256875 0.123084 0.167317
O O5 0.224693 0.848433 0.500000
O O6 0.250000 0.750000 0.576573
O O7 0.246805 0.884473 0.610659
O O8 0.000000 0.826150 0.568580
O O9 0.750000 0.250000 0.000000
O O10 0.730532 0.373984 0.943785
O O11 0.500000 0.326225 0.000000
O O12 0.770554 0.500000 0.676041
O O13 0.000000 0.414065 0.664039
O O14 0.000000 0.087969 0.882434
O O15 0.772556 0.000000 0.889271
#
# Coordination Sequence:
#
# PCOD9492140 Si02
#       5
#    16  16   8  16  16
#     4  11  23  39  59  84 114 147 187 233 279 331
#     4  10  21  37  58  84 113 146 186 231 277 328
#     4  10  21  37  57  83 115 150 189 232 276 328
#     4  10  22  39  58  82 113 148 185 228 279 332
#     4  10  21  38  60  85 114 149 188 231 281 333
#
# _framework density 18.779115999999998
#
# number of rings (size 3 to 8) (size 9 to 14) (size 15 to 20)
#    0.000    1.778    0.000    3.667    0.000   11.111 
#    0.000    2.222    0.000    2.000    0.000    0.000 
#    0.000    0.000    0.000    0.000    0.000    0.000 
#
# Total GULP energy -201221.414076 kJ/mol
# GULP energy per Si atom -5589.483724 kJ/mol
# Density = 1.873637 g / cm^3
# Si number density = 18.779116 Si / 1000 Ang^3
#
#
#
# Elastic Constant Matrix: (Units=GPa)
#
#
# Indices 1 2 3 4 5 6 
#
# 1 22.4126 45.0627 39.6062 0.0000 0.0000 0.0000
# 2 45.0627 189.8025 107.1161 0.0000 0.0000 0.0000
# 3 39.6062 107.1161 143.3525 0.0000 0.0000 0.0000
# 4 0.0000 0.0000 0.0000 141.0655 0.0000 0.0000
# 5 0.0000 0.0000 0.0000 0.0000 -1.4825 0.0000
# 6 0.0000 0.0000 0.0000 0.0000 0.0000 28.9570
#
#
#
# Elastic Compliance Matrix: (Units=1/GPa)
#
#
# Indices 1 2 3 4 5 6 
#
# 1 0.107640 -0.015169 -0.018405 0.000000 0.000000 0.000000
# 2 -0.015169 0.011248 -0.004214 0.000000 0.000000 0.000000
# 3 -0.018405 -0.004214 0.015210 0.000000 0.000000 0.000000
# 4 0.000000 0.000000 0.000000 0.007089 0.000000 0.000000
# 5 0.000000 0.000000 0.000000 0.000000 -0.674551 0.000000
# 6 0.000000 0.000000 0.000000 0.000000 0.000000 0.034534
#
#
# Mechanical properties :
#
#
# Convention : Reuss Voigt Hill
#
# Bulk Modulus (GPa) = 17.08746 82.12641 49.60693
# Shear Modulus (GPa) = -12.38397 44.62684 16.12144
#
# Velocity S-wave (km/s) = -2.57077 4.88013 2.93316
# Velocity P-wave (km/s) = 0.55419 8.69379 6.15992
#
# Compressibility (1/GPa) = 0.05852245
#
# Stress axis : x y z
#
# Youngs Moduli (GPa) = 9.29022 88.90329 65.74815
#
# Poissons Ratio (x) = 1.34857 1.21008
# Poissons Ratio (y) = 0.14092 0.27706
# Poissons Ratio (z) = 0.17099 0.37463
#
# Static dielectric constant tensor:
#      x y z
#    x 1.635440 0.000000 0.000000 
#    y 0.000000 1.614550 0.000000 
#    z 0.000000 0.000000 1.626190 
# 
# From -- ./inp_files/70305.got.cif
#   From: 2010.05.17/outbox.cif.g08.bks.cpg/sg65_36_cif.got.tgz:70305.got - 2010.06.03 17:01:31.
