data_PCOD9492330
_publ_section_title
;
Structure prediction by ZEFSAII (Michael W. Deem and Ramdas Pophale) SiO2 
 PCOD9492330
Probable space group: C M M M
;
_chemical_formula_sum "Si O2"
_cell_formula_units_Z 88
_cell_length_a 8.712949
_cell_length_b 18.230449
_cell_length_c 29.866457
_cell_angle_alpha 90.000000
_cell_angle_beta 90.000000
_cell_angle_gamma 90.000000
_cell_volume 4744.017072
_symmetry_space_group_name_H-M "C M M M"
_symmetry_group_IT_number 65
_symmetry_cell_setting 'orthorhombic'
loop_
_space_group_symop_operation_xyz
x,y,z
-x,-y,z
x,-y,-z
-x,y,-z
-x,-y,-z
x,y,-z
-x,y,z
x,-y,z
1/2+x,1/2+y,z
1/2-x,1/2-y,z
1/2+x,1/2-y,-z
1/2-x,1/2+y,-z
1/2-x,1/2-y,-z
1/2+x,1/2+y,-z
1/2-x,1/2+y,z
1/2+x,1/2-y,z
loop_
_atom_site_type_symbol
_atom_site_label
_atom_site_fract_x
_atom_site_fract_y
_atom_site_fract_z
Si Si1 0.816312 0.166910 0.451128
Si Si2 0.314556 0.914290 0.172215
Si Si3 0.684920 0.167844 0.262227
Si Si4 0.183332 0.413220 0.000000
Si Si5 0.816129 0.667018 0.360562
Si Si6 0.683057 0.331693 0.086367
O O1 0.777122 0.133946 0.500000
O O2 0.750000 0.250000 0.452043
O O3 0.750345 0.131727 0.405812
O O4 0.000000 0.170868 0.447690
O O5 0.500000 0.907461 0.168502
O O6 0.267270 0.880747 0.220075
O O7 0.238587 0.870393 0.131806
O O8 0.276102 0.000000 0.169523
O O9 0.500000 0.172909 0.261540
O O10 0.750000 0.250000 0.257786
O O11 0.726452 0.136568 0.311482
O O12 0.253670 0.376552 0.044047
O O13 0.213877 0.500000 0.000000
O O14 0.000000 0.402174 0.000000
O O15 0.750000 0.750000 0.359445
O O16 0.000000 0.669725 0.364246
O O17 0.500000 0.329019 0.084813
O O18 0.750000 0.250000 0.084692
#
# Coordination Sequence:
#
# PCOD9492330 Si02
#       6
#    16  16  16   8  16  16
#     4   9  15  21  30  47  74 109 148 188 234 290
#     4  10  21  38  58  80 109 143 178 218 267 320
#     4   9  18  31  48  71  97 129 168 209 254 305
#     4  11  24  43  66  91 121 155 188 223 268 317
#     4   9  15  23  36  55  81 113 152 195 240 292
#     4  12  25  41  62  88 118 149 186 228 268 313
#
# _framework density 18.549681
#
# number of rings (size 3 to 8) (size 9 to 14) (size 15 to 20)
#    0.000    2.091    0.000    5.455    0.000    7.273 
#    0.000    0.000    0.000    0.000    0.000    0.000 
#    0.000    0.727    0.000    9.091    0.000    4.909 
#
# Total GULP energy -245433.749988 kJ/mol
# GULP energy per Si atom -5578.039772 kJ/mol
# Density = 1.850746 g / cm^3
# Si number density = 18.549681 Si / 1000 Ang^3
#
#
#
# Elastic Constant Matrix: (Units=GPa)
#
#
# Indices 1 2 3 4 5 6 
#
# 1 72.1417 49.1699 75.7560 0.0000 0.0000 0.0000
# 2 49.1699 79.9469 75.6191 0.0000 0.0000 0.0000
# 3 75.7560 75.6191 231.0572 0.0000 0.0000 0.0000
# 4 0.0000 0.0000 0.0000 -14.8010 0.0000 0.0000
# 5 0.0000 0.0000 0.0000 0.0000 24.8952 0.0000
# 6 0.0000 0.0000 0.0000 0.0000 0.0000 15.9205
#
#
#
# Elastic Compliance Matrix: (Units=1/GPa)
#
#
# Indices 1 2 3 4 5 6 
#
# 1 0.027368 -0.012086 -0.005018 0.000000 0.000000 0.000000
# 2 -0.012086 0.023454 -0.003713 0.000000 0.000000 0.000000
# 3 -0.005018 -0.003713 0.007188 0.000000 0.000000 0.000000
# 4 0.000000 0.000000 0.000000 -0.067563 0.000000 0.000000
# 5 0.000000 0.000000 0.000000 0.000000 0.040168 0.000000
# 6 0.000000 0.000000 0.000000 0.000000 0.000000 0.062812
#
#
# Mechanical properties :
#
#
# Convention : Reuss Voigt Hill
#
# Bulk Modulus (GPa) = 61.06402 87.13731 74.10067
# Shear Modulus (GPa) = 35.58181 17.37633 26.47907
#
# Velocity S-wave (km/s) = 4.38447 3.06395 3.78228
# Velocity P-wave (km/s) = 7.65650 7.71972 7.68818
#
# Compressibility (1/GPa) = 0.01637625
#
# Stress axis : x y z
#
# Youngs Moduli (GPa) = 36.53843 42.63662 139.11580
#
# Poissons Ratio (x) = 0.51533 0.69803
# Poissons Ratio (y) = 0.44162 0.51656
# Poissons Ratio (z) = 0.18334 0.15832
#
# Static dielectric constant tensor:
#      x y z
#    x 1.622440 0.000000 0.000000 
#    y 0.000000 1.593030 0.000000 
#    z 0.000000 0.000000 1.693700 
# 
# From -- ./inp_files/76534.got.cif
#   From: 2010.05.17/outbox.cif.g08.bks.cpg/sg65_39_cif.got.tgz:76534.got - 2010.06.03 17:01:31.
