data_PCOD9492492
_publ_section_title
;
Structure prediction by ZEFSAII (Michael W. Deem and Ramdas Pophale) SiO2 
 PCOD9492492
Probable space group: C M M M
;
_chemical_formula_sum "Si O2"
_cell_formula_units_Z 88
_cell_length_a 21.367007
_cell_length_b 25.032241
_cell_length_c 7.659308
_cell_angle_alpha 90.000000
_cell_angle_beta 90.000000
_cell_angle_gamma 90.000000
_cell_volume 4096.688640
_symmetry_space_group_name_H-M "C M M M"
_symmetry_group_IT_number 65
_symmetry_cell_setting 'orthorhombic'
loop_
_space_group_symop_operation_xyz
x,y,z
-x,-y,z
x,-y,-z
-x,y,-z
-x,-y,-z
x,y,-z
-x,y,z
x,-y,z
1/2+x,1/2+y,z
1/2-x,1/2-y,z
1/2+x,1/2-y,-z
1/2-x,1/2+y,-z
1/2-x,1/2-y,-z
1/2+x,1/2+y,-z
1/2-x,1/2+y,z
1/2+x,1/2-y,z
loop_
_atom_site_type_symbol
_atom_site_label
_atom_site_fract_x
_atom_site_fract_y
_atom_site_fract_z
Si Si1 0.308439 0.783788 0.201361
Si Si2 0.000000 0.562214 0.707021
Si Si3 0.296499 0.000000 0.786256
Si Si4 0.865201 0.606218 0.790269
Si Si5 0.846436 0.000000 0.786249
Si Si6 0.570853 0.401729 0.210415
Si Si7 0.570535 0.279202 0.297258
O O1 0.250000 0.750000 0.278778
O O2 0.331009 0.840537 0.279048
O O3 0.371617 0.748833 0.204937
O O4 0.289869 0.794548 0.000000
O O5 0.938321 0.595748 0.756041
O O6 0.000000 0.500000 0.777796
O O7 0.000000 0.557109 0.500000
O O8 0.330888 0.053119 0.725583
O O9 0.224929 0.000000 0.732710
O O10 0.298580 0.000000 0.000000
O O11 0.859142 0.608577 0.000000
O O12 0.881580 0.946608 0.728464
O O13 0.848850 0.000000 0.000000
O O14 0.500000 0.419204 0.249676
O O15 0.579698 0.342874 0.285499
O O16 0.576121 0.396752 0.000000
O O17 0.571996 0.262997 0.500000
O O18 0.500000 0.267730 0.228894
#
# Coordination Sequence:
#
# PCOD9492492 Si02
#       7
#    16   8   8  16   8  16  16
#     4  10  23  40  62  89 116 149 194 245 295 349
#     4  11  23  39  61  89 121 155 191 238 295 350
#     4   9  18  32  54  84 113 144 183 230 288 346
#     4  10  21  38  61  87 115 149 191 238 291 349
#     4   9  17  28  53  85 114 144 183 234 286 335
#     4   9  17  31  54  83 113 145 186 236 283 329
#     4  10  22  39  57  80 114 155 194 233 281 339
#
# _framework density 21.480763
#
# number of rings (size 3 to 8) (size 9 to 14) (size 15 to 20)
#    0.000    2.273    0.909    1.091    3.818    3.636 
#    0.000    0.455    0.000    3.273    0.000    0.000 
#    0.000    0.000    0.000    0.000    0.000    0.000 
#
# Total GULP energy -245616.849235 kJ/mol
# GULP energy per Si atom -5582.201119 kJ/mol
# Density = 2.143187 g / cm^3
# Si number density = 21.480763 Si / 1000 Ang^3
#
#
#
# Elastic Constant Matrix: (Units=GPa)
#
#
# Indices 1 2 3 4 5 6 
#
# 1 159.1504 108.7619 5.3621 0.0000 0.0000 0.0000
# 2 108.7619 142.4287 6.3132 0.0000 0.0000 0.0000
# 3 5.3621 6.3132 40.3364 0.0000 0.0000 0.0000
# 4 0.0000 0.0000 0.0000 -360.6280 0.0000 0.0000
# 5 0.0000 0.0000 0.0000 0.0000 -39.7746 0.0000
# 6 0.0000 0.0000 0.0000 0.0000 0.0000 30.7415
#
#
#
# Elastic Compliance Matrix: (Units=1/GPa)
#
#
# Indices 1 2 3 4 5 6 
#
# 1 0.013142 -0.010028 -0.000178 0.000000 0.000000 0.000000
# 2 -0.010028 0.014722 -0.000971 0.000000 0.000000 0.000000
# 3 -0.000178 -0.000971 0.024967 0.000000 0.000000 0.000000
# 4 0.000000 0.000000 0.000000 -0.002773 0.000000 0.000000
# 5 0.000000 0.000000 0.000000 0.000000 -0.025142 0.000000
# 6 0.000000 0.000000 0.000000 0.000000 0.000000 0.032529
#
#
# Mechanical properties :
#
#
# Convention : Reuss Voigt Hill
#
# Bulk Modulus (GPa) = 32.81059 64.75443 48.78251
# Shear Modulus (GPa) = 55.58135 -59.16701 -1.79283
#
# Velocity S-wave (km/s) = 5.09226 -5.25395 -0.91457
# Velocity P-wave (km/s) = 7.06275 2.56799 4.65230
#
# Compressibility (1/GPa) = 0.03047796
#
# Stress axis : x y z
#
# Youngs Moduli (GPa) = 76.09005 67.92720 40.05268
#
# Poissons Ratio (x) = 0.68117 0.00711
# Poissons Ratio (y) = 0.76302 0.03889
# Poissons Ratio (z) = 0.01351 0.06596
#
# Static dielectric constant tensor:
#      x y z
#    x 1.746240 0.000000 0.000000 
#    y 0.000000 1.769560 0.000000 
#    z 0.000000 0.000000 1.794920 
# 
# From -- ./inp_files/11909.got.cif
#   From: 2010.05.17/outbox.cif.g08.bks.cpg/sg65_6_cif.got.tgz:11909.got - 2010.06.03 17:01:31.
