data_PCOD9492606
_publ_section_title
;
Structure prediction by ZEFSAII (Michael W. Deem and Ramdas Pophale) SiO2 
 PCOD9492606
Probable space group: C M M M
;
_chemical_formula_sum "Si O2"
_cell_formula_units_Z 50
_cell_length_a 16.030441
_cell_length_b 8.996139
_cell_length_c 18.919595
_cell_angle_alpha 90.000000
_cell_angle_beta 90.000000
_cell_angle_gamma 90.000000
_cell_volume 2728.434062
_symmetry_space_group_name_H-M "C M M M"
_symmetry_group_IT_number 65
_symmetry_cell_setting 'orthorhombic'
loop_
_space_group_symop_operation_xyz
x,y,z
-x,-y,z
x,-y,-z
-x,y,-z
-x,-y,-z
x,y,-z
-x,y,z
x,-y,z
1/2+x,1/2+y,z
1/2-x,1/2-y,z
1/2+x,1/2-y,-z
1/2-x,1/2+y,-z
1/2-x,1/2-y,-z
1/2+x,1/2+y,-z
1/2-x,1/2+y,z
1/2+x,1/2-y,z
loop_
_atom_site_type_symbol
_atom_site_label
_atom_site_fract_x
_atom_site_fract_y
_atom_site_fract_z
Si Si1 0.597186 0.172507 0.360745
Si Si2 0.500000 0.500000 0.000000
Si Si3 0.500000 0.665074 0.146347
Si Si4 0.340395 0.675541 0.500000
Si Si5 0.837197 0.321425 0.791721
O O1 0.500000 0.182031 0.340514
O O2 0.614219 0.269940 0.429181
O O3 0.649746 0.213041 0.291641
O O4 0.615085 0.000000 0.378875
O O5 0.500000 0.627028 0.063335
O O6 0.500000 0.500000 0.181919
O O7 0.583077 0.752473 0.168761
O O8 0.332967 0.500000 0.500000
O O9 0.250000 0.750000 0.500000
O O10 0.836118 0.500000 0.799380
O O11 0.750000 0.250000 0.815679
#
# Coordination Sequence:
#
# PCOD9492606 Si02
#       5
#    16   2   8   8  16
#     4  10  21  39  60  86 120 165 212 266 323 379
#     4   8  24  44  74  96 136 164 214 244 328 388
#     4  10  21  43  69  94 132 165 206 258 313 380
#     4  12  25  38  53  79 119 163 219 271 326 377
#     4  11  22  39  66 100 131 170 219 265 319 381
#
# _framework density 18.325530000000001
#
# number of rings (size 3 to 8) (size 9 to 14) (size 15 to 20)
#    0.480    0.960    1.600    4.320    0.000    7.680 
#    0.000    2.400    0.000    0.000    0.000    0.000 
#    0.000    0.000    0.000    0.000    0.000    0.000 
#
# Total GULP energy -139327.015419 kJ/mol
# GULP energy per Si atom -5573.080617 kJ/mol
# Density = 1.828382 g / cm^3
# Si number density = 18.325530 Si / 1000 Ang^3
#
#
#
# Elastic Constant Matrix: (Units=GPa)
#
#
# Indices 1 2 3 4 5 6 
#
# 1 136.3101 59.3542 49.3582 0.0000 0.0000 0.0000
# 2 59.3542 95.0534 63.3354 0.0000 0.0000 0.0000
# 3 49.3582 63.3354 104.6637 0.0000 0.0000 0.0000
# 4 0.0000 0.0000 0.0000 33.9369 0.0000 0.0000
# 5 0.0000 0.0000 0.0000 0.0000 1.5825 0.0000
# 6 0.0000 0.0000 0.0000 0.0000 0.0000 31.8743
#
#
#
# Elastic Compliance Matrix: (Units=1/GPa)
#
#
# Indices 1 2 3 4 5 6 
#
# 1 0.010235 -0.005320 -0.001607 0.000000 0.000000 0.000000
# 2 -0.005320 0.020393 -0.009832 0.000000 0.000000 0.000000
# 3 -0.001607 -0.009832 0.016262 0.000000 0.000000 0.000000
# 4 0.000000 0.000000 0.000000 0.029466 0.000000 0.000000
# 5 0.000000 0.000000 0.000000 0.000000 0.631918 0.000000
# 6 0.000000 0.000000 0.000000 0.000000 0.000000 0.031373
#
#
# Mechanical properties :
#
#
# Convention : Reuss Voigt Hill
#
# Bulk Modulus (GPa) = 74.78379 75.56919 75.17649
# Shear Modulus (GPa) = 6.42985 24.41069 15.42027
#
# Velocity S-wave (km/s) = 1.87518 3.65370 2.90395
# Velocity P-wave (km/s) = 6.75170 7.68934 7.23573
#
# Compressibility (1/GPa) = 0.01337188
#
# Stress axis : x y z
#
# Youngs Moduli (GPa) = 97.70701 49.03539 61.49284
#
# Poissons Ratio (x) = 0.26086 0.09884
# Poissons Ratio (y) = 0.51979 0.60459
# Poissons Ratio (z) = 0.15705 0.48211
#
# Static dielectric constant tensor:
#      x y z
#    x 1.639950 0.000000 0.000000 
#    y 0.000000 1.628970 0.000000 
#    z 0.000000 0.000000 1.624890 
# 
# From -- ./inp_files/48697.got.cif
#   From: 2010.05.17/outbox.cif.g08.bks.cpg/sg65_25_cif.got.tgz:48697.got - 2010.06.03 17:01:31.
