data_PCOD9492583
_publ_section_title
;
Structure prediction by ZEFSAII (Michael W. Deem and Ramdas Pophale) SiO2 
 PCOD9492583
Probable space group: C M M M
;
_chemical_formula_sum "Si O2"
_cell_formula_units_Z 92
_cell_length_a 22.403274
_cell_length_b 25.953585
_cell_length_c 7.705727
_cell_angle_alpha 90.000000
_cell_angle_beta 90.000000
_cell_angle_gamma 90.000000
_cell_volume 4480.458563
_symmetry_space_group_name_H-M "C M M M"
_symmetry_group_IT_number 65
_symmetry_cell_setting 'orthorhombic'
loop_
_space_group_symop_operation_xyz
x,y,z
-x,-y,z
x,-y,-z
-x,y,-z
-x,-y,-z
x,y,-z
-x,y,z
x,-y,z
1/2+x,1/2+y,z
1/2-x,1/2-y,z
1/2+x,1/2-y,-z
1/2-x,1/2+y,-z
1/2-x,1/2-y,-z
1/2+x,1/2+y,-z
1/2-x,1/2+y,z
1/2+x,1/2-y,z
loop_
_atom_site_type_symbol
_atom_site_label
_atom_site_fract_x
_atom_site_fract_y
_atom_site_fract_z
Si Si1 0.884816 0.781492 0.000000
Si Si2 0.657620 0.560936 0.294142
Si Si3 0.072326 0.899425 0.000000
Si Si4 0.500000 0.135121 0.683906
Si Si5 0.315499 0.226477 0.696035
Si Si6 0.782394 0.388359 0.709427
Si Si7 0.598864 0.942282 0.204282
Si Si8 0.000000 0.711919 0.000000
O O1 0.903828 0.840699 0.000000
O O2 0.849644 0.763021 0.829000
O O3 0.943350 0.747456 0.000000
O O4 0.646171 0.570915 0.500000
O O5 0.671726 0.500000 0.277449
O O6 0.715853 0.594357 0.238554
O O7 0.602263 0.574483 0.170040
O O8 0.000000 0.901843 0.000000
O O9 0.500000 0.162093 0.500000
O O10 0.557659 0.098895 0.701634
O O11 0.500000 0.175550 0.835105
O O12 0.341807 0.224565 0.500000
O O13 0.250000 0.250000 0.680760
O O14 0.305529 0.168187 0.764726
O O15 0.781887 0.387467 0.500000
O O16 0.831992 0.428634 0.770488
O O17 0.586477 0.000000 0.265682
O O18 0.584388 0.939471 0.000000
#
# Coordination Sequence:
#
# PCOD9492583 Si02
#       8
#     8  16   8   8  16  16  16   4
#     4  12  25  43  66  90 128 175 216 265 331 379
#     4  10  23  44  71 102 138 174 211 267 332 395
#     4  12  27  47  68  98 128 171 227 273 331 408
#     4  12  25  43  65  88 122 175 226 275 326 374
#     4  10  22  40  65  98 130 165 212 263 316 380
#     4  10  21  38  63  98 133 171 217 263 322 393
#     4  11  23  38  59  90 130 173 218 269 321 378
#     4  12  26  46  63  88 125 160 218 276 314 384
#
# _framework density 20.533612000000002
#
# number of rings (size 3 to 8) (size 9 to 14) (size 15 to 20)
#    0.000    1.217    1.304    3.913    2.435    8.348 
#    0.000    0.870    0.000    0.000    0.000    0.000 
#    0.000    0.000    0.000    0.000    0.000    0.000 
#
# Total GULP energy -257202.306660 kJ/mol
# GULP energy per Si atom -5591.354493 kJ/mol
# Density = 2.048688 g / cm^3
# Si number density = 20.533612 Si / 1000 Ang^3
#
#
#
# Elastic Constant Matrix: (Units=GPa)
#
#
# Indices 1 2 3 4 5 6 
#
# 1 104.6291 -0.7451 32.3205 0.0000 0.0000 0.0000
# 2 -0.7451 62.5817 12.9920 0.0000 0.0000 0.0000
# 3 32.3205 12.9920 86.4376 0.0000 0.0000 0.0000
# 4 0.0000 0.0000 0.0000 187.9719 0.0000 0.0000
# 5 0.0000 0.0000 0.0000 0.0000 27.1633 0.0000
# 6 0.0000 0.0000 0.0000 0.0000 0.0000 36.6218
#
#
#
# Elastic Compliance Matrix: (Units=1/GPa)
#
#
# Indices 1 2 3 4 5 6 
#
# 1 0.010866 0.001004 -0.004214 0.000000 0.000000 0.000000
# 2 0.001004 0.016587 -0.002869 0.000000 0.000000 0.000000
# 3 -0.004214 -0.002869 0.013576 0.000000 0.000000 0.000000
# 4 0.000000 0.000000 0.000000 0.005320 0.000000 0.000000
# 5 0.000000 0.000000 0.000000 0.000000 0.036814 0.000000
# 6 0.000000 0.000000 0.000000 0.000000 0.000000 0.027306
#
#
# Mechanical properties :
#
#
# Convention : Reuss Voigt Hill
#
# Bulk Modulus (GPa) = 34.63547 38.08703 36.36125
# Shear Modulus (GPa) = 37.80709 64.29013 51.04861
#
# Velocity S-wave (km/s) = 4.29561 5.60158 4.99149
# Velocity P-wave (km/s) = 6.44262 7.77340 7.13909
#
# Compressibility (1/GPa) = 0.02887214
#
# Stress axis : x y z
#
# Youngs Moduli (GPa) = 92.02606 60.28967 73.65985
#
# Poissons Ratio (x) = -0.06054 0.31041
# Poissons Ratio (y) = -0.09241 0.21130
# Poissons Ratio (z) = 0.38781 0.17294
#
# Static dielectric constant tensor:
#      x y z
#    x 1.705260 0.000000 0.000000 
#    y 0.000000 1.732370 0.000000 
#    z 0.000000 0.000000 1.663070 
# 
# From -- ./inp_files/11929.got.cif
#   From: 2010.05.17/outbox.cif.g08.bks.cpg/sg65_6_cif.got.tgz:11929.got - 2010.06.03 17:01:31.
