data_PCOD9492118
_publ_section_title
;
Structure prediction by ZEFSAII (Michael W. Deem and Ramdas Pophale) SiO2 
 PCOD9492118
Probable space group: C M M M
;
_chemical_formula_sum "Si O2"
_cell_formula_units_Z 72
_cell_length_a 24.160451
_cell_length_b 18.382695
_cell_length_c 8.703837
_cell_angle_alpha 90.000000
_cell_angle_beta 90.000000
_cell_angle_gamma 90.000000
_cell_volume 3865.671699
_symmetry_space_group_name_H-M "C M M M"
_symmetry_group_IT_number 65
_symmetry_cell_setting 'orthorhombic'
loop_
_space_group_symop_operation_xyz
x,y,z
-x,-y,z
x,-y,-z
-x,y,-z
-x,-y,-z
x,y,-z
-x,y,z
x,-y,z
1/2+x,1/2+y,z
1/2-x,1/2-y,z
1/2+x,1/2-y,-z
1/2-x,1/2+y,-z
1/2-x,1/2-y,-z
1/2+x,1/2+y,-z
1/2-x,1/2+y,z
1/2+x,1/2-y,z
loop_
_atom_site_type_symbol
_atom_site_label
_atom_site_fract_x
_atom_site_fract_y
_atom_site_fract_z
Si Si1 0.433928 0.500000 0.181813
Si Si2 0.265594 0.585975 0.184109
Si Si3 0.375691 0.642697 0.682397
Si Si4 0.360729 0.917368 0.187179
Si Si5 0.935942 0.283937 0.813879
O O1 0.500000 0.500000 0.202222
O O2 0.407699 0.428176 0.254954
O O3 0.421593 0.500000 0.000000
O O4 0.275499 0.500000 0.215586
O O5 0.312246 0.633104 0.265023
O O6 0.202392 0.601885 0.231194
O O7 0.269939 0.595590 0.000000
O O8 0.379216 0.644711 0.500000
O O9 0.403733 0.714004 0.752555
O O10 0.404377 0.857077 0.237085
O O11 0.372711 0.000000 0.238104
O O12 0.361139 0.918614 0.000000
O O13 0.000000 0.283014 0.765489
O O14 0.934816 0.282026 0.000000
#
# Coordination Sequence:
#
# PCOD9492118 Si02
#       5
#     8  16  16  16  16
#     4  11  23  39  59  81 107 145 192 233 276 333
#     4   9  17  33  58  83 111 146 186 231 278 334
#     4  12  24  36  54  81 115 151 188 232 277 328
#     4   8  16  33  59  89 113 140 185 236 285 333
#     4  10  21  37  57  82 114 150 189 234 281 332
#
# _framework density 18.625481000000001
#
# number of rings (size 3 to 8) (size 9 to 14) (size 15 to 20)
#    0.000    2.111    1.111    4.333    0.000    5.333 
#    0.000    7.778    0.000    2.000    0.000    1.556 
#    0.000    0.000    0.000    0.000    0.000    0.000 
#
# Total GULP energy -201041.560974 kJ/mol
# GULP energy per Si atom -5584.487805 kJ/mol
# Density = 1.858309 g / cm^3
# Si number density = 18.625481 Si / 1000 Ang^3
#
#
#
# Elastic Constant Matrix: (Units=GPa)
#
#
# Indices 1 2 3 4 5 6 
#
# 1 132.1371 99.4984 35.3927 0.0000 0.0000 0.0000
# 2 99.4984 146.9775 29.7180 0.0000 0.0000 0.0000
# 3 35.3927 29.7180 27.2041 0.0000 0.0000 0.0000
# 4 0.0000 0.0000 0.0000 -4.2315 0.0000 0.0000
# 5 0.0000 0.0000 0.0000 0.0000 -14.8161 0.0000
# 6 0.0000 0.0000 0.0000 0.0000 0.0000 17.1597
#
#
#
# Elastic Compliance Matrix: (Units=1/GPa)
#
#
# Indices 1 2 3 4 5 6 
#
# 1 0.018597 -0.009880 -0.013402 0.000000 0.000000 0.000000
# 2 -0.009880 0.013981 -0.002420 0.000000 0.000000 0.000000
# 3 -0.013402 -0.002420 0.056839 0.000000 0.000000 0.000000
# 4 0.000000 0.000000 0.000000 -0.236325 0.000000 0.000000
# 5 0.000000 0.000000 0.000000 0.000000 -0.067494 0.000000
# 6 0.000000 0.000000 0.000000 0.000000 0.000000 0.058276
#
#
# Mechanical properties :
#
#
# Convention : Reuss Voigt Hill
#
# Bulk Modulus (GPa) = 26.30615 70.61521 48.46068
# Shear Modulus (GPa) = -54.31714 9.06974 -22.62370
#
# Velocity S-wave (km/s) = -5.40612 2.20910 -3.48898
# Velocity P-wave (km/s) = 4.98134 6.67101 3.13756
#
# Compressibility (1/GPa) = 0.03801393
#
# Stress axis : x y z
#
# Youngs Moduli (GPa) = 53.77255 71.52504 17.59362
#
# Poissons Ratio (x) = 0.70664 0.23579
# Poissons Ratio (y) = 0.53125 0.04257
# Poissons Ratio (z) = 0.72066 0.17307
#
# Static dielectric constant tensor:
#      x y z
#    x 1.643230 0.000000 0.000000 
#    y 0.000000 1.620280 0.000000 
#    z 0.000000 0.000000 1.615560 
# 
# From -- ./inp_files/9253.got.cif
#   From: 2010.05.17/outbox.cif.g08.bks.cpg/sg65_5_cif.got.tgz:9253.got - 2010.06.03 17:01:31.
