data_PCOD9492983
_publ_section_title
;
Structure prediction by ZEFSAII (Michael W. Deem and Ramdas Pophale) SiO2 
 PCOD9492983
Probable space group: C M M M
;
_chemical_formula_sum "Si O2"
_cell_formula_units_Z 64
_cell_length_a 14.022717
_cell_length_b 18.462916
_cell_length_c 13.735204
_cell_angle_alpha 90.000000
_cell_angle_beta 90.000000
_cell_angle_gamma 90.000000
_cell_volume 3556.047695
_symmetry_space_group_name_H-M "C M M M"
_symmetry_group_IT_number 65
_symmetry_cell_setting 'orthorhombic'
loop_
_space_group_symop_operation_xyz
x,y,z
-x,-y,z
x,-y,-z
-x,y,-z
-x,-y,-z
x,y,-z
-x,y,z
x,-y,z
1/2+x,1/2+y,z
1/2-x,1/2-y,z
1/2+x,1/2-y,-z
1/2-x,1/2+y,-z
1/2-x,1/2-y,-z
1/2+x,1/2+y,-z
1/2-x,1/2+y,z
1/2+x,1/2-y,z
loop_
_atom_site_type_symbol
_atom_site_label
_atom_site_fract_x
_atom_site_fract_y
_atom_site_fract_z
Si Si1 0.890337 0.714298 0.116887
Si Si2 0.788617 0.588123 0.614453
Si Si3 0.500000 0.082301 0.382132
Si Si4 0.794562 0.142906 0.197338
Si Si5 0.108790 0.000000 0.883846
O O1 0.860224 0.789008 0.169384
O O2 0.809485 0.658318 0.150834
O O3 0.000000 0.694482 0.138842
O O4 0.882652 0.724551 0.000000
O O5 0.772119 0.601879 0.500000
O O6 0.784123 0.500000 0.627407
O O7 0.896590 0.613400 0.641481
O O8 0.719137 0.628665 0.687996
O O9 0.500000 0.077603 0.500000
O O10 0.500000 0.000000 0.343756
O O11 0.838612 0.071122 0.152635
O O12 0.000000 0.000000 0.848001
O O13 0.107652 0.000000 0.000000
#
# Coordination Sequence:
#
# PCOD9492983 Si02
#       5
#    16  16   8  16   8
#     4  10  22  40  58  77 111 156 194 231 282 342
#     4   9  17  31  52  81 116 149 182 227 281 337
#     4   7  12  24  44  70 104 144 180 209 256 325
#     4  11  20  35  59  85 110 147 192 233 278 339
#     4  11  22  36  58  88 115 140 182 240 287 331
#
# _framework density 17.997508
#
# number of rings (size 3 to 8) (size 9 to 14) (size 15 to 20)
#    0.000    2.250    1.250    5.250    1.750    2.000 
#    0.000    3.125    0.000    7.500    0.000    0.000 
#    0.000    0.000    0.000    0.000    0.000    0.000 
#
# Total GULP energy -178389.498141 kJ/mol
# GULP energy per Si atom -5574.671817 kJ/mol
# Density = 1.795654 g / cm^3
# Si number density = 17.997508 Si / 1000 Ang^3
#
#
#
# Elastic Constant Matrix: (Units=GPa)
#
#
# Indices 1 2 3 4 5 6 
#
# 1 112.3333 60.6220 39.1153 0.0000 0.0000 0.0000
# 2 60.6220 83.9982 30.0179 0.0000 0.0000 0.0000
# 3 39.1153 30.0179 91.6049 0.0000 0.0000 0.0000
# 4 0.0000 0.0000 0.0000 27.3963 0.0000 0.0000
# 5 0.0000 0.0000 0.0000 0.0000 25.5772 0.0000
# 6 0.0000 0.0000 0.0000 0.0000 0.0000 12.3899
#
#
#
# Elastic Compliance Matrix: (Units=1/GPa)
#
#
# Indices 1 2 3 4 5 6 
#
# 1 0.015428 -0.009945 -0.003329 0.000000 0.000000 0.000000
# 2 -0.009945 0.019895 -0.002273 0.000000 0.000000 0.000000
# 3 -0.003329 -0.002273 0.013083 0.000000 0.000000 0.000000
# 4 0.000000 0.000000 0.000000 0.036501 0.000000 0.000000
# 5 0.000000 0.000000 0.000000 0.000000 0.039097 0.000000
# 6 0.000000 0.000000 0.000000 0.000000 0.000000 0.080711
#
#
# Mechanical properties :
#
#
# Convention : Reuss Voigt Hill
#
# Bulk Modulus (GPa) = 57.76318 60.82743 59.29531
# Shear Modulus (GPa) = 20.69718 23.61809 22.15764
#
# Velocity S-wave (km/s) = 3.39485 3.62650 3.51258
# Velocity P-wave (km/s) = 6.89430 7.16982 7.03341
#
# Compressibility (1/GPa) = 0.01731207
#
# Stress axis : x y z
#
# Youngs Moduli (GPa) = 64.81647 50.26506 76.43699
#
# Poissons Ratio (x) = 0.49988 0.25446
# Poissons Ratio (y) = 0.64460 0.17372
# Poissons Ratio (z) = 0.21577 0.11424
#
# Static dielectric constant tensor:
#      x y z
#    x 1.637550 0.000000 0.000000 
#    y 0.000000 1.608170 0.000000 
#    z 0.000000 0.000000 1.611630 
# 
# From -- ./inp_files/39693.got.cif
#   From: 2010.05.17/outbox.cif.g08.bks.cpg/sg65_20_cif.got.tgz:39693.got - 2010.06.03 17:01:31.
