data_PCOD9492812
_publ_section_title
;
Structure prediction by ZEFSAII (Michael W. Deem and Ramdas Pophale) SiO2 
 PCOD9492812
Probable space group: C M M M
;
_chemical_formula_sum "Si O2"
_cell_formula_units_Z 104
_cell_length_a 7.608069
_cell_length_b 21.107474
_cell_length_c 31.485399
_cell_angle_alpha 90.000000
_cell_angle_beta 90.000000
_cell_angle_gamma 90.000000
_cell_volume 5056.149504
_symmetry_space_group_name_H-M "C M M M"
_symmetry_group_IT_number 65
_symmetry_cell_setting 'orthorhombic'
loop_
_space_group_symop_operation_xyz
x,y,z
-x,-y,z
x,-y,-z
-x,y,-z
-x,-y,-z
x,y,-z
-x,y,z
x,-y,z
1/2+x,1/2+y,z
1/2-x,1/2-y,z
1/2+x,1/2-y,-z
1/2-x,1/2+y,-z
1/2-x,1/2-y,-z
1/2+x,1/2+y,-z
1/2-x,1/2+y,z
1/2+x,1/2-y,z
loop_
_atom_site_type_symbol
_atom_site_label
_atom_site_fract_x
_atom_site_fract_y
_atom_site_fract_z
Si Si1 0.710963 0.929380 0.804447
Si Si2 0.698981 0.500000 0.051286
Si Si3 0.295841 0.140617 0.952401
Si Si4 0.211780 0.175285 0.361023
Si Si5 0.711408 0.571657 0.705910
Si Si6 0.711292 0.181394 0.135383
Si Si7 0.789116 0.174907 0.454449
O O1 0.500000 0.931169 0.809251
O O2 0.747599 0.915377 0.755154
O O3 0.779589 0.875332 0.835546
O O4 0.778901 0.000000 0.814127
O O5 0.500000 0.500000 0.067451
O O6 0.788044 0.433447 0.061482
O O7 0.694020 0.500000 0.000000
O O8 0.500000 0.158257 0.956098
O O9 0.215754 0.177279 0.912705
O O10 0.218101 0.147444 0.000000
O O11 0.250000 0.250000 0.354015
O O12 0.277284 0.127112 0.325031
O O13 0.276875 0.154528 0.408071
O O14 0.000000 0.170924 0.361772
O O15 0.500000 0.570166 0.701948
O O16 0.775808 0.500000 0.696132
O O17 0.500000 0.174637 0.132559
O O18 0.750000 0.250000 0.153951
O O19 0.722464 0.149171 0.500000
O O20 0.750000 0.250000 0.455025
O O21 0.000000 0.166322 0.454490
#
# Coordination Sequence:
#
# PCOD9492812 Si02
#       7
#    16   8  16  16  16  16  16
#     4   9  19  36  56  74  93 123 162 201 239 283
#     4   9  17  29  47  75 105 129 159 203 245 273
#     4   9  18  33  53  75 100 134 170 198 233 286
#     4   9  17  28  44  68  95 123 156 196 239 281
#     4   9  18  33  51  70  94 124 157 194 238 288
#     4  10  22  37  54  76 104 133 162 199 242 288
#     4   8  13  22  37  58  86 119 154 191 230 273
#
# _framework density 20.569012000000001
#
# number of rings (size 3 to 8) (size 9 to 14) (size 15 to 20)
#    0.000    3.000    0.000    0.231    1.077    3.692 
#    0.000    3.077    0.000    0.462    0.000    3.231 
#    0.000    0.000    0.000   28.769    0.000   15.692 
#
# Total GULP energy -289730.730754 kJ/mol
# GULP energy per Si atom -5571.744822 kJ/mol
# Density = 2.052220 g / cm^3
# Si number density = 20.569012 Si / 1000 Ang^3
#
#
#
# Elastic Constant Matrix: (Units=GPa)
#
#
# Indices 1 2 3 4 5 6 
#
# 1 48.0227 0.6573 7.2502 0.0000 0.0000 0.0000
# 2 0.6573 115.7250 106.4303 0.0000 0.0000 0.0000
# 3 7.2502 106.4303 147.1489 0.0000 0.0000 0.0000
# 4 0.0000 0.0000 0.0000 61.4407 0.0000 0.0000
# 5 0.0000 0.0000 0.0000 0.0000 53.0768 0.0000
# 6 0.0000 0.0000 0.0000 0.0000 0.0000 9.9889
#
#
#
# Elastic Compliance Matrix: (Units=1/GPa)
#
#
# Indices 1 2 3 4 5 6 
#
# 1 0.021221 0.002512 -0.002863 0.000000 0.000000 0.000000
# 2 0.002512 0.026107 -0.019006 0.000000 0.000000 0.000000
# 3 -0.002863 -0.019006 0.020684 0.000000 0.000000 0.000000
# 4 0.000000 0.000000 0.000000 0.016276 0.000000 0.000000
# 5 0.000000 0.000000 0.000000 0.000000 0.018841 0.000000
# 6 0.000000 0.000000 0.000000 0.000000 0.000000 0.100111
#
#
# Mechanical properties :
#
#
# Convention : Reuss Voigt Hill
#
# Bulk Modulus (GPa) = 34.13171 59.95247 47.04209
# Shear Modulus (GPa) = 19.86347 38.00522 28.93435
#
# Velocity S-wave (km/s) = 3.11094 4.30314 3.75466
# Velocity P-wave (km/s) = 5.43449 7.34164 6.45885
#
# Compressibility (1/GPa) = 0.02929827
#
# Stress axis : x y z
#
# Youngs Moduli (GPa) = 47.12253 38.30445 48.34706
#
# Poissons Ratio (x) = -0.09622 0.13840
# Poissons Ratio (y) = -0.11838 0.91890
# Poissons Ratio (z) = 0.13489 0.72802
#
# Static dielectric constant tensor:
#      x y z
#    x 1.705700 0.000000 0.000000 
#    y 0.000000 1.639340 0.000000 
#    z 0.000000 0.000000 1.772000 
# 
# From -- ./inp_files/76915.got.cif
#   From: 2010.05.17/outbox.cif.g08.bks.cpg/sg65_39_cif.got.tgz:76915.got - 2010.06.03 17:01:31.
