data_PCOD9492848
_publ_section_title
;
Structure prediction by ZEFSAII (Michael W. Deem and Ramdas Pophale) SiO2 
 PCOD9492848
Probable space group: C M M M
;
_chemical_formula_sum "Si O2"
_cell_formula_units_Z 80
_cell_length_a 16.076530
_cell_length_b 16.169221
_cell_length_c 15.624231
_cell_angle_alpha 90.000000
_cell_angle_beta 90.000000
_cell_angle_gamma 90.000000
_cell_volume 4061.440204
_symmetry_space_group_name_H-M "C M M M"
_symmetry_group_IT_number 65
_symmetry_cell_setting 'orthorhombic'
loop_
_space_group_symop_operation_xyz
x,y,z
-x,-y,z
x,-y,-z
-x,y,-z
-x,-y,-z
x,y,-z
-x,y,z
x,-y,z
1/2+x,1/2+y,z
1/2-x,1/2-y,z
1/2+x,1/2-y,-z
1/2-x,1/2+y,-z
1/2-x,1/2-y,-z
1/2+x,1/2+y,-z
1/2-x,1/2+y,z
1/2+x,1/2-y,z
loop_
_atom_site_type_symbol
_atom_site_label
_atom_site_fract_x
_atom_site_fract_y
_atom_site_fract_z
Si Si1 0.403896 0.245884 0.597728
Si Si2 0.332183 0.598011 0.092637
Si Si3 0.801812 0.832492 0.739618
Si Si4 0.629621 0.905131 0.280685
Si Si5 0.869115 0.401227 0.907974
O O1 0.374043 0.239997 0.500000
O O2 0.500000 0.270644 0.597082
O O3 0.351315 0.309034 0.654889
O O4 0.397577 0.157716 0.646130
O O5 0.348624 0.500000 0.097874
O O6 0.357956 0.642375 0.179715
O O7 0.231345 0.608455 0.091560
O O8 0.363281 0.628278 0.000000
O O9 0.750000 0.750000 0.763276
O O10 0.730495 0.900145 0.722494
O O11 0.601301 0.873918 0.185871
O O12 0.603746 0.000000 0.292726
O O13 0.885064 0.500000 0.908654
O O14 0.899363 0.367727 0.000000
#
# Coordination Sequence:
#
# PCOD9492848 Si02
#       5
#    16  16  16  16  16
#     4  10  22  38  51  64  90 131 170 201 243 299
#     4   8  13  23  43  72 102 127 152 188 235 282
#     4   9  17  29  49  74  99 127 162 201 239 282
#     4   9  17  30  52  80 101 120 156 205 249 284
#     4   7  10  19  38  66  98 124 144 174 221 275
#
# _framework density 19.697445999999999
#
# number of rings (size 3 to 8) (size 9 to 14) (size 15 to 20)
#    0.000    3.400    0.000    3.000    0.000    4.800 
#    0.000    4.000    0.000    6.600    0.000    9.800 
#    0.000    0.000    0.000    0.000    0.000    0.000 
#
# Total GULP energy -222688.013283 kJ/mol
# GULP energy per Si atom -5567.200332 kJ/mol
# Density = 1.965261 g / cm^3
# Si number density = 19.697446 Si / 1000 Ang^3
#
#
#
# Elastic Constant Matrix: (Units=GPa)
#
#
# Indices 1 2 3 4 5 6 
#
# 1 25.2525 14.8207 32.0441 0.0000 0.0000 0.0000
# 2 14.8207 32.3535 43.0710 0.0000 0.0000 0.0000
# 3 32.0441 43.0710 226.2547 0.0000 0.0000 0.0000
# 4 0.0000 0.0000 0.0000 29.2820 0.0000 0.0000
# 5 0.0000 0.0000 0.0000 0.0000 343.5478 0.0000
# 6 0.0000 0.0000 0.0000 0.0000 0.0000 -10.1827
#
#
#
# Elastic Compliance Matrix: (Units=1/GPa)
#
#
# Indices 1 2 3 4 5 6 
#
# 1 0.056929 -0.020554 -0.004150 0.000000 0.000000 0.000000
# 2 -0.020554 0.048821 -0.006383 0.000000 0.000000 0.000000
# 3 -0.004150 -0.006383 0.006223 0.000000 0.000000 0.000000
# 4 0.000000 0.000000 0.000000 0.034151 0.000000 0.000000
# 5 0.000000 0.000000 0.000000 0.000000 0.002911 0.000000
# 6 0.000000 0.000000 0.000000 0.000000 0.000000 -0.098206
#
#
# Mechanical properties :
#
#
# Convention : Reuss Voigt Hill
#
# Bulk Modulus (GPa) = 20.08037 51.52582 35.80310
# Shear Modulus (GPa) = 38.57977 85.45777 62.01877
#
# Velocity S-wave (km/s) = 4.43043 6.59389 5.61730
# Velocity P-wave (km/s) = 6.03226 9.17540 7.76454
#
# Compressibility (1/GPa) = 0.04979987
#
# Stress axis : x y z
#
# Youngs Moduli (GPa) = 17.56564 20.48294 160.70330
#
# Poissons Ratio (x) = 0.42100 0.66694
# Poissons Ratio (y) = 0.36104 1.02575
# Poissons Ratio (z) = 0.07290 0.13074
#
# Static dielectric constant tensor:
#      x y z
#    x 1.725450 0.000000 0.000000 
#    y 0.000000 1.693950 0.000000 
#    z 0.000000 0.000000 1.757960 
# 
# From -- ./inp_files/42330.got.cif
#   From: 2010.05.17/outbox.cif.g08.bks.cpg/sg65_22_cif.got.tgz:42330.got - 2010.06.03 17:01:31.
