data_PCOD9492419
_publ_section_title
;
Structure prediction by ZEFSAII (Michael W. Deem and Ramdas Pophale) SiO2 
 PCOD9492419
Probable space group: C M M M
;
_chemical_formula_sum "Si O2"
_cell_formula_units_Z 88
_cell_length_a 8.782799
_cell_length_b 31.700670
_cell_length_c 17.355855
_cell_angle_alpha 90.000000
_cell_angle_beta 90.000000
_cell_angle_gamma 90.000000
_cell_volume 4832.227784
_symmetry_space_group_name_H-M "C M M M"
_symmetry_group_IT_number 65
_symmetry_cell_setting 'orthorhombic'
loop_
_space_group_symop_operation_xyz
x,y,z
-x,-y,z
x,-y,-z
-x,y,-z
-x,-y,-z
x,y,-z
-x,y,z
x,-y,z
1/2+x,1/2+y,z
1/2-x,1/2-y,z
1/2+x,1/2-y,-z
1/2-x,1/2+y,-z
1/2-x,1/2-y,-z
1/2+x,1/2+y,-z
1/2-x,1/2+y,z
1/2+x,1/2-y,z
loop_
_atom_site_type_symbol
_atom_site_label
_atom_site_fract_x
_atom_site_fract_y
_atom_site_fract_z
Si Si1 0.181914 0.163779 0.500000
Si Si2 0.682767 0.126442 0.756731
Si Si3 0.318481 0.295763 0.664416
Si Si4 0.318318 0.929221 0.500000
Si Si5 0.682904 0.088711 0.912598
Si Si6 0.817403 0.047306 0.663887
Si Si7 0.828451 0.000000 0.093541
O O1 0.216310 0.190071 0.576674
O O2 0.274362 0.120311 0.500000
O O3 0.000000 0.153751 0.500000
O O4 0.500000 0.127004 0.750211
O O5 0.750755 0.168011 0.718552
O O6 0.726147 0.121565 0.846578
O O7 0.744796 0.085125 0.712627
O O8 0.500000 0.294560 0.672724
O O9 0.250000 0.250000 0.680094
O O10 0.500000 0.934700 0.500000
O O11 0.245906 0.948478 0.577118
O O12 0.500000 0.086528 0.914911
O O13 0.743998 0.043049 0.886774
O O14 0.736985 0.097429 0.000000
O O15 0.000000 0.052326 0.663040
O O16 0.781763 0.000000 0.693157
O O17 0.000000 0.000000 0.124338
O O18 0.834815 0.000000 0.000000
#
# Coordination Sequence:
#
# PCOD9492419 Si02
#       7
#     8  16  16   8  16  16   8
#     4  10  21  38  60  85 116 153 186 226 282 343
#     4  11  23  38  59  87 116 149 194 243 289 344
#     4  11  23  40  63  88 118 151 187 233 288 346
#     4  12  23  36  59  84 113 152 198 246 284 335
#     4   9  19  36  56  79 112 153 192 235 289 344
#     4  11  24  40  57  79 114 160 201 240 288 341
#     4   9  17  29  49  79 111 144 187 234 277 333
#
# _framework density 18.211061999999998
#
# number of rings (size 3 to 8) (size 9 to 14) (size 15 to 20)
#    0.000    1.545    1.818    3.273    1.273    5.818 
#    0.000    0.000    0.000    0.545    0.000    0.000 
#    0.000    0.000    0.000    0.000    0.000    0.000 
#
# Total GULP energy -245885.797758 kJ/mol
# GULP energy per Si atom -5588.313585 kJ/mol
# Density = 1.816961 g / cm^3
# Si number density = 18.211062 Si / 1000 Ang^3
#
#
#
# Elastic Constant Matrix: (Units=GPa)
#
#
# Indices 1 2 3 4 5 6 
#
# 1 51.8584 56.5437 43.6170 0.0000 0.0000 0.0000
# 2 56.5437 159.4235 77.0512 0.0000 0.0000 0.0000
# 3 43.6170 77.0512 128.4354 0.0000 0.0000 0.0000
# 4 0.0000 0.0000 0.0000 -11.4766 0.0000 0.0000
# 5 0.0000 0.0000 0.0000 0.0000 12.4975 0.0000
# 6 0.0000 0.0000 0.0000 0.0000 0.0000 31.5225
#
#
#
# Elastic Compliance Matrix: (Units=1/GPa)
#
#
# Indices 1 2 3 4 5 6 
#
# 1 0.034609 -0.009287 -0.006182 0.000000 0.000000 0.000000
# 2 -0.009287 0.011326 -0.003641 0.000000 0.000000 0.000000
# 3 -0.006182 -0.003641 0.012070 0.000000 0.000000 0.000000
# 4 0.000000 0.000000 0.000000 -0.087134 0.000000 0.000000
# 5 0.000000 0.000000 0.000000 0.000000 0.080016 0.000000
# 6 0.000000 0.000000 0.000000 0.000000 0.000000 0.031723
#
#
# Mechanical properties :
#
#
# Convention : Reuss Voigt Hill
#
# Bulk Modulus (GPa) = 50.54308 77.12679 63.83493
# Shear Modulus (GPa) = 39.23879 17.34237 28.29058
#
# Velocity S-wave (km/s) = 4.64688 3.08928 3.94570
# Velocity P-wave (km/s) = 7.52367 7.42755 7.47576
#
# Compressibility (1/GPa) = 0.01978510
#
# Stress axis : x y z
#
# Youngs Moduli (GPa) = 28.89436 88.29035 82.85317
#
# Poissons Ratio (x) = 0.81998 0.51216
# Poissons Ratio (y) = 0.26835 0.30166
# Poissons Ratio (z) = 0.17861 0.32146
#
# Static dielectric constant tensor:
#      x y z
#    x 1.611090 0.000000 0.000000 
#    y 0.000000 1.592170 0.000000 
#    z 0.000000 0.000000 1.654900 
# 
# From -- ./inp_files/50469.got.cif
#   From: 2010.05.17/outbox.cif.g08.bks.cpg/sg65_26_cif.got.tgz:50469.got - 2010.06.03 17:01:31.
