data_PCOD9492915
_publ_section_title
;
Structure prediction by ZEFSAII (Michael W. Deem and Ramdas Pophale) SiO2 
 PCOD9492915
Probable space group: C M M M
;
_chemical_formula_sum "Si O2"
_cell_formula_units_Z 80
_cell_length_a 27.364818
_cell_length_b 10.185533
_cell_length_c 19.924925
_cell_angle_alpha 90.000000
_cell_angle_beta 90.000000
_cell_angle_gamma 90.000000
_cell_volume 5553.579837
_symmetry_space_group_name_H-M "C M M M"
_symmetry_group_IT_number 65
_symmetry_cell_setting 'orthorhombic'
loop_
_space_group_symop_operation_xyz
x,y,z
-x,-y,z
x,-y,-z
-x,y,-z
-x,-y,-z
x,y,-z
-x,y,z
x,-y,z
1/2+x,1/2+y,z
1/2-x,1/2-y,z
1/2+x,1/2-y,-z
1/2-x,1/2+y,-z
1/2-x,1/2-y,-z
1/2+x,1/2+y,-z
1/2-x,1/2+y,z
1/2+x,1/2-y,z
loop_
_atom_site_type_symbol
_atom_site_label
_atom_site_fract_x
_atom_site_fract_y
_atom_site_fract_z
Si Si1 0.441752 0.840575 0.279237
Si Si2 0.895264 0.246998 0.854773
Si Si3 0.943432 0.500000 0.080095
Si Si4 0.941000 0.344296 0.427923
Si Si5 0.702936 0.656627 0.921074
Si Si6 0.057715 0.000000 0.924227
O O1 0.500000 0.812805 0.269664
O O2 0.409273 0.773962 0.222200
O O3 0.426196 0.795960 0.354269
O O4 0.437076 0.000000 0.275109
O O5 0.914691 0.374310 0.893726
O O6 0.839778 0.211663 0.873502
O O7 0.925354 0.126074 0.884156
O O8 0.000000 0.500000 0.104863
O O9 0.944841 0.500000 0.000000
O O10 0.923463 0.289136 0.500000
O O11 0.929993 0.500000 0.428433
O O12 0.000000 0.333886 0.428062
O O13 0.711639 0.500000 0.908955
O O14 0.750000 0.750000 0.912444
O O15 0.688182 0.668241 0.000000
O O16 0.000000 0.000000 0.929418
O O17 0.078591 0.000000 0.000000
#
# Coordination Sequence:
#
# PCOD9492915 Si02
#       6
#    16  16   8  16  16   8
#     4   9  16  26  41  65  97 129 160 193 229 272
#     4  12  21  33  49  68  95 124 157 201 243 279
#     4  11  22  32  45  67  94 128 165 192 225 277
#     4   7  10  18  34  57  87 123 159 192 224 259
#     4  10  22  39  56  71  86 111 154 206 255 297
#     4  11  22  34  47  63  90 128 163 194 229 277
#
# _framework density 14.405123
#
# number of rings (size 3 to 8) (size 9 to 14) (size 15 to 20)
#    0.000    2.200    2.000    5.400    1.400    1.600 
#    0.000    0.000    0.000    0.000    0.000    0.700 
#    0.000    4.800    0.000    0.600    0.000    0.200 
#
# Total GULP energy -222701.193881 kJ/mol
# GULP energy per Si atom -5567.529847 kJ/mol
# Density = 1.437234 g / cm^3
# Si number density = 14.405123 Si / 1000 Ang^3
#
#
#
# Elastic Constant Matrix: (Units=GPa)
#
#
# Indices 1 2 3 4 5 6 
#
# 1 73.0026 33.6140 48.6698 0.0000 0.0000 0.0000
# 2 33.6140 86.6497 42.9301 0.0000 0.0000 0.0000
# 3 48.6698 42.9301 150.9387 0.0000 0.0000 0.0000
# 4 0.0000 0.0000 0.0000 16.0920 0.0000 0.0000
# 5 0.0000 0.0000 0.0000 0.0000 22.5126 0.0000
# 6 0.0000 0.0000 0.0000 0.0000 0.0000 155.0671
#
#
#
# Elastic Compliance Matrix: (Units=1/GPa)
#
#
# Indices 1 2 3 4 5 6 
#
# 1 0.019209 -0.005102 -0.004743 0.000000 0.000000 0.000000
# 2 -0.005102 0.014789 -0.002561 0.000000 0.000000 0.000000
# 3 -0.004743 -0.002561 0.008883 0.000000 0.000000 0.000000
# 4 0.000000 0.000000 0.000000 0.062143 0.000000 0.000000
# 5 0.000000 0.000000 0.000000 0.000000 0.044419 0.000000
# 6 0.000000 0.000000 0.000000 0.000000 0.000000 0.006449
#
#
# Mechanical properties :
#
#
# Convention : Reuss Voigt Hill
#
# Bulk Modulus (GPa) = 55.34307 62.33539 58.83923
# Shear Modulus (GPa) = 26.77703 51.09283 38.93493
#
# Velocity S-wave (km/s) = 4.31612 5.96201 5.20454
# Velocity P-wave (km/s) = 7.95870 9.52686 8.77787
#
# Compressibility (1/GPa) = 0.01806911
#
# Stress axis : x y z
#
# Youngs Moduli (GPa) = 52.05783 67.61856 112.57497
#
# Poissons Ratio (x) = 0.34499 0.53393
# Poissons Ratio (y) = 0.26560 0.28832
# Poissons Ratio (z) = 0.24690 0.17318
#
# Static dielectric constant tensor:
#      x y z
#    x 1.469570 0.000000 0.000000 
#    y 0.000000 1.468300 0.000000 
#    z 0.000000 0.000000 1.519810 
# 
# From -- ./inp_files/65681.got.cif
#   From: 2010.05.17/outbox.cif.g08.bks.cpg/sg65_33_cif.got.tgz:65681.got - 2010.06.03 17:01:31.
