data_PCOD9492855
_publ_section_title
;
Structure prediction by ZEFSAII (Michael W. Deem and Ramdas Pophale) SiO2 
 PCOD9492855
Probable space group: C M M M
;
_chemical_formula_sum "Si O2"
_cell_formula_units_Z 72
_cell_length_a 19.399697
_cell_length_b 21.095164
_cell_length_c 7.531101
_cell_angle_alpha 90.000000
_cell_angle_beta 90.000000
_cell_angle_gamma 90.000000
_cell_volume 3082.026190
_symmetry_space_group_name_H-M "C M M M"
_symmetry_group_IT_number 65
_symmetry_cell_setting 'orthorhombic'
loop_
_space_group_symop_operation_xyz
x,y,z
-x,-y,z
x,-y,-z
-x,y,-z
-x,-y,-z
x,y,-z
-x,y,z
x,-y,z
1/2+x,1/2+y,z
1/2-x,1/2-y,z
1/2+x,1/2-y,-z
1/2-x,1/2+y,-z
1/2-x,1/2-y,-z
1/2+x,1/2+y,-z
1/2-x,1/2+y,z
1/2+x,1/2-y,z
loop_
_atom_site_type_symbol
_atom_site_label
_atom_site_fract_x
_atom_site_fract_y
_atom_site_fract_z
Si Si1 0.082889 0.568417 0.213736
Si Si2 0.420158 0.792991 0.215086
Si Si3 0.697873 0.300223 0.292178
Si Si4 0.000000 0.076473 0.801838
Si Si5 0.653982 0.570542 0.292737
O O1 0.109668 0.500000 0.281008
O O2 0.107594 0.637542 0.276446
O O3 0.000000 0.568748 0.244986
O O4 0.091781 0.567862 0.000000
O O5 0.500000 0.787360 0.268133
O O6 0.375197 0.735034 0.281465
O O7 0.418276 0.792769 0.000000
O O8 0.716002 0.307749 0.500000
O O9 0.750000 0.250000 0.209198
O O10 0.695012 0.370495 0.212885
O O11 0.926754 0.090234 0.715280
O O12 0.000000 0.000000 0.812217
O O13 0.000000 0.103949 0.000000
O O14 0.671675 0.565749 0.500000
O O15 0.662043 0.500000 0.214116
#
# Coordination Sequence:
#
# PCOD9492855 Si02
#       5
#    16  16  16   8  16
#     4   7  10  20  41  68  97 127 159 197 239 286
#     4   9  18  32  52  79 105 131 169 214 261 315
#     4  10  22  38  53  72 103 140 177 216 261 314
#     4   9  17  29  49  81 113 133 158 211 274 317
#     4   9  18  34  55  75  99 137 182 219 257 316
#
# _framework density 23.361253999999999
#
# number of rings (size 3 to 8) (size 9 to 14) (size 15 to 20)
#    0.000    3.222    0.000    2.333    1.556    3.111 
#    0.000    1.111    0.000    2.000    0.000    3.111 
#    0.000    0.000    0.000    0.000    0.000    0.000 
#
# Total GULP energy -200668.416492 kJ/mol
# GULP energy per Si atom -5574.122680 kJ/mol
# Density = 2.330808 g / cm^3
# Si number density = 23.361254 Si / 1000 Ang^3
#
#
#
# Elastic Constant Matrix: (Units=GPa)
#
#
# Indices 1 2 3 4 5 6 
#
# 1 38.6718 51.9625 -2.6025 0.0000 0.0000 0.0000
# 2 51.9625 215.1609 9.9280 0.0000 0.0000 0.0000
# 3 -2.6025 9.9280 63.3566 0.0000 0.0000 0.0000
# 4 0.0000 0.0000 0.0000 -16.5594 0.0000 0.0000
# 5 0.0000 0.0000 0.0000 0.0000 -4.4549 0.0000
# 6 0.0000 0.0000 0.0000 0.0000 0.0000 2.1535
#
#
#
# Elastic Compliance Matrix: (Units=1/GPa)
#
#
# Indices 1 2 3 4 5 6 
#
# 1 0.038873 -0.009531 0.003090 0.000000 0.000000 0.000000
# 2 -0.009531 0.007018 -0.001491 0.000000 0.000000 0.000000
# 3 0.003090 -0.001491 0.016144 0.000000 0.000000 0.000000
# 4 0.000000 0.000000 0.000000 -0.060389 0.000000 0.000000
# 5 0.000000 0.000000 0.000000 0.000000 -0.224471 0.000000
# 6 0.000000 0.000000 0.000000 0.000000 0.000000 0.464356
#
#
# Mechanical properties :
#
#
# Convention : Reuss Voigt Hill
#
# Bulk Modulus (GPa) = 21.65816 48.41835 35.03826
# Shear Modulus (GPa) = 18.32943 13.42127 15.87535
#
# Velocity S-wave (km/s) = 2.80412 2.39949 2.60966
# Velocity P-wave (km/s) = 4.44694 5.33364 4.91034
#
# Compressibility (1/GPa) = 0.04617197
#
# Stress axis : x y z
#
# Youngs Moduli (GPa) = 25.72507 142.48740 61.94140
#
# Poissons Ratio (x) = 1.35798 -0.19141
# Poissons Ratio (y) = 0.24517 0.09237
# Poissons Ratio (z) = -0.07950 0.21248
#
# Static dielectric constant tensor:
#      x y z
#    x 1.871190 0.000000 0.000000 
#    y 0.000000 1.960640 0.000000 
#    z 0.000000 0.000000 1.885810 
# 
# From -- ./inp_files/11239.got.cif
#   From: 2010.05.17/outbox.cif.g08.bks.cpg/sg65_6_cif.got.tgz:11239.got - 2010.06.03 17:01:31.
