data_PCOD9492198
_publ_section_title
;
Structure prediction by ZEFSAII (Michael W. Deem and Ramdas Pophale) SiO2 
 PCOD9492198
Probable space group: C M M M
;
_chemical_formula_sum "Si O2"
_cell_formula_units_Z 88
_cell_length_a 21.676578
_cell_length_b 8.470742
_cell_length_c 24.296932
_cell_angle_alpha 90.000000
_cell_angle_beta 90.000000
_cell_angle_gamma 90.000000
_cell_volume 4461.322466
_symmetry_space_group_name_H-M "C M M M"
_symmetry_group_IT_number 65
_symmetry_cell_setting 'orthorhombic'
loop_
_space_group_symop_operation_xyz
x,y,z
-x,-y,z
x,-y,-z
-x,y,-z
-x,-y,-z
x,y,-z
-x,y,z
x,-y,z
1/2+x,1/2+y,z
1/2-x,1/2-y,z
1/2+x,1/2-y,-z
1/2-x,1/2+y,-z
1/2-x,1/2-y,-z
1/2+x,1/2+y,-z
1/2-x,1/2+y,z
1/2+x,1/2-y,z
loop_
_atom_site_type_symbol
_atom_site_label
_atom_site_fract_x
_atom_site_fract_y
_atom_site_fract_z
Si Si1 0.930796 0.310766 0.635210
Si Si2 0.000000 0.320333 0.933176
Si Si3 0.365396 0.191533 0.937025
Si Si4 0.314001 0.688468 0.828422
Si Si5 0.431805 0.309146 0.239967
Si Si6 0.183255 0.188988 0.436165
O O1 0.928481 0.500000 0.636398
O O2 0.924882 0.246782 0.697309
O O3 0.874820 0.248779 0.598474
O O4 0.000000 0.263803 0.615476
O O5 0.066010 0.246608 0.920271
O O6 0.000000 0.500000 0.911626
O O7 0.000000 0.331178 0.000000
O O8 0.319967 0.252251 0.890928
O O9 0.367517 0.000000 0.936552
O O10 0.352020 0.239424 0.000000
O O11 0.313849 0.500000 0.827664
O O12 0.250000 0.750000 0.804045
O O13 0.374231 0.747850 0.795844
O O14 0.500000 0.257236 0.219984
O O15 0.431089 0.500000 0.239146
O O16 0.177026 0.241071 0.500000
O O17 0.250000 0.250000 0.415977
O O18 0.184104 0.000000 0.434712
#
# Coordination Sequence:
#
# PCOD9492198 Si02
#       6
#    16   8  16  16  16  16
#     4  10  21  37  59  88 119 152 193 239 287 340
#     4   7  12  26  49  77 105 133 167 207 254 311
#     4   9  18  34  56  81 110 143 179 220 270 331
#     4  11  24  39  57  81 111 145 183 228 279 335
#     4   9  20  40  62  82 108 145 188 235 287 339
#     4  10  21  37  58  85 119 160 202 242 287 339
#
# _framework density 19.725093999999999
#
# number of rings (size 3 to 8) (size 9 to 14) (size 15 to 20)
#    0.000    2.455    0.000    2.727    1.273    5.455 
#    0.000    3.636    0.000    1.636    0.000    0.000 
#    0.000    0.000    0.000    0.000    0.000    0.000 
#
# Total GULP energy -245507.683419 kJ/mol
# GULP energy per Si atom -5579.720078 kJ/mol
# Density = 1.968020 g / cm^3
# Si number density = 19.725094 Si / 1000 Ang^3
#
#
#
# Elastic Constant Matrix: (Units=GPa)
#
#
# Indices 1 2 3 4 5 6 
#
# 1 199.1468 33.3673 84.1409 0.0000 0.0000 0.0000
# 2 33.3673 23.5464 14.5611 0.0000 0.0000 0.0000
# 3 84.1409 14.5611 68.3215 0.0000 0.0000 0.0000
# 4 0.0000 0.0000 0.0000 18.1705 0.0000 0.0000
# 5 0.0000 0.0000 0.0000 0.0000 21.4727 0.0000
# 6 0.0000 0.0000 0.0000 0.0000 0.0000 27.1144
#
#
#
# Elastic Compliance Matrix: (Units=1/GPa)
#
#
# Indices 1 2 3 4 5 6 
#
# 1 0.011923 -0.009002 -0.012765 0.000000 0.000000 0.000000
# 2 -0.009002 0.055713 -0.000787 0.000000 0.000000 0.000000
# 3 -0.012765 -0.000787 0.030526 0.000000 0.000000 0.000000
# 4 0.000000 0.000000 0.000000 0.055034 0.000000 0.000000
# 5 0.000000 0.000000 0.000000 0.000000 0.046571 0.000000
# 6 0.000000 0.000000 0.000000 0.000000 0.000000 0.036881
#
#
# Mechanical properties :
#
#
# Convention : Reuss Voigt Hill
#
# Bulk Modulus (GPa) = 18.84937 61.68371 40.26654
# Shear Modulus (GPa) = 16.69775 23.94787 20.32281
#
# Velocity S-wave (km/s) = 2.91266 3.48815 3.21331
# Velocity P-wave (km/s) = 4.57037 6.89656 5.85025
#
# Compressibility (1/GPa) = 0.05305216
#
# Stress axis : x y z
#
# Youngs Moduli (GPa) = 83.87023 17.94908 32.75945
#
# Poissons Ratio (x) = 0.16158 0.41819
# Poissons Ratio (y) = 0.75501 0.02579
# Poissons Ratio (z) = 1.07063 0.01413
#
# Static dielectric constant tensor:
#      x y z
#    x 1.735840 0.000000 0.000000 
#    y 0.000000 1.671670 0.000000 
#    z 0.000000 0.000000 1.668920 
# 
# From -- ./inp_files/67522.got.cif
#   From: 2010.05.17/outbox.cif.g08.bks.cpg/sg65_34_cif.got.tgz:67522.got - 2010.06.03 17:01:31.
