data_PCOD9492892
_publ_section_title
;
Structure prediction by ZEFSAII (Michael W. Deem and Ramdas Pophale) SiO2 
 PCOD9492892
Probable space group: C M M M
;
_chemical_formula_sum "Si O2"
_cell_formula_units_Z 64
_cell_length_a 14.434027
_cell_length_b 11.628809
_cell_length_c 18.380454
_cell_angle_alpha 90.000000
_cell_angle_beta 90.000000
_cell_angle_gamma 90.000000
_cell_volume 3085.169186
_symmetry_space_group_name_H-M "C M M M"
_symmetry_group_IT_number 65
_symmetry_cell_setting 'orthorhombic'
loop_
_space_group_symop_operation_xyz
x,y,z
-x,-y,z
x,-y,-z
-x,y,-z
-x,-y,-z
x,y,-z
-x,y,z
x,-y,z
1/2+x,1/2+y,z
1/2-x,1/2-y,z
1/2+x,1/2-y,-z
1/2-x,1/2+y,-z
1/2-x,1/2-y,-z
1/2+x,1/2+y,-z
1/2-x,1/2+y,z
1/2+x,1/2-y,z
loop_
_atom_site_type_symbol
_atom_site_label
_atom_site_fract_x
_atom_site_fract_y
_atom_site_fract_z
Si Si1 0.500000 0.300267 0.414006
Si Si2 0.000000 0.137001 0.915206
Si Si3 0.000000 0.636232 0.710555
Si Si4 0.854231 0.278099 0.824215
Si Si5 0.112029 0.500000 0.916605
Si Si6 0.794602 0.872661 0.588222
O O1 0.500000 0.281357 0.500000
O O2 0.500000 0.180980 0.371049
O O3 0.595501 0.364621 0.395617
O O4 0.911241 0.183966 0.870794
O O5 0.000000 0.000000 0.916187
O O6 0.000000 0.178601 0.000000
O O7 0.087148 0.688291 0.753587
O O8 0.000000 0.500000 0.716826
O O9 0.750000 0.250000 0.805030
O O10 0.853039 0.388426 0.876121
O O11 0.000000 0.500000 0.912098
O O12 0.139762 0.500000 0.000000
O O13 0.783975 0.873913 0.500000
O O14 0.750000 0.750000 0.612449
O O15 0.760187 0.000000 0.614319
#
# Coordination Sequence:
#
# PCOD9492892 Si02
#       6
#     8   8   8  16   8  16
#     4  10  22  39  64  95 123 161 213 274 336 399
#     4  10  22  38  57  92 138 171 204 262 314 358
#     4  11  23  45  65  86 125 170 215 268 328 391
#     4  11  23  41  64  90 126 171 216 258 310 382
#     4  11  20  38  68  97 125 167 212 258 308 363
#     4   9  18  35  60  90 126 161 197 253 323 391
#
# _framework density 20.744405
#
# number of rings (size 3 to 8) (size 9 to 14) (size 15 to 20)
#    0.000    1.750    3.750    1.125    1.750    5.750 
#    0.000    7.500    0.000    0.000    0.000    0.000 
#    0.000    0.000    0.000    0.000    0.000    0.000 
#
# Total GULP energy -178716.136572 kJ/mol
# GULP energy per Si atom -5584.879268 kJ/mol
# Density = 2.069719 g / cm^3
# Si number density = 20.744405 Si / 1000 Ang^3
#
#
#
# Elastic Constant Matrix: (Units=GPa)
#
#
# Indices 1 2 3 4 5 6 
#
# 1 127.6614 59.4866 12.7006 0.0000 0.0000 0.0000
# 2 59.4866 152.4249 33.0032 0.0000 0.0000 0.0000
# 3 12.7006 33.0032 31.7725 0.0000 0.0000 0.0000
# 4 0.0000 0.0000 0.0000 26.7036 0.0000 0.0000
# 5 0.0000 0.0000 0.0000 0.0000 11.6291 0.0000
# 6 0.0000 0.0000 0.0000 0.0000 0.0000 56.4629
#
#
#
# Elastic Compliance Matrix: (Units=1/GPa)
#
#
# Indices 1 2 3 4 5 6 
#
# 1 0.009574 -0.003752 0.000070 0.000000 0.000000 0.000000
# 2 -0.003752 0.009934 -0.008819 0.000000 0.000000 0.000000
# 3 0.000070 -0.008819 0.040607 0.000000 0.000000 0.000000
# 4 0.000000 0.000000 0.000000 0.037448 0.000000 0.000000
# 5 0.000000 0.000000 0.000000 0.000000 0.085991 0.000000
# 6 0.000000 0.000000 0.000000 0.000000 0.000000 0.017711
#
#
# Mechanical properties :
#
#
# Convention : Reuss Voigt Hill
#
# Bulk Modulus (GPa) = 28.47953 58.02663 43.25308
# Shear Modulus (GPa) = 21.01082 32.73703 26.87392
#
# Velocity S-wave (km/s) = 3.18597 3.97686 3.60318
# Velocity P-wave (km/s) = 5.22422 7.00857 6.18112
#
# Compressibility (1/GPa) = 0.03511294
#
# Stress axis : x y z
#
# Youngs Moduli (GPa) = 104.44444 100.66046 24.62634
#
# Poissons Ratio (x) = 0.37765 -0.00172
# Poissons Ratio (y) = 0.39185 0.21719
# Poissons Ratio (z) = -0.00729 0.88777
#
# Static dielectric constant tensor:
#      x y z
#    x 1.730240 0.000000 0.000000 
#    y 0.000000 1.736830 0.000000 
#    z 0.000000 0.000000 1.719980 
# 
# From -- ./inp_files/52569.got.cif
#   From: 2010.05.17/outbox.cif.g08.bks.cpg/sg65_27_cif.got.tgz:52569.got - 2010.06.03 17:01:31.
