data_PCOD9492424
_publ_section_title
;
Structure prediction by ZEFSAII (Michael W. Deem and Ramdas Pophale) SiO2 
 PCOD9492424
Probable space group: C M M M
;
_chemical_formula_sum "Si O2"
_cell_formula_units_Z 64
_cell_length_a 21.117343
_cell_length_b 8.816353
_cell_length_c 17.439529
_cell_angle_alpha 90.000000
_cell_angle_beta 90.000000
_cell_angle_gamma 90.000000
_cell_volume 3246.855764
_symmetry_space_group_name_H-M "C M M M"
_symmetry_group_IT_number 65
_symmetry_cell_setting 'orthorhombic'
loop_
_space_group_symop_operation_xyz
x,y,z
-x,-y,z
x,-y,-z
-x,y,-z
-x,-y,-z
x,y,-z
-x,y,z
x,-y,z
1/2+x,1/2+y,z
1/2-x,1/2-y,z
1/2+x,1/2-y,-z
1/2-x,1/2+y,-z
1/2-x,1/2-y,-z
1/2+x,1/2+y,-z
1/2-x,1/2+y,z
1/2+x,1/2-y,z
loop_
_atom_site_type_symbol
_atom_site_label
_atom_site_fract_x
_atom_site_fract_y
_atom_site_fract_z
Si Si1 0.000000 0.827367 0.907566
Si Si2 0.073853 0.681813 0.337165
Si Si3 0.076399 0.827081 0.500000
Si Si4 0.815125 0.179607 0.763804
Si Si5 0.365980 0.819809 0.090235
O O1 0.063053 0.735091 0.888976
O O2 0.000000 0.000000 0.876535
O O3 0.000000 0.839595 0.000000
O O4 0.076942 0.500000 0.333572
O O5 0.092441 0.739562 0.422102
O O6 0.123643 0.753586 0.278917
O O7 0.000000 0.726148 0.322552
O O8 0.000000 0.834869 0.500000
O O9 0.100797 0.000000 0.500000
O O10 0.750000 0.250000 0.732688
O O11 0.821581 0.229117 0.852443
O O12 0.814038 0.000000 0.756881
O O13 0.360035 0.000000 0.102111
O O14 0.355363 0.787905 0.000000
#
# Coordination Sequence:
#
# PCOD9492424 Si02
#       5
#     8  16   8  16  16
#     4   9  17  31  53  83 115 146 187 242 299 353
#     4  10  21  39  65  95 127 163 203 247 300 361
#     4   9  17  33  60  95 130 161 200 247 295 351
#     4  12  26  43  62  86 122 162 206 256 310 368
#     4  10  21  38  60  85 116 156 202 252 307 365
#
# _framework density 19.711378
#
# number of rings (size 3 to 8) (size 9 to 14) (size 15 to 20)
#    0.000    1.750    0.000    4.500    1.750    6.500 
#    0.000    0.625    0.000    0.000    0.000    0.000 
#    0.000    0.000    0.000    0.000    0.000    0.000 
#
# Total GULP energy -178789.805284 kJ/mol
# GULP energy per Si atom -5587.181415 kJ/mol
# Density = 1.966651 g / cm^3
# Si number density = 19.711378 Si / 1000 Ang^3
#
#
#
# Elastic Constant Matrix: (Units=GPa)
#
#
# Indices 1 2 3 4 5 6 
#
# 1 110.2620 58.5526 54.3799 0.0000 0.0000 0.0000
# 2 58.5526 139.3210 55.1238 0.0000 0.0000 0.0000
# 3 54.3799 55.1238 92.0059 0.0000 0.0000 0.0000
# 4 0.0000 0.0000 0.0000 35.9003 0.0000 0.0000
# 5 0.0000 0.0000 0.0000 0.0000 5.2691 0.0000
# 6 0.0000 0.0000 0.0000 0.0000 0.0000 29.0490
#
#
#
# Elastic Compliance Matrix: (Units=1/GPa)
#
#
# Indices 1 2 3 4 5 6 
#
# 1 0.013932 -0.003404 -0.006195 0.000000 0.000000 0.000000
# 2 -0.003404 0.010240 -0.004123 0.000000 0.000000 0.000000
# 3 -0.006195 -0.004123 0.017001 0.000000 0.000000 0.000000
# 4 0.000000 0.000000 0.000000 0.027855 0.000000 0.000000
# 5 0.000000 0.000000 0.000000 0.000000 0.189786 0.000000
# 6 0.000000 0.000000 0.000000 0.000000 0.000000 0.034425
#
#
# Mechanical properties :
#
#
# Convention : Reuss Voigt Hill
#
# Bulk Modulus (GPa) = 72.84246 75.30015 74.07131
# Shear Modulus (GPa) = 15.37237 25.61252 20.49244
#
# Velocity S-wave (km/s) = 2.79565 3.60860 3.22782
# Velocity P-wave (km/s) = 6.88880 7.45969 7.17992
#
# Compressibility (1/GPa) = 0.01372826
#
# Stress axis : x y z
#
# Youngs Moduli (GPa) = 71.77503 97.65996 58.82136
#
# Poissons Ratio (x) = 0.33246 0.36441
# Poissons Ratio (y) = 0.24434 0.24251
# Poissons Ratio (z) = 0.44466 0.40264
#
# Static dielectric constant tensor:
#      x y z
#    x 1.706850 0.000000 0.000000 
#    y 0.000000 1.661100 0.000000 
#    z 0.000000 0.000000 1.712000 
# 
# From -- ./inp_files/55282.got.cif
#   From: 2010.05.17/outbox.cif.g08.bks.cpg/sg65_28_cif.got.tgz:55282.got - 2010.06.03 17:01:31.
