data_PCOD9492994
_publ_section_title
;
Structure prediction by ZEFSAII (Michael W. Deem and Ramdas Pophale) SiO2 
 PCOD9492994
Probable space group: C M M M
;
_chemical_formula_sum "Si O2"
_cell_formula_units_Z 56
_cell_length_a 10.511873
_cell_length_b 34.789488
_cell_length_c 8.657427
_cell_angle_alpha 90.000000
_cell_angle_beta 90.000000
_cell_angle_gamma 90.000000
_cell_volume 3166.044252
_symmetry_space_group_name_H-M "C M M M"
_symmetry_group_IT_number 65
_symmetry_cell_setting 'orthorhombic'
loop_
_space_group_symop_operation_xyz
x,y,z
-x,-y,z
x,-y,-z
-x,y,-z
-x,-y,-z
x,y,-z
-x,y,z
x,-y,z
1/2+x,1/2+y,z
1/2-x,1/2-y,z
1/2+x,1/2-y,-z
1/2-x,1/2+y,-z
1/2-x,1/2-y,-z
1/2+x,1/2+y,-z
1/2-x,1/2+y,z
1/2+x,1/2-y,z
loop_
_atom_site_type_symbol
_atom_site_label
_atom_site_fract_x
_atom_site_fract_y
_atom_site_fract_z
Si Si1 0.749608 0.662371 0.814772
Si Si2 0.500000 0.797103 0.683910
Si Si3 0.149568 0.915915 0.687277
Si Si4 0.654562 0.500000 0.679970
Si Si5 0.500000 0.288892 0.813569
O O1 0.875090 0.681653 0.747037
O O2 0.727796 0.619280 0.754735
O O3 0.625721 0.687376 0.768680
O O4 0.756509 0.662351 0.000000
O O5 0.500000 0.797944 0.500000
O O6 0.500000 0.753231 0.741836
O O7 0.156354 0.915666 0.500000
O O8 0.000000 0.910901 0.728295
O O9 0.192271 0.958351 0.744196
O O10 0.500000 0.500000 0.681388
O O11 0.693393 0.500000 0.500000
O O12 0.500000 0.285192 0.000000
#
# Coordination Sequence:
#
# PCOD9492994 Si02
#       5
#    16   8  16   8   8
#     4  11  22  38  58  81 112 148 182 220 273 331
#     4  12  26  40  56  81 108 141 186 232 276 320
#     4   9  16  29  52  81 112 144 182 224 265 313
#     4   7  12  24  45  76 111 144 175 216 268 314
#     4  10  22  40  60  81 108 143 181 222 274 332
#
# _framework density 17.687684999999998
#
# number of rings (size 3 to 8) (size 9 to 14) (size 15 to 20)
#    0.000    2.143    1.429    4.714    0.000    5.714 
#    0.000    0.714    0.000    3.429    0.000    6.000 
#    0.000    0.000    0.000    0.000    0.000    0.000 
#
# Total GULP energy -156219.041788 kJ/mol
# GULP energy per Si atom -5579.251492 kJ/mol
# Density = 1.764743 g / cm^3
# Si number density = 17.687685 Si / 1000 Ang^3
#
#
#
# Elastic Constant Matrix: (Units=GPa)
#
#
# Indices 1 2 3 4 5 6 
#
# 1 117.7448 85.2174 36.8458 0.0000 0.0000 0.0000
# 2 85.2174 215.1525 45.7201 0.0000 0.0000 0.0000
# 3 36.8458 45.7201 31.0900 0.0000 0.0000 0.0000
# 4 0.0000 0.0000 0.0000 71.1488 0.0000 0.0000
# 5 0.0000 0.0000 0.0000 0.0000 16.5002 0.0000
# 6 0.0000 0.0000 0.0000 0.0000 0.0000 110.3299
#
#
#
# Elastic Compliance Matrix: (Units=1/GPa)
#
#
# Indices 1 2 3 4 5 6 
#
# 1 0.014800 -0.003105 -0.012974 0.000000 0.000000 0.000000
# 2 -0.003105 0.007412 -0.007220 0.000000 0.000000 0.000000
# 3 -0.012974 -0.007220 0.058158 0.000000 0.000000 0.000000
# 4 0.000000 0.000000 0.000000 0.014055 0.000000 0.000000
# 5 0.000000 0.000000 0.000000 0.000000 0.060605 0.000000
# 6 0.000000 0.000000 0.000000 0.000000 0.000000 0.009064
#
#
# Mechanical properties :
#
#
# Convention : Reuss Voigt Hill
#
# Bulk Modulus (GPa) = 29.61009 77.72822 53.66916
# Shear Modulus (GPa) = 22.52767 52.67607 37.60187
#
# Velocity S-wave (km/s) = 3.57267 5.46314 4.61573
# Velocity P-wave (km/s) = 5.81339 9.15613 7.66910
#
# Compressibility (1/GPa) = 0.03377227
#
# Stress axis : x y z
#
# Youngs Moduli (GPa) = 67.56693 134.91717 17.19453
#
# Poissons Ratio (x) = 0.41892 0.22308
# Poissons Ratio (y) = 0.20980 0.12414
# Poissons Ratio (z) = 0.87661 0.97409
#
# Static dielectric constant tensor:
#      x y z
#    x 1.571400 0.000000 0.000000 
#    y 0.000000 1.617070 0.000000 
#    z 0.000000 0.000000 1.598440 
# 
# From -- ./inp_files/4793.got.cif
#   From: 2010.05.17/outbox.cif.g08.bks.cpg/sg65_3_cif.got.tgz:4793.got - 2010.06.03 17:01:31.
