data_PCOD9492363
_publ_section_title
;
Structure prediction by ZEFSAII (Michael W. Deem and Ramdas Pophale) SiO2 
 PCOD9492363
Probable space group: C M M M
;
_chemical_formula_sum "Si O2"
_cell_formula_units_Z 88
_cell_length_a 18.790523
_cell_length_b 28.877841
_cell_length_c 9.020331
_cell_angle_alpha 90.000000
_cell_angle_beta 90.000000
_cell_angle_gamma 90.000000
_cell_volume 4894.699825
_symmetry_space_group_name_H-M "C M M M"
_symmetry_group_IT_number 65
_symmetry_cell_setting 'orthorhombic'
loop_
_space_group_symop_operation_xyz
x,y,z
-x,-y,z
x,-y,-z
-x,y,-z
-x,-y,-z
x,y,-z
-x,y,z
x,-y,z
1/2+x,1/2+y,z
1/2-x,1/2-y,z
1/2+x,1/2-y,-z
1/2-x,1/2+y,-z
1/2-x,1/2-y,-z
1/2+x,1/2+y,-z
1/2-x,1/2+y,z
1/2+x,1/2-y,z
loop_
_atom_site_type_symbol
_atom_site_label
_atom_site_fract_x
_atom_site_fract_y
_atom_site_fract_z
Si Si1 0.579570 0.857694 0.319758
Si Si2 0.500000 0.556506 0.671168
Si Si3 0.083662 0.250041 0.671902
Si Si4 0.146503 0.944300 0.172633
Si Si5 0.269259 0.113123 0.322837
Si Si6 0.293801 0.297665 0.171516
O O1 0.578157 0.858146 0.500000
O O2 0.500000 0.871290 0.269075
O O3 0.592046 0.803743 0.278967
O O4 0.647789 0.887608 0.273587
O O5 0.500000 0.500000 0.675435
O O6 0.500000 0.570911 0.500000
O O7 0.572946 0.571576 0.750189
O O8 0.107905 0.246955 0.500000
O O9 0.128123 0.215626 0.772335
O O10 0.000000 0.240131 0.675569
O O11 0.215925 0.923219 0.249329
O O12 0.148671 0.000000 0.183410
O O13 0.144931 0.931504 0.000000
O O14 0.266872 0.108374 0.500000
O O15 0.239968 0.163115 0.273470
O O16 0.250000 0.250000 0.184678
O O17 0.292834 0.312449 0.000000
#
# Coordination Sequence:
#
# PCOD9492363 Si02
#       6
#    16   8  16  16  16  16
#     4   8  15  29  51  78 104 133 173 222 271 315
#     4   9  17  33  59  87 111 137 177 221 259 311
#     4   9  17  32  53  73  97 134 180 223 262 309
#     4  10  21  38  59  82 112 145 175 215 269 323
#     4  11  21  34  57  82 106 138 180 227 269 319
#     4  11  22  34  49  73 109 145 176 216 265 321
#
# _framework density 17.978631
#
# number of rings (size 3 to 8) (size 9 to 14) (size 15 to 20)
#    0.000    2.273    1.818    3.000    0.000    3.273 
#    1.636    0.000    0.000    2.727    0.000    3.818 
#    0.000    0.000    0.000    0.000    0.000    0.000 
#
# Total GULP energy -245404.994348 kJ/mol
# GULP energy per Si atom -5577.386235 kJ/mol
# Density = 1.793771 g / cm^3
# Si number density = 17.978631 Si / 1000 Ang^3
#
#
#
# Elastic Constant Matrix: (Units=GPa)
#
#
# Indices 1 2 3 4 5 6 
#
# 1 148.8418 30.2285 52.5821 0.0000 0.0000 0.0000
# 2 30.2285 21.0917 21.3957 0.0000 0.0000 0.0000
# 3 52.5821 21.3957 74.8377 0.0000 0.0000 0.0000
# 4 0.0000 0.0000 0.0000 23.8025 0.0000 0.0000
# 5 0.0000 0.0000 0.0000 0.0000 15.5118 0.0000
# 6 0.0000 0.0000 0.0000 0.0000 0.0000 29.3984
#
#
#
# Elastic Compliance Matrix: (Units=1/GPa)
#
#
# Indices 1 2 3 4 5 6 
#
# 1 0.010365 -0.010518 -0.004276 0.000000 0.000000 0.000000
# 2 -0.010518 0.077452 -0.014753 0.000000 0.000000 0.000000
# 3 -0.004276 -0.014753 0.020584 0.000000 0.000000 0.000000
# 4 0.000000 0.000000 0.000000 0.042012 0.000000 0.000000
# 5 0.000000 0.000000 0.000000 0.000000 0.064467 0.000000
# 6 0.000000 0.000000 0.000000 0.000000 0.000000 0.034015
#
#
# Mechanical properties :
#
#
# Convention : Reuss Voigt Hill
#
# Bulk Modulus (GPa) = 20.28071 50.35376 35.31724
# Shear Modulus (GPa) = 15.41185 23.11352 19.26268
#
# Velocity S-wave (km/s) = 2.93103 3.58943 3.27681
# Velocity P-wave (km/s) = 4.77069 6.72659 5.83123
#
# Compressibility (1/GPa) = 0.04930795
#
# Stress axis : x y z
#
# Youngs Moduli (GPa) = 96.47723 12.91123 48.58086
#
# Poissons Ratio (x) = 0.13580 0.20772
# Poissons Ratio (y) = 1.01474 0.71672
# Poissons Ratio (z) = 0.41251 0.19048
#
# Static dielectric constant tensor:
#      x y z
#    x 1.638450 0.000000 0.000000 
#    y 0.000000 1.606260 0.000000 
#    z 0.000000 0.000000 1.602360 
# 
# From -- ./inp_files/10040.got.cif
#   From: 2010.05.17/outbox.cif.g08.bks.cpg/sg65_6_cif.got.tgz:10040.got - 2010.06.03 17:01:31.
