data_PCOD9492714
_publ_section_title
;
Structure prediction by ZEFSAII (Michael W. Deem and Ramdas Pophale) SiO2 
 PCOD9492714
Probable space group: C M M M
;
_chemical_formula_sum "Si O2"
_cell_formula_units_Z 66
_cell_length_a 22.430827
_cell_length_b 16.616943
_cell_length_c 9.548652
_cell_angle_alpha 90.000000
_cell_angle_beta 90.000000
_cell_angle_gamma 90.000000
_cell_volume 3559.085996
_symmetry_space_group_name_H-M "C M M M"
_symmetry_group_IT_number 65
_symmetry_cell_setting 'orthorhombic'
loop_
_space_group_symop_operation_xyz
x,y,z
-x,-y,z
x,-y,-z
-x,y,-z
-x,-y,-z
x,y,-z
-x,y,z
x,-y,z
1/2+x,1/2+y,z
1/2-x,1/2-y,z
1/2+x,1/2-y,-z
1/2-x,1/2+y,-z
1/2-x,1/2-y,-z
1/2+x,1/2+y,-z
1/2-x,1/2+y,z
1/2+x,1/2-y,z
loop_
_atom_site_type_symbol
_atom_site_label
_atom_site_fract_x
_atom_site_fract_y
_atom_site_fract_z
Si Si1 0.067873 0.000000 0.169678
Si Si2 0.741113 0.904385 0.335549
Si Si3 0.646355 0.654898 0.168335
Si Si4 0.618745 0.810159 0.339906
Si Si5 0.000000 0.500000 0.000000
Si Si6 0.500000 0.910608 0.712147
O O1 0.104239 0.079707 0.209260
O O2 0.000000 0.000000 0.221944
O O3 0.065595 0.000000 0.000000
O O4 0.756455 0.892291 0.500000
O O5 0.789476 0.861966 0.237610
O O6 0.675937 0.866864 0.313113
O O7 0.740539 0.000000 0.308180
O O8 0.620644 0.736526 0.232764
O O9 0.650498 0.658478 0.000000
O O10 0.623921 0.779866 0.500000
O O11 0.558794 0.861521 0.326687
O O12 0.000000 0.430805 0.123319
O O13 0.500000 0.000000 0.647429
#
# Coordination Sequence:
#
# PCOD9492714 Si02
#       6
#     8  16  16  16   2   8
#     4   9  20  40  60  85 117 161 201 245 304 365
#     4  10  21  40  63  87 121 164 205 251 309 370
#     4  11  23  39  63  91 123 158 207 257 311 370
#     4  11  24  40  63  93 124 163 208 253 309 370
#     4   8  24  44  62  92 128 162 206 248 314 360
#     4  10  23  44  66  90 128 161 205 250 306 369
#
# _framework density 18.544087000000001
#
# number of rings (size 3 to 8) (size 9 to 14) (size 15 to 20)
#    0.364    1.333    1.212    2.545    3.394    5.818 
#    0.000    0.000    0.000    2.909    0.000    0.000 
#    0.000    0.000    0.000    0.000    0.000    0.000 
#
# Total GULP energy -184006.143445 kJ/mol
# GULP energy per Si atom -5575.943741 kJ/mol
# Density = 1.850188 g / cm^3
# Si number density = 18.544087 Si / 1000 Ang^3
#
#
#
# Elastic Constant Matrix: (Units=GPa)
#
#
# Indices 1 2 3 4 5 6 
#
# 1 159.1477 70.5393 45.1121 0.0000 0.0000 0.0000
# 2 70.5393 135.5472 54.2573 0.0000 0.0000 0.0000
# 3 45.1121 54.2573 85.1391 0.0000 0.0000 0.0000
# 4 0.0000 0.0000 0.0000 30.4790 0.0000 0.0000
# 5 0.0000 0.0000 0.0000 0.0000 18.3135 0.0000
# 6 0.0000 0.0000 0.0000 0.0000 0.0000 -1.2441
#
#
#
# Elastic Compliance Matrix: (Units=1/GPa)
#
#
# Indices 1 2 3 4 5 6 
#
# 1 0.008478 -0.003509 -0.002256 0.000000 0.000000 0.000000
# 2 -0.003509 0.011356 -0.005378 0.000000 0.000000 0.000000
# 3 -0.002256 -0.005378 0.016368 0.000000 0.000000 0.000000
# 4 0.000000 0.000000 0.000000 0.032809 0.000000 0.000000
# 5 0.000000 0.000000 0.000000 0.000000 0.054605 0.000000
# 6 0.000000 0.000000 0.000000 0.000000 0.000000 -0.803770
#
#
# Mechanical properties :
#
#
# Convention : Reuss Voigt Hill
#
# Bulk Modulus (GPa) = 71.85589 79.96129 75.90859
# Shear Modulus (GPa) = -7.65429 23.50468 7.92519
#
# Velocity S-wave (km/s) = -2.03386 3.56406 2.06954
# Velocity P-wave (km/s) = 5.77212 7.75564 6.83620
#
# Compressibility (1/GPa) = 0.01391674
#
# Stress axis : x y z
#
# Youngs Moduli (GPa) = 117.94790 88.05702 61.09466
#
# Poissons Ratio (x) = 0.30900 0.13784
# Poissons Ratio (y) = 0.41389 0.32855
# Poissons Ratio (z) = 0.26610 0.47355
#
# Static dielectric constant tensor:
#      x y z
#    x 1.617310 0.000000 0.000000 
#    y 0.000000 1.626390 0.000000 
#    z 0.000000 0.000000 1.624820 
# 
# From -- ./inp_files/10977.got.cif
#   From: 2010.05.17/outbox.cif.g08.bks.cpg/sg65_6_cif.got.tgz:10977.got - 2010.06.03 17:01:31.
