data_PCOD9492136
_publ_section_title
;
Structure prediction by ZEFSAII (Michael W. Deem and Ramdas Pophale) SiO2 
 PCOD9492136
Probable space group: C M M M
;
_chemical_formula_sum "Si O2"
_cell_formula_units_Z 72
_cell_length_a 18.239218
_cell_length_b 9.083660
_cell_length_c 24.080954
_cell_angle_alpha 90.000000
_cell_angle_beta 90.000000
_cell_angle_gamma 90.000000
_cell_volume 3989.704885
_symmetry_space_group_name_H-M "C M M M"
_symmetry_group_IT_number 65
_symmetry_cell_setting 'orthorhombic'
loop_
_space_group_symop_operation_xyz
x,y,z
-x,-y,z
x,-y,-z
-x,y,-z
-x,-y,-z
x,y,-z
-x,y,z
x,-y,z
1/2+x,1/2+y,z
1/2-x,1/2-y,z
1/2+x,1/2-y,-z
1/2-x,1/2+y,-z
1/2-x,1/2-y,-z
1/2+x,1/2+y,-z
1/2-x,1/2+y,z
1/2+x,1/2-y,z
loop_
_atom_site_type_symbol
_atom_site_label
_atom_site_fract_x
_atom_site_fract_y
_atom_site_fract_z
Si Si1 0.086663 0.324059 0.386890
Si Si2 0.414565 0.676574 0.826515
Si Si3 0.670668 0.823122 0.500000
Si Si4 0.670482 0.677000 0.714514
Si Si5 0.588879 0.173345 0.939177
O O1 0.097315 0.500000 0.378323
O O2 0.126146 0.283159 0.444505
O O3 0.121925 0.236364 0.336164
O O4 0.000000 0.296896 0.390716
O O5 0.500000 0.721667 0.818934
O O6 0.413478 0.500000 0.831014
O O7 0.368053 0.718844 0.772705
O O8 0.385748 0.744015 0.884122
O O9 0.750000 0.750000 0.500000
O O10 0.678666 0.000000 0.500000
O O11 0.675929 0.500000 0.712032
O O12 0.750000 0.750000 0.710935
O O13 0.500000 0.187275 0.939576
O O14 0.605445 0.000000 0.934984
O O15 0.614703 0.226763 0.000000
#
# Coordination Sequence:
#
# PCOD9492136 Si02
#       5
#    16  16   8  16  16
#     4  10  21  38  60  84 110 142 180 221 266 315
#     4   9  18  32  50  73 101 133 169 212 262 313
#     4  10  21  37  57  83 115 148 181 218 260 310
#     4  11  23  38  55  77 107 141 179 223 269 319
#     4   8  14  25  43  70 102 132 164 206 255 307
#
# _framework density 18.046448000000002
#
# number of rings (size 3 to 8) (size 9 to 14) (size 15 to 20)
#    0.000    2.444    0.000    3.000    0.000    7.556 
#    0.000    4.444    0.000    2.667    0.000    0.000 
#    0.000    0.000    0.000    0.000    0.000    0.000 
#
# Total GULP energy -200844.963094 kJ/mol
# GULP energy per Si atom -5579.026753 kJ/mol
# Density = 1.800537 g / cm^3
# Si number density = 18.046448 Si / 1000 Ang^3
#
#
#
# Elastic Constant Matrix: (Units=GPa)
#
#
# Indices 1 2 3 4 5 6 
#
# 1 95.4945 42.8724 78.0588 0.0000 0.0000 0.0000
# 2 42.8724 33.1510 65.3624 0.0000 0.0000 0.0000
# 3 78.0588 65.3624 203.0140 0.0000 0.0000 0.0000
# 4 0.0000 0.0000 0.0000 54.3909 0.0000 0.0000
# 5 0.0000 0.0000 0.0000 0.0000 -17.3096 0.0000
# 6 0.0000 0.0000 0.0000 0.0000 0.0000 20.6237
#
#
#
# Elastic Compliance Matrix: (Units=1/GPa)
#
#
# Indices 1 2 3 4 5 6 
#
# 1 0.025326 -0.037111 0.002210 0.000000 0.000000 0.000000
# 2 -0.037111 0.136976 -0.029832 0.000000 0.000000 0.000000
# 3 0.002210 -0.029832 0.013681 0.000000 0.000000 0.000000
# 4 0.000000 0.000000 0.000000 0.018385 0.000000 0.000000
# 5 0.000000 0.000000 0.000000 0.000000 -0.057772 0.000000
# 6 0.000000 0.000000 0.000000 0.000000 0.000000 0.048488
#
#
# Mechanical properties :
#
#
# Convention : Reuss Voigt Hill
#
# Bulk Modulus (GPa) = 21.49692 78.24962 49.87327
# Shear Modulus (GPa) = 15.14902 21.23208 18.19055
#
# Velocity S-wave (km/s) = 2.90046 3.43377 3.17832
# Velocity P-wave (km/s) = 4.81194 7.69255 6.41600
#
# Compressibility (1/GPa) = 0.04651830
#
# Stress axis : x y z
#
# Youngs Moduli (GPa) = 39.48525 7.30055 73.09660
#
# Poissons Ratio (x) = 0.27093 -0.16157
# Poissons Ratio (y) = 1.46532 2.18060
# Poissons Ratio (z) = -0.08728 0.21779
#
# Static dielectric constant tensor:
#      x y z
#    x 1.596400 0.000000 0.000000 
#    y 0.000000 1.604390 0.000000 
#    z 0.000000 0.000000 1.616530 
# 
# From -- ./inp_files/59236.got.cif
#   From: 2010.05.17/outbox.cif.g08.bks.cpg/sg65_30_cif.got.tgz:59236.got - 2010.06.03 17:01:31.
