data_PCOD9492323
_publ_section_title
;
Structure prediction by ZEFSAII (Michael W. Deem and Ramdas Pophale) SiO2 
 PCOD9492323
Probable space group: C M M M
;
_chemical_formula_sum "Si O2"
_cell_formula_units_Z 64
_cell_length_a 8.816033
_cell_length_b 26.062085
_cell_length_c 17.499076
_cell_angle_alpha 90.000000
_cell_angle_beta 90.000000
_cell_angle_gamma 90.000000
_cell_volume 4020.661223
_symmetry_space_group_name_H-M "C M M M"
_symmetry_group_IT_number 65
_symmetry_cell_setting 'orthorhombic'
loop_
_space_group_symop_operation_xyz
x,y,z
-x,-y,z
x,-y,-z
-x,y,-z
-x,-y,-z
x,y,-z
-x,y,z
x,-y,z
1/2+x,1/2+y,z
1/2-x,1/2-y,z
1/2+x,1/2-y,-z
1/2-x,1/2+y,-z
1/2-x,1/2-y,-z
1/2+x,1/2+y,-z
1/2-x,1/2+y,z
1/2+x,1/2-y,z
loop_
_atom_site_type_symbol
_atom_site_label
_atom_site_fract_x
_atom_site_fract_y
_atom_site_fract_z
Si Si1 0.679907 0.500000 0.408861
Si Si2 0.318719 0.305784 0.589735
Si Si3 0.682061 0.438324 0.167791
Si Si4 0.683899 0.439856 0.000000
Si Si5 0.819297 0.402000 0.676348
O O1 0.500000 0.500000 0.392322
O O2 0.700646 0.500000 0.500000
O O3 0.753017 0.550300 0.371802
O O4 0.286182 0.316639 0.500000
O O5 0.500000 0.304912 0.599122
O O6 0.250000 0.250000 0.607238
O O7 0.246837 0.349974 0.641032
O O8 0.500000 0.431370 0.174812
O O9 0.708921 0.500000 0.172886
O O10 0.731761 0.419758 0.083061
O O11 0.765134 0.410764 0.236911
O O12 0.725054 0.500000 0.000000
O O13 0.500000 0.437866 0.000000
O O14 0.000000 0.402093 0.671806
#
# Coordination Sequence:
#
# PCOD9492323 Si02
#       5
#     8  16  16   8  16
#     4  11  23  37  51  68  95 134 175 211 252 301
#     4  10  21  38  58  77  98 128 169 215 259 300
#     4   9  16  29  49  71 100 135 171 208 248 297
#     4   7  12  24  45  71  94 127 171 208 244 291
#     4  12  23  33  49  75 106 136 168 206 252 303
#
# _framework density 15.91778
#
# number of rings (size 3 to 8) (size 9 to 14) (size 15 to 20)
#    0.000    2.000    1.250    5.625    0.000    5.500 
#    0.000    0.625    0.000    2.250    0.000    0.875 
#    0.000    0.000    0.000    0.000    0.000    0.000 
#
# Total GULP energy -178543.408568 kJ/mol
# GULP energy per Si atom -5579.481518 kJ/mol
# Density = 1.588155 g / cm^3
# Si number density = 15.917780 Si / 1000 Ang^3
#
#
#
# Elastic Constant Matrix: (Units=GPa)
#
#
# Indices 1 2 3 4 5 6 
#
# 1 83.1772 58.6081 82.6413 0.0000 0.0000 0.0000
# 2 58.6081 99.3072 85.5286 0.0000 0.0000 0.0000
# 3 82.6413 85.5286 146.1233 0.0000 0.0000 0.0000
# 4 0.0000 0.0000 0.0000 -5.6345 0.0000 0.0000
# 5 0.0000 0.0000 0.0000 0.0000 5.7976 0.0000
# 6 0.0000 0.0000 0.0000 0.0000 0.0000 25.2144
#
#
#
# Elastic Compliance Matrix: (Units=1/GPa)
#
#
# Indices 1 2 3 4 5 6 
#
# 1 0.029145 -0.006058 -0.012937 0.000000 0.000000 0.000000
# 2 -0.006058 0.021566 -0.009196 0.000000 0.000000 0.000000
# 3 -0.012937 -0.009196 0.019543 0.000000 0.000000 0.000000
# 4 0.000000 0.000000 0.000000 -0.177477 0.000000 0.000000
# 5 0.000000 0.000000 0.000000 0.000000 0.172486 0.000000
# 6 0.000000 0.000000 0.000000 0.000000 0.000000 0.039660
#
#
# Mechanical properties :
#
#
# Convention : Reuss Voigt Hill
#
# Bulk Modulus (GPa) = 72.09826 86.90709 79.50268
# Shear Modulus (GPa) = 30.13296 11.86413 20.99855
#
# Velocity S-wave (km/s) = 4.35563 2.73305 3.63600
# Velocity P-wave (km/s) = 8.40760 8.04210 8.22688
#
# Compressibility (1/GPa) = 0.01386996
#
# Stress axis : x y z
#
# Youngs Moduli (GPa) = 34.31083 46.37002 51.16876
#
# Poissons Ratio (x) = 0.28093 0.66199
# Poissons Ratio (y) = 0.20787 0.47057
# Poissons Ratio (z) = 0.44389 0.42644
#
# Static dielectric constant tensor:
#      x y z
#    x 1.525080 0.000000 0.000000 
#    y 0.000000 1.494020 0.000000 
#    z 0.000000 0.000000 1.556490 
# 
# From -- ./inp_files/49386.got.cif
#   From: 2010.05.17/outbox.cif.g08.bks.cpg/sg65_25_cif.got.tgz:49386.got - 2010.06.03 17:01:31.
