data_PCOD9492334
_publ_section_title
;
Structure prediction by ZEFSAII (Michael W. Deem and Ramdas Pophale) SiO2 
 PCOD9492334
Probable space group: C M M M
;
_chemical_formula_sum "Si O2"
_cell_formula_units_Z 64
_cell_length_a 8.589284
_cell_length_b 15.099688
_cell_length_c 25.412575
_cell_angle_alpha 90.000000
_cell_angle_beta 90.000000
_cell_angle_gamma 90.000000
_cell_volume 3295.896838
_symmetry_space_group_name_H-M "C M M M"
_symmetry_group_IT_number 65
_symmetry_cell_setting 'orthorhombic'
loop_
_space_group_symop_operation_xyz
x,y,z
-x,-y,z
x,-y,-z
-x,y,-z
-x,-y,-z
x,y,-z
-x,y,z
x,-y,z
1/2+x,1/2+y,z
1/2-x,1/2-y,z
1/2+x,1/2-y,-z
1/2-x,1/2+y,-z
1/2-x,1/2-y,-z
1/2+x,1/2+y,-z
1/2-x,1/2+y,z
1/2+x,1/2-y,z
loop_
_atom_site_type_symbol
_atom_site_label
_atom_site_fract_x
_atom_site_fract_y
_atom_site_fract_z
Si Si1 0.312293 0.151595 0.559178
Si Si2 0.810940 0.500000 0.639218
Si Si3 0.314372 0.850321 0.167640
Si Si4 0.687098 0.649098 0.942628
Si Si5 0.185483 0.000000 0.242956
O O1 0.264124 0.123142 0.500000
O O2 0.500000 0.153224 0.559478
O O3 0.250000 0.250000 0.567823
O O4 0.262639 0.084721 0.604553
O O5 0.739774 0.500000 0.696835
O O6 0.000000 0.500000 0.643428
O O7 0.500000 0.847257 0.168477
O O8 0.250000 0.750000 0.172937
O O9 0.258370 0.887809 0.110930
O O10 0.251380 0.913974 0.212933
O O11 0.500000 0.649582 0.938078
O O12 0.750000 0.750000 0.944044
O O13 0.727045 0.609512 0.000000
O O14 0.000000 0.000000 0.239463
#
# Coordination Sequence:
#
# PCOD9492334 Si02
#       5
#    16   8  16  16   8
#     4   9  18  34  58  87 118 151 186 227 277 333
#     4  10  21  38  58  81 113 152 193 234 281 337
#     4  11  22  39  62  86 114 150 192 239 293 348
#     4   9  16  28  50  81 114 147 184 228 282 344
#     4  12  26  43  60  82 114 152 199 247 291 342
#
# _framework density 19.418085000000001
#
# number of rings (size 3 to 8) (size 9 to 14) (size 15 to 20)
#    0.000    2.000    0.000    6.000    0.000    5.000 
#    0.000    3.125    0.000    7.500    0.000    0.000 
#    0.000    0.000    0.000    0.000    0.000    0.000 
#
# Total GULP energy -178680.490769 kJ/mol
# GULP energy per Si atom -5583.765337 kJ/mol
# Density = 1.937389 g / cm^3
# Si number density = 19.418085 Si / 1000 Ang^3
#
#
#
# Elastic Constant Matrix: (Units=GPa)
#
#
# Indices 1 2 3 4 5 6 
#
# 1 109.8872 42.3089 73.7977 0.0000 0.0000 0.0000
# 2 42.3089 102.7441 98.0582 0.0000 0.0000 0.0000
# 3 73.7977 98.0582 222.6209 0.0000 0.0000 0.0000
# 4 0.0000 0.0000 0.0000 635.4317 0.0000 0.0000
# 5 0.0000 0.0000 0.0000 0.0000 34.4356 0.0000
# 6 0.0000 0.0000 0.0000 0.0000 0.0000 23.9348
#
#
#
# Elastic Compliance Matrix: (Units=1/GPa)
#
#
# Indices 1 2 3 4 5 6 
#
# 1 0.011932 -0.001964 -0.003090 0.000000 0.000000 0.000000
# 2 -0.001964 0.017115 -0.006888 0.000000 0.000000 0.000000
# 3 -0.003090 -0.006888 0.008550 0.000000 0.000000 0.000000
# 4 0.000000 0.000000 0.000000 0.001574 0.000000 0.000000
# 5 0.000000 0.000000 0.000000 0.000000 0.029040 0.000000
# 6 0.000000 0.000000 0.000000 0.000000 0.000000 0.041780
#
#
# Mechanical properties :
#
#
# Convention : Reuss Voigt Hill
#
# Bulk Modulus (GPa) = 72.92243 95.95355 84.43799
# Shear Modulus (GPa) = 36.11520 153.49959 94.80740
#
# Velocity S-wave (km/s) = 4.31730 8.90064 6.99502
# Velocity P-wave (km/s) = 7.90491 12.45594 10.43163
#
# Compressibility (1/GPa) = 0.01371320
#
# Stress axis : x y z
#
# Youngs Moduli (GPa) = 83.80991 58.42724 116.95682
#
# Poissons Ratio (x) = 0.11476 0.36142
# Poissons Ratio (y) = 0.16461 0.80556
# Poissons Ratio (z) = 0.25899 0.40243
#
# Static dielectric constant tensor:
#      x y z
#    x 1.652580 0.000000 0.000000 
#    y 0.000000 1.650640 0.000000 
#    z 0.000000 0.000000 1.685990 
# 
# From -- ./inp_files/58784.got.cif
#   From: 2010.05.17/outbox.cif.g08.bks.cpg/sg65_30_cif.got.tgz:58784.got - 2010.06.03 17:01:31.
