data_PCOD9492589
_publ_section_title
;
Structure prediction by ZEFSAII (Michael W. Deem and Ramdas Pophale) SiO2 
 PCOD9492589
Probable space group: C M M M
;
_chemical_formula_sum "Si O2"
_cell_formula_units_Z 80
_cell_length_a 14.056439
_cell_length_b 13.052428
_cell_length_c 20.541330
_cell_angle_alpha 90.000000
_cell_angle_beta 90.000000
_cell_angle_gamma 90.000000
_cell_volume 3768.731331
_symmetry_space_group_name_H-M "C M M M"
_symmetry_group_IT_number 65
_symmetry_cell_setting 'orthorhombic'
loop_
_space_group_symop_operation_xyz
x,y,z
-x,-y,z
x,-y,-z
-x,y,-z
-x,-y,-z
x,y,-z
-x,y,z
x,-y,z
1/2+x,1/2+y,z
1/2-x,1/2-y,z
1/2+x,1/2-y,-z
1/2-x,1/2+y,-z
1/2-x,1/2-y,-z
1/2+x,1/2+y,-z
1/2-x,1/2+y,z
1/2+x,1/2-y,z
loop_
_atom_site_type_symbol
_atom_site_label
_atom_site_fract_x
_atom_site_fract_y
_atom_site_fract_z
Si Si1 0.615931 0.723400 0.891538
Si Si2 0.281938 0.875408 0.500000
Si Si3 0.113526 0.613679 0.637497
Si Si4 0.890314 0.000000 0.740811
Si Si5 0.116518 0.616807 0.000000
Si Si6 0.383735 0.720070 0.741523
Si Si7 0.109394 0.000000 0.100918
O O1 0.500000 0.718148 0.892704
O O2 0.643029 0.740069 0.816376
O O3 0.649458 0.611380 0.916174
O O4 0.644231 0.816242 0.937414
O O5 0.250000 0.750000 0.500000
O O6 0.338641 0.878083 0.567452
O O7 0.237035 0.000000 0.500000
O O8 0.130007 0.500000 0.664233
O O9 0.145409 0.696366 0.689886
O O10 0.000000 0.626244 0.628389
O O11 0.848217 0.892196 0.720721
O O12 0.892264 0.000000 0.819782
O O13 0.000000 0.000000 0.718339
O O14 0.150664 0.500000 0.000000
O O15 0.000000 0.612941 0.000000
O O16 0.500000 0.716569 0.742016
O O17 0.000000 0.000000 0.078030
#
# Coordination Sequence:
#
# PCOD9492589 Si02
#       7
#    16   8  16   8   8  16   8
#     4   8  13  20  29  42  65  98 135 176 216 261
#     4  10  21  39  57  73 101 134 162 194 236 290
#     4   9  17  30  51  75  95 122 161 200 236 277
#     4   7  10  18  31  49  77 107 127 165 227 271
#     4   9  16  21  23  33  59  98 138 173 215 262
#     4   8  13  22  37  58  82 107 141 184 229 271
#     4   7  10  17  28  39  53  82 128 171 211 252
#
# _framework density 21.227302000000002
#
# number of rings (size 3 to 8) (size 9 to 14) (size 15 to 20)
#    0.000    3.700    0.000    2.700    0.000    2.400 
#    1.800    6.000    0.000    0.600    0.000    0.000 
#    0.000    0.000    0.000    0.900    0.000    3.700 
#
# Total GULP energy -222690.111370 kJ/mol
# GULP energy per Si atom -5567.252784 kJ/mol
# Density = 2.117899 g / cm^3
# Si number density = 21.227302 Si / 1000 Ang^3
#
#
#
# Elastic Constant Matrix: (Units=GPa)
#
#
# Indices 1 2 3 4 5 6 
#
# 1 69.4612 38.3184 7.1165 0.0000 0.0000 0.0000
# 2 38.3184 234.1379 106.2391 0.0000 0.0000 0.0000
# 3 7.1165 106.2391 109.1874 0.0000 0.0000 0.0000
# 4 0.0000 0.0000 0.0000 46.5788 0.0000 0.0000
# 5 0.0000 0.0000 0.0000 0.0000 246.9861 0.0000
# 6 0.0000 0.0000 0.0000 0.0000 0.0000 11.7905
#
#
#
# Elastic Compliance Matrix: (Units=1/GPa)
#
#
# Indices 1 2 3 4 5 6 
#
# 1 0.016271 -0.003906 0.002740 0.000000 0.000000 0.000000
# 2 -0.003906 0.008585 -0.008099 0.000000 0.000000 0.000000
# 3 0.002740 -0.008099 0.016860 0.000000 0.000000 0.000000
# 4 0.000000 0.000000 0.000000 0.021469 0.000000 0.000000
# 5 0.000000 0.000000 0.000000 0.000000 0.004049 0.000000
# 6 0.000000 0.000000 0.000000 0.000000 0.000000 0.084814
#
#
# Mechanical properties :
#
#
# Convention : Reuss Voigt Hill
#
# Bulk Modulus (GPa) = 43.12870 79.57051 61.34961
# Shear Modulus (GPa) = 28.04180 78.47858 53.26019
#
# Velocity S-wave (km/s) = 3.63853 6.08694 5.01447
# Velocity P-wave (km/s) = 6.16551 9.32564 7.90510
#
# Compressibility (1/GPa) = 0.02318642
#
# Stress axis : x y z
#
# Youngs Moduli (GPa) = 61.46045 116.48316 59.31264
#
# Poissons Ratio (x) = 0.45500 -0.16253
# Poissons Ratio (y) = 0.24007 0.48034
# Poissons Ratio (z) = -0.16841 0.94334
#
# Static dielectric constant tensor:
#      x y z
#    x 1.788950 0.000000 0.000000 
#    y 0.000000 1.838450 0.000000 
#    z 0.000000 0.000000 1.696670 
# 
# From -- ./inp_files/63559.got.cif
#   From: 2010.05.17/outbox.cif.g08.bks.cpg/sg65_32_cif.got.tgz:63559.got - 2010.06.03 17:01:31.
