data_PCOD9492222
_publ_section_title
;
Structure prediction by ZEFSAII (Michael W. Deem and Ramdas Pophale) SiO2 
 PCOD9492222
Probable space group: C M M M
;
_chemical_formula_sum "Si O2"
_cell_formula_units_Z 72
_cell_length_a 13.969569
_cell_length_b 28.947546
_cell_length_c 9.508453
_cell_angle_alpha 90.000000
_cell_angle_beta 90.000000
_cell_angle_gamma 90.000000
_cell_volume 3845.073306
_symmetry_space_group_name_H-M "C M M M"
_symmetry_group_IT_number 65
_symmetry_cell_setting 'orthorhombic'
loop_
_space_group_symop_operation_xyz
x,y,z
-x,-y,z
x,-y,-z
-x,y,-z
-x,-y,-z
x,y,-z
-x,y,z
x,-y,z
1/2+x,1/2+y,z
1/2-x,1/2-y,z
1/2+x,1/2-y,-z
1/2-x,1/2+y,-z
1/2-x,1/2-y,-z
1/2+x,1/2+y,-z
1/2-x,1/2+y,z
1/2+x,1/2-y,z
loop_
_atom_site_type_symbol
_atom_site_label
_atom_site_fract_x
_atom_site_fract_y
_atom_site_fract_z
Si Si1 0.884383 0.185452 0.661050
Si Si2 0.114394 0.000000 0.833378
Si Si3 0.610424 0.864690 0.333178
Si Si4 0.203035 0.914916 0.333227
Si Si5 0.883306 0.726731 0.160716
O O1 0.855246 0.196070 0.500000
O O2 0.846723 0.134520 0.695558
O O3 0.851764 0.226098 0.764155
O O4 0.000000 0.184226 0.664517
O O5 0.158839 0.955071 0.759398
O O6 0.000000 0.000000 0.812680
O O7 0.133474 0.000000 0.000000
O O8 0.616002 0.854468 0.500000
O O9 0.500000 0.875630 0.299366
O O10 0.684808 0.905601 0.305088
O O11 0.640294 0.818895 0.249246
O O12 0.190236 0.924830 0.500000
O O13 0.000000 0.728282 0.159964
O O14 0.851206 0.723385 0.000000
#
# Coordination Sequence:
#
# PCOD9492222 Si02
#       5
#    16   8  16  16  16
#     4   9  17  30  49  74 104 138 178 224 269 315
#     4  11  25  43  62  85 112 138 165 209 272 331
#     4   9  18  34  55  79 109 144 182 225 268 309
#     4  10  21  37  59  83 105 138 184 226 267 319
#     4   9  17  29  47  73 107 147 184 218 264 320
#
# _framework density 18.725259999999999
#
# number of rings (size 3 to 8) (size 9 to 14) (size 15 to 20)
#    0.000    2.556    0.000    1.667    0.000    7.111 
#    0.000    7.222    0.000    3.333    0.000    0.000 
#    0.000    0.000    0.000    0.000    0.000    0.000 
#
# Total GULP energy -201046.173237 kJ/mol
# GULP energy per Si atom -5584.615923 kJ/mol
# Density = 1.868264 g / cm^3
# Si number density = 18.725260 Si / 1000 Ang^3
#
#
#
# Elastic Constant Matrix: (Units=GPa)
#
#
# Indices 1 2 3 4 5 6 
#
# 1 91.9938 65.3831 59.1884 0.0000 0.0000 0.0000
# 2 65.3831 130.5248 101.2580 0.0000 0.0000 0.0000
# 3 59.1884 101.2580 107.0636 0.0000 0.0000 0.0000
# 4 0.0000 0.0000 0.0000 -20.8284 0.0000 0.0000
# 5 0.0000 0.0000 0.0000 0.0000 16.7732 0.0000
# 6 0.0000 0.0000 0.0000 0.0000 0.0000 32.7586
#
#
#
# Elastic Compliance Matrix: (Units=1/GPa)
#
#
# Indices 1 2 3 4 5 6 
#
# 1 0.017628 -0.004770 -0.005234 0.000000 0.000000 0.000000
# 2 -0.004770 0.030061 -0.025794 0.000000 0.000000 0.000000
# 3 -0.005234 -0.025794 0.036630 0.000000 0.000000 0.000000
# 4 0.000000 0.000000 0.000000 -0.048011 0.000000 0.000000
# 5 0.000000 0.000000 0.000000 0.000000 0.059619 0.000000
# 6 0.000000 0.000000 0.000000 0.000000 0.000000 0.030526
#
#
# Mechanical properties :
#
#
# Convention : Reuss Voigt Hill
#
# Bulk Modulus (GPa) = 78.60290 86.80458 82.70374
# Shear Modulus (GPa) = 24.71703 12.65753 18.68728
#
# Velocity S-wave (km/s) = 3.63710 2.60274 3.16250
# Velocity P-wave (km/s) = 7.72697 7.44916 7.58933
#
# Compressibility (1/GPa) = 0.01272218
#
# Stress axis : x y z
#
# Youngs Moduli (GPa) = 56.72795 33.26552 27.30037
#
# Poissons Ratio (x) = 0.15866 0.14290
# Poissons Ratio (y) = 0.27057 0.70419
# Poissons Ratio (z) = 0.29694 0.85806
#
# Static dielectric constant tensor:
#      x y z
#    x 1.705370 0.000000 0.000000 
#    y 0.000000 1.591710 0.000000 
#    z 0.000000 0.000000 1.631750 
# 
# From -- ./inp_files/7210.got.cif
#   From: 2010.05.17/outbox.cif.g08.bks.cpg/sg65_4_cif.got.tgz:7210.got - 2010.06.03 17:01:31.
