data_PCOD9492767
_publ_section_title
;
Structure prediction by ZEFSAII (Michael W. Deem and Ramdas Pophale) SiO2 
 PCOD9492767
Probable space group: C M M M
;
_chemical_formula_sum "Si O2"
_cell_formula_units_Z 50
_cell_length_a 15.540005
_cell_length_b 9.186236
_cell_length_c 19.285163
_cell_angle_alpha 90.000000
_cell_angle_beta 90.000000
_cell_angle_gamma 90.000000
_cell_volume 2753.037117
_symmetry_space_group_name_H-M "C M M M"
_symmetry_group_IT_number 65
_symmetry_cell_setting 'orthorhombic'
loop_
_space_group_symop_operation_xyz
x,y,z
-x,-y,z
x,-y,-z
-x,y,-z
-x,-y,-z
x,y,-z
-x,y,z
x,-y,z
1/2+x,1/2+y,z
1/2-x,1/2-y,z
1/2+x,1/2-y,-z
1/2-x,1/2+y,-z
1/2-x,1/2-y,-z
1/2+x,1/2+y,-z
1/2-x,1/2+y,z
1/2+x,1/2-y,z
loop_
_atom_site_type_symbol
_atom_site_label
_atom_site_fract_x
_atom_site_fract_y
_atom_site_fract_z
Si Si1 0.500000 0.162176 0.143441
Si Si2 0.000000 0.500000 0.000000
Si Si3 0.338307 0.674922 0.207364
Si Si4 0.397802 0.327975 0.638308
Si Si5 0.894817 0.667569 0.500000
O O1 0.582987 0.252368 0.166769
O O2 0.500000 0.000000 0.178006
O O3 0.500000 0.124512 0.062140
O O4 0.337012 0.500000 0.198748
O O5 0.250000 0.750000 0.184852
O O6 0.352888 0.706511 0.289155
O O7 0.500000 0.297302 0.647480
O O8 0.389442 0.500000 0.625338
O O9 0.365872 0.243403 0.570845
O O10 0.870147 0.500000 0.500000
O O11 0.000000 0.677399 0.500000
#
# Coordination Sequence:
#
# PCOD9492767 Si02
#       5
#     8   2  16  16   8
#     4  10  21  43  69  92 128 157 198 248 299 366
#     4   8  24  44  74  96 128 156 206 228 312 380
#     4  11  22  38  63  96 127 164 211 255 307 366
#     4   9  17  32  52  77 112 160 207 256 309 363
#     4   9  17  27  44  75 114 150 208 260 312 358
#
# _framework density 18.161762
#
# number of rings (size 3 to 8) (size 9 to 14) (size 15 to 20)
#    0.480    1.760    1.600    1.920    0.000    4.480 
#    0.000    3.200    0.000    0.000    0.000    0.000 
#    0.000    0.000    0.000    0.000    0.000    0.000 
#
# Total GULP energy -139207.930320 kJ/mol
# GULP energy per Si atom -5568.317213 kJ/mol
# Density = 1.812042 g / cm^3
# Si number density = 18.161762 Si / 1000 Ang^3
#
#
#
# Elastic Constant Matrix: (Units=GPa)
#
#
# Indices 1 2 3 4 5 6 
#
# 1 118.5634 67.8823 57.6443 0.0000 0.0000 0.0000
# 2 67.8823 88.5992 72.2455 0.0000 0.0000 0.0000
# 3 57.6443 72.2455 123.6934 0.0000 0.0000 0.0000
# 4 0.0000 0.0000 0.0000 36.9721 0.0000 0.0000
# 5 0.0000 0.0000 0.0000 0.0000 -9.3938 0.0000
# 6 0.0000 0.0000 0.0000 0.0000 0.0000 21.1277
#
#
#
# Elastic Compliance Matrix: (Units=1/GPa)
#
#
# Indices 1 2 3 4 5 6 
#
# 1 0.015044 -0.011092 -0.000532 0.000000 0.000000 0.000000
# 2 -0.011092 0.029729 -0.012195 0.000000 0.000000 0.000000
# 3 -0.000532 -0.012195 0.015455 0.000000 0.000000 0.000000
# 4 0.000000 0.000000 0.000000 0.027047 0.000000 0.000000
# 5 0.000000 0.000000 0.000000 0.000000 -0.106453 0.000000
# 6 0.000000 0.000000 0.000000 0.000000 0.000000 0.047331
#
#
# Mechanical properties :
#
#
# Convention : Reuss Voigt Hill
#
# Bulk Modulus (GPa) = 79.42864 80.71113 80.06988
# Shear Modulus (GPa) = 62.50956 18.61345 40.56151
#
# Velocity S-wave (km/s) = 5.87307 3.20483 4.73096
# Velocity P-wave (km/s) = 9.47732 7.63094 8.60380
#
# Compressibility (1/GPa) = 0.01258992
#
# Stress axis : x y z
#
# Youngs Moduli (GPa) = 66.47285 33.63723 64.70406
#
# Poissons Ratio (x) = 0.37311 0.03443
# Poissons Ratio (y) = 0.73733 0.78904
# Poissons Ratio (z) = 0.03538 0.41019
#
# Static dielectric constant tensor:
#      x y z
#    x 1.650150 0.000000 0.000000 
#    y 0.000000 1.605140 0.000000 
#    z 0.000000 0.000000 1.596340 
# 
# From -- ./inp_files/62130.got.cif
#   From: 2010.05.17/outbox.cif.g08.bks.cpg/sg65_32_cif.got.tgz:62130.got - 2010.06.03 17:01:31.
