data_PCOD9492713
_publ_section_title
;
Structure prediction by ZEFSAII (Michael W. Deem and Ramdas Pophale) SiO2 
 PCOD9492713
Probable space group: C M M M
;
_chemical_formula_sum "Si O2"
_cell_formula_units_Z 56
_cell_length_a 17.489833
_cell_length_b 12.933465
_cell_length_c 11.692279
_cell_angle_alpha 90.000000
_cell_angle_beta 90.000000
_cell_angle_gamma 90.000000
_cell_volume 2644.841950
_symmetry_space_group_name_H-M "C M M M"
_symmetry_group_IT_number 65
_symmetry_cell_setting 'orthorhombic'
loop_
_space_group_symop_operation_xyz
x,y,z
-x,-y,z
x,-y,-z
-x,y,-z
-x,-y,-z
x,y,-z
-x,y,z
x,-y,z
1/2+x,1/2+y,z
1/2-x,1/2-y,z
1/2+x,1/2-y,-z
1/2-x,1/2+y,-z
1/2-x,1/2-y,-z
1/2+x,1/2+y,-z
1/2-x,1/2+y,z
1/2+x,1/2-y,z
loop_
_atom_site_type_symbol
_atom_site_label
_atom_site_fract_x
_atom_site_fract_y
_atom_site_fract_z
Si Si1 0.592323 0.620192 0.500000
Si Si2 0.693483 0.000000 0.371489
Si Si3 0.664347 0.273604 0.130427
Si Si4 0.088566 0.698085 0.335898
Si Si5 0.791918 0.000000 0.867393
O O1 0.614396 0.500000 0.500000
O O2 0.500000 0.618186 0.500000
O O3 0.615269 0.693739 0.605973
O O4 0.640641 0.102010 0.369423
O O5 0.730110 0.000000 0.500000
O O6 0.740895 0.000000 0.250198
O O7 0.750000 0.250000 0.176334
O O8 0.601313 0.216233 0.202575
O O9 0.658181 0.396718 0.135903
O O10 0.663385 0.238768 0.000000
O O11 0.000000 0.680319 0.364553
O O12 0.756247 0.000000 0.000000
#
# Coordination Sequence:
#
# PCOD9492713 Si02
#       5
#     8   8  16  16   8
#     4   9  20  39  58  81 119 165 201 239 304 379
#     4  12  23  40  64  97 133 166 211 263 316 377
#     4  10  21  40  63  86 120 164 210 258 310 373
#     4  11  23  39  63  92 124 165 206 254 319 379
#     4  10  22  43  66  89 125 172 214 258 325 381
#
# _framework density 21.173290000000001
#
# number of rings (size 3 to 8) (size 9 to 14) (size 15 to 20)
#    0.000    1.571    4.286    0.429    2.000    1.143 
#    2.571    2.143    0.000    5.143    0.000    0.000 
#    0.000    0.000    0.000    0.000    0.000    0.000 
#
# Total GULP energy -156076.914314 kJ/mol
# GULP energy per Si atom -5574.175511 kJ/mol
# Density = 2.112510 g / cm^3
# Si number density = 21.173290 Si / 1000 Ang^3
#
#
#
# Elastic Constant Matrix: (Units=GPa)
#
#
# Indices 1 2 3 4 5 6 
#
# 1 50.6203 18.0442 45.2045 0.0000 0.0000 0.0000
# 2 18.0442 134.3516 28.5979 0.0000 0.0000 0.0000
# 3 45.2045 28.5979 143.9469 0.0000 0.0000 0.0000
# 4 0.0000 0.0000 0.0000 29.0038 0.0000 0.0000
# 5 0.0000 0.0000 0.0000 0.0000 12.5122 0.0000
# 6 0.0000 0.0000 0.0000 0.0000 0.0000 16.6130
#
#
#
# Elastic Compliance Matrix: (Units=1/GPa)
#
#
# Indices 1 2 3 4 5 6 
#
# 1 0.027944 -0.001968 -0.008384 0.000000 0.000000 0.000000
# 2 -0.001968 0.007910 -0.000953 0.000000 0.000000 0.000000
# 3 -0.008384 -0.000953 0.009769 0.000000 0.000000 0.000000
# 4 0.000000 0.000000 0.000000 0.034478 0.000000 0.000000
# 5 0.000000 0.000000 0.000000 0.000000 0.079922 0.000000
# 6 0.000000 0.000000 0.000000 0.000000 0.000000 0.060194
#
#
# Mechanical properties :
#
#
# Convention : Reuss Voigt Hill
#
# Bulk Modulus (GPa) = 43.45651 56.95688 50.20669
# Shear Modulus (GPa) = 19.96001 27.43060 23.69530
#
# Velocity S-wave (km/s) = 3.07367 3.60325 3.34894
# Velocity P-wave (km/s) = 5.75894 6.65357 6.22235
#
# Compressibility (1/GPa) = 0.02301151
#
# Stress axis : x y z
#
# Youngs Moduli (GPa) = 35.78605 126.41479 102.36044
#
# Poissons Ratio (x) = 0.24883 0.85822
# Poissons Ratio (y) = 0.07044 0.09759
# Poissons Ratio (z) = 0.30004 0.12053
#
# Static dielectric constant tensor:
#      x y z
#    x 1.746500 0.000000 0.000000 
#    y 0.000000 1.758040 0.000000 
#    z 0.000000 0.000000 1.880300 
# 
# From -- ./inp_files/26054.got.cif
#   From: 2010.05.17/outbox.cif.g08.bks.cpg/sg65_14_cif.got.tgz:26054.got - 2010.06.03 17:01:31.
