data_PCOD9492247
_publ_section_title
;
Structure prediction by ZEFSAII (Michael W. Deem and Ramdas Pophale) SiO2 
 PCOD9492247
Probable space group: C M M M
;
_chemical_formula_sum "Si O2"
_cell_formula_units_Z 88
_cell_length_a 30.278858
_cell_length_b 14.086438
_cell_length_c 11.350336
_cell_angle_alpha 90.000000
_cell_angle_beta 90.000000
_cell_angle_gamma 90.000000
_cell_volume 4841.159566
_symmetry_space_group_name_H-M "C M M M"
_symmetry_group_IT_number 65
_symmetry_cell_setting 'orthorhombic'
loop_
_space_group_symop_operation_xyz
x,y,z
-x,-y,z
x,-y,-z
-x,y,-z
-x,-y,-z
x,y,-z
-x,y,z
x,-y,z
1/2+x,1/2+y,z
1/2-x,1/2-y,z
1/2+x,1/2-y,-z
1/2-x,1/2+y,-z
1/2-x,1/2-y,-z
1/2+x,1/2+y,-z
1/2-x,1/2+y,z
1/2+x,1/2-y,z
loop_
_atom_site_type_symbol
_atom_site_label
_atom_site_fract_x
_atom_site_fract_y
_atom_site_fract_z
Si Si1 0.801938 0.728610 0.364992
Si Si2 0.446291 0.891959 0.500000
Si Si3 0.566341 0.101745 0.135126
Si Si4 0.672765 0.890401 0.133840
Si Si5 0.549519 0.258027 0.696094
Si Si6 0.126914 0.108154 0.640034
O O1 0.813421 0.693762 0.500000
O O2 0.750000 0.750000 0.366515
O O3 0.811162 0.662977 0.251236
O O4 0.830991 0.823557 0.344820
O O5 0.500000 0.897182 0.500000
O O6 0.433299 0.825710 0.609125
O O7 0.429478 0.000000 0.500000
O O8 0.619448 0.108743 0.140669
O O9 0.547518 0.197925 0.185868
O O10 0.553262 0.000000 0.193152
O O11 0.553855 0.095623 0.000000
O O12 0.687603 0.000000 0.138672
O O13 0.684166 0.854152 0.000000
O O14 0.500000 0.287531 0.659682
O O15 0.584403 0.342111 0.697694
O O16 0.117691 0.106332 0.500000
O O17 0.134168 0.000000 0.679466
#
# Coordination Sequence:
#
# PCOD9492247 Si02
#       6
#    16   8  16  16  16  16
#     4  10  21  37  59  87 115 145 185 233 287 347
#     4   9  18  30  45  73 110 137 165 218 278 331
#     4   9  18  33  53  78 109 146 185 224 274 338
#     4   9  18  34  57  84 115 149 183 223 277 344
#     4  11  20  32  52  78 107 143 187 229 275 330
#     4  10  21  38  57  77 108 148 188 233 282 332
#
# _framework density 18.177464000000001
#
# number of rings (size 3 to 8) (size 9 to 14) (size 15 to 20)
#    0.000    2.273    2.727    1.636    0.000    3.273 
#    0.000    3.636    0.000    2.182    0.000    1.273 
#    0.000    0.000    0.000    0.000    0.000    0.000 
#
# Total GULP energy -244993.465809 kJ/mol
# GULP energy per Si atom -5568.033314 kJ/mol
# Density = 1.813609 g / cm^3
# Si number density = 18.177464 Si / 1000 Ang^3
#
#
#
# Elastic Constant Matrix: (Units=GPa)
#
#
# Indices 1 2 3 4 5 6 
#
# 1 83.9672 40.8178 30.1766 0.0000 0.0000 0.0000
# 2 40.8178 103.0679 56.5911 0.0000 0.0000 0.0000
# 3 30.1766 56.5911 107.3676 0.0000 0.0000 0.0000
# 4 0.0000 0.0000 0.0000 24.8657 0.0000 0.0000
# 5 0.0000 0.0000 0.0000 0.0000 8.0365 0.0000
# 6 0.0000 0.0000 0.0000 0.0000 0.0000 -19.5851
#
#
#
# Elastic Compliance Matrix: (Units=1/GPa)
#
#
# Indices 1 2 3 4 5 6 
#
# 1 0.014923 -0.005076 -0.001519 0.000000 0.000000 0.000000
# 2 -0.005076 0.015380 -0.006680 0.000000 0.000000 0.000000
# 3 -0.001519 -0.006680 0.013262 0.000000 0.000000 0.000000
# 4 0.000000 0.000000 0.000000 0.040216 0.000000 0.000000
# 5 0.000000 0.000000 0.000000 0.000000 0.124433 0.000000
# 6 0.000000 0.000000 0.000000 0.000000 0.000000 -0.051059
#
#
# Mechanical properties :
#
#
# Convention : Reuss Voigt Hill
#
# Bulk Modulus (GPa) = 58.77092 61.06377 59.91735
# Shear Modulus (GPa) = 26.40262 13.78455 20.09359
#
# Velocity S-wave (km/s) = 3.81529 2.75677 3.32838
# Velocity P-wave (km/s) = 7.19795 6.61809 6.91410
#
# Compressibility (1/GPa) = 0.01701522
#
# Stress axis : x y z
#
# Youngs Moduli (GPa) = 67.01192 65.01811 75.40603
#
# Poissons Ratio (x) = 0.33003 0.11452
# Poissons Ratio (y) = 0.34015 0.50371
# Poissons Ratio (z) = 0.10177 0.43432
#
# Static dielectric constant tensor:
#      x y z
#    x 1.650730 0.000000 0.000000 
#    y 0.000000 1.616750 0.000000 
#    z 0.000000 0.000000 1.740910 
# 
# From -- ./inp_files/22999.got.cif
#   From: 2010.05.17/outbox.cif.g08.bks.cpg/sg65_12_cif.got.tgz:22999.got - 2010.06.03 17:01:31.
