data_PCOD9492906
_publ_section_title
;
Structure prediction by ZEFSAII (Michael W. Deem and Ramdas Pophale) SiO2 
 PCOD9492906
Probable space group: C M M M
;
_chemical_formula_sum "Si O2"
_cell_formula_units_Z 58
_cell_length_a 9.279268
_cell_length_b 15.993507
_cell_length_c 19.582185
_cell_angle_alpha 90.000000
_cell_angle_beta 90.000000
_cell_angle_gamma 90.000000
_cell_volume 2906.153650
_symmetry_space_group_name_H-M "C M M M"
_symmetry_group_IT_number 65
_symmetry_cell_setting 'orthorhombic'
loop_
_space_group_symop_operation_xyz
x,y,z
-x,-y,z
x,-y,-z
-x,y,-z
-x,-y,-z
x,y,-z
-x,y,z
x,-y,z
1/2+x,1/2+y,z
1/2-x,1/2-y,z
1/2+x,1/2-y,-z
1/2-x,1/2+y,-z
1/2-x,1/2-y,-z
1/2+x,1/2+y,-z
1/2-x,1/2+y,z
1/2+x,1/2-y,z
loop_
_atom_site_type_symbol
_atom_site_label
_atom_site_fract_x
_atom_site_fract_y
_atom_site_fract_z
Si Si1 0.000000 0.500000 0.500000
Si Si2 0.823706 0.662829 0.861343
Si Si3 0.835740 0.173762 0.421474
Si Si4 0.334495 0.000000 0.219801
Si Si5 0.327586 0.398723 0.000000
Si Si6 0.734787 0.000000 0.623292
O O1 0.122736 0.500000 0.561007
O O2 0.750000 0.750000 0.840203
O O3 0.777448 0.586524 0.811479
O O4 0.000000 0.670175 0.863971
O O5 0.755114 0.637852 0.934340
O O6 0.782122 0.163121 0.500000
O O7 0.750000 0.250000 0.388770
O O8 0.822131 0.085424 0.385596
O O9 0.000000 0.200062 0.424759
O O10 0.500000 0.000000 0.197197
O O11 0.328205 0.000000 0.301105
O O12 0.316122 0.500000 0.000000
O O13 0.500000 0.377961 0.000000
#
# Coordination Sequence:
#
# PCOD9492906 Si02
#       6
#     2  16  16   8   8   8
#     4  12  24  36  74 100 124 168 222 284 332 412
#     4  11  23  43  67  96 132 177 221 271 322 386
#     4  10  22  38  61  89 121 155 200 257 320 389
#     4  10  24  42  63  90 131 172 219 267 332 398
#     4  11  22  39  68 104 136 174 222 275 319 375
#     4  12  23  41  65  95 128 165 215 271 341 391
#
# _framework density 19.957650999999998
#
# number of rings (size 3 to 8) (size 9 to 14) (size 15 to 20)
#    0.000    1.241    3.448    2.069    1.931    2.759 
#    0.000    8.276    0.000    0.000    0.000    0.000 
#    0.000    0.000    0.000    0.000    0.000    0.000 
#
# Total GULP energy -161521.188157 kJ/mol
# GULP energy per Si atom -5569.696143 kJ/mol
# Density = 1.991223 g / cm^3
# Si number density = 19.957651 Si / 1000 Ang^3
#
#
#
# Elastic Constant Matrix: (Units=GPa)
#
#
# Indices 1 2 3 4 5 6 
#
# 1 100.9812 57.1651 24.0011 0.0000 0.0000 0.0000
# 2 57.1651 183.5800 48.4580 0.0000 0.0000 0.0000
# 3 24.0011 48.4580 110.3911 0.0000 0.0000 0.0000
# 4 0.0000 0.0000 0.0000 -32.5766 0.0000 0.0000
# 5 0.0000 0.0000 0.0000 0.0000 17.4151 0.0000
# 6 0.0000 0.0000 0.0000 0.0000 0.0000 1.9095
#
#
#
# Elastic Compliance Matrix: (Units=1/GPa)
#
#
# Indices 1 2 3 4 5 6 
#
# 1 0.012141 -0.003488 -0.001109 0.000000 0.000000 0.000000
# 2 -0.003488 0.007163 -0.002386 0.000000 0.000000 0.000000
# 3 -0.001109 -0.002386 0.010347 0.000000 0.000000 0.000000
# 4 0.000000 0.000000 0.000000 -0.030697 0.000000 0.000000
# 5 0.000000 0.000000 0.000000 0.000000 0.057422 0.000000
# 6 0.000000 0.000000 0.000000 0.000000 0.000000 0.523710
#
#
# Mechanical properties :
#
#
# Convention : Reuss Voigt Hill
#
# Bulk Modulus (GPa) = 63.75100 72.68898 68.21999
# Shear Modulus (GPa) = 8.34336 15.03813 11.69074
#
# Velocity S-wave (km/s) = 2.04685 2.74798 2.42291
# Velocity P-wave (km/s) = 6.13177 6.82416 6.48721
#
# Compressibility (1/GPa) = 0.01568603
#
# Stress axis : x y z
#
# Youngs Moduli (GPa) = 82.36685 139.60354 96.64525
#
# Poissons Ratio (x) = 0.48693 0.10714
# Poissons Ratio (y) = 0.28729 0.23060
# Poissons Ratio (z) = 0.09131 0.33310
#
# Static dielectric constant tensor:
#      x y z
#    x 1.697510 0.000000 0.000000 
#    y 0.000000 1.750540 0.000000 
#    z 0.000000 0.000000 1.683730 
# 
# From -- ./inp_files/48876.got.cif
#   From: 2010.05.17/outbox.cif.g08.bks.cpg/sg65_25_cif.got.tgz:48876.got - 2010.06.03 17:01:31.
