data_PCOD9492073
_publ_section_title
;
Structure prediction by ZEFSAII (Michael W. Deem and Ramdas Pophale) SiO2 
 PCOD9492073
Probable space group: C M M M
;
_chemical_formula_sum "Si O2"
_cell_formula_units_Z 72
_cell_length_a 8.803827
_cell_length_b 27.418826
_cell_length_c 16.226527
_cell_angle_alpha 90.000000
_cell_angle_beta 90.000000
_cell_angle_gamma 90.000000
_cell_volume 3916.931099
_symmetry_space_group_name_H-M "C M M M"
_symmetry_group_IT_number 65
_symmetry_cell_setting 'orthorhombic'
loop_
_space_group_symop_operation_xyz
x,y,z
-x,-y,z
x,-y,-z
-x,y,-z
-x,-y,-z
x,y,-z
-x,y,z
x,-y,z
1/2+x,1/2+y,z
1/2-x,1/2-y,z
1/2+x,1/2-y,-z
1/2-x,1/2+y,-z
1/2-x,1/2-y,-z
1/2+x,1/2+y,-z
1/2-x,1/2+y,z
1/2+x,1/2-y,z
loop_
_atom_site_type_symbol
_atom_site_label
_atom_site_fract_x
_atom_site_fract_y
_atom_site_fract_z
Si Si1 0.681201 0.695929 0.000000
Si Si2 0.316860 0.905619 0.593090
Si Si3 0.818976 0.944612 0.758007
Si Si4 0.817954 0.650432 0.164118
Si Si5 0.318448 0.801563 0.663315
O O1 0.750000 0.750000 0.000000
O O2 0.739862 0.668846 0.081574
O O3 0.500000 0.698362 0.000000
O O4 0.279128 0.919990 0.500000
O O5 0.500000 0.909742 0.603945
O O6 0.235293 0.935892 0.664156
O O7 0.276724 0.848663 0.608774
O O8 0.734685 0.903826 0.811692
O O9 0.000000 0.937286 0.763316
O O10 0.783568 0.000000 0.782715
O O11 0.774501 0.684127 0.242796
O O12 0.000000 0.652153 0.155945
O O13 0.500000 0.797560 0.660850
O O14 0.250000 0.750000 0.638484
#
# Coordination Sequence:
#
# PCOD9492073 Si02
#       5
#     8  16  16  16  16
#     4  12  24  38  59  88 121 152 182 219 265 315
#     4   9  19  35  52  73 104 141 183 228 271 323
#     4  10  21  37  57  81 109 140 176 224 281 334
#     4  10  21  38  58  81 110 144 184 226 268 320
#     4   9  18  31  49  73 102 138 177 218 264 315
#
# _framework density 18.381737000000001
#
# number of rings (size 3 to 8) (size 9 to 14) (size 15 to 20)
#    0.000    2.222    0.000    4.333    0.000    9.333 
#    0.000    2.778    0.000    3.333    0.000    0.000 
#    0.000    0.000    0.000    0.000    0.000    0.000 
#
# Total GULP energy -201011.759448 kJ/mol
# GULP energy per Si atom -5583.659985 kJ/mol
# Density = 1.833990 g / cm^3
# Si number density = 18.381737 Si / 1000 Ang^3
#
#
#
# Elastic Constant Matrix: (Units=GPa)
#
#
# Indices 1 2 3 4 5 6 
#
# 1 52.8573 25.6300 30.2167 0.0000 0.0000 0.0000
# 2 25.6300 78.8639 14.7632 0.0000 0.0000 0.0000
# 3 30.2167 14.7632 85.3892 0.0000 0.0000 0.0000
# 4 0.0000 0.0000 0.0000 3.6625 0.0000 0.0000
# 5 0.0000 0.0000 0.0000 0.0000 23.7081 0.0000
# 6 0.0000 0.0000 0.0000 0.0000 0.0000 32.9604
#
#
#
# Elastic Compliance Matrix: (Units=1/GPa)
#
#
# Indices 1 2 3 4 5 6 
#
# 1 0.027242 -0.007285 -0.008381 0.000000 0.000000 0.000000
# 2 -0.007285 0.015052 -0.000025 0.000000 0.000000 0.000000
# 3 -0.008381 -0.000025 0.014681 0.000000 0.000000 0.000000
# 4 0.000000 0.000000 0.000000 0.273039 0.000000 0.000000
# 5 0.000000 0.000000 0.000000 0.000000 0.042180 0.000000
# 6 0.000000 0.000000 0.000000 0.000000 0.000000 0.030339
#
#
# Mechanical properties :
#
#
# Convention : Reuss Voigt Hill
#
# Bulk Modulus (GPa) = 39.06949 39.81447 39.44198
# Shear Modulus (GPa) = 11.30085 21.83290 16.56688
#
# Velocity S-wave (km/s) = 2.48218 3.45011 3.00537
# Velocity P-wave (km/s) = 5.43283 6.13008 5.79195
#
# Compressibility (1/GPa) = 0.02559542
#
# Stress axis : x y z
#
# Youngs Moduli (GPa) = 36.70801 66.43598 68.11522
#
# Poissons Ratio (x) = 0.48395 0.57085
# Poissons Ratio (y) = 0.26740 0.00168
# Poissons Ratio (z) = 0.30764 0.00164
#
# Static dielectric constant tensor:
#      x y z
#    x 1.615360 0.000000 0.000000 
#    y 0.000000 1.623770 0.000000 
#    z 0.000000 0.000000 1.619830 
# 
# From -- ./inp_files/36516.got.cif
#   From: 2010.05.17/outbox.cif.g08.bks.cpg/sg65_19_cif.got.tgz:36516.got - 2010.06.03 17:01:31.
