data_PCOD9492735
_publ_section_title
;
Structure prediction by ZEFSAII (Michael W. Deem and Ramdas Pophale) SiO2 
 PCOD9492735
Probable space group: C M M M
;
_chemical_formula_sum "Si O2"
_cell_formula_units_Z 58
_cell_length_a 11.119108
_cell_length_b 27.806969
_cell_length_c 10.196931
_cell_angle_alpha 90.000000
_cell_angle_beta 90.000000
_cell_angle_gamma 90.000000
_cell_volume 3152.775753
_symmetry_space_group_name_H-M "C M M M"
_symmetry_group_IT_number 65
_symmetry_cell_setting 'orthorhombic'
loop_
_space_group_symop_operation_xyz
x,y,z
-x,-y,z
x,-y,-z
-x,y,-z
-x,-y,-z
x,y,-z
-x,y,z
x,-y,z
1/2+x,1/2+y,z
1/2-x,1/2-y,z
1/2+x,1/2-y,-z
1/2-x,1/2+y,-z
1/2-x,1/2-y,-z
1/2+x,1/2+y,-z
1/2-x,1/2+y,z
1/2+x,1/2-y,z
loop_
_atom_site_type_symbol
_atom_site_label
_atom_site_fract_x
_atom_site_fract_y
_atom_site_fract_z
Si Si1 0.361190 0.283332 0.657528
Si Si2 0.367249 0.899820 0.000000
Si Si3 0.270886 0.610656 0.731947
Si Si4 0.857446 0.444545 0.500000
Si Si5 0.500000 0.000000 0.000000
Si Si6 0.000000 0.056812 0.652988
O O1 0.365796 0.277470 0.500000
O O2 0.500000 0.274392 0.704643
O O3 0.250000 0.250000 0.706015
O O4 0.320839 0.337653 0.688257
O O5 0.294905 0.886705 0.870136
O O6 0.500000 0.876206 0.000000
O O7 0.397389 0.956888 0.000000
O O8 0.183867 0.585848 0.625374
O O9 0.384834 0.575820 0.728540
O O10 0.808407 0.500000 0.500000
O O11 0.000000 0.448366 0.500000
O O12 0.000000 0.075045 0.500000
O O13 0.000000 0.000000 0.646213
#
# Coordination Sequence:
#
# PCOD9492735 Si02
#       6
#    16   8  16   8   2   8
#     4  10  21  40  65  96 130 168 213 273 333 395
#     4  10  26  41  63  87 128 173 217 260 319 378
#     4  12  22  42  62  90 129 167 213 268 321 387
#     4  11  24  35  60  93 126 166 216 265 325 390
#     4   8  24  48  60  80 140 184 212 270 314 392
#     4  11  22  35  61  94 127 164 204 257 318 382
#
# _framework density 18.396488000000002
#
# number of rings (size 3 to 8) (size 9 to 14) (size 15 to 20)
#    0.414    0.828    4.138    1.655    3.862    2.759 
#    0.000    1.379    0.000    0.000    0.000    0.000 
#    0.000    0.000    0.000    0.000    0.000    0.000 
#
# Total GULP energy -161444.937175 kJ/mol
# GULP energy per Si atom -5567.066799 kJ/mol
# Density = 1.835462 g / cm^3
# Si number density = 18.396488 Si / 1000 Ang^3
#
#
#
# Elastic Constant Matrix: (Units=GPa)
#
#
# Indices 1 2 3 4 5 6 
#
# 1 166.0821 50.3077 54.0264 0.0000 0.0000 0.0000
# 2 50.3077 91.4161 1.4078 0.0000 0.0000 0.0000
# 3 54.0264 1.4078 92.5763 0.0000 0.0000 0.0000
# 4 0.0000 0.0000 0.0000 2.3543 0.0000 0.0000
# 5 0.0000 0.0000 0.0000 0.0000 53.7669 0.0000
# 6 0.0000 0.0000 0.0000 0.0000 0.0000 24.1313
#
#
#
# Elastic Compliance Matrix: (Units=1/GPa)
#
#
# Indices 1 2 3 4 5 6 
#
# 1 0.009280 -0.005025 -0.005339 0.000000 0.000000 0.000000
# 2 -0.005025 0.013662 0.002725 0.000000 0.000000 0.000000
# 3 -0.005339 0.002725 0.013876 0.000000 0.000000 0.000000
# 4 0.000000 0.000000 0.000000 0.424754 0.000000 0.000000
# 5 0.000000 0.000000 0.000000 0.000000 0.018599 0.000000
# 6 0.000000 0.000000 0.000000 0.000000 0.000000 0.041440
#
#
# Mechanical properties :
#
#
# Convention : Reuss Voigt Hill
#
# Bulk Modulus (GPa) = 46.42563 62.39538 54.41051
# Shear Modulus (GPa) = 9.19000 32.33932 20.76466
#
# Velocity S-wave (km/s) = 2.23749 4.19729 3.36330
# Velocity P-wave (km/s) = 5.65385 7.58158 6.68754
#
# Compressibility (1/GPa) = 0.02153983
#
# Stress axis : x y z
#
# Youngs Moduli (GPa) = 107.75832 73.19458 72.06468
#
# Poissons Ratio (x) = 0.36778 0.38478
# Poissons Ratio (y) = 0.54146 -0.19635
# Poissons Ratio (z) = 0.57535 -0.19943
#
# Static dielectric constant tensor:
#      x y z
#    x 1.503400 0.000000 0.000000 
#    y 0.000000 1.619700 0.000000 
#    z 0.000000 0.000000 1.644830 
# 
# From -- ./inp_files/4567.got.cif
#   From: 2010.05.17/outbox.cif.g08.bks.cpg/sg65_3_cif.got.tgz:4567.got - 2010.06.03 17:01:31.
