data_PCOD9492418
_publ_section_title
;
Structure prediction by ZEFSAII (Michael W. Deem and Ramdas Pophale) SiO2 
 PCOD9492418
Probable space group: C M M M
;
_chemical_formula_sum "Si O2"
_cell_formula_units_Z 104
_cell_length_a 8.859302
_cell_length_b 21.074079
_cell_length_c 29.778675
_cell_angle_alpha 90.000000
_cell_angle_beta 90.000000
_cell_angle_gamma 90.000000
_cell_volume 5559.727169
_symmetry_space_group_name_H-M "C M M M"
_symmetry_group_IT_number 65
_symmetry_cell_setting 'orthorhombic'
loop_
_space_group_symop_operation_xyz
x,y,z
-x,-y,z
x,-y,-z
-x,y,-z
-x,-y,-z
x,y,-z
-x,y,z
x,-y,z
1/2+x,1/2+y,z
1/2-x,1/2-y,z
1/2+x,1/2-y,-z
1/2-x,1/2+y,-z
1/2-x,1/2-y,-z
1/2+x,1/2+y,-z
1/2-x,1/2+y,z
1/2+x,1/2-y,z
loop_
_atom_site_type_symbol
_atom_site_label
_atom_site_fract_x
_atom_site_fract_y
_atom_site_fract_z
Si Si1 0.678341 0.571548 0.689061
Si Si2 0.681114 0.320815 0.950820
Si Si3 0.679010 0.427728 0.796732
Si Si4 0.819707 0.321003 0.141764
Si Si5 0.680133 0.366384 0.447858
Si Si6 0.171789 0.500000 0.554328
Si Si7 0.177770 0.312822 0.362369
O O1 0.500000 0.579549 0.678788
O O2 0.722306 0.500000 0.675558
O O3 0.695679 0.576442 0.742850
O O4 0.771682 0.625377 0.664711
O O5 0.500000 0.317601 0.945396
O O6 0.750000 0.250000 0.952820
O O7 0.756426 0.347373 0.905923
O O8 0.712378 0.350491 0.000000
O O9 0.500000 0.421126 0.806635
O O10 0.724444 0.500000 0.809834
O O11 0.767731 0.371477 0.821005
O O12 0.750000 0.250000 0.148683
O O13 0.000000 0.315064 0.140147
O O14 0.721600 0.354791 0.500000
O O15 0.500000 0.363301 0.444198
O O16 0.737920 0.436546 0.434611
O O17 0.757515 0.320610 0.412529
O O18 0.161913 0.500000 0.500000
O O19 0.000000 0.500000 0.571938
O O20 0.250000 0.250000 0.341408
O O21 0.000000 0.307005 0.363749
#
# Coordination Sequence:
#
# PCOD9492418 Si02
#       7
#    16  16  16  16  16   8  16
#     4   9  20  41  67  90 113 145 185 229 280 339
#     4   9  16  27  45  70 103 143 187 235 284 334
#     4   9  19  38  62  85 111 145 184 228 281 341
#     4  11  21  32  51  80 114 150 189 235 283 334
#     4  10  21  38  60  85 115 152 191 231 277 329
#     4   9  17  31  53  83 115 145 183 229 271 313
#     4  12  26  42  61  86 119 154 190 232 281 336
#
# _framework density 18.705953999999998
#
# number of rings (size 3 to 8) (size 9 to 14) (size 15 to 20)
#    0.000    2.077    0.000    5.769    1.077    4.923 
#    0.000    1.538    0.000    0.462    0.000    3.231 
#    0.000    0.000    0.000    0.000    0.000    0.000 
#
# Total GULP energy -290239.336123 kJ/mol
# GULP energy per Si atom -5581.525695 kJ/mol
# Density = 1.866338 g / cm^3
# Si number density = 18.705954 Si / 1000 Ang^3
#
#
#
# Elastic Constant Matrix: (Units=GPa)
#
#
# Indices 1 2 3 4 5 6 
#
# 1 118.2494 56.7779 42.6831 0.0000 0.0000 0.0000
# 2 56.7779 100.8478 40.3306 0.0000 0.0000 0.0000
# 3 42.6831 40.3306 54.9013 0.0000 0.0000 0.0000
# 4 0.0000 0.0000 0.0000 15.6033 0.0000 0.0000
# 5 0.0000 0.0000 0.0000 0.0000 28.9381 0.0000
# 6 0.0000 0.0000 0.0000 0.0000 0.0000 28.4066
#
#
#
# Elastic Compliance Matrix: (Units=1/GPa)
#
#
# Indices 1 2 3 4 5 6 
#
# 1 0.013160 -0.004697 -0.006780 0.000000 0.000000 0.000000
# 2 -0.004697 0.015718 -0.007894 0.000000 0.000000 0.000000
# 3 -0.006780 -0.007894 0.029285 0.000000 0.000000 0.000000
# 4 0.000000 0.000000 0.000000 0.064089 0.000000 0.000000
# 5 0.000000 0.000000 0.000000 0.000000 0.034557 0.000000
# 6 0.000000 0.000000 0.000000 0.000000 0.000000 0.035203
#
#
# Mechanical properties :
#
#
# Convention : Reuss Voigt Hill
#
# Bulk Modulus (GPa) = 51.49736 61.50907 56.50322
# Shear Modulus (GPa) = 21.07684 23.53671 22.30678
#
# Velocity S-wave (km/s) = 3.36034 3.55103 3.45700
# Velocity P-wave (km/s) = 6.53036 7.05454 6.79750
#
# Compressibility (1/GPa) = 0.01941847
#
# Stress axis : x y z
#
# Youngs Moduli (GPa) = 75.99051 63.62294 34.14735
#
# Poissons Ratio (x) = 0.29886 0.23153
# Poissons Ratio (y) = 0.35696 0.26957
# Poissons Ratio (z) = 0.51523 0.50225
#
# Static dielectric constant tensor:
#      x y z
#    x 1.623260 0.000000 0.000000 
#    y 0.000000 1.629810 0.000000 
#    z 0.000000 0.000000 1.685090 
# 
# From -- ./inp_files/76898.got.cif
#   From: 2010.05.17/outbox.cif.g08.bks.cpg/sg65_39_cif.got.tgz:76898.got - 2010.06.03 17:01:31.
