data_PCOD9492680
_publ_section_title
;
Structure prediction by ZEFSAII (Michael W. Deem and Ramdas Pophale) SiO2 
 PCOD9492680
Probable space group: C M M M
;
_chemical_formula_sum "Si O2"
_cell_formula_units_Z 64
_cell_length_a 15.000272
_cell_length_b 8.635222
_cell_length_c 25.181023
_cell_angle_alpha 90.000000
_cell_angle_beta 90.000000
_cell_angle_gamma 90.000000
_cell_volume 3261.715002
_symmetry_space_group_name_H-M "C M M M"
_symmetry_group_IT_number 65
_symmetry_cell_setting 'orthorhombic'
loop_
_space_group_symop_operation_xyz
x,y,z
-x,-y,z
x,-y,-z
-x,y,-z
-x,-y,-z
x,y,-z
-x,y,z
x,-y,z
1/2+x,1/2+y,z
1/2-x,1/2-y,z
1/2+x,1/2-y,-z
1/2-x,1/2+y,-z
1/2-x,1/2-y,-z
1/2+x,1/2+y,-z
1/2-x,1/2+y,z
1/2+x,1/2-y,z
loop_
_atom_site_type_symbol
_atom_site_label
_atom_site_fract_x
_atom_site_fract_y
_atom_site_fract_z
Si Si1 0.500000 0.183764 0.363078
Si Si2 0.148707 0.813882 0.058000
Si Si3 0.849536 0.814573 0.438992
Si Si4 0.850670 0.315176 0.168804
Si Si5 0.500000 0.315474 0.244972
O O1 0.415058 0.236968 0.397281
O O2 0.500000 0.264326 0.305948
O O3 0.500000 0.000000 0.356078
O O4 0.250000 0.750000 0.056447
O O5 0.111255 0.741648 0.111781
O O6 0.149672 0.000000 0.063009
O O7 0.108833 0.775703 0.000000
O O8 0.877438 0.780948 0.500000
O O9 0.750000 0.750000 0.432502
O O10 0.850395 0.000000 0.432352
O O11 0.847615 0.500000 0.169431
O O12 0.750000 0.250000 0.173968
O O13 0.913755 0.252015 0.214893
O O14 0.500000 0.500000 0.240593
#
# Coordination Sequence:
#
# PCOD9492680 Si02
#       5
#     8  16  16  16   8
#     4  12  25  41  62  90 123 160 203 248 297 351
#     4   9  16  28  50  81 114 149 190 236 290 352
#     4  10  21  39  64  95 129 164 202 244 293 348
#     4  11  22  39  62  88 118 154 196 243 299 358
#     4  12  26  45  64  85 116 155 203 253 299 350
#
# _framework density 19.621580000000002
#
# number of rings (size 3 to 8) (size 9 to 14) (size 15 to 20)
#    0.000    1.500    0.000    7.875    0.000    5.500 
#    0.000    5.625    0.000    3.750    0.000    0.000 
#    0.000    0.000    0.000    0.000    0.000    0.000 
#
# Total GULP energy -178871.186831 kJ/mol
# GULP energy per Si atom -5589.724588 kJ/mol
# Density = 1.957692 g / cm^3
# Si number density = 19.621580 Si / 1000 Ang^3
#
#
#
# Elastic Constant Matrix: (Units=GPa)
#
#
# Indices 1 2 3 4 5 6 
#
# 1 95.4437 43.9731 71.3987 0.0000 0.0000 0.0000
# 2 43.9731 157.9380 71.3676 0.0000 0.0000 0.0000
# 3 71.3987 71.3676 161.6385 0.0000 0.0000 0.0000
# 4 0.0000 0.0000 0.0000 36.7847 0.0000 0.0000
# 5 0.0000 0.0000 0.0000 0.0000 166.8305 0.0000
# 6 0.0000 0.0000 0.0000 0.0000 0.0000 30.0916
#
#
#
# Elastic Compliance Matrix: (Units=1/GPa)
#
#
# Indices 1 2 3 4 5 6 
#
# 1 0.015954 -0.001571 -0.006354 0.000000 0.000000 0.000000
# 2 -0.001571 0.008064 -0.002867 0.000000 0.000000 0.000000
# 3 -0.006354 -0.002867 0.010259 0.000000 0.000000 0.000000
# 4 0.000000 0.000000 0.000000 0.027185 0.000000 0.000000
# 5 0.000000 0.000000 0.000000 0.000000 0.005994 0.000000
# 6 0.000000 0.000000 0.000000 0.000000 0.000000 0.033232
#
#
# Mechanical properties :
#
#
# Convention : Reuss Voigt Hill
#
# Bulk Modulus (GPa) = 78.77222 87.61099 83.19161
# Shear Modulus (GPa) = 39.52485 61.96007 50.74246
#
# Velocity S-wave (km/s) = 4.49303 5.62548 5.09084
# Velocity P-wave (km/s) = 8.19446 9.32427 8.77756
#
# Compressibility (1/GPa) = 0.01269483
#
# Stress axis : x y z
#
# Youngs Moduli (GPa) = 62.67982 124.00239 97.47648
#
# Poissons Ratio (x) = 0.19480 0.61933
# Poissons Ratio (y) = 0.09846 0.27944
# Poissons Ratio (z) = 0.39824 0.35548
#
# Static dielectric constant tensor:
#      x y z
#    x 1.688390 0.000000 0.000000 
#    y 0.000000 1.648280 0.000000 
#    z 0.000000 0.000000 1.689010 
# 
# From -- ./inp_files/69534.got.cif
#   From: 2010.05.17/outbox.cif.g08.bks.cpg/sg65_35_cif.got.tgz:69534.got - 2010.06.03 17:01:31.
