data_PCOD9492142
_publ_section_title
;
Structure prediction by ZEFSAII (Michael W. Deem and Ramdas Pophale) SiO2 
 PCOD9492142
Probable space group: C M M M
;
_chemical_formula_sum "Si O2"
_cell_formula_units_Z 64
_cell_length_a 11.713683
_cell_length_b 35.338000
_cell_length_c 8.308731
_cell_angle_alpha 90.000000
_cell_angle_beta 90.000000
_cell_angle_gamma 90.000000
_cell_volume 3439.300572
_symmetry_space_group_name_H-M "C M M M"
_symmetry_group_IT_number 65
_symmetry_cell_setting 'orthorhombic'
loop_
_space_group_symop_operation_xyz
x,y,z
-x,-y,z
x,-y,-z
-x,y,-z
-x,-y,-z
x,y,-z
-x,y,z
x,-y,z
1/2+x,1/2+y,z
1/2-x,1/2-y,z
1/2+x,1/2-y,-z
1/2-x,1/2+y,-z
1/2-x,1/2-y,-z
1/2+x,1/2+y,-z
1/2-x,1/2+y,z
1/2+x,1/2-y,z
loop_
_atom_site_type_symbol
_atom_site_label
_atom_site_fract_x
_atom_site_fract_y
_atom_site_fract_z
Si Si1 0.868961 0.268981 0.191084
Si Si2 0.000000 0.955868 0.693171
Si Si3 0.737927 0.425188 0.807761
Si Si4 0.630127 0.000000 0.803627
Si Si5 0.871228 0.353559 0.309851
O O1 0.750000 0.250000 0.254306
O O2 0.855130 0.313809 0.220529
O O3 0.000000 0.259212 0.252503
O O4 0.872143 0.261125 0.000000
O O5 0.889960 0.934611 0.758654
O O6 0.000000 0.955633 0.500000
O O7 0.000000 0.000000 0.746695
O O8 0.809389 0.461647 0.748823
O O9 0.784513 0.386291 0.737012
O O10 0.748416 0.423150 0.000000
O O11 0.500000 0.000000 0.752884
O O12 0.634631 0.000000 0.000000
O O13 0.864520 0.345988 0.500000
O O14 0.000000 0.367226 0.272046
#
# Coordination Sequence:
#
# PCOD9492142 Si02
#       5
#    16   8  16   8  16
#     4   9  18  35  59  85 113 147 188 235 285 340
#     4  11  23  39  57  77 111 151 187 231 287 343
#     4  11  21  36  58  81 109 145 191 236 278 331
#     4   9  18  31  51  80 108 135 176 231 280 323
#     4  10  21  37  57  83 116 151 186 228 283 342
#
# _framework density 18.608435
#
# number of rings (size 3 to 8) (size 9 to 14) (size 15 to 20)
#    0.000    2.000    1.250    2.625    0.000    3.500 
#    2.250    0.000    0.000    3.000    0.000    0.000 
#    0.000    0.000    0.000    0.000    0.000    0.000 
#
# Total GULP energy -178469.718634 kJ/mol
# GULP energy per Si atom -5577.178707 kJ/mol
# Density = 1.856608 g / cm^3
# Si number density = 18.608435 Si / 1000 Ang^3
#
#
#
# Elastic Constant Matrix: (Units=GPa)
#
#
# Indices 1 2 3 4 5 6 
#
# 1 162.9381 63.4052 -4.6175 0.0000 0.0000 0.0000
# 2 63.4052 71.6300 -5.3967 0.0000 0.0000 0.0000
# 3 -4.6175 -5.3967 8.4679 0.0000 0.0000 0.0000
# 4 0.0000 0.0000 0.0000 13.5753 0.0000 0.0000
# 5 0.0000 0.0000 0.0000 0.0000 6.8233 0.0000
# 6 0.0000 0.0000 0.0000 0.0000 0.0000 43.6208
#
#
#
# Elastic Compliance Matrix: (Units=1/GPa)
#
#
# Indices 1 2 3 4 5 6 
#
# 1 0.009362 -0.008301 -0.000185 0.000000 0.000000 0.000000
# 2 -0.008301 0.022025 0.009510 0.000000 0.000000 0.000000
# 3 -0.000185 0.009510 0.124053 0.000000 0.000000 0.000000
# 4 0.000000 0.000000 0.000000 0.073663 0.000000 0.000000
# 5 0.000000 0.000000 0.000000 0.000000 0.146557 0.000000
# 6 0.000000 0.000000 0.000000 0.000000 0.000000 0.022925
#
#
# Mechanical properties :
#
#
# Convention : Reuss Voigt Hill
#
# Bulk Modulus (GPa) = 6.34966 38.86867 22.60917
# Shear Modulus (GPa) = 11.13500 25.44687 18.29094
#
# Velocity S-wave (km/s) = 2.44884 3.70197 3.13859
# Velocity P-wave (km/s) = 3.37867 6.26145 5.03097
#
# Compressibility (1/GPa) = 0.15748866
#
# Stress axis : x y z
#
# Youngs Moduli (GPa) = 106.81005 45.40223 8.06104
#
# Poissons Ratio (x) = 0.37690 0.00149
# Poissons Ratio (y) = 0.88667 -0.07666
# Poissons Ratio (z) = 0.01980 -0.43180
#
# Static dielectric constant tensor:
#      x y z
#    x 1.644260 0.000000 0.000000 
#    y 0.000000 1.599760 0.000000 
#    z 0.000000 0.000000 1.644300 
# 
# From -- ./inp_files/4912.got.cif
#   From: 2010.05.17/outbox.cif.g08.bks.cpg/sg65_3_cif.got.tgz:4912.got - 2010.06.03 17:01:31.
