data_PCOD9492256
_publ_section_title
;
Structure prediction by ZEFSAII (Michael W. Deem and Ramdas Pophale) SiO2 
 PCOD9492256
Probable space group: C M M M
;
_chemical_formula_sum "Si O2"
_cell_formula_units_Z 80
_cell_length_a 18.279392
_cell_length_b 8.623401
_cell_length_c 26.405007
_cell_angle_alpha 90.000000
_cell_angle_beta 90.000000
_cell_angle_gamma 90.000000
_cell_volume 4162.235176
_symmetry_space_group_name_H-M "C M M M"
_symmetry_group_IT_number 65
_symmetry_cell_setting 'orthorhombic'
loop_
_space_group_symop_operation_xyz
x,y,z
-x,-y,z
x,-y,-z
-x,y,-z
-x,-y,-z
x,y,-z
-x,y,z
x,-y,z
1/2+x,1/2+y,z
1/2-x,1/2-y,z
1/2+x,1/2-y,-z
1/2-x,1/2+y,-z
1/2-x,1/2-y,-z
1/2+x,1/2+y,-z
1/2-x,1/2+y,z
1/2+x,1/2-y,z
loop_
_atom_site_type_symbol
_atom_site_label
_atom_site_fract_x
_atom_site_fract_y
_atom_site_fract_z
Si Si1 0.584127 0.188807 0.000000
Si Si2 0.914333 0.813846 0.200510
Si Si3 0.585561 0.312399 0.602758
Si Si4 0.667928 0.312807 0.500000
Si Si5 0.332160 0.815074 0.299004
Si Si6 0.832207 0.686606 0.102012
O O1 0.626510 0.237076 0.050656
O O2 0.500000 0.241759 0.000000
O O3 0.583078 0.000000 0.000000
O O4 0.874533 0.748925 0.250102
O O5 0.875569 0.747817 0.150667
O O6 0.000000 0.771258 0.200983
O O7 0.908740 0.000000 0.200531
O O8 0.500000 0.270572 0.602032
O O9 0.590113 0.500000 0.606554
O O10 0.624943 0.264680 0.550645
O O11 0.626050 0.239969 0.650676
O O12 0.670279 0.500000 0.500000
O O13 0.750000 0.250000 0.500000
O O14 0.250000 0.750000 0.299465
O O15 0.329827 0.000000 0.297014
O O16 0.830588 0.500000 0.103313
O O17 0.750000 0.750000 0.102408
#
# Coordination Sequence:
#
# PCOD9492256 Si02
#       6
#     8  16  16   8  16  16
#     4   9  19  36  59  87 118 155 198 243 292 346
#     4  11  24  42  63  88 119 154 194 242 296 352
#     4  10  21  39  62  88 120 157 197 242 293 349
#     4  10  21  37  59  87 119 158 199 240 290 346
#     4  12  25  41  62  88 119 155 197 243 293 350
#     4  11  22  38  61  88 121 158 198 243 291 347
#
# _framework density 19.220443
#
# number of rings (size 3 to 8) (size 9 to 14) (size 15 to 20)
#    0.000    1.300    0.000    6.000    0.000    8.800 
#    0.000    1.500    0.000    5.400    0.000    0.000 
#    0.000    0.000    0.000    0.000    0.000    0.000 
#
# Total GULP energy -223795.811246 kJ/mol
# GULP energy per Si atom -5594.895281 kJ/mol
# Density = 1.917670 g / cm^3
# Si number density = 19.220443 Si / 1000 Ang^3
#
#
#
# Elastic Constant Matrix: (Units=GPa)
#
#
# Indices 1 2 3 4 5 6 
#
# 1 239.1705 72.6940 147.5877 0.0000 0.0000 0.0000
# 2 72.6940 63.3747 64.9893 0.0000 0.0000 0.0000
# 3 147.5877 64.9893 241.4225 0.0000 0.0000 0.0000
# 4 0.0000 0.0000 0.0000 30.4101 0.0000 0.0000
# 5 0.0000 0.0000 0.0000 0.0000 55.2927 0.0000
# 6 0.0000 0.0000 0.0000 0.0000 0.0000 26.1545
#
#
#
# Elastic Compliance Matrix: (Units=1/GPa)
#
#
# Indices 1 2 3 4 5 6 
#
# 1 0.007983 -0.005736 -0.003336 0.000000 0.000000 0.000000
# 2 -0.005736 0.025917 -0.003470 0.000000 0.000000 0.000000
# 3 -0.003336 -0.003470 0.007116 0.000000 0.000000 0.000000
# 4 0.000000 0.000000 0.000000 0.032884 0.000000 0.000000
# 5 0.000000 0.000000 0.000000 0.000000 0.018086 0.000000
# 6 0.000000 0.000000 0.000000 0.000000 0.000000 0.038234
#
#
# Mechanical properties :
#
#
# Convention : Reuss Voigt Hill
#
# Bulk Modulus (GPa) = 62.76901 123.83441 93.30171
# Shear Modulus (GPa) = 31.13025 39.61789 35.37407
#
# Velocity S-wave (km/s) = 4.02884 4.54501 4.29469
# Velocity P-wave (km/s) = 7.37363 9.59746 8.55808
#
# Compressibility (1/GPa) = 0.01593143
#
# Stress axis : x y z
#
# Youngs Moduli (GPa) = 125.26170 38.58439 140.53137
#
# Poissons Ratio (x) = 0.22132 0.46886
# Poissons Ratio (y) = 0.71849 0.48767
# Poissons Ratio (z) = 0.41791 0.13390
#
# Static dielectric constant tensor:
#      x y z
#    x 1.629870 0.000000 0.000000 
#    y 0.000000 1.657230 0.000000 
#    z 0.000000 0.000000 1.631420 
# 
# From -- ./inp_files/75128.got.cif
#   From: 2010.05.17/outbox.cif.g08.bks.cpg/sg65_38_cif.got.tgz:75128.got - 2010.06.03 17:01:31.
