data_PCOD9492373
_publ_section_title
;
Structure prediction by ZEFSAII (Michael W. Deem and Ramdas Pophale) SiO2 
 PCOD9492373
Probable space group: C M M M
;
_chemical_formula_sum "Si O2"
_cell_formula_units_Z 72
_cell_length_a 8.677147
_cell_length_b 18.757756
_cell_length_c 23.847475
_cell_angle_alpha 90.000000
_cell_angle_beta 90.000000
_cell_angle_gamma 90.000000
_cell_volume 3881.505799
_symmetry_space_group_name_H-M "C M M M"
_symmetry_group_IT_number 65
_symmetry_cell_setting 'orthorhombic'
loop_
_space_group_symop_operation_xyz
x,y,z
-x,-y,z
x,-y,-z
-x,y,-z
-x,-y,-z
x,y,-z
-x,y,z
x,-y,z
1/2+x,1/2+y,z
1/2-x,1/2-y,z
1/2+x,1/2-y,-z
1/2-x,1/2+y,-z
1/2-x,1/2-y,-z
1/2+x,1/2+y,-z
1/2-x,1/2+y,z
1/2+x,1/2-y,z
loop_
_atom_site_type_symbol
_atom_site_label
_atom_site_fract_x
_atom_site_fract_y
_atom_site_fract_z
Si Si1 0.186235 0.329725 0.438059
Si Si2 0.683589 0.415948 0.208875
Si Si3 0.683884 0.915720 0.670980
Si Si4 0.183523 0.670182 0.894672
Si Si5 0.314736 0.416563 0.000000
O O1 0.231700 0.357729 0.500000
O O2 0.250000 0.250000 0.433399
O O3 0.237534 0.375108 0.384630
O O4 0.000000 0.327924 0.436856
O O5 0.500000 0.409609 0.201975
O O6 0.724770 0.500000 0.201840
O O7 0.732099 0.394426 0.271716
O O8 0.766987 0.368207 0.162828
O O9 0.500000 0.904021 0.678007
O O10 0.708040 0.000000 0.663153
O O11 0.250000 0.750000 0.897063
O O12 0.251150 0.623451 0.945451
O O13 0.000000 0.673088 0.899173
O O14 0.270184 0.500000 0.000000
O O15 0.500000 0.412857 0.000000
#
# Coordination Sequence:
#
# PCOD9492373 Si02
#       5
#    16  16  16  16   8
#     4   9  18  32  50  73 102 137 176 220 272 329
#     4  10  21  38  59  83 113 148 186 229 279 334
#     4   9  18  33  53  77 105 139 181 227 273 324
#     4  12  25  41  62  88 119 152 190 234 279 328
#     4  11  24  43  66  91 121 155 190 229 276 329
#
# _framework density 18.549503000000001
#
# number of rings (size 3 to 8) (size 9 to 14) (size 15 to 20)
#    0.000    1.889    0.000    4.000    0.000    7.111 
#    0.000    4.444    0.000    0.000    0.000    6.222 
#    0.000    0.000    0.000    0.000    0.000    0.000 
#
# Total GULP energy -201085.012648 kJ/mol
# GULP energy per Si atom -5585.694796 kJ/mol
# Density = 1.850728 g / cm^3
# Si number density = 18.549503 Si / 1000 Ang^3
#
#
#
# Elastic Constant Matrix: (Units=GPa)
#
#
# Indices 1 2 3 4 5 6 
#
# 1 68.8420 54.4048 58.6478 0.0000 0.0000 0.0000
# 2 54.4048 108.0710 93.8522 0.0000 0.0000 0.0000
# 3 58.6478 93.8522 169.9125 0.0000 0.0000 0.0000
# 4 0.0000 0.0000 0.0000 83.5971 0.0000 0.0000
# 5 0.0000 0.0000 0.0000 0.0000 22.6072 0.0000
# 6 0.0000 0.0000 0.0000 0.0000 0.0000 27.9331
#
#
#
# Elastic Compliance Matrix: (Units=1/GPa)
#
#
# Indices 1 2 3 4 5 6 
#
# 1 0.025010 -0.009790 -0.003225 0.000000 0.000000 0.000000
# 2 -0.009790 0.021616 -0.008560 0.000000 0.000000 0.000000
# 3 -0.003225 -0.008560 0.011727 0.000000 0.000000 0.000000
# 4 0.000000 0.000000 0.000000 0.011962 0.000000 0.000000
# 5 0.000000 0.000000 0.000000 0.000000 0.044234 0.000000
# 6 0.000000 0.000000 0.000000 0.000000 0.000000 0.035800
#
#
# Mechanical properties :
#
#
# Convention : Reuss Voigt Hill
#
# Bulk Modulus (GPa) = 65.78019 84.51500 75.14759
# Shear Modulus (GPa) = 25.18041 36.15555 30.66798
#
# Velocity S-wave (km/s) = 3.68838 4.41969 4.07050
# Velocity P-wave (km/s) = 7.32652 8.46792 7.91781
#
# Compressibility (1/GPa) = 0.01520215
#
# Stress axis : x y z
#
# Youngs Moduli (GPa) = 39.98340 46.26270 85.27284
#
# Poissons Ratio (x) = 0.45290 0.27503
# Poissons Ratio (y) = 0.39143 0.72998
# Poissons Ratio (z) = 0.12896 0.39603
#
# Static dielectric constant tensor:
#      x y z
#    x 1.626290 0.000000 0.000000 
#    y 0.000000 1.609150 0.000000 
#    z 0.000000 0.000000 1.633610 
# 
# From -- ./inp_files/66993.got.cif
#   From: 2010.05.17/outbox.cif.g08.bks.cpg/sg65_34_cif.got.tgz:66993.got - 2010.06.03 17:01:31.
