data_PCOD9492805
_publ_section_title
;
Structure prediction by ZEFSAII (Michael W. Deem and Ramdas Pophale) SiO2 
 PCOD9492805
Probable space group: C M M M
;
_chemical_formula_sum "Si O2"
_cell_formula_units_Z 96
_cell_length_a 11.189385
_cell_length_b 18.662516
_cell_length_c 21.452643
_cell_angle_alpha 90.000000
_cell_angle_beta 90.000000
_cell_angle_gamma 90.000000
_cell_volume 4479.785460
_symmetry_space_group_name_H-M "C M M M"
_symmetry_group_IT_number 65
_symmetry_cell_setting 'orthorhombic'
loop_
_space_group_symop_operation_xyz
x,y,z
-x,-y,z
x,-y,-z
-x,y,-z
-x,-y,-z
x,y,-z
-x,y,z
x,-y,z
1/2+x,1/2+y,z
1/2-x,1/2-y,z
1/2+x,1/2-y,-z
1/2-x,1/2+y,-z
1/2-x,1/2-y,-z
1/2+x,1/2+y,-z
1/2-x,1/2+y,z
1/2+x,1/2-y,z
loop_
_atom_site_type_symbol
_atom_site_label
_atom_site_fract_x
_atom_site_fract_y
_atom_site_fract_z
Si Si1 0.368599 0.333855 0.234745
Si Si2 0.869694 0.414090 0.200161
Si Si3 0.733653 0.915988 0.069404
Si Si4 0.871081 0.819398 0.624356
Si Si5 0.371236 0.714730 0.900960
Si Si6 0.129984 0.659535 0.426376
O O1 0.500000 0.371305 0.231065
O O2 0.249963 0.381553 0.229483
O O3 0.365119 0.298880 0.302695
O O4 0.368672 0.282465 0.174546
O O5 0.867668 0.500000 0.207645
O O6 0.855253 0.398271 0.126072
O O7 0.000000 0.387470 0.221897
O O8 0.850530 0.868238 0.081459
O O9 0.760745 0.000000 0.074118
O O10 0.686645 0.902189 0.000000
O O11 0.872877 0.745361 0.585942
O O12 0.752955 0.863371 0.606432
O O13 0.000000 0.855586 0.613886
O O14 0.500000 0.740412 0.922848
O O15 0.250000 0.750000 0.925126
O O16 0.138755 0.646458 0.500000
O O17 0.000000 0.631570 0.404271
#
# Coordination Sequence:
#
# PCOD9492805 Si02
#       6
#    16  16  16  16  16  16
#     4   9  19  33  48  70  99 133 175 212 247 300
#     4   9  18  33  53  77 102 126 157 205 263 315
#     4   9  19  37  60  82 103 132 174 223 271 320
#     4   9  16  26  41  61  87 123 165 204 237 280
#     4  10  22  37  53  78 111 143 175 216 268 324
#     4   9  17  27  40  62  93 128 163 201 245 289
#
# _framework density 21.429597999999999
#
# number of rings (size 3 to 8) (size 9 to 14) (size 15 to 20)
#    0.000    2.833    0.000    1.000    2.333    6.000 
#    0.000    5.833    0.000    0.000    0.000    0.000 
#    0.000    2.667    0.000   27.667    0.000   13.000 
#
# Total GULP energy -267364.623284 kJ/mol
# GULP energy per Si atom -5570.096318 kJ/mol
# Density = 2.138082 g / cm^3
# Si number density = 21.429598 Si / 1000 Ang^3
#
#
#
# Elastic Constant Matrix: (Units=GPa)
#
#
# Indices 1 2 3 4 5 6 
#
# 1 247.0002 33.5216 23.8379 0.0000 0.0000 0.0000
# 2 33.5216 21.6069 -2.2808 0.0000 0.0000 0.0000
# 3 23.8379 -2.2808 65.3533 0.0000 0.0000 0.0000
# 4 0.0000 0.0000 0.0000 10.4204 0.0000 0.0000
# 5 0.0000 0.0000 0.0000 0.0000 12.1616 0.0000
# 6 0.0000 0.0000 0.0000 0.0000 0.0000 18.4742
#
#
#
# Elastic Compliance Matrix: (Units=1/GPa)
#
#
# Indices 1 2 3 4 5 6 
#
# 1 0.005450 -0.008697 -0.002291 0.000000 0.000000 0.000000
# 2 -0.008697 0.060332 0.005278 0.000000 0.000000 0.000000
# 3 -0.002291 0.005278 0.016321 0.000000 0.000000 0.000000
# 4 0.000000 0.000000 0.000000 0.095966 0.000000 0.000000
# 5 0.000000 0.000000 0.000000 0.000000 0.082226 0.000000
# 6 0.000000 0.000000 0.000000 0.000000 0.000000 0.054129
#
#
# Mechanical properties :
#
#
# Convention : Reuss Voigt Hill
#
# Bulk Modulus (GPa) = 14.14788 49.34642 31.74715
# Shear Modulus (GPa) = 14.30994 26.80334 20.55664
#
# Velocity S-wave (km/s) = 2.58692 3.54045 3.10056
# Velocity P-wave (km/s) = 3.94198 6.30795 5.25973
#
# Compressibility (1/GPa) = 0.07068196
#
# Stress axis : x y z
#
# Youngs Moduli (GPa) = 183.48329 16.57494 61.26894
#
# Poissons Ratio (x) = 0.14416 0.14040
# Poissons Ratio (y) = 1.59582 -0.32338
# Poissons Ratio (z) = 0.42045 -0.08748
#
# Static dielectric constant tensor:
#      x y z
#    x 1.869230 0.000000 0.000000 
#    y 0.000000 1.782800 0.000000 
#    z 0.000000 0.000000 1.781880 
# 
# From -- ./inp_files/61614.got.cif
#   From: 2010.05.17/outbox.cif.g08.bks.cpg/sg65_31_cif.got.tgz:61614.got - 2010.06.03 17:01:31.
