data_PCOD9492834
_publ_section_title
;
Structure prediction by ZEFSAII (Michael W. Deem and Ramdas Pophale) SiO2 
 PCOD9492834
Probable space group: C M M M
;
_chemical_formula_sum "Si O2"
_cell_formula_units_Z 50
_cell_length_a 10.156181
_cell_length_b 14.221507
_cell_length_c 18.776001
_cell_angle_alpha 90.000000
_cell_angle_beta 90.000000
_cell_angle_gamma 90.000000
_cell_volume 2711.934220
_symmetry_space_group_name_H-M "C M M M"
_symmetry_group_IT_number 65
_symmetry_cell_setting 'orthorhombic'
loop_
_space_group_symop_operation_xyz
x,y,z
-x,-y,z
x,-y,-z
-x,y,-z
-x,-y,-z
x,y,-z
-x,y,z
x,-y,z
1/2+x,1/2+y,z
1/2-x,1/2-y,z
1/2+x,1/2-y,-z
1/2-x,1/2+y,-z
1/2-x,1/2-y,-z
1/2+x,1/2+y,-z
1/2-x,1/2+y,z
1/2+x,1/2-y,z
loop_
_atom_site_type_symbol
_atom_site_label
_atom_site_fract_x
_atom_site_fract_y
_atom_site_fract_z
Si Si1 0.500000 0.194272 0.421268
Si Si2 0.649199 0.885582 0.081093
Si Si3 0.000000 0.500000 0.500000
Si Si4 0.846455 0.112872 0.206240
Si Si5 0.750000 0.750000 0.327583
O O1 0.500000 0.241519 0.500000
O O2 0.372003 0.221952 0.376915
O O3 0.500000 0.083819 0.439240
O O4 0.500000 0.855515 0.100055
O O5 0.757642 0.858678 0.138694
O O6 0.647978 0.000000 0.080283
O O7 0.677446 0.855469 0.000000
O O8 0.792928 0.165457 0.275615
O O9 0.000000 0.135935 0.195301
O O10 0.836036 0.000000 0.214577
#
# Coordination Sequence:
#
# PCOD9492834 Si02
#       5
#     8  16   2  16   8
#     4  10  24  44  67  94 123 154 199 241 293 360
#     4   8  15  30  53  82 116 158 209 260 304 350
#     4   8  24  44  72 102 114 152 210 234 288 364
#     4  10  22  37  56  87 123 162 205 248 306 363
#     4  12  23  42  63  92 128 162 192 250 301 354
#
# _framework density 18.437024999999998
#
# number of rings (size 3 to 8) (size 9 to 14) (size 15 to 20)
#    0.480    1.920    1.600    1.440    4.480    0.640 
#    0.000    4.000    0.000    1.920    0.000    0.000 
#    0.000    0.000    0.000    0.000    0.000    0.000 
#
# Total GULP energy -139221.816624 kJ/mol
# GULP energy per Si atom -5568.872665 kJ/mol
# Density = 1.839506 g / cm^3
# Si number density = 18.437025 Si / 1000 Ang^3
#
#
#
# Elastic Constant Matrix: (Units=GPa)
#
#
# Indices 1 2 3 4 5 6 
#
# 1 198.4008 54.8622 137.7922 0.0000 0.0000 0.0000
# 2 54.8622 68.3950 50.3494 0.0000 0.0000 0.0000
# 3 137.7922 50.3494 180.7201 0.0000 0.0000 0.0000
# 4 0.0000 0.0000 0.0000 104.9748 0.0000 0.0000
# 5 0.0000 0.0000 0.0000 0.0000 222.6694 0.0000
# 6 0.0000 0.0000 0.0000 0.0000 0.0000 2.8448
#
#
#
# Elastic Compliance Matrix: (Units=1/GPa)
#
#
# Indices 1 2 3 4 5 6 
#
# 1 0.011319 -0.003429 -0.007675 0.000000 0.000000 0.000000
# 2 -0.003429 0.019432 -0.002799 0.000000 0.000000 0.000000
# 3 -0.007675 -0.002799 0.012165 0.000000 0.000000 0.000000
# 4 0.000000 0.000000 0.000000 0.009526 0.000000 0.000000
# 5 0.000000 0.000000 0.000000 0.000000 0.004491 0.000000
# 6 0.000000 0.000000 0.000000 0.000000 0.000000 0.351523
#
#
# Mechanical properties :
#
#
# Convention : Reuss Voigt Hill
#
# Bulk Modulus (GPa) = 66.18304 103.72483 84.95393
# Shear Modulus (GPa) = 11.33017 79.73193 45.53105
#
# Velocity S-wave (km/s) = 2.48167 6.58327 4.97484
# Velocity P-wave (km/s) = 6.64728 10.68490 8.89813
#
# Compressibility (1/GPa) = 0.01510961
#
# Stress axis : x y z
#
# Youngs Moduli (GPa) = 88.34837 51.46033 82.20340
#
# Poissons Ratio (x) = 0.17648 0.63089
# Poissons Ratio (y) = 0.30299 0.23010
# Poissons Ratio (z) = 0.67805 0.14404
#
# Static dielectric constant tensor:
#      x y z
#    x 1.618040 0.000000 0.000000 
#    y 0.000000 1.645540 0.000000 
#    z 0.000000 0.000000 1.614160 
# 
# From -- ./inp_files/48703.got.cif
#   From: 2010.05.17/outbox.cif.g08.bks.cpg/sg65_25_cif.got.tgz:48703.got - 2010.06.03 17:01:31.
