data_PCOD9492291
_publ_section_title
;
Structure prediction by ZEFSAII (Michael W. Deem and Ramdas Pophale) SiO2 
 PCOD9492291
Probable space group: C M M M
;
_chemical_formula_sum "Si O2"
_cell_formula_units_Z 84
_cell_length_a 24.410372
_cell_length_b 13.913425
_cell_length_c 11.265572
_cell_angle_alpha 90.000000
_cell_angle_beta 90.000000
_cell_angle_gamma 90.000000
_cell_volume 3826.147398
_symmetry_space_group_name_H-M "C M M M"
_symmetry_group_IT_number 65
_symmetry_cell_setting 'orthorhombic'
loop_
_space_group_symop_operation_xyz
x,y,z
-x,-y,z
x,-y,-z
-x,y,-z
-x,-y,-z
x,y,-z
-x,y,z
x,-y,z
1/2+x,1/2+y,z
1/2-x,1/2-y,z
1/2+x,1/2-y,-z
1/2-x,1/2+y,-z
1/2-x,1/2-y,-z
1/2+x,1/2+y,-z
1/2-x,1/2+y,z
1/2+x,1/2-y,z
loop_
_atom_site_type_symbol
_atom_site_label
_atom_site_fract_x
_atom_site_fract_y
_atom_site_fract_z
Si Si1 0.115484 0.882342 0.500000
Si Si2 0.085078 0.685885 0.141153
Si Si3 0.500000 0.103752 0.694053
Si Si4 0.188652 0.890398 0.277735
Si Si5 0.500000 0.730060 0.500000
Si Si6 0.417115 0.602256 0.860555
Si Si7 0.206689 0.616138 0.862723
O O1 0.151539 0.850952 0.385160
O O2 0.055479 0.834145 0.500000
O O3 0.109457 0.000000 0.500000
O O4 0.064709 0.792616 0.177947
O O5 0.149690 0.670193 0.159811
O O6 0.052021 0.612420 0.219796
O O7 0.075223 0.674497 0.000000
O O8 0.500000 0.194938 0.608621
O O9 0.500000 0.000000 0.634347
O O10 0.147597 0.895167 0.165734
O O11 0.246252 0.854271 0.229248
O O12 0.199986 0.000000 0.316495
O O13 0.436664 0.500000 0.806986
O O14 0.428216 0.598527 0.000000
O O15 0.198397 0.500000 0.853716
O O16 0.222946 0.634784 0.000000
#
# Coordination Sequence:
#
# PCOD9492291 Si02
#       7
#     8  16   8  16   4  16  16
#     4  10  21  39  66  96 124 157 203 257 304 354
#     4  10  21  37  61  93 124 159 206 256 308 365
#     4  12  26  45  66  86 116 160 210 263 313 362
#     4   9  17  31  53  84 121 158 196 243 300 354
#     4  12  26  46  66  86 118 164 212 252 298 364
#     4   9  17  31  52  81 119 157 191 235 298 371
#     4   9  17  31  54  87 125 161 200 249 304 363
#
# _framework density 21.954198000000002
#
# number of rings (size 3 to 8) (size 9 to 14) (size 15 to 20)
#    0.000    2.286    0.000    2.857    0.000    4.571 
#    0.000    5.238    0.000    6.857    0.000    1.333 
#    0.000   13.714    0.000    0.000    0.000    0.000 
#
# Total GULP energy -234233.540620 kJ/mol
# GULP energy per Si atom -5576.989062 kJ/mol
# Density = 2.190423 g / cm^3
# Si number density = 21.954198 Si / 1000 Ang^3
#
#
#
# Elastic Constant Matrix: (Units=GPa)
#
#
# Indices 1 2 3 4 5 6 
#
# 1 149.3850 43.8435 76.6807 0.0000 0.0000 0.0000
# 2 43.8435 144.3316 42.5912 0.0000 0.0000 0.0000
# 3 76.6807 42.5912 79.2870 0.0000 0.0000 0.0000
# 4 0.0000 0.0000 0.0000 17.6526 0.0000 0.0000
# 5 0.0000 0.0000 0.0000 0.0000 29.5607 0.0000
# 6 0.0000 0.0000 0.0000 0.0000 0.0000 -2.6028
#
#
#
# Elastic Compliance Matrix: (Units=1/GPa)
#
#
# Indices 1 2 3 4 5 6 
#
# 1 0.013304 -0.000291 -0.012710 0.000000 0.000000 0.000000
# 2 -0.000291 0.008240 -0.004145 0.000000 0.000000 0.000000
# 3 -0.012710 -0.004145 0.027132 0.000000 0.000000 0.000000
# 4 0.000000 0.000000 0.000000 0.056649 0.000000 0.000000
# 5 0.000000 0.000000 0.000000 0.000000 0.033829 0.000000
# 6 0.000000 0.000000 0.000000 0.000000 0.000000 -0.384207
#
#
# Mechanical properties :
#
#
# Convention : Reuss Voigt Hill
#
# Bulk Modulus (GPa) = 69.52659 77.69272 73.60965
# Shear Modulus (GPa) = -24.27576 22.91464 -0.68056
#
# Velocity S-wave (km/s) = -3.32888 3.23421 -0.55737
# Velocity P-wave (km/s) = 4.11854 7.02938 5.76084
#
# Compressibility (1/GPa) = 0.01438299
#
# Stress axis : x y z
#
# Youngs Moduli (GPa) = 75.16706 121.35910 36.85729
#
# Poissons Ratio (x) = 0.03526 0.46847
# Poissons Ratio (y) = 0.02184 0.15279
# Poissons Ratio (z) = 0.95540 0.50308
#
# Static dielectric constant tensor:
#      x y z
#    x 1.771950 0.000000 0.000000 
#    y 0.000000 1.873970 0.000000 
#    z 0.000000 0.000000 1.788390 
# 
# From -- ./inp_files/30586.got.cif
#   From: 2010.05.17/outbox.cif.g08.bks.cpg/sg65_16_cif.got.tgz:30586.got - 2010.06.03 17:01:31.
