data_PCOD9492414
_publ_section_title
;
Structure prediction by ZEFSAII (Michael W. Deem and Ramdas Pophale) SiO2 
 PCOD9492414
Probable space group: C M M M
;
_chemical_formula_sum "Si O2"
_cell_formula_units_Z 88
_cell_length_a 21.542273
_cell_length_b 8.783870
_cell_length_c 24.279363
_cell_angle_alpha 90.000000
_cell_angle_beta 90.000000
_cell_angle_gamma 90.000000
_cell_volume 4594.250944
_symmetry_space_group_name_H-M "C M M M"
_symmetry_group_IT_number 65
_symmetry_cell_setting 'orthorhombic'
loop_
_space_group_symop_operation_xyz
x,y,z
-x,-y,z
x,-y,-z
-x,y,-z
-x,-y,-z
x,y,-z
-x,y,z
x,-y,z
1/2+x,1/2+y,z
1/2-x,1/2-y,z
1/2+x,1/2-y,-z
1/2-x,1/2+y,-z
1/2-x,1/2-y,-z
1/2+x,1/2+y,-z
1/2-x,1/2+y,z
1/2+x,1/2-y,z
loop_
_atom_site_type_symbol
_atom_site_label
_atom_site_fract_x
_atom_site_fract_y
_atom_site_fract_z
Si Si1 0.183648 0.816244 0.564249
Si Si2 0.686201 0.819933 0.831617
Si Si3 0.500000 0.173787 0.066728
Si Si4 0.368334 0.681245 0.064536
Si Si5 0.568767 0.315166 0.637916
Si Si6 0.930083 0.816581 0.232553
O O1 0.174166 0.775180 0.500000
O O2 0.250000 0.750000 0.582022
O O3 0.126159 0.761606 0.601223
O O4 0.186469 0.000000 0.567473
O O5 0.750000 0.750000 0.809144
O O6 0.677698 0.765346 0.894547
O O7 0.625876 0.758794 0.799944
O O8 0.688848 0.000000 0.828882
O O9 0.562522 0.263115 0.080765
O O10 0.500000 0.000000 0.087770
O O11 0.500000 0.165539 0.000000
O O12 0.363885 0.500000 0.071487
O O13 0.358616 0.717294 0.000000
O O14 0.500000 0.262887 0.619888
O O15 0.568425 0.500000 0.634396
O O16 0.575893 0.279292 0.702512
O O17 0.000000 0.770797 0.214764
O O18 0.926120 0.000000 0.226754
#
# Coordination Sequence:
#
# PCOD9492414 Si02
#       6
#    16  16   8  16  16  16
#     4   9  17  29  47  74 109 147 186 227 271 322
#     4  12  26  42  60  83 114 147 186 232 281 339
#     4   9  17  31  53  83 115 145 181 223 264 311
#     4  10  21  38  60  85 114 148 185 225 274 333
#     4   8  15  30  53  80 107 138 180 228 276 325
#     4   9  19  38  62  84 110 145 184 229 283 341
#
# _framework density 19.154375000000002
#
# number of rings (size 3 to 8) (size 9 to 14) (size 15 to 20)
#    0.000    2.455    0.000    3.545    1.273    4.000 
#    0.000    4.545    0.000    1.636    0.000    2.545 
#    0.000    0.000    0.000    0.000    0.000    0.000 
#
# Total GULP energy -245614.565292 kJ/mol
# GULP energy per Si atom -5582.149211 kJ/mol
# Density = 1.911078 g / cm^3
# Si number density = 19.154375 Si / 1000 Ang^3
#
#
#
# Elastic Constant Matrix: (Units=GPa)
#
#
# Indices 1 2 3 4 5 6 
#
# 1 190.4646 57.0368 85.9930 0.0000 0.0000 0.0000
# 2 57.0368 61.3198 33.9367 0.0000 0.0000 0.0000
# 3 85.9930 33.9367 70.0738 0.0000 0.0000 0.0000
# 4 0.0000 0.0000 0.0000 15.2900 0.0000 0.0000
# 5 0.0000 0.0000 0.0000 0.0000 16.3678 0.0000
# 6 0.0000 0.0000 0.0000 0.0000 0.0000 30.3671
#
#
#
# Elastic Compliance Matrix: (Units=1/GPa)
#
#
# Indices 1 2 3 4 5 6 
#
# 1 0.012554 -0.004305 -0.013321 0.000000 0.000000 0.000000
# 2 -0.004305 0.023755 -0.006222 0.000000 0.000000 0.000000
# 3 -0.013321 -0.006222 0.033631 0.000000 0.000000 0.000000
# 4 0.000000 0.000000 0.000000 0.065402 0.000000 0.000000
# 5 0.000000 0.000000 0.000000 0.000000 0.061096 0.000000
# 6 0.000000 0.000000 0.000000 0.000000 0.000000 0.032930
#
#
# Mechanical properties :
#
#
# Convention : Reuss Voigt Hill
#
# Bulk Modulus (GPa) = 44.95418 75.08791 60.02104
# Shear Modulus (GPa) = 17.57600 22.06442 19.82021
#
# Velocity S-wave (km/s) = 3.03247 3.39769 3.22026
# Velocity P-wave (km/s) = 5.98177 7.39452 6.72534
#
# Compressibility (1/GPa) = 0.02224487
#
# Stress axis : x y z
#
# Youngs Moduli (GPa) = 79.65859 42.09558 29.73434
#
# Poissons Ratio (x) = 0.18120 0.39609
# Poissons Ratio (y) = 0.34289 0.18502
# Poissons Ratio (z) = 1.06112 0.26193
#
# Static dielectric constant tensor:
#      x y z
#    x 1.673520 0.000000 0.000000 
#    y 0.000000 1.644170 0.000000 
#    z 0.000000 0.000000 1.676590 
# 
# From -- ./inp_files/70991.got.cif
#   From: 2010.05.17/outbox.cif.g08.bks.cpg/sg65_36_cif.got.tgz:70991.got - 2010.06.03 17:01:31.
