data_PCOD9492913
_publ_section_title
;
Structure prediction by ZEFSAII (Michael W. Deem and Ramdas Pophale) SiO2 
 PCOD9492913
Probable space group: C M M M
;
_chemical_formula_sum "Si O2"
_cell_formula_units_Z 68
_cell_length_a 16.404039
_cell_length_b 25.324434
_cell_length_c 7.595954
_cell_angle_alpha 90.000000
_cell_angle_beta 90.000000
_cell_angle_gamma 90.000000
_cell_volume 3155.534021
_symmetry_space_group_name_H-M "C M M M"
_symmetry_group_IT_number 65
_symmetry_cell_setting 'orthorhombic'
loop_
_space_group_symop_operation_xyz
x,y,z
-x,-y,z
x,-y,-z
-x,y,-z
-x,-y,-z
x,y,-z
-x,y,z
x,-y,z
1/2+x,1/2+y,z
1/2-x,1/2-y,z
1/2+x,1/2-y,-z
1/2-x,1/2+y,-z
1/2-x,1/2-y,-z
1/2+x,1/2+y,-z
1/2-x,1/2+y,z
1/2+x,1/2-y,z
loop_
_atom_site_type_symbol
_atom_site_label
_atom_site_fract_x
_atom_site_fract_y
_atom_site_fract_z
Si Si1 0.736423 0.636453 0.791258
Si Si2 0.500000 0.318308 0.000000
Si Si3 0.378902 0.280673 0.296110
Si Si4 0.908610 0.938181 0.214745
Si Si5 0.910030 0.340276 0.710297
O O1 0.710106 0.693058 0.713041
O O2 0.669251 0.594822 0.722530
O O3 0.831063 0.625539 0.755324
O O4 0.729463 0.638953 0.000000
O O5 0.430246 0.314166 0.155813
O O6 0.405552 0.283919 0.500000
O O7 0.391543 0.220339 0.235364
O O8 0.000000 0.922288 0.274916
O O9 0.898768 0.000000 0.256603
O O10 0.911217 0.933832 0.000000
O O11 0.914424 0.339676 0.500000
O O12 0.000000 0.355203 0.778488
#
# Coordination Sequence:
#
# PCOD9492913 Si02
#       5
#    16   4  16  16  16
#     4  11  22  32  56  87 113 146 194 237 283 346
#     4  12  22  36  58  82 111 158 203 236 278 336
#     4  11  23  38  55  81 119 157 192 238 285 333
#     4   8  16  32  54  81 115 150 183 226 283 343
#     4  10  22  39  55  74 109 153 192 235 290 338
#
# _framework density 21.549444000000001
#
# number of rings (size 3 to 8) (size 9 to 14) (size 15 to 20)
#    0.000    1.882    2.353    2.471    3.294    3.294 
#    0.000    0.000    0.000    3.529    0.000   11.529 
#    0.000    0.000    0.000    0.000    0.000    0.000 
#
# Total GULP energy -189321.255721 kJ/mol
# GULP energy per Si atom -5568.272227 kJ/mol
# Density = 2.150040 g / cm^3
# Si number density = 21.549444 Si / 1000 Ang^3
#
#
#
# Elastic Constant Matrix: (Units=GPa)
#
#
# Indices 1 2 3 4 5 6 
#
# 1 223.6496 62.8886 17.4318 0.0000 0.0000 0.0000
# 2 62.8886 74.3323 6.2329 0.0000 0.0000 0.0000
# 3 17.4318 6.2329 82.4398 0.0000 0.0000 0.0000
# 4 0.0000 0.0000 0.0000 11.9361 0.0000 0.0000
# 5 0.0000 0.0000 0.0000 0.0000 26.5354 0.0000
# 6 0.0000 0.0000 0.0000 0.0000 0.0000 16.0713
#
#
#
# Elastic Compliance Matrix: (Units=1/GPa)
#
#
# Indices 1 2 3 4 5 6 
#
# 1 0.005930 -0.004943 -0.000880 0.000000 0.000000 0.000000
# 2 -0.004943 0.017660 -0.000290 0.000000 0.000000 0.000000
# 3 -0.000880 -0.000290 0.012338 0.000000 0.000000 0.000000
# 4 0.000000 0.000000 0.000000 0.083780 0.000000 0.000000
# 5 0.000000 0.000000 0.000000 0.000000 0.037686 0.000000
# 6 0.000000 0.000000 0.000000 0.000000 0.000000 0.062223
#
#
# Mechanical properties :
#
#
# Convention : Reuss Voigt Hill
#
# Bulk Modulus (GPa) = 42.19223 61.50315 51.84769
# Shear Modulus (GPa) = 20.85575 30.49979 25.67777
#
# Velocity S-wave (km/s) = 3.11434 3.76618 3.45566
# Velocity P-wave (km/s) = 5.70560 6.89308 6.32726
#
# Compressibility (1/GPa) = 0.02370105
#
# Stress axis : x y z
#
# Youngs Moduli (GPa) = 168.63839 56.62667 81.04989
#
# Poissons Ratio (x) = 0.27991 0.07133
# Poissons Ratio (y) = 0.83360 0.02350
# Poissons Ratio (z) = 0.14842 0.01642
#
# Static dielectric constant tensor:
#      x y z
#    x 1.872320 0.000000 0.000000 
#    y 0.000000 1.824890 0.000000 
#    z 0.000000 0.000000 1.793990 
# 
# From -- ./inp_files/9464.got.cif
#   From: 2010.05.17/outbox.cif.g08.bks.cpg/sg65_5_cif.got.tgz:9464.got - 2010.06.03 17:01:31.
