data_PCOD9492473
_publ_section_title
;
Structure prediction by ZEFSAII (Michael W. Deem and Ramdas Pophale) SiO2 
 PCOD9492473
Probable space group: C M M M
;
_chemical_formula_sum "Si O2"
_cell_formula_units_Z 58
_cell_length_a 14.687050
_cell_length_b 26.700136
_cell_length_c 7.787351
_cell_angle_alpha 90.000000
_cell_angle_beta 90.000000
_cell_angle_gamma 90.000000
_cell_volume 3053.780355
_symmetry_space_group_name_H-M "C M M M"
_symmetry_group_IT_number 65
_symmetry_cell_setting 'orthorhombic'
loop_
_space_group_symop_operation_xyz
x,y,z
-x,-y,z
x,-y,-z
-x,y,-z
-x,-y,-z
x,y,-z
-x,y,z
x,-y,z
1/2+x,1/2+y,z
1/2-x,1/2-y,z
1/2+x,1/2-y,-z
1/2-x,1/2+y,-z
1/2-x,1/2-y,-z
1/2+x,1/2+y,-z
1/2-x,1/2+y,z
1/2+x,1/2-y,z
loop_
_atom_site_type_symbol
_atom_site_label
_atom_site_fract_x
_atom_site_fract_y
_atom_site_fract_z
Si Si1 0.500000 0.851177 0.792827
Si Si2 0.649372 0.000000 0.809925
Si Si3 0.000000 0.764971 0.205207
Si Si4 0.695639 0.104449 0.702629
Si Si5 0.301788 0.299135 0.295164
Si Si6 0.000000 0.500000 0.500000
O O1 0.500000 0.793107 0.734872
O O2 0.409249 0.878109 0.726895
O O3 0.500000 0.852854 0.000000
O O4 0.705992 0.948932 0.791139
O O5 0.578684 0.000000 0.652390
O O6 0.606715 0.000000 0.000000
O O7 0.908259 0.791868 0.264448
O O8 0.000000 0.763545 0.000000
O O9 0.712652 0.098318 0.500000
O O10 0.757970 0.149607 0.771927
O O11 0.285410 0.299866 0.500000
O O12 0.250000 0.250000 0.224715
#
# Coordination Sequence:
#
# PCOD9492473 Si02
#       6
#     8   8   8  16  16   2
#     4  11  22  33  51  84 122 161 197 240 300 360
#     4  12  25  41  61  85 122 168 204 252 310 359
#     4  11  23  36  55  86 125 157 197 253 298 358
#     4  11  22  39  60  85 119 158 203 257 296 357
#     4  10  21  38  61  85 115 158 201 244 301 362
#     4  12  22  44  60  90 128 158 210 260 288 380
#
# _framework density 18.992854000000001
#
# number of rings (size 3 to 8) (size 9 to 14) (size 15 to 20)
#    0.000    1.103    4.138    2.690    0.000    3.862 
#    0.000    0.000    0.000    0.828    0.000    5.793 
#    0.000    0.000    0.000    0.000    0.000    0.000 
#
# Total GULP energy -161826.591431 kJ/mol
# GULP energy per Si atom -5580.227291 kJ/mol
# Density = 1.894962 g / cm^3
# Si number density = 18.992854 Si / 1000 Ang^3
#
#
#
# Elastic Constant Matrix: (Units=GPa)
#
#
# Indices 1 2 3 4 5 6 
#
# 1 99.9520 71.6130 -9.0111 0.0000 0.0000 0.0000
# 2 71.6130 192.0462 23.3253 0.0000 0.0000 0.0000
# 3 -9.0111 23.3253 86.4142 0.0000 0.0000 0.0000
# 4 0.0000 0.0000 0.0000 20.0965 0.0000 0.0000
# 5 0.0000 0.0000 0.0000 0.0000 133.8429 0.0000
# 6 0.0000 0.0000 0.0000 0.0000 0.0000 -1.3212
#
#
#
# Elastic Compliance Matrix: (Units=1/GPa)
#
#
# Indices 1 2 3 4 5 6 
#
# 1 0.014389 -0.005736 0.003049 0.000000 0.000000 0.000000
# 2 -0.005736 0.007670 -0.002669 0.000000 0.000000 0.000000
# 3 0.003049 -0.002669 0.012610 0.000000 0.000000 0.000000
# 4 0.000000 0.000000 0.000000 0.049760 0.000000 0.000000
# 5 0.000000 0.000000 0.000000 0.000000 0.007471 0.000000
# 6 0.000000 0.000000 0.000000 0.000000 0.000000 -0.756862
#
#
# Mechanical properties :
#
#
# Convention : Reuss Voigt Hill
#
# Bulk Modulus (GPa) = 41.73895 61.14076 51.43985
# Shear Modulus (GPa) = -7.73678 50.02262 21.14292
#
# Velocity S-wave (km/s) = -2.02049 5.13758 3.34009
# Velocity P-wave (km/s) = 4.07194 8.21306 6.48209
#
# Compressibility (1/GPa) = 0.02395844
#
# Stress axis : x y z
#
# Youngs Moduli (GPa) = 69.49569 130.37598 79.29965
#
# Poissons Ratio (x) = 0.74784 -0.24177
# Poissons Ratio (y) = 0.39863 0.21161
# Poissons Ratio (z) = -0.21188 0.34791
#
# Static dielectric constant tensor:
#      x y z
#    x 1.647280 0.000000 0.000000 
#    y 0.000000 1.707810 0.000000 
#    z 0.000000 0.000000 1.677520 
# 
# From -- ./inp_files/6643.got.cif
#   From: 2010.05.17/outbox.cif.g08.bks.cpg/sg65_4_cif.got.tgz:6643.got - 2010.06.03 17:01:31.
