data_PCOD9492413
_publ_section_title
;
Structure prediction by ZEFSAII (Michael W. Deem and Ramdas Pophale) SiO2 
 PCOD9492413
Probable space group: C M M M
;
_chemical_formula_sum "Si O2"
_cell_formula_units_Z 96
_cell_length_a 24.087508
_cell_length_b 8.741424
_cell_length_c 25.816728
_cell_angle_alpha 90.000000
_cell_angle_beta 90.000000
_cell_angle_gamma 90.000000
_cell_volume 5435.947543
_symmetry_space_group_name_H-M "C M M M"
_symmetry_group_IT_number 65
_symmetry_cell_setting 'orthorhombic'
loop_
_space_group_symop_operation_xyz
x,y,z
-x,-y,z
x,-y,-z
-x,y,-z
-x,-y,-z
x,y,-z
-x,y,z
x,-y,z
1/2+x,1/2+y,z
1/2-x,1/2-y,z
1/2+x,1/2-y,-z
1/2-x,1/2+y,-z
1/2-x,1/2-y,-z
1/2+x,1/2+y,-z
1/2-x,1/2+y,z
1/2+x,1/2-y,z
loop_
_atom_site_type_symbol
_atom_site_label
_atom_site_fract_x
_atom_site_fract_y
_atom_site_fract_z
Si Si1 0.000000 0.320725 0.293726
Si Si2 0.123746 0.819473 0.154855
Si Si3 0.688319 0.816996 0.253251
Si Si4 0.500000 0.678011 0.815195
Si Si5 0.188338 0.316981 0.941256
Si Si6 0.935146 0.316191 0.439825
Si Si7 0.887690 0.817970 0.659560
O O1 0.945042 0.241214 0.315291
O O2 0.000000 0.500000 0.307086
O O3 0.000000 0.293020 0.232645
O O4 0.150297 0.740805 0.205560
O O5 0.150172 0.751121 0.103275
O O6 0.057347 0.800289 0.154809
O O7 0.136023 0.000000 0.158281
O O8 0.750000 0.750000 0.246946
O O9 0.660964 0.757332 0.306595
O O10 0.689900 0.000000 0.253086
O O11 0.500000 0.500000 0.795870
O O12 0.190580 0.500000 0.936642
O O13 0.250000 0.250000 0.934571
O O14 0.170061 0.278470 0.000000
O O15 0.924300 0.279810 0.500000
O O16 0.931377 0.500000 0.433707
O O17 0.894127 0.235782 0.399755
O O18 0.000000 0.274432 0.429123
O O19 0.883689 0.000000 0.663181
#
# Coordination Sequence:
#
# PCOD9492413 Si02
#       7
#     8  16  16   8  16  16  16
#     4  12  22  34  55  82 113 154 194 231 281 340
#     4  11  22  38  60  86 117 151 188 234 285 339
#     4  12  25  41  60  84 114 150 191 235 286 341
#     4  10  22  38  57  82 117 153 190 231 279 339
#     4  10  21  38  60  85 113 148 192 240 287 337
#     4   9  18  33  54  81 114 151 191 234 281 335
#     4  12  23  36  56  84 118 152 189 236 285 341
#
# _framework density 17.660214
#
# number of rings (size 3 to 8) (size 9 to 14) (size 15 to 20)
#    0.000    1.167    2.500    5.750    0.000    2.000 
#    0.000    1.250    0.000    3.000    0.000    0.000 
#    0.000    0.000    0.000    0.000    0.000    0.000 
#
# Total GULP energy -268234.541239 kJ/mol
# GULP energy per Si atom -5588.219609 kJ/mol
# Density = 1.762002 g / cm^3
# Si number density = 17.660214 Si / 1000 Ang^3
#
#
#
# Elastic Constant Matrix: (Units=GPa)
#
#
# Indices 1 2 3 4 5 6 
#
# 1 101.6401 54.8243 59.2539 0.0000 0.0000 0.0000
# 2 54.8243 125.8585 67.7011 0.0000 0.0000 0.0000
# 3 59.2539 67.7011 129.5019 0.0000 0.0000 0.0000
# 4 0.0000 0.0000 0.0000 26.6741 0.0000 0.0000
# 5 0.0000 0.0000 0.0000 0.0000 24.4040 0.0000
# 6 0.0000 0.0000 0.0000 0.0000 0.0000 21.0019
#
#
#
# Elastic Compliance Matrix: (Units=1/GPa)
#
#
# Indices 1 2 3 4 5 6 
#
# 1 0.014654 -0.003863 -0.004685 0.000000 0.000000 0.000000
# 2 -0.003863 0.012072 -0.004544 0.000000 0.000000 0.000000
# 3 -0.004685 -0.004544 0.012241 0.000000 0.000000 0.000000
# 4 0.000000 0.000000 0.000000 0.037490 0.000000 0.000000
# 5 0.000000 0.000000 0.000000 0.000000 0.040977 0.000000
# 6 0.000000 0.000000 0.000000 0.000000 0.000000 0.047615
#
#
# Mechanical properties :
#
#
# Convention : Reuss Voigt Hill
#
# Bulk Modulus (GPa) = 78.22813 80.06213 79.14513
# Shear Modulus (GPa) = 25.57634 26.09741 25.83687
#
# Velocity S-wave (km/s) = 3.80971 3.84832 3.82907
# Velocity P-wave (km/s) = 7.98400 8.07337 8.02881
#
# Compressibility (1/GPa) = 0.01278313
#
# Stress axis : x y z
#
# Youngs Moduli (GPa) = 68.24193 82.83498 81.69223
#
# Poissons Ratio (x) = 0.31998 0.38276
# Poissons Ratio (y) = 0.26361 0.37118
# Poissons Ratio (z) = 0.31974 0.37637
#
# Static dielectric constant tensor:
#      x y z
#    x 1.581390 0.000000 0.000000 
#    y 0.000000 1.592470 0.000000 
#    z 0.000000 0.000000 1.610830 
# 
# From -- ./inp_files/71473.got.cif
#   From: 2010.05.17/outbox.cif.g08.bks.cpg/sg65_36_cif.got.tgz:71473.got - 2010.06.03 17:01:31.
