data_PCOD9492908
_publ_section_title
;
Structure prediction by ZEFSAII (Michael W. Deem and Ramdas Pophale) SiO2 
 PCOD9492908
Probable space group: C M M M
;
_chemical_formula_sum "Si O2"
_cell_formula_units_Z 96
_cell_length_a 14.218136
_cell_length_b 21.681180
_cell_length_c 16.854722
_cell_angle_alpha 90.000000
_cell_angle_beta 90.000000
_cell_angle_gamma 90.000000
_cell_volume 5195.737157
_symmetry_space_group_name_H-M "C M M M"
_symmetry_group_IT_number 65
_symmetry_cell_setting 'orthorhombic'
loop_
_space_group_symop_operation_xyz
x,y,z
-x,-y,z
x,-y,-z
-x,y,-z
-x,-y,-z
x,y,-z
-x,y,z
x,-y,z
1/2+x,1/2+y,z
1/2-x,1/2-y,z
1/2+x,1/2-y,-z
1/2-x,1/2+y,-z
1/2-x,1/2-y,-z
1/2+x,1/2+y,-z
1/2-x,1/2+y,z
1/2+x,1/2-y,z
loop_
_atom_site_type_symbol
_atom_site_label
_atom_site_fract_x
_atom_site_fract_y
_atom_site_fract_z
Si Si1 0.110931 0.781051 0.669363
Si Si2 0.892471 0.573668 0.689908
Si Si3 0.715167 0.164461 0.593396
Si Si4 0.892923 0.604949 0.000000
Si Si5 0.137980 0.249841 0.000000
Si Si6 0.394464 0.670170 0.843830
Si Si7 0.226832 0.572484 0.154277
O O1 0.178679 0.830610 0.626404
O O2 0.153921 0.716769 0.638572
O O3 0.122785 0.790564 0.763707
O O4 0.000000 0.785867 0.650896
O O5 0.895188 0.500000 0.686133
O O6 0.835382 0.601539 0.616857
O O7 0.835650 0.590558 0.769439
O O8 0.000000 0.596622 0.692485
O O9 0.714158 0.176188 0.500000
O O10 0.836939 0.582452 0.076977
O O11 0.893929 0.679488 0.000000
O O12 0.000000 0.582363 0.000000
O O13 0.250000 0.250000 0.000000
O O14 0.108523 0.213569 0.920942
O O15 0.500000 0.643910 0.837105
O O16 0.316710 0.616982 0.850427
O O17 0.252062 0.500000 0.160737
#
# Coordination Sequence:
#
# PCOD9492908 Si02
#       7
#    16  16  16   8   8  16  16
#     4  10  22  38  61  90 123 159 194 239 299 360
#     4  10  22  40  61  85 119 160 199 245 299 356
#     4  11  23  38  61  90 121 153 196 252 301 360
#     4  12  25  38  61  92 123 162 199 239 293 348
#     4  12  24  39  60  90 127 162 194 238 290 345
#     4  11  23  41  63  90 122 157 199 245 292 350
#     4  11  23  41  62  87 120 158 202 248 291 345
#
# _framework density 18.476686000000001
#
# number of rings (size 3 to 8) (size 9 to 14) (size 15 to 20)
#    0.000    1.167    3.333    3.000    4.667    4.333 
#    0.000    0.833    0.000    2.500    0.000    1.167 
#    0.000    0.000    0.000    0.000    0.000    0.000 
#
# Total GULP energy -268154.574631 kJ/mol
# GULP energy per Si atom -5586.553638 kJ/mol
# Density = 1.843463 g / cm^3
# Si number density = 18.476686 Si / 1000 Ang^3
#
#
#
# Elastic Constant Matrix: (Units=GPa)
#
#
# Indices 1 2 3 4 5 6 
#
# 1 143.8233 24.2129 58.8090 0.0000 0.0000 0.0000
# 2 24.2129 36.1890 30.8494 0.0000 0.0000 0.0000
# 3 58.8090 30.8494 138.4229 0.0000 0.0000 0.0000
# 4 0.0000 0.0000 0.0000 -74.5331 0.0000 0.0000
# 5 0.0000 0.0000 0.0000 0.0000 10.8363 0.0000
# 6 0.0000 0.0000 0.0000 0.0000 0.0000 13.9778
#
#
#
# Elastic Compliance Matrix: (Units=1/GPa)
#
#
# Indices 1 2 3 4 5 6 
#
# 1 0.008724 -0.003305 -0.002970 0.000000 0.000000 0.000000
# 2 -0.003305 0.035366 -0.006478 0.000000 0.000000 0.000000
# 3 -0.002970 -0.006478 0.009929 0.000000 0.000000 0.000000
# 4 0.000000 0.000000 0.000000 -0.013417 0.000000 0.000000
# 5 0.000000 0.000000 0.000000 0.000000 0.092282 0.000000
# 6 0.000000 0.000000 0.000000 0.000000 0.000000 0.071542
#
#
# Mechanical properties :
#
#
# Convention : Reuss Voigt Hill
#
# Bulk Modulus (GPa) = 35.07021 60.68643 47.87832
# Shear Modulus (GPa) = 20.88237 3.69378 12.28808
#
# Velocity S-wave (km/s) = 3.36549 1.41545 2.58167
# Velocity P-wave (km/s) = 5.84158 5.96553 5.90388
#
# Compressibility (1/GPa) = 0.02851423
#
# Stress axis : x y z
#
# Youngs Moduli (GPa) = 114.63016 28.27582 100.71003
#
# Poissons Ratio (x) = 0.09346 0.29907
# Poissons Ratio (y) = 0.37888 0.65235
# Poissons Ratio (z) = 0.34041 0.18316
#
# Static dielectric constant tensor:
#      x y z
#    x 1.643180 0.000000 0.000000 
#    y 0.000000 1.645570 0.000000 
#    z 0.000000 0.000000 1.627060 
# 
# From -- ./inp_files/40434.got.cif
#   From: 2010.05.17/outbox.cif.g08.bks.cpg/sg65_21_cif.got.tgz:40434.got - 2010.06.03 17:01:31.
