data_PCOD9492284
_publ_section_title
;
Structure prediction by ZEFSAII (Michael W. Deem and Ramdas Pophale) SiO2 
 PCOD9492284
Probable space group: C M M M
;
_chemical_formula_sum "Si O2"
_cell_formula_units_Z 116
_cell_length_a 17.937434
_cell_length_b 17.967361
_cell_length_c 18.049230
_cell_angle_alpha 90.000000
_cell_angle_beta 90.000000
_cell_angle_gamma 90.000000
_cell_volume 5817.056593
_symmetry_space_group_name_H-M "C M M M"
_symmetry_group_IT_number 65
_symmetry_cell_setting 'orthorhombic'
loop_
_space_group_symop_operation_xyz
x,y,z
-x,-y,z
x,-y,-z
-x,y,-z
-x,-y,-z
x,y,-z
-x,y,z
x,-y,z
1/2+x,1/2+y,z
1/2-x,1/2-y,z
1/2+x,1/2-y,-z
1/2-x,1/2+y,-z
1/2-x,1/2-y,-z
1/2+x,1/2+y,-z
1/2-x,1/2+y,z
1/2+x,1/2-y,z
loop_
_atom_site_type_symbol
_atom_site_label
_atom_site_fract_x
_atom_site_fract_y
_atom_site_fract_z
Si Si1 0.145873 0.585648 0.777737
Si Si2 0.333013 0.236502 0.413922
Si Si3 0.588860 0.382045 0.366685
Si Si4 0.814018 0.085823 0.777073
Si Si5 0.121957 0.000000 0.500000
Si Si6 0.414358 0.086232 0.379812
Si Si7 0.912372 0.669707 0.918406
Si Si8 0.819084 0.808062 0.082582
O O1 0.141566 0.500000 0.800788
O O2 0.229491 0.600261 0.749008
O O3 0.090724 0.595538 0.709045
O O4 0.128063 0.633421 0.849136
O O5 0.329092 0.256430 0.500000
O O6 0.250000 0.250000 0.381897
O O7 0.390097 0.295569 0.379497
O O8 0.361757 0.151747 0.409055
O O9 0.500000 0.392245 0.363708
O O10 0.628594 0.402235 0.289517
O O11 0.617788 0.434517 0.433954
O O12 0.823047 0.136568 0.849150
O O13 0.818039 0.000000 0.799855
O O14 0.500000 0.095433 0.404534
O O15 0.391596 0.000000 0.396425
O O16 0.892110 0.756428 0.916660
O O17 0.000000 0.656610 0.912071
O O18 0.887344 0.642042 0.000000
O O19 0.750000 0.750000 0.091104
O O20 0.811316 0.841815 0.000000
#
# Coordination Sequence:
#
# PCOD9492284 Si02
#       8
#    16  16  16  16   4  16  16  16
#     4  10  21  38  59  87 126 167 206 254 320 386
#     4  11  25  44  64  96 129 163 212 267 330 407
#     4  12  25  44  71 100 132 174 226 286 353 413
#     4  11  24  39  63  98 131 168 219 275 326 398
#     4  12  25  48  74 100 138 180 225 292 361 422
#     4  10  22  41  64  90 125 170 214 260 322 395
#     4  10  21  37  60  91 123 163 217 270 321 379
#     4  10  21  40  63  89 127 178 224 268 327 394
#
# _framework density 19.941357
#
# number of rings (size 3 to 8) (size 9 to 14) (size 15 to 20)
#    0.000    1.379    2.759    2.276    1.931    3.586 
#    1.241    2.759    0.000    0.000    0.000    2.897 
#    0.000    0.000    0.000    0.000    0.000    0.000 
#
# Total GULP energy -323200.488101 kJ/mol
# GULP energy per Si atom -5572.422209 kJ/mol
# Density = 1.989597 g / cm^3
# Si number density = 19.941357 Si / 1000 Ang^3
#
#
#
# Elastic Constant Matrix: (Units=GPa)
#
#
# Indices 1 2 3 4 5 6 
#
# 1 53.6522 30.0241 22.8084 0.0000 0.0000 0.0000
# 2 30.0241 81.1091 44.0417 0.0000 0.0000 0.0000
# 3 22.8084 44.0417 116.9688 0.0000 0.0000 0.0000
# 4 0.0000 0.0000 0.0000 27.1204 0.0000 0.0000
# 5 0.0000 0.0000 0.0000 0.0000 -9.8819 0.0000
# 6 0.0000 0.0000 0.0000 0.0000 0.0000 20.2406
#
#
#
# Elastic Compliance Matrix: (Units=1/GPa)
#
#
# Indices 1 2 3 4 5 6 
#
# 1 0.023762 -0.007894 -0.001661 0.000000 0.000000 0.000000
# 2 -0.007894 0.018120 -0.005283 0.000000 0.000000 0.000000
# 3 -0.001661 -0.005283 0.010863 0.000000 0.000000 0.000000
# 4 0.000000 0.000000 0.000000 0.036873 0.000000 0.000000
# 5 0.000000 0.000000 0.000000 0.000000 -0.101195 0.000000
# 6 0.000000 0.000000 0.000000 0.000000 0.000000 0.049406
#
#
# Mechanical properties :
#
#
# Convention : Reuss Voigt Hill
#
# Bulk Modulus (GPa) = 43.35075 49.49759 46.42417
# Shear Modulus (GPa) = 66.49436 17.81956 42.15696
#
# Velocity S-wave (km/s) = 5.78077 2.99255 4.60286
# Velocity P-wave (km/s) = 8.14511 6.06762 7.18188
#
# Compressibility (1/GPa) = 0.02306765
#
# Stress axis : x y z
#
# Youngs Moduli (GPa) = 42.08334 55.18753 92.05956
#
# Poissons Ratio (x) = 0.43565 0.15293
# Poissons Ratio (y) = 0.33221 0.48638
# Poissons Ratio (z) = 0.06991 0.29157
#
# Static dielectric constant tensor:
#      x y z
#    x 1.744120 0.000000 0.000000 
#    y 0.000000 1.695030 0.000000 
#    z 0.000000 0.000000 1.706660 
# 
# From -- ./inp_files/54679.got.cif
#   From: 2010.05.17/outbox.cif.g08.bks.cpg/sg65_28_cif.got.tgz:54679.got - 2010.06.03 17:01:31.
