data_PCOD9492516
_publ_section_title
;
Structure prediction by ZEFSAII (Michael W. Deem and Ramdas Pophale) SiO2 
 PCOD9492516
Probable space group: C M M M
;
_chemical_formula_sum "Si O2"
_cell_formula_units_Z 80
_cell_length_a 20.373102
_cell_length_b 23.354852
_cell_length_c 7.952835
_cell_angle_alpha 90.000000
_cell_angle_beta 90.000000
_cell_angle_gamma 90.000000
_cell_volume 3784.044640
_symmetry_space_group_name_H-M "C M M M"
_symmetry_group_IT_number 65
_symmetry_cell_setting 'orthorhombic'
loop_
_space_group_symop_operation_xyz
x,y,z
-x,-y,z
x,-y,-z
-x,y,-z
-x,-y,-z
x,y,-z
-x,y,z
x,-y,z
1/2+x,1/2+y,z
1/2-x,1/2-y,z
1/2+x,1/2-y,-z
1/2-x,1/2+y,-z
1/2-x,1/2-y,-z
1/2+x,1/2+y,-z
1/2-x,1/2+y,z
1/2+x,1/2-y,z
loop_
_atom_site_type_symbol
_atom_site_label
_atom_site_fract_x
_atom_site_fract_y
_atom_site_fract_z
Si Si1 0.799896 0.381436 0.813168
Si Si2 0.574354 0.066056 0.297274
Si Si3 0.701224 0.701480 0.689036
Si Si4 0.111114 0.000000 0.802936
Si Si5 0.074095 0.128662 0.296571
Si Si6 0.746667 0.000000 0.692193
O O1 0.876204 0.386863 0.771995
O O2 0.753868 0.349229 0.684190
O O3 0.776010 0.445751 0.794586
O O4 0.788451 0.359149 0.000000
O O5 0.577240 0.067490 0.500000
O O6 0.500000 0.076825 0.244337
O O7 0.590155 0.000000 0.247601
O O8 0.684194 0.722058 0.500000
O O9 0.750000 0.750000 0.768610
O O10 0.634294 0.671176 0.760130
O O11 0.079068 0.062452 0.766672
O O12 0.175469 0.000000 0.689678
O O13 0.127894 0.000000 0.000000
O O14 0.079764 0.126289 0.500000
O O15 0.000000 0.149256 0.254110
O O16 0.720947 0.000000 0.500000
#
# Coordination Sequence:
#
# PCOD9492516 Si02
#       6
#    16  16  16   8  16   8
#     4  12  23  35  56  87 119 151 190 241 304 361
#     4   9  18  33  54  80 112 152 193 233 282 341
#     4  10  22  41  63  84 111 155 208 252 294 349
#     4  12  23  35  56  92 129 159 192 239 303 372
#     4  10  21  38  61  88 121 162 203 247 301 363
#     4  12  22  35  56  83 118 156 194 238 286 351
#
# _framework density 21.141399
#
# number of rings (size 3 to 8) (size 9 to 14) (size 15 to 20)
#    0.000    1.400    3.000    4.500    0.000    2.400 
#    0.000    2.000    0.000    3.600    0.000    0.000 
#    0.000    0.000    0.000    0.000    0.000    0.000 
#
# Total GULP energy -222726.287439 kJ/mol
# GULP energy per Si atom -5568.157186 kJ/mol
# Density = 2.109328 g / cm^3
# Si number density = 21.141399 Si / 1000 Ang^3
#
#
#
# Elastic Constant Matrix: (Units=GPa)
#
#
# Indices 1 2 3 4 5 6 
#
# 1 167.5578 49.3595 15.6645 0.0000 0.0000 0.0000
# 2 49.3595 86.3440 0.2960 0.0000 0.0000 0.0000
# 3 15.6645 0.2960 66.9734 0.0000 0.0000 0.0000
# 4 0.0000 0.0000 0.0000 12.4692 0.0000 0.0000
# 5 0.0000 0.0000 0.0000 0.0000 22.6023 0.0000
# 6 0.0000 0.0000 0.0000 0.0000 0.0000 -4.1149
#
#
#
# Elastic Compliance Matrix: (Units=1/GPa)
#
#
# Indices 1 2 3 4 5 6 
#
# 1 0.007366 -0.004205 -0.001704 0.000000 0.000000 0.000000
# 2 -0.004205 0.013982 0.000922 0.000000 0.000000 0.000000
# 3 -0.001704 0.000922 0.015326 0.000000 0.000000 0.000000
# 4 0.000000 0.000000 0.000000 0.080198 0.000000 0.000000
# 5 0.000000 0.000000 0.000000 0.000000 0.044243 0.000000
# 6 0.000000 0.000000 0.000000 0.000000 0.000000 -0.243021
#
#
# Mechanical properties :
#
#
# Convention : Reuss Voigt Hill
#
# Bulk Modulus (GPa) = 37.45456 50.16833 43.81145
# Shear Modulus (GPa) = -79.32678 23.22834 -28.04922
#
# Velocity S-wave (km/s) = -6.13217 3.31828 -3.64640
# Velocity P-wave (km/s) = 5.69063 6.20183 1.74348
#
# Compressibility (1/GPa) = 0.02669902
#
# Stress axis : x y z
#
# Youngs Moduli (GPa) = 135.75576 71.51888 65.24927
#
# Poissons Ratio (x) = 0.30074 0.11120
# Poissons Ratio (y) = 0.57087 -0.06014
# Poissons Ratio (z) = 0.23137 -0.06592
#
# Static dielectric constant tensor:
#      x y z
#    x 1.834960 0.000000 0.000000 
#    y 0.000000 1.921400 0.000000 
#    z 0.000000 0.000000 1.763600 
# 
# From -- ./inp_files/11559.got.cif
#   From: 2010.05.17/outbox.cif.g08.bks.cpg/sg65_6_cif.got.tgz:11559.got - 2010.06.03 17:01:31.
