data_PCOD9492062
_publ_section_title
;
Structure prediction by ZEFSAII (Michael W. Deem and Ramdas Pophale) SiO2 
 PCOD9492062
Probable space group: C M M M
;
_chemical_formula_sum "Si O2"
_cell_formula_units_Z 88
_cell_length_a 8.175744
_cell_length_b 32.448724
_cell_length_c 17.449701
_cell_angle_alpha 90.000000
_cell_angle_beta 90.000000
_cell_angle_gamma 90.000000
_cell_volume 4629.274114
_symmetry_space_group_name_H-M "C M M M"
_symmetry_group_IT_number 65
_symmetry_cell_setting 'orthorhombic'
loop_
_space_group_symop_operation_xyz
x,y,z
-x,-y,z
x,-y,-z
-x,y,-z
-x,-y,-z
x,y,-z
-x,y,z
x,-y,z
1/2+x,1/2+y,z
1/2-x,1/2-y,z
1/2+x,1/2-y,-z
1/2-x,1/2+y,-z
1/2-x,1/2-y,-z
1/2+x,1/2+y,-z
1/2-x,1/2+y,z
1/2+x,1/2-y,z
loop_
_atom_site_type_symbol
_atom_site_label
_atom_site_fract_x
_atom_site_fract_y
_atom_site_fract_z
Si Si1 0.199680 0.627454 0.261524
Si Si2 0.500000 0.955634 0.591965
Si Si3 0.696837 0.578419 0.000000
Si Si4 0.303071 0.953604 0.834107
Si Si5 0.686039 0.401090 0.588928
Si Si6 0.805383 0.173632 0.000000
Si Si7 0.194229 0.294728 0.161734
O O1 0.251372 0.584571 0.219844
O O2 0.281380 0.631739 0.344817
O O3 0.252050 0.666109 0.210487
O O4 0.000000 0.627138 0.268036
O O5 0.500000 0.959208 0.500000
O O6 0.330748 0.933035 0.608651
O O7 0.500000 0.000000 0.629933
O O8 0.756313 0.556942 0.078107
O O9 0.756059 0.626154 0.000000
O O10 0.500000 0.577969 0.000000
O O11 0.500000 0.953911 0.829107
O O12 0.244074 0.000000 0.814427
O O13 0.709346 0.388172 0.500000
O O14 0.500000 0.416969 0.594720
O O15 0.749562 0.197248 0.924734
O O16 0.000000 0.171533 0.000000
O O17 0.250000 0.250000 0.189083
O O18 0.000000 0.295523 0.163710
#
# Coordination Sequence:
#
# PCOD9492062 Si02
#       7
#    16   8   8  16  16   8  16
#     4  10  21  38  59  86 116 154 194 242 298 356
#     4   9  18  34  56  82 118 157 197 249 295 346
#     4  11  22  35  54  79 112 152 194 242 289 335
#     4  10  21  37  57  80 110 151 197 239 283 341
#     4  10  21  37  60  88 117 156 202 246 301 362
#     4  11  22  37  58  82 113 154 196 238 293 349
#     4  11  23  39  61  87 117 151 191 239 295 356
#
# _framework density 19.009457999999999
#
# number of rings (size 3 to 8) (size 9 to 14) (size 15 to 20)
#    0.000    1.727    2.727    1.636    0.000    5.455 
#    0.000    1.818    0.000    0.545    0.000    0.000 
#    0.000    0.000    0.000    0.000    0.000    0.000 
#
# Total GULP energy -245499.695151 kJ/mol
# GULP energy per Si atom -5579.538526 kJ/mol
# Density = 1.896619 g / cm^3
# Si number density = 19.009458 Si / 1000 Ang^3
#
#
#
# Elastic Constant Matrix: (Units=GPa)
#
#
# Indices 1 2 3 4 5 6 
#
# 1 51.6653 28.3617 26.9500 0.0000 0.0000 0.0000
# 2 28.3617 133.1979 55.1463 0.0000 0.0000 0.0000
# 3 26.9500 55.1463 121.6592 0.0000 0.0000 0.0000
# 4 0.0000 0.0000 0.0000 -2.1706 0.0000 0.0000
# 5 0.0000 0.0000 0.0000 0.0000 16.9769 0.0000
# 6 0.0000 0.0000 0.0000 0.0000 0.0000 13.0349
#
#
#
# Elastic Compliance Matrix: (Units=1/GPa)
#
#
# Indices 1 2 3 4 5 6 
#
# 1 0.023102 -0.003447 -0.003555 0.000000 0.000000 0.000000
# 2 -0.003447 0.009756 -0.003659 0.000000 0.000000 0.000000
# 3 -0.003555 -0.003659 0.010666 0.000000 0.000000 0.000000
# 4 0.000000 0.000000 0.000000 -0.460692 0.000000 0.000000
# 5 0.000000 0.000000 0.000000 0.000000 0.058904 0.000000
# 6 0.000000 0.000000 0.000000 0.000000 0.000000 0.076717
#
#
# Mechanical properties :
#
#
# Convention : Reuss Voigt Hill
#
# Bulk Modulus (GPa) = 45.04086 58.60428 51.82257
# Shear Modulus (GPa) = -19.77662 18.63919 -0.56871
#
# Velocity S-wave (km/s) = -3.22896 3.13473 -0.54756
# Velocity P-wave (km/s) = 3.13749 6.63309 5.18853
#
# Compressibility (1/GPa) = 0.02220206
#
# Stress axis : x y z
#
# Youngs Moduli (GPa) = 43.28611 102.49614 93.75866
#
# Poissons Ratio (x) = 0.35333 0.33331
# Poissons Ratio (y) = 0.14922 0.34305
# Poissons Ratio (z) = 0.15388 0.37501
#
# Static dielectric constant tensor:
#      x y z
#    x 1.672970 0.000000 0.000000 
#    y 0.000000 1.706950 0.000000 
#    z 0.000000 0.000000 1.659890 
# 
# From -- ./inp_files/50535.got.cif
#   From: 2010.05.17/outbox.cif.g08.bks.cpg/sg65_26_cif.got.tgz:50535.got - 2010.06.03 17:01:31.
