data_PCOD9492757
_publ_section_title
;
Structure prediction by ZEFSAII (Michael W. Deem and Ramdas Pophale) SiO2 
 PCOD9492757
Probable space group: C M M M
;
_chemical_formula_sum "Si O2"
_cell_formula_units_Z 58
_cell_length_a 19.834159
_cell_length_b 16.825886
_cell_length_c 8.003653
_cell_angle_alpha 90.000000
_cell_angle_beta 90.000000
_cell_angle_gamma 90.000000
_cell_volume 2671.037492
_symmetry_space_group_name_H-M "C M M M"
_symmetry_group_IT_number 65
_symmetry_cell_setting 'orthorhombic'
loop_
_space_group_symop_operation_xyz
x,y,z
-x,-y,z
x,-y,-z
-x,y,-z
-x,-y,-z
x,y,-z
-x,y,z
x,-y,z
1/2+x,1/2+y,z
1/2-x,1/2-y,z
1/2+x,1/2-y,-z
1/2-x,1/2+y,-z
1/2-x,1/2-y,-z
1/2+x,1/2+y,-z
1/2-x,1/2+y,z
1/2+x,1/2-y,z
loop_
_atom_site_type_symbol
_atom_site_label
_atom_site_fract_x
_atom_site_fract_y
_atom_site_fract_z
Si Si1 0.321212 0.332581 0.192569
Si Si2 0.395985 0.500000 0.187899
Si Si3 0.809478 0.410232 0.801336
Si Si4 0.423554 0.800683 0.303242
Si Si5 0.000000 0.000000 0.500000
O O1 0.351163 0.421132 0.193937
O O2 0.246204 0.347109 0.264714
O O3 0.376018 0.275753 0.275674
O O4 0.316233 0.304190 0.000000
O O5 0.442760 0.500000 0.349799
O O6 0.427133 0.500000 0.000000
O O7 0.803023 0.500000 0.733978
O O8 0.883182 0.374283 0.774257
O O9 0.796607 0.414315 0.000000
O O10 0.427748 0.814627 0.500000
O O11 0.500000 0.788999 0.238717
#
# Coordination Sequence:
#
# PCOD9492757 Si02
#       5
#    16   8  16  16   2
#     4  10  21  41  66  93 125 163 212 268 326 386
#     4  10  23  41  63  94 134 176 221 274 329 391
#     4  10  21  42  69  94 122 161 213 269 324 387
#     4  11  26  42  59  90 132 170 209 263 324 388
#     4  12  26  36  60  98 136 184 218 268 328 410
#
# _framework density 21.714409
#
# number of rings (size 3 to 8) (size 9 to 14) (size 15 to 20)
#    0.000    1.655    1.379    1.862    3.862    7.724 
#    0.000    2.759    0.000    0.000    0.000    0.000 
#    0.000    0.000    0.000    0.000    0.000    0.000 
#
# Total GULP energy -161642.085870 kJ/mol
# GULP energy per Si atom -5573.865030 kJ/mol
# Density = 2.166499 g / cm^3
# Si number density = 21.714409 Si / 1000 Ang^3
#
#
#
# Elastic Constant Matrix: (Units=GPa)
#
#
# Indices 1 2 3 4 5 6 
#
# 1 176.6305 54.0025 25.3333 0.0000 0.0000 0.0000
# 2 54.0025 87.9803 -2.3820 0.0000 0.0000 0.0000
# 3 25.3333 -2.3820 72.1411 0.0000 0.0000 0.0000
# 4 0.0000 0.0000 0.0000 29.2831 0.0000 0.0000
# 5 0.0000 0.0000 0.0000 0.0000 26.7424 0.0000
# 6 0.0000 0.0000 0.0000 0.0000 0.0000 62.5524
#
#
#
# Elastic Compliance Matrix: (Units=1/GPa)
#
#
# Indices 1 2 3 4 5 6 
#
# 1 0.007489 -0.004672 -0.002784 0.000000 0.000000 0.000000
# 2 -0.004672 0.014291 0.002113 0.000000 0.000000 0.000000
# 3 -0.002784 0.002113 0.014909 0.000000 0.000000 0.000000
# 4 0.000000 0.000000 0.000000 0.034149 0.000000 0.000000
# 5 0.000000 0.000000 0.000000 0.000000 0.037394 0.000000
# 6 0.000000 0.000000 0.000000 0.000000 0.000000 0.015987
#
#
# Mechanical properties :
#
#
# Convention : Reuss Voigt Hill
#
# Bulk Modulus (GPa) = 38.45875 54.51773 46.48824
# Shear Modulus (GPa) = 34.82497 41.03543 37.93020
#
# Velocity S-wave (km/s) = 4.00906 4.35187 4.18398
# Velocity P-wave (km/s) = 6.25937 7.10021 6.69301
#
# Compressibility (1/GPa) = 0.02600188
#
# Stress axis : x y z
#
# Youngs Moduli (GPa) = 133.52213 69.97259 67.07262
#
# Poissons Ratio (x) = 0.32694 0.18675
# Poissons Ratio (y) = 0.62387 -0.14170
# Poissons Ratio (z) = 0.37176 -0.14783
#
# Static dielectric constant tensor:
#      x y z
#    x 1.835430 0.000000 0.000000 
#    y 0.000000 1.794530 0.000000 
#    z 0.000000 0.000000 1.776650 
# 
# From -- ./inp_files/8535.got.cif
#   From: 2010.05.17/outbox.cif.g08.bks.cpg/sg65_5_cif.got.tgz:8535.got - 2010.06.03 17:01:31.
