data_PCOD9492200
_publ_section_title
;
Structure prediction by ZEFSAII (Michael W. Deem and Ramdas Pophale) SiO2 
 PCOD9492200
Probable space group: C M M M
;
_chemical_formula_sum "Si O2"
_cell_formula_units_Z 56
_cell_length_a 8.825778
_cell_length_b 28.925384
_cell_length_c 10.826402
_cell_angle_alpha 90.000000
_cell_angle_beta 90.000000
_cell_angle_gamma 90.000000
_cell_volume 2763.861532
_symmetry_space_group_name_H-M "C M M M"
_symmetry_group_IT_number 65
_symmetry_cell_setting 'orthorhombic'
loop_
_space_group_symop_operation_xyz
x,y,z
-x,-y,z
x,-y,-z
-x,y,-z
-x,-y,-z
x,y,-z
-x,y,z
x,-y,z
1/2+x,1/2+y,z
1/2-x,1/2-y,z
1/2+x,1/2-y,-z
1/2-x,1/2+y,-z
1/2-x,1/2-y,-z
1/2+x,1/2+y,-z
1/2-x,1/2+y,z
1/2+x,1/2-y,z
loop_
_atom_site_type_symbol
_atom_site_label
_atom_site_fract_x
_atom_site_fract_y
_atom_site_fract_z
Si Si1 0.180626 0.945856 0.238633
Si Si2 0.672696 0.944008 0.500000
Si Si3 0.818253 0.801437 0.637745
Si Si4 0.319272 0.141726 0.136366
O O1 0.237849 0.932421 0.375765
O O2 0.263905 0.911042 0.147936
O O3 0.000000 0.940226 0.231006
O O4 0.216008 0.000000 0.218043
O O5 0.500000 0.926034 0.500000
O O6 0.663653 0.000000 0.500000
O O7 0.777430 0.819767 0.500000
O O8 0.750000 0.750000 0.645981
O O9 0.755593 0.830872 0.751084
O O10 0.000000 0.799455 0.644804
O O11 0.500000 0.143802 0.148631
O O12 0.277200 0.159824 0.000000
#
# Coordination Sequence:
#
# PCOD9492200 Si02
#       4
#    16   8  16  16
#     4  10  21  37  58  85 120 162 208 258 311 367
#     4   9  17  31  53  81 112 149 196 249 303 357
#     4  10  22  42  69  98 126 158 199 250 309 372
#     4  11  25  42  61  89 125 167 212 256 308 369
#
# _framework density 20.261506000000001
#
# number of rings (size 3 to 8) (size 9 to 14) (size 15 to 20)
#    0.000    1.857    0.000    3.000    2.000    8.571 
#    0.000    2.857    0.000    0.000    0.000    0.000 
#    0.000    0.000    0.000    0.000    0.000    0.000 
#
# Total GULP energy -156480.350700 kJ/mol
# GULP energy per Si atom -5588.583954 kJ/mol
# Density = 2.021539 g / cm^3
# Si number density = 20.261506 Si / 1000 Ang^3
#
#
#
# Elastic Constant Matrix: (Units=GPa)
#
#
# Indices 1 2 3 4 5 6 
#
# 1 76.9750 34.4199 67.5636 0.0000 0.0000 0.0000
# 2 34.4199 72.4112 70.4216 0.0000 0.0000 0.0000
# 3 67.5636 70.4216 173.7862 0.0000 0.0000 0.0000
# 4 0.0000 0.0000 0.0000 49.0492 0.0000 0.0000
# 5 0.0000 0.0000 0.0000 0.0000 26.7395 0.0000
# 6 0.0000 0.0000 0.0000 0.0000 0.0000 35.3821
#
#
#
# Elastic Compliance Matrix: (Units=1/GPa)
#
#
# Indices 1 2 3 4 5 6 
#
# 1 0.020170 -0.003237 -0.006530 0.000000 0.000000 0.000000
# 2 -0.003237 0.023312 -0.008188 0.000000 0.000000 0.000000
# 3 -0.006530 -0.008188 0.011611 0.000000 0.000000 0.000000
# 4 0.000000 0.000000 0.000000 0.020388 0.000000 0.000000
# 5 0.000000 0.000000 0.000000 0.000000 0.037398 0.000000
# 6 0.000000 0.000000 0.000000 0.000000 0.000000 0.028263
#
#
# Mechanical properties :
#
#
# Convention : Reuss Voigt Hill
#
# Bulk Modulus (GPa) = 52.13017 74.22029 63.17523
# Shear Modulus (GPa) = 27.25611 32.28531 29.77071
#
# Velocity S-wave (km/s) = 3.67170 3.99611 3.83733
# Velocity P-wave (km/s) = 6.61511 7.61594 7.13310
#
# Compressibility (1/GPa) = 0.01918275
#
# Stress axis : x y z
#
# Youngs Moduli (GPa) = 49.57786 42.89713 86.12767
#
# Poissons Ratio (x) = 0.13887 0.56240
# Poissons Ratio (y) = 0.16050 0.70519
# Poissons Ratio (z) = 0.32374 0.35123
#
# Static dielectric constant tensor:
#      x y z
#    x 1.673980 0.000000 0.000000 
#    y 0.000000 1.730570 0.000000 
#    z 0.000000 0.000000 1.733080 
# 
# From -- ./inp_files/20789.got.cif
#   From: 2010.05.17/outbox.cif.g08.bks.cpg/sg65_11_cif.got.tgz:20789.got - 2010.06.03 17:01:31.
