data_PCOD9492950
_publ_section_title
;
Structure prediction by ZEFSAII (Michael W. Deem and Ramdas Pophale) SiO2 
 PCOD9492950
Probable space group: C M M M
;
_chemical_formula_sum "Si O2"
_cell_formula_units_Z 56
_cell_length_a 8.317629
_cell_length_b 28.213952
_cell_length_c 11.360482
_cell_angle_alpha 90.000000
_cell_angle_beta 90.000000
_cell_angle_gamma 90.000000
_cell_volume 2666.000498
_symmetry_space_group_name_H-M "C M M M"
_symmetry_group_IT_number 65
_symmetry_cell_setting 'orthorhombic'
loop_
_space_group_symop_operation_xyz
x,y,z
-x,-y,z
x,-y,-z
-x,y,-z
-x,-y,-z
x,y,-z
-x,y,z
x,-y,z
1/2+x,1/2+y,z
1/2-x,1/2-y,z
1/2+x,1/2-y,-z
1/2-x,1/2+y,-z
1/2-x,1/2-y,-z
1/2+x,1/2+y,-z
1/2-x,1/2+y,z
1/2+x,1/2-y,z
loop_
_atom_site_type_symbol
_atom_site_label
_atom_site_fract_x
_atom_site_fract_y
_atom_site_fract_z
Si Si1 0.318256 0.945148 0.775623
Si Si2 0.692009 0.304293 0.370990
Si Si3 0.500000 0.443221 0.627888
Si Si4 0.686598 0.153677 0.874349
O O1 0.500000 0.941955 0.722810
O O2 0.309797 0.903597 0.870421
O O3 0.167746 0.933432 0.691970
O O4 0.299858 0.000000 0.815566
O O5 0.750494 0.323021 0.500000
O O6 0.500000 0.305719 0.372911
O O7 0.750000 0.250000 0.364985
O O8 0.744654 0.328741 0.249600
O O9 0.500000 0.500000 0.617425
O O10 0.500000 0.420473 0.500000
O O11 0.500000 0.168231 0.873981
O O12 0.759414 0.169690 0.000000
#
# Coordination Sequence:
#
# PCOD9492950 Si02
#       4
#    16  16   8  16
#     4   9  19  36  56  81 118 163 208 256 306 357
#     4  10  22  41  65  91 119 154 197 245 301 367
#     4   9  18  32  51  77 111 153 203 255 303 359
#     4  10  22  39  60  89 123 159 202 252 305 361
#
# _framework density 21.005246
#
# number of rings (size 3 to 8) (size 9 to 14) (size 15 to 20)
#    0.000    2.429    0.000    0.857    2.000    5.143 
#    0.000    8.571    0.000    2.571    0.000    0.000 
#    0.000    0.000    0.000    0.000    0.000    0.000 
#
# Total GULP energy -155882.985844 kJ/mol
# GULP energy per Si atom -5567.249494 kJ/mol
# Density = 2.095744 g / cm^3
# Si number density = 21.005246 Si / 1000 Ang^3
#
#
#
# Elastic Constant Matrix: (Units=GPa)
#
#
# Indices 1 2 3 4 5 6 
#
# 1 104.4113 14.8940 73.4402 0.0000 0.0000 0.0000
# 2 14.8940 65.6794 62.9646 0.0000 0.0000 0.0000
# 3 73.4402 62.9646 207.6707 0.0000 0.0000 0.0000
# 4 0.0000 0.0000 0.0000 -6.1882 0.0000 0.0000
# 5 0.0000 0.0000 0.0000 0.0000 14.7366 0.0000
# 6 0.0000 0.0000 0.0000 0.0000 0.0000 23.9190
#
#
#
# Elastic Compliance Matrix: (Units=1/GPa)
#
#
# Indices 1 2 3 4 5 6 
#
# 1 0.012941 0.002048 -0.005197 0.000000 0.000000 0.000000
# 2 0.002048 0.021788 -0.007330 0.000000 0.000000 0.000000
# 3 -0.005197 -0.007330 0.008876 0.000000 0.000000 0.000000
# 4 0.000000 0.000000 0.000000 -0.161599 0.000000 0.000000
# 5 0.000000 0.000000 0.000000 0.000000 0.067858 0.000000
# 6 0.000000 0.000000 0.000000 0.000000 0.000000 0.041808
#
#
# Mechanical properties :
#
#
# Convention : Reuss Voigt Hill
#
# Bulk Modulus (GPa) = 44.15847 75.59545 59.87696
# Shear Modulus (GPa) = 247.76276 21.59100 134.67688
#
# Velocity S-wave (km/s) = 10.87239 3.20954 8.01592
# Velocity P-wave (km/s) = 13.36713 7.05704 10.68836
#
# Compressibility (1/GPa) = 0.02264571
#
# Stress axis : x y z
#
# Youngs Moduli (GPa) = 77.27343 45.89587 112.66562
#
# Poissons Ratio (x) = -0.09399 0.58556
# Poissons Ratio (y) = -0.15825 0.82588
# Poissons Ratio (z) = 0.40162 0.33643
#
# Static dielectric constant tensor:
#      x y z
#    x 1.828960 0.000000 0.000000 
#    y 0.000000 1.775370 0.000000 
#    z 0.000000 0.000000 1.814490 
# 
# From -- ./inp_files/20919.got.cif
#   From: 2010.05.17/outbox.cif.g08.bks.cpg/sg65_11_cif.got.tgz:20919.got - 2010.06.03 17:01:31.
