data_PCOD9492548
_publ_section_title
;
Structure prediction by ZEFSAII (Michael W. Deem and Ramdas Pophale) SiO2 
 PCOD9492548
Probable space group: C M M M
;
_chemical_formula_sum "Si O2"
_cell_formula_units_Z 72
_cell_length_a 24.438591
_cell_length_b 18.146236
_cell_length_c 8.463630
_cell_angle_alpha 90.000000
_cell_angle_beta 90.000000
_cell_angle_gamma 90.000000
_cell_volume 3753.352791
_symmetry_space_group_name_H-M "C M M M"
_symmetry_group_IT_number 65
_symmetry_cell_setting 'orthorhombic'
loop_
_space_group_symop_operation_xyz
x,y,z
-x,-y,z
x,-y,-z
-x,y,-z
-x,-y,-z
x,y,-z
-x,y,z
x,-y,z
1/2+x,1/2+y,z
1/2-x,1/2-y,z
1/2+x,1/2-y,-z
1/2-x,1/2+y,-z
1/2-x,1/2-y,-z
1/2+x,1/2+y,-z
1/2-x,1/2+y,z
1/2+x,1/2-y,z
loop_
_atom_site_type_symbol
_atom_site_label
_atom_site_fract_x
_atom_site_fract_y
_atom_site_fract_z
Si Si1 0.252417 0.664573 0.307622
Si Si2 0.437259 0.500000 0.189292
Si Si3 0.063391 0.712023 0.810517
Si Si4 0.125195 0.857322 0.689519
Si Si5 0.358968 0.084985 0.308491
O O1 0.251230 0.663404 0.500000
O O2 0.250000 0.750000 0.258943
O O3 0.311675 0.635679 0.257282
O O4 0.199466 0.618949 0.255190
O O5 0.500000 0.500000 0.242263
O O6 0.408143 0.427080 0.251263
O O7 0.435967 0.500000 0.000000
O O8 0.097641 0.782011 0.749015
O O9 0.093337 0.638187 0.752294
O O10 0.000000 0.715941 0.757441
O O11 0.063876 0.713653 0.000000
O O12 0.125023 0.855174 0.500000
O O13 0.359567 0.086869 0.500000
O O14 0.364634 0.000000 0.258918
#
# Coordination Sequence:
#
# PCOD9492548 Si02
#       5
#    16   8  16  16  16
#     4   9  17  34  60  89 119 149 187 240 301 351
#     4  11  25  43  59  83 127 169 198 241 300 353
#     4  11  24  41  60  83 118 161 199 244 305 362
#     4  11  22  38  65  93 117 153 202 250 294 353
#     4  10  21  38  62  90 120 155 198 248 297 352
#
# _framework density 19.182849000000001
#
# number of rings (size 3 to 8) (size 9 to 14) (size 15 to 20)
#    0.000    1.667    2.222    2.333    1.556    6.222 
#    0.000    5.556    0.000    0.000    0.000    0.000 
#    0.000    0.000    0.000    0.000    0.000    0.000 
#
# Total GULP energy -201139.269363 kJ/mol
# GULP energy per Si atom -5587.201927 kJ/mol
# Density = 1.913919 g / cm^3
# Si number density = 19.182849 Si / 1000 Ang^3
#
#
#
# Elastic Constant Matrix: (Units=GPa)
#
#
# Indices 1 2 3 4 5 6 
#
# 1 113.8290 27.0549 18.3113 0.0000 0.0000 0.0000
# 2 27.0549 113.7650 16.0779 0.0000 0.0000 0.0000
# 3 18.3113 16.0779 24.4719 0.0000 0.0000 0.0000
# 4 0.0000 0.0000 0.0000 10.7399 0.0000 0.0000
# 5 0.0000 0.0000 0.0000 0.0000 53.1149 0.0000
# 6 0.0000 0.0000 0.0000 0.0000 0.0000 33.5046
#
#
#
# Elastic Compliance Matrix: (Units=1/GPa)
#
#
# Indices 1 2 3 4 5 6 
#
# 1 0.010210 -0.001486 -0.006663 0.000000 0.000000 0.000000
# 2 -0.001486 0.009906 -0.005396 0.000000 0.000000 0.000000
# 3 -0.006663 -0.005396 0.049394 0.000000 0.000000 0.000000
# 4 0.000000 0.000000 0.000000 0.093110 0.000000 0.000000
# 5 0.000000 0.000000 0.000000 0.000000 0.018827 0.000000
# 6 0.000000 0.000000 0.000000 0.000000 0.000000 0.029847
#
#
# Mechanical properties :
#
#
# Convention : Reuss Voigt Hill
#
# Bulk Modulus (GPa) = 23.57429 41.66155 32.61792
# Shear Modulus (GPa) = 19.79991 32.18001 25.98996
#
# Velocity S-wave (km/s) = 3.21622 4.10022 3.68483
# Velocity P-wave (km/s) = 5.10960 6.64688 5.92828
#
# Compressibility (1/GPa) = 0.04241909
#
# Stress axis : x y z
#
# Youngs Moduli (GPa) = 97.94019 100.94746 20.24525
#
# Poissons Ratio (x) = 0.15005 0.13490
# Poissons Ratio (y) = 0.14558 0.10924
# Poissons Ratio (z) = 0.65261 0.54472
#
# Static dielectric constant tensor:
#      x y z
#    x 1.671410 0.000000 0.000000 
#    y 0.000000 1.624800 0.000000 
#    z 0.000000 0.000000 1.661950 
# 
# From -- ./inp_files/9283.got.cif
#   From: 2010.05.17/outbox.cif.g08.bks.cpg/sg65_5_cif.got.tgz:9283.got - 2010.06.03 17:01:31.
