data_PCOD9492289
_publ_section_title
;
Structure prediction by ZEFSAII (Michael W. Deem and Ramdas Pophale) SiO2 
 PCOD9492289
Probable space group: C M M M
;
_chemical_formula_sum "Si O2"
_cell_formula_units_Z 76
_cell_length_a 17.596221
_cell_length_b 26.974758
_cell_length_c 7.339477
_cell_angle_alpha 90.000000
_cell_angle_beta 90.000000
_cell_angle_gamma 90.000000
_cell_volume 3483.710671
_symmetry_space_group_name_H-M "C M M M"
_symmetry_group_IT_number 65
_symmetry_cell_setting 'orthorhombic'
loop_
_space_group_symop_operation_xyz
x,y,z
-x,-y,z
x,-y,-z
-x,y,-z
-x,-y,-z
x,y,-z
-x,y,z
x,-y,z
1/2+x,1/2+y,z
1/2-x,1/2-y,z
1/2+x,1/2-y,-z
1/2-x,1/2+y,-z
1/2-x,1/2-y,-z
1/2+x,1/2+y,-z
1/2-x,1/2+y,z
1/2+x,1/2-y,z
loop_
_atom_site_type_symbol
_atom_site_label
_atom_site_fract_x
_atom_site_fract_y
_atom_site_fract_z
Si Si1 0.844910 0.885264 0.214729
Si Si2 0.634972 0.000000 0.500000
Si Si3 0.500000 0.443788 0.715985
Si Si4 0.817744 0.583038 0.220226
Si Si5 0.831375 0.227003 0.777650
Si Si6 0.416128 0.822256 0.779447
O O1 0.923889 0.913734 0.236642
O O2 0.771127 0.915783 0.277587
O O3 0.844863 0.828976 0.287283
O O4 0.831510 0.879877 0.000000
O O5 0.639462 0.042921 0.660256
O O6 0.500000 0.500000 0.791019
O O7 0.500000 0.447815 0.500000
O O8 0.852916 0.636954 0.262921
O O9 0.823973 0.574649 0.000000
O O10 0.750000 0.250000 0.726150
O O11 0.893064 0.267398 0.718600
O O12 0.832596 0.225820 0.000000
O O13 0.500000 0.836636 0.716232
O O14 0.417918 0.820811 0.000000
#
# Coordination Sequence:
#
# PCOD9492289 Si02
#       6
#    16   4   8  16  16  16
#     4  10  21  37  61  91 125 160 208 261 314 378
#     4  12  26  40  69  91 118 160 214 276 314 375
#     4  11  27  43  59  81 121 175 219 265 317 376
#     4  10  22  41  64  93 124 164 210 259 317 380
#     4   9  15  29  56  93 128 160 201 253 311 379
#     4   9  17  32  59  92 128 166 206 252 313 381
#
# _framework density 21.815819999999999
#
# number of rings (size 3 to 8) (size 9 to 14) (size 15 to 20)
#    0.000    2.211    2.105    0.632    4.421    0.842 
#    0.000    1.579    2.316    4.421    0.000    0.000 
#    0.000    0.000    0.000    0.000    0.000    0.000 
#
# Total GULP energy -211649.738124 kJ/mol
# GULP energy per Si atom -5569.729951 kJ/mol
# Density = 2.176617 g / cm^3
# Si number density = 21.815820 Si / 1000 Ang^3
#
#
#
# Elastic Constant Matrix: (Units=GPa)
#
#
# Indices 1 2 3 4 5 6 
#
# 1 84.7940 4.0105 -11.3309 0.0000 0.0000 0.0000
# 2 4.0105 110.0315 12.6627 0.0000 0.0000 0.0000
# 3 -11.3309 12.6627 99.6670 0.0000 0.0000 0.0000
# 4 0.0000 0.0000 0.0000 -405.0772 0.0000 0.0000
# 5 0.0000 0.0000 0.0000 0.0000 -51.8890 0.0000
# 6 0.0000 0.0000 0.0000 0.0000 0.0000 124.9073
#
#
#
# Elastic Compliance Matrix: (Units=1/GPa)
#
#
# Indices 1 2 3 4 5 6 
#
# 1 0.012015 -0.000604 0.001443 0.000000 0.000000 0.000000
# 2 -0.000604 0.009254 -0.001244 0.000000 0.000000 0.000000
# 3 0.001443 -0.001244 0.010356 0.000000 0.000000 0.000000
# 4 0.000000 0.000000 0.000000 -0.002469 0.000000 0.000000
# 5 0.000000 0.000000 0.000000 0.000000 -0.019272 0.000000
# 6 0.000000 0.000000 0.000000 0.000000 0.000000 0.008006
#
#
# Mechanical properties :
#
#
# Convention : Reuss Voigt Hill
#
# Bulk Modulus (GPa) = 32.45445 33.90858 33.18151
# Shear Modulus (GPa) = 172.58588 -47.13512 62.72538
#
# Velocity S-wave (km/s) = 8.90405 -4.65326 5.36793
# Velocity P-wave (km/s) = 10.98264 3.64604 7.32546
#
# Compressibility (1/GPa) = 0.03081242
#
# Stress axis : x y z
#
# Youngs Moduli (GPa) = 83.23188 108.06700 96.56691
#
# Poissons Ratio (x) = 0.06527 -0.13931
# Poissons Ratio (y) = 0.05027 0.12016
# Poissons Ratio (z) = -0.12007 0.13447
#
# Static dielectric constant tensor:
#      x y z
#    x 1.698760 0.000000 0.000000 
#    y 0.000000 1.774350 0.000000 
#    z 0.000000 0.000000 1.851420 
# 
# From -- ./inp_files/9731.got.cif
#   From: 2010.05.17/outbox.cif.g08.bks.cpg/sg65_5_cif.got.tgz:9731.got - 2010.06.03 17:01:31.
