data_PCOD9492143
_publ_section_title
;
Structure prediction by ZEFSAII (Michael W. Deem and Ramdas Pophale) SiO2 
 PCOD9492143
Probable space group: C M M M
;
_chemical_formula_sum "Si O2"
_cell_formula_units_Z 56
_cell_length_a 8.614467
_cell_length_b 18.559337
_cell_length_c 18.428178
_cell_angle_alpha 90.000000
_cell_angle_beta 90.000000
_cell_angle_gamma 90.000000
_cell_volume 2946.274913
_symmetry_space_group_name_H-M "C M M M"
_symmetry_group_IT_number 65
_symmetry_cell_setting 'orthorhombic'
loop_
_space_group_symop_operation_xyz
x,y,z
-x,-y,z
x,-y,-z
-x,y,-z
-x,-y,-z
x,y,-z
-x,y,z
x,-y,z
1/2+x,1/2+y,z
1/2-x,1/2-y,z
1/2+x,1/2-y,-z
1/2-x,1/2+y,-z
1/2-x,1/2-y,-z
1/2+x,1/2+y,-z
1/2-x,1/2+y,z
1/2+x,1/2-y,z
loop_
_atom_site_type_symbol
_atom_site_label
_atom_site_fract_x
_atom_site_fract_y
_atom_site_fract_z
Si Si1 0.185154 0.669081 0.638871
Si Si2 0.311979 0.583565 0.223368
Si Si3 0.687335 0.330172 0.918259
Si Si4 0.813446 0.084292 0.500000
O O1 0.250000 0.750000 0.635888
O O2 0.240794 0.630569 0.712381
O O3 0.249159 0.623817 0.571002
O O4 0.000000 0.671215 0.636088
O O5 0.500000 0.587641 0.228333
O O6 0.267512 0.500000 0.230148
O O7 0.264623 0.616149 0.145539
O O8 0.500000 0.327447 0.917890
O O9 0.750000 0.250000 0.903813
O O10 0.736856 0.351124 0.000000
O O11 0.000000 0.088785 0.500000
O O12 0.769614 0.000000 0.500000
#
# Coordination Sequence:
#
# PCOD9492143 Si02
#       4
#    16  16  16   8
#     4  12  25  41  62  87 117 152 193 237 282 336
#     4  10  21  37  57  83 116 152 191 237 289 342
#     4   9  18  33  54  80 110 147 191 237 285 338
#     4  11  24  43  66  91 121 153 186 229 282 337
#
# _framework density 19.007052000000002
#
# number of rings (size 3 to 8) (size 9 to 14) (size 15 to 20)
#    0.000    1.571    0.000    5.143    0.000    9.143 
#    0.000    2.857    0.000    0.000    0.000    6.000 
#    0.000    0.000    0.000    0.000    0.000    0.000 
#
# Total GULP energy -156531.774065 kJ/mol
# GULP energy per Si atom -5590.420502 kJ/mol
# Density = 1.896379 g / cm^3
# Si number density = 19.007052 Si / 1000 Ang^3
#
#
#
# Elastic Constant Matrix: (Units=GPa)
#
#
# Indices 1 2 3 4 5 6 
#
# 1 57.3964 62.6931 52.8239 0.0000 0.0000 0.0000
# 2 62.6931 194.4275 122.4381 0.0000 0.0000 0.0000
# 3 52.8239 122.4381 166.0607 0.0000 0.0000 0.0000
# 4 0.0000 0.0000 0.0000 389.4090 0.0000 0.0000
# 5 0.0000 0.0000 0.0000 0.0000 -9.8709 0.0000
# 6 0.0000 0.0000 0.0000 0.0000 0.0000 29.7223
#
#
#
# Elastic Compliance Matrix: (Units=1/GPa)
#
#
# Indices 1 2 3 4 5 6 
#
# 1 0.028426 -0.006481 -0.004264 0.000000 0.000000 0.000000
# 2 -0.006481 0.011079 -0.006107 0.000000 0.000000 0.000000
# 3 -0.004264 -0.006107 0.011881 0.000000 0.000000 0.000000
# 4 0.000000 0.000000 0.000000 0.002568 0.000000 0.000000
# 5 0.000000 0.000000 0.000000 0.000000 -0.101308 0.000000
# 6 0.000000 0.000000 0.000000 0.000000 0.000000 0.033645
#
#
# Mechanical properties :
#
#
# Convention : Reuss Voigt Hill
#
# Bulk Modulus (GPa) = 56.55389 99.31053 77.93221
# Shear Modulus (GPa) = 193.14196 93.84738 143.49467
#
# Velocity S-wave (km/s) = 10.09141 7.03436 8.69824
# Velocity P-wave (km/s) = 12.86860 10.87837 11.91511
#
# Compressibility (1/GPa) = 0.01768225
#
# Stress axis : x y z
#
# Youngs Moduli (GPa) = 35.17939 90.26246 84.16801
#
# Poissons Ratio (x) = 0.58496 0.35889
# Poissons Ratio (y) = 0.22799 0.51401
# Poissons Ratio (z) = 0.15000 0.55123
#
# Static dielectric constant tensor:
#      x y z
#    x 1.642020 0.000000 0.000000 
#    y 0.000000 1.620020 0.000000 
#    z 0.000000 0.000000 1.647170 
# 
# From -- ./inp_files/35462.got.cif
#   From: 2010.05.17/outbox.cif.g08.bks.cpg/sg65_18_cif.got.tgz:35462.got - 2010.06.03 17:01:31.
