data_PCOD9492777
_publ_section_title
;
Structure prediction by ZEFSAII (Michael W. Deem and Ramdas Pophale) SiO2 
 PCOD9492777
Probable space group: C M M M
;
_chemical_formula_sum "Si O2"
_cell_formula_units_Z 64
_cell_length_a 23.832573
_cell_length_b 8.627762
_cell_length_c 18.694383
_cell_angle_alpha 90.000000
_cell_angle_beta 90.000000
_cell_angle_gamma 90.000000
_cell_volume 3843.972078
_symmetry_space_group_name_H-M "C M M M"
_symmetry_group_IT_number 65
_symmetry_cell_setting 'orthorhombic'
loop_
_space_group_symop_operation_xyz
x,y,z
-x,-y,z
x,-y,-z
-x,y,-z
-x,-y,-z
x,y,-z
-x,y,z
x,-y,z
1/2+x,1/2+y,z
1/2-x,1/2-y,z
1/2+x,1/2-y,-z
1/2-x,1/2+y,-z
1/2-x,1/2-y,-z
1/2+x,1/2+y,-z
1/2-x,1/2+y,z
1/2+x,1/2-y,z
loop_
_atom_site_type_symbol
_atom_site_label
_atom_site_fract_x
_atom_site_fract_y
_atom_site_fract_z
Si Si1 0.382886 0.813363 0.860973
Si Si2 0.813765 0.815063 0.272182
Si Si3 0.313587 0.186003 0.421887
Si Si4 0.000000 0.186252 0.915691
Si Si5 0.312272 0.186233 0.000000
O O1 0.353201 0.747418 0.790591
O O2 0.444810 0.750574 0.876854
O O3 0.345420 0.764774 0.929221
O O4 0.384036 0.000000 0.857381
O O5 0.750000 0.750000 0.263722
O O6 0.836941 0.758953 0.349327
O O7 0.810661 0.000000 0.270643
O O8 0.339145 0.224162 0.500000
O O9 0.250000 0.250000 0.424210
O O10 0.312188 0.000000 0.415017
O O11 0.000000 0.000000 0.913659
O O12 0.000000 0.234178 0.000000
O O13 0.250000 0.250000 0.000000
O O14 0.310287 0.000000 0.000000
#
# Coordination Sequence:
#
# PCOD9492777 Si02
#       5
#    16  16  16   8   8
#     4  11  22  38  56  76 102 137 177 218 264 311
#     4  11  21  33  50  76 109 143 177 216 264 315
#     4   9  16  27  45  70 101 138 176 212 254 307
#     4  11  23  39  59  81 102 131 172 221 267 313
#     4  10  22  35  52  75 101 134 170 208 255 310
#
# _framework density 16.649445
#
# number of rings (size 3 to 8) (size 9 to 14) (size 15 to 20)
#    0.000    1.625    1.250    6.375    0.000    6.000 
#    0.000    0.000    0.000    0.000    0.000    0.875 
#    0.000    7.000    0.000    0.000    0.000    0.000 
#
# Total GULP energy -178578.979291 kJ/mol
# GULP energy per Si atom -5580.593103 kJ/mol
# Density = 1.661155 g / cm^3
# Si number density = 16.649445 Si / 1000 Ang^3
#
#
#
# Elastic Constant Matrix: (Units=GPa)
#
#
# Indices 1 2 3 4 5 6 
#
# 1 110.1937 40.7102 76.5614 0.0000 0.0000 0.0000
# 2 40.7102 96.2723 65.8923 0.0000 0.0000 0.0000
# 3 76.5614 65.8923 194.7503 0.0000 0.0000 0.0000
# 4 0.0000 0.0000 0.0000 -24.8389 0.0000 0.0000
# 5 0.0000 0.0000 0.0000 0.0000 -2.6239 0.0000
# 6 0.0000 0.0000 0.0000 0.0000 0.0000 26.6962
#
#
#
# Elastic Compliance Matrix: (Units=1/GPa)
#
#
# Indices 1 2 3 4 5 6 
#
# 1 0.012965 -0.002595 -0.004219 0.000000 0.000000 0.000000
# 2 -0.002595 0.014037 -0.003729 0.000000 0.000000 0.000000
# 3 -0.004219 -0.003729 0.008055 0.000000 0.000000 0.000000
# 4 0.000000 0.000000 0.000000 -0.040260 0.000000 0.000000
# 5 0.000000 0.000000 0.000000 0.000000 -0.381116 0.000000
# 6 0.000000 0.000000 0.000000 0.000000 0.000000 0.037459
#
#
# Mechanical properties :
#
#
# Convention : Reuss Voigt Hill
#
# Bulk Modulus (GPa) = 71.57684 85.28269 78.42976
# Shear Modulus (GPa) = -15.47422 14.38352 -0.54535
#
# Velocity S-wave (km/s) = -3.05194 2.94241 -0.57294
# Velocity P-wave (km/s) = 5.53758 7.92953 6.83894
#
# Compressibility (1/GPa) = 0.01397100
#
# Stress axis : x y z
#
# Youngs Moduli (GPa) = 77.13211 71.24107 124.14561
#
# Poissons Ratio (x) = 0.18486 0.52375
# Poissons Ratio (y) = 0.20014 0.46296
# Poissons Ratio (z) = 0.32541 0.26567
#
# Static dielectric constant tensor:
#      x y z
#    x 1.529970 0.000000 0.000000 
#    y 0.000000 1.556890 0.000000 
#    z 0.000000 0.000000 1.597790 
# 
# From -- ./inp_files/55340.got.cif
#   From: 2010.05.17/outbox.cif.g08.bks.cpg/sg65_28_cif.got.tgz:55340.got - 2010.06.03 17:01:31.
