data_PCOD9492640
_publ_section_title
;
Structure prediction by ZEFSAII (Michael W. Deem and Ramdas Pophale) SiO2 
 PCOD9492640
Probable space group: C M M M
;
_chemical_formula_sum "Si O2"
_cell_formula_units_Z 112
_cell_length_a 29.621581
_cell_length_b 14.007989
_cell_length_c 14.937794
_cell_angle_alpha 90.000000
_cell_angle_beta 90.000000
_cell_angle_gamma 90.000000
_cell_volume 6198.270030
_symmetry_space_group_name_H-M "C M M M"
_symmetry_group_IT_number 65
_symmetry_cell_setting 'orthorhombic'
loop_
_space_group_symop_operation_xyz
x,y,z
-x,-y,z
x,-y,-z
-x,y,-z
-x,-y,-z
x,y,-z
-x,y,z
x,-y,z
1/2+x,1/2+y,z
1/2-x,1/2-y,z
1/2+x,1/2-y,-z
1/2-x,1/2+y,-z
1/2-x,1/2-y,-z
1/2+x,1/2+y,-z
1/2-x,1/2+y,z
1/2+x,1/2-y,z
loop_
_atom_site_type_symbol
_atom_site_label
_atom_site_fract_x
_atom_site_fract_y
_atom_site_fract_z
Si Si1 0.150487 0.885495 0.898393
Si Si2 0.173166 0.608877 0.399149
Si Si3 0.355166 0.609826 0.602275
Si Si4 0.951037 0.189564 0.342701
Si Si5 0.435294 0.105509 0.602990
Si Si6 0.802092 0.230894 0.259454
Si Si7 0.451199 0.614278 0.140848
O O1 0.173821 0.812904 0.828675
O O2 0.097130 0.859727 0.899298
O O3 0.154437 0.000000 0.873328
O O4 0.167967 0.876515 0.000000
O O5 0.187164 0.643585 0.500000
O O6 0.189929 0.500000 0.389970
O O7 0.118904 0.605951 0.400417
O O8 0.184156 0.672717 0.313153
O O9 0.340440 0.617406 0.500000
O O10 0.362497 0.500000 0.626278
O O11 0.404305 0.659577 0.610761
O O12 0.317423 0.653964 0.665888
O O13 0.950393 0.304255 0.340466
O O14 0.948987 0.145080 0.244308
O O15 0.000000 0.160268 0.382689
O O16 0.450215 0.119174 0.500000
O O17 0.449242 0.000000 0.633247
O O18 0.750000 0.250000 0.239917
O O19 0.500000 0.650019 0.105796
O O20 0.452734 0.500000 0.134217
#
# Coordination Sequence:
#
# PCOD9492640 Si02
#       7
#    16  16  16  16  16  16  16
#     4  10  21  39  63  88 117 152 189 236 297 361
#     4   9  18  34  56  80 107 144 192 240 286 336
#     4  11  23  38  56  81 117 157 196 236 283 348
#     4  11  20  31  52  80 114 156 196 233 280 343
#     4   9  17  30  47  67  98 142 191 240 280 314
#     4  12  24  38  59  82 111 148 191 243 301 354
#     4   9  17  31  55  86 117 149 187 230 277 338
#
# _framework density 18.069557
#
# number of rings (size 3 to 8) (size 9 to 14) (size 15 to 20)
#    0.000    1.857    2.857    2.571    0.000    5.143 
#    0.000    4.286    0.000    0.429    0.000    0.000 
#    0.000    0.000    0.000   12.286    0.000    0.286 
#
# Total GULP energy -311786.536188 kJ/mol
# GULP energy per Si atom -5567.616718 kJ/mol
# Density = 1.802843 g / cm^3
# Si number density = 18.069557 Si / 1000 Ang^3
#
#
#
# Elastic Constant Matrix: (Units=GPa)
#
#
# Indices 1 2 3 4 5 6 
#
# 1 102.6797 41.1280 46.1756 0.0000 0.0000 0.0000
# 2 41.1280 76.3047 29.7346 0.0000 0.0000 0.0000
# 3 46.1756 29.7346 84.5166 0.0000 0.0000 0.0000
# 4 0.0000 0.0000 0.0000 18.9210 0.0000 0.0000
# 5 0.0000 0.0000 0.0000 0.0000 -35.1714 0.0000
# 6 0.0000 0.0000 0.0000 0.0000 0.0000 -2.7093
#
#
#
# Elastic Compliance Matrix: (Units=1/GPa)
#
#
# Indices 1 2 3 4 5 6 
#
# 1 0.014695 -0.005553 -0.006075 0.000000 0.000000 0.000000
# 2 -0.005553 0.017286 -0.003048 0.000000 0.000000 0.000000
# 3 -0.006075 -0.003048 0.016223 0.000000 0.000000 0.000000
# 4 0.000000 0.000000 0.000000 0.052851 0.000000 0.000000
# 5 0.000000 0.000000 0.000000 0.000000 -0.028432 0.000000
# 6 0.000000 0.000000 0.000000 0.000000 0.000000 -0.369097
#
#
# Mechanical properties :
#
#
# Convention : Reuss Voigt Hill
#
# Bulk Modulus (GPa) = 53.04216 55.28637 54.16426
# Shear Modulus (GPa) = -19.16906 5.97224 -6.59841
#
# Velocity S-wave (km/s) = -3.26060 1.81998 -1.91301
# Velocity P-wave (km/s) = 3.90420 5.92277 5.01608
#
# Compressibility (1/GPa) = 0.01885293
#
# Stress axis : x y z
#
# Youngs Moduli (GPa) = 68.04849 57.84959 61.63990
#
# Poissons Ratio (x) = 0.32126 0.37446
# Poissons Ratio (y) = 0.37790 0.18785
# Poissons Ratio (z) = 0.41340 0.17630
#
# Static dielectric constant tensor:
#      x y z
#    x 1.670860 0.000000 0.000000 
#    y 0.000000 1.641420 0.000000 
#    z 0.000000 0.000000 1.631000 
# 
# From -- ./inp_files/47953.got.cif
#   From: 2010.05.17/outbox.cif.g08.bks.cpg/sg65_24_cif.got.tgz:47953.got - 2010.06.03 17:01:31.
