data_PCOD9492716
_publ_section_title
;
Structure prediction by ZEFSAII (Michael W. Deem and Ramdas Pophale) SiO2 
 PCOD9492716
Probable space group: C M M M
;
_chemical_formula_sum "Si O2"
_cell_formula_units_Z 64
_cell_length_a 24.559735
_cell_length_b 15.941389
_cell_length_c 8.681974
_cell_angle_alpha 90.000000
_cell_angle_beta 90.000000
_cell_angle_gamma 90.000000
_cell_volume 3399.134245
_symmetry_space_group_name_H-M "C M M M"
_symmetry_group_IT_number 65
_symmetry_cell_setting 'orthorhombic'
loop_
_space_group_symop_operation_xyz
x,y,z
-x,-y,z
x,-y,-z
-x,y,-z
-x,-y,-z
x,y,-z
-x,y,z
x,-y,z
1/2+x,1/2+y,z
1/2-x,1/2-y,z
1/2+x,1/2-y,-z
1/2-x,1/2+y,-z
1/2-x,1/2-y,-z
1/2+x,1/2+y,-z
1/2-x,1/2+y,z
1/2+x,1/2-y,z
loop_
_atom_site_type_symbol
_atom_site_label
_atom_site_fract_x
_atom_site_fract_y
_atom_site_fract_z
Si Si1 0.707970 0.500000 0.816010
Si Si2 0.000000 0.872898 0.814698
Si Si3 0.086380 0.000000 0.315538
Si Si4 0.500000 0.822408 0.816210
Si Si5 0.390679 0.097255 0.314582
Si Si6 0.726725 0.159210 0.313524
O O1 0.647310 0.500000 0.747242
O O2 0.739395 0.582654 0.757188
O O3 0.705719 0.500000 0.000000
O O4 0.052474 0.920361 0.746866
O O5 0.000000 0.775547 0.772545
O O6 0.000000 0.881467 0.000000
O O7 0.086038 0.000000 0.500000
O O8 0.445822 0.866000 0.753279
O O9 0.500000 0.827839 0.000000
O O10 0.394437 0.100056 0.500000
O O11 0.336480 0.147706 0.268857
O O12 0.383756 0.000000 0.269167
O O13 0.730012 0.152332 0.500000
O O14 0.750000 0.250000 0.268961
#
# Coordination Sequence:
#
# PCOD9492716 Si02
#       6
#     8   8   8   8  16  16
#     4  12  25  41  64  95 132 170 203 254 318 382
#     4  10  22  42  61  89 127 160 196 256 317 364
#     4  11  23  40  65  90 119 163 211 254 299 365
#     4  11  25  39  59  90 125 158 199 249 304 373
#     4  10  21  40  63  88 121 158 203 256 306 358
#     4  10  22  42  67  95 125 163 212 263 310 370
#
# _framework density 18.828323999999999
#
# number of rings (size 3 to 8) (size 9 to 14) (size 15 to 20)
#    0.000    1.500    1.250    4.125    3.500    5.500 
#    0.000    0.000    0.000    0.000    0.000    0.000 
#    0.000    0.000    0.000    0.000    0.000    0.000 
#
# Total GULP energy -178899.992966 kJ/mol
# GULP energy per Si atom -5590.624780 kJ/mol
# Density = 1.878547 g / cm^3
# Si number density = 18.828324 Si / 1000 Ang^3
#
#
#
# Elastic Constant Matrix: (Units=GPa)
#
#
# Indices 1 2 3 4 5 6 
#
# 1 207.7793 105.3890 50.7533 0.0000 0.0000 0.0000
# 2 105.3890 170.7360 52.5509 0.0000 0.0000 0.0000
# 3 50.7533 52.5509 53.2001 0.0000 0.0000 0.0000
# 4 0.0000 0.0000 0.0000 23.2892 0.0000 0.0000
# 5 0.0000 0.0000 0.0000 0.0000 6.2202 0.0000
# 6 0.0000 0.0000 0.0000 0.0000 0.0000 -8.2493
#
#
#
# Elastic Compliance Matrix: (Units=1/GPa)
#
#
# Indices 1 2 3 4 5 6 
#
# 1 0.007481 -0.003479 -0.003701 0.000000 0.000000 0.000000
# 2 -0.003479 0.010033 -0.006592 0.000000 0.000000 0.000000
# 3 -0.003701 -0.006592 0.028839 0.000000 0.000000 0.000000
# 4 0.000000 0.000000 0.000000 0.042938 0.000000 0.000000
# 5 0.000000 0.000000 0.000000 0.000000 0.160766 0.000000
# 6 0.000000 0.000000 0.000000 0.000000 0.000000 -0.121223
#
#
# Mechanical properties :
#
#
# Convention : Reuss Voigt Hill
#
# Bulk Modulus (GPa) = 53.16213 94.34464 73.75338
# Shear Modulus (GPa) = 30.74107 19.12018 24.93062
#
# Velocity S-wave (km/s) = 4.04506 3.19015 3.64277
# Velocity P-wave (km/s) = 7.07906 7.98661 7.54649
#
# Compressibility (1/GPa) = 0.01881038
#
# Stress axis : x y z
#
# Youngs Moduli (GPa) = 133.66635 99.66774 34.67503
#
# Poissons Ratio (x) = 0.34673 0.12833
# Poissons Ratio (y) = 0.46501 0.22858
# Poissons Ratio (z) = 0.49468 0.65702
#
# Static dielectric constant tensor:
#      x y z
#    x 1.620510 0.000000 0.000000 
#    y 0.000000 1.632750 0.000000 
#    z 0.000000 0.000000 1.631250 
# 
# From -- ./inp_files/13415.got.cif
#   From: 2010.05.17/outbox.cif.g08.bks.cpg/sg65_7_cif.got.tgz:13415.got - 2010.06.03 17:01:31.
