data_PCOD9492734
_publ_section_title
;
Structure prediction by ZEFSAII (Michael W. Deem and Ramdas Pophale) SiO2 
 PCOD9492734
Probable space group: C M M M
;
_chemical_formula_sum "Si O2"
_cell_formula_units_Z 72
_cell_length_a 24.623848
_cell_length_b 7.673148
_cell_length_c 16.322996
_cell_angle_alpha 90.000000
_cell_angle_beta 90.000000
_cell_angle_gamma 90.000000
_cell_volume 3084.106530
_symmetry_space_group_name_H-M "C M M M"
_symmetry_group_IT_number 65
_symmetry_cell_setting 'orthorhombic'
loop_
_space_group_symop_operation_xyz
x,y,z
-x,-y,z
x,-y,-z
-x,y,-z
-x,-y,-z
x,y,-z
-x,y,z
x,-y,z
1/2+x,1/2+y,z
1/2-x,1/2-y,z
1/2+x,1/2-y,-z
1/2-x,1/2+y,-z
1/2-x,1/2-y,-z
1/2+x,1/2+y,-z
1/2-x,1/2+y,z
1/2+x,1/2-y,z
loop_
_atom_site_type_symbol
_atom_site_label
_atom_site_fract_x
_atom_site_fract_y
_atom_site_fract_z
Si Si1 0.186430 0.204662 0.208973
Si Si2 0.386022 0.295730 0.355412
Si Si3 0.812185 0.706485 0.500000
Si Si4 0.902587 0.290970 0.091772
Si Si5 0.000000 0.285302 0.788847
Si Si6 0.500000 0.252748 0.598359
O O1 0.250000 0.250000 0.214922
O O2 0.143692 0.281244 0.275395
O O3 0.157658 0.246058 0.123064
O O4 0.183685 0.000000 0.224032
O O5 0.403042 0.500000 0.346877
O O6 0.339220 0.289736 0.421525
O O7 0.437364 0.194360 0.393972
O O8 0.820946 0.500000 0.500000
O O9 0.750000 0.750000 0.500000
O O10 0.907443 0.500000 0.089355
O O11 0.947729 0.232598 0.157431
O O12 0.912869 0.224748 0.000000
O O13 0.000000 0.500000 0.777936
O O14 0.000000 0.200131 0.699026
O O15 0.500000 0.313292 0.500000
#
# Coordination Sequence:
#
# PCOD9492734 Si02
#       6
#    16  16   8  16   8   8
#     4  11  24  42  66  94 129 172 221 273 330 392
#     4  11  24  43  66  94 130 174 220 268 328 396
#     4  12  26  43  66  93 127 170 222 278 331 390
#     4  10  21  40  68  99 131 173 220 267 328 394
#     4  10  21  40  65  95 138 176 214 272 325 390
#     4  12  23  40  67 102 133 175 215 265 328 396
#
# _framework density 23.345497999999999
#
# number of rings (size 3 to 8) (size 9 to 14) (size 15 to 20)
#    0.000    1.111    3.333    3.000    0.000    7.333 
#    0.000    0.556    0.000    1.333    0.000    0.000 
#    0.000    0.000    0.000    0.000    0.000    0.000 
#
# Total GULP energy -200427.625457 kJ/mol
# GULP energy per Si atom -5567.434040 kJ/mol
# Density = 2.329236 g / cm^3
# Si number density = 23.345498 Si / 1000 Ang^3
#
#
#
# Elastic Constant Matrix: (Units=GPa)
#
#
# Indices 1 2 3 4 5 6 
#
# 1 200.7199 12.9678 79.7298 0.0000 0.0000 0.0000
# 2 12.9678 83.1679 10.7849 0.0000 0.0000 0.0000
# 3 79.7298 10.7849 178.6787 0.0000 0.0000 0.0000
# 4 0.0000 0.0000 0.0000 -83.7699 0.0000 0.0000
# 5 0.0000 0.0000 0.0000 0.0000 38.7853 0.0000
# 6 0.0000 0.0000 0.0000 0.0000 0.0000 20.6516
#
#
#
# Elastic Compliance Matrix: (Units=1/GPa)
#
#
# Indices 1 2 3 4 5 6 
#
# 1 0.006085 -0.000601 -0.002679 0.000000 0.000000 0.000000
# 2 -0.000601 0.012178 -0.000467 0.000000 0.000000 0.000000
# 3 -0.002679 -0.000467 0.006820 0.000000 0.000000 0.000000
# 4 0.000000 0.000000 0.000000 -0.011937 0.000000 0.000000
# 5 0.000000 0.000000 0.000000 0.000000 0.025783 0.000000
# 6 0.000000 0.000000 0.000000 0.000000 0.000000 0.048422
#
#
# Mechanical properties :
#
#
# Convention : Reuss Voigt Hill
#
# Bulk Modulus (GPa) = 56.85281 74.39239 65.62260
# Shear Modulus (GPa) = 49.64820 19.07233 34.36026
#
# Velocity S-wave (km/s) = 4.61659 2.86135 3.84059
# Velocity P-wave (km/s) = 7.26793 6.54610 6.91644
#
# Compressibility (1/GPa) = 0.01758928
#
# Stress axis : x y z
#
# Youngs Moduli (GPa) = 164.33690 82.11420 146.62296
#
# Poissons Ratio (x) = 0.04938 0.39280
# Poissons Ratio (y) = 0.09883 0.06843
# Poissons Ratio (z) = 0.44025 0.03832
#
# Static dielectric constant tensor:
#      x y z
#    x 1.880690 0.000000 0.000000 
#    y 0.000000 1.974540 0.000000 
#    z 0.000000 0.000000 1.972780 
# 
# From -- ./inp_files/46595.got.cif
#   From: 2010.05.17/outbox.cif.g08.bks.cpg/sg65_24_cif.got.tgz:46595.got - 2010.06.03 17:01:31.
