data_PCOD9492642
_publ_section_title
;
Structure prediction by ZEFSAII (Michael W. Deem and Ramdas Pophale) SiO2 
 PCOD9492642
Probable space group: C M M M
;
_chemical_formula_sum "Si O2"
_cell_formula_units_Z 64
_cell_length_a 18.463701
_cell_length_b 8.769770
_cell_length_c 20.925569
_cell_angle_alpha 90.000000
_cell_angle_beta 90.000000
_cell_angle_gamma 90.000000
_cell_volume 3388.318587
_symmetry_space_group_name_H-M "C M M M"
_symmetry_group_IT_number 65
_symmetry_cell_setting 'orthorhombic'
loop_
_space_group_symop_operation_xyz
x,y,z
-x,-y,z
x,-y,-z
-x,y,-z
-x,-y,-z
x,y,-z
-x,y,z
x,-y,z
1/2+x,1/2+y,z
1/2-x,1/2-y,z
1/2+x,1/2-y,-z
1/2-x,1/2+y,-z
1/2-x,1/2-y,-z
1/2+x,1/2+y,-z
1/2-x,1/2+y,z
1/2+x,1/2-y,z
loop_
_atom_site_type_symbol
_atom_site_label
_atom_site_fract_x
_atom_site_fract_y
_atom_site_fract_z
Si Si1 0.669748 0.181996 0.000000
Si Si2 0.585784 0.182632 0.500000
Si Si3 0.669447 0.682268 0.621305
Si Si4 0.086391 0.819447 0.879535
Si Si5 0.913974 0.318283 0.741357
O O1 0.750000 0.250000 0.000000
O O2 0.628240 0.241571 0.937370
O O3 0.672103 0.000000 0.000000
O O4 0.500000 0.213753 0.500000
O O5 0.622986 0.253011 0.437599
O O6 0.595952 0.000000 0.500000
O O7 0.672190 0.500000 0.618422
O O8 0.750000 0.750000 0.617601
O O9 0.631593 0.736861 0.686540
O O10 0.105064 0.745361 0.811334
O O11 0.000000 0.799597 0.888928
O O12 0.101607 0.000000 0.878316
O O13 0.902328 0.500000 0.738821
O O14 0.000000 0.289912 0.731323
#
# Coordination Sequence:
#
# PCOD9492642 Si02
#       5
#     8   8  16  16  16
#     4  12  25  40  59  85 119 157 199 246 299 356
#     4  11  24  43  66  91 121 157 198 245 296 351
#     4  12  25  41  62  89 123 160 200 245 296 353
#     4  10  21  39  63  90 120 155 197 244 294 351
#     4  10  21  39  63  91 122 156 197 244 294 350
#
# _framework density 18.888425000000002
#
# number of rings (size 3 to 8) (size 9 to 14) (size 15 to 20)
#    0.000    1.125    0.000    6.750    0.000    9.500 
#    0.000    5.000    0.000    0.000    0.000    0.000 
#    0.000    0.000    0.000    0.000    0.000    0.000 
#
# Total GULP energy -179086.206161 kJ/mol
# GULP energy per Si atom -5596.443943 kJ/mol
# Density = 1.884543 g / cm^3
# Si number density = 18.888425 Si / 1000 Ang^3
#
#
#
# Elastic Constant Matrix: (Units=GPa)
#
#
# Indices 1 2 3 4 5 6 
#
# 1 120.3141 109.4139 118.0887 0.0000 0.0000 0.0000
# 2 109.4139 174.8008 111.8300 0.0000 0.0000 0.0000
# 3 118.0887 111.8300 199.5141 0.0000 0.0000 0.0000
# 4 0.0000 0.0000 0.0000 -5.9693 0.0000 0.0000
# 5 0.0000 0.0000 0.0000 0.0000 -359.8794 0.0000
# 6 0.0000 0.0000 0.0000 0.0000 0.0000 32.9945
#
#
#
# Elastic Compliance Matrix: (Units=1/GPa)
#
#
# Indices 1 2 3 4 5 6 
#
# 1 0.029624 -0.011421 -0.011133 0.000000 0.000000 0.000000
# 2 -0.011421 0.013322 -0.000707 0.000000 0.000000 0.000000
# 3 -0.011133 -0.000707 0.011998 0.000000 0.000000 0.000000
# 4 0.000000 0.000000 0.000000 -0.167523 0.000000 0.000000
# 5 0.000000 0.000000 0.000000 0.000000 -0.002779 0.000000
# 6 0.000000 0.000000 0.000000 0.000000 0.000000 0.030308
#
#
# Mechanical properties :
#
#
# Convention : Reuss Voigt Hill
#
# Bulk Modulus (GPa) = 118.72739 130.36604 124.54671
# Shear Modulus (GPa) = -139.97835 -56.21776 -98.09806
#
# Velocity S-wave (km/s) = -8.61794 -5.46147 -7.21445
# Velocity P-wave (km/s) = 6.00262 5.42205 1.82111
#
# Compressibility (1/GPa) = 0.00842266
#
# Stress axis : x y z
#
# Youngs Moduli (GPa) = 33.75606 75.06381 83.34779
#
# Poissons Ratio (x) = 0.85728 0.92788
# Poissons Ratio (y) = 0.38552 0.05896
# Poissons Ratio (z) = 0.37579 0.05310
#
# Static dielectric constant tensor:
#      x y z
#    x 1.629960 0.000000 0.000000 
#    y 0.000000 1.626640 0.000000 
#    z 0.000000 0.000000 1.614940 
# 
# From -- ./inp_files/63288.got.cif
#   From: 2010.05.17/outbox.cif.g08.bks.cpg/sg65_32_cif.got.tgz:63288.got - 2010.06.03 17:01:31.
