data_PCOD9492614
_publ_section_title
;
Structure prediction by ZEFSAII (Michael W. Deem and Ramdas Pophale) SiO2 
 PCOD9492614
Probable space group: C M M M
;
_chemical_formula_sum "Si O2"
_cell_formula_units_Z 88
_cell_length_a 24.634992
_cell_length_b 8.731215
_cell_length_c 22.339311
_cell_angle_alpha 90.000000
_cell_angle_beta 90.000000
_cell_angle_gamma 90.000000
_cell_volume 4805.038617
_symmetry_space_group_name_H-M "C M M M"
_symmetry_group_IT_number 65
_symmetry_cell_setting 'orthorhombic'
loop_
_space_group_symop_operation_xyz
x,y,z
-x,-y,z
x,-y,-z
-x,y,-z
-x,-y,-z
x,y,-z
-x,y,z
x,-y,z
1/2+x,1/2+y,z
1/2-x,1/2-y,z
1/2+x,1/2-y,-z
1/2-x,1/2+y,-z
1/2-x,1/2-y,-z
1/2+x,1/2+y,-z
1/2-x,1/2+y,z
1/2+x,1/2-y,z
loop_
_atom_site_type_symbol
_atom_site_label
_atom_site_fract_x
_atom_site_fract_y
_atom_site_fract_z
Si Si1 0.189034 0.816568 0.500000
Si Si2 0.902724 0.182245 0.853756
Si Si3 0.063371 0.684901 0.274199
Si Si4 0.113438 0.317339 0.604170
Si Si5 0.000000 0.172237 0.570232
Si Si6 0.310373 0.183474 0.067509
Si Si7 0.500000 0.819333 0.928918
O O1 0.250000 0.750000 0.500000
O O2 0.156430 0.760465 0.440570
O O3 0.190461 0.000000 0.500000
O O4 0.918432 0.247923 0.788982
O O5 0.846933 0.245452 0.880806
O O6 0.948108 0.241441 0.899601
O O7 0.902107 0.000000 0.851273
O O8 0.062701 0.500000 0.271494
O O9 0.107149 0.727348 0.325709
O O10 0.000000 0.731619 0.287167
O O11 0.120873 0.500000 0.600007
O O12 0.053598 0.268043 0.583486
O O13 0.000000 0.150109 0.500000
O O14 0.000000 0.000000 0.598001
O O15 0.250000 0.250000 0.071018
O O16 0.309626 0.000000 0.072727
O O17 0.331439 0.220488 0.000000
O O18 0.500000 0.000000 0.914034
O O19 0.500000 0.803569 0.000000
#
# Coordination Sequence:
#
# PCOD9492614 Si02
#       7
#     8  16  16  16   8  16   8
#     4  12  26  45  66  93 126 164 202 248 304 362
#     4  12  24  37  57  87 122 160 201 250 305 363
#     4  10  21  39  61  87 122 164 205 246 298 361
#     4  11  22  39  64  92 121 159 203 251 300 354
#     4  11  21  32  53  90 126 155 189 237 293 348
#     4  10  21  39  63  88 115 151 196 249 304 357
#     4  11  23  38  57  82 117 163 209 253 307 369
#
# _framework density 18.314108999999998
#
# number of rings (size 3 to 8) (size 9 to 14) (size 15 to 20)
#    0.000    1.091    2.727    4.636    0.000    5.818 
#    0.000    0.909    0.000    4.364    0.000    0.000 
#    0.000    0.000    0.000    0.000    0.000    0.000 
#
# Total GULP energy -245654.212693 kJ/mol
# GULP energy per Si atom -5583.050288 kJ/mol
# Density = 1.827243 g / cm^3
# Si number density = 18.314109 Si / 1000 Ang^3
#
#
#
# Elastic Constant Matrix: (Units=GPa)
#
#
# Indices 1 2 3 4 5 6 
#
# 1 111.5982 37.6863 63.4680 0.0000 0.0000 0.0000
# 2 37.6863 75.8809 58.1848 0.0000 0.0000 0.0000
# 3 63.4680 58.1848 114.8744 0.0000 0.0000 0.0000
# 4 0.0000 0.0000 0.0000 10.2733 0.0000 0.0000
# 5 0.0000 0.0000 0.0000 0.0000 28.2695 0.0000
# 6 0.0000 0.0000 0.0000 0.0000 0.0000 37.6972
#
#
#
# Elastic Compliance Matrix: (Units=1/GPa)
#
#
# Indices 1 2 3 4 5 6 
#
# 1 0.013180 -0.001573 -0.006485 0.000000 0.000000 0.000000
# 2 -0.001573 0.021735 -0.010140 0.000000 0.000000 0.000000
# 3 -0.006485 -0.010140 0.017424 0.000000 0.000000 0.000000
# 4 0.000000 0.000000 0.000000 0.097339 0.000000 0.000000
# 5 0.000000 0.000000 0.000000 0.000000 0.035374 0.000000
# 6 0.000000 0.000000 0.000000 0.000000 0.000000 0.026527
#
#
# Mechanical properties :
#
#
# Convention : Reuss Voigt Hill
#
# Bulk Modulus (GPa) = 62.72348 69.00349 65.86349
# Shear Modulus (GPa) = 19.74019 24.78230 22.26125
#
# Velocity S-wave (km/s) = 3.28665 3.68255 3.49022
# Velocity P-wave (km/s) = 6.98039 7.47269 7.23073
#
# Compressibility (1/GPa) = 0.01594299
#
# Stress axis : x y z
#
# Youngs Moduli (GPa) = 75.87104 46.00893 57.39164
#
# Poissons Ratio (x) = 0.07238 0.37220
# Poissons Ratio (y) = 0.11935 0.58194
# Poissons Ratio (z) = 0.49205 0.46652
#
# Static dielectric constant tensor:
#      x y z
#    x 1.606330 0.000000 0.000000 
#    y 0.000000 1.625760 0.000000 
#    z 0.000000 0.000000 1.655210 
# 
# From -- ./inp_files/65221.got.cif
#   From: 2010.05.17/outbox.cif.g08.bks.cpg/sg65_33_cif.got.tgz:65221.got - 2010.06.03 17:01:31.
