data_PCOD9492300
_publ_section_title
;
Structure prediction by ZEFSAII (Michael W. Deem and Ramdas Pophale) SiO2 
 PCOD9492300
Probable space group: C M M M
;
_chemical_formula_sum "Si O2"
_cell_formula_units_Z 64
_cell_length_a 11.820891
_cell_length_b 28.969279
_cell_length_c 9.410185
_cell_angle_alpha 90.000000
_cell_angle_beta 90.000000
_cell_angle_gamma 90.000000
_cell_volume 3222.449059
_symmetry_space_group_name_H-M "C M M M"
_symmetry_group_IT_number 65
_symmetry_cell_setting 'orthorhombic'
loop_
_space_group_symop_operation_xyz
x,y,z
-x,-y,z
x,-y,-z
-x,y,-z
-x,-y,-z
x,y,-z
-x,y,z
x,-y,z
1/2+x,1/2+y,z
1/2-x,1/2-y,z
1/2+x,1/2-y,-z
1/2-x,1/2+y,-z
1/2-x,1/2-y,-z
1/2+x,1/2+y,-z
1/2-x,1/2+y,z
1/2+x,1/2-y,z
loop_
_atom_site_type_symbol
_atom_site_label
_atom_site_fract_x
_atom_site_fract_y
_atom_site_fract_z
Si Si1 0.247918 0.553113 0.844194
Si Si2 0.500000 0.447617 0.255896
Si Si3 0.780597 0.196404 0.831827
Si Si4 0.865829 0.628278 0.662568
Si Si5 0.000000 0.158305 0.664112
O O1 0.212300 0.500000 0.834352
O O2 0.383698 0.554050 0.831607
O O3 0.194829 0.582448 0.718841
O O4 0.214593 0.571297 0.000000
O O5 0.500000 0.500000 0.324355
O O6 0.500000 0.398045 0.335374
O O7 0.750000 0.250000 0.811327
O O8 0.676849 0.167742 0.767634
O O9 0.890377 0.178079 0.746555
O O10 0.796945 0.188188 0.000000
O O11 0.832166 0.638399 0.500000
O O12 0.000000 0.622982 0.668196
O O13 0.000000 0.173441 0.500000
#
# Coordination Sequence:
#
# PCOD9492300 Si02
#       5
#    16   8  16  16   8
#     4  10  21  38  63  94 128 169 215 264 319 382
#     4  10  21  37  63 101 138 172 210 261 322 388
#     4  11  26  46  69  96 127 168 218 271 325 383
#     4  11  25  43  63  91 127 168 212 264 327 387
#     4  12  25  42  70 104 137 175 215 267 333 393
#
# _framework density 19.860671
#
# number of rings (size 3 to 8) (size 9 to 14) (size 15 to 20)
#    0.000    1.250    2.500    2.250    1.750    7.750 
#    0.000    5.000    0.000    0.000    0.000    0.000 
#    0.000    0.000    0.000    0.000    0.000    0.000 
#
# Total GULP energy -178667.009402 kJ/mol
# GULP energy per Si atom -5583.344044 kJ/mol
# Density = 1.981547 g / cm^3
# Si number density = 19.860671 Si / 1000 Ang^3
#
#
#
# Elastic Constant Matrix: (Units=GPa)
#
#
# Indices 1 2 3 4 5 6 
#
# 1 80.1945 37.1791 48.3168 0.0000 0.0000 0.0000
# 2 37.1791 123.3676 63.4439 0.0000 0.0000 0.0000
# 3 48.3168 63.4439 136.1502 0.0000 0.0000 0.0000
# 4 0.0000 0.0000 0.0000 -74.9948 0.0000 0.0000
# 5 0.0000 0.0000 0.0000 0.0000 15.4221 0.0000
# 6 0.0000 0.0000 0.0000 0.0000 0.0000 15.7931
#
#
#
# Elastic Compliance Matrix: (Units=1/GPa)
#
#
# Indices 1 2 3 4 5 6 
#
# 1 0.016459 -0.002573 -0.004642 0.000000 0.000000 0.000000
# 2 -0.002573 0.011063 -0.004242 0.000000 0.000000 0.000000
# 3 -0.004642 -0.004242 0.010969 0.000000 0.000000 0.000000
# 4 0.000000 0.000000 0.000000 -0.013334 0.000000 0.000000
# 5 0.000000 0.000000 0.000000 0.000000 0.064842 0.000000
# 6 0.000000 0.000000 0.000000 0.000000 0.000000 0.063319
#
#
# Mechanical properties :
#
#
# Convention : Reuss Voigt Hill
#
# Bulk Modulus (GPa) = 64.19776 70.84354 67.52065
# Shear Modulus (GPa) = 27.55971 3.96226 15.76099
#
# Velocity S-wave (km/s) = 3.72916 1.41399 2.82011
# Velocity P-wave (km/s) = 7.13698 6.19786 6.68393
#
# Compressibility (1/GPa) = 0.01557687
#
# Stress axis : x y z
#
# Youngs Moduli (GPa) = 60.75552 90.39309 91.16689
#
# Poissons Ratio (x) = 0.23259 0.42320
# Poissons Ratio (y) = 0.15633 0.38673
# Poissons Ratio (z) = 0.28203 0.38344
#
# Static dielectric constant tensor:
#      x y z
#    x 1.679550 0.000000 0.000000 
#    y 0.000000 1.716990 0.000000 
#    z 0.000000 0.000000 1.686300 
# 
# From -- ./inp_files/4965.got.cif
#   From: 2010.05.17/outbox.cif.g08.bks.cpg/sg65_3_cif.got.tgz:4965.got - 2010.06.03 17:01:31.
