data_PCOD9492884
_publ_section_title
;
Structure prediction by ZEFSAII (Michael W. Deem and Ramdas Pophale) SiO2 
 PCOD9492884
Probable space group: C M M M
;
_chemical_formula_sum "Si O2"
_cell_formula_units_Z 90
_cell_length_a 25.319775
_cell_length_b 21.709323
_cell_length_c 7.997954
_cell_angle_alpha 90.000000
_cell_angle_beta 90.000000
_cell_angle_gamma 90.000000
_cell_volume 4396.276755
_symmetry_space_group_name_H-M "C M M M"
_symmetry_group_IT_number 65
_symmetry_cell_setting 'orthorhombic'
loop_
_space_group_symop_operation_xyz
x,y,z
-x,-y,z
x,-y,-z
-x,y,-z
-x,-y,-z
x,y,-z
-x,y,z
x,-y,z
1/2+x,1/2+y,z
1/2-x,1/2-y,z
1/2+x,1/2-y,-z
1/2-x,1/2+y,-z
1/2-x,1/2-y,-z
1/2+x,1/2+y,-z
1/2-x,1/2+y,z
1/2+x,1/2-y,z
loop_
_atom_site_type_symbol
_atom_site_label
_atom_site_fract_x
_atom_site_fract_y
_atom_site_fract_z
Si Si1 0.441897 0.097956 0.695457
Si Si2 0.673192 0.067093 0.701296
Si Si3 0.500000 0.500000 0.500000
Si Si4 0.108391 0.066416 0.500000
Si Si5 0.059104 0.736731 0.801369
Si Si6 0.243485 0.682528 0.810504
Si Si7 0.865884 0.150811 0.189779
O O1 0.443547 0.080390 0.500000
O O2 0.500000 0.082001 0.767870
O O3 0.387179 0.072324 0.766541
O O4 0.436405 0.171954 0.708748
O O5 0.670638 0.066219 0.500000
O O6 0.706479 0.128036 0.744045
O O7 0.695137 0.000000 0.756143
O O8 0.546573 0.552053 0.500000
O O9 0.121529 0.102238 0.668051
O O10 0.136643 0.000000 0.500000
O O11 0.104340 0.785747 0.763101
O O12 0.000000 0.762132 0.767760
O O13 0.062241 0.723478 0.000000
O O14 0.250000 0.750000 0.726502
O O15 0.303233 0.658718 0.814921
O O16 0.223564 0.694401 0.000000
O O17 0.883789 0.134755 0.000000
#
# Coordination Sequence:
#
# PCOD9492884 Si02
#       7
#    16  16   2   8  16  16  16
#     4   9  18  33  53  82 115 152 193 237 290 348
#     4  10  22  38  57  83 117 156 200 244 295 358
#     4   8  24  48  58  92 120 162 216 248 330 380
#     4  10  24  42  61  85 120 158 204 258 308 375
#     4   9  18  32  54  84 115 147 185 237 299 357
#     4  10  22  41  63  88 120 156 200 254 310 371
#     4  10  22  39  61  89 118 157 203 250 311 373
#
# _framework density 20.471868000000001
#
# number of rings (size 3 to 8) (size 9 to 14) (size 15 to 20)
#    0.267    2.133    0.000    1.067    3.733    4.267 
#    0.000    4.000    0.000    0.000    0.000    3.733 
#    0.000    0.000    0.000    0.000    0.000    0.000 
#
# Total GULP energy -250536.791546 kJ/mol
# GULP energy per Si atom -5567.484257 kJ/mol
# Density = 2.042527 g / cm^3
# Si number density = 20.471868 Si / 1000 Ang^3
#
#
#
# Elastic Constant Matrix: (Units=GPa)
#
#
# Indices 1 2 3 4 5 6 
#
# 1 108.4031 56.8339 14.6424 0.0000 0.0000 0.0000
# 2 56.8339 136.2932 40.3191 0.0000 0.0000 0.0000
# 3 14.6424 40.3191 45.0096 0.0000 0.0000 0.0000
# 4 0.0000 0.0000 0.0000 67.6009 0.0000 0.0000
# 5 0.0000 0.0000 0.0000 0.0000 36.3578 0.0000
# 6 0.0000 0.0000 0.0000 0.0000 0.0000 28.4016
#
#
#
# Elastic Compliance Matrix: (Units=1/GPa)
#
#
# Indices 1 2 3 4 5 6 
#
# 1 0.011826 -0.005161 0.000776 0.000000 0.000000 0.000000
# 2 -0.005161 0.012235 -0.009281 0.000000 0.000000 0.000000
# 3 0.000776 -0.009281 0.030279 0.000000 0.000000 0.000000
# 4 0.000000 0.000000 0.000000 0.014793 0.000000 0.000000
# 5 0.000000 0.000000 0.000000 0.000000 0.027504 0.000000
# 6 0.000000 0.000000 0.000000 0.000000 0.000000 0.035209
#
#
# Mechanical properties :
#
#
# Convention : Reuss Voigt Hill
#
# Bulk Modulus (GPa) = 37.02650 57.03297 47.02974
# Shear Modulus (GPa) = 29.73011 38.33274 34.03143
#
# Velocity S-wave (km/s) = 3.81496 4.33189 4.08162
# Velocity P-wave (km/s) = 6.12626 7.27599 6.72574
#
# Compressibility (1/GPa) = 0.02700768
#
# Stress axis : x y z
#
# Youngs Moduli (GPa) = 84.56119 81.73488 33.02651
#
# Poissons Ratio (x) = 0.42182 -0.02562
# Poissons Ratio (y) = 0.43641 0.30651
# Poissons Ratio (z) = -0.06561 0.75856
#
# Static dielectric constant tensor:
#      x y z
#    x 1.722080 0.000000 0.000000 
#    y 0.000000 1.761960 0.000000 
#    z 0.000000 0.000000 1.762760 
# 
# From -- ./inp_files/14014.got.cif
#   From: 2010.05.17/outbox.cif.g08.bks.cpg/sg65_8_cif.got.tgz:14014.got - 2010.06.03 17:01:31.
