data_PCOD9492747
_publ_section_title
;
Structure prediction by ZEFSAII (Michael W. Deem and Ramdas Pophale) SiO2 
 PCOD9492747
Probable space group: C M M M
;
_chemical_formula_sum "Si O2"
_cell_formula_units_Z 96
_cell_length_a 19.626438
_cell_length_b 15.178834
_cell_length_c 15.867510
_cell_angle_alpha 90.000000
_cell_angle_beta 90.000000
_cell_angle_gamma 90.000000
_cell_volume 4727.033486
_symmetry_space_group_name_H-M "C M M M"
_symmetry_group_IT_number 65
_symmetry_cell_setting 'orthorhombic'
loop_
_space_group_symop_operation_xyz
x,y,z
-x,-y,z
x,-y,-z
-x,y,-z
-x,-y,-z
x,y,-z
-x,y,z
x,-y,z
1/2+x,1/2+y,z
1/2-x,1/2-y,z
1/2+x,1/2-y,-z
1/2-x,1/2+y,-z
1/2-x,1/2-y,-z
1/2+x,1/2+y,-z
1/2-x,1/2+y,z
1/2+x,1/2-y,z
loop_
_atom_site_type_symbol
_atom_site_label
_atom_site_fract_x
_atom_site_fract_y
_atom_site_fract_z
Si Si1 0.258904 0.855257 0.403576
Si Si2 0.000000 0.595911 0.665316
Si Si3 0.500000 0.718149 0.404879
Si Si4 0.643924 0.900236 0.752731
Si Si5 0.582279 0.599896 0.862794
Si Si6 0.330625 0.769508 0.092465
Si Si7 0.887586 0.904103 0.665676
O O1 0.275603 0.882990 0.500000
O O2 0.250000 0.750000 0.404464
O O3 0.313059 0.878882 0.331609
O O4 0.187029 0.894381 0.372998
O O5 0.934003 0.602445 0.723745
O O6 0.000000 0.500000 0.623302
O O7 0.000000 0.677679 0.603253
O O8 0.500000 0.688911 0.500000
O O9 0.433848 0.676297 0.362973
O O10 0.654330 0.831843 0.828181
O O11 0.661878 0.000000 0.779437
O O12 0.500000 0.615594 0.863933
O O13 0.593015 0.500000 0.896834
O O14 0.624651 0.679864 0.902541
O O15 0.609012 0.597731 0.766543
O O16 0.250000 0.750000 0.096653
O O17 0.344483 0.810160 0.000000
O O18 0.915619 0.000000 0.639266
#
# Coordination Sequence:
#
# PCOD9492747 Si02
#       7
#    16   8   8  16  16  16  16
#     4  11  23  39  62  93 130 174 223 273 328 389
#     4  10  24  44  64  86 113 153 215 278 327 380
#     4  12  23  35  56  86 123 165 208 261 324 384
#     4  11  24  43  66  91 124 171 221 272 327 385
#     4  10  21  40  68  99 132 175 222 270 334 406
#     4  11  25  43  66  99 135 172 214 267 332 400
#     4  11  22  37  59  91 129 170 212 258 316 387
#
# _framework density 20.308720000000001
#
# number of rings (size 3 to 8) (size 9 to 14) (size 15 to 20)
#    0.000    1.167    0.833    5.750    1.167    7.833 
#    0.000    4.167    0.000    1.500    0.000    0.000 
#    0.000    0.000    0.000    0.000    0.000    0.000 
#
# Total GULP energy -268189.180066 kJ/mol
# GULP energy per Si atom -5587.274585 kJ/mol
# Density = 2.026250 g / cm^3
# Si number density = 20.308720 Si / 1000 Ang^3
#
#
#
# Elastic Constant Matrix: (Units=GPa)
#
#
# Indices 1 2 3 4 5 6 
#
# 1 110.7188 50.8352 58.1064 0.0000 0.0000 0.0000
# 2 50.8352 121.8169 52.3430 0.0000 0.0000 0.0000
# 3 58.1064 52.3430 130.2812 0.0000 0.0000 0.0000
# 4 0.0000 0.0000 0.0000 894.0281 0.0000 0.0000
# 5 0.0000 0.0000 0.0000 0.0000 -8.6503 0.0000
# 6 0.0000 0.0000 0.0000 0.0000 0.0000 35.8312
#
#
#
# Elastic Compliance Matrix: (Units=1/GPa)
#
#
# Indices 1 2 3 4 5 6 
#
# 1 0.012936 -0.003528 -0.004352 0.000000 0.000000 0.000000
# 2 -0.003528 0.010884 -0.002799 0.000000 0.000000 0.000000
# 3 -0.004352 -0.002799 0.010741 0.000000 0.000000 0.000000
# 4 0.000000 0.000000 0.000000 0.001119 0.000000 0.000000
# 5 0.000000 0.000000 0.000000 0.000000 -0.115602 0.000000
# 6 0.000000 0.000000 0.000000 0.000000 0.000000 0.027909
#
#
# Mechanical properties :
#
#
# Convention : Reuss Voigt Hill
#
# Bulk Modulus (GPa) = 75.74375 76.15402 75.94888
# Shear Modulus (GPa) = -190.44714 197.67727 3.61507
#
# Velocity S-wave (km/s) = -9.69431 9.87661 1.33563
# Velocity P-wave (km/s) = 9.37705 12.94770 6.31323
#
# Compressibility (1/GPa) = 0.01320241
#
# Stress axis : x y z
#
# Youngs Moduli (GPa) = 77.30506 91.87593 93.09789
#
# Poissons Ratio (x) = 0.32416 0.40515
# Poissons Ratio (y) = 0.27275 0.26061
# Poissons Ratio (z) = 0.33642 0.25719
#
# Static dielectric constant tensor:
#      x y z
#    x 1.712320 0.000000 0.000000 
#    y 0.000000 1.747180 0.000000 
#    z 0.000000 0.000000 1.693350 
# 
# From -- ./inp_files/44171.got.cif
#   From: 2010.05.17/outbox.cif.g08.bks.cpg/sg65_23_cif.got.tgz:44171.got - 2010.06.03 17:01:31.
