data_PCOD9492338
_publ_section_title
;
Structure prediction by ZEFSAII (Michael W. Deem and Ramdas Pophale) SiO2 
 PCOD9492338
Probable space group: C M M M
;
_chemical_formula_sum "Si O2"
_cell_formula_units_Z 56
_cell_length_a 22.732716
_cell_length_b 7.935656
_cell_length_c 14.082864
_cell_angle_alpha 90.000000
_cell_angle_beta 90.000000
_cell_angle_gamma 90.000000
_cell_volume 2540.534782
_symmetry_space_group_name_H-M "C M M M"
_symmetry_group_IT_number 65
_symmetry_cell_setting 'orthorhombic'
loop_
_space_group_symop_operation_xyz
x,y,z
-x,-y,z
x,-y,-z
-x,y,-z
-x,-y,-z
x,y,-z
-x,y,z
x,-y,z
1/2+x,1/2+y,z
1/2-x,1/2-y,z
1/2+x,1/2-y,-z
1/2-x,1/2+y,-z
1/2-x,1/2-y,-z
1/2+x,1/2+y,-z
1/2-x,1/2+y,z
1/2+x,1/2-y,z
loop_
_atom_site_type_symbol
_atom_site_label
_atom_site_fract_x
_atom_site_fract_y
_atom_site_fract_z
Si Si1 0.811285 0.297302 0.203969
Si Si2 0.145030 0.188730 0.391482
Si Si3 0.935145 0.704331 0.887978
Si Si4 0.063530 0.500000 0.613830
O O1 0.813358 0.500000 0.213458
O O2 0.750000 0.250000 0.153172
O O3 0.809333 0.207958 0.306941
O O4 0.873226 0.239432 0.157532
O O5 0.166033 0.222143 0.500000
O O6 0.097981 0.330772 0.364767
O O7 0.120607 0.000000 0.391256
O O8 0.935216 0.500000 0.879182
O O9 0.000000 0.763491 0.852217
O O10 0.933084 0.743663 0.000000
O O11 0.058392 0.500000 0.500000
O O12 0.000000 0.500000 0.659082
#
# Coordination Sequence:
#
# PCOD9492338 Si02
#       4
#    16  16  16   8
#     4  11  22  36  57  89 124 161 203 257 312 368
#     4  10  21  38  58  83 120 164 210 259 308 359
#     4   8  16  34  60  88 117 154 202 251 304 370
#     4   9  18  34  56  82 115 157 204 251 301 361
#
# _framework density 22.042604000000001
#
# number of rings (size 3 to 8) (size 9 to 14) (size 15 to 20)
#    0.000    2.429    1.429    1.714    0.000    2.857 
#    0.000    2.857    0.000    5.143    0.000    8.000 
#    0.000    0.000    0.000    0.000    0.000    0.000 
#
# Total GULP energy -156064.927921 kJ/mol
# GULP energy per Si atom -5573.747426 kJ/mol
# Density = 2.199243 g / cm^3
# Si number density = 22.042604 Si / 1000 Ang^3
#
#
#
# Elastic Constant Matrix: (Units=GPa)
#
#
# Indices 1 2 3 4 5 6 
#
# 1 198.4996 36.6695 60.5702 0.0000 0.0000 0.0000
# 2 36.6695 89.2893 10.1658 0.0000 0.0000 0.0000
# 3 60.5702 10.1658 69.6490 0.0000 0.0000 0.0000
# 4 0.0000 0.0000 0.0000 -9.5884 0.0000 0.0000
# 5 0.0000 0.0000 0.0000 0.0000 15.1718 0.0000
# 6 0.0000 0.0000 0.0000 0.0000 0.0000 -2.1809
#
#
#
# Elastic Compliance Matrix: (Units=1/GPa)
#
#
# Indices 1 2 3 4 5 6 
#
# 1 0.007299 -0.002313 -0.006010 0.000000 0.000000 0.000000
# 2 -0.002313 0.012122 0.000242 0.000000 0.000000 0.000000
# 3 -0.006010 0.000242 0.019549 0.000000 0.000000 0.000000
# 4 0.000000 0.000000 0.000000 -0.104293 0.000000 0.000000
# 5 0.000000 0.000000 0.000000 0.000000 0.065912 0.000000
# 6 0.000000 0.000000 0.000000 0.000000 0.000000 -0.458526
#
#
# Mechanical properties :
#
#
# Convention : Reuss Voigt Hill
#
# Bulk Modulus (GPa) = 43.84369 63.58321 53.71345
# Shear Modulus (GPa) = -11.51616 17.34933 2.91659
#
# Velocity S-wave (km/s) = -2.28820 2.80854 1.15153
# Velocity P-wave (km/s) = 3.59896 6.27897 5.11751
#
# Compressibility (1/GPa) = 0.02280830
#
# Stress axis : x y z
#
# Youngs Moduli (GPa) = 137.00474 82.49477 51.15389
#
# Poissons Ratio (x) = 0.19084 0.30743
# Poissons Ratio (y) = 0.31694 -0.01240
# Poissons Ratio (z) = 0.82339 -0.02000
#
# Static dielectric constant tensor:
#      x y z
#    x 1.874770 0.000000 0.000000 
#    y 0.000000 -1.060750 0.000000 
#    z 0.000000 0.000000 1.837490 
# 
# From -- ./inp_files/44983.got.cif
#   From: 2010.05.17/outbox.cif.g08.bks.cpg/sg65_23_cif.got.tgz:44983.got - 2010.06.03 17:01:31.
