data_PCOD9492406
_publ_section_title
;
Structure prediction by ZEFSAII (Michael W. Deem and Ramdas Pophale) SiO2 
 PCOD9492406
Probable space group: C M M M
;
_chemical_formula_sum "Si O2"
_cell_formula_units_Z 104
_cell_length_a 20.938819
_cell_length_b 8.853943
_cell_length_c 30.612779
_cell_angle_alpha 90.000000
_cell_angle_beta 90.000000
_cell_angle_gamma 90.000000
_cell_volume 5675.337076
_symmetry_space_group_name_H-M "C M M M"
_symmetry_group_IT_number 65
_symmetry_cell_setting 'orthorhombic'
loop_
_space_group_symop_operation_xyz
x,y,z
-x,-y,z
x,-y,-z
-x,y,-z
-x,-y,-z
x,y,-z
-x,y,z
x,-y,z
1/2+x,1/2+y,z
1/2-x,1/2-y,z
1/2+x,1/2-y,-z
1/2-x,1/2+y,-z
1/2-x,1/2-y,-z
1/2+x,1/2+y,-z
1/2-x,1/2+y,z
1/2+x,1/2-y,z
loop_
_atom_site_type_symbol
_atom_site_label
_atom_site_fract_x
_atom_site_fract_y
_atom_site_fract_z
Si Si1 0.000000 0.828117 0.552610
Si Si2 0.925650 0.683072 0.307057
Si Si3 0.315080 0.678909 0.634766
Si Si4 0.073465 0.818416 0.118415
Si Si5 0.681365 0.317620 0.050698
Si Si6 0.422658 0.827568 0.209102
Si Si7 0.634775 0.820482 0.448629
O O1 0.063319 0.735137 0.563064
O O2 0.000000 0.841000 0.500000
O O3 0.000000 0.000000 0.570377
O O4 0.922938 0.500000 0.309242
O O5 0.876485 0.754907 0.340504
O O6 0.905751 0.728057 0.257560
O O7 0.000000 0.725966 0.314646
O O8 0.313571 0.500000 0.637951
O O9 0.250000 0.750000 0.653028
O O10 0.321113 0.730203 0.584413
O O11 0.123769 0.766679 0.081958
O O12 0.095152 0.766814 0.166589
O O13 0.000000 0.765365 0.111206
O O14 0.071948 0.000000 0.117220
O O15 0.685045 0.500000 0.052921
O O16 0.750000 0.250000 0.063471
O O17 0.669438 0.276162 0.000000
O O18 0.500000 0.831205 0.209779
O O19 0.400071 0.000000 0.204116
O O20 0.645946 0.788603 0.500000
O O21 0.640535 0.000000 0.441936
#
# Coordination Sequence:
#
# PCOD9492406 Si02
#       7
#     8  16  16  16  16  16  16
#     4   9  17  31  53  83 115 143 177 223 267 307
#     4   9  19  38  63  87 112 144 182 222 269 328
#     4  12  26  42  60  83 115 149 185 228 276 328
#     4   9  17  29  48  75 104 133 169 217 267 313
#     4   9  18  32  48  67  96 136 179 220 264 315
#     4   8  15  30  53  80 108 138 171 211 262 319
#     4  10  21  38  60  84 112 148 186 224 271 324
#
# _framework density 18.324902999999999
#
# number of rings (size 3 to 8) (size 9 to 14) (size 15 to 20)
#    0.000    2.538    0.000    3.000    1.077    4.000 
#    0.000    3.846    0.000    1.846    0.000    4.308 
#    0.000    0.000    0.000    0.000    0.000    0.000 
#
# Total GULP energy -289983.593611 kJ/mol
# GULP energy per Si atom -5576.607569 kJ/mol
# Density = 1.828319 g / cm^3
# Si number density = 18.324903 Si / 1000 Ang^3
#
#
#
# Elastic Constant Matrix: (Units=GPa)
#
#
# Indices 1 2 3 4 5 6 
#
# 1 107.0490 37.3752 69.2151 0.0000 0.0000 0.0000
# 2 37.3752 47.7819 39.3226 0.0000 0.0000 0.0000
# 3 69.2151 39.3226 106.4380 0.0000 0.0000 0.0000
# 4 0.0000 0.0000 0.0000 29.6344 0.0000 0.0000
# 5 0.0000 0.0000 0.0000 0.0000 6.2467 0.0000
# 6 0.0000 0.0000 0.0000 0.0000 0.0000 24.5698
#
#
#
# Elastic Compliance Matrix: (Units=1/GPa)
#
#
# Indices 1 2 3 4 5 6 
#
# 1 0.017286 -0.006136 -0.008974 0.000000 0.000000 0.000000
# 2 -0.006136 0.032249 -0.007924 0.000000 0.000000 0.000000
# 3 -0.008974 -0.007924 0.018158 0.000000 0.000000 0.000000
# 4 0.000000 0.000000 0.000000 0.033745 0.000000 0.000000
# 5 0.000000 0.000000 0.000000 0.000000 0.160084 0.000000
# 6 0.000000 0.000000 0.000000 0.000000 0.000000 0.040700
#
#
# Mechanical properties :
#
#
# Convention : Reuss Voigt Hill
#
# Bulk Modulus (GPa) = 46.24176 61.45496 53.84836
# Shear Modulus (GPa) = 14.06472 19.78058 16.92265
#
# Velocity S-wave (km/s) = 2.77342 3.28904 3.04218
# Velocity P-wave (km/s) = 5.96196 6.93057 6.46443
#
# Compressibility (1/GPa) = 0.02162548
#
# Stress axis : x y z
#
# Youngs Moduli (GPa) = 57.84922 31.00855 55.07116
#
# Poissons Ratio (x) = 0.19027 0.49422
# Poissons Ratio (y) = 0.35497 0.43638
# Poissons Ratio (z) = 0.51915 0.24571
#
# Static dielectric constant tensor:
#      x y z
#    x 1.648600 0.000000 0.000000 
#    y 0.000000 1.619600 0.000000 
#    z 0.000000 0.000000 1.649470 
# 
# From -- ./inp_files/78234.got.cif
#   From: 2010.05.17/outbox.cif.g08.bks.cpg/sg65_40_cif.got.tgz:78234.got - 2010.06.03 17:01:31.
