data_PCOD9492331
_publ_section_title
;
Structure prediction by ZEFSAII (Michael W. Deem and Ramdas Pophale) SiO2 
 PCOD9492331
Probable space group: C M M M
;
_chemical_formula_sum "Si O2"
_cell_formula_units_Z 72
_cell_length_a 32.257413
_cell_length_b 8.240888
_cell_length_c 14.640069
_cell_angle_alpha 90.000000
_cell_angle_beta 90.000000
_cell_angle_gamma 90.000000
_cell_volume 3891.765556
_symmetry_space_group_name_H-M "C M M M"
_symmetry_group_IT_number 65
_symmetry_cell_setting 'orthorhombic'
loop_
_space_group_symop_operation_xyz
x,y,z
-x,-y,z
x,-y,-z
-x,y,-z
-x,-y,-z
x,y,-z
-x,y,z
x,-y,z
1/2+x,1/2+y,z
1/2-x,1/2-y,z
1/2+x,1/2-y,-z
1/2-x,1/2+y,-z
1/2-x,1/2-y,-z
1/2+x,1/2+y,-z
1/2-x,1/2+y,z
1/2+x,1/2-y,z
loop_
_atom_site_type_symbol
_atom_site_label
_atom_site_fract_x
_atom_site_fract_y
_atom_site_fract_z
Si Si1 0.452653 0.303840 0.607570
Si Si2 0.295030 0.694198 0.393463
Si Si3 0.597754 0.318380 0.894218
Si Si4 0.455133 0.000000 0.109714
Si Si5 0.627337 0.810139 0.721099
O O1 0.446831 0.262428 0.500000
O O2 0.500000 0.255012 0.633088
O O3 0.450759 0.500000 0.614551
O O4 0.415290 0.233892 0.667753
O O5 0.297399 0.742433 0.500000
O O6 0.297898 0.500000 0.388122
O O7 0.250000 0.750000 0.358703
O O8 0.333532 0.770816 0.341518
O O9 0.579600 0.500000 0.886832
O O10 0.630799 0.294197 0.814157
O O11 0.567089 0.170175 0.871728
O O12 0.611511 0.299259 0.000000
O O13 0.500000 0.000000 0.153500
O O14 0.458501 0.000000 0.000000
O O15 0.626969 0.000000 0.743449
#
# Coordination Sequence:
#
# PCOD9492331 Si02
#       5
#    16  16  16   8  16
#     4   9  19  36  55  76 107 148 193 239 284 335
#     4  10  21  38  60  87 119 151 188 237 291 348
#     4  10  21  38  58  80 110 150 195 244 299 350
#     4   9  18  34  54  78 109 143 189 245 294 346
#     4  12  23  35  56  84 115 152 194 238 288 350
#
# _framework density 18.500599999999999
#
# number of rings (size 3 to 8) (size 9 to 14) (size 15 to 20)
#    0.000    1.889    1.111    4.000    0.000    6.222 
#    0.000    3.333    0.000    0.667    0.000    0.000 
#    0.000    0.000    0.000    0.000    0.000    0.000 
#
# Total GULP energy -200759.675947 kJ/mol
# GULP energy per Si atom -5576.657665 kJ/mol
# Density = 1.845849 g / cm^3
# Si number density = 18.500600 Si / 1000 Ang^3
#
#
#
# Elastic Constant Matrix: (Units=GPa)
#
#
# Indices 1 2 3 4 5 6 
#
# 1 111.2128 38.8360 58.4966 0.0000 0.0000 0.0000
# 2 38.8360 97.7206 37.8537 0.0000 0.0000 0.0000
# 3 58.4966 37.8537 90.3615 0.0000 0.0000 0.0000
# 4 0.0000 0.0000 0.0000 28.9499 0.0000 0.0000
# 5 0.0000 0.0000 0.0000 0.0000 6.2322 0.0000
# 6 0.0000 0.0000 0.0000 0.0000 0.0000 18.0240
#
#
#
# Elastic Compliance Matrix: (Units=1/GPa)
#
#
# Indices 1 2 3 4 5 6 
#
# 1 0.014117 -0.002471 -0.008104 0.000000 0.000000 0.000000
# 2 -0.002471 0.012648 -0.003699 0.000000 0.000000 0.000000
# 3 -0.008104 -0.003699 0.017862 0.000000 0.000000 0.000000
# 4 0.000000 0.000000 0.000000 0.034542 0.000000 0.000000
# 5 0.000000 0.000000 0.000000 0.000000 0.160456 0.000000
# 6 0.000000 0.000000 0.000000 0.000000 0.000000 0.055482
#
#
# Mechanical properties :
#
#
# Convention : Reuss Voigt Hill
#
# Bulk Modulus (GPa) = 62.18850 63.29639 62.74244
# Shear Modulus (GPa) = 15.19688 21.58180 18.38934
#
# Velocity S-wave (km/s) = 2.86916 3.41918 3.15617
# Velocity P-wave (km/s) = 6.68307 7.06223 6.87527
#
# Compressibility (1/GPa) = 0.01608014
#
# Stress axis : x y z
#
# Youngs Moduli (GPa) = 70.83555 79.06295 55.98460
#
# Poissons Ratio (x) = 0.19539 0.45368
# Poissons Ratio (y) = 0.17506 0.20707
# Poissons Ratio (z) = 0.57403 0.29242
#
# Static dielectric constant tensor:
#      x y z
#    x 1.635990 0.000000 0.000000 
#    y 0.000000 1.652580 0.000000 
#    z 0.000000 0.000000 1.662260 
# 
# From -- ./inp_files/47445.got.cif
#   From: 2010.05.17/outbox.cif.g08.bks.cpg/sg65_24_cif.got.tgz:47445.got - 2010.06.03 17:01:31.
