data_PCOD9492970
_publ_section_title
;
Structure prediction by ZEFSAII (Michael W. Deem and Ramdas Pophale) SiO2 
 PCOD9492970
Probable space group: C M M M
;
_chemical_formula_sum "Si O2"
_cell_formula_units_Z 96
_cell_length_a 21.590386
_cell_length_b 14.584291
_cell_length_c 15.727071
_cell_angle_alpha 90.000000
_cell_angle_beta 90.000000
_cell_angle_gamma 90.000000
_cell_volume 4952.147543
_symmetry_space_group_name_H-M "C M M M"
_symmetry_group_IT_number 65
_symmetry_cell_setting 'orthorhombic'
loop_
_space_group_symop_operation_xyz
x,y,z
-x,-y,z
x,-y,-z
-x,y,-z
-x,-y,-z
x,y,-z
-x,y,z
x,-y,z
1/2+x,1/2+y,z
1/2-x,1/2-y,z
1/2+x,1/2-y,-z
1/2-x,1/2+y,-z
1/2-x,1/2-y,-z
1/2+x,1/2+y,-z
1/2-x,1/2+y,z
1/2+x,1/2-y,z
loop_
_atom_site_type_symbol
_atom_site_label
_atom_site_fract_x
_atom_site_fract_y
_atom_site_fract_z
Si Si1 0.426909 0.277487 0.335650
Si Si2 0.813006 0.690292 0.000000
Si Si3 0.571637 0.324597 0.000000
Si Si4 0.235390 0.608962 0.832390
Si Si5 0.611367 0.395365 0.500000
Si Si6 0.755533 0.640290 0.500000
Si Si7 0.837456 0.393477 0.664722
Si Si8 0.622365 0.391945 0.824697
O O1 0.500000 0.263177 0.332660
O O2 0.409980 0.340529 0.416551
O O3 0.391799 0.180487 0.344340
O O4 0.405620 0.331157 0.250697
O O5 0.750000 0.750000 0.000000
O O6 0.805343 0.634092 0.086526
O O7 0.877233 0.744238 0.000000
O O8 0.586300 0.379737 0.086527
O O9 0.500000 0.295470 0.000000
O O10 0.239976 0.500000 0.828751
O O11 0.203163 0.638252 0.745505
O O12 0.306555 0.640837 0.839567
O O13 0.588283 0.500000 0.500000
O O14 0.686023 0.396672 0.500000
O O15 0.750000 0.750000 0.500000
O O16 0.793529 0.610680 0.417321
O O17 0.857226 0.500000 0.676927
O O18 0.622097 0.500000 0.801259
#
# Coordination Sequence:
#
# PCOD9492970 Si02
#       8
#    16   8   8  16   8   8  16  16
#     4  12  26  42  62  89 124 171 215 251 304 376
#     4  12  21  37  65  89 121 166 208 264 314 366
#     4  12  25  38  57  90 127 168 213 256 315 385
#     4  10  22  39  63  94 122 156 208 263 320 374
#     4  12  25  42  65  94 127 162 203 255 313 374
#     4  12  22  41  68  96 127 154 196 258 320 373
#     4  11  24  42  66  94 125 160 205 265 317 365
#     4  11  23  40  62  91 127 166 208 259 318 380
#
# _framework density 19.385528999999998
#
# number of rings (size 3 to 8) (size 9 to 14) (size 15 to 20)
#    0.000    0.667    3.333    4.500    0.000    6.000 
#    0.000    0.000    0.000    4.000    0.000    0.000 
#    0.000    0.000    0.000    0.000    0.000    0.000 
#
# Total GULP energy -268422.411670 kJ/mol
# GULP energy per Si atom -5592.133576 kJ/mol
# Density = 1.934141 g / cm^3
# Si number density = 19.385529 Si / 1000 Ang^3
#
#
#
# Elastic Constant Matrix: (Units=GPa)
#
#
# Indices 1 2 3 4 5 6 
#
# 1 145.3813 58.4365 42.2778 0.0000 0.0000 0.0000
# 2 58.4365 79.7635 35.2964 0.0000 0.0000 0.0000
# 3 42.2778 35.2964 145.5498 0.0000 0.0000 0.0000
# 4 0.0000 0.0000 0.0000 105.1738 0.0000 0.0000
# 5 0.0000 0.0000 0.0000 0.0000 5.0418 0.0000
# 6 0.0000 0.0000 0.0000 0.0000 0.0000 4.8867
#
#
#
# Elastic Compliance Matrix: (Units=1/GPa)
#
#
# Indices 1 2 3 4 5 6 
#
# 1 0.009951 -0.006734 -0.001257 0.000000 0.000000 0.000000
# 2 -0.006734 0.018601 -0.002555 0.000000 0.000000 0.000000
# 3 -0.001257 -0.002555 0.007855 0.000000 0.000000 0.000000
# 4 0.000000 0.000000 0.000000 0.009508 0.000000 0.000000
# 5 0.000000 0.000000 0.000000 0.000000 0.198343 0.000000
# 6 0.000000 0.000000 0.000000 0.000000 0.000000 0.204637
#
#
# Mechanical properties :
#
#
# Convention : Reuss Voigt Hill
#
# Bulk Modulus (GPa) = 65.29567 71.41289 68.35428
# Shear Modulus (GPa) = 10.52426 38.66605 24.59515
#
# Velocity S-wave (km/s) = 2.33253 4.47092 3.56580
# Velocity P-wave (km/s) = 6.40391 7.97310 7.23120
#
# Compressibility (1/GPa) = 0.01531495
#
# Stress axis : x y z
#
# Youngs Moduli (GPa) = 100.49473 53.76092 127.30244
#
# Poissons Ratio (x) = 0.36201 0.16008
# Poissons Ratio (y) = 0.67670 0.32524
# Poissons Ratio (z) = 0.12637 0.13735
#
# Static dielectric constant tensor:
#      x y z
#    x 1.652290 0.000000 0.000000 
#    y 0.000000 1.697600 0.000000 
#    z 0.000000 0.000000 1.665230 
# 
# From -- ./inp_files/44221.got.cif
#   From: 2010.05.17/outbox.cif.g08.bks.cpg/sg65_23_cif.got.tgz:44221.got - 2010.06.03 17:01:31.
