data_PCOD9492559
_publ_section_title
;
Structure prediction by ZEFSAII (Michael W. Deem and Ramdas Pophale) SiO2 
 PCOD9492559
Probable space group: C M M M
;
_chemical_formula_sum "Si O2"
_cell_formula_units_Z 52
_cell_length_a 8.428314
_cell_length_b 15.462326
_cell_length_c 17.761752
_cell_angle_alpha 90.000000
_cell_angle_beta 90.000000
_cell_angle_gamma 90.000000
_cell_volume 2314.735298
_symmetry_space_group_name_H-M "C M M M"
_symmetry_group_IT_number 65
_symmetry_cell_setting 'orthorhombic'
loop_
_space_group_symop_operation_xyz
x,y,z
-x,-y,z
x,-y,-z
-x,y,-z
-x,-y,-z
x,y,-z
-x,y,z
x,-y,z
1/2+x,1/2+y,z
1/2-x,1/2-y,z
1/2+x,1/2-y,-z
1/2-x,1/2+y,-z
1/2-x,1/2-y,-z
1/2+x,1/2+y,-z
1/2-x,1/2+y,z
1/2+x,1/2-y,z
loop_
_atom_site_type_symbol
_atom_site_label
_atom_site_fract_x
_atom_site_fract_y
_atom_site_fract_z
Si Si1 0.321128 0.601007 0.758361
Si Si2 0.814206 0.655820 0.607182
Si Si3 0.309670 0.151297 0.917625
Si Si4 0.280892 0.500000 0.500000
O O1 0.500000 0.636343 0.751773
O O2 0.323181 0.500000 0.739820
O O3 0.212095 0.646131 0.696613
O O4 0.263118 0.609395 0.843710
O O5 0.750000 0.750000 0.585354
O O6 0.727052 0.577086 0.564898
O O7 0.000000 0.647277 0.589132
O O8 0.500000 0.148819 0.912437
O O9 0.250000 0.250000 0.916851
O O10 0.264404 0.114456 0.000000
#
# Coordination Sequence:
#
# PCOD9492559 Si02
#       4
#    16  16  16   4
#     4  11  24  42  64  94 131 174 223 275 332 393
#     4  12  25  46  72 102 137 178 224 275 336 401
#     4  10  21  38  62  92 127 170 220 273 330 392
#     4  12  27  48  75 104 137 176 223 276 335 406
#
# _framework density 22.464772
#
# number of rings (size 3 to 8) (size 9 to 14) (size 15 to 20)
#    0.000    0.923    1.538    5.538    0.000    4.308 
#    0.000    8.462    0.000    0.000    0.000    0.000 
#    0.000    0.000    0.000    0.000    0.000    0.000 
#
# Total GULP energy -144926.620616 kJ/mol
# GULP energy per Si atom -5574.100793 kJ/mol
# Density = 2.241364 g / cm^3
# Si number density = 22.464772 Si / 1000 Ang^3
#
#
#
# Elastic Constant Matrix: (Units=GPa)
#
#
# Indices 1 2 3 4 5 6 
#
# 1 53.1895 0.5517 21.6710 0.0000 0.0000 0.0000
# 2 0.5517 131.1016 34.5946 0.0000 0.0000 0.0000
# 3 21.6710 34.5946 171.6222 0.0000 0.0000 0.0000
# 4 0.0000 0.0000 0.0000 56.3312 0.0000 0.0000
# 5 0.0000 0.0000 0.0000 0.0000 116.0239 0.0000
# 6 0.0000 0.0000 0.0000 0.0000 0.0000 11.6970
#
#
#
# Elastic Compliance Matrix: (Units=1/GPa)
#
#
# Indices 1 2 3 4 5 6 
#
# 1 0.019867 0.000611 -0.002632 0.000000 0.000000 0.000000
# 2 0.000611 0.008075 -0.001705 0.000000 0.000000 0.000000
# 3 -0.002632 -0.001705 0.006503 0.000000 0.000000 0.000000
# 4 0.000000 0.000000 0.000000 0.017752 0.000000 0.000000
# 5 0.000000 0.000000 0.000000 0.000000 0.008619 0.000000
# 6 0.000000 0.000000 0.000000 0.000000 0.000000 0.085492
#
#
# Mechanical properties :
#
#
# Convention : Reuss Voigt Hill
#
# Bulk Modulus (GPa) = 37.04682 52.17199 44.60941
# Shear Modulus (GPa) = 30.72073 56.75015 43.73544
#
# Velocity S-wave (km/s) = 3.70199 5.03157 4.41709
# Velocity P-wave (km/s) = 5.89914 7.55181 6.77605
#
# Compressibility (1/GPa) = 0.02699287
#
# Stress axis : x y z
#
# Youngs Moduli (GPa) = 50.33569 123.83950 153.78193
#
# Poissons Ratio (x) = -0.07565 0.40471
# Poissons Ratio (y) = -0.03075 0.26217
# Poissons Ratio (z) = 0.13247 0.21113
#
# Static dielectric constant tensor:
#      x y z
#    x 1.833360 0.000000 0.000000 
#    y 0.000000 1.774730 0.000000 
#    z 0.000000 0.000000 1.841270 
# 
# From -- ./inp_files/58460.got.cif
#   From: 2010.05.17/outbox.cif.g08.bks.cpg/sg65_30_cif.got.tgz:58460.got - 2010.06.03 17:01:31.
