data_PCOD9492585
_publ_section_title
;
Structure prediction by ZEFSAII (Michael W. Deem and Ramdas Pophale) SiO2 
 PCOD9492585
Probable space group: C M M M
;
_chemical_formula_sum "Si O2"
_cell_formula_units_Z 104
_cell_length_a 25.357406
_cell_length_b 16.290451
_cell_length_c 13.048329
_cell_angle_alpha 90.000000
_cell_angle_beta 90.000000
_cell_angle_gamma 90.000000
_cell_volume 5390.050455
_symmetry_space_group_name_H-M "C M M M"
_symmetry_group_IT_number 65
_symmetry_cell_setting 'orthorhombic'
loop_
_space_group_symop_operation_xyz
x,y,z
-x,-y,z
x,-y,-z
-x,y,-z
-x,-y,-z
x,y,-z
-x,y,z
x,-y,z
1/2+x,1/2+y,z
1/2-x,1/2-y,z
1/2+x,1/2-y,-z
1/2-x,1/2+y,-z
1/2-x,1/2-y,-z
1/2+x,1/2+y,-z
1/2-x,1/2+y,z
1/2+x,1/2-y,z
loop_
_atom_site_type_symbol
_atom_site_label
_atom_site_fract_x
_atom_site_fract_y
_atom_site_fract_z
Si Si1 0.874498 0.183257 0.312921
Si Si2 0.612727 0.901167 0.000000
Si Si3 0.063252 0.591792 0.611022
Si Si4 0.562532 0.801842 0.812454
Si Si5 0.229167 0.902179 0.222961
Si Si6 0.203787 0.682486 0.611763
Si Si7 0.562802 0.400882 0.500000
Si Si8 0.238742 0.598423 0.000000
O O1 0.909592 0.216409 0.218321
O O2 0.825425 0.130102 0.271119
O O3 0.846782 0.262452 0.364621
O O4 0.909007 0.137026 0.399080
O O5 0.588351 0.853628 0.903304
O O6 0.675797 0.890788 0.000000
O O7 0.601311 0.000000 0.000000
O O8 0.079740 0.625597 0.500000
O O9 0.085604 0.500000 0.621611
O O10 0.071337 0.643753 0.711235
O O11 0.000000 0.584790 0.605614
O O12 0.500000 0.791311 0.829928
O O13 0.277945 0.874756 0.295195
O O14 0.237760 0.869336 0.107173
O O15 0.228026 0.000000 0.220082
O O16 0.201219 0.641277 0.500000
O O17 0.250000 0.750000 0.606704
O O18 0.568517 0.500000 0.500000
O O19 0.500000 0.381273 0.500000
O O20 0.248172 0.500000 0.000000
#
# Coordination Sequence:
#
# PCOD9492585 Si02
#       8
#    16   8  16  16  16  16   8   8
#     4  11  22  39  60  90 124 165 210 255 318 384
#     4  11  23  41  65  91 126 167 214 268 323 383
#     4   8  15  29  49  73 102 142 196 250 299 354
#     4  11  23  36  55  84 121 167 214 261 309 361
#     4  10  21  38  64  91 121 163 207 260 320 387
#     4   9  18  34  55  85 120 153 193 250 316 383
#     4  11  24  42  65  94 131 173 218 267 314 370
#     4   9  20  40  60  86 116 145 194 252 309 366
#
# _framework density 19.294809999999998
#
# number of rings (size 3 to 8) (size 9 to 14) (size 15 to 20)
#    0.000    2.077    0.769    3.000    2.154    2.154 
#    0.000    5.000    0.000    0.000    0.000    0.000 
#    0.000    8.615    0.000    0.000    0.000    0.000 
#
# Total GULP energy -290003.785100 kJ/mol
# GULP energy per Si atom -5576.995867 kJ/mol
# Density = 1.925089 g / cm^3
# Si number density = 19.294810 Si / 1000 Ang^3
#
#
#
# Elastic Constant Matrix: (Units=GPa)
#
#
# Indices 1 2 3 4 5 6 
#
# 1 116.0135 49.5984 61.4857 0.0000 0.0000 0.0000
# 2 49.5984 68.5024 51.4398 0.0000 0.0000 0.0000
# 3 61.4857 51.4398 145.8400 0.0000 0.0000 0.0000
# 4 0.0000 0.0000 0.0000 32.4828 0.0000 0.0000
# 5 0.0000 0.0000 0.0000 0.0000 28.7540 0.0000
# 6 0.0000 0.0000 0.0000 0.0000 0.0000 29.5096
#
#
#
# Elastic Compliance Matrix: (Units=1/GPa)
#
#
# Indices 1 2 3 4 5 6 
#
# 1 0.013401 -0.007428 -0.003030 0.000000 0.000000 0.000000
# 2 -0.007428 0.023974 -0.005325 0.000000 0.000000 0.000000
# 3 -0.003030 -0.005325 0.010012 0.000000 0.000000 0.000000
# 4 0.000000 0.000000 0.000000 0.030786 0.000000 0.000000
# 5 0.000000 0.000000 0.000000 0.000000 0.034778 0.000000
# 6 0.000000 0.000000 0.000000 0.000000 0.000000 0.033887
#
#
# Mechanical properties :
#
#
# Convention : Reuss Voigt Hill
#
# Bulk Modulus (GPa) = 63.19834 72.82265 68.01050
# Shear Modulus (GPa) = 27.22172 29.33808 28.27990
#
# Velocity S-wave (km/s) = 3.76018 3.90361 3.83257
# Velocity P-wave (km/s) = 7.18868 7.62506 7.41008
#
# Compressibility (1/GPa) = 0.01582320
#
# Stress axis : x y z
#
# Youngs Moduli (GPa) = 74.62129 41.71152 99.87669
#
# Poissons Ratio (x) = 0.30981 0.30263
# Poissons Ratio (y) = 0.55425 0.53180
# Poissons Ratio (z) = 0.22610 0.22210
#
# Static dielectric constant tensor:
#      x y z
#    x 1.704920 0.000000 0.000000 
#    y 0.000000 1.689220 0.000000 
#    z 0.000000 0.000000 1.719490 
# 
# From -- ./inp_files/32571.got.cif
#   From: 2010.05.17/outbox.cif.g08.bks.cpg/sg65_17_cif.got.tgz:32571.got - 2010.06.03 17:01:31.
