data_PCOD9492685
_publ_section_title
;
Structure prediction by ZEFSAII (Michael W. Deem and Ramdas Pophale) SiO2 
 PCOD9492685
Probable space group: C M M M
;
_chemical_formula_sum "Si O2"
_cell_formula_units_Z 72
_cell_length_a 15.455928
_cell_length_b 8.874786
_cell_length_c 26.180804
_cell_angle_alpha 90.000000
_cell_angle_beta 90.000000
_cell_angle_gamma 90.000000
_cell_volume 3591.169922
_symmetry_space_group_name_H-M "C M M M"
_symmetry_group_IT_number 65
_symmetry_cell_setting 'orthorhombic'
loop_
_space_group_symop_operation_xyz
x,y,z
-x,-y,z
x,-y,-z
-x,y,-z
-x,-y,-z
x,y,-z
-x,y,z
x,-y,z
1/2+x,1/2+y,z
1/2-x,1/2-y,z
1/2+x,1/2-y,-z
1/2-x,1/2+y,-z
1/2-x,1/2-y,-z
1/2+x,1/2+y,-z
1/2-x,1/2+y,z
1/2+x,1/2-y,z
loop_
_atom_site_type_symbol
_atom_site_label
_atom_site_fract_x
_atom_site_fract_y
_atom_site_fract_z
Si Si1 0.345020 0.177919 0.159290
Si Si2 0.846588 0.819353 0.374400
Si Si3 0.000000 0.320109 0.560440
Si Si4 0.153542 0.820317 0.259720
Si Si5 0.603236 0.329298 0.056293
O O1 0.250000 0.250000 0.159144
O O2 0.389898 0.249315 0.209494
O O3 0.380019 0.223513 0.104091
O O4 0.342146 0.000000 0.165304
O O5 0.750000 0.750000 0.379608
O O6 0.914769 0.750297 0.413619
O O7 0.881111 0.789314 0.316494
O O8 0.840614 0.000000 0.380168
O O9 0.000000 0.500000 0.568349
O O10 0.000000 0.290065 0.500000
O O11 0.250000 0.750000 0.261807
O O12 0.158401 0.000000 0.252956
O O13 0.500000 0.340280 0.052683
O O14 0.636842 0.500000 0.066150
O O15 0.635306 0.280071 0.000000
#
# Coordination Sequence:
#
# PCOD9492685 Si02
#       5
#    16  16   8  16  16
#     4  11  21  33  53  80 110 142 179 225 278 332
#     4  10  21  39  65  93 123 163 206 251 307 363
#     4  11  25  43  63  91 127 165 208 257 302 351
#     4   9  17  32  55  82 112 146 184 228 281 340
#     4   9  19  37  57  74  98 136 179 225 279 336
#
# _framework density 20.049175999999999
#
# number of rings (size 3 to 8) (size 9 to 14) (size 15 to 20)
#    0.000    2.111    0.000    5.667    0.000    5.333 
#    2.000    1.111    0.000    0.000    0.000    0.000 
#    0.000    0.000    0.000    0.000    0.000    0.000 
#
# Total GULP energy -200793.761327 kJ/mol
# GULP energy per Si atom -5577.604481 kJ/mol
# Density = 2.000354 g / cm^3
# Si number density = 20.049176 Si / 1000 Ang^3
#
#
#
# Elastic Constant Matrix: (Units=GPa)
#
#
# Indices 1 2 3 4 5 6 
#
# 1 65.2751 36.0448 56.6788 0.0000 0.0000 0.0000
# 2 36.0448 133.5943 104.5597 0.0000 0.0000 0.0000
# 3 56.6788 104.5597 190.5180 0.0000 0.0000 0.0000
# 4 0.0000 0.0000 0.0000 34.4243 0.0000 0.0000
# 5 0.0000 0.0000 0.0000 0.0000 32.4909 0.0000
# 6 0.0000 0.0000 0.0000 0.0000 0.0000 21.7457
#
#
#
# Elastic Compliance Matrix: (Units=1/GPa)
#
#
# Indices 1 2 3 4 5 6 
#
# 1 0.020793 -0.001347 -0.005446 0.000000 0.000000 0.000000
# 2 -0.001347 0.013209 -0.006848 0.000000 0.000000 0.000000
# 3 -0.005446 -0.006848 0.010628 0.000000 0.000000 0.000000
# 4 0.000000 0.000000 0.000000 0.029049 0.000000 0.000000
# 5 0.000000 0.000000 0.000000 0.000000 0.030778 0.000000
# 6 0.000000 0.000000 0.000000 0.000000 0.000000 0.045986
#
#
# Mechanical properties :
#
#
# Convention : Reuss Voigt Hill
#
# Bulk Modulus (GPa) = 57.65324 87.10601 72.37962
# Shear Modulus (GPa) = 27.24663 30.53912 28.89287
#
# Velocity S-wave (km/s) = 3.69045 3.90707 3.80030
# Velocity P-wave (km/s) = 6.85402 7.99338 7.44552
#
# Compressibility (1/GPa) = 0.01734508
#
# Stress axis : x y z
#
# Youngs Moduli (GPa) = 48.09327 75.70632 94.09385
#
# Poissons Ratio (x) = 0.10201 0.51247
# Poissons Ratio (y) = 0.06480 0.64440
# Poissons Ratio (z) = 0.26193 0.51847
#
# Static dielectric constant tensor:
#      x y z
#    x 1.712450 0.000000 0.000000 
#    y 0.000000 1.685810 0.000000 
#    z 0.000000 0.000000 1.783420 
# 
# From -- ./inp_files/70325.got.cif
#   From: 2010.05.17/outbox.cif.g08.bks.cpg/sg65_36_cif.got.tgz:70325.got - 2010.06.03 17:01:31.
