data_PCOD9492995
_publ_section_title
;
Structure prediction by ZEFSAII (Michael W. Deem and Ramdas Pophale) SiO2 
 PCOD9492995
Probable space group: C M M M
;
_chemical_formula_sum "Si O2"
_cell_formula_units_Z 88
_cell_length_a 8.246229
_cell_length_b 24.287844
_cell_length_c 24.099356
_cell_angle_alpha 90.000000
_cell_angle_beta 90.000000
_cell_angle_gamma 90.000000
_cell_volume 4826.694295
_symmetry_space_group_name_H-M "C M M M"
_symmetry_group_IT_number 65
_symmetry_cell_setting 'orthorhombic'
loop_
_space_group_symop_operation_xyz
x,y,z
-x,-y,z
x,-y,-z
-x,y,-z
-x,-y,-z
x,y,-z
-x,y,z
x,-y,z
1/2+x,1/2+y,z
1/2-x,1/2-y,z
1/2+x,1/2-y,-z
1/2-x,1/2+y,-z
1/2-x,1/2-y,-z
1/2+x,1/2+y,-z
1/2-x,1/2+y,z
1/2+x,1/2-y,z
loop_
_atom_site_type_symbol
_atom_site_label
_atom_site_fract_x
_atom_site_fract_y
_atom_site_fract_z
Si Si1 0.692303 0.187502 0.833316
Si Si2 0.300919 0.435725 0.378520
Si Si3 0.687203 0.566815 0.500000
Si Si4 0.190997 0.113400 0.265917
Si Si5 0.311634 0.000000 0.216326
Si Si6 0.303816 0.882539 0.939243
Si Si7 0.810404 0.000000 0.905064
O O1 0.500000 0.187197 0.838280
O O2 0.750000 0.250000 0.834988
O O3 0.735575 0.158274 0.775282
O O4 0.755732 0.152368 0.886193
O O5 0.500000 0.435864 0.379393
O O6 0.254413 0.500000 0.368191
O O7 0.242342 0.418434 0.439894
O O8 0.247579 0.395926 0.328836
O O9 0.683446 0.500000 0.500000
O O10 0.500000 0.585914 0.500000
O O11 0.000000 0.123843 0.268682
O O12 0.224745 0.054302 0.238243
O O13 0.296763 0.000000 0.150354
O O14 0.500000 0.000000 0.232983
O O15 0.500000 0.886854 0.935688
O O16 0.231911 0.943743 0.935997
O O17 0.264330 0.858280 0.000000
O O18 0.000000 0.000000 0.890130
#
# Coordination Sequence:
#
# PCOD9492995 Si02
#       7
#    16  16   8  16   8  16   8
#     4  11  24  41  59  78 103 137 178 222 270 318
#     4   8  13  22  40  71 108 143 175 210 252 303
#     4   7  10  18  34  62 105 146 175 204 245 299
#     4  11  20  33  54  81 109 138 177 223 267 313
#     4  12  22  33  51  77 109 145 178 214 265 322
#     4  10  22  40  60  81 109 143 174 209 260 319
#     4  12  23  35  56  85 113 141 175 216 258 307
#
# _framework density 18.231940000000002
#
# number of rings (size 3 to 8) (size 9 to 14) (size 15 to 20)
#    0.000    1.909    2.727    4.091    0.000    2.545 
#    0.000    0.000    0.000    0.000    0.000    3.818 
#    0.000    0.000    0.000    0.000    0.000    0.000 
#
# Total GULP energy -245361.177527 kJ/mol
# GULP energy per Si atom -5576.390398 kJ/mol
# Density = 1.819044 g / cm^3
# Si number density = 18.231940 Si / 1000 Ang^3
#
#
#
# Elastic Constant Matrix: (Units=GPa)
#
#
# Indices 1 2 3 4 5 6 
#
# 1 22.9572 12.5996 14.8083 0.0000 0.0000 0.0000
# 2 12.5996 101.2216 65.1281 0.0000 0.0000 0.0000
# 3 14.8083 65.1281 170.9645 0.0000 0.0000 0.0000
# 4 0.0000 0.0000 0.0000 -11.4676 0.0000 0.0000
# 5 0.0000 0.0000 0.0000 0.0000 -5.4900 0.0000
# 6 0.0000 0.0000 0.0000 0.0000 0.0000 8.6726
#
#
#
# Elastic Compliance Matrix: (Units=1/GPa)
#
#
# Indices 1 2 3 4 5 6 
#
# 1 0.047527 -0.004328 -0.002468 0.000000 0.000000 0.000000
# 2 -0.004328 0.013481 -0.004761 0.000000 0.000000 0.000000
# 3 -0.002468 -0.004761 0.007876 0.000000 0.000000 0.000000
# 4 0.000000 0.000000 0.000000 -0.087202 0.000000 0.000000
# 5 0.000000 0.000000 0.000000 0.000000 -0.182149 0.000000
# 6 0.000000 0.000000 0.000000 0.000000 0.000000 0.115306
#
#
# Mechanical properties :
#
#
# Convention : Reuss Voigt Hill
#
# Bulk Modulus (GPa) = 21.84786 53.35725 37.60255
# Shear Modulus (GPa) = -106.85753 11.85015 -47.50369
#
# Velocity S-wave (km/s) = -7.66403 2.55221 -5.10997
# Velocity P-wave (km/s) = 8.14292 6.16558 3.76117
#
# Compressibility (1/GPa) = 0.04577108
#
# Stress axis : x y z
#
# Youngs Moduli (GPa) = 21.04088 74.17743 126.95997
#
# Poissons Ratio (x) = 0.32104 0.31332
# Poissons Ratio (y) = 0.09107 0.60442
# Poissons Ratio (z) = 0.05193 0.35314
#
# Static dielectric constant tensor:
#      x y z
#    x 1.626900 0.000000 0.000000 
#    y 0.000000 1.579980 0.000000 
#    z 0.000000 0.000000 1.697070 
# 
# From -- ./inp_files/67686.got.cif
#   From: 2010.05.17/outbox.cif.g08.bks.cpg/sg65_34_cif.got.tgz:67686.got - 2010.06.03 17:01:31.
