data_PCOD9492186
_publ_section_title
;
Structure prediction by ZEFSAII (Michael W. Deem and Ramdas Pophale) SiO2 
 PCOD9492186
Probable space group: C M M M
;
_chemical_formula_sum "Si O2"
_cell_formula_units_Z 88
_cell_length_a 25.813142
_cell_length_b 20.062467
_cell_length_c 8.301077
_cell_angle_alpha 90.000000
_cell_angle_beta 90.000000
_cell_angle_gamma 90.000000
_cell_volume 4298.922821
_symmetry_space_group_name_H-M "C M M M"
_symmetry_group_IT_number 65
_symmetry_cell_setting 'orthorhombic'
loop_
_space_group_symop_operation_xyz
x,y,z
-x,-y,z
x,-y,-z
-x,y,-z
-x,-y,-z
x,y,-z
-x,y,z
x,-y,z
1/2+x,1/2+y,z
1/2-x,1/2-y,z
1/2+x,1/2-y,-z
1/2-x,1/2+y,-z
1/2-x,1/2-y,-z
1/2+x,1/2+y,-z
1/2-x,1/2+y,z
1/2+x,1/2-y,z
loop_
_atom_site_type_symbol
_atom_site_label
_atom_site_fract_x
_atom_site_fract_y
_atom_site_fract_z
Si Si1 0.500000 0.922263 0.192765
Si Si2 0.747158 0.075893 0.814949
Si Si3 0.360015 0.425436 0.687183
Si Si4 0.056839 0.822681 0.191217
Si Si5 0.586407 0.181099 0.308425
Si Si6 0.297108 0.795620 0.314891
O O1 0.448649 0.880240 0.245023
O O2 0.500000 0.000000 0.250013
O O3 0.500000 0.923676 0.000000
O O4 0.808879 0.080018 0.794405
O O5 0.723416 0.129436 0.696519
O O6 0.731650 0.000000 0.778962
O O7 0.732972 0.091178 0.000000
O O8 0.344425 0.419539 0.500000
O O9 0.381938 0.500000 0.710538
O O10 0.399993 0.368710 0.731033
O O11 0.057765 0.749606 0.267289
O O12 0.000000 0.852728 0.216794
O O13 0.065613 0.816708 0.000000
O O14 0.591029 0.171534 0.500000
O O15 0.644906 0.197046 0.243640
O O16 0.303413 0.772101 0.500000
O O17 0.250000 0.750000 0.243910
#
# Coordination Sequence:
#
# PCOD9492186 Si02
#       6
#     8  16  16  16  16  16
#     4  11  25  45  67  91 124 167 214 267 327 387
#     4  10  21  37  58  85 117 154 196 241 295 359
#     4  10  21  37  58  84 117 159 203 247 295 348
#     4  11  23  38  59  86 118 155 196 245 301 360
#     4  11  23  40  65  93 123 160 206 260 313 375
#     4  10  22  39  60  90 124 159 202 251 307 372
#
# _framework density 20.470244999999998
#
# number of rings (size 3 to 8) (size 9 to 14) (size 15 to 20)
#    0.000    1.545    0.909    3.545    0.000    8.364 
#    0.000    5.455    0.000    0.000    0.000    0.000 
#    0.000    0.000    0.000    0.000    0.000    0.000 
#
# Total GULP energy -245466.202940 kJ/mol
# GULP energy per Si atom -5578.777340 kJ/mol
# Density = 2.042365 g / cm^3
# Si number density = 20.470245 Si / 1000 Ang^3
#
#
#
# Elastic Constant Matrix: (Units=GPa)
#
#
# Indices 1 2 3 4 5 6 
#
# 1 110.0666 45.1475 11.3786 0.0000 0.0000 0.0000
# 2 45.1475 80.3783 7.5511 0.0000 0.0000 0.0000
# 3 11.3786 7.5511 25.5711 0.0000 0.0000 0.0000
# 4 0.0000 0.0000 0.0000 0.7399 0.0000 0.0000
# 5 0.0000 0.0000 0.0000 0.0000 18.8786 0.0000
# 6 0.0000 0.0000 0.0000 0.0000 0.0000 38.3222
#
#
#
# Elastic Compliance Matrix: (Units=1/GPa)
#
#
# Indices 1 2 3 4 5 6 
#
# 1 0.012098 -0.006469 -0.003473 0.000000 0.000000 0.000000
# 2 -0.006469 0.016255 -0.001922 0.000000 0.000000 0.000000
# 3 -0.003473 -0.001922 0.041220 0.000000 0.000000 0.000000
# 4 0.000000 0.000000 0.000000 1.351498 0.000000 0.000000
# 5 0.000000 0.000000 0.000000 0.000000 0.052970 0.000000
# 6 0.000000 0.000000 0.000000 0.000000 0.000000 0.026095
#
#
# Mechanical properties :
#
#
# Convention : Reuss Voigt Hill
#
# Bulk Modulus (GPa) = 21.81240 38.24116 30.02678
# Shear Modulus (GPa) = 3.24856 21.71739 12.48298
#
# Velocity S-wave (km/s) = 1.26112 3.26072 2.47211
# Velocity P-wave (km/s) = 3.57762 5.73570 4.78004
#
# Compressibility (1/GPa) = 0.04584549
#
# Stress axis : x y z
#
# Youngs Moduli (GPa) = 82.65891 61.51869 24.26031
#
# Poissons Ratio (x) = 0.39796 0.08426
# Poissons Ratio (y) = 0.53472 0.04662
# Poissons Ratio (z) = 0.28708 0.11821
#
# Static dielectric constant tensor:
#      x y z
#    x 1.762490 0.000000 0.000000 
#    y 0.000000 1.709050 0.000000 
#    z 0.000000 0.000000 1.731500 
# 
# From -- ./inp_files/13993.got.cif
#   From: 2010.05.17/outbox.cif.g08.bks.cpg/sg65_7_cif.got.tgz:13993.got - 2010.06.03 17:01:31.
