data_PCOD9492764
_publ_section_title
;
Structure prediction by ZEFSAII (Michael W. Deem and Ramdas Pophale) SiO2 
 PCOD9492764
Probable space group: C M M M
;
_chemical_formula_sum "Si O2"
_cell_formula_units_Z 72
_cell_length_a 27.297197
_cell_length_b 14.974484
_cell_length_c 9.736836
_cell_angle_alpha 90.000000
_cell_angle_beta 90.000000
_cell_angle_gamma 90.000000
_cell_volume 3980.043102
_symmetry_space_group_name_H-M "C M M M"
_symmetry_group_IT_number 65
_symmetry_cell_setting 'orthorhombic'
loop_
_space_group_symop_operation_xyz
x,y,z
-x,-y,z
x,-y,-z
-x,y,-z
-x,-y,-z
x,y,-z
-x,y,z
x,-y,z
1/2+x,1/2+y,z
1/2-x,1/2-y,z
1/2+x,1/2-y,-z
1/2-x,1/2+y,-z
1/2-x,1/2-y,-z
1/2+x,1/2+y,-z
1/2-x,1/2+y,z
1/2+x,1/2-y,z
loop_
_atom_site_type_symbol
_atom_site_label
_atom_site_fract_x
_atom_site_fract_y
_atom_site_fract_z
Si Si1 0.442865 0.600968 0.000000
Si Si2 0.790640 0.500000 0.331102
Si Si3 0.941821 0.108203 0.500000
Si Si4 0.444401 0.000000 0.835346
Si Si5 0.380952 0.335137 0.763186
Si Si6 0.810043 0.000000 0.164770
Si Si7 0.858416 0.364634 0.167288
O O1 0.423843 0.654103 0.127516
O O2 0.422099 0.500000 0.000000
O O3 0.500000 0.593444 0.000000
O O4 0.791564 0.500000 0.500000
O O5 0.736662 0.500000 0.265180
O O6 0.818956 0.416753 0.260090
O O7 0.909811 0.144291 0.374677
O O8 0.000000 0.133254 0.500000
O O9 0.940904 0.000000 0.500000
O O10 0.410442 0.085956 0.802738
O O11 0.500000 0.000000 0.778959
O O12 0.448577 0.000000 0.000000
O O13 0.341609 0.411886 0.798743
O O14 0.359208 0.237374 0.784779
O O15 0.798350 0.000000 0.000000
O O16 0.849794 0.371704 0.000000
#
# Coordination Sequence:
#
# PCOD9492764 Si02
#       7
#     8   8   8   8  16   8  16
#     4  11  20  36  60  94 134 170 210 251 300 371
#     4  11  27  45  68  93 122 168 206 261 332 395
#     4  11  24  40  58  88 138 188 216 249 310 381
#     4   8  16  32  58  89 121 158 201 252 304 358
#     4  12  22  39  64  94 129 171 215 262 316 374
#     4  12  23  43  67  95 127 158 216 272 325 381
#     4  10  21  42  66  93 129 164 211 266 318 371
#
# _framework density 18.090256
#
# number of rings (size 3 to 8) (size 9 to 14) (size 15 to 20)
#    0.000    1.222    4.444    2.333    3.111    4.444 
#    0.000    3.333    0.000    1.333    0.000    0.000 
#    0.000    0.000    0.000    0.000    0.000    0.000 
#
# Total GULP energy -200620.304433 kJ/mol
# GULP energy per Si atom -5572.786234 kJ/mol
# Density = 1.804908 g / cm^3
# Si number density = 18.090256 Si / 1000 Ang^3
#
#
#
# Elastic Constant Matrix: (Units=GPa)
#
#
# Indices 1 2 3 4 5 6 
#
# 1 128.1261 61.6197 64.8439 0.0000 0.0000 0.0000
# 2 61.6197 163.5615 52.7401 0.0000 0.0000 0.0000
# 3 64.8439 52.7401 177.6085 0.0000 0.0000 0.0000
# 4 0.0000 0.0000 0.0000 37.6724 0.0000 0.0000
# 5 0.0000 0.0000 0.0000 0.0000 31.8610 0.0000
# 6 0.0000 0.0000 0.0000 0.0000 0.0000 4.6695
#
#
#
# Elastic Compliance Matrix: (Units=1/GPa)
#
#
# Indices 1 2 3 4 5 6 
#
# 1 0.010832 -0.003103 -0.003033 0.000000 0.000000 0.000000
# 2 -0.003103 0.007650 -0.001139 0.000000 0.000000 0.000000
# 3 -0.003033 -0.001139 0.007076 0.000000 0.000000 0.000000
# 4 0.000000 0.000000 0.000000 0.026545 0.000000 0.000000
# 5 0.000000 0.000000 0.000000 0.000000 0.031386 0.000000
# 6 0.000000 0.000000 0.000000 0.000000 0.000000 0.214154
#
#
# Mechanical properties :
#
#
# Convention : Reuss Voigt Hill
#
# Bulk Modulus (GPa) = 90.84133 91.96705 91.40419
# Shear Modulus (GPa) = 15.82964 34.18007 25.00486
#
# Velocity S-wave (km/s) = 2.96131 4.35146 3.72187
# Velocity P-wave (km/s) = 7.87509 8.72899 8.31301
#
# Compressibility (1/GPa) = 0.01100820
#
# Stress axis : x y z
#
# Youngs Moduli (GPa) = 92.31702 130.71796 141.32228
#
# Poissons Ratio (x) = 0.40559 0.42869
# Poissons Ratio (y) = 0.28644 0.16094
# Poissons Ratio (z) = 0.28004 0.14887
#
# Static dielectric constant tensor:
#      x y z
#    x 1.621650 0.000000 0.000000 
#    y 0.000000 1.557130 0.000000 
#    z 0.000000 0.000000 1.595530 
# 
# From -- ./inp_files/15859.got.cif
#   From: 2010.05.17/outbox.cif.g08.bks.cpg/sg65_8_cif.got.tgz:15859.got - 2010.06.03 17:01:31.
