data_PCOD9492937
_publ_section_title
;
Structure prediction by ZEFSAII (Michael W. Deem and Ramdas Pophale) SiO2 
 PCOD9492937
Probable space group: C M M M
;
_chemical_formula_sum "Si O2"
_cell_formula_units_Z 68
_cell_length_a 14.227012
_cell_length_b 13.543698
_cell_length_c 12.915023
_cell_angle_alpha 90.000000
_cell_angle_beta 90.000000
_cell_angle_gamma 90.000000
_cell_volume 2488.548693
_symmetry_space_group_name_H-M "C M M M"
_symmetry_group_IT_number 65
_symmetry_cell_setting 'orthorhombic'
loop_
_space_group_symop_operation_xyz
x,y,z
-x,-y,z
x,-y,-z
-x,y,-z
-x,-y,-z
x,y,-z
-x,y,z
x,-y,z
1/2+x,1/2+y,z
1/2-x,1/2-y,z
1/2+x,1/2-y,-z
1/2-x,1/2+y,-z
1/2-x,1/2-y,-z
1/2+x,1/2+y,-z
1/2-x,1/2+y,z
1/2+x,1/2-y,z
loop_
_atom_site_type_symbol
_atom_site_label
_atom_site_fract_x
_atom_site_fract_y
_atom_site_fract_z
Si Si1 0.384968 0.823646 0.111932
Si Si2 0.866233 0.882368 0.390585
Si Si3 0.106279 0.889447 0.844509
Si Si4 0.150538 0.385352 0.656023
Si Si5 0.000000 0.288515 0.500000
O O1 0.500000 0.823583 0.118849
O O2 0.351318 0.709303 0.109407
O O3 0.350477 0.870031 0.219638
O O4 0.361040 0.869765 0.000000
O O5 0.909760 0.845376 0.500000
O O6 0.901177 0.861075 0.276618
O O7 0.755462 0.865230 0.384664
O O8 0.880571 0.000000 0.395938
O O9 0.000000 0.897285 0.884002
O O10 0.148867 0.000000 0.854548
O O11 0.127750 0.500000 0.634958
O O12 0.080755 0.316716 0.593500
#
# Coordination Sequence:
#
# PCOD9492937 Si02
#       5
#    16  16  16  16   4
#     4  10  22  39  58  85 117 150 195 242 281 335
#     4   9  18  34  56  84 118 149 185 238 287 339
#     4   9  19  38  60  81 109 149 194 238 290 341
#     4  11  21  36  59  88 120 153 190 230 282 342
#     4  12  21  36  62  88 119 160 193 228 278 340
#
# _framework density 27.325164999999998
#
# number of rings (size 3 to 8) (size 9 to 14) (size 15 to 20)
#    0.000    2.118    2.353    1.059    0.000    2.353 
#    2.118    9.412    0.000    4.235    0.000    0.000 
#    0.000    0.000    0.000    0.000    0.000    0.000 
#
# Total GULP energy -189767.864099 kJ/mol
# GULP energy per Si atom -5581.407768 kJ/mol
# Density = 2.726297 g / cm^3
# Si number density = 27.325165 Si / 1000 Ang^3
#
#
#
# Elastic Constant Matrix: (Units=GPa)
#
#
# Indices 1 2 3 4 5 6 
#
# 1 113.3078 -30.8568 21.8639 0.0000 0.0000 0.0000
# 2 -30.8568 92.3634 5.6086 0.0000 0.0000 0.0000
# 3 21.8639 5.6086 254.0703 0.0000 0.0000 0.0000
# 4 0.0000 0.0000 0.0000 14.0166 0.0000 0.0000
# 5 0.0000 0.0000 0.0000 0.0000 -254.0780 0.0000
# 6 0.0000 0.0000 0.0000 0.0000 0.0000 -40.0803
#
#
#
# Elastic Compliance Matrix: (Units=1/GPa)
#
#
# Indices 1 2 3 4 5 6 
#
# 1 0.009923 0.003371 -0.000928 0.000000 0.000000 0.000000
# 2 0.003371 0.011987 -0.000555 0.000000 0.000000 0.000000
# 3 -0.000928 -0.000555 0.004028 0.000000 0.000000 0.000000
# 4 0.000000 0.000000 0.000000 0.071344 0.000000 0.000000
# 5 0.000000 0.000000 0.000000 0.000000 -0.003936 0.000000
# 6 0.000000 0.000000 0.000000 0.000000 0.000000 -0.024950
#
#
# Mechanical properties :
#
#
# Convention : Reuss Voigt Hill
#
# Bulk Modulus (GPa) = 33.65390 50.33032 41.99211
# Shear Modulus (GPa) = 67.09262 -25.15328 20.96967
#
# Velocity S-wave (km/s) = 4.96052 -3.03729 2.77323
# Velocity P-wave (km/s) = 6.71951 2.48170 5.06511
#
# Compressibility (1/GPa) = 0.02971424
#
# Stress axis : x y z
#
# Youngs Moduli (GPa) = 100.77837 83.42519 248.25904
#
# Poissons Ratio (x) = -0.28126 0.23046
# Poissons Ratio (y) = -0.33976 0.13772
# Poissons Ratio (z) = 0.09355 0.04628
#
# Static dielectric constant tensor:
#      x y z
#    x 2.115600 0.000000 0.000000 
#    y 0.000000 2.203620 0.000000 
#    z 0.000000 0.000000 2.130950 
# 
# From -- ./inp_files/28312.got.cif
#   From: 2010.05.17/outbox.cif.g08.bks.cpg/sg65_15_cif.got.tgz:28312.got - 2010.06.03 17:01:31.
