data_PCOD9492523
_publ_section_title
;
Structure prediction by ZEFSAII (Michael W. Deem and Ramdas Pophale) SiO2 
 PCOD9492523
Probable space group: C M M M
;
_chemical_formula_sum "Si O2"
_cell_formula_units_Z 68
_cell_length_a 7.852875
_cell_length_b 19.436836
_cell_length_c 22.434222
_cell_angle_alpha 90.000000
_cell_angle_beta 90.000000
_cell_angle_gamma 90.000000
_cell_volume 3424.248451
_symmetry_space_group_name_H-M "C M M M"
_symmetry_group_IT_number 65
_symmetry_cell_setting 'orthorhombic'
loop_
_space_group_symop_operation_xyz
x,y,z
-x,-y,z
x,-y,-z
-x,y,-z
-x,-y,-z
x,y,-z
-x,y,z
x,-y,z
1/2+x,1/2+y,z
1/2-x,1/2-y,z
1/2+x,1/2-y,-z
1/2-x,1/2+y,-z
1/2-x,1/2-y,-z
1/2+x,1/2+y,-z
1/2-x,1/2+y,z
1/2+x,1/2-y,z
loop_
_atom_site_type_symbol
_atom_site_label
_atom_site_fract_x
_atom_site_fract_y
_atom_site_fract_z
Si Si1 0.200773 0.578156 0.677350
Si Si2 0.197408 0.330338 0.914621
Si Si3 0.500000 0.624682 0.000000
Si Si4 0.296428 0.671597 0.432250
Si Si5 0.804924 0.825612 0.216501
O O1 0.264313 0.500000 0.673281
O O2 0.227551 0.618567 0.615817
O O3 0.284563 0.620210 0.730983
O O4 0.000000 0.576722 0.689908
O O5 0.250000 0.250000 0.924323
O O6 0.204808 0.343063 0.843736
O O7 0.000000 0.339967 0.933595
O O8 0.345832 0.371422 0.948688
O O9 0.233870 0.659550 0.500000
O O10 0.500000 0.666117 0.432401
O O11 0.250000 0.750000 0.416000
O O12 0.750000 0.750000 0.238337
O O13 0.000000 0.820218 0.197770
#
# Coordination Sequence:
#
# PCOD9492523 Si02
#       5
#    16  16   4  16  16
#     4  11  24  40  59  84 115 155 201 247 298 350
#     4  11  20  31  49  77 115 156 192 239 297 361
#     4  12  20  32  46  82 117 156 189 238 304 358
#     4  10  21  38  61  89 120 155 195 239 293 355
#     4  11  21  38  58  83 117 154 198 245 298 359
#
# _framework density 19.858371999999999
#
# number of rings (size 3 to 8) (size 9 to 14) (size 15 to 20)
#    0.000    1.176    2.353    6.353    0.000    3.765 
#    0.000    2.353    0.000    0.000    0.000    1.647 
#    0.000    3.765    0.000    0.000    0.000    0.000 
#
# Total GULP energy -189415.085546 kJ/mol
# GULP energy per Si atom -5571.031928 kJ/mol
# Density = 1.981317 g / cm^3
# Si number density = 19.858372 Si / 1000 Ang^3
#
#
#
# Elastic Constant Matrix: (Units=GPa)
#
#
# Indices 1 2 3 4 5 6 
#
# 1 139.1788 12.5685 17.6147 0.0000 0.0000 0.0000
# 2 12.5685 88.6728 69.3200 0.0000 0.0000 0.0000
# 3 17.6147 69.3200 112.3306 0.0000 0.0000 0.0000
# 4 0.0000 0.0000 0.0000 -9.6339 0.0000 0.0000
# 5 0.0000 0.0000 0.0000 0.0000 87.3448 0.0000
# 6 0.0000 0.0000 0.0000 0.0000 0.0000 17.5012
#
#
#
# Elastic Compliance Matrix: (Units=1/GPa)
#
#
# Indices 1 2 3 4 5 6 
#
# 1 0.007334 -0.000271 -0.000983 0.000000 0.000000 0.000000
# 2 -0.000271 0.021799 -0.013410 0.000000 0.000000 0.000000
# 3 -0.000983 -0.013410 0.017332 0.000000 0.000000 0.000000
# 4 0.000000 0.000000 0.000000 -0.103800 0.000000 0.000000
# 5 0.000000 0.000000 0.000000 0.000000 0.011449 0.000000
# 6 0.000000 0.000000 0.000000 0.000000 0.000000 0.057139
#
#
# Mechanical properties :
#
#
# Convention : Reuss Voigt Hill
#
# Bulk Modulus (GPa) = 58.35301 59.90983 59.13142
# Shear Modulus (GPa) = 108.01112 35.08768 71.54940
#
# Velocity S-wave (km/s) = 7.38301 4.20801 6.00900
# Velocity P-wave (km/s) = 10.10578 7.33783 8.83093
#
# Compressibility (1/GPa) = 0.01713708
#
# Stress axis : x y z
#
# Youngs Moduli (GPa) = 136.35374 45.87368 57.69795
#
# Poissons Ratio (x) = 0.01245 0.05669
# Poissons Ratio (y) = 0.03701 0.77372
# Poissons Ratio (z) = 0.13397 0.61516
#
# Static dielectric constant tensor:
#      x y z
#    x 1.720990 0.000000 0.000000 
#    y 0.000000 1.680270 0.000000 
#    z 0.000000 0.000000 1.696600 
# 
# From -- ./inp_files/58965.got.cif
#   From: 2010.05.17/outbox.cif.g08.bks.cpg/sg65_30_cif.got.tgz:58965.got - 2010.06.03 17:01:31.
