data_PCOD9492869
_publ_section_title
;
Structure prediction by ZEFSAII (Michael W. Deem and Ramdas Pophale) SiO2 
 PCOD9492869
Probable space group: C M M M
;
_chemical_formula_sum "Si O2"
_cell_formula_units_Z 64
_cell_length_a 10.939433
_cell_length_b 25.904445
_cell_length_c 11.583184
_cell_angle_alpha 90.000000
_cell_angle_beta 90.000000
_cell_angle_gamma 90.000000
_cell_volume 3282.441992
_symmetry_space_group_name_H-M "C M M M"
_symmetry_group_IT_number 65
_symmetry_cell_setting 'orthorhombic'
loop_
_space_group_symop_operation_xyz
x,y,z
-x,-y,z
x,-y,-z
-x,y,-z
-x,-y,-z
x,y,-z
-x,y,z
x,-y,z
1/2+x,1/2+y,z
1/2-x,1/2-y,z
1/2+x,1/2-y,-z
1/2-x,1/2+y,-z
1/2-x,1/2-y,-z
1/2+x,1/2+y,-z
1/2-x,1/2+y,z
1/2+x,1/2-y,z
loop_
_atom_site_type_symbol
_atom_site_label
_atom_site_fract_x
_atom_site_fract_y
_atom_site_fract_z
Si Si1 0.246519 0.364892 0.692605
Si Si2 0.645244 0.941057 0.500000
Si Si3 0.353964 0.443034 0.869580
Si Si4 0.142415 0.793055 0.500000
Si Si5 0.635916 0.788677 0.867349
O O1 0.186160 0.407182 0.609302
O O2 0.319963 0.397150 0.786497
O O3 0.329748 0.328185 0.612367
O O4 0.152947 0.330427 0.766741
O O5 0.500000 0.944258 0.500000
O O6 0.694657 0.000000 0.500000
O O7 0.500000 0.445383 0.874856
O O8 0.310326 0.500000 0.830269
O O9 0.308105 0.434729 0.000000
O O10 0.250000 0.750000 0.500000
O O11 0.000000 0.775242 0.500000
O O12 0.500000 0.764655 0.856141
O O13 0.750000 0.750000 0.854829
O O14 0.643119 0.809156 0.000000
#
# Coordination Sequence:
#
# PCOD9492869 Si02
#       5
#    16   8  16   8  16
#     4  11  21  36  60  82 110 148 192 233 280 335
#     4  10  22  38  55  79 110 146 190 236 280 327
#     4   9  18  33  55  85 118 148 180 222 273 332
#     4  11  26  42  58  82 113 150 194 244 291 336
#     4  10  22  39  59  86 118 150 187 233 285 341
#
# _framework density 19.497681
#
# number of rings (size 3 to 8) (size 9 to 14) (size 15 to 20)
#    0.000    1.875    0.000    4.500    0.000    7.000 
#    0.000    2.500    0.000    6.000    0.000   10.500 
#    0.000    0.000    0.000    0.000    0.000    0.000 
#
# Total GULP energy -178476.597457 kJ/mol
# GULP energy per Si atom -5577.393671 kJ/mol
# Density = 1.945330 g / cm^3
# Si number density = 19.497681 Si / 1000 Ang^3
#
#
#
# Elastic Constant Matrix: (Units=GPa)
#
#
# Indices 1 2 3 4 5 6 
#
# 1 115.4057 55.1257 39.0444 0.0000 0.0000 0.0000
# 2 55.1257 104.3519 57.6899 0.0000 0.0000 0.0000
# 3 39.0444 57.6899 103.2464 0.0000 0.0000 0.0000
# 4 0.0000 0.0000 0.0000 37.9023 0.0000 0.0000
# 5 0.0000 0.0000 0.0000 0.0000 -22.8169 0.0000
# 6 0.0000 0.0000 0.0000 0.0000 0.0000 30.2458
#
#
#
# Elastic Compliance Matrix: (Units=1/GPa)
#
#
# Indices 1 2 3 4 5 6 
#
# 1 0.011729 -0.005418 -0.001409 0.000000 0.000000 0.000000
# 2 -0.005418 0.016369 -0.007097 0.000000 0.000000 0.000000
# 3 -0.001409 -0.007097 0.014184 0.000000 0.000000 0.000000
# 4 0.000000 0.000000 0.000000 0.026384 0.000000 0.000000
# 5 0.000000 0.000000 0.000000 0.000000 -0.043827 0.000000
# 6 0.000000 0.000000 0.000000 0.000000 0.000000 0.033062
#
#
# Mechanical properties :
#
#
# Convention : Reuss Voigt Hill
#
# Bulk Modulus (GPa) = 69.27609 69.63600 69.45604
# Shear Modulus (GPa) = 55.21229 20.47583 37.84406
#
# Velocity S-wave (km/s) = 5.32718 3.24414 4.41040
# Velocity P-wave (km/s) = 8.57006 7.05870 7.85083
#
# Compressibility (1/GPa) = 0.01443499
#
# Stress axis : x y z
#
# Youngs Moduli (GPa) = 85.25557 61.09267 70.50215
#
# Poissons Ratio (x) = 0.33097 0.09931
# Poissons Ratio (y) = 0.46188 0.50038
# Poissons Ratio (z) = 0.12009 0.43360
#
# Static dielectric constant tensor:
#      x y z
#    x 1.665170 0.000000 0.000000 
#    y 0.000000 1.699480 0.000000 
#    z 0.000000 0.000000 1.709460 
# 
# From -- ./inp_files/22244.got.cif
#   From: 2010.05.17/outbox.cif.g08.bks.cpg/sg65_12_cif.got.tgz:22244.got - 2010.06.03 17:01:31.
