data_PCOD9492871
_publ_section_title
;
Structure prediction by ZEFSAII (Michael W. Deem and Ramdas Pophale) SiO2 
 PCOD9492871
Probable space group: C M M M
;
_chemical_formula_sum "Si O2"
_cell_formula_units_Z 72
_cell_length_a 9.927193
_cell_length_b 29.168876
_cell_length_c 13.815876
_cell_angle_alpha 90.000000
_cell_angle_beta 90.000000
_cell_angle_gamma 90.000000
_cell_volume 4000.594986
_symmetry_space_group_name_H-M "C M M M"
_symmetry_group_IT_number 65
_symmetry_cell_setting 'orthorhombic'
loop_
_space_group_symop_operation_xyz
x,y,z
-x,-y,z
x,-y,-z
-x,y,-z
-x,-y,-z
x,y,-z
-x,y,z
x,-y,z
1/2+x,1/2+y,z
1/2-x,1/2-y,z
1/2+x,1/2-y,-z
1/2-x,1/2+y,-z
1/2-x,1/2-y,-z
1/2+x,1/2+y,-z
1/2-x,1/2+y,z
1/2+x,1/2-y,z
loop_
_atom_site_type_symbol
_atom_site_label
_atom_site_fract_x
_atom_site_fract_y
_atom_site_fract_z
Si Si1 0.000000 0.946981 0.884101
Si Si2 0.250371 0.388310 0.807606
Si Si3 0.154465 0.500000 0.615944
Si Si4 0.655032 0.791336 0.116347
Si Si5 0.000000 0.555160 0.884072
Si Si6 0.160572 0.912287 0.387056
O O1 0.126374 0.917630 0.849264
O O2 0.000000 0.000000 0.848357
O O3 0.000000 0.949078 0.000000
O O4 0.219307 0.340124 0.857463
O O5 0.287032 0.378302 0.695484
O O6 0.125467 0.421329 0.831530
O O7 0.140532 0.500000 0.500000
O O8 0.247802 0.456454 0.637288
O O9 0.000000 0.500000 0.654626
O O10 0.500000 0.788793 0.151837
O O11 0.750000 0.750000 0.151613
O O12 0.649594 0.788192 0.000000
O O13 0.000000 0.500000 0.877399
O O14 0.000000 0.566300 0.000000
O O15 0.182615 0.900080 0.500000
O O16 0.000000 0.921160 0.376301
#
# Coordination Sequence:
#
# PCOD9492871 Si02
#       6
#     8  16   8  16   8  16
#     4  11  24  38  54  84 124 163 208 248 286 356
#     4  12  23  38  62  87 117 163 206 247 299 360
#     4   9  19  33  53  79 108 147 200 257 302 343
#     4  10  22  40  63  91 121 153 194 247 306 363
#     4  11  24  40  58  84 124 165 200 244 302 364
#     4  10  22  38  55  80 117 159 203 251 300 353
#
# _framework density 17.997322
#
# number of rings (size 3 to 8) (size 9 to 14) (size 15 to 20)
#    0.000    1.444    2.222    3.000    6.222    3.111 
#    0.000    0.000    0.000    0.667    0.000    0.000 
#    0.000    0.000    0.000    0.000    0.000    0.000 
#
# Total GULP energy -200772.028443 kJ/mol
# GULP energy per Si atom -5577.000790 kJ/mol
# Density = 1.795636 g / cm^3
# Si number density = 17.997322 Si / 1000 Ang^3
#
#
#
# Elastic Constant Matrix: (Units=GPa)
#
#
# Indices 1 2 3 4 5 6 
#
# 1 168.1518 65.1935 36.4551 0.0000 0.0000 0.0000
# 2 65.1935 114.3337 13.5028 0.0000 0.0000 0.0000
# 3 36.4551 13.5028 84.7497 0.0000 0.0000 0.0000
# 4 0.0000 0.0000 0.0000 8.0862 0.0000 0.0000
# 5 0.0000 0.0000 0.0000 0.0000 -66.9504 0.0000
# 6 0.0000 0.0000 0.0000 0.0000 0.0000 17.5425
#
#
#
# Elastic Compliance Matrix: (Units=1/GPa)
#
#
# Indices 1 2 3 4 5 6 
#
# 1 0.008262 -0.004374 -0.002857 0.000000 0.000000 0.000000
# 2 -0.004374 0.011229 0.000092 0.000000 0.000000 0.000000
# 3 -0.002857 0.000092 0.013014 0.000000 0.000000 0.000000
# 4 0.000000 0.000000 0.000000 0.123668 0.000000 0.000000
# 5 0.000000 0.000000 0.000000 0.000000 -0.014936 0.000000
# 6 0.000000 0.000000 0.000000 0.000000 0.000000 0.057004
#
#
# Mechanical properties :
#
#
# Convention : Reuss Voigt Hill
#
# Bulk Modulus (GPa) = 54.86048 66.39310 60.62679
# Shear Modulus (GPa) = 22.87340 8.54124 15.70732
#
# Velocity S-wave (km/s) = 3.56888 2.18086 2.95745
# Velocity P-wave (km/s) = 6.89430 6.58120 6.73956
#
# Compressibility (1/GPa) = 0.01822806
#
# Stress axis : x y z
#
# Youngs Moduli (GPa) = 121.03420 89.05257 76.84182
#
# Poissons Ratio (x) = 0.38949 0.21955
# Poissons Ratio (y) = 0.52936 -0.00709
# Poissons Ratio (z) = 0.34581 -0.00821
#
# Static dielectric constant tensor:
#      x y z
#    x 1.437210 0.000000 0.000000 
#    y 0.000000 1.604080 0.000000 
#    z 0.000000 0.000000 1.667080 
# 
# From -- ./inp_files/36669.got.cif
#   From: 2010.05.17/outbox.cif.g08.bks.cpg/sg65_19_cif.got.tgz:36669.got - 2010.06.03 17:01:31.
