data_PCOD9492544
_publ_section_title
;
Structure prediction by ZEFSAII (Michael W. Deem and Ramdas Pophale) SiO2 
 PCOD9492544
Probable space group: C M M M
;
_chemical_formula_sum "Si O2"
_cell_formula_units_Z 72
_cell_length_a 29.808994
_cell_length_b 8.817196
_cell_length_c 14.125844
_cell_angle_alpha 90.000000
_cell_angle_beta 90.000000
_cell_angle_gamma 90.000000
_cell_volume 3712.720195
_symmetry_space_group_name_H-M "C M M M"
_symmetry_group_IT_number 65
_symmetry_cell_setting 'orthorhombic'
loop_
_space_group_symop_operation_xyz
x,y,z
-x,-y,z
x,-y,-z
-x,y,-z
-x,-y,-z
x,y,-z
-x,y,z
x,-y,z
1/2+x,1/2+y,z
1/2-x,1/2-y,z
1/2+x,1/2-y,-z
1/2-x,1/2+y,-z
1/2-x,1/2-y,-z
1/2+x,1/2+y,-z
1/2-x,1/2+y,z
1/2+x,1/2-y,z
loop_
_atom_site_type_symbol
_atom_site_label
_atom_site_fract_x
_atom_site_fract_y
_atom_site_fract_z
Si Si1 0.079226 0.829504 0.500000
Si Si2 0.387460 0.318680 0.186535
Si Si3 0.202567 0.819502 0.296225
Si Si4 0.946711 0.182267 0.000000
Si Si5 0.452326 0.828884 0.673127
Si Si6 0.173652 0.321114 0.500000
O O1 0.050217 0.792573 0.590674
O O2 0.120824 0.715082 0.500000
O O3 0.096766 0.000000 0.500000
O O4 0.395178 0.500000 0.203304
O O5 0.335219 0.294091 0.214481
O O6 0.414214 0.281443 0.089621
O O7 0.411912 0.211465 0.260673
O O8 0.250000 0.750000 0.266964
O O9 0.190814 0.749930 0.400377
O O10 0.205902 0.000000 0.309326
O O11 0.000000 0.237901 0.000000
O O12 0.951052 0.000000 0.000000
O O13 0.500000 0.815606 0.724681
O O14 0.449259 0.000000 0.635308
O O15 0.183082 0.500000 0.500000
#
# Coordination Sequence:
#
# PCOD9492544 Si02
#       6
#     8  16  16   8  16   8
#     4  12  23  36  55  82 116 157 202 242 290 354
#     4  10  21  38  62  88 117 153 200 253 302 360
#     4  11  23  39  60  88 121 160 205 251 302 358
#     4   9  18  36  64  95 121 151 197 253 308 358
#     4  11  23  37  55  82 118 158 198 243 299 358
#     4  12  23  38  61  87 121 162 201 250 302 352
#
# _framework density 19.392787999999999
#
# number of rings (size 3 to 8) (size 9 to 14) (size 15 to 20)
#    0.000    1.222    2.222    4.667    0.000    4.889 
#    0.000    1.111    0.000    2.000    0.000    0.000 
#    0.000    0.000    0.000    0.000    0.000    0.000 
#
# Total GULP energy -200502.566861 kJ/mol
# GULP energy per Si atom -5569.515746 kJ/mol
# Density = 1.934865 g / cm^3
# Si number density = 19.392788 Si / 1000 Ang^3
#
#
#
# Elastic Constant Matrix: (Units=GPa)
#
#
# Indices 1 2 3 4 5 6 
#
# 1 163.8234 42.7827 49.0517 0.0000 0.0000 0.0000
# 2 42.7827 65.0474 29.7016 0.0000 0.0000 0.0000
# 3 49.0517 29.7016 86.7831 0.0000 0.0000 0.0000
# 4 0.0000 0.0000 0.0000 22.5384 0.0000 0.0000
# 5 0.0000 0.0000 0.0000 0.0000 11.0882 0.0000
# 6 0.0000 0.0000 0.0000 0.0000 0.0000 24.7577
#
#
#
# Elastic Compliance Matrix: (Units=1/GPa)
#
#
# Indices 1 2 3 4 5 6 
#
# 1 0.008078 -0.003826 -0.003257 0.000000 0.000000 0.000000
# 2 -0.003826 0.020033 -0.004694 0.000000 0.000000 0.000000
# 3 -0.003257 -0.004694 0.014970 0.000000 0.000000 0.000000
# 4 0.000000 0.000000 0.000000 0.044369 0.000000 0.000000
# 5 0.000000 0.000000 0.000000 0.000000 0.090186 0.000000
# 6 0.000000 0.000000 0.000000 0.000000 0.000000 0.040391
#
#
# Mechanical properties :
#
#
# Convention : Reuss Voigt Hill
#
# Bulk Modulus (GPa) = 51.20681 62.08065 56.64373
# Shear Modulus (GPa) = 20.15393 24.61805 22.38599
#
# Velocity S-wave (km/s) = 3.22724 3.56679 3.40125
# Velocity P-wave (km/s) = 6.35210 7.00317 6.68556
#
# Compressibility (1/GPa) = 0.01952865
#
# Stress axis : x y z
#
# Youngs Moduli (GPa) = 123.78594 49.91702 66.80003
#
# Poissons Ratio (x) = 0.19100 0.21754
# Poissons Ratio (y) = 0.47365 0.31354
# Poissons Ratio (z) = 0.40311 0.23429
#
# Static dielectric constant tensor:
#      x y z
#    x 1.700760 0.000000 0.000000 
#    y 0.000000 1.648640 0.000000 
#    z 0.000000 0.000000 1.738040 
# 
# From -- ./inp_files/47512.got.cif
#   From: 2010.05.17/outbox.cif.g08.bks.cpg/sg65_24_cif.got.tgz:47512.got - 2010.06.03 17:01:31.
